WMY.pdb
     RDKit          3D

 35 37  0  0  1  0  0  0  0  0999 V2000
    5.8139  -17.4881   24.1282 N   0  0  0  0  0  0  0  0  0  0  0  0
    7.0154  -16.7817   23.7488 C   0  0  1  0  0  0  0  0  0  0  0  0
    7.7283  -16.2981   24.9934 C   0  0  0  0  0  0  0  0  0  0  0  0
    7.0157  -15.2181   25.7074 C   0  0  0  0  0  0  0  0  0  0  0  0
    5.7936  -15.3974   26.3697 C   0  0  0  0  0  0  0  0  0  0  0  0
    5.4378  -14.2350   26.9363 N   0  0  0  0  0  0  0  0  0  0  0  0
    6.3597  -13.2759   26.6896 C   0  0  0  0  0  0  0  0  0  0  0  0
    6.4364  -11.9486   27.0455 C   0  0  0  0  0  0  0  0  0  0  0  0
    7.5341  -11.2459   26.6076 C   0  0  0  0  0  0  0  0  0  0  0  0
    8.5281  -11.8087   25.8481 C   0  0  0  0  0  0  0  0  0  0  0  0
    8.4109  -13.1521   25.5117 C   0  0  0  0  0  0  0  0  0  0  0  0
    7.3486  -13.9022   25.9156 C   0  0  0  0  0  0  0  0  0  0  0  0
    7.9305  -17.7566   23.0994 C   0  0  0  0  0  0  0  0  0  0  0  0
    8.4481  -18.6579   23.7788 O   0  0  0  0  0  0  0  0  0  0  0  0
    8.9898  -12.1662   18.5759 C   0  0  0  0  0  0  0  0  0  0  0  0
    8.5873  -13.0231   20.1398 S   0  0  0  0  0  0  0  0  0  0  0  0
    9.1807  -14.7516   20.0334 C   0  0  0  0  0  0  0  0  0  0  0  0
    8.8802  -15.3831   21.3961 C   0  0  0  0  0  0  0  0  0  0  0  0
    9.3165  -16.8495   21.2639 C   0  0  2  0  0  0  0  0  0  0  0  0
    8.2268  -17.6745   21.6943 N   0  0  0  0  0  0  0  0  0  0  0  0
   10.5307  -17.1123   22.0574 C   0  0  0  0  0  0  0  0  0  0  0  0
   10.4512  -17.0264   23.3313 O   0  0  0  0  0  0  0  0  0  0  0  0
   13.7722  -15.0674   15.9974 O   0  0  0  0  0  0  0  0  0  0  0  0
   13.5519  -15.1004   17.3640 C   0  0  0  0  0  0  0  0  0  0  0  0
   12.9694  -14.0330   18.0301 C   0  0  0  0  0  0  0  0  0  0  0  0
   12.7464  -14.0563   19.3870 C   0  0  0  0  0  0  0  0  0  0  0  0
   13.1228  -15.1874   20.0834 C   0  0  0  0  0  0  0  0  0  0  0  0
   12.9565  -15.3107   21.5473 C   0  0  0  0  0  0  0  0  0  0  0  0
   12.9763  -16.7419   21.9512 C   0  0  2  0  0  0  0  0  0  0  0  0
   11.7878  -17.4551   21.5209 N   0  0  0  0  0  0  0  0  0  0  0  0
   13.2177  -16.9482   23.3898 C   0  0  0  0  0  0  0  0  0  0  0  0
   14.2101  -16.4892   23.9834 O   0  0  0  0  0  0  0  0  0  0  0  0
   13.7043  -16.2476   19.4058 C   0  0  0  0  0  0  0  0  0  0  0  0
   13.9260  -16.2220   18.0499 C   0  0  0  0  0  0  0  0  0  0  0  0
   12.2982  -17.6878   24.1169 O   0  0  0  0  0  0  0  0  0  0  0  0
  2  1  1  1
  2  3  1  0
  4  3  1  0
  5  4  2  0
  6  5  1  0
  7  6  1  0
  7 12  2  0
  8  9  2  0
  8  7  1  0
  9 10  1  0
 10 11  2  0
 12 11  1  0
 12  4  1  0
 13 14  2  0
 13  2  1  0
 15 16  1  0
 16 17  1  0
 17 18  1  0
 19 18  1  1
 19 20  1  0
 20 13  1  0
 21 19  1  0
 22 21  2  0
 23 24  1  0
 24 34  2  0
 25 24  1  0
 25 26  2  0
 26 27  1  0
 27 33  2  0
 27 28  1  0
 29 28  1  1
 29 30  1  0
 30 21  1  0
 31 29  1  0
 32 31  2  0
 34 33  1  0
 35 31  1  0
M  END
$$$$
