WMY.pdb
     RDKit          3D

 35 37  0  0  1  0  0  0  0  0999 V2000
    6.9584  -18.0201   25.0963 N   0  0  0  0  0  0  0  0  0  0  0  0
    7.5975  -17.2438   24.0592 C   0  0  1  0  0  0  0  0  0  0  0  0
    8.2545  -16.0271   24.6749 C   0  0  0  0  0  0  0  0  0  0  0  0
    7.3225  -15.1641   25.4303 C   0  0  0  0  0  0  0  0  0  0  0  0
    6.1002  -15.6083   25.9525 C   0  0  0  0  0  0  0  0  0  0  0  0
    5.5167  -14.5916   26.6042 N   0  0  0  0  0  0  0  0  0  0  0  0
    6.2846  -13.4790   26.5485 C   0  0  0  0  0  0  0  0  0  0  0  0
    6.1153  -12.2084   27.0498 C   0  0  0  0  0  0  0  0  0  0  0  0
    7.1126  -11.2970   26.7940 C   0  0  0  0  0  0  0  0  0  0  0  0
    8.2398  -11.6040   26.0751 C   0  0  0  0  0  0  0  0  0  0  0  0
    8.3704  -12.8990   25.5877 C   0  0  0  0  0  0  0  0  0  0  0  0
    7.4183  -13.8473   25.8080 C   0  0  0  0  0  0  0  0  0  0  0  0
    8.6977  -18.0648   23.4890 C   0  0  0  0  0  0  0  0  0  0  0  0
    9.1962  -18.9778   24.1672 O   0  0  0  0  0  0  0  0  0  0  0  0
    7.6229  -20.4464   18.4084 C   0  0  0  0  0  0  0  0  0  0  0  0
    8.3620  -18.8020   18.1056 S   0  0  0  0  0  0  0  0  0  0  0  0
    8.9414  -18.1145   19.7002 C   0  0  0  0  0  0  0  0  0  0  0  0
    9.8783  -19.1694   20.2964 C   0  0  0  0  0  0  0  0  0  0  0  0
   10.2806  -18.6175   21.6718 C   0  0  2  0  0  0  0  0  0  0  0  0
    9.1954  -17.8202   22.1618 N   0  0  0  0  0  0  0  0  0  0  0  0
   11.5233  -17.8298   21.5815 C   0  0  0  0  0  0  0  0  0  0  0  0
   12.6141  -18.3743   21.9691 O   0  0  0  0  0  0  0  0  0  0  0  0
    7.7612  -13.6034   18.1932 O   0  0  0  0  0  0  0  0  0  0  0  0
    9.0334  -13.8878   18.6599 C   0  0  0  0  0  0  0  0  0  0  0  0
    9.6993  -15.0460   18.2890 C   0  0  0  0  0  0  0  0  0  0  0  0
   10.9629  -15.3373   18.7470 C   0  0  0  0  0  0  0  0  0  0  0  0
   11.5642  -14.4336   19.6002 C   0  0  0  0  0  0  0  0  0  0  0  0
   12.9077  -14.6574   20.1755 C   0  0  0  0  0  0  0  0  0  0  0  0
   12.8853  -15.8181   21.1050 C   0  0  2  0  0  0  0  0  0  0  0  0
   11.6093  -16.5095   21.0968 N   0  0  0  0  0  0  0  0  0  0  0  0
   13.2893  -15.4827   22.4815 C   0  0  0  0  0  0  0  0  0  0  0  0
   12.5495  -15.6562   23.4666 O   0  0  0  0  0  0  0  0  0  0  0  0
   10.8879  -13.2795   19.9634 C   0  0  0  0  0  0  0  0  0  0  0  0
    9.6253  -12.9906   19.5043 C   0  0  0  0  0  0  0  0  0  0  0  0
   14.5512  -14.9488   22.6906 O   0  0  0  0  0  0  0  0  0  0  0  0
  2  1  1  1
  2  3  1  0
  4  3  1  0
  5  4  2  0
  6  5  1  0
  7  6  1  0
  7 12  2  0
  8  9  2  0
  8  7  1  0
  9 10  1  0
 10 11  2  0
 12 11  1  0
 12  4  1  0
 13 14  2  0
 13  2  1  0
 15 16  1  0
 16 17  1  0
 17 18  1  0
 19 18  1  6
 19 20  1  0
 20 13  1  0
 21 19  1  0
 22 21  2  0
 23 24  1  0
 24 34  2  0
 25 24  1  0
 25 26  2  0
 26 27  1  0
 27 33  2  0
 27 28  1  0
 29 28  1  6
 29 30  1  0
 30 21  1  0
 31 29  1  0
 32 31  2  0
 34 33  1  0
 35 31  1  0
M  END
$$$$
