WMY.pdb
     RDKit          3D

 35 37  0  0  1  0  0  0  0  0999 V2000
    6.3994  -18.9095   23.8999 N   0  0  0  0  0  0  0  0  0  0  0  0
    6.7385  -17.5187   23.7062 C   0  0  1  0  0  0  0  0  0  0  0  0
    7.1513  -16.9129   25.0305 C   0  0  0  0  0  0  0  0  0  0  0  0
    6.3005  -15.7838   25.4610 C   0  0  0  0  0  0  0  0  0  0  0  0
    5.0026  -15.9361   25.9673 C   0  0  0  0  0  0  0  0  0  0  0  0
    4.5228  -14.7260   26.2902 N   0  0  0  0  0  0  0  0  0  0  0  0
    5.4331  -13.7603   26.0266 C   0  0  0  0  0  0  0  0  0  0  0  0
    5.4054  -12.3925   26.1776 C   0  0  0  0  0  0  0  0  0  0  0  0
    6.5273  -11.6976   25.7916 C   0  0  0  0  0  0  0  0  0  0  0  0
    7.6428  -12.3060   25.2748 C   0  0  0  0  0  0  0  0  0  0  0  0
    7.6282  -13.6892   25.1398 C   0  0  0  0  0  0  0  0  0  0  0  0
    6.5481  -14.4338   25.5048 C   0  0  0  0  0  0  0  0  0  0  0  0
    7.9392  -17.4607   22.8318 C   0  0  0  0  0  0  0  0  0  0  0  0
    8.7276  -18.4197   22.8086 O   0  0  0  0  0  0  0  0  0  0  0  0
    8.5274  -12.7402   18.2573 C   0  0  0  0  0  0  0  0  0  0  0  0
    8.0510  -12.7463   20.0222 S   0  0  0  0  0  0  0  0  0  0  0  0
    9.1206  -13.9326   20.9164 C   0  0  0  0  0  0  0  0  0  0  0  0
    9.1177  -15.2146   20.0781 C   0  0  0  0  0  0  0  0  0  0  0  0
    9.3013  -16.3557   21.0892 C   0  0  2  0  0  0  0  0  0  0  0  0
    8.2037  -16.3107   22.0093 N   0  0  0  0  0  0  0  0  0  0  0  0
   10.5917  -16.2358   21.7917 C   0  0  0  0  0  0  0  0  0  0  0  0
   11.3041  -15.1956   21.5748 O   0  0  0  0  0  0  0  0  0  0  0  0
   11.8063  -14.8602   30.0648 O   0  0  0  0  0  0  0  0  0  0  0  0
   11.5088  -15.1392   28.7416 C   0  0  0  0  0  0  0  0  0  0  0  0
   12.4449  -14.9593   27.7348 C   0  0  0  0  0  0  0  0  0  0  0  0
   12.1591  -15.2337   26.4178 C   0  0  0  0  0  0  0  0  0  0  0  0
   10.8955  -15.7009   26.1158 C   0  0  0  0  0  0  0  0  0  0  0  0
   10.4698  -16.0015   24.7322 C   0  0  0  0  0  0  0  0  0  0  0  0
   11.5269  -16.7690   24.0212 C   0  0  2  0  0  0  0  0  0  0  0  0
   11.1113  -17.1849   22.6943 N   0  0  0  0  0  0  0  0  0  0  0  0
   12.0460  -17.9138   24.7894 C   0  0  0  0  0  0  0  0  0  0  0  0
   11.6881  -19.0873   24.5825 O   0  0  0  0  0  0  0  0  0  0  0  0
    9.9687  -15.8764   27.1314 C   0  0  0  0  0  0  0  0  0  0  0  0
   10.2568  -15.6016   28.4466 C   0  0  0  0  0  0  0  0  0  0  0  0
   12.9755  -17.6745   25.7893 O   0  0  0  0  0  0  0  0  0  0  0  0
  2  1  1  1
  2  3  1  0
  4  3  1  0
  5  4  2  0
  6  5  1  0
  7  6  1  0
  7 12  2  0
  8  9  2  0
  8  7  1  0
  9 10  1  0
 10 11  2  0
 12 11  1  0
 12  4  1  0
 13 14  2  0
 13  2  1  0
 15 16  1  0
 16 17  1  0
 17 18  1  0
 19 18  1  6
 19 20  1  0
 20 13  1  0
 21 19  1  0
 22 21  2  0
 23 24  1  0
 24 34  2  0
 25 24  1  0
 25 26  2  0
 26 27  1  0
 27 33  2  0
 27 28  1  0
 29 28  1  1
 29 30  1  0
 30 21  1  0
 31 29  1  0
 32 31  2  0
 34 33  1  0
 35 31  1  0
M  END
$$$$
