WMY.pdb
     RDKit          3D

 35 37  0  0  1  0  0  0  0  0999 V2000
    6.3787  -17.3793   24.2014 N   0  0  0  0  0  0  0  0  0  0  0  0
    7.3532  -16.3827   23.8226 C   0  0  1  0  0  0  0  0  0  0  0  0
    8.0159  -15.8296   25.0660 C   0  0  0  0  0  0  0  0  0  0  0  0
    7.1814  -14.8597   25.8055 C   0  0  0  0  0  0  0  0  0  0  0  0
    5.9352  -15.1727   26.3651 C   0  0  0  0  0  0  0  0  0  0  0  0
    5.4594  -14.0850   26.9891 N   0  0  0  0  0  0  0  0  0  0  0  0
    6.3230  -13.0493   26.8791 C   0  0  0  0  0  0  0  0  0  0  0  0
    6.2794  -11.7518   27.3362 C   0  0  0  0  0  0  0  0  0  0  0  0
    7.3491  -10.9442   27.0296 C   0  0  0  0  0  0  0  0  0  0  0  0
    8.4288  -11.3771   26.3028 C   0  0  0  0  0  0  0  0  0  0  0  0
    8.4321  -12.6949   25.8611 C   0  0  0  0  0  0  0  0  0  0  0  0
    7.4032  -13.5446   26.1328 C   0  0  0  0  0  0  0  0  0  0  0  0
    8.4248  -17.0646   23.0503 C   0  0  0  0  0  0  0  0  0  0  0  0
    8.5184  -18.3020   23.0930 O   0  0  0  0  0  0  0  0  0  0  0  0
    6.9371  -12.2736   19.1427 C   0  0  0  0  0  0  0  0  0  0  0  0
    8.5363  -13.1592   19.1450 S   0  0  0  0  0  0  0  0  0  0  0  0
    8.3420  -14.7225   20.0774 C   0  0  0  0  0  0  0  0  0  0  0  0
    9.7191  -15.3930   20.0642 C   0  0  0  0  0  0  0  0  0  0  0  0
    9.5456  -16.6824   20.8799 C   0  0  2  0  0  0  0  0  0  0  0  0
    9.3567  -16.3143   22.2519 N   0  0  0  0  0  0  0  0  0  0  0  0
   10.7128  -17.5685   20.7210 C   0  0  0  0  0  0  0  0  0  0  0  0
   10.7119  -18.4018   19.7502 O   0  0  0  0  0  0  0  0  0  0  0  0
   17.1493  -13.4604   17.7565 O   0  0  0  0  0  0  0  0  0  0  0  0
   16.0768  -13.9804   18.4612 C   0  0  0  0  0  0  0  0  0  0  0  0
   16.2495  -14.6043   19.6873 C   0  0  0  0  0  0  0  0  0  0  0  0
   15.1907  -15.1238   20.3949 C   0  0  0  0  0  0  0  0  0  0  0  0
   13.9291  -15.0077   19.8464 C   0  0  0  0  0  0  0  0  0  0  0  0
   12.7234  -15.5537   20.5053 C   0  0  0  0  0  0  0  0  0  0  0  0
   13.0380  -16.8466   21.1697 C   0  0  2  0  0  0  0  0  0  0  0  0
   11.8441  -17.5729   21.5611 N   0  0  0  0  0  0  0  0  0  0  0  0
   13.9677  -16.7182   22.3053 C   0  0  0  0  0  0  0  0  0  0  0  0
   13.6639  -16.1496   23.3694 O   0  0  0  0  0  0  0  0  0  0  0  0
   13.7699  -14.3817   18.6200 C   0  0  0  0  0  0  0  0  0  0  0  0
   14.8294  -13.8634   17.9149 C   0  0  0  0  0  0  0  0  0  0  0  0
   15.2400  -17.2548   22.1845 O   0  0  0  0  0  0  0  0  0  0  0  0
  2  1  1  1
  2  3  1  0
  4  3  1  0
  5  4  2  0
  6  5  1  0
  7  6  1  0
  7 12  2  0
  8  9  2  0
  8  7  1  0
  9 10  1  0
 10 11  2  0
 12 11  1  0
 12  4  1  0
 13 14  2  0
 13  2  1  0
 15 16  1  0
 16 17  1  0
 17 18  1  0
 19 18  1  6
 19 20  1  0
 20 13  1  0
 21 19  1  0
 22 21  2  0
 23 24  1  0
 24 34  2  0
 25 24  1  0
 25 26  2  0
 26 27  1  0
 27 33  2  0
 27 28  1  0
 29 28  1  1
 29 30  1  0
 30 21  1  0
 31 29  1  0
 32 31  2  0
 34 33  1  0
 35 31  1  0
M  END
$$$$
