WMY.pdb
     RDKit          3D

 35 37  0  0  1  0  0  0  0  0999 V2000
    7.7431  -18.1454   24.5234 N   0  0  0  0  0  0  0  0  0  0  0  0
    6.9234  -17.9074   23.3581 C   0  0  1  0  0  0  0  0  0  0  0  0
    5.7708  -17.0000   23.7311 C   0  0  0  0  0  0  0  0  0  0  0  0
    6.0665  -16.0936   24.8602 C   0  0  0  0  0  0  0  0  0  0  0  0
    5.9782  -16.4728   26.2065 C   0  0  0  0  0  0  0  0  0  0  0  0
    6.3405  -15.4317   26.9706 N   0  0  0  0  0  0  0  0  0  0  0  0
    6.6696  -14.3644   26.2069 C   0  0  0  0  0  0  0  0  0  0  0  0
    7.0892  -13.0919   26.5216 C   0  0  0  0  0  0  0  0  0  0  0  0
    7.3332  -12.2364   25.4733 C   0  0  0  0  0  0  0  0  0  0  0  0
    7.1764  -12.5994   24.1598 C   0  0  0  0  0  0  0  0  0  0  0  0
    6.7513  -13.8942   23.8869 C   0  0  0  0  0  0  0  0  0  0  0  0
    6.4941  -14.7888   24.8809 C   0  0  0  0  0  0  0  0  0  0  0  0
    7.7419  -17.1538   22.3723 C   0  0  0  0  0  0  0  0  0  0  0  0
    7.2464  -16.8370   21.2787 O   0  0  0  0  0  0  0  0  0  0  0  0
    7.3362  -12.4466   18.6634 C   0  0  0  0  0  0  0  0  0  0  0  0
    8.5248  -12.7846   20.0106 S   0  0  0  0  0  0  0  0  0  0  0  0
    8.0429  -14.3419   20.8436 C   0  0  0  0  0  0  0  0  0  0  0  0
    8.9538  -14.4615   22.0692 C   0  0  0  0  0  0  0  0  0  0  0  0
    9.7287  -15.7717   21.8670 C   0  0  2  0  0  0  0  0  0  0  0  0
    9.1007  -16.7833   22.6643 N   0  0  0  0  0  0  0  0  0  0  0  0
   11.1472  -15.6077   22.2332 C   0  0  0  0  0  0  0  0  0  0  0  0
   11.7536  -14.5502   21.8454 O   0  0  0  0  0  0  0  0  0  0  0  0
   11.3920  -14.9493   30.4929 O   0  0  0  0  0  0  0  0  0  0  0  0
   11.1979  -15.2662   29.1590 C   0  0  0  0  0  0  0  0  0  0  0  0
   10.8272  -16.5425   28.7639 C   0  0  0  0  0  0  0  0  0  0  0  0
   10.6319  -16.8670   27.4418 C   0  0  0  0  0  0  0  0  0  0  0  0
   10.8170  -15.8747   26.4998 C   0  0  0  0  0  0  0  0  0  0  0  0
   10.6621  -16.1177   25.0497 C   0  0  0  0  0  0  0  0  0  0  0  0
   11.9846  -16.3916   24.4271 C   0  0  2  0  0  0  0  0  0  0  0  0
   11.8994  -16.5320   22.9851 N   0  0  0  0  0  0  0  0  0  0  0  0
   12.6940  -17.5371   25.0229 C   0  0  0  0  0  0  0  0  0  0  0  0
   13.5411  -17.4148   25.9259 O   0  0  0  0  0  0  0  0  0  0  0  0
   11.1877  -14.6029   26.9078 C   0  0  0  0  0  0  0  0  0  0  0  0
   11.3821  -14.2811   28.2295 C   0  0  0  0  0  0  0  0  0  0  0  0
   12.4061  -18.8104   24.5571 O   0  0  0  0  0  0  0  0  0  0  0  0
  2  1  1  1
  2  3  1  0
  4  3  1  0
  5  4  2  0
  6  5  1  0
  7  6  1  0
  7 12  2  0
  8  9  2  0
  8  7  1  0
  9 10  1  0
 10 11  2  0
 12 11  1  0
 12  4  1  0
 13 14  2  0
 13  2  1  0
 15 16  1  0
 16 17  1  0
 17 18  1  0
 19 18  1  1
 19 20  1  0
 20 13  1  0
 21 19  1  0
 22 21  2  0
 23 24  1  0
 24 34  2  0
 25 24  1  0
 25 26  2  0
 26 27  1  0
 27 33  2  0
 27 28  1  0
 29 28  1  1
 29 30  1  0
 30 21  1  0
 31 29  1  0
 32 31  2  0
 34 33  1  0
 35 31  1  0
M  END
$$$$
