WMY.pdb
     RDKit          3D

 35 37  0  0  1  0  0  0  0  0999 V2000
    7.3817  -19.4543   21.4294 N   0  0  0  0  0  0  0  0  0  0  0  0
    7.7467  -18.0629   21.5614 C   0  0  1  0  0  0  0  0  0  0  0  0
    6.8956  -17.4197   22.6352 C   0  0  0  0  0  0  0  0  0  0  0  0
    6.7235  -15.9616   22.4663 C   0  0  0  0  0  0  0  0  0  0  0  0
    5.9861  -15.3803   21.4260 C   0  0  0  0  0  0  0  0  0  0  0  0
    6.0026  -14.0481   21.5802 N   0  0  0  0  0  0  0  0  0  0  0  0
    6.7165  -13.6981   22.6750 C   0  0  0  0  0  0  0  0  0  0  0  0
    7.0200  -12.4776   23.2340 C   0  0  0  0  0  0  0  0  0  0  0  0
    7.7943  -12.4850   24.3703 C   0  0  0  0  0  0  0  0  0  0  0  0
    8.2616  -13.6375   24.9491 C   0  0  0  0  0  0  0  0  0  0  0  0
    7.9310  -14.8482   24.3520 C   0  0  0  0  0  0  0  0  0  0  0  0
    7.1670  -14.9073   23.2263 C   0  0  0  0  0  0  0  0  0  0  0  0
    9.1482  -18.0048   22.0533 C   0  0  0  0  0  0  0  0  0  0  0  0
    9.6162  -18.9655   22.6857 O   0  0  0  0  0  0  0  0  0  0  0  0
   13.6243  -14.2366   19.3895 C   0  0  0  0  0  0  0  0  0  0  0  0
   14.4374  -14.5562   20.9953 S   0  0  0  0  0  0  0  0  0  0  0  0
   13.5546  -15.9187   21.8411 C   0  0  0  0  0  0  0  0  0  0  0  0
   12.0688  -15.7121   21.5313 C   0  0  0  0  0  0  0  0  0  0  0  0
   11.3510  -16.8919   22.2028 C   0  0  2  0  0  0  0  0  0  0  0  0
    9.9740  -16.8529   21.8081 N   0  0  0  0  0  0  0  0  0  0  0  0
   11.4879  -16.8276   23.6691 C   0  0  0  0  0  0  0  0  0  0  0  0
   12.6635  -16.7227   24.1627 O   0  0  0  0  0  0  0  0  0  0  0  0
    7.5243  -11.4245   26.4396 O   0  0  0  0  0  0  0  0  0  0  0  0
    7.9679  -12.7339   26.5164 C   0  0  0  0  0  0  0  0  0  0  0  0
    7.1252  -13.8016   26.2473 C   0  0  0  0  0  0  0  0  0  0  0  0
    7.5564  -15.1055   26.3207 C   0  0  0  0  0  0  0  0  0  0  0  0
    8.8715  -15.3311   26.6750 C   0  0  0  0  0  0  0  0  0  0  0  0
    9.4348  -16.6912   26.8122 C   0  0  0  0  0  0  0  0  0  0  0  0
   10.6802  -16.8185   26.0093 C   0  0  2  0  0  0  0  0  0  0  0  0
   10.4165  -16.8723   24.5832 N   0  0  0  0  0  0  0  0  0  0  0  0
   11.5409  -17.9397   26.4246 C   0  0  0  0  0  0  0  0  0  0  0  0
   11.9761  -18.7913   25.6287 O   0  0  0  0  0  0  0  0  0  0  0  0
    9.7038  -14.2552   26.9416 C   0  0  0  0  0  0  0  0  0  0  0  0
    9.2706  -12.9532   26.8675 C   0  0  0  0  0  0  0  0  0  0  0  0
   11.8823  -18.0529   27.7631 O   0  0  0  0  0  0  0  0  0  0  0  0
  2  1  1  1
  2  3  1  0
  4  3  1  0
  5  4  2  0
  6  5  1  0
  7  6  1  0
  7 12  2  0
  8  9  2  0
  8  7  1  0
  9 10  1  0
 10 11  2  0
 12 11  1  0
 12  4  1  0
 13 14  2  0
 13  2  1  0
 15 16  1  0
 16 17  1  0
 17 18  1  0
 19 18  1  6
 19 20  1  0
 20 13  1  0
 21 19  1  0
 22 21  2  0
 23 24  1  0
 24 34  2  0
 25 24  1  0
 25 26  2  0
 26 27  1  0
 27 33  2  0
 27 28  1  0
 29 28  1  1
 29 30  1  0
 30 21  1  0
 31 29  1  0
 32 31  2  0
 34 33  1  0
 35 31  1  0
M  END
$$$$
