WMY.pdb
     RDKit          3D

 35 37  0  0  1  0  0  0  0  0999 V2000
    5.9715  -20.7874   24.5958 N   0  0  0  0  0  0  0  0  0  0  0  0
    6.6375  -19.5991   25.0764 C   0  0  1  0  0  0  0  0  0  0  0  0
    7.8967  -19.9938   25.8179 C   0  0  0  0  0  0  0  0  0  0  0  0
    7.9864  -19.4326   27.1821 C   0  0  0  0  0  0  0  0  0  0  0  0
    7.2716  -19.9338   28.2785 C   0  0  0  0  0  0  0  0  0  0  0  0
    7.6017  -19.2235   29.3673 N   0  0  0  0  0  0  0  0  0  0  0  0
    8.5058  -18.2644   29.0617 C   0  0  0  0  0  0  0  0  0  0  0  0
    9.1302  -17.3014   29.8214 C   0  0  0  0  0  0  0  0  0  0  0  0
   10.0074  -16.4645   29.1730 C   0  0  0  0  0  0  0  0  0  0  0  0
   10.2734  -16.5549   27.8304 C   0  0  0  0  0  0  0  0  0  0  0  0
    9.6212  -17.5420   27.1010 C   0  0  0  0  0  0  0  0  0  0  0  0
    8.7420  -18.4022   27.6853 C   0  0  0  0  0  0  0  0  0  0  0  0
    7.0815  -18.8163   23.8933 C   0  0  0  0  0  0  0  0  0  0  0  0
    7.7633  -19.3677   23.0142 O   0  0  0  0  0  0  0  0  0  0  0  0
    7.2303  -12.0568   19.8942 C   0  0  0  0  0  0  0  0  0  0  0  0
    6.3570  -13.0764   21.1350 S   0  0  0  0  0  0  0  0  0  0  0  0
    7.3096  -14.6156   21.4078 C   0  0  0  0  0  0  0  0  0  0  0  0
    6.5897  -15.3604   22.5361 C   0  0  0  0  0  0  0  0  0  0  0  0
    7.3977  -16.6493   22.7457 C   0  0  2  0  0  0  0  0  0  0  0  0
    6.7333  -17.4283   23.7483 N   0  0  0  0  0  0  0  0  0  0  0  0
    8.7851  -16.3443   23.1394 C   0  0  0  0  0  0  0  0  0  0  0  0
    9.5924  -15.9296   22.2378 O   0  0  0  0  0  0  0  0  0  0  0  0
    6.1531  -12.4394   27.6041 O   0  0  0  0  0  0  0  0  0  0  0  0
    7.2567  -12.9091   26.9123 C   0  0  0  0  0  0  0  0  0  0  0  0
    8.5463  -12.5566   27.2796 C   0  0  0  0  0  0  0  0  0  0  0  0
    9.6487  -13.0180   26.5989 C   0  0  0  0  0  0  0  0  0  0  0  0
    9.4379  -13.8554   25.5217 C   0  0  0  0  0  0  0  0  0  0  0  0
   10.5465  -14.3880   24.7012 C   0  0  0  0  0  0  0  0  0  0  0  0
   10.5798  -15.8729   24.7783 C   0  0  2  0  0  0  0  0  0  0  0  0
    9.3015  -16.4734   24.4441 N   0  0  0  0  0  0  0  0  0  0  0  0
   11.0791  -16.3883   26.0649 C   0  0  0  0  0  0  0  0  0  0  0  0
   10.4035  -17.1205   26.8101 O   0  0  0  0  0  0  0  0  0  0  0  0
    8.1438  -14.2002   25.1646 C   0  0  0  0  0  0  0  0  0  0  0  0
    7.0439  -13.7380   25.8464 C   0  0  0  0  0  0  0  0  0  0  0  0
   12.3602  -16.0424   26.4654 O   0  0  0  0  0  0  0  0  0  0  0  0
  2  1  1  6
  2  3  1  0
  4  3  1  0
  5  4  2  0
  6  5  1  0
  7  6  1  0
  7 12  2  0
  8  9  2  0
  8  7  1  0
  9 10  1  0
 10 11  2  0
 12 11  1  0
 12  4  1  0
 13 14  2  0
 13  2  1  0
 15 16  1  0
 16 17  1  0
 17 18  1  0
 19 18  1  1
 19 20  1  0
 20 13  1  0
 21 19  1  0
 22 21  2  0
 23 24  1  0
 24 34  2  0
 25 24  1  0
 25 26  2  0
 26 27  1  0
 27 33  2  0
 27 28  1  0
 29 28  1  1
 29 30  1  0
 30 21  1  0
 31 29  1  0
 32 31  2  0
 34 33  1  0
 35 31  1  0
M  END
$$$$
