WMY.pdb
     RDKit          3D

 35 37  0  0  1  0  0  0  0  0999 V2000
    6.4413  -18.0265   25.0384 N   0  0  0  0  0  0  0  0  0  0  0  0
    6.9658  -16.7772   24.5375 C   0  0  1  0  0  0  0  0  0  0  0  0
    7.5833  -15.9978   25.6787 C   0  0  0  0  0  0  0  0  0  0  0  0
    6.7939  -14.8187   26.0917 C   0  0  0  0  0  0  0  0  0  0  0  0
    5.4958  -14.8952   26.6143 C   0  0  0  0  0  0  0  0  0  0  0  0
    5.0798  -13.6559   26.9141 N   0  0  0  0  0  0  0  0  0  0  0  0
    6.0335  -12.7425   26.6193 C   0  0  0  0  0  0  0  0  0  0  0  0
    6.0748  -11.3720   26.7392 C   0  0  0  0  0  0  0  0  0  0  0  0
    7.2252  -10.7423   26.3262 C   0  0  0  0  0  0  0  0  0  0  0  0
    8.3036  -11.4166   25.8123 C   0  0  0  0  0  0  0  0  0  0  0  0
    8.2195  -12.8000   25.7092 C   0  0  0  0  0  0  0  0  0  0  0  0
    7.1081  -13.4819   26.1020 C   0  0  0  0  0  0  0  0  0  0  0  0
    8.0770  -17.0928   23.6020 C   0  0  0  0  0  0  0  0  0  0  0  0
    8.9120  -17.9581   23.9117 O   0  0  0  0  0  0  0  0  0  0  0  0
    7.8548  -11.8659   19.3983 C   0  0  0  0  0  0  0  0  0  0  0  0
    8.4631  -13.5527   19.0426 S   0  0  0  0  0  0  0  0  0  0  0  0
    8.7607  -14.4176   20.6283 C   0  0  0  0  0  0  0  0  0  0  0  0
    9.2378  -15.8246   20.2559 C   0  0  0  0  0  0  0  0  0  0  0  0
    9.4167  -16.5553   21.5947 C   0  0  2  0  0  0  0  0  0  0  0  0
    8.2017  -16.4123   22.3409 N   0  0  0  0  0  0  0  0  0  0  0  0
   10.5679  -16.0157   22.3407 C   0  0  0  0  0  0  0  0  0  0  0  0
   10.3531  -15.0915   23.1988 O   0  0  0  0  0  0  0  0  0  0  0  0
   10.0403  -14.4585   28.6736 O   0  0  0  0  0  0  0  0  0  0  0  0
   10.5502  -15.1729   27.6027 C   0  0  0  0  0  0  0  0  0  0  0  0
   10.8910  -14.5493   26.4121 C   0  0  0  0  0  0  0  0  0  0  0  0
   11.3982  -15.2500   25.3429 C   0  0  0  0  0  0  0  0  0  0  0  0
   11.5632  -16.6134   25.4848 C   0  0  0  0  0  0  0  0  0  0  0  0
   12.0733  -17.4694   24.3925 C   0  0  0  0  0  0  0  0  0  0  0  0
   12.7391  -16.6397   23.3533 C   0  0  2  0  0  0  0  0  0  0  0  0
   11.9024  -16.4400   22.1844 N   0  0  0  0  0  0  0  0  0  0  0  0
   14.0714  -17.1340   22.9643 C   0  0  0  0  0  0  0  0  0  0  0  0
   15.1166  -16.7982   23.5497 O   0  0  0  0  0  0  0  0  0  0  0  0
   11.2187  -17.2247   26.6801 C   0  0  0  0  0  0  0  0  0  0  0  0
   10.7121  -16.5224   27.7471 C   0  0  0  0  0  0  0  0  0  0  0  0
   14.1667  -18.0134   21.8973 O   0  0  0  0  0  0  0  0  0  0  0  0
  2  1  1  1
  2  3  1  0
  4  3  1  0
  5  4  2  0
  6  5  1  0
  7  6  1  0
  7 12  2  0
  8  9  2  0
  8  7  1  0
  9 10  1  0
 10 11  2  0
 12 11  1  0
 12  4  1  0
 13 14  2  0
 13  2  1  0
 15 16  1  0
 16 17  1  0
 17 18  1  0
 19 18  1  6
 19 20  1  0
 20 13  1  0
 21 19  1  0
 22 21  2  0
 23 24  1  0
 24 34  2  0
 25 24  1  0
 25 26  2  0
 26 27  1  0
 27 33  2  0
 27 28  1  0
 29 28  1  1
 29 30  1  0
 30 21  1  0
 31 29  1  0
 32 31  2  0
 34 33  1  0
 35 31  1  0
M  END
$$$$
