WMY.pdb
     RDKit          3D

 35 37  0  0  1  0  0  0  0  0999 V2000
    6.4814  -17.9960   24.6263 N   0  0  0  0  0  0  0  0  0  0  0  0
    6.5881  -16.7796   23.8545 C   0  0  1  0  0  0  0  0  0  0  0  0
    7.6117  -15.8665   24.4945 C   0  0  0  0  0  0  0  0  0  0  0  0
    7.0234  -14.8338   25.3727 C   0  0  0  0  0  0  0  0  0  0  0  0
    5.8426  -15.0157   26.1054 C   0  0  0  0  0  0  0  0  0  0  0  0
    5.6043  -13.9050   26.8185 N   0  0  0  0  0  0  0  0  0  0  0  0
    6.5665  -12.9784   26.6040 C   0  0  0  0  0  0  0  0  0  0  0  0
    6.7544  -11.7053   27.0921 C   0  0  0  0  0  0  0  0  0  0  0  0
    7.8614  -11.0217   26.6472 C   0  0  0  0  0  0  0  0  0  0  0  0
    8.7601  -11.5523   25.7570 C   0  0  0  0  0  0  0  0  0  0  0  0
    8.5323  -12.8413   25.2898 C   0  0  0  0  0  0  0  0  0  0  0  0
    7.4550  -13.5701   25.6931 C   0  0  0  0  0  0  0  0  0  0  0  0
    7.1295  -17.1357   22.5166 C   0  0  0  0  0  0  0  0  0  0  0  0
    6.3479  -17.3396   21.5735 O   0  0  0  0  0  0  0  0  0  0  0  0
    7.0236  -13.2814   19.4435 C   0  0  0  0  0  0  0  0  0  0  0  0
    8.7461  -13.4890   18.8675 S   0  0  0  0  0  0  0  0  0  0  0  0
    9.3250  -15.1619   19.3342 C   0  0  0  0  0  0  0  0  0  0  0  0
    8.6745  -15.4691   20.6864 C   0  0  0  0  0  0  0  0  0  0  0  0
    9.0726  -16.9179   21.0034 C   0  0  2  0  0  0  0  0  0  0  0  0
    8.5463  -17.2475   22.2948 N   0  0  0  0  0  0  0  0  0  0  0  0
   10.5370  -17.0830   20.9659 C   0  0  0  0  0  0  0  0  0  0  0  0
   11.0748  -17.4642   19.8695 O   0  0  0  0  0  0  0  0  0  0  0  0
   14.8825  -12.9570   18.7788 O   0  0  0  0  0  0  0  0  0  0  0  0
   14.5212  -14.1620   19.3573 C   0  0  0  0  0  0  0  0  0  0  0  0
   15.0510  -14.5705   20.5717 C   0  0  0  0  0  0  0  0  0  0  0  0
   14.6984  -15.7654   21.1544 C   0  0  0  0  0  0  0  0  0  0  0  0
   13.7883  -16.5633   20.4903 C   0  0  0  0  0  0  0  0  0  0  0  0
   13.3589  -17.8794   21.0093 C   0  0  0  0  0  0  0  0  0  0  0  0
   12.5582  -17.7094   22.2510 C   0  0  2  0  0  0  0  0  0  0  0  0
   11.4040  -16.8523   22.0524 N   0  0  0  0  0  0  0  0  0  0  0  0
   13.3497  -17.2604   23.4095 C   0  0  0  0  0  0  0  0  0  0  0  0
   14.4176  -17.7997   23.7511 O   0  0  0  0  0  0  0  0  0  0  0  0
   13.2661  -16.1435   19.2768 C   0  0  0  0  0  0  0  0  0  0  0  0
   13.6199  -14.9492   18.6967 C   0  0  0  0  0  0  0  0  0  0  0  0
   12.8847  -16.1882   24.1547 O   0  0  0  0  0  0  0  0  0  0  0  0
  2  1  1  1
  2  3  1  0
  4  3  1  0
  5  4  2  0
  6  5  1  0
  7  6  1  0
  7 12  2  0
  8  9  2  0
  8  7  1  0
  9 10  1  0
 10 11  2  0
 12 11  1  0
 12  4  1  0
 13 14  2  0
 13  2  1  0
 15 16  1  0
 16 17  1  0
 17 18  1  0
 19 18  1  1
 19 20  1  0
 20 13  1  0
 21 19  1  0
 22 21  2  0
 23 24  1  0
 24 34  2  0
 25 24  1  0
 25 26  2  0
 26 27  1  0
 27 33  2  0
 27 28  1  0
 29 28  1  6
 29 30  1  0
 30 21  1  0
 31 29  1  0
 32 31  2  0
 34 33  1  0
 35 31  1  0
M  END
$$$$
