WMY.pdb
     RDKit          3D

 35 37  0  0  1  0  0  0  0  0999 V2000
    8.7262  -18.3699   21.9517 N   0  0  0  0  0  0  0  0  0  0  0  0
    8.8548  -16.9967   21.5224 C   0  0  1  0  0  0  0  0  0  0  0  0
    7.7589  -16.6761   20.5288 C   0  0  0  0  0  0  0  0  0  0  0  0
    7.9329  -15.3761   19.8477 C   0  0  0  0  0  0  0  0  0  0  0  0
    8.2585  -15.2457   18.4908 C   0  0  0  0  0  0  0  0  0  0  0  0
    8.3103  -13.9408   18.1851 N   0  0  0  0  0  0  0  0  0  0  0  0
    8.0360  -13.1800   19.2699 C   0  0  0  0  0  0  0  0  0  0  0  0
    7.9743  -11.8178   19.4567 C   0  0  0  0  0  0  0  0  0  0  0  0
    7.6696  -11.3729   20.7215 C   0  0  0  0  0  0  0  0  0  0  0  0
    7.4318  -12.2190   21.7747 C   0  0  0  0  0  0  0  0  0  0  0  0
    7.5041  -13.5873   21.5418 C   0  0  0  0  0  0  0  0  0  0  0  0
    7.8004  -14.0903   20.3115 C   0  0  0  0  0  0  0  0  0  0  0  0
    8.6115  -16.1264   22.7027 C   0  0  0  0  0  0  0  0  0  0  0  0
    8.2323  -14.9562   22.5338 O   0  0  0  0  0  0  0  0  0  0  0  0
    7.3385  -12.1118   26.0270 C   0  0  0  0  0  0  0  0  0  0  0  0
    6.6114  -13.6641   26.6623 S   0  0  0  0  0  0  0  0  0  0  0  0
    7.3893  -15.0763   25.7955 C   0  0  0  0  0  0  0  0  0  0  0  0
    8.7353  -14.5608   25.2773 C   0  0  0  0  0  0  0  0  0  0  0  0
    9.5556  -15.8215   24.9674 C   0  0  2  0  0  0  0  0  0  0  0  0
    8.8074  -16.6178   24.0403 N   0  0  0  0  0  0  0  0  0  0  0  0
    9.8521  -16.5743   26.1997 C   0  0  0  0  0  0  0  0  0  0  0  0
    9.1214  -17.5860   26.4810 O   0  0  0  0  0  0  0  0  0  0  0  0
   14.7696  -17.8233   22.8824 O   0  0  0  0  0  0  0  0  0  0  0  0
   14.2752  -17.7034   24.1702 C   0  0  0  0  0  0  0  0  0  0  0  0
   14.3074  -16.4949   24.8493 C   0  0  0  0  0  0  0  0  0  0  0  0
   13.8188  -16.3657   26.1284 C   0  0  0  0  0  0  0  0  0  0  0  0
   13.2859  -17.4873   26.7318 C   0  0  0  0  0  0  0  0  0  0  0  0
   12.7582  -17.4711   28.1128 C   0  0  0  0  0  0  0  0  0  0  0  0
   11.2888  -17.2418   28.1021 C   0  0  2  0  0  0  0  0  0  0  0  0
   10.8877  -16.2671   27.1045 N   0  0  0  0  0  0  0  0  0  0  0  0
   10.7332  -16.8975   29.4224 C   0  0  0  0  0  0  0  0  0  0  0  0
   10.0947  -15.8516   29.6375 O   0  0  0  0  0  0  0  0  0  0  0  0
   13.2597  -18.6895   26.0422 C   0  0  0  0  0  0  0  0  0  0  0  0
   13.7484  -18.8160   24.7642 C   0  0  0  0  0  0  0  0  0  0  0  0
   10.9303  -17.7778   30.4747 O   0  0  0  0  0  0  0  0  0  0  0  0
  2  1  1  1
  2  3  1  0
  4  3  1  0
  5  4  2  0
  6  5  1  0
  7  6  1  0
  7 12  2  0
  8  9  2  0
  8  7  1  0
  9 10  1  0
 10 11  2  0
 12 11  1  0
 12  4  1  0
 13 14  2  0
 13  2  1  0
 15 16  1  0
 16 17  1  0
 17 18  1  0
 19 18  1  1
 19 20  1  0
 20 13  1  0
 21 19  1  0
 22 21  2  0
 23 24  1  0
 24 34  2  0
 25 24  1  0
 25 26  2  0
 26 27  1  0
 27 33  2  0
 27 28  1  0
 29 28  1  1
 29 30  1  0
 30 21  1  0
 31 29  1  0
 32 31  2  0
 34 33  1  0
 35 31  1  0
M  END
$$$$
