WMY.pdb
     RDKit          3D

 35 37  0  0  1  0  0  0  0  0999 V2000
    6.3297  -19.1002   23.2072 N   0  0  0  0  0  0  0  0  0  0  0  0
    7.3221  -18.2841   23.8673 C   0  0  1  0  0  0  0  0  0  0  0  0
    8.1773  -19.1570   24.7605 C   0  0  0  0  0  0  0  0  0  0  0  0
    7.5033  -19.5761   26.0071 C   0  0  0  0  0  0  0  0  0  0  0  0
    6.8626  -20.8121   26.1679 C   0  0  0  0  0  0  0  0  0  0  0  0
    6.3845  -20.8886   27.4186 N   0  0  0  0  0  0  0  0  0  0  0  0
    6.6699  -19.7633   28.1137 C   0  0  0  0  0  0  0  0  0  0  0  0
    6.3910  -19.3734   29.4039 C   0  0  0  0  0  0  0  0  0  0  0  0
    6.8322  -18.1300   29.7909 C   0  0  0  0  0  0  0  0  0  0  0  0
    7.5223  -17.2882   28.9561 C   0  0  0  0  0  0  0  0  0  0  0  0
    7.7827  -17.7219   27.6616 C   0  0  0  0  0  0  0  0  0  0  0  0
    7.3732  -18.9427   27.2186 C   0  0  0  0  0  0  0  0  0  0  0  0
    8.2317  -17.7413   22.8245 C   0  0  0  0  0  0  0  0  0  0  0  0
    8.8457  -18.5225   22.0797 O   0  0  0  0  0  0  0  0  0  0  0  0
    5.4557  -12.4759   19.9361 C   0  0  0  0  0  0  0  0  0  0  0  0
    7.1473  -12.5875   20.6203 S   0  0  0  0  0  0  0  0  0  0  0  0
    7.5753  -14.3530   20.8463 C   0  0  0  0  0  0  0  0  0  0  0  0
    9.0050  -14.3712   21.3958 C   0  0  0  0  0  0  0  0  0  0  0  0
    9.3165  -15.8524   21.6548 C   0  0  2  0  0  0  0  0  0  0  0  0
    8.4128  -16.3237   22.6620 N   0  0  0  0  0  0  0  0  0  0  0  0
   10.7194  -16.0317   22.0704 C   0  0  0  0  0  0  0  0  0  0  0  0
   11.3498  -17.0602   21.6444 O   0  0  0  0  0  0  0  0  0  0  0  0
   11.1951  -15.8433   30.5488 O   0  0  0  0  0  0  0  0  0  0  0  0
   10.9528  -15.8056   29.1860 C   0  0  0  0  0  0  0  0  0  0  0  0
   10.5334  -16.9309   28.4931 C   0  0  0  0  0  0  0  0  0  0  0  0
   10.2900  -16.9035   27.1398 C   0  0  0  0  0  0  0  0  0  0  0  0
   10.4764  -15.7080   26.4748 C   0  0  0  0  0  0  0  0  0  0  0  0
   10.2720  -15.5700   25.0171 C   0  0  0  0  0  0  0  0  0  0  0  0
   11.5808  -15.4588   24.3196 C   0  0  2  0  0  0  0  0  0  0  0  0
   11.4322  -15.1518   22.9090 N   0  0  0  0  0  0  0  0  0  0  0  0
   12.4552  -16.6290   24.5107 C   0  0  0  0  0  0  0  0  0  0  0  0
   12.0368  -17.8003   24.4800 O   0  0  0  0  0  0  0  0  0  0  0  0
   10.8960  -14.5903   27.1790 C   0  0  0  0  0  0  0  0  0  0  0  0
   11.1384  -14.6201   28.5313 C   0  0  0  0  0  0  0  0  0  0  0  0
   13.8064  -16.4173   24.7355 O   0  0  0  0  0  0  0  0  0  0  0  0
  2  1  1  6
  2  3  1  0
  4  3  1  0
  5  4  2  0
  6  5  1  0
  7  6  1  0
  7 12  2  0
  8  9  2  0
  8  7  1  0
  9 10  1  0
 10 11  2  0
 12 11  1  0
 12  4  1  0
 13 14  2  0
 13  2  1  0
 15 16  1  0
 16 17  1  0
 17 18  1  0
 19 18  1  1
 19 20  1  0
 20 13  1  0
 21 19  1  0
 22 21  2  0
 23 24  1  0
 24 34  2  0
 25 24  1  0
 25 26  2  0
 26 27  1  0
 27 33  2  0
 27 28  1  0
 29 28  1  6
 29 30  1  0
 30 21  1  0
 31 29  1  0
 32 31  2  0
 34 33  1  0
 35 31  1  0
M  END
$$$$
