WMY.pdb
     RDKit          3D

 35 37  0  0  1  0  0  0  0  0999 V2000
    6.3622  -18.2245   24.5566 N   0  0  0  0  0  0  0  0  0  0  0  0
    7.0182  -17.0046   24.1469 C   0  0  1  0  0  0  0  0  0  0  0  0
    7.8166  -16.4493   25.3069 C   0  0  0  0  0  0  0  0  0  0  0  0
    7.2419  -15.2201   25.8924 C   0  0  0  0  0  0  0  0  0  0  0  0
    5.8717  -14.9259   25.8944 C   0  0  0  0  0  0  0  0  0  0  0  0
    5.6842  -13.7581   26.5267 N   0  0  0  0  0  0  0  0  0  0  0  0
    6.8617  -13.2459   26.9531 C   0  0  0  0  0  0  0  0  0  0  0  0
    7.1806  -12.0913   27.6311 C   0  0  0  0  0  0  0  0  0  0  0  0
    8.5106  -11.8723   27.9026 C   0  0  0  0  0  0  0  0  0  0  0  0
    9.5031  -12.7429   27.5300 C   0  0  0  0  0  0  0  0  0  0  0  0
    9.1367  -13.8968   26.8475 C   0  0  0  0  0  0  0  0  0  0  0  0
    7.8366  -14.1712   26.5497 C   0  0  0  0  0  0  0  0  0  0  0  0
    8.0065  -17.3516   23.0921 C   0  0  0  0  0  0  0  0  0  0  0  0
    8.4548  -18.5078   23.0286 O   0  0  0  0  0  0  0  0  0  0  0  0
    6.5334  -12.1853   19.6029 C   0  0  0  0  0  0  0  0  0  0  0  0
    7.9262  -13.2953   19.1905 S   0  0  0  0  0  0  0  0  0  0  0  0
    7.7990  -14.8056   20.2171 C   0  0  0  0  0  0  0  0  0  0  0  0
    9.0815  -15.6008   19.9545 C   0  0  0  0  0  0  0  0  0  0  0  0
    9.0016  -16.8130   20.8938 C   0  0  2  0  0  0  0  0  0  0  0  0
    8.4528  -16.3692   22.1409 N   0  0  0  0  0  0  0  0  0  0  0  0
   10.3303  -17.4230   21.0823 C   0  0  0  0  0  0  0  0  0  0  0  0
   10.7153  -18.3061   20.2407 O   0  0  0  0  0  0  0  0  0  0  0  0
   15.3182  -12.9399   19.3782 O   0  0  0  0  0  0  0  0  0  0  0  0
   14.8172  -14.1649   19.7853 C   0  0  0  0  0  0  0  0  0  0  0  0
   15.4884  -14.9515   20.7090 C   0  0  0  0  0  0  0  0  0  0  0  0
   14.9990  -16.1694   21.1197 C   0  0  0  0  0  0  0  0  0  0  0  0
   13.8023  -16.5986   20.5813 C   0  0  0  0  0  0  0  0  0  0  0  0
   13.1974  -17.9022   20.9288 C   0  0  0  0  0  0  0  0  0  0  0  0
   12.4878  -17.8118   22.2326 C   0  0  2  0  0  0  0  0  0  0  0  0
   11.2225  -17.1088   22.1268 N   0  0  0  0  0  0  0  0  0  0  0  0
   13.3102  -17.2476   23.3169 C   0  0  0  0  0  0  0  0  0  0  0  0
   12.9278  -16.3106   24.0406 O   0  0  0  0  0  0  0  0  0  0  0  0
   13.1412  -15.8029   19.6588 C   0  0  0  0  0  0  0  0  0  0  0  0
   13.6322  -14.5863   19.2500 C   0  0  0  0  0  0  0  0  0  0  0  0
   14.5682  -17.7838   23.5425 O   0  0  0  0  0  0  0  0  0  0  0  0
  2  1  1  1
  2  3  1  0
  4  3  1  0
  5  4  2  0
  6  5  1  0
  7  6  1  0
  7 12  2  0
  8  9  2  0
  8  7  1  0
  9 10  1  0
 10 11  2  0
 12 11  1  0
 12  4  1  0
 13 14  2  0
 13  2  1  0
 15 16  1  0
 16 17  1  0
 17 18  1  0
 19 18  1  6
 19 20  1  0
 20 13  1  0
 21 19  1  0
 22 21  2  0
 23 24  1  0
 24 34  2  0
 25 24  1  0
 25 26  2  0
 26 27  1  0
 27 33  2  0
 27 28  1  0
 29 28  1  6
 29 30  1  0
 30 21  1  0
 31 29  1  0
 32 31  2  0
 34 33  1  0
 35 31  1  0
M  END
$$$$
