WMY.pdb
     RDKit          3D

 35 37  0  0  1  0  0  0  0  0999 V2000
    5.5147  -19.5874   25.7202 N   0  0  0  0  0  0  0  0  0  0  0  0
    6.4814  -18.5349   25.9302 C   0  0  1  0  0  0  0  0  0  0  0  0
    7.8344  -19.1466   26.2243 C   0  0  0  0  0  0  0  0  0  0  0  0
    8.1768  -19.1741   27.6616 C   0  0  0  0  0  0  0  0  0  0  0  0
    7.8980  -20.2560   28.5076 C   0  0  0  0  0  0  0  0  0  0  0  0
    8.3633  -19.9737   29.7334 N   0  0  0  0  0  0  0  0  0  0  0  0
    8.9440  -18.7519   29.7594 C   0  0  0  0  0  0  0  0  0  0  0  0
    9.5481  -18.0325   30.7653 C   0  0  0  0  0  0  0  0  0  0  0  0
   10.0350  -16.7886   30.4392 C   0  0  0  0  0  0  0  0  0  0  0  0
    9.9408  -16.2555   29.1788 C   0  0  0  0  0  0  0  0  0  0  0  0
    9.3235  -17.0162   28.1930 C   0  0  0  0  0  0  0  0  0  0  0  0
    8.8220  -18.2554   28.4526 C   0  0  0  0  0  0  0  0  0  0  0  0
    6.6314  -17.7929   24.6509 C   0  0  0  0  0  0  0  0  0  0  0  0
    6.8096  -18.4215   23.5949 O   0  0  0  0  0  0  0  0  0  0  0  0
    6.8563  -11.4837   27.0280 C   0  0  0  0  0  0  0  0  0  0  0  0
    6.6416  -12.0312   25.2971 S   0  0  0  0  0  0  0  0  0  0  0  0
    7.1698  -13.7789   25.1628 C   0  0  0  0  0  0  0  0  0  0  0  0
    6.9562  -14.1704   23.6974 C   0  0  0  0  0  0  0  0  0  0  0  0
    7.3319  -15.6574   23.6205 C   0  0  2  0  0  0  0  0  0  0  0  0
    6.5724  -16.3562   24.6146 N   0  0  0  0  0  0  0  0  0  0  0  0
    8.7795  -15.8471   23.8237 C   0  0  0  0  0  0  0  0  0  0  0  0
    9.2173  -15.9211   25.0235 O   0  0  0  0  0  0  0  0  0  0  0  0
   11.9808  -14.8687   29.2757 O   0  0  0  0  0  0  0  0  0  0  0  0
   11.8403  -15.4030   28.0061 C   0  0  0  0  0  0  0  0  0  0  0  0
   12.0542  -14.6376   26.8699 C   0  0  0  0  0  0  0  0  0  0  0  0
   11.9173  -15.1591   25.6047 C   0  0  0  0  0  0  0  0  0  0  0  0
   11.5553  -16.4864   25.4898 C   0  0  0  0  0  0  0  0  0  0  0  0
   11.3523  -17.1436   24.1810 C   0  0  0  0  0  0  0  0  0  0  0  0
   11.1364  -16.1252   23.1189 C   0  0  2  0  0  0  0  0  0  0  0  0
    9.7327  -15.9555   22.7917 N   0  0  0  0  0  0  0  0  0  0  0  0
   11.9323  -16.3606   21.9017 C   0  0  0  0  0  0  0  0  0  0  0  0
   13.1632  -16.5406   21.9208 O   0  0  0  0  0  0  0  0  0  0  0  0
   11.3443  -17.2408   26.6333 C   0  0  0  0  0  0  0  0  0  0  0  0
   11.4818  -16.7174   27.8964 C   0  0  0  0  0  0  0  0  0  0  0  0
   11.2816  -16.3826   20.6781 O   0  0  0  0  0  0  0  0  0  0  0  0
  2  1  1  6
  2  3  1  0
  4  3  1  0
  5  4  2  0
  6  5  1  0
  7  6  1  0
  7 12  2  0
  8  9  2  0
  8  7  1  0
  9 10  1  0
 10 11  2  0
 12 11  1  0
 12  4  1  0
 13 14  2  0
 13  2  1  0
 15 16  1  0
 16 17  1  0
 17 18  1  0
 19 18  1  1
 19 20  1  0
 20 13  1  0
 21 19  1  0
 22 21  2  0
 23 24  1  0
 24 34  2  0
 25 24  1  0
 25 26  2  0
 26 27  1  0
 27 33  2  0
 27 28  1  0
 29 28  1  1
 29 30  1  0
 30 21  1  0
 31 29  1  0
 32 31  2  0
 34 33  1  0
 35 31  1  0
M  END
$$$$
