WMY.pdb
     RDKit          3D

 35 37  0  0  1  0  0  0  0  0999 V2000
    5.4436  -18.6728   23.4761 N   0  0  0  0  0  0  0  0  0  0  0  0
    6.8311  -18.6650   23.0745 C   0  0  1  0  0  0  0  0  0  0  0  0
    6.9772  -19.3961   21.7572 C   0  0  0  0  0  0  0  0  0  0  0  0
    6.5628  -20.8136   21.8126 C   0  0  0  0  0  0  0  0  0  0  0  0
    6.6828  -21.7023   20.7356 C   0  0  0  0  0  0  0  0  0  0  0  0
    6.2476  -22.9098   21.1246 N   0  0  0  0  0  0  0  0  0  0  0  0
    5.8376  -22.8824   22.4137 C   0  0  0  0  0  0  0  0  0  0  0  0
    5.3154  -23.8494   23.2424 C   0  0  0  0  0  0  0  0  0  0  0  0
    4.9910  -23.4674   24.5228 C   0  0  0  0  0  0  0  0  0  0  0  0
    5.1658  -22.1891   24.9888 C   0  0  0  0  0  0  0  0  0  0  0  0
    5.6965  -21.2442   24.1186 C   0  0  0  0  0  0  0  0  0  0  0  0
    6.0386  -21.5603   22.8390 C   0  0  0  0  0  0  0  0  0  0  0  0
    7.2206  -17.2548   22.8111 C   0  0  0  0  0  0  0  0  0  0  0  0
    7.9881  -16.9964   21.8698 O   0  0  0  0  0  0  0  0  0  0  0  0
    6.2442  -12.2341   27.2996 C   0  0  0  0  0  0  0  0  0  0  0  0
    6.6714  -11.5266   25.6690 S   0  0  0  0  0  0  0  0  0  0  0  0
    7.6362  -12.7635   24.7253 C   0  0  0  0  0  0  0  0  0  0  0  0
    6.6788  -13.9295   24.4607 C   0  0  0  0  0  0  0  0  0  0  0  0
    7.5508  -15.0328   23.8438 C   0  0  2  0  0  0  0  0  0  0  0  0
    6.7220  -16.1818   23.6290 N   0  0  0  0  0  0  0  0  0  0  0  0
    8.6925  -15.3543   24.7192 C   0  0  0  0  0  0  0  0  0  0  0  0
    8.4627  -15.9964   25.8015 O   0  0  0  0  0  0  0  0  0  0  0  0
   10.0581  -17.7223   30.6261 O   0  0  0  0  0  0  0  0  0  0  0  0
   10.1520  -17.6343   29.2475 C   0  0  0  0  0  0  0  0  0  0  0  0
    9.2132  -18.2281   28.4178 C   0  0  0  0  0  0  0  0  0  0  0  0
    9.2977  -18.1463   27.0475 C   0  0  0  0  0  0  0  0  0  0  0  0
   10.3582  -17.4466   26.5072 C   0  0  0  0  0  0  0  0  0  0  0  0
   10.5640  -17.3179   25.0488 C   0  0  0  0  0  0  0  0  0  0  0  0
   11.0912  -15.9671   24.7182 C   0  0  2  0  0  0  0  0  0  0  0  0
   10.0332  -15.0083   24.4580 N   0  0  0  0  0  0  0  0  0  0  0  0
   12.0773  -15.9675   23.6236 C   0  0  0  0  0  0  0  0  0  0  0  0
   11.9859  -15.2263   22.6285 O   0  0  0  0  0  0  0  0  0  0  0  0
   11.2900  -16.8576   27.3475 C   0  0  0  0  0  0  0  0  0  0  0  0
   11.2033  -16.9407   28.7164 C   0  0  0  0  0  0  0  0  0  0  0  0
   13.1569  -16.8329   23.7043 O   0  0  0  0  0  0  0  0  0  0  0  0
  2  1  1  6
  2  3  1  0
  4  3  1  0
  5  4  2  0
  6  5  1  0
  7  6  1  0
  7 12  2  0
  8  9  2  0
  8  7  1  0
  9 10  1  0
 10 11  2  0
 12 11  1  0
 12  4  1  0
 13 14  2  0
 13  2  1  0
 15 16  1  0
 16 17  1  0
 17 18  1  0
 19 18  1  1
 19 20  1  0
 20 13  1  0
 21 19  1  0
 22 21  2  0
 23 24  1  0
 24 34  2  0
 25 24  1  0
 25 26  2  0
 26 27  1  0
 27 33  2  0
 27 28  1  0
 29 28  1  6
 29 30  1  0
 30 21  1  0
 31 29  1  0
 32 31  2  0
 34 33  1  0
 35 31  1  0
M  END
$$$$
