AQR.pdb
     RDKit          3D

 26 25  0  0  1  0  0  0  0  0999 V2000
   20.3755  -11.8200    4.7934 C   0  0  0  0  0  0  0  0  0  0  0  0
   20.2275  -11.3614    6.2475 C   0  0  2  0  0  0  0  0  0  0  0  0
   21.4101  -10.6623    6.6387 N   0  0  0  0  0  0  0  0  0  0  0  0
   20.0806  -12.5983    7.0894 C   0  0  0  0  0  0  0  0  0  0  0  0
   20.8653  -12.7616    8.0318 O   0  0  0  0  0  0  0  0  0  0  0  0
   18.8121  -14.4894   11.8021 N   0  0  0  0  0  0  0  0  0  0  0  0
   18.2855  -13.4090   11.0511 C   0  0  0  0  0  0  0  0  0  0  0  0
   17.8452  -12.4118   11.6630 O   0  0  0  0  0  0  0  0  0  0  0  0
   18.2488  -13.4339    9.5399 C   0  0  0  0  0  0  0  0  0  0  0  0
   18.8190  -14.6984    9.0356 C   0  0  0  0  0  0  0  0  0  0  0  0
   18.8066  -14.7631    7.5278 C   0  0  2  0  0  0  0  0  0  0  0  0
   19.0892  -13.5565    6.8344 N   0  0  0  0  0  0  0  0  0  0  0  0
   17.7508  -15.6115    6.9617 C   0  0  0  0  0  0  0  0  0  0  0  0
   16.6789  -15.1571    6.4762 O   0  0  0  0  0  0  0  0  0  0  0  0
   16.5847  -21.6097    2.8348 N   0  0  0  0  0  0  0  0  0  0  0  0
   15.5310  -21.0196    2.0614 C   0  0  0  0  0  0  0  0  0  0  0  0
   14.6389  -21.7936    1.5503 N   0  0  0  0  0  0  0  0  0  0  0  0
   15.5220  -19.6109    1.8966 N   0  0  0  0  0  0  0  0  0  0  0  0
   16.5139  -18.8359    2.6089 C   0  0  0  0  0  0  0  0  0  0  0  0
   16.2283  -18.8294    4.1035 C   0  0  0  0  0  0  0  0  0  0  0  0
   17.2433  -17.9536    4.7799 C   0  0  0  0  0  0  0  0  0  0  0  0
   16.9845  -17.9035    6.2771 C   0  0  2  0  0  0  0  0  0  0  0  0
   17.9206  -17.0264    6.9475 N   0  0  0  0  0  0  0  0  0  0  0  0
   17.0912  -19.2702    6.8698 C   0  0  0  0  0  0  0  0  0  0  0  0
   18.0698  -19.5983    7.5860 O   0  0  0  0  0  0  0  0  0  0  0  0
   16.1186  -20.2297    6.6552 O   0  0  0  0  0  0  0  0  0  0  0  0
  2  1  1  6
  3  2  1  0
  4  2  1  0
  4  5  2  0
  6  7  1  0
  7  9  1  0
  8  7  2  0
  9 10  1  0
 11 10  1  1
 11 12  1  0
 12  4  1  0
 13 11  1  0
 13 23  1  0
 14 13  2  0
 16 18  1  0
 16 15  1  0
 17 16  2  0
 19 20  1  0
 19 18  1  0
 20 21  1  0
 22 21  1  6
 22 23  1  0
 22 24  1  0
 24 25  2  0
 24 26  1  0
M  END
$$$$
