AQR.pdb
     RDKit          3D

 26 25  0  0  1  0  0  0  0  0999 V2000
   18.0211  -12.8987  -14.8144 C   0  0  0  0  0  0  0  0  0  0  0  0
   17.4775  -11.6191  -15.4575 C   0  0  2  0  0  0  0  0  0  0  0  0
   18.2301  -11.3341  -16.6376 N   0  0  0  0  0  0  0  0  0  0  0  0
   17.6715  -10.5072  -14.4644 C   0  0  0  0  0  0  0  0  0  0  0  0
   17.0273  -10.5457  -13.4090 O   0  0  0  0  0  0  0  0  0  0  0  0
   22.5095   -6.2181  -14.5723 N   0  0  0  0  0  0  0  0  0  0  0  0
   21.6836   -5.8118  -13.4948 C   0  0  0  0  0  0  0  0  0  0  0  0
   22.0597   -4.8601  -12.7768 O   0  0  0  0  0  0  0  0  0  0  0  0
   20.3675   -6.4949  -13.1996 C   0  0  0  0  0  0  0  0  0  0  0  0
   20.1730   -7.6430  -14.1066 C   0  0  0  0  0  0  0  0  0  0  0  0
   18.8372   -8.3124  -13.8935 C   0  0  2  0  0  0  0  0  0  0  0  0
   18.5530   -9.4433  -14.7038 N   0  0  0  0  0  0  0  0  0  0  0  0
   17.7238   -7.3883  -13.6457 C   0  0  0  0  0  0  0  0  0  0  0  0
   17.1293   -6.7545  -14.5600 O   0  0  0  0  0  0  0  0  0  0  0  0
   12.5295   -7.6951   -6.9076 N   0  0  0  0  0  0  0  0  0  0  0  0
   13.8571   -7.1531   -6.9236 C   0  0  0  0  0  0  0  0  0  0  0  0
   14.5087   -7.0954   -5.8154 N   0  0  0  0  0  0  0  0  0  0  0  0
   14.3891   -6.7065   -8.1602 N   0  0  0  0  0  0  0  0  0  0  0  0
   13.4771   -6.5268   -9.2684 C   0  0  0  0  0  0  0  0  0  0  0  0
   14.2029   -5.9719  -10.4852 C   0  0  0  0  0  0  0  0  0  0  0  0
   15.3543   -6.8795  -10.8095 C   0  0  0  0  0  0  0  0  0  0  0  0
   16.1189   -6.3538  -12.0137 C   0  0  2  0  0  0  0  0  0  0  0  0
   17.2711   -7.1780  -12.3108 N   0  0  0  0  0  0  0  0  0  0  0  0
   16.5752   -4.9528  -11.7696 C   0  0  0  0  0  0  0  0  0  0  0  0
   17.6447   -4.7103  -11.1568 O   0  0  0  0  0  0  0  0  0  0  0  0
   15.8403   -3.8661  -12.2074 O   0  0  0  0  0  0  0  0  0  0  0  0
  2  1  1  1
  3  2  1  0
  4  2  1  0
  4  5  2  0
  6  7  1  0
  7  9  1  0
  8  7  2  0
  9 10  1  0
 11 10  1  6
 11 12  1  0
 12  4  1  0
 13 11  1  0
 13 23  1  0
 14 13  2  0
 16 18  1  0
 16 15  1  0
 17 16  2  0
 19 20  1  0
 19 18  1  0
 20 21  1  0
 22 21  1  1
 22 23  1  0
 22 24  1  0
 24 25  2  0
 24 26  1  0
M  END
$$$$
