AQR.pdb
     RDKit          3D

 26 25  0  0  1  0  0  0  0  0999 V2000
   27.5531  -15.7685  -16.8073 C   0  0  0  0  0  0  0  0  0  0  0  0
   26.6090  -14.9275  -15.9425 C   0  0  2  0  0  0  0  0  0  0  0  0
   25.3190  -14.8960  -16.5552 N   0  0  0  0  0  0  0  0  0  0  0  0
   27.1717  -13.5340  -15.8985 C   0  0  0  0  0  0  0  0  0  0  0  0
   28.2699  -13.3630  -15.3550 O   0  0  0  0  0  0  0  0  0  0  0  0
   30.9837  -10.2909  -17.5815 N   0  0  0  0  0  0  0  0  0  0  0  0
   30.0782   -9.2039  -17.4984 C   0  0  0  0  0  0  0  0  0  0  0  0
   30.5073   -8.0488  -17.7090 O   0  0  0  0  0  0  0  0  0  0  0  0
   28.6173   -9.4089  -17.1678 C   0  0  0  0  0  0  0  0  0  0  0  0
   28.3408  -10.8409  -16.9409 C   0  0  0  0  0  0  0  0  0  0  0  0
   26.9019  -11.0854  -16.5564 C   0  0  2  0  0  0  0  0  0  0  0  0
   26.4902  -12.4403  -16.4512 N   0  0  0  0  0  0  0  0  0  0  0  0
   25.9416  -10.1546  -17.1618 C   0  0  0  0  0  0  0  0  0  0  0  0
   25.7411  -10.0727  -18.4045 O   0  0  0  0  0  0  0  0  0  0  0  0
   17.8866  -10.7102  -15.4771 N   0  0  0  0  0  0  0  0  0  0  0  0
   17.8254   -9.4693  -16.1935 C   0  0  0  0  0  0  0  0  0  0  0  0
   16.6687   -8.9905  -16.4915 N   0  0  0  0  0  0  0  0  0  0  0  0
   19.0425   -8.8287  -16.5394 N   0  0  0  0  0  0  0  0  0  0  0  0
   20.2818   -9.4901  -16.1948 C   0  0  0  0  0  0  0  0  0  0  0  0
   21.4804   -8.6606  -16.6313 C   0  0  0  0  0  0  0  0  0  0  0  0
   22.7336   -9.3868  -16.2351 C   0  0  0  0  0  0  0  0  0  0  0  0
   23.9568   -8.6643  -16.7761 C   0  0  2  0  0  0  0  0  0  0  0  0
   25.1829   -9.2866  -16.3239 N   0  0  0  0  0  0  0  0  0  0  0  0
   23.9508   -7.2348  -16.3434 C   0  0  0  0  0  0  0  0  0  0  0  0
   24.8244   -6.7842  -15.5611 O   0  0  0  0  0  0  0  0  0  0  0  0
   22.9847   -6.3493  -16.7854 O   0  0  0  0  0  0  0  0  0  0  0  0
  2  1  1  6
  3  2  1  0
  4  2  1  0
  4  5  2  0
  6  7  1  0
  7  9  1  0
  8  7  2  0
  9 10  1  0
 11 10  1  6
 11 12  1  0
 12  4  1  0
 13 11  1  0
 13 23  1  0
 14 13  2  0
 16 18  1  0
 16 15  1  0
 17 16  2  0
 19 20  1  0
 19 18  1  0
 20 21  1  0
 22 21  1  1
 22 23  1  0
 22 24  1  0
 24 25  2  0
 24 26  1  0
M  END
$$$$
