AQR.pdb
     RDKit          3D

 26 25  0  0  1  0  0  0  0  0999 V2000
   15.7292  -32.1795   -8.1465 C   0  0  0  0  0  0  0  0  0  0  0  0
   17.0849  -31.7101   -8.6834 C   0  0  2  0  0  0  0  0  0  0  0  0
   18.1167  -32.5187   -8.1162 N   0  0  0  0  0  0  0  0  0  0  0  0
   17.2689  -30.2860   -8.2379 C   0  0  0  0  0  0  0  0  0  0  0  0
   17.3482  -30.0577   -7.0246 O   0  0  0  0  0  0  0  0  0  0  0  0
   20.3400  -26.0028  -11.7012 N   0  0  0  0  0  0  0  0  0  0  0  0
   20.7552  -27.1877  -11.0440 C   0  0  0  0  0  0  0  0  0  0  0  0
   21.9006  -27.6318  -11.2755 O   0  0  0  0  0  0  0  0  0  0  0  0
   19.8532  -27.9177  -10.0749 C   0  0  0  0  0  0  0  0  0  0  0  0
   18.5761  -27.1939   -9.9211 C   0  0  0  0  0  0  0  0  0  0  0  0
   17.6644  -27.8612   -8.9203 C   0  0  2  0  0  0  0  0  0  0  0  0
   17.3513  -29.2266   -9.1528 N   0  0  0  0  0  0  0  0  0  0  0  0
   16.5710  -27.0132   -8.4301 C   0  0  0  0  0  0  0  0  0  0  0  0
   15.4345  -26.9598   -8.9745 O   0  0  0  0  0  0  0  0  0  0  0  0
   15.2570  -22.9079   -0.7332 N   0  0  0  0  0  0  0  0  0  0  0  0
   14.0327  -22.7029   -1.4513 C   0  0  0  0  0  0  0  0  0  0  0  0
   13.0020  -22.2910   -0.8000 N   0  0  0  0  0  0  0  0  0  0  0  0
   14.0159  -22.9638   -2.8453 N   0  0  0  0  0  0  0  0  0  0  0  0
   15.1505  -23.6498   -3.4232 C   0  0  0  0  0  0  0  0  0  0  0  0
   14.8967  -23.9837   -4.8859 C   0  0  0  0  0  0  0  0  0  0  0  0
   16.0357  -24.8231   -5.3887 C   0  0  0  0  0  0  0  0  0  0  0  0
   15.7864  -25.2452   -6.8277 C   0  0  2  0  0  0  0  0  0  0  0  0
   16.7783  -26.1973   -7.2801 N   0  0  0  0  0  0  0  0  0  0  0  0
   15.8092  -24.0557   -7.7305 C   0  0  0  0  0  0  0  0  0  0  0  0
   14.8076  -23.3073   -7.8525 O   0  0  0  0  0  0  0  0  0  0  0  0
   16.9324  -23.7292   -8.4686 O   0  0  0  0  0  0  0  0  0  0  0  0
  2  1  1  1
  3  2  1  0
  4  2  1  0
  4  5  2  0
  6  7  1  0
  7  9  1  0
  8  7  2  0
  9 10  1  0
 11 10  1  6
 11 12  1  0
 12  4  1  0
 13 11  1  0
 13 23  1  0
 14 13  2  0
 16 18  1  0
 16 15  1  0
 17 16  2  0
 19 20  1  0
 19 18  1  0
 20 21  1  0
 22 21  1  1
 22 23  1  0
 22 24  1  0
 24 25  2  0
 24 26  1  0
M  END
$$$$
