AQR.pdb
     RDKit          3D

 26 25  0  0  1  0  0  0  0  0999 V2000
   26.8003  -26.7434  -17.5497 C   0  0  0  0  0  0  0  0  0  0  0  0
   27.8595  -25.6830  -17.8663 C   0  0  2  0  0  0  0  0  0  0  0  0
   29.0663  -26.0079  -17.1744 N   0  0  0  0  0  0  0  0  0  0  0  0
   27.3355  -24.3682  -17.3597 C   0  0  0  0  0  0  0  0  0  0  0  0
   27.4672  -24.1096  -16.1571 O   0  0  0  0  0  0  0  0  0  0  0  0
   25.5681  -19.4264  -21.1560 N   0  0  0  0  0  0  0  0  0  0  0  0
   25.5129  -18.9275  -19.8307 C   0  0  0  0  0  0  0  0  0  0  0  0
   25.2858  -17.7105  -19.6571 O   0  0  0  0  0  0  0  0  0  0  0  0
   25.7166  -19.8272  -18.6329 C   0  0  0  0  0  0  0  0  0  0  0  0
   26.1193  -21.1779  -19.0709 C   0  0  0  0  0  0  0  0  0  0  0  0
   26.2261  -22.1399  -17.9128 C   0  0  2  0  0  0  0  0  0  0  0  0
   26.7102  -23.4421  -18.2068 N   0  0  0  0  0  0  0  0  0  0  0  0
   25.1266  -22.0535  -16.9440 C   0  0  0  0  0  0  0  0  0  0  0  0
   24.0459  -22.6936  -17.0595 O   0  0  0  0  0  0  0  0  0  0  0  0
   25.5800  -20.3170   -8.3867 N   0  0  0  0  0  0  0  0  0  0  0  0
   24.1860  -20.6130   -8.5475 C   0  0  0  0  0  0  0  0  0  0  0  0
   23.4407  -20.6401   -7.4988 N   0  0  0  0  0  0  0  0  0  0  0  0
   23.6951  -20.8618   -9.8546 N   0  0  0  0  0  0  0  0  0  0  0  0
   24.6403  -20.8555  -10.9494 C   0  0  0  0  0  0  0  0  0  0  0  0
   23.9292  -21.0358  -12.2826 C   0  0  0  0  0  0  0  0  0  0  0  0
   24.9541  -20.9980  -13.3794 C   0  0  0  0  0  0  0  0  0  0  0  0
   24.2906  -21.2104  -14.7305 C   0  0  2  0  0  0  0  0  0  0  0  0
   25.2617  -21.2092  -15.8038 N   0  0  0  0  0  0  0  0  0  0  0  0
   23.2813  -20.1402  -14.9889 C   0  0  0  0  0  0  0  0  0  0  0  0
   23.5726  -19.1117  -15.6489 O   0  0  0  0  0  0  0  0  0  0  0  0
   21.9864  -20.2370  -14.5130 O   0  0  0  0  0  0  0  0  0  0  0  0
  2  1  1  1
  3  2  1  0
  4  2  1  0
  4  5  2  0
  6  7  1  0
  7  9  1  0
  8  7  2  0
  9 10  1  0
 11 10  1  6
 11 12  1  0
 12  4  1  0
 13 11  1  0
 13 23  1  0
 14 13  2  0
 16 18  1  0
 16 15  1  0
 17 16  2  0
 19 20  1  0
 19 18  1  0
 20 21  1  0
 22 21  1  1
 22 23  1  0
 22 24  1  0
 24 25  2  0
 24 26  1  0
M  END
$$$$
