AQR.pdb
     RDKit          3D

 26 25  0  0  1  0  0  0  0  0999 V2000
   29.0947  -22.6468  -17.1346 C   0  0  0  0  0  0  0  0  0  0  0  0
   28.3680  -21.4422  -16.5283 C   0  0  2  0  0  0  0  0  0  0  0  0
   29.1885  -20.2818  -16.6720 N   0  0  0  0  0  0  0  0  0  0  0  0
   28.1712  -21.7331  -15.0666 C   0  0  0  0  0  0  0  0  0  0  0  0
   27.4471  -22.6853  -14.7514 O   0  0  0  0  0  0  0  0  0  0  0  0
   32.2414  -20.9010  -10.3834 N   0  0  0  0  0  0  0  0  0  0  0  0
   32.1335  -21.8344  -11.4443 C   0  0  0  0  0  0  0  0  0  0  0  0
   33.1079  -22.5779  -11.6902 O   0  0  0  0  0  0  0  0  0  0  0  0
   30.8759  -21.9527  -12.2750 C   0  0  0  0  0  0  0  0  0  0  0  0
   29.8711  -20.9702  -11.8237 C   0  0  0  0  0  0  0  0  0  0  0  0
   28.6146  -21.0219  -12.6584 C   0  0  2  0  0  0  0  0  0  0  0  0
   28.7808  -20.9610  -14.0673 N   0  0  0  0  0  0  0  0  0  0  0  0
   27.4798  -20.2763  -12.1002 C   0  0  0  0  0  0  0  0  0  0  0  0
   27.1751  -19.1049  -12.4552 O   0  0  0  0  0  0  0  0  0  0  0  0
   20.8706  -21.5319  -15.7224 N   0  0  0  0  0  0  0  0  0  0  0  0
   20.8160  -20.2399  -15.1025 C   0  0  0  0  0  0  0  0  0  0  0  0
   20.1517  -19.3067  -15.6889 N   0  0  0  0  0  0  0  0  0  0  0  0
   21.4967  -20.0519  -13.8725 N   0  0  0  0  0  0  0  0  0  0  0  0
   22.3234  -21.1318  -13.3800 C   0  0  0  0  0  0  0  0  0  0  0  0
   23.0301  -20.7320  -12.0931 C   0  0  0  0  0  0  0  0  0  0  0  0
   24.5001  -20.9925  -12.2548 C   0  0  0  0  0  0  0  0  0  0  0  0
   25.2489  -20.5984  -10.9919 C   0  0  2  0  0  0  0  0  0  0  0  0
   26.6633  -20.8850  -11.1033 N   0  0  0  0  0  0  0  0  0  0  0  0
   24.6981  -21.3283   -9.8110 C   0  0  0  0  0  0  0  0  0  0  0  0
   25.3019  -22.3081   -9.3074 O   0  0  0  0  0  0  0  0  0  0  0  0
   23.5025  -20.9563   -9.2239 O   0  0  0  0  0  0  0  0  0  0  0  0
  2  1  1  6
  3  2  1  0
  4  2  1  0
  4  5  2  0
  6  7  1  0
  7  9  1  0
  8  7  2  0
  9 10  1  0
 11 10  1  1
 11 12  1  0
 12  4  1  0
 13 11  1  0
 13 23  1  0
 14 13  2  0
 16 18  1  0
 16 15  1  0
 17 16  2  0
 19 20  1  0
 19 18  1  0
 20 21  1  0
 22 21  1  6
 22 23  1  0
 22 24  1  0
 24 25  2  0
 24 26  1  0
M  END
$$$$
