AQR.pdb
     RDKit          3D

 26 25  0  0  1  0  0  0  0  0999 V2000
   22.0539  -29.3514  -10.5363 C   0  0  0  0  0  0  0  0  0  0  0  0
   20.5394  -29.5287  -10.3901 C   0  0  2  0  0  0  0  0  0  0  0  0
   20.1597  -30.7835  -10.9571 N   0  0  0  0  0  0  0  0  0  0  0  0
   19.8865  -28.4167  -11.1630 C   0  0  0  0  0  0  0  0  0  0  0  0
   20.0138  -28.4058  -12.3936 O   0  0  0  0  0  0  0  0  0  0  0  0
   14.2707  -25.6707  -10.8858 N   0  0  0  0  0  0  0  0  0  0  0  0
   14.7339  -26.9711  -11.2061 C   0  0  0  0  0  0  0  0  0  0  0  0
   13.9008  -27.8350  -11.5560 O   0  0  0  0  0  0  0  0  0  0  0  0
   16.2004  -27.3324  -11.1386 C   0  0  0  0  0  0  0  0  0  0  0  0
   16.9978  -26.1580  -10.7342 C   0  0  0  0  0  0  0  0  0  0  0  0
   18.4536  -26.3084  -11.1031 C   0  0  2  0  0  0  0  0  0  0  0  0
   19.1475  -27.4069  -10.5303 N   0  0  0  0  0  0  0  0  0  0  0  0
   19.1934  -25.0439  -11.1970 C   0  0  0  0  0  0  0  0  0  0  0  0
   19.7309  -24.4774  -10.2064 O   0  0  0  0  0  0  0  0  0  0  0  0
   25.2590  -24.2761  -15.0618 N   0  0  0  0  0  0  0  0  0  0  0  0
   24.3426  -24.9212  -15.9567 C   0  0  0  0  0  0  0  0  0  0  0  0
   24.7024  -26.0255  -16.5108 N   0  0  0  0  0  0  0  0  0  0  0  0
   23.0832  -24.3115  -16.1884 N   0  0  0  0  0  0  0  0  0  0  0  0
   22.6334  -23.3023  -15.2549 C   0  0  0  0  0  0  0  0  0  0  0  0
   21.3469  -23.7336  -14.5661 C   0  0  0  0  0  0  0  0  0  0  0  0
   21.3783  -23.2451  -13.1466 C   0  0  0  0  0  0  0  0  0  0  0  0
   19.9652  -23.1105  -12.6024 C   0  0  2  0  0  0  0  0  0  0  0  0
   19.3262  -24.4016  -12.4622 N   0  0  0  0  0  0  0  0  0  0  0  0
   19.1384  -22.2562  -13.5064 C   0  0  0  0  0  0  0  0  0  0  0  0
   18.3111  -22.7596  -14.3066 O   0  0  0  0  0  0  0  0  0  0  0  0
   19.2493  -20.8777  -13.5001 O   0  0  0  0  0  0  0  0  0  0  0  0
  2  1  1  6
  3  2  1  0
  4  2  1  0
  4  5  2  0
  6  7  1  0
  7  9  1  0
  8  7  2  0
  9 10  1  0
 11 10  1  1
 11 12  1  0
 12  4  1  0
 13 11  1  0
 13 23  1  0
 14 13  2  0
 16 18  1  0
 16 15  1  0
 17 16  2  0
 19 20  1  0
 19 18  1  0
 20 21  1  0
 22 21  1  6
 22 23  1  0
 22 24  1  0
 24 25  2  0
 24 26  1  0
M  END
$$$$
