AQR.pdb
     RDKit          3D

 26 25  0  0  1  0  0  0  0  0999 V2000
   15.7219  -10.2011  -15.5424 C   0  0  0  0  0  0  0  0  0  0  0  0
   17.0314  -10.8271  -15.0527 C   0  0  2  0  0  0  0  0  0  0  0  0
   16.7780  -12.1677  -14.6297 N   0  0  0  0  0  0  0  0  0  0  0  0
   17.4980  -10.0153  -13.8764 C   0  0  0  0  0  0  0  0  0  0  0  0
   17.1088  -10.3418  -12.7484 O   0  0  0  0  0  0  0  0  0  0  0  0
   22.5189   -5.9698  -13.8867 N   0  0  0  0  0  0  0  0  0  0  0  0
   21.9625   -5.8677  -12.5874 C   0  0  0  0  0  0  0  0  0  0  0  0
   22.5926   -5.2337  -11.7135 O   0  0  0  0  0  0  0  0  0  0  0  0
   20.6337   -6.4992  -12.2392 C   0  0  0  0  0  0  0  0  0  0  0  0
   20.1227   -7.2785  -13.3838 C   0  0  0  0  0  0  0  0  0  0  0  0
   18.8594   -8.0288  -13.0385 C   0  0  2  0  0  0  0  0  0  0  0  0
   18.3514   -8.9129  -14.0268 N   0  0  0  0  0  0  0  0  0  0  0  0
   17.8692   -7.2452  -12.2899 C   0  0  0  0  0  0  0  0  0  0  0  0
   17.0767   -6.4266  -12.8311 O   0  0  0  0  0  0  0  0  0  0  0  0
   11.6085   -9.1755   -7.0740 N   0  0  0  0  0  0  0  0  0  0  0  0
   11.5719   -7.7453   -6.9742 C   0  0  0  0  0  0  0  0  0  0  0  0
   10.5463   -7.1958   -6.4244 N   0  0  0  0  0  0  0  0  0  0  0  0
   12.6678   -7.0046   -7.4859 N   0  0  0  0  0  0  0  0  0  0  0  0
   13.7549   -7.7342   -8.1007 C   0  0  0  0  0  0  0  0  0  0  0  0
   14.8241   -6.7831   -8.6179 C   0  0  0  0  0  0  0  0  0  0  0  0
   15.8498   -7.5811   -9.3701 C   0  0  0  0  0  0  0  0  0  0  0  0
   16.8199   -6.6548  -10.0855 C   0  0  2  0  0  0  0  0  0  0  0  0
   17.7775   -7.3985  -10.8760 N   0  0  0  0  0  0  0  0  0  0  0  0
   17.5577   -5.8109   -9.0984 C   0  0  0  0  0  0  0  0  0  0  0  0
   18.6982   -6.1353   -8.6834 O   0  0  0  0  0  0  0  0  0  0  0  0
   17.0167   -4.6393   -8.6013 O   0  0  0  0  0  0  0  0  0  0  0  0
  2  1  1  1
  3  2  1  0
  4  2  1  0
  4  5  2  0
  6  7  1  0
  7  9  1  0
  8  7  2  0
  9 10  1  0
 11 10  1  6
 11 12  1  0
 12  4  1  0
 13 11  1  0
 13 23  1  0
 14 13  2  0
 16 18  1  0
 16 15  1  0
 17 16  2  0
 19 20  1  0
 19 18  1  0
 20 21  1  0
 22 21  1  1
 22 23  1  0
 22 24  1  0
 24 25  2  0
 24 26  1  0
M  END
$$$$
