AQR.pdb
     RDKit          3D

 26 25  0  0  1  0  0  0  0  0999 V2000
   17.9588  -12.5004  -16.1971 C   0  0  0  0  0  0  0  0  0  0  0  0
   19.4853  -12.3930  -16.2656 C   0  0  2  0  0  0  0  0  0  0  0  0
   20.0606  -13.6049  -15.7750 N   0  0  0  0  0  0  0  0  0  0  0  0
   19.8899  -11.2540  -15.3716 C   0  0  0  0  0  0  0  0  0  0  0  0
   19.7596  -11.3941  -14.1494 O   0  0  0  0  0  0  0  0  0  0  0  0
   24.2296   -6.8172  -16.6397 N   0  0  0  0  0  0  0  0  0  0  0  0
   24.3066   -8.2118  -16.3993 C   0  0  0  0  0  0  0  0  0  0  0  0
   25.4022   -8.7896  -16.5677 O   0  0  0  0  0  0  0  0  0  0  0  0
   23.1049   -9.0081  -15.9437 C   0  0  0  0  0  0  0  0  0  0  0  0
   21.9573   -8.1107  -15.7066 C   0  0  0  0  0  0  0  0  0  0  0  0
   20.7490   -8.8594  -15.1991 C   0  0  2  0  0  0  0  0  0  0  0  0
   20.4038  -10.0543  -15.8843 N   0  0  0  0  0  0  0  0  0  0  0  0
   19.6348   -8.0036  -14.7735 C   0  0  0  0  0  0  0  0  0  0  0  0
   18.7907   -7.5125  -15.5719 O   0  0  0  0  0  0  0  0  0  0  0  0
   14.9850   -7.4616   -7.4644 N   0  0  0  0  0  0  0  0  0  0  0  0
   14.3503   -6.4712   -8.2848 C   0  0  0  0  0  0  0  0  0  0  0  0
   13.3213   -5.8561   -7.8169 N   0  0  0  0  0  0  0  0  0  0  0  0
   14.8868   -6.2166   -9.5727 N   0  0  0  0  0  0  0  0  0  0  0  0
   15.9584   -7.0661  -10.0438 C   0  0  0  0  0  0  0  0  0  0  0  0
   16.4838   -6.5836  -11.3880 C   0  0  0  0  0  0  0  0  0  0  0  0
   17.6153   -7.4775  -11.8072 C   0  0  0  0  0  0  0  0  0  0  0  0
   18.4223   -6.8234  -12.9171 C   0  0  2  0  0  0  0  0  0  0  0  0
   19.4755   -7.6958  -13.3911 N   0  0  0  0  0  0  0  0  0  0  0  0
   19.0302   -5.5469  -12.4359 C   0  0  0  0  0  0  0  0  0  0  0  0
   20.1873   -5.5164  -11.9476 O   0  0  0  0  0  0  0  0  0  0  0  0
   18.3456   -4.3474  -12.5080 O   0  0  0  0  0  0  0  0  0  0  0  0
  2  1  1  1
  3  2  1  0
  4  2  1  0
  4  5  2  0
  6  7  1  0
  7  9  1  0
  8  7  2  0
  9 10  1  0
 11 10  1  6
 11 12  1  0
 12  4  1  0
 13 11  1  0
 13 23  1  0
 14 13  2  0
 16 18  1  0
 16 15  1  0
 17 16  2  0
 19 20  1  0
 19 18  1  0
 20 21  1  0
 22 21  1  1
 22 23  1  0
 22 24  1  0
 24 25  2  0
 24 26  1  0
M  END
$$$$
