AQR.pdb
     RDKit          3D

 26 25  0  0  1  0  0  0  0  0999 V2000
   25.5835  -11.7410  -18.2250 C   0  0  0  0  0  0  0  0  0  0  0  0
   26.0880  -10.7670  -17.1558 C   0  0  2  0  0  0  0  0  0  0  0  0
   26.8138  -11.4966  -16.1652 N   0  0  0  0  0  0  0  0  0  0  0  0
   24.8779  -10.1388  -16.5223 C   0  0  0  0  0  0  0  0  0  0  0  0
   24.1363  -10.8554  -15.8389 O   0  0  0  0  0  0  0  0  0  0  0  0
   22.6962   -4.1514  -15.4277 N   0  0  0  0  0  0  0  0  0  0  0  0
   22.5843   -4.9983  -14.2970 C   0  0  0  0  0  0  0  0  0  0  0  0
   22.0165   -4.5598  -13.2732 O   0  0  0  0  0  0  0  0  0  0  0  0
   23.1277   -6.4091  -14.3028 C   0  0  0  0  0  0  0  0  0  0  0  0
   23.8485   -6.6738  -15.5634 C   0  0  0  0  0  0  0  0  0  0  0  0
   23.5034   -8.0256  -16.1394 C   0  0  2  0  0  0  0  0  0  0  0  0
   24.5754   -8.7794  -16.6860 N   0  0  0  0  0  0  0  0  0  0  0  0
   22.2314   -8.0709  -16.8709 C   0  0  0  0  0  0  0  0  0  0  0  0
   22.1304   -7.8340  -18.1057 O   0  0  0  0  0  0  0  0  0  0  0  0
   14.1629  -12.6548  -19.0679 N   0  0  0  0  0  0  0  0  0  0  0  0
   15.2758  -12.5078  -18.1754 C   0  0  0  0  0  0  0  0  0  0  0  0
   15.6068  -13.5097  -17.4388 N   0  0  0  0  0  0  0  0  0  0  0  0
   15.9589  -11.2651  -18.1471 N   0  0  0  0  0  0  0  0  0  0  0  0
   17.1627  -11.1680  -17.3512 C   0  0  0  0  0  0  0  0  0  0  0  0
   17.7574   -9.7698  -17.4334 C   0  0  0  0  0  0  0  0  0  0  0  0
   19.0544   -9.7574  -16.6768 C   0  0  0  0  0  0  0  0  0  0  0  0
   19.7431   -8.4108  -16.8303 C   0  0  2  0  0  0  0  0  0  0  0  0
   21.0325   -8.3971  -16.1728 N   0  0  0  0  0  0  0  0  0  0  0  0
   18.8948   -7.3238  -16.2562 C   0  0  0  0  0  0  0  0  0  0  0  0
   18.8340   -7.1267  -15.0169 O   0  0  0  0  0  0  0  0  0  0  0  0
   18.1423   -6.4906  -17.0638 O   0  0  0  0  0  0  0  0  0  0  0  0
  2  1  1  6
  3  2  1  0
  4  2  1  0
  4  5  2  0
  6  7  1  0
  7  9  1  0
  8  7  2  0
  9 10  1  0
 11 10  1  6
 11 12  1  0
 12  4  1  0
 13 11  1  0
 13 23  1  0
 14 13  2  0
 16 18  1  0
 16 15  1  0
 17 16  2  0
 19 20  1  0
 19 18  1  0
 20 21  1  0
 22 21  1  1
 22 23  1  0
 22 24  1  0
 24 25  2  0
 24 26  1  0
M  END
$$$$
