AQR.pdb
     RDKit          3D

 26 25  0  0  1  0  0  0  0  0999 V2000
   29.3940  -22.6958  -16.7938 C   0  0  0  0  0  0  0  0  0  0  0  0
   28.0282  -23.2814  -16.4224 C   0  0  2  0  0  0  0  0  0  0  0  0
   27.2910  -23.5406  -17.6182 N   0  0  0  0  0  0  0  0  0  0  0  0
   27.3067  -22.2424  -15.6099 C   0  0  0  0  0  0  0  0  0  0  0  0
   27.7511  -21.9625  -14.4898 O   0  0  0  0  0  0  0  0  0  0  0  0
   26.0089  -16.6058  -16.6871 N   0  0  0  0  0  0  0  0  0  0  0  0
   27.1270  -17.4184  -16.3743 C   0  0  0  0  0  0  0  0  0  0  0  0
   28.2719  -16.9260  -16.4712 O   0  0  0  0  0  0  0  0  0  0  0  0
   26.9670  -18.8533  -15.9259 C   0  0  0  0  0  0  0  0  0  0  0  0
   25.5360  -19.1940  -15.8040 C   0  0  0  0  0  0  0  0  0  0  0  0
   25.3288  -20.6427  -15.4343 C   0  0  2  0  0  0  0  0  0  0  0  0
   26.1586  -21.5931  -16.0859 N   0  0  0  0  0  0  0  0  0  0  0  0
   23.9263  -21.0269  -15.2334 C   0  0  0  0  0  0  0  0  0  0  0  0
   23.2624  -21.6982  -16.0697 O   0  0  0  0  0  0  0  0  0  0  0  0
   19.3506  -24.5408   -8.9441 N   0  0  0  0  0  0  0  0  0  0  0  0
   18.4066  -24.4262  -10.0176 C   0  0  0  0  0  0  0  0  0  0  0  0
   17.3299  -25.1290   -9.9641 N   0  0  0  0  0  0  0  0  0  0  0  0
   18.7044  -23.5438  -11.0872 N   0  0  0  0  0  0  0  0  0  0  0  0
   20.0734  -23.1048  -11.2465 C   0  0  0  0  0  0  0  0  0  0  0  0
   20.2223  -22.2251  -12.4791 C   0  0  0  0  0  0  0  0  0  0  0  0
   21.6534  -21.7815  -12.5792 C   0  0  0  0  0  0  0  0  0  0  0  0
   21.8550  -20.9215  -13.8164 C   0  0  2  0  0  0  0  0  0  0  0  0
   23.2559  -20.6334  -14.0389 N   0  0  0  0  0  0  0  0  0  0  0  0
   21.1107  -19.6336  -13.6822 C   0  0  0  0  0  0  0  0  0  0  0  0
   21.6877  -18.5794  -13.3163 O   0  0  0  0  0  0  0  0  0  0  0  0
   19.7575  -19.5484  -13.9548 O   0  0  0  0  0  0  0  0  0  0  0  0
  2  1  1  6
  3  2  1  0
  4  2  1  0
  4  5  2  0
  6  7  1  0
  7  9  1  0
  8  7  2  0
  9 10  1  0
 11 10  1  6
 11 12  1  0
 12  4  1  0
 13 11  1  0
 13 23  1  0
 14 13  2  0
 16 18  1  0
 16 15  1  0
 17 16  2  0
 19 20  1  0
 19 18  1  0
 20 21  1  0
 22 21  1  1
 22 23  1  0
 22 24  1  0
 24 25  2  0
 24 26  1  0
M  END
$$$$
