AQR.pdb
     RDKit          3D

 26 25  0  0  1  0  0  0  0  0999 V2000
   20.5863  -11.1443  -15.7279 C   0  0  0  0  0  0  0  0  0  0  0  0
   19.2997  -10.3515  -15.4782 C   0  0  2  0  0  0  0  0  0  0  0  0
   19.0656   -9.4811  -16.5863 N   0  0  0  0  0  0  0  0  0  0  0  0
   19.5194   -9.5292  -14.2389 C   0  0  0  0  0  0  0  0  0  0  0  0
   19.7016  -10.1212  -13.1681 O   0  0  0  0  0  0  0  0  0  0  0  0
   22.6025   -4.0786  -13.7541 N   0  0  0  0  0  0  0  0  0  0  0  0
   21.4810   -4.1309  -14.6190 C   0  0  0  0  0  0  0  0  0  0  0  0
   21.3647   -3.2555  -15.5037 O   0  0  0  0  0  0  0  0  0  0  0  0
   20.4337   -5.2147  -14.4990 C   0  0  0  0  0  0  0  0  0  0  0  0
   20.7937   -6.1560  -13.4205 C   0  0  0  0  0  0  0  0  0  0  0  0
   19.7309   -7.2065  -13.2083 C   0  0  2  0  0  0  0  0  0  0  0  0
   19.5223   -8.1273  -14.2689 N   0  0  0  0  0  0  0  0  0  0  0  0
   18.5309   -6.7287  -12.5106 C   0  0  0  0  0  0  0  0  0  0  0  0
   17.5907   -6.1145  -13.0848 O   0  0  0  0  0  0  0  0  0  0  0  0
   12.1775  -10.2273   -8.6282 N   0  0  0  0  0  0  0  0  0  0  0  0
   11.8774   -8.8431   -8.4025 C   0  0  0  0  0  0  0  0  0  0  0  0
   10.6614   -8.5151   -8.1384 N   0  0  0  0  0  0  0  0  0  0  0  0
   12.9351   -7.9016   -8.4811 N   0  0  0  0  0  0  0  0  0  0  0  0
   14.1850   -8.3294   -9.0700 C   0  0  0  0  0  0  0  0  0  0  0  0
   15.1407   -7.1560   -9.2293 C   0  0  0  0  0  0  0  0  0  0  0  0
   16.4148   -7.6581   -9.8452 C   0  0  0  0  0  0  0  0  0  0  0  0
   17.2443   -6.4955  -10.3660 C   0  0  2  0  0  0  0  0  0  0  0  0
   18.3962   -6.9579  -11.1104 N   0  0  0  0  0  0  0  0  0  0  0  0
   17.7104   -5.6402   -9.2338 C   0  0  0  0  0  0  0  0  0  0  0  0
   18.8454   -5.7977   -8.7189 O   0  0  0  0  0  0  0  0  0  0  0  0
   16.9130   -4.6409   -8.7063 O   0  0  0  0  0  0  0  0  0  0  0  0
  2  1  1  6
  3  2  1  0
  4  2  1  0
  4  5  2  0
  6  7  1  0
  7  9  1  0
  8  7  2  0
  9 10  1  0
 11 10  1  6
 11 12  1  0
 12  4  1  0
 13 11  1  0
 13 23  1  0
 14 13  2  0
 16 18  1  0
 16 15  1  0
 17 16  2  0
 19 20  1  0
 19 18  1  0
 20 21  1  0
 22 21  1  1
 22 23  1  0
 22 24  1  0
 24 25  2  0
 24 26  1  0
M  END
$$$$
