AQR.pdb
     RDKit          3D

 26 25  0  0  1  0  0  0  0  0999 V2000
   12.8786  -22.8822   -2.8241 C   0  0  0  0  0  0  0  0  0  0  0  0
   13.8914  -23.5363   -1.8792 C   0  0  2  0  0  0  0  0  0  0  0  0
   14.2952  -22.5825   -0.8956 N   0  0  0  0  0  0  0  0  0  0  0  0
   15.0822  -23.9284   -2.7087 C   0  0  0  0  0  0  0  0  0  0  0  0
   15.7915  -23.0293   -3.1767 O   0  0  0  0  0  0  0  0  0  0  0  0
   19.3199  -29.1222   -2.5363 N   0  0  0  0  0  0  0  0  0  0  0  0
   18.7093  -28.1855   -1.6655 C   0  0  0  0  0  0  0  0  0  0  0  0
   18.6270  -28.4627   -0.4493 O   0  0  0  0  0  0  0  0  0  0  0  0
   18.1641  -26.8686   -2.1697 C   0  0  0  0  0  0  0  0  0  0  0  0
   17.0835  -27.1037   -3.1473 C   0  0  0  0  0  0  0  0  0  0  0  0
   16.5049  -25.8124   -3.6724 C   0  0  2  0  0  0  0  0  0  0  0  0
   15.4025  -25.2702   -2.9603 N   0  0  0  0  0  0  0  0  0  0  0  0
   16.4480  -25.7196   -5.1364 C   0  0  0  0  0  0  0  0  0  0  0  0
   15.3928  -25.8979   -5.8041 O   0  0  0  0  0  0  0  0  0  0  0  0
   17.8313  -21.1414  -11.1767 N   0  0  0  0  0  0  0  0  0  0  0  0
   18.2458  -22.2568  -11.9773 C   0  0  0  0  0  0  0  0  0  0  0  0
   18.2517  -22.1234  -13.2573 N   0  0  0  0  0  0  0  0  0  0  0  0
   18.6297  -23.4537  -11.3205 N   0  0  0  0  0  0  0  0  0  0  0  0
   18.6588  -23.4574   -9.8744 C   0  0  0  0  0  0  0  0  0  0  0  0
   18.9779  -24.8461   -9.3406 C   0  0  0  0  0  0  0  0  0  0  0  0
   18.9532  -24.7983   -7.8400 C   0  0  0  0  0  0  0  0  0  0  0  0
   17.6592  -25.3974   -7.3131 C   0  0  2  0  0  0  0  0  0  0  0  0
   17.6333  -25.4134   -5.8660 N   0  0  0  0  0  0  0  0  0  0  0  0
   17.4890  -26.7932   -7.8163 C   0  0  0  0  0  0  0  0  0  0  0  0
   17.9186  -27.7796   -7.1676 O   0  0  0  0  0  0  0  0  0  0  0  0
   16.8525  -27.0573   -9.0154 O   0  0  0  0  0  0  0  0  0  0  0  0
  2  1  1  6
  3  2  1  0
  4  2  1  0
  4  5  2  0
  6  7  1  0
  7  9  1  0
  8  7  2  0
  9 10  1  0
 11 10  1  6
 11 12  1  0
 12  4  1  0
 13 11  1  0
 13 23  1  0
 14 13  2  0
 16 18  1  0
 16 15  1  0
 17 16  2  0
 19 20  1  0
 19 18  1  0
 20 21  1  0
 22 21  1  1
 22 23  1  0
 22 24  1  0
 24 25  2  0
 24 26  1  0
M  END
$$$$
