AQR.pdb
     RDKit          3D

 26 25  0  0  1  0  0  0  0  0999 V2000
   18.0380   -5.0513  -18.7730 C   0  0  0  0  0  0  0  0  0  0  0  0
   18.5162   -4.6377  -17.3777 C   0  0  2  0  0  0  0  0  0  0  0  0
   19.9092   -4.9297  -17.2564 N   0  0  0  0  0  0  0  0  0  0  0  0
   17.7477   -5.4628  -16.3833 C   0  0  0  0  0  0  0  0  0  0  0  0
   16.5197   -5.3223  -16.3306 O   0  0  0  0  0  0  0  0  0  0  0  0
   19.1234  -11.2353  -14.3160 N   0  0  0  0  0  0  0  0  0  0  0  0
   17.7565  -10.9401  -14.0859 C   0  0  0  0  0  0  0  0  0  0  0  0
   16.9549  -11.8881  -13.9395 O   0  0  0  0  0  0  0  0  0  0  0  0
   17.2517   -9.5171  -14.0102 C   0  0  0  0  0  0  0  0  0  0  0  0
   18.3341   -8.5723  -14.3484 C   0  0  0  0  0  0  0  0  0  0  0  0
   17.8288   -7.1560  -14.4786 C   0  0  2  0  0  0  0  0  0  0  0  0
   18.3818   -6.3744  -15.5272 N   0  0  0  0  0  0  0  0  0  0  0  0
   17.5998   -6.4697  -13.2012 C   0  0  0  0  0  0  0  0  0  0  0  0
   18.4187   -5.6566  -12.6920 O   0  0  0  0  0  0  0  0  0  0  0  0
   10.2105   -4.6434   -8.4253 N   0  0  0  0  0  0  0  0  0  0  0  0
   11.2481   -5.0122   -7.5066 C   0  0  0  0  0  0  0  0  0  0  0  0
   10.9145   -5.3616   -6.3139 N   0  0  0  0  0  0  0  0  0  0  0  0
   12.5927   -4.9744   -7.9562 N   0  0  0  0  0  0  0  0  0  0  0  0
   12.9321   -5.7158   -9.1508 C   0  0  0  0  0  0  0  0  0  0  0  0
   14.3866   -5.4891   -9.5364 C   0  0  0  0  0  0  0  0  0  0  0  0
   14.6536   -6.2004  -10.8317 C   0  0  0  0  0  0  0  0  0  0  0  0
   16.1213   -6.0790  -11.2086 C   0  0  2  0  0  0  0  0  0  0  0  0
   16.3969   -6.7172  -12.4782 N   0  0  0  0  0  0  0  0  0  0  0  0
   16.9818   -6.6996  -10.1574 C   0  0  0  0  0  0  0  0  0  0  0  0
   17.4451   -7.8596  -10.2917 O   0  0  0  0  0  0  0  0  0  0  0  0
   17.3037   -6.0240   -8.9944 O   0  0  0  0  0  0  0  0  0  0  0  0
  2  1  1  6
  3  2  1  0
  4  2  1  0
  4  5  2  0
  6  7  1  0
  7  9  1  0
  8  7  2  0
  9 10  1  0
 11 10  1  1
 11 12  1  0
 12  4  1  0
 13 11  1  0
 13 23  1  0
 14 13  2  0
 16 18  1  0
 16 15  1  0
 17 16  2  0
 19 20  1  0
 19 18  1  0
 20 21  1  0
 22 21  1  1
 22 23  1  0
 22 24  1  0
 24 25  2  0
 24 26  1  0
M  END
$$$$
