AQR.pdb
     RDKit          3D

 26 25  0  0  1  0  0  0  0  0999 V2000
   28.3726  -22.4465  -18.7202 C   0  0  0  0  0  0  0  0  0  0  0  0
   27.6871  -21.2582  -18.0385 C   0  0  2  0  0  0  0  0  0  0  0  0
   28.6613  -20.2483  -17.7712 N   0  0  0  0  0  0  0  0  0  0  0  0
   27.1216  -21.7590  -16.7387 C   0  0  0  0  0  0  0  0  0  0  0  0
   26.9719  -22.9788  -16.5965 O   0  0  0  0  0  0  0  0  0  0  0  0
   28.8195  -20.7768  -11.0247 N   0  0  0  0  0  0  0  0  0  0  0  0
   27.4764  -21.1780  -10.8158 C   0  0  0  0  0  0  0  0  0  0  0  0
   27.1103  -21.4661   -9.6558 O   0  0  0  0  0  0  0  0  0  0  0  0
   26.4846  -21.2605  -11.9538 C   0  0  0  0  0  0  0  0  0  0  0  0
   27.1524  -20.9638  -13.2362 C   0  0  0  0  0  0  0  0  0  0  0  0
   26.2380  -21.1888  -14.4157 C   0  0  2  0  0  0  0  0  0  0  0  0
   26.7654  -20.8877  -15.6993 N   0  0  0  0  0  0  0  0  0  0  0  0
   24.8366  -20.8201  -14.1809 C   0  0  0  0  0  0  0  0  0  0  0  0
   24.4269  -19.6275  -14.1504 O   0  0  0  0  0  0  0  0  0  0  0  0
   17.5647  -25.8556  -13.7744 N   0  0  0  0  0  0  0  0  0  0  0  0
   17.0418  -24.5315  -13.6007 C   0  0  0  0  0  0  0  0  0  0  0  0
   15.7661  -24.3666  -13.6402 N   0  0  0  0  0  0  0  0  0  0  0  0
   17.9554  -23.4666  -13.3936 N   0  0  0  0  0  0  0  0  0  0  0  0
   19.3684  -23.7472  -13.5228 C   0  0  0  0  0  0  0  0  0  0  0  0
   20.1850  -22.4646  -13.4634 C   0  0  0  0  0  0  0  0  0  0  0  0
   21.6296  -22.8074  -13.6884 C   0  0  0  0  0  0  0  0  0  0  0  0
   22.4702  -21.5421  -13.7472 C   0  0  2  0  0  0  0  0  0  0  0  0
   23.8675  -21.8443  -13.9734 N   0  0  0  0  0  0  0  0  0  0  0  0
   22.3409  -20.7716  -12.4743 C   0  0  0  0  0  0  0  0  0  0  0  0
   23.0775  -21.0128  -11.4856 O   0  0  0  0  0  0  0  0  0  0  0  0
   21.4063  -19.7623  -12.3315 O   0  0  0  0  0  0  0  0  0  0  0  0
  2  1  1  1
  3  2  1  0
  4  2  1  0
  4  5  2  0
  6  7  1  0
  7  9  1  0
  8  7  2  0
  9 10  1  0
 11 10  1  1
 11 12  1  0
 12  4  1  0
 13 11  1  0
 13 23  1  0
 14 13  2  0
 16 18  1  0
 16 15  1  0
 17 16  2  0
 19 20  1  0
 19 18  1  0
 20 21  1  0
 22 21  1  1
 22 23  1  0
 22 24  1  0
 24 25  2  0
 24 26  1  0
M  END
$$$$
