AQR.pdb
     RDKit          3D

 26 25  0  0  1  0  0  0  0  0999 V2000
   26.1445  -22.5251  -17.7729 C   0  0  0  0  0  0  0  0  0  0  0  0
   26.4504  -22.0827  -16.3386 C   0  0  2  0  0  0  0  0  0  0  0  0
   26.4702  -23.2317  -15.4902 N   0  0  0  0  0  0  0  0  0  0  0  0
   25.3367  -21.1683  -15.9098 C   0  0  0  0  0  0  0  0  0  0  0  0
   24.9014  -21.2765  -14.7569 O   0  0  0  0  0  0  0  0  0  0  0  0
   23.5310  -15.7876  -18.9964 N   0  0  0  0  0  0  0  0  0  0  0  0
   22.5796  -15.9471  -17.9582 C   0  0  0  0  0  0  0  0  0  0  0  0
   21.7175  -15.0570  -17.7931 O   0  0  0  0  0  0  0  0  0  0  0  0
   22.5815  -17.1609  -17.0569 C   0  0  0  0  0  0  0  0  0  0  0  0
   23.7003  -18.0569  -17.4089 C   0  0  0  0  0  0  0  0  0  0  0  0
   23.7294  -19.2928  -16.5430 C   0  0  2  0  0  0  0  0  0  0  0  0
   24.7885  -20.2100  -16.7743 N   0  0  0  0  0  0  0  0  0  0  0  0
   22.4103  -19.8731  -16.2628 C   0  0  0  0  0  0  0  0  0  0  0  0
   22.0335  -20.9912  -16.7087 O   0  0  0  0  0  0  0  0  0  0  0  0
   20.4554  -25.3332  -12.8204 N   0  0  0  0  0  0  0  0  0  0  0  0
   20.8893  -24.4832  -13.8910 C   0  0  0  0  0  0  0  0  0  0  0  0
   21.4123  -25.0287  -14.9326 N   0  0  0  0  0  0  0  0  0  0  0  0
   20.7212  -23.0820  -13.7510 N   0  0  0  0  0  0  0  0  0  0  0  0
   20.2970  -22.5723  -12.4655 C   0  0  0  0  0  0  0  0  0  0  0  0
   20.0762  -21.0678  -12.5231 C   0  0  0  0  0  0  0  0  0  0  0  0
   21.1334  -20.4634  -13.4017 C   0  0  0  0  0  0  0  0  0  0  0  0
   20.5011  -19.8314  -14.6312 C   0  0  2  0  0  0  0  0  0  0  0  0
   21.4880  -19.1560  -15.4467 N   0  0  0  0  0  0  0  0  0  0  0  0
   19.4501  -18.8492  -14.2295 C   0  0  0  0  0  0  0  0  0  0  0  0
   19.7473  -17.6814  -13.8743 O   0  0  0  0  0  0  0  0  0  0  0  0
   18.1083  -19.1841  -14.2320 O   0  0  0  0  0  0  0  0  0  0  0  0
  2  1  1  6
  3  2  1  0
  4  2  1  0
  4  5  2  0
  6  7  1  0
  7  9  1  0
  8  7  2  0
  9 10  1  0
 11 10  1  6
 11 12  1  0
 12  4  1  0
 13 11  1  0
 13 23  1  0
 14 13  2  0
 16 18  1  0
 16 15  1  0
 17 16  2  0
 19 20  1  0
 19 18  1  0
 20 21  1  0
 22 21  1  1
 22 23  1  0
 22 24  1  0
 24 25  2  0
 24 26  1  0
M  END
$$$$
