VSP.pdb
     RDKit          3D

 21 21  0  0  1  0  0  0  0  0999 V2000
   10.3374  -21.0201   27.0861 C   0  0  0  0  0  0  0  0  0  0  0  0
    9.6051  -20.1040   26.1614 C   0  0  2  0  0  0  0  0  0  0  0  0
   10.5869  -19.2438   25.4284 C   0  0  0  0  0  0  0  0  0  0  0  0
    8.5961  -19.2379   26.8430 C   0  0  2  0  0  0  0  0  0  0  0  0
    7.5934  -19.9590   27.5571 N   0  0  0  0  0  0  0  0  0  0  0  0
    7.9298  -18.2963   25.8806 C   0  0  0  0  0  0  0  0  0  0  0  0
    7.0287  -18.7011   25.0996 O   0  0  0  0  0  0  0  0  0  0  0  0
    9.2810  -14.2606   25.8491 O   0  0  0  0  0  0  0  0  0  0  0  0
    7.9973  -14.5698   25.3917 C   0  0  0  0  0  0  0  0  0  0  0  0
    7.8645  -15.9644   24.8717 C   0  0  2  0  0  0  0  0  0  0  0  0
    8.3108  -16.9501   25.8465 N   0  0  0  0  0  0  0  0  0  0  0  0
    8.5087  -16.1688   23.5577 C   0  0  0  0  0  0  0  0  0  0  0  0
    9.3867  -17.0898   23.4932 O   0  0  0  0  0  0  0  0  0  0  0  0
    8.2243  -15.4396   22.4110 N   0  0  0  0  0  0  0  0  0  0  0  0
    7.4242  -14.2390   22.1855 C   0  0  0  0  0  0  0  0  0  0  0  0
    6.9236  -14.3624   20.7597 C   0  0  0  0  0  0  0  0  0  0  0  0
    7.4449  -15.6913   20.3000 C   0  0  0  0  0  0  0  0  0  0  0  0
    8.7374  -15.8148   21.0703 C   0  0  1  0  0  0  0  0  0  0  0  0
    9.7552  -14.8202   20.7057 C   0  0  0  0  0  0  0  0  0  0  0  0
   10.0728  -13.7253   21.4911 O   0  0  0  0  0  0  0  0  0  0  0  0
   10.3812  -14.9578   19.6234 O   0  0  0  0  0  0  0  0  0  0  0  0
  2  4  1  0
  2  1  1  1
  3  2  1  0
  4  5  1  6
  6  4  1  0
  7  6  2  0
 10  9  1  1
  9  8  1  0
 10 12  1  0
 10 11  1  0
 11  6  1  0
 12 14  1  0
 13 12  2  0
 14 15  1  0
 14 18  1  0
 15 16  1  0
 16 17  1  0
 18 19  1  6
 18 17  1  0
 19 20  1  0
 21 19  2  0
M  END
$$$$
