VSP.pdb
     RDKit          3D

 21 21  0  0  1  0  0  0  0  0999 V2000
   12.2795  -17.7055   19.9491 C   0  0  0  0  0  0  0  0  0  0  0  0
   11.4692  -16.7195   20.7250 C   0  0  2  0  0  0  0  0  0  0  0  0
   11.6209  -16.9900   22.1896 C   0  0  0  0  0  0  0  0  0  0  0  0
   10.0185  -16.7152   20.3673 C   0  0  2  0  0  0  0  0  0  0  0  0
    9.7569  -16.4584   18.9886 N   0  0  0  0  0  0  0  0  0  0  0  0
    9.2419  -15.7379   21.2030 C   0  0  0  0  0  0  0  0  0  0  0  0
    9.3230  -14.4991   20.9914 O   0  0  0  0  0  0  0  0  0  0  0  0
    6.3340  -17.2029   24.0565 O   0  0  0  0  0  0  0  0  0  0  0  0
    6.2763  -15.9755   23.3908 C   0  0  0  0  0  0  0  0  0  0  0  0
    7.6176  -15.3733   23.1236 C   0  0  2  0  0  0  0  0  0  0  0  0
    8.4155  -16.2036   22.2320 N   0  0  0  0  0  0  0  0  0  0  0  0
    8.3622  -15.0216   24.3505 C   0  0  0  0  0  0  0  0  0  0  0  0
    9.5541  -15.4634   24.4373 O   0  0  0  0  0  0  0  0  0  0  0  0
    7.8596  -14.2545   25.3928 N   0  0  0  0  0  0  0  0  0  0  0  0
    6.5406  -13.6784   25.6391 C   0  0  0  0  0  0  0  0  0  0  0  0
    6.8025  -12.4387   26.4720 C   0  0  0  0  0  0  0  0  0  0  0  0
    8.2969  -12.3772   26.5811 C   0  0  0  0  0  0  0  0  0  0  0  0
    8.6827  -13.8366   26.5545 C   0  0  1  0  0  0  0  0  0  0  0  0
    8.2125  -14.6067   27.7138 C   0  0  0  0  0  0  0  0  0  0  0  0
    8.8589  -14.6204   28.9380 O   0  0  0  0  0  0  0  0  0  0  0  0
    7.1662  -15.2961   27.6034 O   0  0  0  0  0  0  0  0  0  0  0  0
  2  4  1  0
  2  1  1  6
  3  2  1  0
  4  5  1  6
  6  4  1  0
  7  6  2  0
 10  9  1  1
  9  8  1  0
 10 12  1  0
 10 11  1  0
 11  6  1  0
 12 14  1  0
 13 12  2  0
 14 15  1  0
 14 18  1  0
 15 16  1  0
 16 17  1  0
 18 19  1  1
 18 17  1  0
 19 20  1  0
 21 19  2  0
M  END
$$$$
