VSP.pdb
     RDKit          3D

 21 21  0  0  1  0  0  0  0  0999 V2000
    8.1351  -13.3777   18.5367 C   0  0  0  0  0  0  0  0  0  0  0  0
    7.6127  -13.6224   19.9143 C   0  0  2  0  0  0  0  0  0  0  0  0
    8.1595  -12.5875   20.8476 C   0  0  0  0  0  0  0  0  0  0  0  0
    7.9226  -14.9845   20.4447 C   0  0  2  0  0  0  0  0  0  0  0  0
    7.4348  -16.0526   19.6345 N   0  0  0  0  0  0  0  0  0  0  0  0
    7.4166  -15.1640   21.8477 C   0  0  0  0  0  0  0  0  0  0  0  0
    6.1847  -15.1071   22.1027 O   0  0  0  0  0  0  0  0  0  0  0  0
    7.8928  -17.9957   24.2478 O   0  0  0  0  0  0  0  0  0  0  0  0
    7.1815  -16.8229   24.5152 C   0  0  0  0  0  0  0  0  0  0  0  0
    7.9739  -15.5756   24.2931 C   0  0  2  0  0  0  0  0  0  0  0  0
    8.3209  -15.3979   22.8899 N   0  0  0  0  0  0  0  0  0  0  0  0
    9.1620  -15.4675   25.1649 C   0  0  0  0  0  0  0  0  0  0  0  0
   10.2701  -15.8477   24.6639 O   0  0  0  0  0  0  0  0  0  0  0  0
    9.1512  -14.9861   26.4671 N   0  0  0  0  0  0  0  0  0  0  0  0
    8.0676  -14.5421   27.3395 C   0  0  0  0  0  0  0  0  0  0  0  0
    8.7003  -13.5189   28.2624 C   0  0  0  0  0  0  0  0  0  0  0  0
   10.1179  -13.4179   27.7837 C   0  0  0  0  0  0  0  0  0  0  0  0
   10.3857  -14.8127   27.2717 C   0  0  1  0  0  0  0  0  0  0  0  0
   10.3708  -15.8508   28.3110 C   0  0  0  0  0  0  0  0  0  0  0  0
    9.3882  -16.8210   28.4113 O   0  0  0  0  0  0  0  0  0  0  0  0
   11.2953  -15.8724   29.1637 O   0  0  0  0  0  0  0  0  0  0  0  0
  2  4  1  0
  2  1  1  6
  3  2  1  0
  4  5  1  6
  6  4  1  0
  7  6  2  0
 10  9  1  6
  9  8  1  0
 10 12  1  0
 10 11  1  0
 11  6  1  0
 12 14  1  0
 13 12  2  0
 14 15  1  0
 14 18  1  0
 15 16  1  0
 16 17  1  0
 18 19  1  1
 18 17  1  0
 19 20  1  0
 21 19  2  0
M  END
$$$$
