VSP.pdb
     RDKit          3D

 21 21  0  0  1  0  0  0  0  0999 V2000
    7.9862  -12.2885   19.6757 C   0  0  0  0  0  0  0  0  0  0  0  0
    9.0890  -13.2927   19.7554 C   0  0  2  0  0  0  0  0  0  0  0  0
   10.0415  -13.0805   18.6201 C   0  0  0  0  0  0  0  0  0  0  0  0
    8.6166  -14.7102   19.7505 C   0  0  2  0  0  0  0  0  0  0  0  0
    7.9436  -15.0983   18.5540 N   0  0  0  0  0  0  0  0  0  0  0  0
    7.7315  -15.0062   20.9277 C   0  0  0  0  0  0  0  0  0  0  0  0
    6.5744  -15.4755   20.7644 O   0  0  0  0  0  0  0  0  0  0  0  0
    6.6690  -17.1082   24.6365 O   0  0  0  0  0  0  0  0  0  0  0  0
    7.1760  -16.6296   23.4253 C   0  0  0  0  0  0  0  0  0  0  0  0
    7.5364  -15.1797   23.4559 C   0  0  2  0  0  0  0  0  0  0  0  0
    8.1929  -14.7594   22.2257 N   0  0  0  0  0  0  0  0  0  0  0  0
    8.3162  -14.7899   24.6489 C   0  0  0  0  0  0  0  0  0  0  0  0
    9.5651  -15.0402   24.6173 O   0  0  0  0  0  0  0  0  0  0  0  0
    7.7888  -14.1788   25.7784 N   0  0  0  0  0  0  0  0  0  0  0  0
    6.4158  -13.9150   26.2000 C   0  0  0  0  0  0  0  0  0  0  0  0
    6.5011  -12.6689   27.0596 C   0  0  0  0  0  0  0  0  0  0  0  0
    7.9486  -12.2809   27.0031 C   0  0  0  0  0  0  0  0  0  0  0  0
    8.6356  -13.6176   26.8599 C   0  0  1  0  0  0  0  0  0  0  0  0
    8.4870  -14.5008   28.0243 C   0  0  0  0  0  0  0  0  0  0  0  0
    9.2509  -14.3890   29.1736 O   0  0  0  0  0  0  0  0  0  0  0  0
    7.6220  -15.4134   27.9904 O   0  0  0  0  0  0  0  0  0  0  0  0
  2  4  1  0
  2  1  1  6
  3  2  1  0
  4  5  1  6
  6  4  1  0
  7  6  2  0
 10  9  1  6
  9  8  1  0
 10 12  1  0
 10 11  1  0
 11  6  1  0
 12 14  1  0
 13 12  2  0
 14 15  1  0
 14 18  1  0
 15 16  1  0
 16 17  1  0
 18 19  1  1
 18 17  1  0
 19 20  1  0
 21 19  2  0
M  END
$$$$
