VSP.pdb
     RDKit          3D

 21 21  0  0  1  0  0  0  0  0999 V2000
    6.6030  -13.2652   20.6187 C   0  0  0  0  0  0  0  0  0  0  0  0
    8.0615  -13.3157   20.3008 C   0  0  2  0  0  0  0  0  0  0  0  0
    8.2466  -13.4405   18.8205 C   0  0  0  0  0  0  0  0  0  0  0  0
    8.7916  -14.4231   20.9888 C   0  0  2  0  0  0  0  0  0  0  0  0
    8.3795  -15.7301   20.5925 N   0  0  0  0  0  0  0  0  0  0  0  0
    8.6925  -14.3110   22.4836 C   0  0  0  0  0  0  0  0  0  0  0  0
    9.0128  -13.2460   23.0744 O   0  0  0  0  0  0  0  0  0  0  0  0
    7.1149  -17.6524   24.8292 O   0  0  0  0  0  0  0  0  0  0  0  0
    6.8455  -16.2962   25.0317 C   0  0  0  0  0  0  0  0  0  0  0  0
    7.9825  -15.3970   24.6690 C   0  0  2  0  0  0  0  0  0  0  0  0
    8.2392  -15.4008   23.2355 N   0  0  0  0  0  0  0  0  0  0  0  0
    9.2137  -15.6603   25.4425 C   0  0  0  0  0  0  0  0  0  0  0  0
   10.1784  -16.1987   24.8079 O   0  0  0  0  0  0  0  0  0  0  0  0
    9.3860  -15.3632   26.7877 N   0  0  0  0  0  0  0  0  0  0  0  0
    8.4530  -14.9278   27.8233 C   0  0  0  0  0  0  0  0  0  0  0  0
    9.2911  -14.1151   28.7908 C   0  0  0  0  0  0  0  0  0  0  0  0
   10.6582  -14.1040   28.1746 C   0  0  0  0  0  0  0  0  0  0  0  0
   10.7036  -15.4364   27.4661 C   0  0  1  0  0  0  0  0  0  0  0  0
   10.6613  -16.5990   28.3630 C   0  0  0  0  0  0  0  0  0  0  0  0
   11.7472  -17.0368   29.1020 O   0  0  0  0  0  0  0  0  0  0  0  0
    9.5862  -17.2420   28.4767 O   0  0  0  0  0  0  0  0  0  0  0  0
  2  4  1  0
  2  1  1  6
  3  2  1  0
  4  5  1  6
  6  4  1  0
  7  6  2  0
 10  9  1  6
  9  8  1  0
 10 12  1  0
 10 11  1  0
 11  6  1  0
 12 14  1  0
 13 12  2  0
 14 15  1  0
 14 18  1  0
 15 16  1  0
 16 17  1  0
 18 19  1  1
 18 17  1  0
 19 20  1  0
 21 19  2  0
M  END
$$$$
