VSP.pdb
     RDKit          3D

 21 21  0  0  1  0  0  0  0  0999 V2000
    8.5704  -13.2589   18.0030 C   0  0  0  0  0  0  0  0  0  0  0  0
    7.8384  -13.4897   19.2842 C   0  0  2  0  0  0  0  0  0  0  0  0
    8.1671  -12.3958   20.2520 C   0  0  0  0  0  0  0  0  0  0  0  0
    8.1255  -14.8140   19.9137 C   0  0  2  0  0  0  0  0  0  0  0  0
    7.8620  -15.9328   19.0687 N   0  0  0  0  0  0  0  0  0  0  0  0
    7.3791  -14.9900   21.2055 C   0  0  0  0  0  0  0  0  0  0  0  0
    6.1218  -15.0598   21.2210 O   0  0  0  0  0  0  0  0  0  0  0  0
    6.7006  -17.1030   25.1722 O   0  0  0  0  0  0  0  0  0  0  0  0
    7.0997  -16.7688   23.8753 C   0  0  0  0  0  0  0  0  0  0  0  0
    7.5011  -15.3378   23.7202 C   0  0  2  0  0  0  0  0  0  0  0  0
    8.0842  -15.0783   22.4112 N   0  0  0  0  0  0  0  0  0  0  0  0
    8.3704  -14.8468   24.8096 C   0  0  0  0  0  0  0  0  0  0  0  0
    9.6244  -15.0071   24.6511 O   0  0  0  0  0  0  0  0  0  0  0  0
    7.9199  -14.2322   25.9702 N   0  0  0  0  0  0  0  0  0  0  0  0
    6.5801  -13.9047   26.4499 C   0  0  0  0  0  0  0  0  0  0  0  0
    6.7651  -12.6831   27.3287 C   0  0  0  0  0  0  0  0  0  0  0  0
    8.2282  -12.3715   27.2232 C   0  0  0  0  0  0  0  0  0  0  0  0
    8.8362  -13.7395   27.0282 C   0  0  1  0  0  0  0  0  0  0  0  0
    8.6845  -14.6377   28.1807 C   0  0  0  0  0  0  0  0  0  0  0  0
    9.4653  -14.5594   29.3213 O   0  0  0  0  0  0  0  0  0  0  0  0
    7.8006  -15.5319   28.1440 O   0  0  0  0  0  0  0  0  0  0  0  0
  2  4  1  0
  2  1  1  6
  3  2  1  0
  4  5  1  6
  6  4  1  0
  7  6  2  0
 10  9  1  1
  9  8  1  0
 10 12  1  0
 10 11  1  0
 11  6  1  0
 12 14  1  0
 13 12  2  0
 14 15  1  0
 14 18  1  0
 15 16  1  0
 16 17  1  0
 18 19  1  1
 18 17  1  0
 19 20  1  0
 21 19  2  0
M  END
$$$$
