VSP.pdb
     RDKit          3D

 21 21  0  0  1  0  0  0  0  0999 V2000
   12.1202  -16.2312   21.2839 C   0  0  0  0  0  0  0  0  0  0  0  0
   11.4837  -17.5761   21.4132 C   0  0  2  0  0  0  0  0  0  0  0  0
   12.1091  -18.5214   20.4352 C   0  0  0  0  0  0  0  0  0  0  0  0
   10.0025  -17.5646   21.2169 C   0  0  2  0  0  0  0  0  0  0  0  0
    9.5892  -17.1834   19.9058 N   0  0  0  0  0  0  0  0  0  0  0  0
    9.3145  -16.6852   22.2219 C   0  0  0  0  0  0  0  0  0  0  0  0
    8.9186  -15.5318   21.9075 O   0  0  0  0  0  0  0  0  0  0  0  0
    7.4833  -18.2641   25.7990 O   0  0  0  0  0  0  0  0  0  0  0  0
    7.2306  -17.0868   25.0897 C   0  0  0  0  0  0  0  0  0  0  0  0
    8.4661  -16.4029   24.6010 C   0  0  2  0  0  0  0  0  0  0  0  0
    9.1076  -17.1476   23.5264 N   0  0  0  0  0  0  0  0  0  0  0  0
    9.4219  -16.0696   25.6775 C   0  0  0  0  0  0  0  0  0  0  0  0
   10.5739  -16.6083   25.6005 O   0  0  0  0  0  0  0  0  0  0  0  0
    9.1535  -15.2231   26.7447 N   0  0  0  0  0  0  0  0  0  0  0  0
    7.9234  -14.5845   27.2047 C   0  0  0  0  0  0  0  0  0  0  0  0
    8.3748  -13.3076   27.8864 C   0  0  0  0  0  0  0  0  0  0  0  0
    9.8624  -13.2953   27.6978 C   0  0  0  0  0  0  0  0  0  0  0  0
   10.1993  -14.7669   27.6933 C   0  0  1  0  0  0  0  0  0  0  0  0
    9.9478  -15.4479   28.9704 C   0  0  0  0  0  0  0  0  0  0  0  0
    8.9252  -16.3610   29.1637 O   0  0  0  0  0  0  0  0  0  0  0  0
   10.6946  -15.1982   29.9514 O   0  0  0  0  0  0  0  0  0  0  0  0
  2  4  1  0
  2  1  1  6
  3  2  1  0
  4  5  1  6
  6  4  1  0
  7  6  2  0
 10  9  1  1
  9  8  1  0
 10 12  1  0
 10 11  1  0
 11  6  1  0
 12 14  1  0
 13 12  2  0
 14 15  1  0
 14 18  1  0
 15 16  1  0
 16 17  1  0
 18 19  1  1
 18 17  1  0
 19 20  1  0
 21 19  2  0
M  END
$$$$
