VSP.pdb
     RDKit          3D

 21 21  0  0  1  0  0  0  0  0999 V2000
   12.9942  -17.9590   22.5177 C   0  0  0  0  0  0  0  0  0  0  0  0
   11.6535  -18.4805   22.1159 C   0  0  2  0  0  0  0  0  0  0  0  0
   11.8240  -19.5761   21.1100 C   0  0  0  0  0  0  0  0  0  0  0  0
   10.7398  -17.4353   21.5633 C   0  0  2  0  0  0  0  0  0  0  0  0
   11.2667  -16.7330   20.4388 N   0  0  0  0  0  0  0  0  0  0  0  0
   10.3311  -16.4416   22.6131 C   0  0  0  0  0  0  0  0  0  0  0  0
   11.0196  -15.4095   22.8290 O   0  0  0  0  0  0  0  0  0  0  0  0
    7.0118  -17.3810   25.3256 O   0  0  0  0  0  0  0  0  0  0  0  0
    7.3206  -16.1002   24.8595 C   0  0  0  0  0  0  0  0  0  0  0  0
    8.7689  -15.9080   24.5457 C   0  0  2  0  0  0  0  0  0  0  0  0
    9.1709  -16.6596   23.3648 N   0  0  0  0  0  0  0  0  0  0  0  0
    9.6623  -16.1769   25.6915 C   0  0  0  0  0  0  0  0  0  0  0  0
   10.4994  -17.1267   25.5478 O   0  0  0  0  0  0  0  0  0  0  0  0
    9.6518  -15.4751   26.8893 N   0  0  0  0  0  0  0  0  0  0  0  0
    8.7789  -14.4224   27.4016 C   0  0  0  0  0  0  0  0  0  0  0  0
    9.6490  -13.6147   28.3447 C   0  0  0  0  0  0  0  0  0  0  0  0
   11.0002  -14.2567   28.2401 C   0  0  0  0  0  0  0  0  0  0  0  0
   10.6515  -15.6991   27.9626 C   0  0  1  0  0  0  0  0  0  0  0  0
    9.9545  -16.3748   29.0652 C   0  0  0  0  0  0  0  0  0  0  0  0
    8.6074  -16.6933   29.0396 O   0  0  0  0  0  0  0  0  0  0  0  0
   10.6042  -16.6879   30.0958 O   0  0  0  0  0  0  0  0  0  0  0  0
  2  4  1  0
  2  1  1  6
  3  2  1  0
  4  5  1  6
  6  4  1  0
  7  6  2  0
 10  9  1  1
  9  8  1  0
 10 12  1  0
 10 11  1  0
 11  6  1  0
 12 14  1  0
 13 12  2  0
 14 15  1  0
 14 18  1  0
 15 16  1  0
 16 17  1  0
 18 19  1  1
 18 17  1  0
 19 20  1  0
 21 19  2  0
M  END
$$$$
