VSP.pdb
     RDKit          3D

 21 21  0  0  1  0  0  0  0  0999 V2000
    8.0481  -13.9757   18.3571 C   0  0  0  0  0  0  0  0  0  0  0  0
    7.7916  -13.8448   19.8227 C   0  0  2  0  0  0  0  0  0  0  0  0
    7.9241  -12.4096   20.2273 C   0  0  0  0  0  0  0  0  0  0  0  0
    8.6897  -14.6858   20.6704 C   0  0  2  0  0  0  0  0  0  0  0  0
    8.6730  -16.0740   20.3418 N   0  0  0  0  0  0  0  0  0  0  0  0
    8.3856  -14.5255   22.1328 C   0  0  0  0  0  0  0  0  0  0  0  0
    8.3716  -13.3861   22.6689 O   0  0  0  0  0  0  0  0  0  0  0  0
    7.4288  -18.0338   24.4987 O   0  0  0  0  0  0  0  0  0  0  0  0
    6.8793  -16.7659   24.7071 C   0  0  0  0  0  0  0  0  0  0  0  0
    7.7961  -15.6455   24.3369 C   0  0  2  0  0  0  0  0  0  0  0  0
    8.1134  -15.6533   22.9156 N   0  0  0  0  0  0  0  0  0  0  0  0
    9.0173  -15.5830   25.1663 C   0  0  0  0  0  0  0  0  0  0  0  0
   10.0837  -16.0428   24.6420 O   0  0  0  0  0  0  0  0  0  0  0  0
    9.0789  -15.0642   26.4526 N   0  0  0  0  0  0  0  0  0  0  0  0
    8.0591  -14.4992   27.3321 C   0  0  0  0  0  0  0  0  0  0  0  0
    8.8011  -13.5099   28.2094 C   0  0  0  0  0  0  0  0  0  0  0  0
   10.2109  -13.5506   27.6997 C   0  0  0  0  0  0  0  0  0  0  0  0
   10.3418  -14.9784   27.2267 C   0  0  1  0  0  0  0  0  0  0  0  0
   10.2581  -15.9796   28.2983 C   0  0  0  0  0  0  0  0  0  0  0  0
    9.2084  -16.8722   28.4330 O   0  0  0  0  0  0  0  0  0  0  0  0
   11.1839  -16.0418   29.1477 O   0  0  0  0  0  0  0  0  0  0  0  0
  2  4  1  0
  2  1  1  6
  3  2  1  0
  4  5  1  6
  6  4  1  0
  7  6  2  0
 10  9  1  1
  9  8  1  0
 10 12  1  0
 10 11  1  0
 11  6  1  0
 12 14  1  0
 13 12  2  0
 14 15  1  0
 14 18  1  0
 15 16  1  0
 16 17  1  0
 18 19  1  1
 18 17  1  0
 19 20  1  0
 21 19  2  0
M  END
$$$$
