VSP.pdb
     RDKit          3D

 21 21  0  0  1  0  0  0  0  0999 V2000
    7.6578  -12.5051   19.5044 C   0  0  0  0  0  0  0  0  0  0  0  0
    8.7816  -13.4754   19.6669 C   0  0  2  0  0  0  0  0  0  0  0  0
    9.6873  -13.3953   18.4776 C   0  0  0  0  0  0  0  0  0  0  0  0
    8.3362  -14.8886   19.8591 C   0  0  2  0  0  0  0  0  0  0  0  0
    7.6333  -15.4370   18.7454 N   0  0  0  0  0  0  0  0  0  0  0  0
    7.4944  -15.0441   21.0936 C   0  0  0  0  0  0  0  0  0  0  0  0
    6.2605  -15.2812   21.0088 O   0  0  0  0  0  0  0  0  0  0  0  0
    7.6487  -17.4625   23.8702 O   0  0  0  0  0  0  0  0  0  0  0  0
    6.7424  -16.4038   23.7673 C   0  0  0  0  0  0  0  0  0  0  0  0
    7.3941  -15.0658   23.6332 C   0  0  2  0  0  0  0  0  0  0  0  0
    8.0829  -14.9250   22.3578 N   0  0  0  0  0  0  0  0  0  0  0  0
    8.2756  -14.7217   24.7681 C   0  0  0  0  0  0  0  0  0  0  0  0
    9.5245  -14.9025   24.5918 O   0  0  0  0  0  0  0  0  0  0  0  0
    7.8416  -14.2220   25.9885 N   0  0  0  0  0  0  0  0  0  0  0  0
    6.5090  -14.0545   26.5617 C   0  0  0  0  0  0  0  0  0  0  0  0
    6.6324  -12.8736   27.5046 C   0  0  0  0  0  0  0  0  0  0  0  0
    8.0506  -12.4157   27.3379 C   0  0  0  0  0  0  0  0  0  0  0  0
    8.7709  -13.7046   27.0231 C   0  0  1  0  0  0  0  0  0  0  0  0
    8.7750  -14.6784   28.1229 C   0  0  0  0  0  0  0  0  0  0  0  0
    9.6411  -14.6132   29.2011 O   0  0  0  0  0  0  0  0  0  0  0  0
    7.9518  -15.6291   28.0980 O   0  0  0  0  0  0  0  0  0  0  0  0
  2  4  1  0
  2  1  1  6
  3  2  1  0
  4  5  1  6
  6  4  1  0
  7  6  2  0
 10  9  1  1
  9  8  1  0
 10 12  1  0
 10 11  1  0
 11  6  1  0
 12 14  1  0
 13 12  2  0
 14 15  1  0
 14 18  1  0
 15 16  1  0
 16 17  1  0
 18 19  1  1
 18 17  1  0
 19 20  1  0
 21 19  2  0
M  END
$$$$
