VSP.pdb
     RDKit          3D

 21 21  0  0  1  0  0  0  0  0999 V2000
    8.4914  -13.4920   18.2578 C   0  0  0  0  0  0  0  0  0  0  0  0
    7.8309  -13.6636   19.5863 C   0  0  2  0  0  0  0  0  0  0  0  0
    8.4240  -12.7011   20.5677 C   0  0  0  0  0  0  0  0  0  0  0  0
    7.9237  -15.0514   20.1321 C   0  0  2  0  0  0  0  0  0  0  0  0
    7.3963  -16.0564   19.2677 N   0  0  0  0  0  0  0  0  0  0  0  0
    7.2630  -15.1664   21.4764 C   0  0  0  0  0  0  0  0  0  0  0  0
    6.0140  -15.2937   21.5738 O   0  0  0  0  0  0  0  0  0  0  0  0
    7.8895  -17.7528   24.1502 O   0  0  0  0  0  0  0  0  0  0  0  0
    6.9506  -16.7178   24.1464 C   0  0  0  0  0  0  0  0  0  0  0  0
    7.5544  -15.3594   23.9938 C   0  0  2  0  0  0  0  0  0  0  0  0
    8.0401  -15.1322   22.6398 N   0  0  0  0  0  0  0  0  0  0  0  0
    8.5921  -15.0578   25.0015 C   0  0  0  0  0  0  0  0  0  0  0  0
    9.7997  -15.2660   24.6525 O   0  0  0  0  0  0  0  0  0  0  0  0
    8.3433  -14.5696   26.2772 N   0  0  0  0  0  0  0  0  0  0  0  0
    7.1083  -14.3942   27.0365 C   0  0  0  0  0  0  0  0  0  0  0  0
    7.3808  -13.2278   27.9661 C   0  0  0  0  0  0  0  0  0  0  0  0
    8.7670  -12.7846   27.6044 C   0  0  0  0  0  0  0  0  0  0  0  0
    9.4174  -14.0776   27.1748 C   0  0  1  0  0  0  0  0  0  0  0  0
    9.5647  -15.0662   28.2512 C   0  0  0  0  0  0  0  0  0  0  0  0
   10.5487  -15.0004   29.2230 O   0  0  0  0  0  0  0  0  0  0  0  0
    8.7598  -16.0313   28.3064 O   0  0  0  0  0  0  0  0  0  0  0  0
  2  4  1  0
  2  1  1  6
  3  2  1  0
  4  5  1  6
  6  4  1  0
  7  6  2  0
 10  9  1  6
  9  8  1  0
 10 12  1  0
 10 11  1  0
 11  6  1  0
 12 14  1  0
 13 12  2  0
 14 15  1  0
 14 18  1  0
 15 16  1  0
 16 17  1  0
 18 19  1  1
 18 17  1  0
 19 20  1  0
 21 19  2  0
M  END
$$$$
