VSP.pdb
     RDKit          3D

 21 21  0  0  1  0  0  0  0  0999 V2000
    7.4760  -12.3640   20.5547 C   0  0  0  0  0  0  0  0  0  0  0  0
    8.5209  -13.3946   20.2780 C   0  0  2  0  0  0  0  0  0  0  0  0
    9.0083  -13.2472   18.8702 C   0  0  0  0  0  0  0  0  0  0  0  0
    8.0589  -14.7980   20.5004 C   0  0  2  0  0  0  0  0  0  0  0  0
    7.0850  -15.2490   19.5604 N   0  0  0  0  0  0  0  0  0  0  0  0
    7.5248  -14.9947   21.8907 C   0  0  0  0  0  0  0  0  0  0  0  0
    6.2849  -15.0357   22.1069 O   0  0  0  0  0  0  0  0  0  0  0  0
    7.0272  -17.3841   25.5504 O   0  0  0  0  0  0  0  0  0  0  0  0
    7.3123  -16.8756   24.2803 C   0  0  0  0  0  0  0  0  0  0  0  0
    8.0598  -15.5820   24.3049 C   0  0  2  0  0  0  0  0  0  0  0  0
    8.4115  -15.1348   22.9643 N   0  0  0  0  0  0  0  0  0  0  0  0
    9.2359  -15.5962   25.1993 C   0  0  0  0  0  0  0  0  0  0  0  0
   10.3274  -16.0177   24.6950 O   0  0  0  0  0  0  0  0  0  0  0  0
    9.2307  -15.1864   26.5258 N   0  0  0  0  0  0  0  0  0  0  0  0
    8.1520  -14.7812   27.4229 C   0  0  0  0  0  0  0  0  0  0  0  0
    8.7946  -13.8152   28.3990 C   0  0  0  0  0  0  0  0  0  0  0  0
   10.2125  -13.7006   27.9243 C   0  0  0  0  0  0  0  0  0  0  0  0
   10.4676  -15.0677   27.3367 C   0  0  1  0  0  0  0  0  0  0  0  0
   10.4448  -16.1606   28.3181 C   0  0  0  0  0  0  0  0  0  0  0  0
   11.4724  -16.4096   29.2119 O   0  0  0  0  0  0  0  0  0  0  0  0
    9.4431  -16.9202   28.3608 O   0  0  0  0  0  0  0  0  0  0  0  0
  2  4  1  0
  2  1  1  6
  3  2  1  0
  4  5  1  6
  6  4  1  0
  7  6  2  0
 10  9  1  6
  9  8  1  0
 10 12  1  0
 10 11  1  0
 11  6  1  0
 12 14  1  0
 13 12  2  0
 14 15  1  0
 14 18  1  0
 15 16  1  0
 16 17  1  0
 18 19  1  1
 18 17  1  0
 19 20  1  0
 21 19  2  0
M  END
$$$$
