SKM.pdb
     RDKit          3D

 24 23  0  0  1  0  0  0  0  0999 V2000
   10.5679  -13.3989   19.8616 O   0  0  0  0  0  0  0  0  0  0  0  0
    9.8929  -14.0500   18.8363 C   0  0  0  0  0  0  0  0  0  0  0  0
    8.4079  -13.8714   19.0650 C   0  0  2  0  0  0  0  0  0  0  0  0
    8.0044  -12.5008   19.0405 N   0  0  0  0  0  0  0  0  0  0  0  0
    8.0614  -14.4820   20.3484 C   0  0  0  0  0  0  0  0  0  0  0  0
    7.6317  -13.7691   21.2894 O   0  0  0  0  0  0  0  0  0  0  0  0
    8.1917  -15.9008   20.5957 N   0  0  0  0  0  0  0  0  0  0  0  0
    7.6845  -16.5113   21.7928 C   0  0  1  0  0  0  0  0  0  0  0  0
    7.6853  -17.9909   21.8430 C   0  0  0  0  0  0  0  0  0  0  0  0
    7.1595  -18.6355   23.0856 C   0  0  0  0  0  0  0  0  0  0  0  0
    7.3035  -20.1156   23.1719 C   0  0  0  0  0  0  0  0  0  0  0  0
    6.6778  -20.5493   24.4995 C   0  0  0  0  0  0  0  0  0  0  0  0
    6.8357  -21.9694   24.6729 N   0  0  0  0  0  0  0  0  0  0  0  0
    8.4511  -16.0001   22.9960 C   0  0  0  0  0  0  0  0  0  0  0  0
    9.6946  -16.0469   23.0473 O   0  0  0  0  0  0  0  0  0  0  0  0
    6.8874  -10.8725   27.2801 C   0  0  0  0  0  0  0  0  0  0  0  0
    5.9593  -11.6958   25.9662 S   0  0  0  0  0  0  0  0  0  0  0  0
    7.1377  -12.7443   25.0312 C   0  0  0  0  0  0  0  0  0  0  0  0
    7.4818  -13.9159   25.8887 C   0  0  0  0  0  0  0  0  0  0  0  0
    8.4393  -14.8770   25.2697 C   0  0  2  0  0  0  0  0  0  0  0  0
    7.7534  -15.4510   24.1010 N   0  0  0  0  0  0  0  0  0  0  0  0
    8.9549  -15.9207   26.1511 C   0  0  0  0  0  0  0  0  0  0  0  0
    9.9525  -15.6616   27.0717 O   0  0  0  0  0  0  0  0  0  0  0  0
    8.5163  -17.1081   26.1137 O   0  0  0  0  0  0  0  0  0  0  0  0
  2  1  1  0
  3  2  1  0
  3  4  1  1
  5  6  2  0
  5  3  1  0
  7  5  1  0
  8  7  1  0
  8  9  1  6
 10 11  1  0
 10  9  1  0
 11 12  1  0
 12 13  1  0
 14  8  1  0
 14 21  1  0
 15 14  2  0
 17 16  1  0
 18 17  1  0
 20 19  1  1
 19 18  1  0
 20 21  1  0
 20 22  1  0
 22 23  1  0
 24 22  2  0
M  END
$$$$
