SKM.pdb
     RDKit          3D

 24 23  0  0  1  0  0  0  0  0999 V2000
   10.6507  -13.3685   18.5153 O   0  0  0  0  0  0  0  0  0  0  0  0
    9.6733  -13.3544   19.5028 C   0  0  0  0  0  0  0  0  0  0  0  0
    8.4665  -14.1015   18.9788 C   0  0  2  0  0  0  0  0  0  0  0  0
    7.5464  -13.2535   18.2887 N   0  0  0  0  0  0  0  0  0  0  0  0
    7.8058  -14.7603   20.1056 C   0  0  0  0  0  0  0  0  0  0  0  0
    7.0487  -14.1037   20.8633 O   0  0  0  0  0  0  0  0  0  0  0  0
    7.9844  -16.1648   20.3995 N   0  0  0  0  0  0  0  0  0  0  0  0
    7.4223  -16.7709   21.5743 C   0  0  1  0  0  0  0  0  0  0  0  0
    7.3976  -18.2504   21.6189 C   0  0  0  0  0  0  0  0  0  0  0  0
    6.8556  -18.8905   22.8570 C   0  0  0  0  0  0  0  0  0  0  0  0
    6.9612  -20.3744   22.9320 C   0  0  0  0  0  0  0  0  0  0  0  0
    6.2471  -20.8094   24.2138 C   0  0  0  0  0  0  0  0  0  0  0  0
    6.3701  -22.2336   24.3821 N   0  0  0  0  0  0  0  0  0  0  0  0
    8.1509  -16.2759   22.8076 C   0  0  0  0  0  0  0  0  0  0  0  0
    9.3900  -16.3491   22.9085 O   0  0  0  0  0  0  0  0  0  0  0  0
    6.6719  -10.6701   28.0731 C   0  0  0  0  0  0  0  0  0  0  0  0
    6.1452  -11.7484   26.7221 S   0  0  0  0  0  0  0  0  0  0  0  0
    7.4840  -12.9679   26.4347 C   0  0  0  0  0  0  0  0  0  0  0  0
    7.0609  -13.8493   25.3075 C   0  0  0  0  0  0  0  0  0  0  0  0
    8.0537  -14.8972   24.9338 C   0  0  2  0  0  0  0  0  0  0  0  0
    7.4213  -15.7120   23.8842 N   0  0  0  0  0  0  0  0  0  0  0  0
    8.5475  -15.7276   26.0286 C   0  0  0  0  0  0  0  0  0  0  0  0
    8.1663  -17.0492   26.1622 O   0  0  0  0  0  0  0  0  0  0  0  0
    9.3438  -15.2788   26.9050 O   0  0  0  0  0  0  0  0  0  0  0  0
  2  1  1  0
  3  2  1  0
  3  4  1  1
  5  6  2  0
  5  3  1  0
  7  5  1  0
  8  7  1  0
  8  9  1  6
 10 11  1  0
 10  9  1  0
 11 12  1  0
 12 13  1  0
 14  8  1  0
 14 21  1  0
 15 14  2  0
 17 16  1  0
 18 17  1  0
 20 19  1  1
 19 18  1  0
 20 21  1  0
 20 22  1  0
 22 23  1  0
 24 22  2  0
M  END
$$$$
