SKM.pdb
     RDKit          3D

 24 23  0  0  1  0  0  0  0  0999 V2000
    9.1802  -12.6046   18.3661 O   0  0  0  0  0  0  0  0  0  0  0  0
    8.5143  -12.8982   19.5498 C   0  0  0  0  0  0  0  0  0  0  0  0
    7.7567  -14.1930   19.3530 C   0  0  2  0  0  0  0  0  0  0  0  0
    6.4256  -13.9891   18.8750 N   0  0  0  0  0  0  0  0  0  0  0  0
    7.7364  -14.9144   20.6255 C   0  0  0  0  0  0  0  0  0  0  0  0
    6.8942  -14.6124   21.5073 O   0  0  0  0  0  0  0  0  0  0  0  0
    8.6603  -15.9850   20.9280 N   0  0  0  0  0  0  0  0  0  0  0  0
    8.5694  -16.7437   22.1443 C   0  0  1  0  0  0  0  0  0  0  0  0
    9.2387  -18.0641   22.1624 C   0  0  0  0  0  0  0  0  0  0  0  0
    8.6547  -19.1411   21.3049 C   0  0  0  0  0  0  0  0  0  0  0  0
    9.3998  -20.4303   21.2675 C   0  0  0  0  0  0  0  0  0  0  0  0
    8.5781  -21.3972   20.4120 C   0  0  0  0  0  0  0  0  0  0  0  0
    9.2129  -22.6888   20.3883 N   0  0  0  0  0  0  0  0  0  0  0  0
    9.1092  -15.9276   23.3016 C   0  0  0  0  0  0  0  0  0  0  0  0
   10.2419  -15.4113   23.2655 O   0  0  0  0  0  0  0  0  0  0  0  0
    6.8129  -11.0705   25.5262 C   0  0  0  0  0  0  0  0  0  0  0  0
    6.9781  -11.7241   27.2028 S   0  0  0  0  0  0  0  0  0  0  0  0
    8.1716  -13.1147   27.1383 C   0  0  0  0  0  0  0  0  0  0  0  0
    7.8614  -13.9231   25.9232 C   0  0  0  0  0  0  0  0  0  0  0  0
    8.8189  -15.0349   25.6574 C   0  0  2  0  0  0  0  0  0  0  0  0
    8.3199  -15.7353   24.4633 N   0  0  0  0  0  0  0  0  0  0  0  0
    9.0441  -15.9610   26.7637 C   0  0  0  0  0  0  0  0  0  0  0  0
    9.7585  -15.5865   27.8858 O   0  0  0  0  0  0  0  0  0  0  0  0
    8.5993  -17.1465   26.7477 O   0  0  0  0  0  0  0  0  0  0  0  0
  2  1  1  0
  3  2  1  0
  3  4  1  1
  5  6  2  0
  5  3  1  0
  7  5  1  0
  8  7  1  0
  8  9  1  6
 10 11  1  0
 10  9  1  0
 11 12  1  0
 12 13  1  0
 14  8  1  0
 14 21  1  0
 15 14  2  0
 17 16  1  0
 18 17  1  0
 20 19  1  1
 19 18  1  0
 20 21  1  0
 20 22  1  0
 22 23  1  0
 24 22  2  0
M  END
$$$$
