SKM.pdb
     RDKit          3D

 24 23  0  0  1  0  0  0  0  0999 V2000
   10.3786  -19.5161   20.9554 O   0  0  0  0  0  0  0  0  0  0  0  0
    9.2395  -18.9966   20.3527 C   0  0  0  0  0  0  0  0  0  0  0  0
    9.5350  -17.5705   19.9424 C   0  0  2  0  0  0  0  0  0  0  0  0
   10.6601  -17.4674   19.0677 N   0  0  0  0  0  0  0  0  0  0  0  0
    9.7554  -16.7779   21.1521 C   0  0  0  0  0  0  0  0  0  0  0  0
   10.8968  -16.3178   21.4043 O   0  0  0  0  0  0  0  0  0  0  0  0
    8.6992  -16.4897   22.0968 N   0  0  0  0  0  0  0  0  0  0  0  0
    8.9024  -15.6140   23.2171 C   0  0  1  0  0  0  0  0  0  0  0  0
    7.6941  -15.0132   23.8262 C   0  0  0  0  0  0  0  0  0  0  0  0
    7.8986  -14.0675   24.9664 C   0  0  0  0  0  0  0  0  0  0  0  0
    6.6719  -13.4322   25.5237 C   0  0  0  0  0  0  0  0  0  0  0  0
    7.1302  -12.4306   26.5862 C   0  0  0  0  0  0  0  0  0  0  0  0
    5.9938  -11.7177   27.1077 N   0  0  0  0  0  0  0  0  0  0  0  0
    9.6660  -16.3401   24.3063 C   0  0  0  0  0  0  0  0  0  0  0  0
    9.2613  -17.4178   24.7815 O   0  0  0  0  0  0  0  0  0  0  0  0
    9.7638  -13.1068   28.7474 C   0  0  0  0  0  0  0  0  0  0  0  0
   10.1224  -14.6280   29.6544 S   0  0  0  0  0  0  0  0  0  0  0  0
   11.1061  -15.7111   28.5492 C   0  0  0  0  0  0  0  0  0  0  0  0
   10.7194  -15.3959   27.1430 C   0  0  0  0  0  0  0  0  0  0  0  0
   11.4438  -16.1887   26.1085 C   0  0  2  0  0  0  0  0  0  0  0  0
   10.8737  -15.7952   24.8101 N   0  0  0  0  0  0  0  0  0  0  0  0
   11.4207  -17.6382   26.2836 C   0  0  0  0  0  0  0  0  0  0  0  0
   10.3036  -18.3870   25.9658 O   0  0  0  0  0  0  0  0  0  0  0  0
   12.4177  -18.2758   26.7342 O   0  0  0  0  0  0  0  0  0  0  0  0
  2  1  1  0
  3  2  1  0
  3  4  1  6
  5  6  2  0
  5  3  1  0
  7  5  1  0
  8  7  1  0
  8  9  1  1
 10 11  1  0
 10  9  1  0
 11 12  1  0
 12 13  1  0
 14  8  1  0
 14 21  1  0
 15 14  2  0
 17 16  1  0
 18 17  1  0
 20 19  1  1
 19 18  1  0
 20 21  1  0
 20 22  1  0
 22 23  1  0
 24 22  2  0
M  END
$$$$
