SKM.pdb
     RDKit          3D

 24 23  0  0  1  0  0  0  0  0999 V2000
    7.2908  -19.9927   26.5580 O   0  0  0  0  0  0  0  0  0  0  0  0
    6.7183  -18.9092   25.9031 C   0  0  0  0  0  0  0  0  0  0  0  0
    6.3332  -19.3539   24.5090 C   0  0  2  0  0  0  0  0  0  0  0  0
    6.5198  -20.7556   24.3031 N   0  0  0  0  0  0  0  0  0  0  0  0
    7.1228  -18.5875   23.5450 C   0  0  0  0  0  0  0  0  0  0  0  0
    8.0881  -19.1283   22.9499 O   0  0  0  0  0  0  0  0  0  0  0  0
    6.8418  -17.2035   23.2341 N   0  0  0  0  0  0  0  0  0  0  0  0
    7.6985  -16.4295   22.3797 C   0  0  1  0  0  0  0  0  0  0  0  0
    7.0590  -15.3597   21.5805 C   0  0  0  0  0  0  0  0  0  0  0  0
    7.8407  -14.7978   20.4363 C   0  0  0  0  0  0  0  0  0  0  0  0
    7.6178  -13.3572   20.1302 C   0  0  0  0  0  0  0  0  0  0  0  0
    8.0668  -13.1323   18.6845 C   0  0  0  0  0  0  0  0  0  0  0  0
    7.8144  -11.7680   18.3014 N   0  0  0  0  0  0  0  0  0  0  0  0
    8.8113  -15.8041   23.1965 C   0  0  0  0  0  0  0  0  0  0  0  0
    9.0418  -14.5807   23.1591 O   0  0  0  0  0  0  0  0  0  0  0  0
   10.0835  -12.8985   29.4572 C   0  0  0  0  0  0  0  0  0  0  0  0
    9.1891  -13.6611   28.0847 S   0  0  0  0  0  0  0  0  0  0  0  0
   10.3920  -14.6638   27.1307 C   0  0  0  0  0  0  0  0  0  0  0  0
    9.6906  -15.1844   25.9211 C   0  0  0  0  0  0  0  0  0  0  0  0
   10.5269  -16.0563   25.0470 C   0  0  2  0  0  0  0  0  0  0  0  0
    9.6212  -16.6151   24.0306 N   0  0  0  0  0  0  0  0  0  0  0  0
   11.2790  -17.1073   25.7267 C   0  0  0  0  0  0  0  0  0  0  0  0
   10.9929  -18.4446   25.5281 O   0  0  0  0  0  0  0  0  0  0  0  0
   12.2239  -16.8454   26.5279 O   0  0  0  0  0  0  0  0  0  0  0  0
  2  1  1  0
  3  2  1  0
  3  4  1  1
  5  6  2  0
  5  3  1  0
  7  5  1  0
  8  7  1  0
  8  9  1  1
 10 11  1  0
 10  9  1  0
 11 12  1  0
 12 13  1  0
 14  8  1  0
 14 21  1  0
 15 14  2  0
 17 16  1  0
 18 17  1  0
 20 19  1  1
 19 18  1  0
 20 21  1  0
 20 22  1  0
 22 23  1  0
 24 22  2  0
M  END
$$$$
