SKM.pdb
     RDKit          3D

 24 23  0  0  1  0  0  0  0  0999 V2000
   10.1886  -13.1987   20.0837 O   0  0  0  0  0  0  0  0  0  0  0  0
    9.7751  -14.1758   19.1865 C   0  0  0  0  0  0  0  0  0  0  0  0
    8.2702  -14.0868   19.0568 C   0  0  2  0  0  0  0  0  0  0  0  0
    7.8080  -12.7470   18.8750 N   0  0  0  0  0  0  0  0  0  0  0  0
    7.6678  -14.6760   20.2527 C   0  0  0  0  0  0  0  0  0  0  0  0
    7.1284  -13.9384   21.1148 O   0  0  0  0  0  0  0  0  0  0  0  0
    7.6614  -16.1008   20.4995 N   0  0  0  0  0  0  0  0  0  0  0  0
    7.1654  -16.6551   21.7282 C   0  0  1  0  0  0  0  0  0  0  0  0
    7.0457  -18.1290   21.7988 C   0  0  0  0  0  0  0  0  0  0  0  0
    6.6227  -18.7212   23.1051 C   0  0  0  0  0  0  0  0  0  0  0  0
    6.6070  -20.2088   23.1801 C   0  0  0  0  0  0  0  0  0  0  0  0
    6.0273  -20.5818   24.5465 C   0  0  0  0  0  0  0  0  0  0  0  0
    5.9995  -22.0136   24.6908 N   0  0  0  0  0  0  0  0  0  0  0  0
    8.0307  -16.1982   22.8855 C   0  0  0  0  0  0  0  0  0  0  0  0
    9.2701  -16.3189   22.8627 O   0  0  0  0  0  0  0  0  0  0  0  0
    6.6668  -10.6766   25.6004 C   0  0  0  0  0  0  0  0  0  0  0  0
    6.8694  -11.6601   27.1028 S   0  0  0  0  0  0  0  0  0  0  0  0
    7.9968  -13.0505   26.7049 C   0  0  0  0  0  0  0  0  0  0  0  0
    7.3884  -13.8209   25.5812 C   0  0  0  0  0  0  0  0  0  0  0  0
    8.2165  -14.9598   25.0907 C   0  0  2  0  0  0  0  0  0  0  0  0
    7.4334  -15.6160   24.0316 N   0  0  0  0  0  0  0  0  0  0  0  0
    8.6493  -15.9171   26.1048 C   0  0  0  0  0  0  0  0  0  0  0  0
    8.1234  -17.1937   26.1648 O   0  0  0  0  0  0  0  0  0  0  0  0
    9.5218  -15.6249   26.9747 O   0  0  0  0  0  0  0  0  0  0  0  0
  2  1  1  0
  3  2  1  0
  3  4  1  1
  5  6  2  0
  5  3  1  0
  7  5  1  0
  8  7  1  0
  8  9  1  6
 10 11  1  0
 10  9  1  0
 11 12  1  0
 12 13  1  0
 14  8  1  0
 14 21  1  0
 15 14  2  0
 17 16  1  0
 18 17  1  0
 20 19  1  1
 19 18  1  0
 20 21  1  0
 20 22  1  0
 22 23  1  0
 24 22  2  0
M  END
$$$$
