SKM.pdb
     RDKit          3D

 24 23  0  0  1  0  0  0  0  0999 V2000
    6.7945  -18.7671   24.5024 O   0  0  0  0  0  0  0  0  0  0  0  0
    5.7469  -18.5418   23.6180 C   0  0  0  0  0  0  0  0  0  0  0  0
    6.2913  -18.6449   22.2100 C   0  0  2  0  0  0  0  0  0  0  0  0
    6.7850  -19.9497   21.9010 N   0  0  0  0  0  0  0  0  0  0  0  0
    7.3501  -17.6481   22.0500 C   0  0  0  0  0  0  0  0  0  0  0  0
    8.5560  -17.9956   22.1066 O   0  0  0  0  0  0  0  0  0  0  0  0
    7.0722  -16.2470   21.8243 N   0  0  0  0  0  0  0  0  0  0  0  0
    8.1230  -15.2892   21.6201 C   0  0  1  0  0  0  0  0  0  0  0  0
    7.8311  -14.1573   20.7116 C   0  0  0  0  0  0  0  0  0  0  0  0
    7.7313  -14.4586   19.2503 C   0  0  0  0  0  0  0  0  0  0  0  0
    8.0412  -13.3349   18.3230 C   0  0  0  0  0  0  0  0  0  0  0  0
    7.9182  -13.8828   16.8993 C   0  0  0  0  0  0  0  0  0  0  0  0
    8.1493  -12.8275   15.9482 N   0  0  0  0  0  0  0  0  0  0  0  0
    8.5664  -14.7196   22.9527 C   0  0  0  0  0  0  0  0  0  0  0  0
    8.7579  -13.4992   23.1110 O   0  0  0  0  0  0  0  0  0  0  0  0
    7.3406  -10.7804   26.5904 C   0  0  0  0  0  0  0  0  0  0  0  0
    6.4944  -12.2870   27.1189 S   0  0  0  0  0  0  0  0  0  0  0  0
    7.7217  -13.6491   27.0897 C   0  0  0  0  0  0  0  0  0  0  0  0
    7.8119  -14.1488   25.6866 C   0  0  0  0  0  0  0  0  0  0  0  0
    8.9452  -15.0843   25.4335 C   0  0  2  0  0  0  0  0  0  0  0  0
    8.7736  -15.5812   24.0590 N   0  0  0  0  0  0  0  0  0  0  0  0
    9.0894  -16.1835   26.3838 C   0  0  0  0  0  0  0  0  0  0  0  0
    9.5907  -15.9787   27.6553 O   0  0  0  0  0  0  0  0  0  0  0  0
    8.7652  -17.3718   26.0899 O   0  0  0  0  0  0  0  0  0  0  0  0
  2  1  1  0
  3  2  1  0
  3  4  1  1
  5  6  2  0
  5  3  1  0
  7  5  1  0
  8  7  1  0
  8  9  1  6
 10 11  1  0
 10  9  1  0
 11 12  1  0
 12 13  1  0
 14  8  1  0
 14 21  1  0
 15 14  2  0
 17 16  1  0
 18 17  1  0
 20 19  1  1
 19 18  1  0
 20 21  1  0
 20 22  1  0
 22 23  1  0
 24 22  2  0
M  END
$$$$
