SKM.pdb
     RDKit          3D

 24 23  0  0  1  0  0  0  0  0999 V2000
   10.8272  -13.1732   19.6830 O   0  0  0  0  0  0  0  0  0  0  0  0
   10.3929  -14.1299   18.7736 C   0  0  0  0  0  0  0  0  0  0  0  0
    8.8872  -14.0260   18.6667 C   0  0  2  0  0  0  0  0  0  0  0  0
    8.4377  -12.6859   18.4572 N   0  0  0  0  0  0  0  0  0  0  0  0
    8.2983  -14.5761   19.8877 C   0  0  0  0  0  0  0  0  0  0  0  0
    7.6729  -13.8266   20.6784 O   0  0  0  0  0  0  0  0  0  0  0  0
    8.4022  -15.9748   20.2400 N   0  0  0  0  0  0  0  0  0  0  0  0
    7.7950  -16.5040   21.4293 C   0  0  1  0  0  0  0  0  0  0  0  0
    7.7770  -17.9772   21.5743 C   0  0  0  0  0  0  0  0  0  0  0  0
    6.5202  -18.6894   21.1876 C   0  0  0  0  0  0  0  0  0  0  0  0
    6.5605  -20.1772   21.2484 C   0  0  0  0  0  0  0  0  0  0  0  0
    5.1681  -20.6786   20.8584 C   0  0  0  0  0  0  0  0  0  0  0  0
    5.1524  -22.1179   20.8484 N   0  0  0  0  0  0  0  0  0  0  0  0
    8.4682  -15.9196   22.6549 C   0  0  0  0  0  0  0  0  0  0  0  0
    9.7026  -15.7645   22.7115 O   0  0  0  0  0  0  0  0  0  0  0  0
    6.6343  -10.5700   27.9902 C   0  0  0  0  0  0  0  0  0  0  0  0
    6.2022  -11.6338   26.5948 S   0  0  0  0  0  0  0  0  0  0  0  0
    7.5827  -12.8163   26.3536 C   0  0  0  0  0  0  0  0  0  0  0  0
    7.2421  -13.6793   25.1850 C   0  0  0  0  0  0  0  0  0  0  0  0
    8.2394  -14.7486   24.8926 C   0  0  2  0  0  0  0  0  0  0  0  0
    7.6905  -15.5334   23.7753 N   0  0  0  0  0  0  0  0  0  0  0  0
    8.6044  -15.6053   26.0174 C   0  0  0  0  0  0  0  0  0  0  0  0
    9.4805  -15.1780   26.9969 O   0  0  0  0  0  0  0  0  0  0  0  0
    8.1392  -16.7758   26.1481 O   0  0  0  0  0  0  0  0  0  0  0  0
  2  1  1  0
  3  2  1  0
  3  4  1  1
  5  6  2  0
  5  3  1  0
  7  5  1  0
  8  7  1  0
  8  9  1  6
 10 11  1  0
 10  9  1  0
 11 12  1  0
 12 13  1  0
 14  8  1  0
 14 21  1  0
 15 14  2  0
 17 16  1  0
 18 17  1  0
 20 19  1  1
 19 18  1  0
 20 21  1  0
 20 22  1  0
 22 23  1  0
 24 22  2  0
M  END
$$$$
