SKM.pdb
     RDKit          3D

 24 23  0  0  1  0  0  0  0  0999 V2000
   10.3401  -13.2529   20.2358 O   0  0  0  0  0  0  0  0  0  0  0  0
    9.7267  -14.1218   19.3417 C   0  0  0  0  0  0  0  0  0  0  0  0
    8.2292  -13.9495   19.4728 C   0  0  2  0  0  0  0  0  0  0  0  0
    7.8211  -12.5815   19.4095 N   0  0  0  0  0  0  0  0  0  0  0  0
    7.8039  -14.5504   20.7370 C   0  0  0  0  0  0  0  0  0  0  0  0
    7.3746  -13.8231   21.6671 O   0  0  0  0  0  0  0  0  0  0  0  0
    7.8539  -15.9755   20.9770 N   0  0  0  0  0  0  0  0  0  0  0  0
    7.5014  -16.5429   22.2487 C   0  0  1  0  0  0  0  0  0  0  0  0
    7.3717  -18.0163   22.3126 C   0  0  0  0  0  0  0  0  0  0  0  0
    7.0156  -18.6168   23.6350 C   0  0  0  0  0  0  0  0  0  0  0  0
    6.8998  -20.1013   23.6749 C   0  0  0  0  0  0  0  0  0  0  0  0
    6.4644  -20.4782   25.0928 C   0  0  0  0  0  0  0  0  0  0  0  0
    7.6234  -20.6890   25.9198 N   0  0  0  0  0  0  0  0  0  0  0  0
    8.5052  -16.1137   23.2999 C   0  0  0  0  0  0  0  0  0  0  0  0
    9.7324  -16.1899   23.1019 O   0  0  0  0  0  0  0  0  0  0  0  0
    5.3844  -12.1430   26.4454 C   0  0  0  0  0  0  0  0  0  0  0  0
    7.1160  -11.6526   26.6079 S   0  0  0  0  0  0  0  0  0  0  0  0
    8.1132  -12.7980   25.5803 C   0  0  0  0  0  0  0  0  0  0  0  0
    8.2667  -14.0728   26.3403 C   0  0  0  0  0  0  0  0  0  0  0  0
    8.9772  -15.1544   25.5994 C   0  0  2  0  0  0  0  0  0  0  0  0
    8.0558  -15.6099   24.5463 N   0  0  0  0  0  0  0  0  0  0  0  0
    9.4578  -16.2717   26.4074 C   0  0  0  0  0  0  0  0  0  0  0  0
   10.5327  -16.1338   27.2649 O   0  0  0  0  0  0  0  0  0  0  0  0
    8.9166  -17.4155   26.3605 O   0  0  0  0  0  0  0  0  0  0  0  0
  2  1  1  0
  3  2  1  0
  3  4  1  1
  5  6  2  0
  5  3  1  0
  7  5  1  0
  8  7  1  0
  8  9  1  6
 10 11  1  0
 10  9  1  0
 11 12  1  0
 12 13  1  0
 14  8  1  0
 14 21  1  0
 15 14  2  0
 17 16  1  0
 18 17  1  0
 20 19  1  1
 19 18  1  0
 20 21  1  0
 20 22  1  0
 22 23  1  0
 24 22  2  0
M  END
$$$$
