SKM.pdb
     RDKit          3D

 24 23  0  0  1  0  0  0  0  0999 V2000
   10.6793  -12.8233   18.3303 O   0  0  0  0  0  0  0  0  0  0  0  0
   10.2939  -14.0112   18.9394 C   0  0  0  0  0  0  0  0  0  0  0  0
    8.8542  -14.2854   18.5633 C   0  0  2  0  0  0  0  0  0  0  0  0
    8.1619  -13.1131   18.1293 N   0  0  0  0  0  0  0  0  0  0  0  0
    8.1796  -14.8774   19.7186 C   0  0  0  0  0  0  0  0  0  0  0  0
    7.3862  -14.1877   20.4063 O   0  0  0  0  0  0  0  0  0  0  0  0
    8.3850  -16.2514   20.1199 N   0  0  0  0  0  0  0  0  0  0  0  0
    7.7738  -16.7958   21.3003 C   0  0  1  0  0  0  0  0  0  0  0  0
    7.7742  -18.2700   21.4364 C   0  0  0  0  0  0  0  0  0  0  0  0
    7.2763  -18.8400   22.7261 C   0  0  0  0  0  0  0  0  0  0  0  0
    7.2563  -20.3261   22.8257 C   0  0  0  0  0  0  0  0  0  0  0  0
    6.5521  -20.6770   24.1384 C   0  0  0  0  0  0  0  0  0  0  0  0
    6.5807  -22.1016   24.3423 N   0  0  0  0  0  0  0  0  0  0  0  0
    8.4277  -16.2099   22.5355 C   0  0  0  0  0  0  0  0  0  0  0  0
    9.6651  -16.1105   22.6356 O   0  0  0  0  0  0  0  0  0  0  0  0
    6.5413  -10.9819   28.0345 C   0  0  0  0  0  0  0  0  0  0  0  0
    6.0496  -12.1039   26.7060 S   0  0  0  0  0  0  0  0  0  0  0  0
    7.4844  -13.1842   26.3361 C   0  0  0  0  0  0  0  0  0  0  0  0
    7.1169  -14.0446   25.1738 C   0  0  0  0  0  0  0  0  0  0  0  0
    8.1786  -15.0029   24.7519 C   0  0  2  0  0  0  0  0  0  0  0  0
    7.6279  -15.7577   23.6150 N   0  0  0  0  0  0  0  0  0  0  0  0
    8.6814  -15.8963   25.7917 C   0  0  0  0  0  0  0  0  0  0  0  0
    9.6464  -15.4865   26.6920 O   0  0  0  0  0  0  0  0  0  0  0  0
    8.2608  -17.0841   25.9171 O   0  0  0  0  0  0  0  0  0  0  0  0
  2  1  1  0
  3  2  1  0
  3  4  1  1
  5  6  2  0
  5  3  1  0
  7  5  1  0
  8  7  1  0
  8  9  1  1
 10 11  1  0
 10  9  1  0
 11 12  1  0
 12 13  1  0
 14  8  1  0
 14 21  1  0
 15 14  2  0
 17 16  1  0
 18 17  1  0
 20 19  1  1
 19 18  1  0
 20 21  1  0
 20 22  1  0
 22 23  1  0
 24 22  2  0
M  END
$$$$
