SKM.pdb
     RDKit          3D

 24 23  0  0  1  0  0  0  0  0999 V2000
   10.2356  -12.8926   19.7826 O   0  0  0  0  0  0  0  0  0  0  0  0
   10.0444  -13.7519   18.7076 C   0  0  0  0  0  0  0  0  0  0  0  0
    8.5864  -14.1559   18.6837 C   0  0  2  0  0  0  0  0  0  0  0  0
    7.7066  -13.0450   18.5003 N   0  0  0  0  0  0  0  0  0  0  0  0
    8.2785  -14.8490   19.9347 C   0  0  0  0  0  0  0  0  0  0  0  0
    7.5480  -14.2989   20.7961 O   0  0  0  0  0  0  0  0  0  0  0  0
    8.7852  -16.1689   20.2382 N   0  0  0  0  0  0  0  0  0  0  0  0
    8.5149  -16.8147   21.4924 C   0  0  1  0  0  0  0  0  0  0  0  0
    9.0861  -18.1666   21.6872 C   0  0  0  0  0  0  0  0  0  0  0  0
    8.8828  -18.8117   23.0209 C   0  0  0  0  0  0  0  0  0  0  0  0
    7.8461  -19.8793   23.0853 C   0  0  0  0  0  0  0  0  0  0  0  0
    7.8307  -20.4017   24.5238 C   0  0  0  0  0  0  0  0  0  0  0  0
    6.9317  -21.5209   24.6273 N   0  0  0  0  0  0  0  0  0  0  0  0
    8.9849  -15.9371   22.6351 C   0  0  0  0  0  0  0  0  0  0  0  0
   10.0960  -15.3749   22.6136 O   0  0  0  0  0  0  0  0  0  0  0  0
    6.0756  -11.1265   27.9952 C   0  0  0  0  0  0  0  0  0  0  0  0
    5.9091  -12.1863   26.5410 S   0  0  0  0  0  0  0  0  0  0  0  0
    7.4574  -13.1562   26.3843 C   0  0  0  0  0  0  0  0  0  0  0  0
    7.3461  -13.9930   25.1539 C   0  0  0  0  0  0  0  0  0  0  0  0
    8.5287  -14.8607   24.8855 C   0  0  2  0  0  0  0  0  0  0  0  0
    8.1533  -15.7386   23.7657 N   0  0  0  0  0  0  0  0  0  0  0  0
    9.0268  -15.6298   26.0223 C   0  0  0  0  0  0  0  0  0  0  0  0
    8.3942  -16.7823   26.4481 O   0  0  0  0  0  0  0  0  0  0  0  0
   10.0564  -15.2790   26.6707 O   0  0  0  0  0  0  0  0  0  0  0  0
  2  1  1  0
  3  2  1  0
  3  4  1  1
  5  6  2  0
  5  3  1  0
  7  5  1  0
  8  7  1  0
  8  9  1  6
 10 11  1  0
 10  9  1  0
 11 12  1  0
 12 13  1  0
 14  8  1  0
 14 21  1  0
 15 14  2  0
 17 16  1  0
 18 17  1  0
 20 19  1  1
 19 18  1  0
 20 21  1  0
 20 22  1  0
 22 23  1  0
 24 22  2  0
M  END
$$$$
