SKM.pdb
     RDKit          3D

 24 23  0  0  1  0  0  0  0  0999 V2000
   -5.3577  -24.6895   29.1352 O   0  0  0  0  0  0  0  0  0  0  0  0
   -4.8374  -25.8535   28.5829 C   0  0  0  0  0  0  0  0  0  0  0  0
   -4.1614  -26.6354   29.6879 C   0  0  2  0  0  0  0  0  0  0  0  0
   -3.4199  -27.7554   29.2006 N   0  0  0  0  0  0  0  0  0  0  0  0
   -5.1853  -27.0753   30.6357 C   0  0  0  0  0  0  0  0  0  0  0  0
   -6.1458  -27.7828   30.2417 O   0  0  0  0  0  0  0  0  0  0  0  0
   -5.1473  -26.7283   32.0390 N   0  0  0  0  0  0  0  0  0  0  0  0
   -6.1118  -27.2397   32.9726 C   0  0  1  0  0  0  0  0  0  0  0  0
   -5.6710  -27.3881   34.3781 C   0  0  0  0  0  0  0  0  0  0  0  0
   -4.4825  -28.2583   34.6361 C   0  0  0  0  0  0  0  0  0  0  0  0
   -4.0146  -28.3332   36.0482 C   0  0  0  0  0  0  0  0  0  0  0  0
   -2.7489  -29.1934   36.0551 C   0  0  0  0  0  0  0  0  0  0  0  0
   -2.2006  -29.2450   37.3850 N   0  0  0  0  0  0  0  0  0  0  0  0
   -7.3528  -26.3699   32.9590 C   0  0  0  0  0  0  0  0  0  0  0  0
   -7.3343  -25.2112   32.5027 O   0  0  0  0  0  0  0  0  0  0  0  0
  -12.8461  -23.7460   29.5440 C   0  0  0  0  0  0  0  0  0  0  0  0
  -11.2482  -24.5002   29.9224 S   0  0  0  0  0  0  0  0  0  0  0  0
  -11.2484  -24.9295   31.7052 C   0  0  0  0  0  0  0  0  0  0  0  0
   -9.9718  -25.6434   32.0002 C   0  0  0  0  0  0  0  0  0  0  0  0
   -9.8351  -26.1120   33.4092 C   0  0  2  0  0  0  0  0  0  0  0  0
   -8.5753  -26.8698   33.4738 N   0  0  0  0  0  0  0  0  0  0  0  0
  -10.9533  -26.8908   33.9338 C   0  0  0  0  0  0  0  0  0  0  0  0
  -12.0726  -26.2800   34.4666 O   0  0  0  0  0  0  0  0  0  0  0  0
  -10.9509  -28.1571   33.9273 O   0  0  0  0  0  0  0  0  0  0  0  0
  2  1  1  0
  3  2  1  0
  3  4  1  6
  5  6  2  0
  5  3  1  0
  7  5  1  0
  8  7  1  0
  8  9  1  1
 10 11  1  0
 10  9  1  0
 11 12  1  0
 12 13  1  0
 14  8  1  0
 14 21  1  0
 15 14  2  0
 17 16  1  0
 18 17  1  0
 20 19  1  6
 19 18  1  0
 20 21  1  0
 20 22  1  0
 22 23  1  0
 24 22  2  0
M  END
$$$$
