SKM.pdb
     RDKit          3D

 24 23  0  0  1  0  0  0  0  0999 V2000
    9.2314  -12.4491   18.4704 O   0  0  0  0  0  0  0  0  0  0  0  0
    8.9188  -13.0005   19.7069 C   0  0  0  0  0  0  0  0  0  0  0  0
    7.9342  -14.1273   19.4824 C   0  0  2  0  0  0  0  0  0  0  0  0
    6.6317  -13.6619   19.1238 N   0  0  0  0  0  0  0  0  0  0  0  0
    7.8697  -14.9341   20.7011 C   0  0  0  0  0  0  0  0  0  0  0  0
    7.0024  -14.6860   21.5755 O   0  0  0  0  0  0  0  0  0  0  0  0
    8.7768  -16.0307   20.9574 N   0  0  0  0  0  0  0  0  0  0  0  0
    8.6337  -16.8800   22.1069 C   0  0  1  0  0  0  0  0  0  0  0  0
    9.3219  -18.1900   22.0625 C   0  0  0  0  0  0  0  0  0  0  0  0
    9.1616  -19.0897   23.2462 C   0  0  0  0  0  0  0  0  0  0  0  0
    9.9638  -20.3447   23.2334 C   0  0  0  0  0  0  0  0  0  0  0  0
    9.5990  -21.1216   24.5006 C   0  0  0  0  0  0  0  0  0  0  0  0
   10.3829  -22.3264   24.5774 N   0  0  0  0  0  0  0  0  0  0  0  0
    9.0983  -16.1472   23.3494 C   0  0  0  0  0  0  0  0  0  0  0  0
   10.2279  -15.6272   23.4179 O   0  0  0  0  0  0  0  0  0  0  0  0
    6.9109  -10.5090   27.2627 C   0  0  0  0  0  0  0  0  0  0  0  0
    6.4144  -12.1966   26.8494 S   0  0  0  0  0  0  0  0  0  0  0  0
    7.9277  -13.1170   26.3747 C   0  0  0  0  0  0  0  0  0  0  0  0
    7.5471  -14.5466   26.1801 C   0  0  0  0  0  0  0  0  0  0  0  0
    8.6650  -15.4316   25.7434 C   0  0  2  0  0  0  0  0  0  0  0  0
    8.2401  -16.0398   24.4725 N   0  0  0  0  0  0  0  0  0  0  0  0
    9.0884  -16.4459   26.7047 C   0  0  0  0  0  0  0  0  0  0  0  0
    9.8843  -16.1270   27.7885 O   0  0  0  0  0  0  0  0  0  0  0  0
    8.7497  -17.6608   26.5915 O   0  0  0  0  0  0  0  0  0  0  0  0
  2  1  1  0
  3  2  1  0
  3  4  1  1
  5  6  2  0
  5  3  1  0
  7  5  1  0
  8  7  1  0
  8  9  1  6
 10 11  1  0
 10  9  1  0
 11 12  1  0
 12 13  1  0
 14  8  1  0
 14 21  1  0
 15 14  2  0
 17 16  1  0
 18 17  1  0
 20 19  1  1
 19 18  1  0
 20 21  1  0
 20 22  1  0
 22 23  1  0
 24 22  2  0
M  END
$$$$
