SKM.pdb
     RDKit          3D

 24 23  0  0  1  0  0  0  0  0999 V2000
    9.3107  -12.0855   20.1185 O   0  0  0  0  0  0  0  0  0  0  0  0
    9.5724  -12.8069   18.9601 C   0  0  0  0  0  0  0  0  0  0  0  0
    8.4192  -13.7590   18.7300 C   0  0  2  0  0  0  0  0  0  0  0  0
    7.1770  -13.0845   18.5208 N   0  0  0  0  0  0  0  0  0  0  0  0
    8.3244  -14.6566   19.8812 C   0  0  0  0  0  0  0  0  0  0  0  0
    7.3734  -14.5404   20.6938 O   0  0  0  0  0  0  0  0  0  0  0  0
    9.2947  -15.6976   20.1384 N   0  0  0  0  0  0  0  0  0  0  0  0
    9.1980  -16.5574   21.2849 C   0  0  1  0  0  0  0  0  0  0  0  0
   10.0694  -17.7542   21.3008 C   0  0  0  0  0  0  0  0  0  0  0  0
    9.9869  -18.6785   20.1282 C   0  0  0  0  0  0  0  0  0  0  0  0
   10.8576  -19.8861   20.1785 C   0  0  0  0  0  0  0  0  0  0  0  0
   10.5355  -20.7217   18.9374 C   0  0  0  0  0  0  0  0  0  0  0  0
   11.3024  -21.9396   18.9562 N   0  0  0  0  0  0  0  0  0  0  0  0
    9.4669  -15.7638   22.5477 C   0  0  0  0  0  0  0  0  0  0  0  0
   10.3487  -14.8855   22.5928 O   0  0  0  0  0  0  0  0  0  0  0  0
    6.1415  -11.5334   27.8280 C   0  0  0  0  0  0  0  0  0  0  0  0
    6.1661  -12.5183   26.3131 S   0  0  0  0  0  0  0  0  0  0  0  0
    7.6398  -13.6070   26.3859 C   0  0  0  0  0  0  0  0  0  0  0  0
    7.6730  -14.4105   25.1291 C   0  0  0  0  0  0  0  0  0  0  0  0
    8.8922  -15.2532   24.9643 C   0  0  2  0  0  0  0  0  0  0  0  0
    8.7060  -16.0125   23.7176 N   0  0  0  0  0  0  0  0  0  0  0  0
    9.2140  -16.1351   26.0828 C   0  0  0  0  0  0  0  0  0  0  0  0
    9.7574  -15.6462   27.2555 O   0  0  0  0  0  0  0  0  0  0  0  0
    9.0132  -17.3843   26.0318 O   0  0  0  0  0  0  0  0  0  0  0  0
  2  1  1  0
  3  2  1  0
  3  4  1  1
  5  6  2  0
  5  3  1  0
  7  5  1  0
  8  7  1  0
  8  9  1  6
 10 11  1  0
 10  9  1  0
 11 12  1  0
 12 13  1  0
 14  8  1  0
 14 21  1  0
 15 14  2  0
 17 16  1  0
 18 17  1  0
 20 19  1  1
 19 18  1  0
 20 21  1  0
 20 22  1  0
 22 23  1  0
 24 22  2  0
M  END
$$$$
