SKM.pdb
     RDKit          3D

 24 23  0  0  1  0  0  0  0  0999 V2000
   10.0939  -12.6499   19.3483 O   0  0  0  0  0  0  0  0  0  0  0  0
    9.8535  -13.5990   18.3623 C   0  0  0  0  0  0  0  0  0  0  0  0
    8.3863  -13.9655   18.4119 C   0  0  2  0  0  0  0  0  0  0  0  0
    7.5271  -12.8305   18.2880 N   0  0  0  0  0  0  0  0  0  0  0  0
    8.1274  -14.6660   19.6699 C   0  0  0  0  0  0  0  0  0  0  0  0
    7.4075  -14.1331   20.5508 O   0  0  0  0  0  0  0  0  0  0  0  0
    8.6721  -15.9740   19.9587 N   0  0  0  0  0  0  0  0  0  0  0  0
    8.3747  -16.6658   21.1819 C   0  0  1  0  0  0  0  0  0  0  0  0
    8.8701  -18.0556   21.3037 C   0  0  0  0  0  0  0  0  0  0  0  0
    8.1584  -19.1091   20.5164 C   0  0  0  0  0  0  0  0  0  0  0  0
    9.0170  -20.0280   19.7182 C   0  0  0  0  0  0  0  0  0  0  0  0
    8.0940  -21.0851   19.1076 C   0  0  0  0  0  0  0  0  0  0  0  0
    8.8447  -21.9366   18.2226 N   0  0  0  0  0  0  0  0  0  0  0  0
    8.9014  -15.8743   22.3621 C   0  0  0  0  0  0  0  0  0  0  0  0
    9.9751  -15.2461   22.3014 O   0  0  0  0  0  0  0  0  0  0  0  0
    6.1830  -11.1672   27.7939 C   0  0  0  0  0  0  0  0  0  0  0  0
    5.9396  -12.3435   26.4439 S   0  0  0  0  0  0  0  0  0  0  0  0
    7.5274  -13.2232   26.1848 C   0  0  0  0  0  0  0  0  0  0  0  0
    7.3484  -14.1527   25.0315 C   0  0  0  0  0  0  0  0  0  0  0  0
    8.5482  -14.9767   24.7075 C   0  0  2  0  0  0  0  0  0  0  0  0
    8.1679  -15.8354   23.5745 N   0  0  0  0  0  0  0  0  0  0  0  0
    9.1002  -15.7605   25.8089 C   0  0  0  0  0  0  0  0  0  0  0  0
    9.8411  -15.1709   26.8154 O   0  0  0  0  0  0  0  0  0  0  0  0
    8.9289  -17.0123   25.8937 O   0  0  0  0  0  0  0  0  0  0  0  0
  2  1  1  0
  3  2  1  0
  3  4  1  1
  5  6  2  0
  5  3  1  0
  7  5  1  0
  8  7  1  0
  8  9  1  6
 10 11  1  0
 10  9  1  0
 11 12  1  0
 12 13  1  0
 14  8  1  0
 14 21  1  0
 15 14  2  0
 17 16  1  0
 18 17  1  0
 20 19  1  1
 19 18  1  0
 20 21  1  0
 20 22  1  0
 22 23  1  0
 24 22  2  0
M  END
$$$$
