PEV.pdb
     RDKit          3D

 24 24  0  0  1  0  0  0  0  0999 V2000
    8.7758  -15.1609   18.9956 N   0  0  0  0  0  0  0  0  0  0  0  0
    8.5816  -14.7036   17.6133 C   0  0  0  0  0  0  0  0  0  0  0  0
    7.2559  -13.9620   17.7833 C   0  0  0  0  0  0  0  0  0  0  0  0
    7.5660  -13.1578   19.0469 C   0  0  0  0  0  0  0  0  0  0  0  0
    8.6255  -13.9549   19.7797 C   0  0  1  0  0  0  0  0  0  0  0  0
    8.1768  -14.2731   21.1749 C   0  0  0  0  0  0  0  0  0  0  0  0
    7.8437  -13.3607   21.9393 O   0  0  0  0  0  0  0  0  0  0  0  0
    8.1285  -15.6136   21.6315 N   0  0  0  0  0  0  0  0  0  0  0  0
    7.7524  -16.0262   22.9314 C   0  0  1  0  0  0  0  0  0  0  0  0
    7.8997  -17.4796   23.2355 C   0  0  0  0  0  0  0  0  0  0  0  0
    7.3556  -17.8264   24.5987 C   0  0  0  0  0  0  0  0  0  0  0  0
    7.5015  -19.2741   24.8928 C   0  0  0  0  0  0  0  0  0  0  0  0
    6.5991  -20.1013   24.6035 O   0  0  0  0  0  0  0  0  0  0  0  0
    8.3144  -15.2039   24.0470 C   0  0  0  0  0  0  0  0  0  0  0  0
    9.5454  -15.0458   24.0309 O   0  0  0  0  0  0  0  0  0  0  0  0
    8.6595  -19.7329   25.5021 O   0  0  0  0  0  0  0  0  0  0  0  0
    5.6815  -13.0593   26.8727 C   0  0  0  0  0  0  0  0  0  0  0  0
    6.9857  -12.5609   26.2857 C   0  0  1  0  0  0  0  0  0  0  0  0
    7.5354  -11.5013   27.1912 C   0  0  0  0  0  0  0  0  0  0  0  0
    7.9075  -13.7149   26.0741 C   0  0  2  0  0  0  0  0  0  0  0  0
    7.5311  -14.6363   25.0600 N   0  0  0  0  0  0  0  0  0  0  0  0
    8.3684  -14.2724   27.3645 C   0  0  0  0  0  0  0  0  0  0  0  0
    9.0094  -13.4610   28.2908 O   0  0  0  0  0  0  0  0  0  0  0  0
    8.2068  -15.4561   27.6658 O   0  0  0  0  0  0  0  0  0  0  0  0
  1  5  1  0
  1  2  1  0
  2  3  1  0
  4  3  1  0
  5  4  1  0
  6  8  1  0
  5  6  1  1
  7  6  2  0
  9  8  1  0
 10 11  1  0
  9 10  1  1
 12 16  1  0
 12 11  1  0
 13 12  2  0
 14  9  1  0
 14 21  1  0
 15 14  2  0
 18 17  1  1
 18 20  1  0
 19 18  1  0
 20 21  1  1
 20 22  1  0
 22 23  1  0
 24 22  2  0
M  END
$$$$
