PEV.pdb
     RDKit          3D

 24 24  0  0  1  0  0  0  0  0999 V2000
    9.1534  -14.4767   19.0324 N   0  0  0  0  0  0  0  0  0  0  0  0
    8.8167  -13.9721   17.6946 C   0  0  0  0  0  0  0  0  0  0  0  0
    7.3149  -13.7585   17.8829 C   0  0  0  0  0  0  0  0  0  0  0  0
    7.3204  -13.0346   19.2304 C   0  0  0  0  0  0  0  0  0  0  0  0
    8.5889  -13.4874   19.9237 C   0  0  1  0  0  0  0  0  0  0  0  0
    8.2746  -14.0866   21.2622 C   0  0  0  0  0  0  0  0  0  0  0  0
    7.5716  -13.4652   22.0668 O   0  0  0  0  0  0  0  0  0  0  0  0
    8.7747  -15.3634   21.6188 N   0  0  0  0  0  0  0  0  0  0  0  0
    8.6659  -15.9614   22.8964 C   0  0  1  0  0  0  0  0  0  0  0  0
    9.3170  -17.2935   23.0638 C   0  0  0  0  0  0  0  0  0  0  0  0
    8.9924  -17.9138   24.3996 C   0  0  0  0  0  0  0  0  0  0  0  0
    9.6724  -19.2217   24.5742 C   0  0  0  0  0  0  0  0  0  0  0  0
    9.6590  -20.0989   23.6728 O   0  0  0  0  0  0  0  0  0  0  0  0
    9.0076  -15.0694   24.0471 C   0  0  0  0  0  0  0  0  0  0  0  0
   10.2025  -14.7469   24.1409 O   0  0  0  0  0  0  0  0  0  0  0  0
   10.3412  -19.4898   25.7589 O   0  0  0  0  0  0  0  0  0  0  0  0
    7.5241  -11.7287   25.2672 C   0  0  0  0  0  0  0  0  0  0  0  0
    7.3658  -12.7181   26.4028 C   0  0  1  0  0  0  0  0  0  0  0  0
    5.9176  -13.0878   26.5070 C   0  0  0  0  0  0  0  0  0  0  0  0
    8.2732  -13.8808   26.1778 C   0  0  2  0  0  0  0  0  0  0  0  0
    8.0654  -14.6112   24.9768 N   0  0  0  0  0  0  0  0  0  0  0  0
    8.4641  -14.6566   27.4229 C   0  0  0  0  0  0  0  0  0  0  0  0
    8.2794  -16.0326   27.4277 O   0  0  0  0  0  0  0  0  0  0  0  0
    8.7880  -14.1258   28.4864 O   0  0  0  0  0  0  0  0  0  0  0  0
  1  5  1  0
  1  2  1  0
  2  3  1  0
  4  3  1  0
  5  4  1  0
  6  8  1  0
  5  6  1  1
  7  6  2  0
  9  8  1  0
 10 11  1  0
  9 10  1  6
 12 16  1  0
 12 11  1  0
 13 12  2  0
 14  9  1  0
 14 21  1  0
 15 14  2  0
 18 17  1  6
 18 20  1  0
 19 18  1  0
 20 21  1  6
 20 22  1  0
 22 23  1  0
 24 22  2  0
M  END
$$$$
