PEV.pdb
     RDKit          3D

 24 24  0  0  1  0  0  0  0  0999 V2000
    7.8455  -15.1507   19.0465 N   0  0  0  0  0  0  0  0  0  0  0  0
    8.0573  -14.3705   17.8200 C   0  0  0  0  0  0  0  0  0  0  0  0
    7.4212  -13.0505   18.2551 C   0  0  0  0  0  0  0  0  0  0  0  0
    8.0584  -12.8959   19.6370 C   0  0  0  0  0  0  0  0  0  0  0  0
    8.3848  -14.3046   20.0881 C   0  0  1  0  0  0  0  0  0  0  0  0
    7.7387  -14.5998   21.4089 C   0  0  0  0  0  0  0  0  0  0  0  0
    6.8841  -13.8310   21.8634 O   0  0  0  0  0  0  0  0  0  0  0  0
    8.0959  -15.7553   22.1471 N   0  0  0  0  0  0  0  0  0  0  0  0
    7.6743  -16.0519   23.4646 C   0  0  1  0  0  0  0  0  0  0  0  0
    7.6809  -17.4918   23.8556 C   0  0  0  0  0  0  0  0  0  0  0  0
    7.1999  -17.6920   25.2710 C   0  0  0  0  0  0  0  0  0  0  0  0
    7.3142  -19.1112   25.6911 C   0  0  0  0  0  0  0  0  0  0  0  0
    7.1500  -20.0564   24.8776 O   0  0  0  0  0  0  0  0  0  0  0  0
    8.3049  -15.2210   24.5363 C   0  0  0  0  0  0  0  0  0  0  0  0
    9.5459  -15.2271   24.5609 O   0  0  0  0  0  0  0  0  0  0  0  0
    7.6091  -19.4095   27.0127 O   0  0  0  0  0  0  0  0  0  0  0  0
    7.4759  -11.5234   25.6755 C   0  0  0  0  0  0  0  0  0  0  0  0
    7.3259  -12.4502   26.8639 C   0  0  1  0  0  0  0  0  0  0  0  0
    5.8647  -12.6156   27.1509 C   0  0  0  0  0  0  0  0  0  0  0  0
    8.0377  -13.7318   26.5864 C   0  0  2  0  0  0  0  0  0  0  0  0
    7.5723  -14.4744   25.4678 N   0  0  0  0  0  0  0  0  0  0  0  0
    8.3012  -14.4767   27.8370 C   0  0  0  0  0  0  0  0  0  0  0  0
    8.9341  -13.8544   28.9045 O   0  0  0  0  0  0  0  0  0  0  0  0
    7.9773  -15.6566   27.9814 O   0  0  0  0  0  0  0  0  0  0  0  0
  1  5  1  0
  1  2  1  0
  2  3  1  0
  4  3  1  0
  5  4  1  0
  6  8  1  0
  5  6  1  1
  7  6  2  0
  9  8  1  0
 10 11  1  0
  9 10  1  1
 12 16  1  0
 12 11  1  0
 13 12  2  0
 14  9  1  0
 14 21  1  0
 15 14  2  0
 18 17  1  6
 18 20  1  0
 19 18  1  0
 20 21  1  6
 20 22  1  0
 22 23  1  0
 24 22  2  0
M  END
$$$$
