PEV.pdb
     RDKit          3D

 24 24  0  0  1  0  0  0  0  0999 V2000
    8.9996  -14.6831   18.9142 N   0  0  0  0  0  0  0  0  0  0  0  0
    8.6449  -14.1624   17.5873 C   0  0  0  0  0  0  0  0  0  0  0  0
    7.1817  -13.8042   17.8466 C   0  0  0  0  0  0  0  0  0  0  0  0
    7.3244  -13.0704   19.1810 C   0  0  0  0  0  0  0  0  0  0  0  0
    8.5776  -13.6353   19.8174 C   0  0  1  0  0  0  0  0  0  0  0  0
    8.2762  -14.1880   21.1786 C   0  0  0  0  0  0  0  0  0  0  0  0
    7.7052  -13.4832   22.0182 O   0  0  0  0  0  0  0  0  0  0  0  0
    8.6384  -15.5153   21.5172 N   0  0  0  0  0  0  0  0  0  0  0  0
    8.4454  -16.1234   22.7799 C   0  0  1  0  0  0  0  0  0  0  0  0
    9.0315  -17.4839   22.9584 C   0  0  0  0  0  0  0  0  0  0  0  0
    8.6410  -18.0950   24.2809 C   0  0  0  0  0  0  0  0  0  0  0  0
    9.2739  -19.4234   24.4768 C   0  0  0  0  0  0  0  0  0  0  0  0
    8.7951  -20.4660   23.9612 O   0  0  0  0  0  0  0  0  0  0  0  0
    8.7703  -15.2607   23.9575 C   0  0  0  0  0  0  0  0  0  0  0  0
    9.9572  -14.9112   24.0566 O   0  0  0  0  0  0  0  0  0  0  0  0
   10.4225  -19.5245   25.2470 O   0  0  0  0  0  0  0  0  0  0  0  0
    7.2158  -12.0724   27.3632 C   0  0  0  0  0  0  0  0  0  0  0  0
    6.8385  -13.0378   26.2590 C   0  0  1  0  0  0  0  0  0  0  0  0
    6.4253  -12.2423   25.0585 C   0  0  0  0  0  0  0  0  0  0  0  0
    7.9751  -13.9706   26.0058 C   0  0  2  0  0  0  0  0  0  0  0  0
    7.8217  -14.8568   24.9056 N   0  0  0  0  0  0  0  0  0  0  0  0
    8.4911  -14.5378   27.2708 C   0  0  0  0  0  0  0  0  0  0  0  0
    8.9461  -13.7013   28.2810 O   0  0  0  0  0  0  0  0  0  0  0  0
    8.5384  -15.7515   27.4774 O   0  0  0  0  0  0  0  0  0  0  0  0
  1  5  1  0
  1  2  1  0
  2  3  1  0
  4  3  1  0
  5  4  1  0
  6  8  1  0
  5  6  1  1
  7  6  2  0
  9  8  1  0
 10 11  1  0
  9 10  1  6
 12 16  1  0
 12 11  1  0
 13 12  2  0
 14  9  1  0
 14 21  1  0
 15 14  2  0
 18 17  1  1
 18 20  1  0
 19 18  1  0
 20 21  1  6
 20 22  1  0
 22 23  1  0
 24 22  2  0
M  END
$$$$
