PEV.pdb
     RDKit          3D

 24 24  0  0  1  0  0  0  0  0999 V2000
    8.7041  -15.1125   19.2625 N   0  0  0  0  0  0  0  0  0  0  0  0
    8.6231  -14.6737   17.8631 C   0  0  0  0  0  0  0  0  0  0  0  0
    7.3310  -13.8602   17.9346 C   0  0  0  0  0  0  0  0  0  0  0  0
    7.6030  -13.0480   19.2019 C   0  0  0  0  0  0  0  0  0  0  0  0
    8.5693  -13.8847   20.0149 C   0  0  1  0  0  0  0  0  0  0  0  0
    8.0163  -14.1507   21.3834 C   0  0  0  0  0  0  0  0  0  0  0  0
    7.6653  -13.2076   22.1011 O   0  0  0  0  0  0  0  0  0  0  0  0
    7.8892  -15.4763   21.8674 N   0  0  0  0  0  0  0  0  0  0  0  0
    7.5032  -15.8388   23.1793 C   0  0  1  0  0  0  0  0  0  0  0  0
    7.4696  -17.2996   23.4819 C   0  0  0  0  0  0  0  0  0  0  0  0
    6.8743  -17.5788   24.8393 C   0  0  0  0  0  0  0  0  0  0  0  0
    6.8354  -19.0340   25.1297 C   0  0  0  0  0  0  0  0  0  0  0  0
    7.2751  -19.8829   24.3123 O   0  0  0  0  0  0  0  0  0  0  0  0
    8.2018  -15.0987   24.2751 C   0  0  0  0  0  0  0  0  0  0  0  0
    9.4339  -15.2426   24.3205 O   0  0  0  0  0  0  0  0  0  0  0  0
    6.3018  -19.4755   26.3309 O   0  0  0  0  0  0  0  0  0  0  0  0
    7.3121  -11.3526   25.3470 C   0  0  0  0  0  0  0  0  0  0  0  0
    7.3487  -12.2396   26.5740 C   0  0  1  0  0  0  0  0  0  0  0  0
    5.9414  -12.4577   27.0397 C   0  0  0  0  0  0  0  0  0  0  0  0
    8.0830  -13.4985   26.2543 C   0  0  2  0  0  0  0  0  0  0  0  0
    7.5390  -14.2891   25.2064 N   0  0  0  0  0  0  0  0  0  0  0  0
    8.5034  -14.1982   27.4880 C   0  0  0  0  0  0  0  0  0  0  0  0
    8.2150  -15.5448   27.6642 O   0  0  0  0  0  0  0  0  0  0  0  0
    9.1144  -13.6277   28.3930 O   0  0  0  0  0  0  0  0  0  0  0  0
  1  5  1  0
  1  2  1  0
  2  3  1  0
  4  3  1  0
  5  4  1  0
  6  8  1  0
  5  6  1  1
  7  6  2  0
  9  8  1  0
 10 11  1  0
  9 10  1  1
 12 16  1  0
 12 11  1  0
 13 12  2  0
 14  9  1  0
 14 21  1  0
 15 14  2  0
 18 17  1  6
 18 20  1  0
 19 18  1  0
 20 21  1  1
 20 22  1  0
 22 23  1  0
 24 22  2  0
M  END
$$$$
