PEV.pdb
     RDKit          3D

 24 24  0  0  1  0  0  0  0  0999 V2000
    9.0380  -14.5115   18.8753 N   0  0  0  0  0  0  0  0  0  0  0  0
    8.6387  -13.9265   17.5886 C   0  0  0  0  0  0  0  0  0  0  0  0
    7.1727  -13.6255   17.8994 C   0  0  0  0  0  0  0  0  0  0  0  0
    7.3261  -12.9650   19.2705 C   0  0  0  0  0  0  0  0  0  0  0  0
    8.6086  -13.5293   19.8462 C   0  0  1  0  0  0  0  0  0  0  0  0
    8.3539  -14.1669   21.1796 C   0  0  0  0  0  0  0  0  0  0  0  0
    7.6852  -13.5706   22.0310 O   0  0  0  0  0  0  0  0  0  0  0  0
    8.8717  -15.4515   21.4781 N   0  0  0  0  0  0  0  0  0  0  0  0
    8.7395  -16.1238   22.7159 C   0  0  1  0  0  0  0  0  0  0  0  0
    9.4409  -17.4351   22.8377 C   0  0  0  0  0  0  0  0  0  0  0  0
    9.3348  -18.2488   21.5722 C   0  0  0  0  0  0  0  0  0  0  0  0
   10.1213  -19.5045   21.6628 C   0  0  0  0  0  0  0  0  0  0  0  0
   11.2511  -19.6170   21.1213 O   0  0  0  0  0  0  0  0  0  0  0  0
    8.9971  -15.2840   23.9263 C   0  0  0  0  0  0  0  0  0  0  0  0
   10.1284  -14.7784   23.9989 O   0  0  0  0  0  0  0  0  0  0  0  0
    9.6031  -20.5849   22.3605 O   0  0  0  0  0  0  0  0  0  0  0  0
    7.2626  -12.3876   27.4490 C   0  0  0  0  0  0  0  0  0  0  0  0
    6.9249  -13.4024   26.3767 C   0  0  1  0  0  0  0  0  0  0  0  0
    6.3793  -12.6693   25.1893 C   0  0  0  0  0  0  0  0  0  0  0  0
    8.1313  -14.2277   26.0772 C   0  0  2  0  0  0  0  0  0  0  0  0
    8.0466  -15.0636   24.9312 N   0  0  0  0  0  0  0  0  0  0  0  0
    8.6926  -14.8187   27.3118 C   0  0  0  0  0  0  0  0  0  0  0  0
    9.1034  -14.0023   28.3568 O   0  0  0  0  0  0  0  0  0  0  0  0
    8.8171  -16.0352   27.4619 O   0  0  0  0  0  0  0  0  0  0  0  0
  1  5  1  0
  1  2  1  0
  2  3  1  0
  4  3  1  0
  5  4  1  0
  6  8  1  0
  5  6  1  1
  7  6  2  0
  9  8  1  0
 10 11  1  0
  9 10  1  6
 12 16  1  0
 12 11  1  0
 13 12  2  0
 14  9  1  0
 14 21  1  0
 15 14  2  0
 18 17  1  1
 18 20  1  0
 19 18  1  0
 20 21  1  6
 20 22  1  0
 22 23  1  0
 24 22  2  0
M  END
$$$$
