PEV.pdb
     RDKit          3D

 24 24  0  0  1  0  0  0  0  0999 V2000
    9.1826  -14.6189   18.9556 N   0  0  0  0  0  0  0  0  0  0  0  0
    8.8102  -14.1306   17.6213 C   0  0  0  0  0  0  0  0  0  0  0  0
    7.3070  -13.9535   17.8347 C   0  0  0  0  0  0  0  0  0  0  0  0
    7.3178  -13.2220   19.1780 C   0  0  0  0  0  0  0  0  0  0  0  0
    8.6090  -13.6390   19.8514 C   0  0  1  0  0  0  0  0  0  0  0  0
    8.3332  -14.2382   21.1983 C   0  0  0  0  0  0  0  0  0  0  0  0
    7.5217  -13.6993   21.9591 O   0  0  0  0  0  0  0  0  0  0  0  0
    8.9935  -15.4213   21.6130 N   0  0  0  0  0  0  0  0  0  0  0  0
    8.8476  -16.0451   22.8744 C   0  0  1  0  0  0  0  0  0  0  0  0
    9.6269  -17.2993   23.0891 C   0  0  0  0  0  0  0  0  0  0  0  0
    9.5323  -18.2292   21.9054 C   0  0  0  0  0  0  0  0  0  0  0  0
   10.3806  -19.4336   22.0879 C   0  0  0  0  0  0  0  0  0  0  0  0
   11.6123  -19.3443   22.3268 O   0  0  0  0  0  0  0  0  0  0  0  0
    8.9927  -15.1367   24.0535 C   0  0  0  0  0  0  0  0  0  0  0  0
   10.0848  -14.5553   24.1531 O   0  0  0  0  0  0  0  0  0  0  0  0
    9.8068  -20.6924   21.9938 O   0  0  0  0  0  0  0  0  0  0  0  0
    6.9426  -12.1998   27.3657 C   0  0  0  0  0  0  0  0  0  0  0  0
    6.7291  -13.2209   26.2678 C   0  0  1  0  0  0  0  0  0  0  0  0
    6.3237  -12.4949   25.0215 C   0  0  0  0  0  0  0  0  0  0  0  0
    7.9611  -14.0482   26.1134 C   0  0  2  0  0  0  0  0  0  0  0  0
    7.9826  -14.9341   25.0026 N   0  0  0  0  0  0  0  0  0  0  0  0
    8.4131  -14.5798   27.4178 C   0  0  0  0  0  0  0  0  0  0  0  0
    8.6829  -15.9332   27.5687 O   0  0  0  0  0  0  0  0  0  0  0  0
    8.5659  -13.8592   28.4054 O   0  0  0  0  0  0  0  0  0  0  0  0
  1  5  1  0
  1  2  1  0
  2  3  1  0
  4  3  1  0
  5  4  1  0
  6  8  1  0
  5  6  1  1
  7  6  2  0
  9  8  1  0
 10 11  1  0
  9 10  1  1
 12 16  1  0
 12 11  1  0
 13 12  2  0
 14  9  1  0
 14 21  1  0
 15 14  2  0
 18 17  1  1
 18 20  1  0
 19 18  1  0
 20 21  1  6
 20 22  1  0
 22 23  1  0
 24 22  2  0
M  END
$$$$
