PEV.pdb
     RDKit          3D

 24 24  0  0  1  0  0  0  0  0999 V2000
    9.0616  -14.6397   19.1236 N   0  0  0  0  0  0  0  0  0  0  0  0
    8.7320  -14.1058   17.7955 C   0  0  0  0  0  0  0  0  0  0  0  0
    7.3075  -13.6246   18.0703 C   0  0  0  0  0  0  0  0  0  0  0  0
    7.5299  -12.8906   19.3937 C   0  0  0  0  0  0  0  0  0  0  0  0
    8.7411  -13.5507   20.0198 C   0  0  1  0  0  0  0  0  0  0  0  0
    8.4146  -14.0616   21.3916 C   0  0  0  0  0  0  0  0  0  0  0  0
    7.8475  -13.3245   22.2058 O   0  0  0  0  0  0  0  0  0  0  0  0
    8.7487  -15.3857   21.7691 N   0  0  0  0  0  0  0  0  0  0  0  0
    8.5610  -15.9462   23.0545 C   0  0  1  0  0  0  0  0  0  0  0  0
    9.1333  -17.3063   23.2759 C   0  0  0  0  0  0  0  0  0  0  0  0
    9.0650  -18.1544   22.0305 C   0  0  0  0  0  0  0  0  0  0  0  0
    9.8090  -19.4282   22.1957 C   0  0  0  0  0  0  0  0  0  0  0  0
   10.5782  -19.8649   21.3013 O   0  0  0  0  0  0  0  0  0  0  0  0
    8.9072  -15.0460   24.1974 C   0  0  0  0  0  0  0  0  0  0  0  0
   10.0647  -14.5977   24.1971 O   0  0  0  0  0  0  0  0  0  0  0  0
    9.6567  -20.1604   23.3633 O   0  0  0  0  0  0  0  0  0  0  0  0
    7.1039  -11.9451   25.3254 C   0  0  0  0  0  0  0  0  0  0  0  0
    7.1947  -12.8076   26.5669 C   0  0  1  0  0  0  0  0  0  0  0  0
    5.8237  -13.3219   26.8846 C   0  0  0  0  0  0  0  0  0  0  0  0
    8.2095  -13.8801   26.3528 C   0  0  2  0  0  0  0  0  0  0  0  0
    8.0084  -14.7118   25.2184 N   0  0  0  0  0  0  0  0  0  0  0  0
    8.5638  -14.5409   27.6281 C   0  0  0  0  0  0  0  0  0  0  0  0
    8.5379  -15.9250   27.7323 O   0  0  0  0  0  0  0  0  0  0  0  0
    8.8898  -13.9043   28.6313 O   0  0  0  0  0  0  0  0  0  0  0  0
  1  5  1  0
  1  2  1  0
  2  3  1  0
  4  3  1  0
  5  4  1  0
  6  8  1  0
  5  6  1  1
  7  6  2  0
  9  8  1  0
 10 11  1  0
  9 10  1  6
 12 16  1  0
 12 11  1  0
 13 12  2  0
 14  9  1  0
 14 21  1  0
 15 14  2  0
 18 17  1  6
 18 20  1  0
 19 18  1  0
 20 21  1  6
 20 22  1  0
 22 23  1  0
 24 22  2  0
M  END
$$$$
