PEV.pdb
     RDKit          3D

 24 24  0  0  1  0  0  0  0  0999 V2000
    8.3982  -14.8020   19.2006 N   0  0  0  0  0  0  0  0  0  0  0  0
    7.8797  -13.7421   18.3257 C   0  0  0  0  0  0  0  0  0  0  0  0
    7.0112  -12.9923   19.3356 C   0  0  0  0  0  0  0  0  0  0  0  0
    7.9900  -12.9038   20.5077 C   0  0  0  0  0  0  0  0  0  0  0  0
    8.9290  -14.0800   20.3358 C   0  0  1  0  0  0  0  0  0  0  0  0
    8.9316  -14.9385   21.5655 C   0  0  0  0  0  0  0  0  0  0  0  0
    7.9591  -14.9269   22.3283 O   0  0  0  0  0  0  0  0  0  0  0  0
   10.0400  -15.7683   21.8664 N   0  0  0  0  0  0  0  0  0  0  0  0
   10.2532  -16.4428   23.0916 C   0  0  1  0  0  0  0  0  0  0  0  0
   11.2895  -17.5163   23.0871 C   0  0  0  0  0  0  0  0  0  0  0  0
   11.2173  -18.3618   21.8402 C   0  0  0  0  0  0  0  0  0  0  0  0
   12.3246  -19.3489   21.7848 C   0  0  0  0  0  0  0  0  0  0  0  0
   12.2443  -20.4649   22.3596 O   0  0  0  0  0  0  0  0  0  0  0  0
   10.4307  -15.5563   24.2830 C   0  0  0  0  0  0  0  0  0  0  0  0
   10.8042  -14.3978   24.0401 O   0  0  0  0  0  0  0  0  0  0  0  0
   13.4798  -19.0392   21.0833 O   0  0  0  0  0  0  0  0  0  0  0  0
    7.9526  -14.2185   26.6025 C   0  0  0  0  0  0  0  0  0  0  0  0
    9.4314  -13.9239   26.7434 C   0  0  1  0  0  0  0  0  0  0  0  0
    9.6257  -13.0531   27.9472 C   0  0  0  0  0  0  0  0  0  0  0  0
   10.1903  -15.2075   26.7954 C   0  0  2  0  0  0  0  0  0  0  0  0
   10.2006  -15.9750   25.5997 N   0  0  0  0  0  0  0  0  0  0  0  0
    9.9370  -15.9253   28.0639 C   0  0  0  0  0  0  0  0  0  0  0  0
   10.3269  -15.3695   29.2748 O   0  0  0  0  0  0  0  0  0  0  0  0
    9.3811  -17.0243   28.0990 O   0  0  0  0  0  0  0  0  0  0  0  0
  1  5  1  0
  1  2  1  0
  2  3  1  0
  4  3  1  0
  5  4  1  0
  6  8  1  0
  5  6  1  1
  7  6  2  0
  9  8  1  0
 10 11  1  0
  9 10  1  6
 12 16  1  0
 12 11  1  0
 13 12  2  0
 14  9  1  0
 14 21  1  0
 15 14  2  0
 18 17  1  1
 18 20  1  0
 19 18  1  0
 20 21  1  6
 20 22  1  0
 22 23  1  0
 24 22  2  0
M  END
$$$$
