PEV.pdb
     RDKit          3D

 24 24  0  0  1  0  0  0  0  0999 V2000
    8.7281  -14.8401   19.1357 N   0  0  0  0  0  0  0  0  0  0  0  0
    8.6259  -14.2893   17.7779 C   0  0  0  0  0  0  0  0  0  0  0  0
    7.3677  -13.4390   17.9512 C   0  0  0  0  0  0  0  0  0  0  0  0
    7.7040  -12.7396   19.2693 C   0  0  0  0  0  0  0  0  0  0  0  0
    8.6598  -13.6716   19.9853 C   0  0  1  0  0  0  0  0  0  0  0  0
    8.1343  -14.0253   21.3447 C   0  0  0  0  0  0  0  0  0  0  0  0
    7.8440  -13.1302   22.1462 O   0  0  0  0  0  0  0  0  0  0  0  0
    7.9643  -15.3796   21.7250 N   0  0  0  0  0  0  0  0  0  0  0  0
    7.5688  -15.8301   23.0065 C   0  0  1  0  0  0  0  0  0  0  0  0
    7.5139  -17.3082   23.2030 C   0  0  0  0  0  0  0  0  0  0  0  0
    6.9056  -17.6761   24.5332 C   0  0  0  0  0  0  0  0  0  0  0  0
    6.8498  -19.1476   24.7200 C   0  0  0  0  0  0  0  0  0  0  0  0
    7.8910  -19.8534   24.7220 O   0  0  0  0  0  0  0  0  0  0  0  0
    8.2738  -15.1806   24.1544 C   0  0  0  0  0  0  0  0  0  0  0  0
    9.5121  -15.2655   24.1423 O   0  0  0  0  0  0  0  0  0  0  0  0
    5.6216  -19.7664   24.8971 O   0  0  0  0  0  0  0  0  0  0  0  0
    7.2681  -11.6391   25.7010 C   0  0  0  0  0  0  0  0  0  0  0  0
    7.3892  -12.6609   26.8123 C   0  0  1  0  0  0  0  0  0  0  0  0
    6.0118  -12.9908   27.3011 C   0  0  0  0  0  0  0  0  0  0  0  0
    8.1560  -13.8419   26.3191 C   0  0  2  0  0  0  0  0  0  0  0  0
    7.6103  -14.5137   25.1921 N   0  0  0  0  0  0  0  0  0  0  0  0
    8.6331  -14.6754   27.4442 C   0  0  0  0  0  0  0  0  0  0  0  0
    9.4440  -14.1275   28.4290 O   0  0  0  0  0  0  0  0  0  0  0  0
    8.3376  -15.8665   27.5530 O   0  0  0  0  0  0  0  0  0  0  0  0
  1  5  1  0
  1  2  1  0
  2  3  1  0
  4  3  1  0
  5  4  1  0
  6  8  1  0
  5  6  1  1
  7  6  2  0
  9  8  1  0
 10 11  1  0
  9 10  1  6
 12 16  1  0
 12 11  1  0
 13 12  2  0
 14  9  1  0
 14 21  1  0
 15 14  2  0
 18 17  1  6
 18 20  1  0
 19 18  1  0
 20 21  1  6
 20 22  1  0
 22 23  1  0
 24 22  2  0
M  END
$$$$
