PEV.pdb
     RDKit          3D

 24 24  0  0  1  0  0  0  0  0999 V2000
    8.4289  -15.1552   18.8963 N   0  0  0  0  0  0  0  0  0  0  0  0
    8.2450  -14.4966   17.5963 C   0  0  0  0  0  0  0  0  0  0  0  0
    7.3204  -13.3578   18.0260 C   0  0  0  0  0  0  0  0  0  0  0  0
    8.0627  -12.8743   19.2729 C   0  0  0  0  0  0  0  0  0  0  0  0
    8.8355  -14.0780   19.7716 C   0  0  1  0  0  0  0  0  0  0  0  0
    8.4807  -14.3804   21.1970 C   0  0  0  0  0  0  0  0  0  0  0  0
    8.6556  -13.5245   22.0714 O   0  0  0  0  0  0  0  0  0  0  0  0
    7.9439  -15.6412   21.5573 N   0  0  0  0  0  0  0  0  0  0  0  0
    7.5717  -16.0330   22.8648 C   0  0  1  0  0  0  0  0  0  0  0  0
    7.7161  -17.4820   23.1903 C   0  0  0  0  0  0  0  0  0  0  0  0
    7.2604  -17.7906   24.5946 C   0  0  0  0  0  0  0  0  0  0  0  0
    6.8980  -19.2217   24.7491 C   0  0  0  0  0  0  0  0  0  0  0  0
    7.5679  -20.1357   24.2029 O   0  0  0  0  0  0  0  0  0  0  0  0
    8.1403  -15.1954   23.9656 C   0  0  0  0  0  0  0  0  0  0  0  0
    9.3784  -15.1927   24.0543 O   0  0  0  0  0  0  0  0  0  0  0  0
    5.7939  -19.5669   25.5135 O   0  0  0  0  0  0  0  0  0  0  0  0
    5.5632  -12.9873   26.8008 C   0  0  0  0  0  0  0  0  0  0  0  0
    6.8323  -12.4355   26.1855 C   0  0  1  0  0  0  0  0  0  0  0  0
    7.3992  -11.4078   27.1168 C   0  0  0  0  0  0  0  0  0  0  0  0
    7.7659  -13.5592   25.8825 C   0  0  2  0  0  0  0  0  0  0  0  0
    7.3553  -14.4520   24.8561 N   0  0  0  0  0  0  0  0  0  0  0  0
    8.3074  -14.1520   27.1250 C   0  0  0  0  0  0  0  0  0  0  0  0
    8.2206  -15.5198   27.3458 O   0  0  0  0  0  0  0  0  0  0  0  0
    8.8470  -13.4712   27.9987 O   0  0  0  0  0  0  0  0  0  0  0  0
  1  5  1  0
  1  2  1  0
  2  3  1  0
  4  3  1  0
  5  4  1  0
  6  8  1  0
  5  6  1  1
  7  6  2  0
  9  8  1  0
 10 11  1  0
  9 10  1  1
 12 16  1  0
 12 11  1  0
 13 12  2  0
 14  9  1  0
 14 21  1  0
 15 14  2  0
 18 17  1  1
 18 20  1  0
 19 18  1  0
 20 21  1  1
 20 22  1  0
 22 23  1  0
 24 22  2  0
M  END
$$$$
