PEV.pdb
     RDKit          3D

 24 24  0  0  1  0  0  0  0  0999 V2000
    8.6332  -14.9835   19.2165 N   0  0  0  0  0  0  0  0  0  0  0  0
    8.5673  -14.4797   17.8383 C   0  0  0  0  0  0  0  0  0  0  0  0
    7.2896  -13.6471   17.9414 C   0  0  0  0  0  0  0  0  0  0  0  0
    7.5694  -12.8988   19.2457 C   0  0  0  0  0  0  0  0  0  0  0  0
    8.5163  -13.7891   20.0237 C   0  0  1  0  0  0  0  0  0  0  0  0
    7.9516  -14.1074   21.3762 C   0  0  0  0  0  0  0  0  0  0  0  0
    7.5905  -13.1927   22.1249 O   0  0  0  0  0  0  0  0  0  0  0  0
    7.8248  -15.4504   21.8096 N   0  0  0  0  0  0  0  0  0  0  0  0
    7.4643  -15.8625   23.1142 C   0  0  1  0  0  0  0  0  0  0  0  0
    7.4164  -17.3341   23.3562 C   0  0  0  0  0  0  0  0  0  0  0  0
    6.7852  -17.6648   24.6855 C   0  0  0  0  0  0  0  0  0  0  0  0
    6.8124  -19.1242   24.9551 C   0  0  0  0  0  0  0  0  0  0  0  0
    7.6748  -19.6405   25.7114 O   0  0  0  0  0  0  0  0  0  0  0  0
    8.1989  -15.1786   24.2228 C   0  0  0  0  0  0  0  0  0  0  0  0
    9.4368  -15.2565   24.1757 O   0  0  0  0  0  0  0  0  0  0  0  0
    5.8659  -19.9452   24.3611 O   0  0  0  0  0  0  0  0  0  0  0  0
    7.1536  -11.6177   25.7034 C   0  0  0  0  0  0  0  0  0  0  0  0
    7.3614  -12.5969   26.8399 C   0  0  1  0  0  0  0  0  0  0  0  0
    6.0210  -12.9484   27.4099 C   0  0  0  0  0  0  0  0  0  0  0  0
    8.1369  -13.7722   26.3465 C   0  0  2  0  0  0  0  0  0  0  0  0
    7.5622  -14.4883   25.2621 N   0  0  0  0  0  0  0  0  0  0  0  0
    8.6815  -14.5621   27.4725 C   0  0  0  0  0  0  0  0  0  0  0  0
    9.4415  -13.9473   28.4583 O   0  0  0  0  0  0  0  0  0  0  0  0
    8.4881  -15.7740   27.5810 O   0  0  0  0  0  0  0  0  0  0  0  0
  1  5  1  0
  1  2  1  0
  2  3  1  0
  4  3  1  0
  5  4  1  0
  6  8  1  0
  5  6  1  1
  7  6  2  0
  9  8  1  0
 10 11  1  0
  9 10  1  6
 12 16  1  0
 12 11  1  0
 13 12  2  0
 14  9  1  0
 14 21  1  0
 15 14  2  0
 18 17  1  6
 18 20  1  0
 19 18  1  0
 20 21  1  1
 20 22  1  0
 22 23  1  0
 24 22  2  0
M  END
$$$$
