PEV.pdb
     RDKit          3D

 24 24  0  0  1  0  0  0  0  0999 V2000
    8.5674  -15.0507   19.3533 N   0  0  0  0  0  0  0  0  0  0  0  0
    8.4515  -14.5803   17.9667 C   0  0  0  0  0  0  0  0  0  0  0  0
    7.1755  -13.7486   18.0947 C   0  0  0  0  0  0  0  0  0  0  0  0
    7.4983  -12.9686   19.3702 C   0  0  0  0  0  0  0  0  0  0  0  0
    8.4750  -13.8376   20.1354 C   0  0  1  0  0  0  0  0  0  0  0  0
    7.9591  -14.1247   21.5141 C   0  0  0  0  0  0  0  0  0  0  0  0
    7.6836  -13.1918   22.2766 O   0  0  0  0  0  0  0  0  0  0  0  0
    7.7813  -15.4589   21.9569 N   0  0  0  0  0  0  0  0  0  0  0  0
    7.4562  -15.8504   23.2770 C   0  0  1  0  0  0  0  0  0  0  0  0
    7.4344  -17.3175   23.5481 C   0  0  0  0  0  0  0  0  0  0  0  0
    6.8599  -17.6293   24.9074 C   0  0  0  0  0  0  0  0  0  0  0  0
    6.8198  -19.0913   25.1611 C   0  0  0  0  0  0  0  0  0  0  0  0
    7.3973  -19.6059   26.1531 O   0  0  0  0  0  0  0  0  0  0  0  0
    8.2061  -15.1353   24.3552 C   0  0  0  0  0  0  0  0  0  0  0  0
    9.4429  -15.2257   24.3006 O   0  0  0  0  0  0  0  0  0  0  0  0
    6.1299  -19.9166   24.2861 O   0  0  0  0  0  0  0  0  0  0  0  0
    7.1193  -11.5254   25.6723 C   0  0  0  0  0  0  0  0  0  0  0  0
    7.3865  -12.4340   26.8541 C   0  0  1  0  0  0  0  0  0  0  0  0
    6.0737  -12.7821   27.4869 C   0  0  0  0  0  0  0  0  0  0  0  0
    8.1738  -13.6178   26.4018 C   0  0  2  0  0  0  0  0  0  0  0  0
    7.5843  -14.4039   25.3753 N   0  0  0  0  0  0  0  0  0  0  0  0
    8.7684  -14.3335   27.5518 C   0  0  0  0  0  0  0  0  0  0  0  0
    9.5247  -13.6461   28.4914 O   0  0  0  0  0  0  0  0  0  0  0  0
    8.6211  -15.5449   27.7211 O   0  0  0  0  0  0  0  0  0  0  0  0
  1  5  1  0
  1  2  1  0
  2  3  1  0
  4  3  1  0
  5  4  1  0
  6  8  1  0
  5  6  1  1
  7  6  2  0
  9  8  1  0
 10 11  1  0
  9 10  1  6
 12 16  1  0
 12 11  1  0
 13 12  2  0
 14  9  1  0
 14 21  1  0
 15 14  2  0
 18 17  1  6
 18 20  1  0
 19 18  1  0
 20 21  1  1
 20 22  1  0
 22 23  1  0
 24 22  2  0
M  END
$$$$
