PEV.pdb
     RDKit          3D

 24 24  0  0  1  0  0  0  0  0999 V2000
    8.9909  -14.5641   19.0709 N   0  0  0  0  0  0  0  0  0  0  0  0
    8.6059  -14.0678   17.7431 C   0  0  0  0  0  0  0  0  0  0  0  0
    7.2047  -13.5520   18.0699 C   0  0  0  0  0  0  0  0  0  0  0  0
    7.5035  -12.7795   19.3558 C   0  0  0  0  0  0  0  0  0  0  0  0
    8.7327  -13.4408   19.9445 C   0  0  1  0  0  0  0  0  0  0  0  0
    8.4651  -13.9006   21.3468 C   0  0  0  0  0  0  0  0  0  0  0  0
    8.1015  -13.0877   22.2040 O   0  0  0  0  0  0  0  0  0  0  0  0
    8.6235  -15.2624   21.7044 N   0  0  0  0  0  0  0  0  0  0  0  0
    8.3539  -15.8144   22.9788 C   0  0  1  0  0  0  0  0  0  0  0  0
    8.7330  -17.2439   23.1771 C   0  0  0  0  0  0  0  0  0  0  0  0
   10.2290  -17.4355   23.1652 C   0  0  0  0  0  0  0  0  0  0  0  0
   10.6116  -18.7786   23.6681 C   0  0  0  0  0  0  0  0  0  0  0  0
   11.8156  -19.1063   23.8272 O   0  0  0  0  0  0  0  0  0  0  0  0
    8.8144  -14.9905   24.1389 C   0  0  0  0  0  0  0  0  0  0  0  0
   10.0015  -14.6296   24.1044 O   0  0  0  0  0  0  0  0  0  0  0  0
    9.6215  -19.7005   23.9721 O   0  0  0  0  0  0  0  0  0  0  0  0
    7.2079  -11.8201   25.5669 C   0  0  0  0  0  0  0  0  0  0  0  0
    7.3261  -12.7927   26.7218 C   0  0  1  0  0  0  0  0  0  0  0  0
    5.9551  -13.2968   27.0554 C   0  0  0  0  0  0  0  0  0  0  0  0
    8.2974  -13.8683   26.3672 C   0  0  2  0  0  0  0  0  0  0  0  0
    7.9865  -14.6333   25.2108 N   0  0  0  0  0  0  0  0  0  0  0  0
    8.7415  -14.6036   27.5716 C   0  0  0  0  0  0  0  0  0  0  0  0
    9.1966  -13.9137   28.6871 O   0  0  0  0  0  0  0  0  0  0  0  0
    8.7270  -15.8339   27.6346 O   0  0  0  0  0  0  0  0  0  0  0  0
  1  5  1  0
  1  2  1  0
  2  3  1  0
  4  3  1  0
  5  4  1  0
  6  8  1  0
  5  6  1  1
  7  6  2  0
  9  8  1  0
 10 11  1  0
  9 10  1  6
 12 16  1  0
 12 11  1  0
 13 12  2  0
 14  9  1  0
 14 21  1  0
 15 14  2  0
 18 17  1  6
 18 20  1  0
 19 18  1  0
 20 21  1  6
 20 22  1  0
 22 23  1  0
 24 22  2  0
M  END
$$$$
