PEV.pdb
     RDKit          3D

 24 24  0  0  1  0  0  0  0  0999 V2000
    9.0008  -14.8821   19.0116 N   0  0  0  0  0  0  0  0  0  0  0  0
    8.8842  -14.3745   17.6381 C   0  0  0  0  0  0  0  0  0  0  0  0
    7.4790  -13.7779   17.7146 C   0  0  0  0  0  0  0  0  0  0  0  0
    7.5905  -13.0142   19.0352 C   0  0  0  0  0  0  0  0  0  0  0  0
    8.6572  -13.7397   19.8292 C   0  0  1  0  0  0  0  0  0  0  0  0
    8.1213  -14.1735   21.1611 C   0  0  0  0  0  0  0  0  0  0  0  0
    7.6432  -13.3375   21.9359 O   0  0  0  0  0  0  0  0  0  0  0  0
    8.1551  -15.5368   21.5455 N   0  0  0  0  0  0  0  0  0  0  0  0
    7.7909  -16.0420   22.8158 C   0  0  1  0  0  0  0  0  0  0  0  0
    7.9827  -17.5064   23.0280 C   0  0  0  0  0  0  0  0  0  0  0  0
    9.4388  -17.8959   22.9759 C   0  0  0  0  0  0  0  0  0  0  0  0
    9.6317  -19.3325   23.2959 C   0  0  0  0  0  0  0  0  0  0  0  0
   10.6591  -19.9589   22.9295 O   0  0  0  0  0  0  0  0  0  0  0  0
    8.3263  -15.2748   23.9826 C   0  0  0  0  0  0  0  0  0  0  0  0
    9.5469  -15.0501   23.9637 O   0  0  0  0  0  0  0  0  0  0  0  0
    8.6583  -20.0073   24.0169 O   0  0  0  0  0  0  0  0  0  0  0  0
    7.4384  -12.1811   27.7085 C   0  0  0  0  0  0  0  0  0  0  0  0
    6.8266  -13.1555   26.7237 C   0  0  1  0  0  0  0  0  0  0  0  0
    6.0810  -12.3717   25.6870 C   0  0  0  0  0  0  0  0  0  0  0  0
    7.8957  -14.0342   26.1660 C   0  0  2  0  0  0  0  0  0  0  0  0
    7.5303  -14.8261   25.0442 N   0  0  0  0  0  0  0  0  0  0  0  0
    8.6601  -14.6949   27.2466 C   0  0  0  0  0  0  0  0  0  0  0  0
    9.3160  -13.9367   28.2070 O   0  0  0  0  0  0  0  0  0  0  0  0
    8.7458  -15.9205   27.3382 O   0  0  0  0  0  0  0  0  0  0  0  0
  1  5  1  0
  1  2  1  0
  2  3  1  0
  4  3  1  0
  5  4  1  0
  6  8  1  0
  5  6  1  1
  7  6  2  0
  9  8  1  0
 10 11  1  0
  9 10  1  1
 12 16  1  0
 12 11  1  0
 13 12  2  0
 14  9  1  0
 14 21  1  0
 15 14  2  0
 18 17  1  1
 18 20  1  0
 19 18  1  0
 20 21  1  6
 20 22  1  0
 22 23  1  0
 24 22  2  0
M  END
$$$$
