WRK.pdb
     RDKit          3D

 35 36  0  0  1  0  0  0  0  0999 V2000
    6.0808  -18.3058   25.0475 N   0  0  0  0  0  0  0  0  0  0  0  0
    6.6251  -16.9991   24.9131 C   0  0  1  0  0  0  0  0  0  0  0  0
    7.3654  -16.4591   26.0814 C   0  0  0  0  0  0  0  0  0  0  0  0
    6.7413  -15.1981   26.5312 C   0  0  0  0  0  0  0  0  0  0  0  0
    5.6797  -15.0493   27.4076 C   0  0  0  0  0  0  0  0  0  0  0  0
    5.4111  -13.7474   27.5848 N   0  0  0  0  0  0  0  0  0  0  0  0
    6.2650  -13.0184   26.8494 C   0  0  0  0  0  0  0  0  0  0  0  0
    6.4324  -11.6687   26.6554 C   0  0  0  0  0  0  0  0  0  0  0  0
    7.4111  -11.1597   25.8162 C   0  0  0  0  0  0  0  0  0  0  0  0
    8.2526  -12.0284   25.1464 C   0  0  0  0  0  0  0  0  0  0  0  0
    8.0820  -13.3880   25.3435 C   0  0  0  0  0  0  0  0  0  0  0  0
    7.1087  -13.9179   26.1800 C   0  0  0  0  0  0  0  0  0  0  0  0
    7.4019  -16.9117   23.6414 C   0  0  0  0  0  0  0  0  0  0  0  0
    8.0939  -17.9018   23.2755 O   0  0  0  0  0  0  0  0  0  0  0  0
    9.8752  -14.4399   17.3079 N   0  0  0  0  0  0  0  0  0  0  0  0
    8.5756  -14.2887   16.7108 C   0  0  0  0  0  0  0  0  0  0  0  0
    8.3748  -14.8016   15.5491 N   0  0  0  0  0  0  0  0  0  0  0  0
    7.5683  -13.5961   17.3954 N   0  0  0  0  0  0  0  0  0  0  0  0
    7.8694  -13.0645   18.7595 C   0  0  0  0  0  0  0  0  0  0  0  0
    8.3491  -14.1919   19.5600 C   0  0  0  0  0  0  0  0  0  0  0  0
    7.7750  -14.6043   20.8334 C   0  0  0  0  0  0  0  0  0  0  0  0
    8.2512  -15.7775   21.6042 C   0  0  2  0  0  0  0  0  0  0  0  0
    7.3953  -15.7697   22.8318 N   0  0  0  0  0  0  0  0  0  0  0  0
    9.6497  -15.6383   22.0946 C   0  0  0  0  0  0  0  0  0  0  0  0
   10.0822  -14.6737   22.7351 O   0  0  0  0  0  0  0  0  0  0  0  0
    7.4789  -14.6965   15.0360 N   0  0  0  0  0  0  0  0  0  0  0  0
   10.6474  -16.6691   21.8433 C   0  0  2  0  0  0  0  0  0  0  0  0
   12.0056  -16.5386   22.3675 C   0  0  0  0  0  0  0  0  0  0  0  0
   12.5407  -17.8800   22.8238 C   0  0  0  0  0  0  0  0  0  0  0  0
   11.9179  -18.2455   24.1227 C   0  0  0  0  0  0  0  0  0  0  0  0
   12.2494  -19.6296   24.6131 C   0  0  0  0  0  0  0  0  0  0  0  0
   11.5872  -20.0194   25.8886 N   0  0  0  0  0  0  0  0  0  0  0  0
   11.8846  -21.4332   26.1168 C   0  0  0  0  0  0  0  0  0  0  0  0
   12.8385  -15.9669   21.2774 O   0  0  0  0  0  0  0  0  0  0  0  0
   12.5504  -16.2282   19.9475 O   0  0  0  0  0  0  0  0  0  0  0  0
  2  1  1  1
  3  2  1  0
  4  3  1  0
  4  5  2  0
  6  5  1  0
  7 12  2  0
  7  6  1  0
  8  7  1  0
  9 10  1  0
  9  8  2  0
 10 11  2  0
 11 12  1  0
 12  4  1  0
 13  2  1  0
 14 13  2  0
 15 16  1  0
 16 17  2  0
 18 16  1  0
 18 19  1  0
 20 21  1  0
 20 19  1  0
 22 21  1  6
 22 23  1  0
 22 24  1  0
 23 13  1  0
 24 25  2  0
 26 24  1  0
 26 27  1  0
 27 33  1  0
 27 28  1  1
 29 28  1  0
 30 29  1  0
 31 30  1  0
 31 32  1  0
 33 34  1  0
 35 33  2  0
M  END
$$$$
