WRK.pdb
     RDKit          3D

 35 36  0  0  1  0  0  0  0  0999 V2000
    6.2363  -17.2665   25.5343 N   0  0  0  0  0  0  0  0  0  0  0  0
    6.9410  -16.1500   25.0063 C   0  0  1  0  0  0  0  0  0  0  0  0
    8.1506  -15.7109   25.7469 C   0  0  0  0  0  0  0  0  0  0  0  0
    7.7813  -14.6932   26.7518 C   0  0  0  0  0  0  0  0  0  0  0  0
    8.1286  -14.6678   28.0920 C   0  0  0  0  0  0  0  0  0  0  0  0
    7.6206  -13.5728   28.6761 N   0  0  0  0  0  0  0  0  0  0  0  0
    6.9406  -12.8626   27.7624 C   0  0  0  0  0  0  0  0  0  0  0  0
    6.2322  -11.6866   27.8141 C   0  0  0  0  0  0  0  0  0  0  0  0
    5.6002  -11.1565   26.7002 C   0  0  0  0  0  0  0  0  0  0  0  0
    5.6775  -11.8236   25.4917 C   0  0  0  0  0  0  0  0  0  0  0  0
    6.3919  -13.0083   25.4421 C   0  0  0  0  0  0  0  0  0  0  0  0
    7.0325  -13.5557   26.5458 C   0  0  0  0  0  0  0  0  0  0  0  0
    7.1961  -16.3651   23.5512 C   0  0  0  0  0  0  0  0  0  0  0  0
    7.3417  -17.5428   23.1211 O   0  0  0  0  0  0  0  0  0  0  0  0
    9.3728  -13.0780   16.3223 N   0  0  0  0  0  0  0  0  0  0  0  0
    8.2168  -13.8986   16.0800 C   0  0  0  0  0  0  0  0  0  0  0  0
    7.5555  -13.7148   14.9930 N   0  0  0  0  0  0  0  0  0  0  0  0
    7.8388  -14.8679   17.0185 N   0  0  0  0  0  0  0  0  0  0  0  0
    8.6524  -15.0095   18.2643 C   0  0  0  0  0  0  0  0  0  0  0  0
    8.1247  -14.0448   19.2301 C   0  0  0  0  0  0  0  0  0  0  0  0
    7.4755  -14.4021   20.4839 C   0  0  0  0  0  0  0  0  0  0  0  0
    7.8323  -15.6024   21.2772 C   0  0  2  0  0  0  0  0  0  0  0  0
    7.2815  -15.3083   22.6373 N   0  0  0  0  0  0  0  0  0  0  0  0
    9.2983  -15.7722   21.4710 C   0  0  0  0  0  0  0  0  0  0  0  0
   10.0458  -14.9333   21.9860 O   0  0  0  0  0  0  0  0  0  0  0  0
    6.7507  -14.3095   14.7179 N   0  0  0  0  0  0  0  0  0  0  0  0
    9.9831  -16.9865   21.0495 C   0  0  2  0  0  0  0  0  0  0  0  0
   11.4160  -17.1561   21.2831 C   0  0  0  0  0  0  0  0  0  0  0  0
   11.7085  -18.5126   21.8901 C   0  0  0  0  0  0  0  0  0  0  0  0
   11.6484  -18.4152   23.3718 C   0  0  0  0  0  0  0  0  0  0  0  0
   11.8608  -19.7166   24.0979 C   0  0  0  0  0  0  0  0  0  0  0  0
   11.9486  -19.6019   25.5800 N   0  0  0  0  0  0  0  0  0  0  0  0
   11.9915  -20.9612   26.1181 C   0  0  0  0  0  0  0  0  0  0  0  0
   12.0919  -16.9947   19.9694 O   0  0  0  0  0  0  0  0  0  0  0  0
   11.3588  -16.8706   18.8002 O   0  0  0  0  0  0  0  0  0  0  0  0
  2  1  1  1
  3  2  1  0
  4  3  1  0
  4  5  2  0
  6  5  1  0
  7 12  2  0
  7  6  1  0
  8  7  1  0
  9 10  1  0
  9  8  2  0
 10 11  2  0
 11 12  1  0
 12  4  1  0
 13  2  1  0
 14 13  2  0
 15 16  1  0
 16 17  2  0
 18 16  1  0
 18 19  1  0
 20 21  1  0
 20 19  1  0
 22 21  1  6
 22 23  1  0
 22 24  1  0
 23 13  1  0
 24 25  2  0
 26 24  1  0
 26 27  1  0
 27 33  1  0
 27 28  1  1
 29 28  1  0
 30 29  1  0
 31 30  1  0
 31 32  1  0
 33 34  1  0
 35 33  2  0
M  END
$$$$
