WRK.pdb
     RDKit          3D

 35 36  0  0  1  0  0  0  0  0999 V2000
    6.8727  -16.8378   26.0879 N   0  0  0  0  0  0  0  0  0  0  0  0
    7.4928  -15.9324   25.1837 C   0  0  1  0  0  0  0  0  0  0  0  0
    8.5369  -15.0374   25.7435 C   0  0  0  0  0  0  0  0  0  0  0  0
    7.9199  -14.0628   26.6661 C   0  0  0  0  0  0  0  0  0  0  0  0
    8.0014  -14.0429   28.0482 C   0  0  0  0  0  0  0  0  0  0  0  0
    7.3245  -12.9911   28.5318 N   0  0  0  0  0  0  0  0  0  0  0  0
    6.7902  -12.3045   27.5097 C   0  0  0  0  0  0  0  0  0  0  0  0
    6.0143  -11.1734   27.4329 C   0  0  0  0  0  0  0  0  0  0  0  0
    5.5765  -10.6598   26.2222 C   0  0  0  0  0  0  0  0  0  0  0  0
    5.9251  -11.2978   25.0462 C   0  0  0  0  0  0  0  0  0  0  0  0
    6.7070  -12.4374   25.1261 C   0  0  0  0  0  0  0  0  0  0  0  0
    7.1563  -12.9674   26.3284 C   0  0  0  0  0  0  0  0  0  0  0  0
    7.9512  -16.6743   23.9722 C   0  0  0  0  0  0  0  0  0  0  0  0
    8.0933  -17.9269   24.0367 O   0  0  0  0  0  0  0  0  0  0  0  0
    8.6479  -12.4696   17.9422 N   0  0  0  0  0  0  0  0  0  0  0  0
    8.0527  -13.5399   17.1881 C   0  0  0  0  0  0  0  0  0  0  0  0
    8.3112  -13.6175   15.9311 N   0  0  0  0  0  0  0  0  0  0  0  0
    7.2152  -14.4635   17.8273 N   0  0  0  0  0  0  0  0  0  0  0  0
    7.2114  -14.5075   19.3213 C   0  0  0  0  0  0  0  0  0  0  0  0
    7.8133  -15.7832   19.7118 C   0  0  0  0  0  0  0  0  0  0  0  0
    8.9992  -15.9157   20.5469 C   0  0  0  0  0  0  0  0  0  0  0  0
    9.0585  -16.7743   21.7537 C   0  0  2  0  0  0  0  0  0  0  0  0
    8.2324  -16.0350   22.7590 N   0  0  0  0  0  0  0  0  0  0  0  0
   10.4191  -16.8681   22.3498 C   0  0  0  0  0  0  0  0  0  0  0  0
   11.0127  -15.9385   22.9078 O   0  0  0  0  0  0  0  0  0  0  0  0
    7.9215  -14.3624   15.3225 N   0  0  0  0  0  0  0  0  0  0  0  0
   11.1780  -18.1107   22.3154 C   0  0  2  0  0  0  0  0  0  0  0  0
   12.5534  -18.1605   22.8078 C   0  0  0  0  0  0  0  0  0  0  0  0
   12.9539  -19.5802   23.1515 C   0  0  0  0  0  0  0  0  0  0  0  0
   12.4463  -19.9237   24.5053 C   0  0  0  0  0  0  0  0  0  0  0  0
   12.6439  -21.3612   24.9063 C   0  0  0  0  0  0  0  0  0  0  0  0
   12.0482  -21.7346   26.2190 N   0  0  0  0  0  0  0  0  0  0  0  0
   12.2841  -23.1653   26.4106 C   0  0  0  0  0  0  0  0  0  0  0  0
   13.4181  -17.5991   21.7374 O   0  0  0  0  0  0  0  0  0  0  0  0
   14.5502  -16.8627   22.0475 O   0  0  0  0  0  0  0  0  0  0  0  0
  2  1  1  1
  3  2  1  0
  4  3  1  0
  4  5  2  0
  6  5  1  0
  7 12  2  0
  7  6  1  0
  8  7  1  0
  9 10  1  0
  9  8  2  0
 10 11  2  0
 11 12  1  0
 12  4  1  0
 13  2  1  0
 14 13  2  0
 15 16  1  0
 16 17  2  0
 18 16  1  0
 18 19  1  0
 20 21  1  0
 20 19  1  0
 22 21  1  6
 22 23  1  0
 22 24  1  0
 23 13  1  0
 24 25  2  0
 26 24  1  0
 26 27  1  0
 27 33  1  0
 27 28  1  1
 29 28  1  0
 30 29  1  0
 31 30  1  0
 31 32  1  0
 33 34  1  0
 35 33  2  0
M  END
$$$$
