WRK.pdb
     RDKit          3D

 35 36  0  0  1  0  0  0  0  0999 V2000
    6.4286  -17.4719   24.2303 N   0  0  0  0  0  0  0  0  0  0  0  0
    7.2655  -16.3784   23.8756 C   0  0  1  0  0  0  0  0  0  0  0  0
    8.0457  -15.7498   24.9714 C   0  0  0  0  0  0  0  0  0  0  0  0
    7.1586  -14.9072   25.7991 C   0  0  0  0  0  0  0  0  0  0  0  0
    6.1352  -15.3263   26.6324 C   0  0  0  0  0  0  0  0  0  0  0  0
    5.5700  -14.2680   27.2314 N   0  0  0  0  0  0  0  0  0  0  0  0
    6.1873  -13.1490   26.8212 C   0  0  0  0  0  0  0  0  0  0  0  0
    6.0156  -11.8158   27.1045 C   0  0  0  0  0  0  0  0  0  0  0  0
    6.8019  -10.8314   26.5267 C   0  0  0  0  0  0  0  0  0  0  0  0
    7.7950  -11.1902   25.6341 C   0  0  0  0  0  0  0  0  0  0  0  0
    7.9662  -12.5342   25.3503 C   0  0  0  0  0  0  0  0  0  0  0  0
    7.1899  -13.5354   25.9187 C   0  0  0  0  0  0  0  0  0  0  0  0
    8.1094  -16.7569   22.7039 C   0  0  0  0  0  0  0  0  0  0  0  0
    8.6097  -17.9147   22.6561 O   0  0  0  0  0  0  0  0  0  0  0  0
    9.3423  -14.5113   16.6529 N   0  0  0  0  0  0  0  0  0  0  0  0
    8.1068  -13.8078   16.4358 C   0  0  0  0  0  0  0  0  0  0  0  0
    7.5576  -13.8837   15.2759 N   0  0  0  0  0  0  0  0  0  0  0  0
    7.5337  -13.0644   17.4761 N   0  0  0  0  0  0  0  0  0  0  0  0
    8.2069  -13.0695   18.8106 C   0  0  0  0  0  0  0  0  0  0  0  0
    8.3371  -14.4695   19.2171 C   0  0  0  0  0  0  0  0  0  0  0  0
    9.5414  -15.0546   19.7902 C   0  0  0  0  0  0  0  0  0  0  0  0
    9.5257  -16.1858   20.7479 C   0  0  2  0  0  0  0  0  0  0  0  0
    8.3714  -15.8754   21.6484 N   0  0  0  0  0  0  0  0  0  0  0  0
   10.7202  -16.2299   21.6349 C   0  0  0  0  0  0  0  0  0  0  0  0
   11.0861  -15.3102   22.3752 O   0  0  0  0  0  0  0  0  0  0  0  0
    6.6407  -13.4484   15.0591 N   0  0  0  0  0  0  0  0  0  0  0  0
   11.5771  -17.4060   21.6947 C   0  0  2  0  0  0  0  0  0  0  0  0
   12.7323  -17.4446   22.5896 C   0  0  0  0  0  0  0  0  0  0  0  0
   12.8848  -18.8145   23.2174 C   0  0  0  0  0  0  0  0  0  0  0  0
   14.1205  -18.8461   24.0424 C   0  0  0  0  0  0  0  0  0  0  0  0
   14.4243  -20.1797   24.6713 C   0  0  0  0  0  0  0  0  0  0  0  0
   15.5895  -20.1859   25.5986 N   0  0  0  0  0  0  0  0  0  0  0  0
   15.7421  -21.5537   26.0934 C   0  0  0  0  0  0  0  0  0  0  0  0
   13.9236  -17.0872   21.7761 O   0  0  0  0  0  0  0  0  0  0  0  0
   15.0054  -16.4335   22.3439 O   0  0  0  0  0  0  0  0  0  0  0  0
  2  1  1  1
  3  2  1  0
  4  3  1  0
  4  5  2  0
  6  5  1  0
  7 12  2  0
  7  6  1  0
  8  7  1  0
  9 10  1  0
  9  8  2  0
 10 11  2  0
 11 12  1  0
 12  4  1  0
 13  2  1  0
 14 13  2  0
 15 16  1  0
 16 17  2  0
 18 16  1  0
 18 19  1  0
 20 21  1  0
 20 19  1  0
 22 21  1  6
 22 23  1  0
 22 24  1  0
 23 13  1  0
 24 25  2  0
 26 24  1  0
 26 27  1  0
 27 33  1  0
 27 28  1  1
 29 28  1  0
 30 29  1  0
 31 30  1  0
 31 32  1  0
 33 34  1  0
 35 33  2  0
M  END
$$$$
