WRK.pdb
     RDKit          3D

 35 36  0  0  1  0  0  0  0  0999 V2000
    6.4720  -18.3147   25.0116 N   0  0  0  0  0  0  0  0  0  0  0  0
    6.9941  -17.0340   24.6813 C   0  0  1  0  0  0  0  0  0  0  0  0
    7.7102  -16.3050   25.7585 C   0  0  0  0  0  0  0  0  0  0  0  0
    6.8986  -15.1574   26.2125 C   0  0  0  0  0  0  0  0  0  0  0  0
    5.6634  -15.1938   26.8373 C   0  0  0  0  0  0  0  0  0  0  0  0
    5.2531  -13.9475   27.1139 N   0  0  0  0  0  0  0  0  0  0  0  0
    6.1811  -13.0751   26.6904 C   0  0  0  0  0  0  0  0  0  0  0  0
    6.2712  -11.7044   26.7134 C   0  0  0  0  0  0  0  0  0  0  0  0
    7.3617  -11.0278   26.1898 C   0  0  0  0  0  0  0  0  0  0  0  0
    8.3992  -11.7444   25.6226 C   0  0  0  0  0  0  0  0  0  0  0  0
    8.3062  -13.1254   25.6006 C   0  0  0  0  0  0  0  0  0  0  0  0
    7.2232  -13.8220   26.1202 C   0  0  0  0  0  0  0  0  0  0  0  0
    7.7845  -17.1291   23.4185 C   0  0  0  0  0  0  0  0  0  0  0  0
    8.3492  -18.2201   23.1286 O   0  0  0  0  0  0  0  0  0  0  0  0
    8.5205  -12.5977   16.3901 N   0  0  0  0  0  0  0  0  0  0  0  0
    8.4477  -13.9892   16.7463 C   0  0  0  0  0  0  0  0  0  0  0  0
    9.3332  -14.7885   16.2670 N   0  0  0  0  0  0  0  0  0  0  0  0
    7.4290  -14.4407   17.5958 N   0  0  0  0  0  0  0  0  0  0  0  0
    7.1342  -13.6576   18.8343 C   0  0  0  0  0  0  0  0  0  0  0  0
    7.9257  -14.2514   19.9127 C   0  0  0  0  0  0  0  0  0  0  0  0
    7.9632  -15.6740   20.2229 C   0  0  0  0  0  0  0  0  0  0  0  0
    8.7759  -16.2512   21.3199 C   0  0  2  0  0  0  0  0  0  0  0  0
    7.9272  -16.0517   22.5362 N   0  0  0  0  0  0  0  0  0  0  0  0
   10.0334  -15.5005   21.5861 C   0  0  0  0  0  0  0  0  0  0  0  0
   10.0953  -14.3985   22.1424 O   0  0  0  0  0  0  0  0  0  0  0  0
    9.3444  -15.8049   16.4763 N   0  0  0  0  0  0  0  0  0  0  0  0
   11.3312  -16.0318   21.1930 C   0  0  2  0  0  0  0  0  0  0  0  0
   12.3474  -16.3415   22.1970 C   0  0  0  0  0  0  0  0  0  0  0  0
   11.8035  -17.2941   23.2414 C   0  0  0  0  0  0  0  0  0  0  0  0
   12.8421  -17.5407   24.2753 C   0  0  0  0  0  0  0  0  0  0  0  0
   12.4500  -18.5317   25.3385 C   0  0  0  0  0  0  0  0  0  0  0  0
   13.4750  -18.7582   26.3947 N   0  0  0  0  0  0  0  0  0  0  0  0
   12.8910  -19.6713   27.3766 C   0  0  0  0  0  0  0  0  0  0  0  0
   13.5040  -16.9336   21.4756 O   0  0  0  0  0  0  0  0  0  0  0  0
   13.3148  -17.8607   20.4633 O   0  0  0  0  0  0  0  0  0  0  0  0
  2  1  1  1
  3  2  1  0
  4  3  1  0
  4  5  2  0
  6  5  1  0
  7 12  2  0
  7  6  1  0
  8  7  1  0
  9 10  1  0
  9  8  2  0
 10 11  2  0
 11 12  1  0
 12  4  1  0
 13  2  1  0
 14 13  2  0
 15 16  1  0
 16 17  2  0
 18 16  1  0
 18 19  1  0
 20 21  1  0
 20 19  1  0
 22 21  1  6
 22 23  1  0
 22 24  1  0
 23 13  1  0
 24 25  2  0
 26 24  1  0
 26 27  1  0
 27 33  1  0
 27 28  1  1
 29 28  1  0
 30 29  1  0
 31 30  1  0
 31 32  1  0
 33 34  1  0
 35 33  2  0
M  END
$$$$
