WRK.pdb
     RDKit          3D

 35 36  0  0  1  0  0  0  0  0999 V2000
    8.4749  -16.6368   25.4860 N   0  0  0  0  0  0  0  0  0  0  0  0
    7.3431  -17.0295   24.7201 C   0  0  1  0  0  0  0  0  0  0  0  0
    6.0546  -16.3653   25.0411 C   0  0  0  0  0  0  0  0  0  0  0  0
    6.2721  -15.3115   26.0530 C   0  0  0  0  0  0  0  0  0  0  0  0
    6.2145  -15.4414   27.4304 C   0  0  0  0  0  0  0  0  0  0  0  0
    6.4889  -14.2652   28.0132 N   0  0  0  0  0  0  0  0  0  0  0  0
    6.7288  -13.3488   27.0623 C   0  0  0  0  0  0  0  0  0  0  0  0
    7.0465  -12.0126   27.0950 C   0  0  0  0  0  0  0  0  0  0  0  0
    7.2412  -11.2721   25.9396 C   0  0  0  0  0  0  0  0  0  0  0  0
    7.1142  -11.8866   24.7076 C   0  0  0  0  0  0  0  0  0  0  0  0
    6.7940  -13.2331   24.6773 C   0  0  0  0  0  0  0  0  0  0  0  0
    6.5957  -13.9926   25.8226 C   0  0  0  0  0  0  0  0  0  0  0  0
    7.6809  -16.9721   23.2671 C   0  0  0  0  0  0  0  0  0  0  0  0
    6.9168  -17.5372   22.4365 O   0  0  0  0  0  0  0  0  0  0  0  0
    8.8903  -12.9081   16.6218 N   0  0  0  0  0  0  0  0  0  0  0  0
    7.8899  -13.8882   16.9493 C   0  0  0  0  0  0  0  0  0  0  0  0
    7.1063  -14.2954   16.0150 N   0  0  0  0  0  0  0  0  0  0  0  0
    7.7895  -14.3733   18.2599 N   0  0  0  0  0  0  0  0  0  0  0  0
    8.0261  -13.4252   19.3910 C   0  0  0  0  0  0  0  0  0  0  0  0
    7.8358  -14.1824   20.6289 C   0  0  0  0  0  0  0  0  0  0  0  0
    7.9144  -15.6332   20.7301 C   0  0  0  0  0  0  0  0  0  0  0  0
    9.0742  -16.3515   21.3097 C   0  0  2  0  0  0  0  0  0  0  0  0
    8.8176  -16.3135   22.7837 N   0  0  0  0  0  0  0  0  0  0  0  0
   10.3693  -15.6443   21.1141 C   0  0  0  0  0  0  0  0  0  0  0  0
   10.5049  -14.4166   21.0664 O   0  0  0  0  0  0  0  0  0  0  0  0
    6.4522  -15.0917   16.1379 N   0  0  0  0  0  0  0  0  0  0  0  0
   11.6176  -16.3779   20.9573 C   0  0  1  0  0  0  0  0  0  0  0  0
   12.4627  -16.6711   22.1134 C   0  0  0  0  0  0  0  0  0  0  0  0
   11.6920  -17.4412   23.1655 C   0  0  0  0  0  0  0  0  0  0  0  0
   12.6027  -17.7973   24.2845 C   0  0  0  0  0  0  0  0  0  0  0  0
   11.9915  -18.6837   25.3367 C   0  0  0  0  0  0  0  0  0  0  0  0
   12.8819  -18.9974   26.4883 N   0  0  0  0  0  0  0  0  0  0  0  0
   12.1236  -19.8509   27.4025 C   0  0  0  0  0  0  0  0  0  0  0  0
   13.6245  -17.4523   21.6147 O   0  0  0  0  0  0  0  0  0  0  0  0
   14.8946  -17.2502   22.1306 O   0  0  0  0  0  0  0  0  0  0  0  0
  2  1  1  1
  3  2  1  0
  4  3  1  0
  4  5  2  0
  6  5  1  0
  7 12  2  0
  7  6  1  0
  8  7  1  0
  9 10  1  0
  9  8  2  0
 10 11  2  0
 11 12  1  0
 12  4  1  0
 13  2  1  0
 14 13  2  0
 15 16  1  0
 16 17  2  0
 18 16  1  0
 18 19  1  0
 20 21  1  0
 20 19  1  0
 22 21  1  6
 22 23  1  0
 22 24  1  0
 23 13  1  0
 24 25  2  0
 26 24  1  0
 26 27  1  0
 27 33  1  0
 27 28  1  1
 29 28  1  0
 30 29  1  0
 31 30  1  0
 31 32  1  0
 33 34  1  0
 35 33  2  0
M  END
$$$$
