WRK.pdb
     RDKit          3D

 35 36  0  0  1  0  0  0  0  0999 V2000
    6.3399  -18.7346   25.2450 N   0  0  0  0  0  0  0  0  0  0  0  0
    6.9287  -17.4873   24.8999 C   0  0  1  0  0  0  0  0  0  0  0  0
    7.8181  -16.8641   25.9124 C   0  0  0  0  0  0  0  0  0  0  0  0
    7.2446  -15.5787   26.3603 C   0  0  0  0  0  0  0  0  0  0  0  0
    6.1307  -15.3863   27.1600 C   0  0  0  0  0  0  0  0  0  0  0  0
    5.9345  -14.0755   27.3643 N   0  0  0  0  0  0  0  0  0  0  0  0
    6.8879  -13.3829   26.7218 C   0  0  0  0  0  0  0  0  0  0  0  0
    7.1570  -12.0421   26.5904 C   0  0  0  0  0  0  0  0  0  0  0  0
    8.2282  -11.5741   25.8457 C   0  0  0  0  0  0  0  0  0  0  0  0
    9.0605  -12.4761   25.2091 C   0  0  0  0  0  0  0  0  0  0  0  0
    8.7873  -13.8266   25.3429 C   0  0  0  0  0  0  0  0  0  0  0  0
    7.7202  -14.3157   26.0847 C   0  0  0  0  0  0  0  0  0  0  0  0
    7.5644  -17.5924   23.5533 C   0  0  0  0  0  0  0  0  0  0  0  0
    8.1215  -18.6750   23.2203 O   0  0  0  0  0  0  0  0  0  0  0  0
    8.8196  -14.0942   14.6080 N   0  0  0  0  0  0  0  0  0  0  0  0
    8.2307  -13.8769   15.9020 C   0  0  0  0  0  0  0  0  0  0  0  0
    7.9681  -12.6697   16.2576 N   0  0  0  0  0  0  0  0  0  0  0  0
    7.9584  -14.9678   16.7379 N   0  0  0  0  0  0  0  0  0  0  0  0
    7.3699  -14.7033   18.0862 C   0  0  0  0  0  0  0  0  0  0  0  0
    8.0096  -15.6310   19.0201 C   0  0  0  0  0  0  0  0  0  0  0  0
    7.6706  -15.7467   20.4318 C   0  0  0  0  0  0  0  0  0  0  0  0
    8.3009  -16.7277   21.3470 C   0  0  2  0  0  0  0  0  0  0  0  0
    7.5689  -16.5334   22.6378 N   0  0  0  0  0  0  0  0  0  0  0  0
    9.7267  -16.4265   21.6502 C   0  0  0  0  0  0  0  0  0  0  0  0
   10.1487  -15.3391   22.0591 O   0  0  0  0  0  0  0  0  0  0  0  0
    7.5542  -12.4331   17.1794 N   0  0  0  0  0  0  0  0  0  0  0  0
   10.7670  -17.4311   21.4783 C   0  0  1  0  0  0  0  0  0  0  0  0
   12.1632  -17.1207   21.7797 C   0  0  0  0  0  0  0  0  0  0  0  0
   12.8810  -18.3356   22.3301 C   0  0  0  0  0  0  0  0  0  0  0  0
   12.4481  -18.5734   23.7317 C   0  0  0  0  0  0  0  0  0  0  0  0
   13.0473  -19.7939   24.3778 C   0  0  0  0  0  0  0  0  0  0  0  0
   12.5776  -20.0651   25.7646 N   0  0  0  0  0  0  0  0  0  0  0  0
   13.2909  -21.2502   26.2398 C   0  0  0  0  0  0  0  0  0  0  0  0
   12.7864  -16.6519   20.5145 O   0  0  0  0  0  0  0  0  0  0  0  0
   12.2296  -16.9668   19.2854 O   0  0  0  0  0  0  0  0  0  0  0  0
  2  1  1  1
  3  2  1  0
  4  3  1  0
  4  5  2  0
  6  5  1  0
  7 12  2  0
  7  6  1  0
  8  7  1  0
  9 10  1  0
  9  8  2  0
 10 11  2  0
 11 12  1  0
 12  4  1  0
 13  2  1  0
 14 13  2  0
 15 16  1  0
 16 17  2  0
 18 16  1  0
 18 19  1  0
 20 21  1  0
 20 19  1  0
 22 21  1  6
 22 23  1  0
 22 24  1  0
 23 13  1  0
 24 25  2  0
 26 24  1  0
 26 27  1  0
 27 33  1  0
 27 28  1  6
 29 28  1  0
 30 29  1  0
 31 30  1  0
 31 32  1  0
 33 34  1  0
 35 33  2  0
M  END
$$$$
