WRK.pdb
     RDKit          3D

 35 36  0  0  1  0  0  0  0  0999 V2000
    6.6261  -17.5165   23.9433 N   0  0  0  0  0  0  0  0  0  0  0  0
    7.5977  -16.5195   23.6541 C   0  0  1  0  0  0  0  0  0  0  0  0
    8.2804  -15.8937   24.8146 C   0  0  0  0  0  0  0  0  0  0  0  0
    7.3354  -15.0223   25.5423 C   0  0  0  0  0  0  0  0  0  0  0  0
    6.3207  -15.4113   26.4004 C   0  0  0  0  0  0  0  0  0  0  0  0
    5.6897  -14.3310   26.8830 N   0  0  0  0  0  0  0  0  0  0  0  0
    6.2545  -13.2265   26.3705 C   0  0  0  0  0  0  0  0  0  0  0  0
    6.0075  -11.8829   26.5164 C   0  0  0  0  0  0  0  0  0  0  0  0
    6.7512  -10.9197   25.8528 C   0  0  0  0  0  0  0  0  0  0  0  0
    7.7777  -11.3111   25.0134 C   0  0  0  0  0  0  0  0  0  0  0  0
    8.0247  -12.6654   24.8680 C   0  0  0  0  0  0  0  0  0  0  0  0
    7.2921  -13.6457   25.5241 C   0  0  0  0  0  0  0  0  0  0  0  0
    8.5508  -17.0360   22.6279 C   0  0  0  0  0  0  0  0  0  0  0  0
    8.9305  -18.2380   22.6927 O   0  0  0  0  0  0  0  0  0  0  0  0
    8.3230  -12.7821   15.3287 N   0  0  0  0  0  0  0  0  0  0  0  0
    8.1430  -13.7224   16.4020 C   0  0  0  0  0  0  0  0  0  0  0  0
    7.1760  -13.5286   17.2267 N   0  0  0  0  0  0  0  0  0  0  0  0
    9.0112  -14.8149   16.5269 N   0  0  0  0  0  0  0  0  0  0  0  0
    8.6837  -15.8747   17.5287 C   0  0  0  0  0  0  0  0  0  0  0  0
    9.0803  -15.3592   18.8398 C   0  0  0  0  0  0  0  0  0  0  0  0
   10.2247  -15.8371   19.6036 C   0  0  0  0  0  0  0  0  0  0  0  0
   10.1170  -16.8105   20.7163 C   0  0  2  0  0  0  0  0  0  0  0  0
    9.0450  -16.2378   21.5895 N   0  0  0  0  0  0  0  0  0  0  0  0
   11.3340  -16.8727   21.5711 C   0  0  0  0  0  0  0  0  0  0  0  0
   11.5338  -16.1721   22.5697 O   0  0  0  0  0  0  0  0  0  0  0  0
    6.9610  -14.1821   18.0037 N   0  0  0  0  0  0  0  0  0  0  0  0
   12.4191  -17.7992   21.2792 C   0  0  1  0  0  0  0  0  0  0  0  0
   13.4166  -18.1266   22.2962 C   0  0  0  0  0  0  0  0  0  0  0  0
   13.5422  -19.6262   22.4679 C   0  0  0  0  0  0  0  0  0  0  0  0
   14.5855  -19.9224   23.4839 C   0  0  0  0  0  0  0  0  0  0  0  0
   14.7575  -21.3835   23.8029 C   0  0  0  0  0  0  0  0  0  0  0  0
   15.7754  -21.6827   24.8478 N   0  0  0  0  0  0  0  0  0  0  0  0
   15.8883  -23.1380   24.9387 C   0  0  0  0  0  0  0  0  0  0  0  0
   14.7011  -17.5238   21.8542 O   0  0  0  0  0  0  0  0  0  0  0  0
   14.9908  -17.3690   20.5080 O   0  0  0  0  0  0  0  0  0  0  0  0
  2  1  1  1
  3  2  1  0
  4  3  1  0
  4  5  2  0
  6  5  1  0
  7 12  2  0
  7  6  1  0
  8  7  1  0
  9 10  1  0
  9  8  2  0
 10 11  2  0
 11 12  1  0
 12  4  1  0
 13  2  1  0
 14 13  2  0
 15 16  1  0
 16 17  2  0
 18 16  1  0
 18 19  1  0
 20 21  1  0
 20 19  1  0
 22 21  1  6
 22 23  1  0
 22 24  1  0
 23 13  1  0
 24 25  2  0
 26 24  1  0
 26 27  1  0
 27 33  1  0
 27 28  1  1
 29 28  1  0
 30 29  1  0
 31 30  1  0
 31 32  1  0
 33 34  1  0
 35 33  2  0
M  END
$$$$
