WRK.pdb
     RDKit          3D

 35 36  0  0  1  0  0  0  0  0999 V2000
    6.5875  -16.7141   25.2568 N   0  0  0  0  0  0  0  0  0  0  0  0
    7.3717  -15.7068   24.6305 C   0  0  1  0  0  0  0  0  0  0  0  0
    8.3578  -14.9984   25.4852 C   0  0  0  0  0  0  0  0  0  0  0  0
    7.6529  -14.1247   26.4453 C   0  0  0  0  0  0  0  0  0  0  0  0
    7.2787  -14.4287   27.7432 C   0  0  0  0  0  0  0  0  0  0  0  0
    6.6758  -13.3711   28.3056 N   0  0  0  0  0  0  0  0  0  0  0  0
    6.6352  -12.3649   27.4182 C   0  0  0  0  0  0  0  0  0  0  0  0
    6.1381  -11.0849   27.4614 C   0  0  0  0  0  0  0  0  0  0  0  0
    6.2186  -10.2251   26.3773 C   0  0  0  0  0  0  0  0  0  0  0  0
    6.8162  -10.6580   25.2081 C   0  0  0  0  0  0  0  0  0  0  0  0
    7.3165  -11.9481   25.1669 C   0  0  0  0  0  0  0  0  0  0  0  0
    7.2465  -12.8245   26.2417 C   0  0  0  0  0  0  0  0  0  0  0  0
    7.9733  -16.2514   23.3775 C   0  0  0  0  0  0  0  0  0  0  0  0
    8.3868  -17.4438   23.3630 O   0  0  0  0  0  0  0  0  0  0  0  0
    7.4070  -13.6777   15.4623 N   0  0  0  0  0  0  0  0  0  0  0  0
    8.4787  -13.9723   16.3750 C   0  0  0  0  0  0  0  0  0  0  0  0
    9.5244  -14.5639   15.9172 N   0  0  0  0  0  0  0  0  0  0  0  0
    8.3651  -13.6149   17.7250 N   0  0  0  0  0  0  0  0  0  0  0  0
    7.0747  -13.8875   18.4283 C   0  0  0  0  0  0  0  0  0  0  0  0
    7.3878  -14.7327   19.5814 C   0  0  0  0  0  0  0  0  0  0  0  0
    8.7344  -15.1138   19.9847 C   0  0  0  0  0  0  0  0  0  0  0  0
    9.0242  -15.9898   21.1448 C   0  0  2  0  0  0  0  0  0  0  0  0
    8.0992  -15.4898   22.2097 N   0  0  0  0  0  0  0  0  0  0  0  0
   10.3957  -15.8125   21.6952 C   0  0  0  0  0  0  0  0  0  0  0  0
   10.6818  -15.1055   22.6679 O   0  0  0  0  0  0  0  0  0  0  0  0
   10.3295  -14.8258   16.5175 N   0  0  0  0  0  0  0  0  0  0  0  0
   11.5434  -16.4852   21.1025 C   0  0  2  0  0  0  0  0  0  0  0  0
   12.5733  -17.0895   21.9455 C   0  0  0  0  0  0  0  0  0  0  0  0
   11.9925  -18.1983   22.7983 C   0  0  0  0  0  0  0  0  0  0  0  0
   13.0913  -18.9052   23.5066 C   0  0  0  0  0  0  0  0  0  0  0  0
   12.6511  -20.0794   24.3396 C   0  0  0  0  0  0  0  0  0  0  0  0
   13.7532  -20.8180   25.0158 N   0  0  0  0  0  0  0  0  0  0  0  0
   13.1368  -21.8586   25.8381 C   0  0  0  0  0  0  0  0  0  0  0  0
   13.6310  -17.6039   21.0371 O   0  0  0  0  0  0  0  0  0  0  0  0
   14.9658  -17.5756   21.4079 O   0  0  0  0  0  0  0  0  0  0  0  0
  2  1  1  1
  3  2  1  0
  4  3  1  0
  4  5  2  0
  6  5  1  0
  7 12  2  0
  7  6  1  0
  8  7  1  0
  9 10  1  0
  9  8  2  0
 10 11  2  0
 11 12  1  0
 12  4  1  0
 13  2  1  0
 14 13  2  0
 15 16  1  0
 16 17  2  0
 18 16  1  0
 18 19  1  0
 20 21  1  0
 20 19  1  0
 22 21  1  6
 22 23  1  0
 22 24  1  0
 23 13  1  0
 24 25  2  0
 26 24  1  0
 26 27  1  0
 27 33  1  0
 27 28  1  1
 29 28  1  0
 30 29  1  0
 31 30  1  0
 31 32  1  0
 33 34  1  0
 35 33  2  0
M  END
$$$$
