WRK.pdb
     RDKit          3D

 35 36  0  0  1  0  0  0  0  0999 V2000
    6.8833  -17.4167   25.5663 N   0  0  0  0  0  0  0  0  0  0  0  0
    7.3106  -16.2367   24.8977 C   0  0  1  0  0  0  0  0  0  0  0  0
    8.4637  -15.5124   25.4897 C   0  0  0  0  0  0  0  0  0  0  0  0
    7.9897  -14.5887   26.5403 C   0  0  0  0  0  0  0  0  0  0  0  0
    7.9375  -14.8200   27.9045 C   0  0  0  0  0  0  0  0  0  0  0  0
    7.4655  -13.7348   28.5353 N   0  0  0  0  0  0  0  0  0  0  0  0
    7.1990  -12.7810   27.6295 C   0  0  0  0  0  0  0  0  0  0  0  0
    6.7034  -11.5028   27.7196 C   0  0  0  0  0  0  0  0  0  0  0  0
    6.5107  -10.7057   26.6021 C   0  0  0  0  0  0  0  0  0  0  0  0
    6.8234  -11.2017   25.3500 C   0  0  0  0  0  0  0  0  0  0  0  0
    7.3227  -12.4898   25.2618 C   0  0  0  0  0  0  0  0  0  0  0  0
    7.5236  -13.3040   26.3685 C   0  0  0  0  0  0  0  0  0  0  0  0
    7.4892  -16.5252   23.4440 C   0  0  0  0  0  0  0  0  0  0  0  0
    7.8281  -17.6871   23.0858 O   0  0  0  0  0  0  0  0  0  0  0  0
    9.4511  -14.8200   16.8107 N   0  0  0  0  0  0  0  0  0  0  0  0
    8.2022  -14.4220   16.2189 C   0  0  0  0  0  0  0  0  0  0  0  0
    7.8987  -14.8919   15.0614 N   0  0  0  0  0  0  0  0  0  0  0  0
    7.3528  -13.5432   16.9040 N   0  0  0  0  0  0  0  0  0  0  0  0
    7.7709  -13.0547   18.2534 C   0  0  0  0  0  0  0  0  0  0  0  0
    8.1310  -14.2343   19.0412 C   0  0  0  0  0  0  0  0  0  0  0  0
    7.6844  -14.4849   20.4046 C   0  0  0  0  0  0  0  0  0  0  0  0
    8.1054  -15.6625   21.2003 C   0  0  2  0  0  0  0  0  0  0  0  0
    7.2956  -15.5543   22.4542 N   0  0  0  0  0  0  0  0  0  0  0  0
    9.5265  -15.6055   21.6395 C   0  0  0  0  0  0  0  0  0  0  0  0
    9.9151  -15.1498   22.7208 O   0  0  0  0  0  0  0  0  0  0  0  0
    7.0445  -14.6064   14.5456 N   0  0  0  0  0  0  0  0  0  0  0  0
   10.6024  -16.1011   20.7922 C   0  0  2  0  0  0  0  0  0  0  0  0
   11.5972  -17.0348   21.3166 C   0  0  0  0  0  0  0  0  0  0  0  0
   10.9466  -18.3327   21.7482 C   0  0  0  0  0  0  0  0  0  0  0  0
   11.9937  -19.2837   22.2039 C   0  0  0  0  0  0  0  0  0  0  0  0
   11.8633  -19.7251   23.6372 C   0  0  0  0  0  0  0  0  0  0  0  0
   12.6014  -20.9722   23.9800 N   0  0  0  0  0  0  0  0  0  0  0  0
   12.5280  -21.1340   25.4317 C   0  0  0  0  0  0  0  0  0  0  0  0
   12.5915  -17.2620   20.2356 O   0  0  0  0  0  0  0  0  0  0  0  0
   12.2108  -17.2563   18.9033 O   0  0  0  0  0  0  0  0  0  0  0  0
  2  1  1  1
  3  2  1  0
  4  3  1  0
  4  5  2  0
  6  5  1  0
  7 12  2  0
  7  6  1  0
  8  7  1  0
  9 10  1  0
  9  8  2  0
 10 11  2  0
 11 12  1  0
 12  4  1  0
 13  2  1  0
 14 13  2  0
 15 16  1  0
 16 17  2  0
 18 16  1  0
 18 19  1  0
 20 21  1  0
 20 19  1  0
 22 21  1  6
 22 23  1  0
 22 24  1  0
 23 13  1  0
 24 25  2  0
 26 24  1  0
 26 27  1  0
 27 33  1  0
 27 28  1  1
 29 28  1  0
 30 29  1  0
 31 30  1  0
 31 32  1  0
 33 34  1  0
 35 33  2  0
M  END
$$$$
