WRK.pdb
     RDKit          3D

 35 36  0  0  1  0  0  0  0  0999 V2000
    6.8738  -18.1019   26.3138 N   0  0  0  0  0  0  0  0  0  0  0  0
    7.4529  -17.0088   25.6127 C   0  0  1  0  0  0  0  0  0  0  0  0
    8.3755  -16.1347   26.3804 C   0  0  0  0  0  0  0  0  0  0  0  0
    7.6400  -14.9648   26.9021 C   0  0  0  0  0  0  0  0  0  0  0  0
    7.1651  -14.7734   28.1886 C   0  0  0  0  0  0  0  0  0  0  0  0
    6.5658  -13.5774   28.2824 N   0  0  0  0  0  0  0  0  0  0  0  0
    6.6258  -12.9611   27.0916 C   0  0  0  0  0  0  0  0  0  0  0  0
    6.1766  -11.7473   26.6310 C   0  0  0  0  0  0  0  0  0  0  0  0
    6.3652  -11.3400   25.3196 C   0  0  0  0  0  0  0  0  0  0  0  0
    7.0254  -12.1737   24.4362 C   0  0  0  0  0  0  0  0  0  0  0  0
    7.4772  -13.3963   24.9026 C   0  0  0  0  0  0  0  0  0  0  0  0
    7.2990  -13.8226   26.2120 C   0  0  0  0  0  0  0  0  0  0  0  0
    8.0445  -17.4962   24.3318 C   0  0  0  0  0  0  0  0  0  0  0  0
    8.5405  -18.6560   24.2868 O   0  0  0  0  0  0  0  0  0  0  0  0
    7.3138  -13.2649   17.0832 N   0  0  0  0  0  0  0  0  0  0  0  0
    8.2654  -13.2324   18.1610 C   0  0  0  0  0  0  0  0  0  0  0  0
    8.4527  -12.1190   18.7759 N   0  0  0  0  0  0  0  0  0  0  0  0
    8.9600  -14.3965   18.5152 N   0  0  0  0  0  0  0  0  0  0  0  0
    8.2678  -15.7128   18.3661 C   0  0  0  0  0  0  0  0  0  0  0  0
    8.7157  -16.5580   19.4739 C   0  0  0  0  0  0  0  0  0  0  0  0
    8.2733  -16.4138   20.8540 C   0  0  0  0  0  0  0  0  0  0  0  0
    8.7341  -17.2904   21.9569 C   0  0  2  0  0  0  0  0  0  0  0  0
    8.0730  -16.7155   23.1702 N   0  0  0  0  0  0  0  0  0  0  0  0
   10.1962  -17.1961   22.2195 C   0  0  0  0  0  0  0  0  0  0  0  0
   10.7694  -16.2036   22.6822 O   0  0  0  0  0  0  0  0  0  0  0  0
    9.1115  -12.0208   19.5717 N   0  0  0  0  0  0  0  0  0  0  0  0
   11.0906  -18.3103   21.9373 C   0  0  1  0  0  0  0  0  0  0  0  0
   12.5368  -18.1662   22.0934 C   0  0  0  0  0  0  0  0  0  0  0  0
   13.1538  -19.4438   22.6234 C   0  0  0  0  0  0  0  0  0  0  0  0
   12.6364  -19.7136   23.9901 C   0  0  0  0  0  0  0  0  0  0  0  0
   13.1112  -21.0055   24.5999 C   0  0  0  0  0  0  0  0  0  0  0  0
   12.6501  -21.2483   25.9949 N   0  0  0  0  0  0  0  0  0  0  0  0
   13.0861  -22.5938   26.3673 C   0  0  0  0  0  0  0  0  0  0  0  0
   13.0847  -17.8150   20.7573 O   0  0  0  0  0  0  0  0  0  0  0  0
   14.2865  -17.1363   20.6348 O   0  0  0  0  0  0  0  0  0  0  0  0
  2  1  1  1
  3  2  1  0
  4  3  1  0
  4  5  2  0
  6  5  1  0
  7 12  2  0
  7  6  1  0
  8  7  1  0
  9 10  1  0
  9  8  2  0
 10 11  2  0
 11 12  1  0
 12  4  1  0
 13  2  1  0
 14 13  2  0
 15 16  1  0
 16 17  2  0
 18 16  1  0
 18 19  1  0
 20 21  1  0
 20 19  1  0
 22 21  1  6
 22 23  1  0
 22 24  1  0
 23 13  1  0
 24 25  2  0
 26 24  1  0
 26 27  1  0
 27 33  1  0
 27 28  1  6
 29 28  1  0
 30 29  1  0
 31 30  1  0
 31 32  1  0
 33 34  1  0
 35 33  2  0
M  END
$$$$
