WRK.pdb
     RDKit          3D

 35 36  0  0  1  0  0  0  0  0999 V2000
    6.3662  -18.5102   25.3854 N   0  0  0  0  0  0  0  0  0  0  0  0
    6.7267  -17.1615   25.1153 C   0  0  1  0  0  0  0  0  0  0  0  0
    7.3764  -16.4087   26.2178 C   0  0  0  0  0  0  0  0  0  0  0  0
    6.6454  -15.1488   26.4636 C   0  0  0  0  0  0  0  0  0  0  0  0
    5.3337  -15.0040   26.8826 C   0  0  0  0  0  0  0  0  0  0  0  0
    5.0353  -13.7030   27.0120 N   0  0  0  0  0  0  0  0  0  0  0  0
    6.1130  -12.9707   26.6902 C   0  0  0  0  0  0  0  0  0  0  0  0
    6.3591  -11.6199   26.6427 C   0  0  0  0  0  0  0  0  0  0  0  0
    7.5886  -11.1068   26.2605 C   0  0  0  0  0  0  0  0  0  0  0  0
    8.6092  -11.9725   25.9131 C   0  0  0  0  0  0  0  0  0  0  0  0
    8.3590  -13.3331   25.9618 C   0  0  0  0  0  0  0  0  0  0  0  0
    7.1350  -13.8671   26.3424 C   0  0  0  0  0  0  0  0  0  0  0  0
    7.4942  -17.0979   23.8364 C   0  0  0  0  0  0  0  0  0  0  0  0
    8.2947  -18.0320   23.5539 O   0  0  0  0  0  0  0  0  0  0  0  0
    6.9083  -14.3630   16.4230 N   0  0  0  0  0  0  0  0  0  0  0  0
    8.2569  -13.9350   16.6809 C   0  0  0  0  0  0  0  0  0  0  0  0
    8.6184  -12.7737   16.2643 N   0  0  0  0  0  0  0  0  0  0  0  0
    9.1380  -14.7784   17.3705 N   0  0  0  0  0  0  0  0  0  0  0  0
    8.6045  -15.5924   18.5048 C   0  0  0  0  0  0  0  0  0  0  0  0
    8.1640  -14.6509   19.5351 C   0  0  0  0  0  0  0  0  0  0  0  0
    7.6104  -15.0379   20.8255 C   0  0  0  0  0  0  0  0  0  0  0  0
    8.2366  -16.0438   21.7161 C   0  0  2  0  0  0  0  0  0  0  0  0
    7.3627  -16.0384   22.9311 N   0  0  0  0  0  0  0  0  0  0  0  0
    9.5888  -15.6507   22.1982 C   0  0  0  0  0  0  0  0  0  0  0  0
    9.9108  -14.5102   22.5497 O   0  0  0  0  0  0  0  0  0  0  0  0
    9.5358  -12.3516   16.5036 N   0  0  0  0  0  0  0  0  0  0  0  0
   10.6717  -16.6200   22.2922 C   0  0  2  0  0  0  0  0  0  0  0  0
   12.0113  -16.2066   22.7060 C   0  0  0  0  0  0  0  0  0  0  0  0
   12.7661  -17.3627   23.3286 C   0  0  0  0  0  0  0  0  0  0  0  0
   12.0537  -17.8182   24.5507 C   0  0  0  0  0  0  0  0  0  0  0  0
   12.5770  -19.0986   25.1448 C   0  0  0  0  0  0  0  0  0  0  0  0
   11.7865  -19.6288   26.2900 N   0  0  0  0  0  0  0  0  0  0  0  0
   12.4331  -20.8657   26.7271 C   0  0  0  0  0  0  0  0  0  0  0  0
   12.7035  -15.7003   21.4922 O   0  0  0  0  0  0  0  0  0  0  0  0
   12.3969  -16.1983   20.2360 O   0  0  0  0  0  0  0  0  0  0  0  0
  2  1  1  1
  3  2  1  0
  4  3  1  0
  4  5  2  0
  6  5  1  0
  7 12  2  0
  7  6  1  0
  8  7  1  0
  9 10  1  0
  9  8  2  0
 10 11  2  0
 11 12  1  0
 12  4  1  0
 13  2  1  0
 14 13  2  0
 15 16  1  0
 16 17  2  0
 18 16  1  0
 18 19  1  0
 20 21  1  0
 20 19  1  0
 22 21  1  6
 22 23  1  0
 22 24  1  0
 23 13  1  0
 24 25  2  0
 26 24  1  0
 26 27  1  0
 27 33  1  0
 27 28  1  6
 29 28  1  0
 30 29  1  0
 31 30  1  0
 31 32  1  0
 33 34  1  0
 35 33  2  0
M  END
$$$$
