WRK.pdb
     RDKit          3D

 35 36  0  0  1  0  0  0  0  0999 V2000
    6.4916  -17.6889   24.2112 N   0  0  0  0  0  0  0  0  0  0  0  0
    7.4784  -16.7139   23.8992 C   0  0  1  0  0  0  0  0  0  0  0  0
    8.1551  -16.0559   25.0454 C   0  0  0  0  0  0  0  0  0  0  0  0
    7.2425  -15.0782   25.6724 C   0  0  0  0  0  0  0  0  0  0  0  0
    6.1882  -15.3402   26.5310 C   0  0  0  0  0  0  0  0  0  0  0  0
    5.6063  -14.1915   26.9056 N   0  0  0  0  0  0  0  0  0  0  0  0
    6.2426  -13.1650   26.3200 C   0  0  0  0  0  0  0  0  0  0  0  0
    6.0664  -11.8028   26.3481 C   0  0  0  0  0  0  0  0  0  0  0  0
    6.8770  -10.9390   25.6286 C   0  0  0  0  0  0  0  0  0  0  0  0
    7.8999  -11.4526   24.8530 C   0  0  0  0  0  0  0  0  0  0  0  0
    8.0756  -12.8255   24.8263 C   0  0  0  0  0  0  0  0  0  0  0  0
    7.2752  -13.7076   25.5400 C   0  0  0  0  0  0  0  0  0  0  0  0
    8.4371  -17.2769   22.9031 C   0  0  0  0  0  0  0  0  0  0  0  0
    8.5169  -18.5294   22.7679 O   0  0  0  0  0  0  0  0  0  0  0  0
    8.8031  -13.2838   16.9368 N   0  0  0  0  0  0  0  0  0  0  0  0
    7.6541  -13.4158   17.7918 C   0  0  0  0  0  0  0  0  0  0  0  0
    7.0014  -12.3533   18.1046 N   0  0  0  0  0  0  0  0  0  0  0  0
    7.2736  -14.6801   18.2608 N   0  0  0  0  0  0  0  0  0  0  0  0
    8.3136  -15.7500   18.3501 C   0  0  0  0  0  0  0  0  0  0  0  0
    9.1007  -15.4800   19.5540 C   0  0  0  0  0  0  0  0  0  0  0  0
   10.2428  -16.2722   19.9891 C   0  0  0  0  0  0  0  0  0  0  0  0
   10.2247  -17.1451   21.1869 C   0  0  2  0  0  0  0  0  0  0  0  0
    9.2574  -16.4688   22.1071 N   0  0  0  0  0  0  0  0  0  0  0  0
   11.5188  -17.1723   21.9219 C   0  0  0  0  0  0  0  0  0  0  0  0
   12.5338  -17.7688   21.5454 O   0  0  0  0  0  0  0  0  0  0  0  0
    6.2021  -12.3596   18.7666 N   0  0  0  0  0  0  0  0  0  0  0  0
   11.6868  -16.4715   23.1874 C   0  0  1  0  0  0  0  0  0  0  0  0
   12.8233  -16.7641   24.0589 C   0  0  0  0  0  0  0  0  0  0  0  0
   12.5876  -18.0361   24.8466 C   0  0  0  0  0  0  0  0  0  0  0  0
   13.8205  -18.3887   25.5978 C   0  0  0  0  0  0  0  0  0  0  0  0
   13.7479  -19.6889   26.3531 C   0  0  0  0  0  0  0  0  0  0  0  0
   14.9635  -20.0236   27.1455 N   0  0  0  0  0  0  0  0  0  0  0  0
   14.7038  -21.2943   27.8214 C   0  0  0  0  0  0  0  0  0  0  0  0
   14.0203  -16.8829   23.1860 O   0  0  0  0  0  0  0  0  0  0  0  0
   15.2826  -16.5618   23.6584 O   0  0  0  0  0  0  0  0  0  0  0  0
  2  1  1  1
  3  2  1  0
  4  3  1  0
  4  5  2  0
  6  5  1  0
  7 12  2  0
  7  6  1  0
  8  7  1  0
  9 10  1  0
  9  8  2  0
 10 11  2  0
 11 12  1  0
 12  4  1  0
 13  2  1  0
 14 13  2  0
 15 16  1  0
 16 17  2  0
 18 16  1  0
 18 19  1  0
 20 21  1  0
 20 19  1  0
 22 21  1  6
 22 23  1  0
 22 24  1  0
 23 13  1  0
 24 25  2  0
 26 24  1  0
 26 27  1  0
 27 33  1  0
 27 28  1  1
 29 28  1  0
 30 29  1  0
 31 30  1  0
 31 32  1  0
 33 34  1  0
 35 33  2  0
M  END
$$$$
