WRK.pdb
     RDKit          3D

 35 36  0  0  1  0  0  0  0  0999 V2000
    6.9956  -17.1607   25.4313 N   0  0  0  0  0  0  0  0  0  0  0  0
    7.6176  -16.1582   24.6377 C   0  0  1  0  0  0  0  0  0  0  0  0
    8.7499  -15.4227   25.2553 C   0  0  0  0  0  0  0  0  0  0  0  0
    8.2667  -14.6331   26.4064 C   0  0  0  0  0  0  0  0  0  0  0  0
    8.5476  -14.8389   27.7466 C   0  0  0  0  0  0  0  0  0  0  0  0
    7.9410  -13.9027   28.4907 N   0  0  0  0  0  0  0  0  0  0  0  0
    7.2595  -13.0738   27.6845 C   0  0  0  0  0  0  0  0  0  0  0  0
    6.4730  -11.9700   27.9092 C   0  0  0  0  0  0  0  0  0  0  0  0
    5.8608  -11.2776   26.8763 C   0  0  0  0  0  0  0  0  0  0  0  0
    6.0394  -11.7018   25.5726 C   0  0  0  0  0  0  0  0  0  0  0  0
    6.8323  -12.8143   25.3486 C   0  0  0  0  0  0  0  0  0  0  0  0
    7.4547  -13.5211   26.3689 C   0  0  0  0  0  0  0  0  0  0  0  0
    7.9525  -16.7215   23.2965 C   0  0  0  0  0  0  0  0  0  0  0  0
    8.2643  -17.9411   23.2034 O   0  0  0  0  0  0  0  0  0  0  0  0
    8.6074  -12.2883   16.4125 N   0  0  0  0  0  0  0  0  0  0  0  0
    8.1864  -13.6606   16.3231 C   0  0  0  0  0  0  0  0  0  0  0  0
    8.4519  -14.3110   15.2464 N   0  0  0  0  0  0  0  0  0  0  0  0
    7.5053  -14.2538   17.3942 N   0  0  0  0  0  0  0  0  0  0  0  0
    7.3786  -13.4868   18.6708 C   0  0  0  0  0  0  0  0  0  0  0  0
    8.0160  -14.2894   19.7155 C   0  0  0  0  0  0  0  0  0  0  0  0
    7.9539  -15.7424   19.7943 C   0  0  0  0  0  0  0  0  0  0  0  0
    8.5559  -16.5287   20.8972 C   0  0  2  0  0  0  0  0  0  0  0  0
    7.9353  -15.9488   22.1294 N   0  0  0  0  0  0  0  0  0  0  0  0
   10.0205  -16.3118   21.0509 C   0  0  0  0  0  0  0  0  0  0  0  0
   10.5412  -15.5636   21.8857 O   0  0  0  0  0  0  0  0  0  0  0  0
    8.1207  -15.2803   15.0796 N   0  0  0  0  0  0  0  0  0  0  0  0
   10.9817  -16.9917   20.1936 C   0  0  2  0  0  0  0  0  0  0  0  0
   12.1709  -17.6256   20.7598 C   0  0  0  0  0  0  0  0  0  0  0  0
   11.7929  -18.6172   21.8404 C   0  0  0  0  0  0  0  0  0  0  0  0
   13.0129  -19.3202   22.3157 C   0  0  0  0  0  0  0  0  0  0  0  0
   12.7810  -20.2951   23.4392 C   0  0  0  0  0  0  0  0  0  0  0  0
   14.0110  -20.9436   23.9720 N   0  0  0  0  0  0  0  0  0  0  0  0
   13.6060  -21.7773   25.1034 C   0  0  0  0  0  0  0  0  0  0  0  0
   12.8823  -18.2931   19.6385 O   0  0  0  0  0  0  0  0  0  0  0  0
   14.2330  -18.0748   19.4198 O   0  0  0  0  0  0  0  0  0  0  0  0
  2  1  1  1
  3  2  1  0
  4  3  1  0
  4  5  2  0
  6  5  1  0
  7 12  2  0
  7  6  1  0
  8  7  1  0
  9 10  1  0
  9  8  2  0
 10 11  2  0
 11 12  1  0
 12  4  1  0
 13  2  1  0
 14 13  2  0
 15 16  1  0
 16 17  2  0
 18 16  1  0
 18 19  1  0
 20 21  1  0
 20 19  1  0
 22 21  1  6
 22 23  1  0
 22 24  1  0
 23 13  1  0
 24 25  2  0
 26 24  1  0
 26 27  1  0
 27 33  1  0
 27 28  1  1
 29 28  1  0
 30 29  1  0
 31 30  1  0
 31 32  1  0
 33 34  1  0
 35 33  2  0
M  END
$$$$
