RIC.pdb
     RDKit          3D

 26 25  0  0  1  0  0  0  0  0999 V2000
   22.4409  -12.9774  -22.1506 N   0  0  0  0  0  0  0  0  0  0  0  0
   21.0998  -13.3743  -22.3611 C   0  0  0  0  0  0  0  0  0  0  0  0
   20.8403  -14.1309  -23.3680 N   0  0  0  0  0  0  0  0  0  0  0  0
   20.0582  -12.9566  -21.4947 N   0  0  0  0  0  0  0  0  0  0  0  0
   20.3843  -12.3543  -20.2191 C   0  0  0  0  0  0  0  0  0  0  0  0
   19.1352  -11.9146  -19.5230 C   0  0  0  0  0  0  0  0  0  0  0  0
   19.3875  -11.2758  -18.1856 C   0  0  0  0  0  0  0  0  0  0  0  0
   20.3051  -12.1373  -17.3848 C   0  0  2  0  0  0  0  0  0  0  0  0
   19.5582  -13.2211  -16.7792 N   0  0  0  0  0  0  0  0  0  0  0  0
   20.9509  -11.3663  -16.2665 C   0  0  0  0  0  0  0  0  0  0  0  0
   20.4435  -11.3125  -15.1457 O   0  0  0  0  0  0  0  0  0  0  0  0
   19.8940  -14.4817  -23.5335 C   0  0  0  0  0  0  0  0  0  0  0  0
   26.8002  -10.3713  -15.1294 C   0  0  0  0  0  0  0  0  0  0  0  0
   25.4265   -9.8667  -14.9323 C   0  0  2  0  0  0  0  0  0  0  0  0
   24.3373  -10.4687  -15.7205 C   0  0  0  0  0  0  0  0  0  0  0  0
   24.6757  -10.6863  -17.1770 C   0  0  2  0  0  0  0  0  0  0  0  0
   22.9423   -9.9800  -15.5110 N   0  0  0  0  0  0  0  0  0  0  0  0
   22.1517  -10.7107  -16.5452 C   0  0  0  0  0  0  0  0  0  0  0  0
   22.6630   -8.5728  -15.7287 O   0  0  0  0  0  0  0  0  0  0  0  0
   22.8634   -8.0420  -16.8825 N   0  0  0  0  0  0  0  0  0  0  0  0
   22.1556   -7.6380  -14.7727 C   0  0  1  0  0  0  0  0  0  0  0  0
   21.9015   -6.2502  -15.0922 C   0  0  0  0  0  0  0  0  0  0  0  0
   20.4885   -5.8548  -14.6537 S   0  0  0  0  0  0  0  0  0  0  0  0
   19.2554   -7.0504  -15.2291 C   0  0  0  0  0  0  0  0  0  0  0  0
   22.8962   -5.2984  -14.6176 O   0  0  0  0  0  0  0  0  0  0  0  0
   23.7968   -5.6291  -13.8146 O   0  0  0  0  0  0  0  0  0  0  0  0
  1  2  1  0
  2  3  2  0
  4  2  1  0
  5  4  1  0
  6  5  1  0
  7  6  1  0
  8  7  1  0
  8  9  1  1
 10 11  2  0
 10  8  1  0
 13 12  1  0
 14 13  1  0
 14 15  1  1
 16 17  1  6
 16 14  1  0
 17 10  1  0
 18 16  1  0
 19 18  2  0
 20 18  1  0
 21 20  1  0
 22 23  1  0
 21 22  1  6
 24 21  1  0
 24 26  1  0
 25 24  2  0
M  END
$$$$
