RIC.pdb
     RDKit          3D

 26 25  0  0  1  0  0  0  0  0999 V2000
   22.6901  -16.7470  -18.9026 N   0  0  0  0  0  0  0  0  0  0  0  0
   21.4444  -16.6366  -18.2419 C   0  0  0  0  0  0  0  0  0  0  0  0
   20.4057  -16.3538  -18.9455 N   0  0  0  0  0  0  0  0  0  0  0  0
   21.3278  -16.8287  -16.8421 N   0  0  0  0  0  0  0  0  0  0  0  0
   22.5168  -17.0557  -16.0477 C   0  0  0  0  0  0  0  0  0  0  0  0
   23.0907  -18.4030  -16.3534 C   0  0  0  0  0  0  0  0  0  0  0  0
   22.6885  -19.4638  -15.3668 C   0  0  0  0  0  0  0  0  0  0  0  0
   23.8657  -19.8433  -14.5326 C   0  0  2  0  0  0  0  0  0  0  0  0
   24.8806  -20.4569  -15.3647 N   0  0  0  0  0  0  0  0  0  0  0  0
   23.4934  -20.8472  -13.4764 C   0  0  0  0  0  0  0  0  0  0  0  0
   23.2880  -22.0287  -13.7562 O   0  0  0  0  0  0  0  0  0  0  0  0
   19.4917  -16.2217  -18.5062 C   0  0  0  0  0  0  0  0  0  0  0  0
   26.0970  -20.2491   -8.9051 C   0  0  0  0  0  0  0  0  0  0  0  0
   25.2842  -20.7594  -10.0273 C   0  0  2  0  0  0  0  0  0  0  0  0
   23.8181  -20.7714   -9.8840 C   0  0  0  0  0  0  0  0  0  0  0  0
   23.3323  -21.2606   -8.5394 C   0  0  2  0  0  0  0  0  0  0  0  0
   22.9880  -21.2672  -11.0215 N   0  0  0  0  0  0  0  0  0  0  0  0
   23.3885  -20.3903  -12.1612 C   0  0  0  0  0  0  0  0  0  0  0  0
   21.5449  -21.1490  -10.9268 O   0  0  0  0  0  0  0  0  0  0  0  0
   21.0039  -20.0213  -10.6286 N   0  0  0  0  0  0  0  0  0  0  0  0
   20.5806  -22.1832  -11.1411 C   0  0  1  0  0  0  0  0  0  0  0  0
   19.2908  -22.2001  -10.4861 C   0  0  0  0  0  0  0  0  0  0  0  0
   18.1681  -22.2561  -11.5261 S   0  0  0  0  0  0  0  0  0  0  0  0
   16.5534  -22.5155  -10.7471 C   0  0  0  0  0  0  0  0  0  0  0  0
   19.1173  -23.2135   -9.4548 O   0  0  0  0  0  0  0  0  0  0  0  0
   19.5885  -24.3663   -9.5753 O   0  0  0  0  0  0  0  0  0  0  0  0
  1  2  1  0
  2  3  2  0
  4  2  1  0
  5  4  1  0
  6  5  1  0
  7  6  1  0
  8  7  1  0
  8  9  1  6
 10 11  2  0
 10  8  1  0
 13 12  1  0
 14 13  1  0
 14 15  1  6
 16 17  1  6
 16 14  1  0
 17 10  1  0
 18 16  1  0
 19 18  2  0
 20 18  1  0
 21 20  1  0
 22 23  1  0
 21 22  1  1
 24 21  1  0
 24 26  1  0
 25 24  2  0
M  END
$$$$
