RIC.pdb
     RDKit          3D

 26 25  0  0  1  0  0  0  0  0999 V2000
   21.5875  -19.4291  -18.9388 N   0  0  0  0  0  0  0  0  0  0  0  0
   21.9745  -20.5281  -19.7405 C   0  0  0  0  0  0  0  0  0  0  0  0
   22.5118  -20.2875  -20.8838 N   0  0  0  0  0  0  0  0  0  0  0  0
   21.7809  -21.8648  -19.3098 N   0  0  0  0  0  0  0  0  0  0  0  0
   21.3190  -22.1246  -17.9624 C   0  0  0  0  0  0  0  0  0  0  0  0
   22.4055  -22.7690  -17.1609 C   0  0  0  0  0  0  0  0  0  0  0  0
   22.0036  -23.0777  -15.7454 C   0  0  0  0  0  0  0  0  0  0  0  0
   21.8010  -21.8049  -14.9940 C   0  0  2  0  0  0  0  0  0  0  0  0
   23.0239  -21.0281  -15.0042 N   0  0  0  0  0  0  0  0  0  0  0  0
   21.4532  -22.0632  -13.5538 C   0  0  0  0  0  0  0  0  0  0  0  0
   22.2177  -22.6756  -12.8074 O   0  0  0  0  0  0  0  0  0  0  0  0
   22.7476  -21.0480  -21.5257 C   0  0  0  0  0  0  0  0  0  0  0  0
   21.7508  -19.8557  -10.2023 C   0  0  0  0  0  0  0  0  0  0  0  0
   20.6173  -19.3483  -11.0011 C   0  0  1  0  0  0  0  0  0  0  0  0
   19.4978  -20.2611  -11.2906 C   0  0  0  0  0  0  0  0  0  0  0  0
   18.3354  -20.1368  -10.3332 C   0  0  2  0  0  0  0  0  0  0  0  0
   19.8000  -21.6749  -11.6631 N   0  0  0  0  0  0  0  0  0  0  0  0
   20.2272  -21.5818  -13.0904 C   0  0  0  0  0  0  0  0  0  0  0  0
   18.7179  -22.6414  -11.6421 O   0  0  0  0  0  0  0  0  0  0  0  0
   17.7624  -22.5651  -12.4991 N   0  0  0  0  0  0  0  0  0  0  0  0
   18.5648  -23.7427  -10.7427 C   0  0  1  0  0  0  0  0  0  0  0  0
   17.4095  -24.6132  -10.7592 C   0  0  0  0  0  0  0  0  0  0  0  0
   17.6534  -25.8357   -9.8698 S   0  0  0  0  0  0  0  0  0  0  0  0
   19.3980  -25.9815   -9.4049 C   0  0  0  0  0  0  0  0  0  0  0  0
   16.1335  -23.9784  -10.4597 O   0  0  0  0  0  0  0  0  0  0  0  0
   16.0526  -22.9774   -9.7134 O   0  0  0  0  0  0  0  0  0  0  0  0
  1  2  1  0
  2  3  2  0
  4  2  1  0
  5  4  1  0
  6  5  1  0
  7  6  1  0
  8  7  1  0
  8  9  1  1
 10 11  2  0
 10  8  1  0
 13 12  1  0
 14 13  1  0
 14 15  1  1
 16 17  1  1
 16 14  1  0
 17 10  1  0
 18 16  1  0
 19 18  2  0
 20 18  1  0
 21 20  1  0
 22 23  1  0
 21 22  1  1
 24 21  1  0
 24 26  1  0
 25 24  2  0
M  END
$$$$
