RIC.pdb
     RDKit          3D

 26 25  0  0  1  0  0  0  0  0999 V2000
   17.8281  -23.6584   -8.7850 N   0  0  0  0  0  0  0  0  0  0  0  0
   18.1888  -24.4263   -9.9166 C   0  0  0  0  0  0  0  0  0  0  0  0
   17.3247  -25.2514  -10.3924 N   0  0  0  0  0  0  0  0  0  0  0  0
   19.4652  -24.3019  -10.5209 N   0  0  0  0  0  0  0  0  0  0  0  0
   20.3690  -23.2601  -10.0804 C   0  0  0  0  0  0  0  0  0  0  0  0
   20.1490  -22.0153  -10.8806 C   0  0  0  0  0  0  0  0  0  0  0  0
   21.1129  -20.9106  -10.5478 C   0  0  0  0  0  0  0  0  0  0  0  0
   22.5043  -21.4486  -10.5317 C   0  0  2  0  0  0  0  0  0  0  0  0
   22.9354  -21.6558   -9.1641 N   0  0  0  0  0  0  0  0  0  0  0  0
   23.4753  -20.4876  -11.1606 C   0  0  0  0  0  0  0  0  0  0  0  0
   23.4951  -19.2966  -10.8481 O   0  0  0  0  0  0  0  0  0  0  0  0
   17.5633  -25.8766  -11.1657 C   0  0  0  0  0  0  0  0  0  0  0  0
   28.3097  -21.5638  -10.4763 C   0  0  0  0  0  0  0  0  0  0  0  0
   27.0630  -20.8854  -10.8835 C   0  0  2  0  0  0  0  0  0  0  0  0
   26.6958  -20.8877  -12.3102 C   0  0  0  0  0  0  0  0  0  0  0  0
   27.8567  -20.6493  -13.2476 C   0  0  2  0  0  0  0  0  0  0  0  0
   25.4485  -20.1849  -12.7333 N   0  0  0  0  0  0  0  0  0  0  0  0
   24.3579  -20.9958  -12.1158 C   0  0  0  0  0  0  0  0  0  0  0  0
   25.1358  -20.1243  -14.1489 O   0  0  0  0  0  0  0  0  0  0  0  0
   24.9627  -21.2058  -14.8225 N   0  0  0  0  0  0  0  0  0  0  0  0
   24.9773  -18.9474  -14.9458 C   0  0  1  0  0  0  0  0  0  0  0  0
   24.7503  -18.9926  -16.3739 C   0  0  0  0  0  0  0  0  0  0  0  0
   24.4597  -17.5878  -16.9098 S   0  0  0  0  0  0  0  0  0  0  0  0
   24.1790  -17.6045  -18.6993 C   0  0  0  0  0  0  0  0  0  0  0  0
   25.7780  -19.6634  -17.1577 O   0  0  0  0  0  0  0  0  0  0  0  0
   26.9963  -19.5163  -16.9139 O   0  0  0  0  0  0  0  0  0  0  0  0
  1  2  1  0
  2  3  2  0
  4  2  1  0
  5  4  1  0
  6  5  1  0
  7  6  1  0
  8  7  1  0
  8  9  1  1
 10 11  2  0
 10  8  1  0
 13 12  1  0
 14 13  1  0
 14 15  1  6
 16 17  1  1
 16 14  1  0
 17 10  1  0
 18 16  1  0
 19 18  2  0
 20 18  1  0
 21 20  1  0
 22 23  1  0
 21 22  1  6
 24 21  1  0
 24 26  1  0
 25 24  2  0
M  END
$$$$
