RIC.pdb
     RDKit          3D

 26 25  0  0  1  0  0  0  0  0999 V2000
   24.1980  -24.3286  -15.8576 N   0  0  0  0  0  0  0  0  0  0  0  0
   23.0602  -25.1433  -16.0620 C   0  0  0  0  0  0  0  0  0  0  0  0
   22.9994  -26.2693  -15.4438 N   0  0  0  0  0  0  0  0  0  0  0  0
   22.0070  -24.7438  -16.9230 N   0  0  0  0  0  0  0  0  0  0  0  0
   21.9739  -23.3901  -17.4356 C   0  0  0  0  0  0  0  0  0  0  0  0
   21.1494  -22.5205  -16.5400 C   0  0  0  0  0  0  0  0  0  0  0  0
   21.9462  -21.4554  -15.8394 C   0  0  0  0  0  0  0  0  0  0  0  0
   22.7826  -22.0771  -14.7718 C   0  0  2  0  0  0  0  0  0  0  0  0
   21.9482  -22.8735  -13.8951 N   0  0  0  0  0  0  0  0  0  0  0  0
   23.4528  -21.0356  -13.9186 C   0  0  0  0  0  0  0  0  0  0  0  0
   23.1196  -19.8511  -13.9690 O   0  0  0  0  0  0  0  0  0  0  0  0
   22.2492  -26.9369  -15.6374 C   0  0  0  0  0  0  0  0  0  0  0  0
   25.1900  -19.6990   -9.0878 C   0  0  0  0  0  0  0  0  0  0  0  0
   26.0987  -20.6088   -9.8138 C   0  0  2  0  0  0  0  0  0  0  0  0
   25.5855  -21.3136  -11.0012 C   0  0  0  0  0  0  0  0  0  0  0  0
   26.2832  -22.6219  -11.2930 C   0  0  2  0  0  0  0  0  0  0  0  0
   25.2840  -20.5245  -12.2321 N   0  0  0  0  0  0  0  0  0  0  0  0
   24.4711  -21.4610  -13.0631 C   0  0  0  0  0  0  0  0  0  0  0  0
   26.3894  -20.1126  -13.0770 O   0  0  0  0  0  0  0  0  0  0  0  0
   27.4924  -20.7733  -13.0711 N   0  0  0  0  0  0  0  0  0  0  0  0
   26.4165  -19.0029  -13.9787 C   0  0  1  0  0  0  0  0  0  0  0  0
   27.3732  -18.8936  -15.0583 C   0  0  0  0  0  0  0  0  0  0  0  0
   28.3028  -20.1105  -15.0690 S   0  0  0  0  0  0  0  0  0  0  0  0
   29.3543  -20.1302  -16.5438 C   0  0  0  0  0  0  0  0  0  0  0  0
   26.8129  -18.6354  -16.3775 O   0  0  0  0  0  0  0  0  0  0  0  0
   27.5356  -18.5318  -17.3935 O   0  0  0  0  0  0  0  0  0  0  0  0
  1  2  1  0
  2  3  2  0
  4  2  1  0
  5  4  1  0
  6  5  1  0
  7  6  1  0
  8  7  1  0
  8  9  1  1
 10 11  2  0
 10  8  1  0
 13 12  1  0
 14 13  1  0
 14 15  1  6
 16 17  1  6
 16 14  1  0
 17 10  1  0
 18 16  1  0
 19 18  2  0
 20 18  1  0
 21 20  1  0
 22 23  1  0
 21 22  1  1
 24 21  1  0
 24 26  1  0
 25 24  2  0
M  END
$$$$
