RIC.pdb
     RDKit          3D

 26 25  0  0  1  0  0  0  0  0999 V2000
   20.6400  -25.3606  -14.4654 N   0  0  0  0  0  0  0  0  0  0  0  0
   19.2470  -25.5035  -14.6640 C   0  0  0  0  0  0  0  0  0  0  0  0
   18.8434  -26.1442  -15.7033 N   0  0  0  0  0  0  0  0  0  0  0  0
   18.3082  -24.9597  -13.7514 N   0  0  0  0  0  0  0  0  0  0  0  0
   18.7755  -24.2748  -12.5644 C   0  0  0  0  0  0  0  0  0  0  0  0
   18.9094  -22.8095  -12.8347 C   0  0  0  0  0  0  0  0  0  0  0  0
   20.3015  -22.3966  -13.2247 C   0  0  0  0  0  0  0  0  0  0  0  0
   21.0192  -21.8656  -12.0295 C   0  0  2  0  0  0  0  0  0  0  0  0
   20.0740  -21.2424  -11.1253 N   0  0  0  0  0  0  0  0  0  0  0  0
   22.0249  -20.8145  -12.4111 C   0  0  0  0  0  0  0  0  0  0  0  0
   21.7961  -19.6157  -12.2471 O   0  0  0  0  0  0  0  0  0  0  0  0
   17.8475  -26.2159  -15.9244 C   0  0  0  0  0  0  0  0  0  0  0  0
   26.6950  -22.0093  -10.6528 C   0  0  0  0  0  0  0  0  0  0  0  0
   25.5267  -21.3219  -11.2384 C   0  0  2  0  0  0  0  0  0  0  0  0
   25.5506  -20.9962  -12.6749 C   0  0  0  0  0  0  0  0  0  0  0  0
   26.8633  -20.4237  -13.1571 C   0  0  2  0  0  0  0  0  0  0  0  0
   24.3624  -20.3254  -13.2806 N   0  0  0  0  0  0  0  0  0  0  0  0
   23.2332  -21.2480  -12.9605 C   0  0  0  0  0  0  0  0  0  0  0  0
   24.3269  -20.1505  -14.7206 O   0  0  0  0  0  0  0  0  0  0  0  0
   24.4204  -21.1682  -15.5008 N   0  0  0  0  0  0  0  0  0  0  0  0
   24.1859  -18.9196  -15.4349 C   0  0  1  0  0  0  0  0  0  0  0  0
   24.1502  -18.8515  -16.8795 C   0  0  0  0  0  0  0  0  0  0  0  0
   22.9163  -18.0723  -17.3437 S   0  0  0  0  0  0  0  0  0  0  0  0
   21.4816  -18.4117  -16.2912 C   0  0  0  0  0  0  0  0  0  0  0  0
   25.3638  -18.3653  -17.5210 O   0  0  0  0  0  0  0  0  0  0  0  0
   26.2927  -17.8415  -16.8667 O   0  0  0  0  0  0  0  0  0  0  0  0
  1  2  1  0
  2  3  2  0
  4  2  1  0
  5  4  1  0
  6  5  1  0
  7  6  1  0
  8  7  1  0
  8  9  1  1
 10 11  2  0
 10  8  1  0
 13 12  1  0
 14 13  1  0
 14 15  1  6
 16 17  1  1
 16 14  1  0
 17 10  1  0
 18 16  1  0
 19 18  2  0
 20 18  1  0
 21 20  1  0
 22 23  1  0
 21 22  1  6
 24 21  1  0
 24 26  1  0
 25 24  2  0
M  END
$$$$
