RIC.pdb
     RDKit          3D

 26 25  0  0  1  0  0  0  0  0999 V2000
   14.8569  -23.5418  -15.2133 N   0  0  0  0  0  0  0  0  0  0  0  0
   15.4181  -22.3728  -14.6485 C   0  0  0  0  0  0  0  0  0  0  0  0
   14.9834  -21.2325  -15.0538 N   0  0  0  0  0  0  0  0  0  0  0  0
   16.4339  -22.4400  -13.6618 N   0  0  0  0  0  0  0  0  0  0  0  0
   16.7888  -23.7190  -13.0834 C   0  0  0  0  0  0  0  0  0  0  0  0
   15.7377  -24.1541  -12.1117 C   0  0  0  0  0  0  0  0  0  0  0  0
   16.0961  -23.8784  -10.6779 C   0  0  0  0  0  0  0  0  0  0  0  0
   17.1982  -24.7899  -10.2535 C   0  0  2  0  0  0  0  0  0  0  0  0
   17.5521  -25.6746  -11.3449 N   0  0  0  0  0  0  0  0  0  0  0  0
   16.7828  -25.6579   -9.0976 C   0  0  0  0  0  0  0  0  0  0  0  0
   16.3294  -26.7893   -9.2733 O   0  0  0  0  0  0  0  0  0  0  0  0
   15.3726  -20.3601  -14.6886 C   0  0  0  0  0  0  0  0  0  0  0  0
   19.9634  -24.4710   -6.5927 C   0  0  0  0  0  0  0  0  0  0  0  0
   19.2248  -25.5831   -5.9617 C   0  0  2  0  0  0  0  0  0  0  0  0
   17.7991  -25.3893   -5.6454 C   0  0  0  0  0  0  0  0  0  0  0  0
   17.4556  -25.5955   -4.1884 C   0  0  2  0  0  0  0  0  0  0  0  0
   16.7733  -25.9512   -6.5732 N   0  0  0  0  0  0  0  0  0  0  0  0
   16.9301  -25.1331   -7.8121 C   0  0  0  0  0  0  0  0  0  0  0  0
   15.3740  -25.8388   -6.2061 O   0  0  0  0  0  0  0  0  0  0  0  0
   14.7779  -24.7008   -6.2600 N   0  0  0  0  0  0  0  0  0  0  0  0
   14.5110  -26.8929   -5.7708 C   0  0  1  0  0  0  0  0  0  0  0  0
   13.1816  -26.6538   -5.2529 C   0  0  0  0  0  0  0  0  0  0  0  0
   12.3608  -27.9464   -5.2807 S   0  0  0  0  0  0  0  0  0  0  0  0
   10.5998  -27.6210   -5.0081 C   0  0  0  0  0  0  0  0  0  0  0  0
   13.1162  -26.0052   -3.9507 O   0  0  0  0  0  0  0  0  0  0  0  0
   13.8515  -26.3549   -3.0007 O   0  0  0  0  0  0  0  0  0  0  0  0
  1  2  1  0
  2  3  2  0
  4  2  1  0
  5  4  1  0
  6  5  1  0
  7  6  1  0
  8  7  1  0
  8  9  1  6
 10 11  2  0
 10  8  1  0
 13 12  1  0
 14 13  1  0
 14 15  1  6
 16 17  1  6
 16 14  1  0
 17 10  1  0
 18 16  1  0
 19 18  2  0
 20 18  1  0
 21 20  1  0
 22 23  1  0
 21 22  1  1
 24 21  1  0
 24 26  1  0
 25 24  2  0
M  END
$$$$
