RIC.pdb
     RDKit          3D

 26 25  0  0  1  0  0  0  0  0999 V2000
   20.4952  -23.3112   -7.3286 N   0  0  0  0  0  0  0  0  0  0  0  0
   19.8778  -22.8535   -8.5159 C   0  0  0  0  0  0  0  0  0  0  0  0
   19.1050  -23.6622   -9.1503 N   0  0  0  0  0  0  0  0  0  0  0  0
   20.0959  -21.5416   -9.0070 N   0  0  0  0  0  0  0  0  0  0  0  0
   21.3237  -21.2336   -9.7097 C   0  0  0  0  0  0  0  0  0  0  0  0
   22.3251  -20.6486   -8.7646 C   0  0  0  0  0  0  0  0  0  0  0  0
   23.4875  -19.9906   -9.4547 C   0  0  0  0  0  0  0  0  0  0  0  0
   24.1643  -20.9773  -10.3456 C   0  0  2  0  0  0  0  0  0  0  0  0
   25.3409  -21.5077   -9.6872 N   0  0  0  0  0  0  0  0  0  0  0  0
   24.6246  -20.3393  -11.6273 C   0  0  0  0  0  0  0  0  0  0  0  0
   25.3960  -19.3794  -11.6271 O   0  0  0  0  0  0  0  0  0  0  0  0
   18.6166  -23.3676   -9.9991 C   0  0  0  0  0  0  0  0  0  0  0  0
   26.5339  -21.0611  -16.8907 C   0  0  0  0  0  0  0  0  0  0  0  0
   25.1508  -21.2518  -16.4099 C   0  0  2  0  0  0  0  0  0  0  0  0
   24.9285  -21.4354  -14.9653 C   0  0  0  0  0  0  0  0  0  0  0  0
   24.2556  -22.7393  -14.6042 C   0  0  2  0  0  0  0  0  0  0  0  0
   24.4332  -20.2794  -14.1608 N   0  0  0  0  0  0  0  0  0  0  0  0
   24.1442  -20.8763  -12.8234 C   0  0  0  0  0  0  0  0  0  0  0  0
   23.2032  -19.6283  -14.5713 O   0  0  0  0  0  0  0  0  0  0  0  0
   22.2457  -19.4596  -13.7299 N   0  0  0  0  0  0  0  0  0  0  0  0
   22.8952  -19.1093  -15.8678 C   0  0  1  0  0  0  0  0  0  0  0  0
   21.7855  -18.2133  -16.1100 C   0  0  0  0  0  0  0  0  0  0  0  0
   21.9336  -16.9446  -15.2653 S   0  0  0  0  0  0  0  0  0  0  0  0
   20.5811  -15.7797  -15.5735 C   0  0  0  0  0  0  0  0  0  0  0  0
   21.5180  -17.8992  -17.5066 O   0  0  0  0  0  0  0  0  0  0  0  0
   22.4407  -17.7396  -18.3364 O   0  0  0  0  0  0  0  0  0  0  0  0
  1  2  1  0
  2  3  2  0
  4  2  1  0
  5  4  1  0
  6  5  1  0
  7  6  1  0
  8  7  1  0
  8  9  1  1
 10 11  2  0
 10  8  1  0
 13 12  1  0
 14 13  1  0
 14 15  1  1
 16 17  1  6
 16 14  1  0
 17 10  1  0
 18 16  1  0
 19 18  2  0
 20 18  1  0
 21 20  1  0
 22 23  1  0
 21 22  1  6
 24 21  1  0
 24 26  1  0
 25 24  2  0
M  END
$$$$
