RIC.pdb
     RDKit          3D

 26 25  0  0  1  0  0  0  0  0999 V2000
   17.9948  -23.4273   -9.9522 N   0  0  0  0  0  0  0  0  0  0  0  0
   17.4399  -23.9095  -11.1604 C   0  0  0  0  0  0  0  0  0  0  0  0
   16.1625  -24.0374  -11.2347 N   0  0  0  0  0  0  0  0  0  0  0  0
   18.2569  -24.2479  -12.2685 N   0  0  0  0  0  0  0  0  0  0  0  0
   19.5702  -23.6528  -12.3998 C   0  0  0  0  0  0  0  0  0  0  0  0
   19.5563  -22.6051  -13.4676 C   0  0  0  0  0  0  0  0  0  0  0  0
   20.9060  -21.9957  -13.7271 C   0  0  0  0  0  0  0  0  0  0  0  0
   21.1996  -20.9683  -12.6861 C   0  0  2  0  0  0  0  0  0  0  0  0
   20.2794  -19.8571  -12.8189 N   0  0  0  0  0  0  0  0  0  0  0  0
   22.5890  -20.4121  -12.8354 C   0  0  0  0  0  0  0  0  0  0  0  0
   22.8003  -19.3658  -13.4494 O   0  0  0  0  0  0  0  0  0  0  0  0
   15.7181  -24.4077  -12.0781 C   0  0  0  0  0  0  0  0  0  0  0  0
   25.5284  -20.9535   -8.4351 C   0  0  0  0  0  0  0  0  0  0  0  0
   24.9648  -20.5656   -9.7437 C   0  0  2  0  0  0  0  0  0  0  0  0
   25.6010  -21.0885  -10.9652 C   0  0  0  0  0  0  0  0  0  0  0  0
   27.1114  -21.0971  -10.9203 C   0  0  2  0  0  0  0  0  0  0  0  0
   25.0578  -20.6751  -12.2929 N   0  0  0  0  0  0  0  0  0  0  0  0
   23.6358  -21.1274  -12.2504 C   0  0  0  0  0  0  0  0  0  0  0  0
   25.6223  -21.2747  -13.4876 O   0  0  0  0  0  0  0  0  0  0  0  0
   25.7786  -22.5487  -13.5630 N   0  0  0  0  0  0  0  0  0  0  0  0
   26.0496  -20.5961  -14.6717 C   0  0  1  0  0  0  0  0  0  0  0  0
   26.6366  -21.2842  -15.8007 C   0  0  0  0  0  0  0  0  0  0  0  0
   25.7230  -21.1715  -17.0246 S   0  0  0  0  0  0  0  0  0  0  0  0
   26.4743  -21.9324  -18.4867 C   0  0  0  0  0  0  0  0  0  0  0  0
   28.0094  -20.9191  -16.1212 O   0  0  0  0  0  0  0  0  0  0  0  0
   28.4140  -19.7376  -16.0445 O   0  0  0  0  0  0  0  0  0  0  0  0
  1  2  1  0
  2  3  2  0
  4  2  1  0
  5  4  1  0
  6  5  1  0
  7  6  1  0
  8  7  1  0
  8  9  1  6
 10 11  2  0
 10  8  1  0
 13 12  1  0
 14 13  1  0
 14 15  1  6
 16 17  1  6
 16 14  1  0
 17 10  1  0
 18 16  1  0
 19 18  2  0
 20 18  1  0
 21 20  1  0
 22 23  1  0
 21 22  1  1
 24 21  1  0
 24 26  1  0
 25 24  2  0
M  END
$$$$
