RIC.pdb
     RDKit          3D

 26 25  0  0  1  0  0  0  0  0999 V2000
   21.3394  -18.2696  -21.3534 N   0  0  0  0  0  0  0  0  0  0  0  0
   20.6342  -17.6142  -20.3173 C   0  0  0  0  0  0  0  0  0  0  0  0
   19.4667  -17.1432  -20.5796 N   0  0  0  0  0  0  0  0  0  0  0  0
   21.1865  -17.4714  -19.0194 N   0  0  0  0  0  0  0  0  0  0  0  0
   21.7980  -18.6122  -18.3706 C   0  0  0  0  0  0  0  0  0  0  0  0
   20.7453  -19.4839  -17.7624 C   0  0  0  0  0  0  0  0  0  0  0  0
   21.3012  -20.6762  -17.0345 C   0  0  0  0  0  0  0  0  0  0  0  0
   22.2262  -20.2182  -15.9573 C   0  0  2  0  0  0  0  0  0  0  0  0
   23.6001  -20.4176  -16.3716 N   0  0  0  0  0  0  0  0  0  0  0  0
   22.0284  -21.0024  -14.6893 C   0  0  0  0  0  0  0  0  0  0  0  0
   22.7465  -21.9625  -14.4082 O   0  0  0  0  0  0  0  0  0  0  0  0
   18.9283  -16.6429  -19.8685 C   0  0  0  0  0  0  0  0  0  0  0  0
   21.1015  -19.4080   -9.1170 C   0  0  0  0  0  0  0  0  0  0  0  0
   20.7704  -20.4580  -10.1010 C   0  0  2  0  0  0  0  0  0  0  0  0
   21.0465  -20.1985  -11.5246 C   0  0  0  0  0  0  0  0  0  0  0  0
   20.6655  -18.8107  -11.9852 C   0  0  2  0  0  0  0  0  0  0  0  0
   20.7200  -21.2570  -12.5255 N   0  0  0  0  0  0  0  0  0  0  0  0
   20.9970  -20.6015  -13.8378 C   0  0  0  0  0  0  0  0  0  0  0  0
   19.3512  -21.7316  -12.6079 O   0  0  0  0  0  0  0  0  0  0  0  0
   18.4647  -21.0498  -13.2421 N   0  0  0  0  0  0  0  0  0  0  0  0
   18.8230  -22.9369  -12.0481 C   0  0  1  0  0  0  0  0  0  0  0  0
   17.4301  -23.3101  -12.1638 C   0  0  0  0  0  0  0  0  0  0  0  0
   17.2434  -24.7849  -11.7961 S   0  0  0  0  0  0  0  0  0  0  0  0
   18.6045  -25.8031  -12.4225 C   0  0  0  0  0  0  0  0  0  0  0  0
   16.4850  -22.4575  -11.4564 O   0  0  0  0  0  0  0  0  0  0  0  0
   16.8068  -21.8293  -10.4234 O   0  0  0  0  0  0  0  0  0  0  0  0
  1  2  1  0
  2  3  2  0
  4  2  1  0
  5  4  1  0
  6  5  1  0
  7  6  1  0
  8  7  1  0
  8  9  1  6
 10 11  2  0
 10  8  1  0
 13 12  1  0
 14 13  1  0
 14 15  1  6
 16 17  1  6
 16 14  1  0
 17 10  1  0
 18 16  1  0
 19 18  2  0
 20 18  1  0
 21 20  1  0
 22 23  1  0
 21 22  1  1
 24 21  1  0
 24 26  1  0
 25 24  2  0
M  END
$$$$
