RIC.pdb
     RDKit          3D

 26 25  0  0  1  0  0  0  0  0999 V2000
   11.8877  -13.3284  -14.7364 N   0  0  0  0  0  0  0  0  0  0  0  0
   12.4157  -13.8349  -15.9467 C   0  0  0  0  0  0  0  0  0  0  0  0
   11.8541  -14.8662  -16.4709 N   0  0  0  0  0  0  0  0  0  0  0  0
   13.5343  -13.2336  -16.5769 N   0  0  0  0  0  0  0  0  0  0  0  0
   14.2109  -12.1269  -15.9337 C   0  0  0  0  0  0  0  0  0  0  0  0
   15.4017  -11.7132  -16.7394 C   0  0  0  0  0  0  0  0  0  0  0  0
   16.1458  -10.5457  -16.1531 C   0  0  0  0  0  0  0  0  0  0  0  0
   17.5268  -10.9690  -15.7801 C   0  0  2  0  0  0  0  0  0  0  0  0
   17.4734  -12.1907  -15.0031 N   0  0  0  0  0  0  0  0  0  0  0  0
   18.2111   -9.9340  -14.9301 C   0  0  0  0  0  0  0  0  0  0  0  0
   17.9558   -9.8153  -13.7312 O   0  0  0  0  0  0  0  0  0  0  0  0
   12.1689  -15.2376  -17.3702 C   0  0  0  0  0  0  0  0  0  0  0  0
   23.1296  -10.3859  -14.6272 C   0  0  0  0  0  0  0  0  0  0  0  0
   21.7465   -9.9063  -14.4340 C   0  0  2  0  0  0  0  0  0  0  0  0
   21.3733   -8.5954  -14.9929 C   0  0  0  0  0  0  0  0  0  0  0  0
   22.4089   -7.5156  -14.7811 C   0  0  2  0  0  0  0  0  0  0  0  0
   19.9741   -8.1075  -14.8107 N   0  0  0  0  0  0  0  0  0  0  0  0
   19.1505   -9.1085  -15.5511 C   0  0  0  0  0  0  0  0  0  0  0  0
   19.6141   -6.8172  -15.3685 O   0  0  0  0  0  0  0  0  0  0  0  0
   19.8161   -6.5689  -16.6137 N   0  0  0  0  0  0  0  0  0  0  0  0
   19.0201   -5.7158  -14.6762 C   0  0  1  0  0  0  0  0  0  0  0  0
   18.7583   -4.4416  -15.3092 C   0  0  0  0  0  0  0  0  0  0  0  0
   17.4285   -3.8660  -14.8137 S   0  0  0  0  0  0  0  0  0  0  0  0
   17.1816   -2.1684  -15.3954 C   0  0  0  0  0  0  0  0  0  0  0  0
   19.8313   -3.4605  -15.2259 O   0  0  0  0  0  0  0  0  0  0  0  0
   20.4719   -3.2702  -14.1682 O   0  0  0  0  0  0  0  0  0  0  0  0
  1  2  1  0
  2  3  2  0
  4  2  1  0
  5  4  1  0
  6  5  1  0
  7  6  1  0
  8  7  1  0
  8  9  1  1
 10 11  2  0
 10  8  1  0
 13 12  1  0
 14 13  1  0
 14 15  1  6
 16 17  1  1
 16 14  1  0
 17 10  1  0
 18 16  1  0
 19 18  2  0
 20 18  1  0
 21 20  1  0
 22 23  1  0
 21 22  1  1
 24 21  1  0
 24 26  1  0
 25 24  2  0
M  END
$$$$
