RIC.pdb
     RDKit          3D

 26 25  0  0  1  0  0  0  0  0999 V2000
   28.4741  -30.2212  -16.9966 N   0  0  0  0  0  0  0  0  0  0  0  0
   27.4683  -30.0180  -17.9700 C   0  0  0  0  0  0  0  0  0  0  0  0
   26.9533  -31.0509  -18.5372 N   0  0  0  0  0  0  0  0  0  0  0  0
   27.0296  -28.7169  -18.3226 N   0  0  0  0  0  0  0  0  0  0  0  0
   27.5938  -27.5636  -17.6533 C   0  0  0  0  0  0  0  0  0  0  0  0
   26.6373  -27.0453  -16.6264 C   0  0  0  0  0  0  0  0  0  0  0  0
   25.8627  -25.8403  -17.0830 C   0  0  0  0  0  0  0  0  0  0  0  0
   26.5731  -24.5988  -16.6590 C   0  0  2  0  0  0  0  0  0  0  0  0
   27.8377  -24.9427  -16.0413 N   0  0  0  0  0  0  0  0  0  0  0  0
   25.7786  -23.8283  -15.6407 C   0  0  0  0  0  0  0  0  0  0  0  0
   25.8843  -24.0570  -14.4353 O   0  0  0  0  0  0  0  0  0  0  0  0
   26.2062  -30.9546  -19.2289 C   0  0  0  0  0  0  0  0  0  0  0  0
   26.6029  -19.8239  -16.9691 C   0  0  0  0  0  0  0  0  0  0  0  0
   25.8617  -20.0421  -15.7107 C   0  0  2  0  0  0  0  0  0  0  0  0
   24.4824  -20.5538  -15.7878 C   0  0  0  0  0  0  0  0  0  0  0  0
   23.4226  -19.5242  -15.4718 C   0  0  2  0  0  0  0  0  0  0  0  0
   24.1808  -21.8986  -15.2140 N   0  0  0  0  0  0  0  0  0  0  0  0
   24.9128  -22.8396  -16.1124 C   0  0  0  0  0  0  0  0  0  0  0  0
   22.8035  -22.3552  -15.2100 O   0  0  0  0  0  0  0  0  0  0  0  0
   22.1896  -22.5766  -16.3179 N   0  0  0  0  0  0  0  0  0  0  0  0
   21.9862  -22.6153  -14.0656 C   0  0  1  0  0  0  0  0  0  0  0  0
   20.6041  -23.0303  -14.1677 C   0  0  0  0  0  0  0  0  0  0  0  0
   20.1940  -23.8212  -12.9221 S   0  0  0  0  0  0  0  0  0  0  0  0
   19.1279  -25.2229  -13.3464 C   0  0  0  0  0  0  0  0  0  0  0  0
   19.6469  -21.9759  -14.4723 O   0  0  0  0  0  0  0  0  0  0  0  0
   19.7917  -20.8086  -14.0459 O   0  0  0  0  0  0  0  0  0  0  0  0
  1  2  1  0
  2  3  2  0
  4  2  1  0
  5  4  1  0
  6  5  1  0
  7  6  1  0
  8  7  1  0
  8  9  1  1
 10 11  2  0
 10  8  1  0
 13 12  1  0
 14 13  1  0
 14 15  1  6
 16 17  1  1
 16 14  1  0
 17 10  1  0
 18 16  1  0
 19 18  2  0
 20 18  1  0
 21 20  1  0
 22 23  1  0
 21 22  1  6
 24 21  1  0
 24 26  1  0
 25 24  2  0
M  END
$$$$
