RIC.pdb
     RDKit          3D

 26 25  0  0  1  0  0  0  0  0999 V2000
   21.9131  -20.4569  -17.0214 N   0  0  0  0  0  0  0  0  0  0  0  0
   21.2264  -19.5527  -16.1781 C   0  0  0  0  0  0  0  0  0  0  0  0
   20.0807  -19.1129  -16.5626 N   0  0  0  0  0  0  0  0  0  0  0  0
   21.7735  -19.1322  -14.9396 N   0  0  0  0  0  0  0  0  0  0  0  0
   22.8210  -18.1329  -14.9205 C   0  0  0  0  0  0  0  0  0  0  0  0
   23.3055  -17.8683  -16.3110 C   0  0  0  0  0  0  0  0  0  0  0  0
   24.4879  -16.9414  -16.3675 C   0  0  0  0  0  0  0  0  0  0  0  0
   25.1398  -16.8798  -15.0270 C   0  0  2  0  0  0  0  0  0  0  0  0
   25.9257  -15.6675  -14.9180 N   0  0  0  0  0  0  0  0  0  0  0  0
   26.0784  -18.0358  -14.8157 C   0  0  0  0  0  0  0  0  0  0  0  0
   27.2118  -18.0403  -15.2974 O   0  0  0  0  0  0  0  0  0  0  0  0
   19.5255  -18.4960  -15.9650 C   0  0  0  0  0  0  0  0  0  0  0  0
   25.4923  -20.3624   -9.9603 C   0  0  0  0  0  0  0  0  0  0  0  0
   26.1019  -19.9307  -11.2341 C   0  0  2  0  0  0  0  0  0  0  0  0
   25.9147  -20.7775  -12.4249 C   0  0  0  0  0  0  0  0  0  0  0  0
   26.1569  -22.2490  -12.1812 C   0  0  2  0  0  0  0  0  0  0  0  0
   26.4523  -20.3054  -13.7352 N   0  0  0  0  0  0  0  0  0  0  0  0
   25.6173  -19.1088  -14.0504 C   0  0  0  0  0  0  0  0  0  0  0  0
   26.3314  -21.1796  -14.8870 O   0  0  0  0  0  0  0  0  0  0  0  0
   25.1753  -21.5891  -15.2730 N   0  0  0  0  0  0  0  0  0  0  0  0
   27.3933  -21.6735  -15.7080 C   0  0  2  0  0  0  0  0  0  0  0  0
   27.1674  -22.5402  -16.8439 C   0  0  0  0  0  0  0  0  0  0  0  0
   28.3309  -22.4321  -17.8337 S   0  0  0  0  0  0  0  0  0  0  0  0
   29.9305  -22.4591  -16.9840 C   0  0  0  0  0  0  0  0  0  0  0  0
   26.8579  -23.9282  -16.5301 O   0  0  0  0  0  0  0  0  0  0  0  0
   26.4873  -24.7376  -17.4092 O   0  0  0  0  0  0  0  0  0  0  0  0
  1  2  1  0
  2  3  2  0
  4  2  1  0
  5  4  1  0
  6  5  1  0
  7  6  1  0
  8  7  1  0
  8  9  1  6
 10 11  2  0
 10  8  1  0
 13 12  1  0
 14 13  1  0
 14 15  1  6
 16 17  1  6
 16 14  1  0
 17 10  1  0
 18 16  1  0
 19 18  2  0
 20 18  1  0
 21 20  1  0
 22 23  1  0
 21 22  1  1
 24 21  1  0
 24 26  1  0
 25 24  2  0
M  END
$$$$
