RIC.pdb
     RDKit          3D

 26 25  0  0  1  0  0  0  0  0999 V2000
   29.2159  -20.6932  -16.9864 N   0  0  0  0  0  0  0  0  0  0  0  0
   28.5878  -19.5740  -17.5807 C   0  0  0  0  0  0  0  0  0  0  0  0
   28.3713  -19.5999  -18.8481 N   0  0  0  0  0  0  0  0  0  0  0  0
   28.2023  -18.4458  -16.8136 N   0  0  0  0  0  0  0  0  0  0  0  0
   27.8848  -18.6071  -15.4102 C   0  0  0  0  0  0  0  0  0  0  0  0
   26.4770  -19.0882  -15.2528 C   0  0  0  0  0  0  0  0  0  0  0  0
   26.0212  -19.1498  -13.8214 C   0  0  0  0  0  0  0  0  0  0  0  0
   26.8871  -20.0971  -13.0609 C   0  0  2  0  0  0  0  0  0  0  0  0
   27.4221  -21.1018  -13.9573 N   0  0  0  0  0  0  0  0  0  0  0  0
   26.1105  -20.8225  -11.9967 C   0  0  0  0  0  0  0  0  0  0  0  0
   25.5427  -21.8901  -12.2298 O   0  0  0  0  0  0  0  0  0  0  0  0
   28.0352  -18.7700  -19.3423 C   0  0  0  0  0  0  0  0  0  0  0  0
   27.8891  -19.3543   -7.0461 C   0  0  0  0  0  0  0  0  0  0  0  0
   27.3491  -20.1018   -8.1995 C   0  0  2  0  0  0  0  0  0  0  0  0
   25.8887  -20.1428   -8.3883 C   0  0  0  0  0  0  0  0  0  0  0  0
   25.1089  -20.4089   -7.1217 C   0  0  2  0  0  0  0  0  0  0  0  0
   25.3366  -20.8589   -9.5762 N   0  0  0  0  0  0  0  0  0  0  0  0
   26.0556  -20.2401  -10.7289 C   0  0  0  0  0  0  0  0  0  0  0  0
   23.9240  -20.7148   -9.8750 O   0  0  0  0  0  0  0  0  0  0  0  0
   23.4345  -19.5598  -10.1573 N   0  0  0  0  0  0  0  0  0  0  0  0
   22.9406  -21.7527   -9.9065 C   0  0  1  0  0  0  0  0  0  0  0  0
   21.5281  -21.4892  -10.0748 C   0  0  0  0  0  0  0  0  0  0  0  0
   21.0629  -21.9528  -11.4583 S   0  0  0  0  0  0  0  0  0  0  0  0
   19.2614  -21.8556  -11.6203 C   0  0  0  0  0  0  0  0  0  0  0  0
   20.6596  -21.9936   -9.0204 O   0  0  0  0  0  0  0  0  0  0  0  0
   20.9373  -23.0281   -8.3739 O   0  0  0  0  0  0  0  0  0  0  0  0
  1  2  1  0
  2  3  2  0
  4  2  1  0
  5  4  1  0
  6  5  1  0
  7  6  1  0
  8  7  1  0
  8  9  1  6
 10 11  2  0
 10  8  1  0
 13 12  1  0
 14 13  1  0
 14 15  1  6
 16 17  1  6
 16 14  1  0
 17 10  1  0
 18 16  1  0
 19 18  2  0
 20 18  1  0
 21 20  1  0
 22 23  1  0
 21 22  1  1
 24 21  1  0
 24 26  1  0
 25 24  2  0
M  END
$$$$
