CAA.pdb
     RDKit          3D

 17 16  0  0  1  0  0  0  0  0999 V2000
    8.6618  -17.3062   16.8092 N   0  0  0  0  0  0  0  0  0  0  0  0
    7.6528  -16.7359   17.7172 C   0  0  1  0  0  0  0  0  0  0  0  0
    7.2093  -17.8956   18.5813 C   0  0  0  0  0  0  0  0  0  0  0  0
    8.4492  -18.4629   19.7405 S   0  0  0  0  0  0  0  0  0  0  0  0
    8.2395  -15.6197   18.4653 C   0  0  0  0  0  0  0  0  0  0  0  0
    9.4971  -15.5623   18.5708 O   0  0  0  0  0  0  0  0  0  0  0  0
    6.9588  -12.4623   20.0217 C   0  0  0  0  0  0  0  0  0  0  0  0
    8.0636  -13.4632   19.7970 C   0  0  2  0  0  0  0  0  0  0  0  0
    7.4946  -14.5858   19.0873 N   0  0  0  0  0  0  0  0  0  0  0  0
    8.7621  -13.8465   21.0254 C   0  0  0  0  0  0  0  0  0  0  0  0
    9.4210  -12.9722   21.6440 O   0  0  0  0  0  0  0  0  0  0  0  0
    8.5941  -16.7594   23.4061 C   0  0  0  0  0  0  0  0  0  0  0  0
    9.3000  -15.5738   22.7992 C   0  0  2  0  0  0  0  0  0  0  0  0
    8.7232  -15.1655   21.5431 N   0  0  0  0  0  0  0  0  0  0  0  0
   10.7568  -15.8788   22.6231 C   0  0  0  0  0  0  0  0  0  0  0  0
   11.2977  -15.9723   21.5137 O   0  0  0  0  0  0  0  0  0  0  0  0
   11.5409  -16.0662   23.7530 O   0  0  0  0  0  0  0  0  0  0  0  0
  2  1  1  6
  2  3  1  0
  4  3  1  0
  5  2  1  0
  6  5  2  0
  8  7  1  1
  8  9  1  0
  9  5  1  0
 10  8  1  0
 10 14  1  0
 11 10  2  0
 13 15  1  0
 13 12  1  6
 13 14  1  0
 15 17  1  0
 16 15  2  0
M  END
$$$$
