CAA.pdb
     RDKit          3D

 17 16  0  0  1  0  0  0  0  0999 V2000
    4.6825  -13.8897   26.0888 N   0  0  0  0  0  0  0  0  0  0  0  0
    5.9445  -13.3033   25.6079 C   0  0  1  0  0  0  0  0  0  0  0  0
    6.3389  -12.3049   26.6737 C   0  0  0  0  0  0  0  0  0  0  0  0
    7.9362  -11.5423   26.4094 S   0  0  0  0  0  0  0  0  0  0  0  0
    6.9288  -14.3676   25.3885 C   0  0  0  0  0  0  0  0  0  0  0  0
    7.0069  -15.2984   26.2389 O   0  0  0  0  0  0  0  0  0  0  0  0
    9.2947  -15.3000   22.6316 C   0  0  0  0  0  0  0  0  0  0  0  0
    8.7265  -15.5189   24.0108 C   0  0  2  0  0  0  0  0  0  0  0  0
    7.8113  -14.4337   24.2805 N   0  0  0  0  0  0  0  0  0  0  0  0
    9.7507  -15.6850   25.0438 C   0  0  0  0  0  0  0  0  0  0  0  0
   10.6305  -16.5694   24.8859 O   0  0  0  0  0  0  0  0  0  0  0  0
   10.6685  -13.8963   28.2811 C   0  0  0  0  0  0  0  0  0  0  0  0
   10.7850  -14.9893   27.2496 C   0  0  2  0  0  0  0  0  0  0  0  0
    9.7874  -14.8865   26.2145 N   0  0  0  0  0  0  0  0  0  0  0  0
   10.7045  -16.3311   27.9124 C   0  0  0  0  0  0  0  0  0  0  0  0
   11.6999  -16.9430   28.3211 O   0  0  0  0  0  0  0  0  0  0  0  0
    9.4586  -16.9200   28.0784 O   0  0  0  0  0  0  0  0  0  0  0  0
  2  1  1  1
  2  3  1  0
  4  3  1  0
  5  2  1  0
  6  5  2  0
  8  7  1  6
  8  9  1  0
  9  5  1  0
 10  8  1  0
 10 14  1  0
 11 10  2  0
 13 15  1  0
 13 12  1  1
 13 14  1  0
 15 17  1  0
 16 15  2  0
M  END
$$$$
