CAA.pdb
     RDKit          3D

 17 16  0  0  1  0  0  0  0  0999 V2000
    4.8682  -15.4612   25.2652 N   0  0  0  0  0  0  0  0  0  0  0  0
    5.9910  -14.5172   25.1393 C   0  0  1  0  0  0  0  0  0  0  0  0
    5.9301  -13.6729   26.3930 C   0  0  0  0  0  0  0  0  0  0  0  0
    6.5103  -11.9939   26.1756 S   0  0  0  0  0  0  0  0  0  0  0  0
    7.2436  -15.2619   24.9773 C   0  0  0  0  0  0  0  0  0  0  0  0
    7.4446  -16.2672   25.7154 O   0  0  0  0  0  0  0  0  0  0  0  0
   10.2069  -15.1000   22.6823 C   0  0  0  0  0  0  0  0  0  0  0  0
    9.5280  -15.6193   23.9242 C   0  0  2  0  0  0  0  0  0  0  0  0
    8.2599  -14.9368   24.0434 N   0  0  0  0  0  0  0  0  0  0  0  0
   10.3565  -15.5191   25.1272 C   0  0  0  0  0  0  0  0  0  0  0  0
   11.4901  -16.0634   25.1273 O   0  0  0  0  0  0  0  0  0  0  0  0
   10.2307  -13.5671   28.3734 C   0  0  0  0  0  0  0  0  0  0  0  0
   10.7017  -14.7022   27.5005 C   0  0  2  0  0  0  0  0  0  0  0  0
    9.9289  -14.8319   26.2908 N   0  0  0  0  0  0  0  0  0  0  0  0
   10.6739  -15.9876   28.2708 C   0  0  0  0  0  0  0  0  0  0  0  0
    9.9638  -16.9502   27.9525 O   0  0  0  0  0  0  0  0  0  0  0  0
   11.4798  -16.1102   29.3942 O   0  0  0  0  0  0  0  0  0  0  0  0
  2  1  1  1
  2  3  1  0
  4  3  1  0
  5  2  1  0
  6  5  2  0
  8  7  1  6
  8  9  1  0
  9  5  1  0
 10  8  1  0
 10 14  1  0
 11 10  2  0
 13 15  1  0
 13 12  1  1
 13 14  1  0
 15 17  1  0
 16 15  2  0
M  END
$$$$
