CAA.pdb
     RDKit          3D

 17 16  0  0  1  0  0  0  0  0999 V2000
   14.6930  -11.8967   12.2306 N   0  0  0  0  0  0  0  0  0  0  0  0
   14.5612  -13.3579   12.3545 C   0  0  1  0  0  0  0  0  0  0  0  0
   15.9319  -13.9008   12.0156 C   0  0  0  0  0  0  0  0  0  0  0  0
   16.0976  -15.6682   12.2430 S   0  0  0  0  0  0  0  0  0  0  0  0
   14.0979  -13.6970   13.7037 C   0  0  0  0  0  0  0  0  0  0  0  0
   14.5659  -13.0471   14.6807 O   0  0  0  0  0  0  0  0  0  0  0  0
   11.2553  -15.4926   15.2088 C   0  0  0  0  0  0  0  0  0  0  0  0
   12.6941  -15.0580   15.3261 C   0  0  2  0  0  0  0  0  0  0  0  0
   13.1523  -14.7112   14.0003 N   0  0  0  0  0  0  0  0  0  0  0  0
   13.5475  -16.0407   15.9967 C   0  0  0  0  0  0  0  0  0  0  0  0
   13.3281  -16.3064   17.2061 O   0  0  0  0  0  0  0  0  0  0  0  0
   15.7423  -18.8687   15.0904 C   0  0  0  0  0  0  0  0  0  0  0  0
   15.4991  -17.6558   15.9517 C   0  0  2  0  0  0  0  0  0  0  0  0
   14.6110  -16.7034   15.3341 N   0  0  0  0  0  0  0  0  0  0  0  0
   16.8024  -16.9995   16.2937 C   0  0  0  0  0  0  0  0  0  0  0  0
   17.0798  -15.8383   15.9669 O   0  0  0  0  0  0  0  0  0  0  0  0
   17.7462  -17.7226   17.0099 O   0  0  0  0  0  0  0  0  0  0  0  0
  2  1  1  1
  2  3  1  0
  4  3  1  0
  5  2  1  0
  6  5  2  0
  8  7  1  6
  8  9  1  0
  9  5  1  0
 10  8  1  0
 10 14  1  0
 11 10  2  0
 13 15  1  0
 13 12  1  6
 13 14  1  0
 15 17  1  0
 16 15  2  0
M  END
$$$$
