CAA.pdb
     RDKit          3D

 17 16  0  0  1  0  0  0  0  0999 V2000
   -1.9749  -27.7372   29.6085 N   0  0  0  0  0  0  0  0  0  0  0  0
   -2.0302  -26.6567   30.6071 C   0  0  1  0  0  0  0  0  0  0  0  0
   -0.5862  -26.2714   30.8417 C   0  0  0  0  0  0  0  0  0  0  0  0
    0.3120  -27.4017   31.8993 S   0  0  0  0  0  0  0  0  0  0  0  0
   -2.8688  -25.5644   30.1035 C   0  0  0  0  0  0  0  0  0  0  0  0
   -2.9952  -24.5275   30.8139 O   0  0  0  0  0  0  0  0  0  0  0  0
   -4.7577  -24.8629   26.9375 C   0  0  0  0  0  0  0  0  0  0  0  0
   -4.3699  -24.5038   28.3495 C   0  0  2  0  0  0  0  0  0  0  0  0
   -3.5576  -25.5823   28.8642 N   0  0  0  0  0  0  0  0  0  0  0  0
   -5.5138  -24.1797   29.2040 C   0  0  0  0  0  0  0  0  0  0  0  0
   -6.1118  -25.1155   29.7940 O   0  0  0  0  0  0  0  0  0  0  0  0
   -7.1633  -20.9973   30.4732 C   0  0  0  0  0  0  0  0  0  0  0  0
   -7.1064  -22.4783   30.1979 C   0  0  2  0  0  0  0  0  0  0  0  0
   -5.9720  -22.8514   29.3910 N   0  0  0  0  0  0  0  0  0  0  0  0
   -8.3767  -22.9274   29.5414 C   0  0  0  0  0  0  0  0  0  0  0  0
   -8.4512  -23.2121   28.3391 O   0  0  0  0  0  0  0  0  0  0  0  0
   -9.5263  -23.0306   30.3124 O   0  0  0  0  0  0  0  0  0  0  0  0
  2  1  1  6
  2  3  1  0
  4  3  1  0
  5  2  1  0
  6  5  2  0
  8  7  1  6
  8  9  1  0
  9  5  1  0
 10  8  1  0
 10 14  1  0
 11 10  2  0
 13 15  1  0
 13 12  1  6
 13 14  1  0
 15 17  1  0
 16 15  2  0
M  END
$$$$
