CAA.pdb
     RDKit          3D

 17 16  0  0  1  0  0  0  0  0999 V2000
    7.4121  -18.0248   18.3163 N   0  0  0  0  0  0  0  0  0  0  0  0
    6.6925  -17.2554   19.3448 C   0  0  1  0  0  0  0  0  0  0  0  0
    6.2256  -18.2888   20.3460 C   0  0  0  0  0  0  0  0  0  0  0  0
    5.3281  -17.6092   21.7373 S   0  0  0  0  0  0  0  0  0  0  0  0
    7.5817  -16.2339   19.9066 C   0  0  0  0  0  0  0  0  0  0  0  0
    8.7637  -16.5648   20.2052 O   0  0  0  0  0  0  0  0  0  0  0  0
    7.4035  -12.5407   20.5116 C   0  0  0  0  0  0  0  0  0  0  0  0
    8.0755  -13.8753   20.7118 C   0  0  2  0  0  0  0  0  0  0  0  0
    7.2127  -14.8854   20.1434 N   0  0  0  0  0  0  0  0  0  0  0  0
    8.4415  -14.1410   22.1043 C   0  0  0  0  0  0  0  0  0  0  0  0
    9.3741  -13.4749   22.6218 O   0  0  0  0  0  0  0  0  0  0  0  0
    6.8022  -15.7653   25.0463 C   0  0  0  0  0  0  0  0  0  0  0  0
    8.0409  -15.3619   24.2879 C   0  0  2  0  0  0  0  0  0  0  0  0
    7.7841  -15.1204   22.8904 N   0  0  0  0  0  0  0  0  0  0  0  0
    9.1020  -16.4087   24.4442 C   0  0  0  0  0  0  0  0  0  0  0  0
    9.5576  -16.7493   25.5436 O   0  0  0  0  0  0  0  0  0  0  0  0
    9.6009  -17.0286   23.3070 O   0  0  0  0  0  0  0  0  0  0  0  0
  2  1  1  6
  2  3  1  0
  4  3  1  0
  5  2  1  0
  6  5  2  0
  8  7  1  1
  8  9  1  0
  9  5  1  0
 10  8  1  0
 10 14  1  0
 11 10  2  0
 13 15  1  0
 13 12  1  1
 13 14  1  0
 15 17  1  0
 16 15  2  0
M  END
$$$$
