CAA.pdb
     RDKit          3D

 17 16  0  0  1  0  0  0  0  0999 V2000
    8.0042  -20.8506   25.4532 N   0  0  0  0  0  0  0  0  0  0  0  0
    7.6866  -19.5470   26.0595 C   0  0  1  0  0  0  0  0  0  0  0  0
    7.9544  -19.7312   27.5369 C   0  0  0  0  0  0  0  0  0  0  0  0
    7.6463  -18.2716   28.5257 S   0  0  0  0  0  0  0  0  0  0  0  0
    8.4969  -18.5008   25.4283 C   0  0  0  0  0  0  0  0  0  0  0  0
    9.7356  -18.7040   25.2862 O   0  0  0  0  0  0  0  0  0  0  0  0
    7.8456  -15.4307   23.4439 C   0  0  0  0  0  0  0  0  0  0  0  0
    8.7766  -16.2333   24.3168 C   0  0  2  0  0  0  0  0  0  0  0  0
    7.9908  -17.2623   24.9584 N   0  0  0  0  0  0  0  0  0  0  0  0
    9.5427  -15.4155   25.2591 C   0  0  0  0  0  0  0  0  0  0  0  0
   10.3739  -14.5885   24.8046 O   0  0  0  0  0  0  0  0  0  0  0  0
    9.4738  -13.4554   27.9874 C   0  0  0  0  0  0  0  0  0  0  0  0
   10.1312  -14.7656   27.6361 C   0  0  2  0  0  0  0  0  0  0  0  0
    9.3825  -15.5210   26.6635 N   0  0  0  0  0  0  0  0  0  0  0  0
   10.3404  -15.5832   28.8747 C   0  0  0  0  0  0  0  0  0  0  0  0
    9.8593  -16.7135   29.0268 O   0  0  0  0  0  0  0  0  0  0  0  0
   11.1084  -15.0535   29.9024 O   0  0  0  0  0  0  0  0  0  0  0  0
  2  1  1  6
  2  3  1  0
  4  3  1  0
  5  2  1  0
  6  5  2  0
  8  7  1  1
  8  9  1  0
  9  5  1  0
 10  8  1  0
 10 14  1  0
 11 10  2  0
 13 15  1  0
 13 12  1  1
 13 14  1  0
 15 17  1  0
 16 15  2  0
M  END
$$$$
