CAA.pdb
     RDKit          3D

 17 16  0  0  1  0  0  0  0  0999 V2000
   -3.6601  -26.8165   29.9042 N   0  0  0  0  0  0  0  0  0  0  0  0
   -3.1879  -25.5591   30.5074 C   0  0  1  0  0  0  0  0  0  0  0  0
   -1.6817  -25.6079   30.3759 C   0  0  0  0  0  0  0  0  0  0  0  0
   -0.9001  -26.8807   31.3618 S   0  0  0  0  0  0  0  0  0  0  0  0
   -3.8136  -24.4216   29.8260 C   0  0  0  0  0  0  0  0  0  0  0  0
   -3.6045  -23.2610   30.2789 O   0  0  0  0  0  0  0  0  0  0  0  0
   -5.2156  -23.7890   26.4909 C   0  0  0  0  0  0  0  0  0  0  0  0
   -5.1926  -23.4066   27.9491 C   0  0  2  0  0  0  0  0  0  0  0  0
   -4.6458  -24.5250   28.6826 N   0  0  0  0  0  0  0  0  0  0  0  0
   -6.4917  -22.9596   28.4553 C   0  0  0  0  0  0  0  0  0  0  0  0
   -7.0590  -21.9894   27.8911 O   0  0  0  0  0  0  0  0  0  0  0  0
   -9.0447  -24.3968   30.8632 C   0  0  0  0  0  0  0  0  0  0  0  0
   -8.4856  -23.3121   29.9783 C   0  0  2  0  0  0  0  0  0  0  0  0
   -7.1333  -23.5791   29.5570 N   0  0  0  0  0  0  0  0  0  0  0  0
   -8.5557  -21.9899   30.6805 C   0  0  0  0  0  0  0  0  0  0  0  0
   -7.5516  -21.3694   31.0534 O   0  0  0  0  0  0  0  0  0  0  0  0
   -9.8017  -21.4302   30.9271 O   0  0  0  0  0  0  0  0  0  0  0  0
  2  1  1  6
  2  3  1  0
  4  3  1  0
  5  2  1  0
  6  5  2  0
  8  7  1  6
  8  9  1  0
  9  5  1  0
 10  8  1  0
 10 14  1  0
 11 10  2  0
 13 15  1  0
 13 12  1  1
 13 14  1  0
 15 17  1  0
 16 15  2  0
M  END
$$$$
