CAA.pdb
     RDKit          3D

 17 16  0  0  1  0  0  0  0  0999 V2000
    6.4578  -19.7090   20.7355 N   0  0  0  0  0  0  0  0  0  0  0  0
    6.0983  -18.5412   21.5569 C   0  0  1  0  0  0  0  0  0  0  0  0
    6.1220  -19.0477   22.9821 C   0  0  0  0  0  0  0  0  0  0  0  0
    5.6014  -17.8421   24.1979 S   0  0  0  0  0  0  0  0  0  0  0  0
    7.0374  -17.4467   21.2930 C   0  0  0  0  0  0  0  0  0  0  0  0
    8.2677  -17.7191   21.2033 O   0  0  0  0  0  0  0  0  0  0  0  0
    6.7757  -13.7523   20.6785 C   0  0  0  0  0  0  0  0  0  0  0  0
    7.5897  -14.9886   20.9647 C   0  0  2  0  0  0  0  0  0  0  0  0
    6.6664  -16.0880   21.1281 N   0  0  0  0  0  0  0  0  0  0  0  0
    8.5115  -14.8321   22.0914 C   0  0  0  0  0  0  0  0  0  0  0  0
    9.6341  -14.3043   21.8851 O   0  0  0  0  0  0  0  0  0  0  0  0
    8.3124  -14.8946   25.8308 C   0  0  0  0  0  0  0  0  0  0  0  0
    9.0604  -15.1411   24.5455 C   0  0  2  0  0  0  0  0  0  0  0  0
    8.1859  -15.2530   23.4052 N   0  0  0  0  0  0  0  0  0  0  0  0
    9.9046  -16.3731   24.6711 C   0  0  0  0  0  0  0  0  0  0  0  0
    9.7398  -17.3789   23.9688 O   0  0  0  0  0  0  0  0  0  0  0  0
   10.9199  -16.3929   25.6173 O   0  0  0  0  0  0  0  0  0  0  0  0
  2  1  1  6
  2  3  1  0
  4  3  1  0
  5  2  1  0
  6  5  2  0
  8  7  1  1
  8  9  1  0
  9  5  1  0
 10  8  1  0
 10 14  1  0
 11 10  2  0
 13 15  1  0
 13 12  1  1
 13 14  1  0
 15 17  1  0
 16 15  2  0
M  END
$$$$
