CAA.pdb
     RDKit          3D

 17 16  0  0  1  0  0  0  0  0999 V2000
    5.4865  -13.7477   26.3724 N   0  0  0  0  0  0  0  0  0  0  0  0
    6.6687  -13.2494   25.6500 C   0  0  1  0  0  0  0  0  0  0  0  0
    7.5286  -12.6026   26.7133 C   0  0  0  0  0  0  0  0  0  0  0  0
    6.9506  -10.9950   27.2464 S   0  0  0  0  0  0  0  0  0  0  0  0
    7.3183  -14.3592   24.9456 C   0  0  0  0  0  0  0  0  0  0  0  0
    7.5269  -15.4325   25.5784 O   0  0  0  0  0  0  0  0  0  0  0  0
    8.5765  -14.9705   21.4602 C   0  0  0  0  0  0  0  0  0  0  0  0
    8.3994  -15.3987   22.8948 C   0  0  2  0  0  0  0  0  0  0  0  0
    7.7356  -14.3204   23.5910 N   0  0  0  0  0  0  0  0  0  0  0  0
    9.6460  -15.8226   23.5351 C   0  0  0  0  0  0  0  0  0  0  0  0
   10.4694  -14.9433   23.8962 O   0  0  0  0  0  0  0  0  0  0  0  0
   11.0040  -18.9482   25.1165 C   0  0  0  0  0  0  0  0  0  0  0  0
   11.1855  -17.6612   24.3528 C   0  0  2  0  0  0  0  0  0  0  0  0
    9.9593  -17.1861   23.7630 N   0  0  0  0  0  0  0  0  0  0  0  0
   12.2332  -17.8354   23.2954 C   0  0  0  0  0  0  0  0  0  0  0  0
   11.9633  -18.0422   22.1052 O   0  0  0  0  0  0  0  0  0  0  0  0
   13.5700  -17.7623   23.6617 O   0  0  0  0  0  0  0  0  0  0  0  0
  2  1  1  1
  2  3  1  0
  4  3  1  0
  5  2  1  0
  6  5  2  0
  8  7  1  6
  8  9  1  0
  9  5  1  0
 10  8  1  0
 10 14  1  0
 11 10  2  0
 13 15  1  0
 13 12  1  6
 13 14  1  0
 15 17  1  0
 16 15  2  0
M  END
$$$$
