CAA.pdb
     RDKit          3D

 17 16  0  0  1  0  0  0  0  0999 V2000
    4.9820  -13.9260   26.1820 N   0  0  0  0  0  0  0  0  0  0  0  0
    6.1918  -13.3484   25.5733 C   0  0  1  0  0  0  0  0  0  0  0  0
    6.6330  -12.2691   26.5370 C   0  0  0  0  0  0  0  0  0  0  0  0
    5.5132  -10.8771   26.6422 S   0  0  0  0  0  0  0  0  0  0  0  0
    7.1860  -14.4043   25.3582 C   0  0  0  0  0  0  0  0  0  0  0  0
    7.2463  -15.3516   26.1918 O   0  0  0  0  0  0  0  0  0  0  0  0
    9.6303  -15.2673   22.6467 C   0  0  0  0  0  0  0  0  0  0  0  0
    9.0169  -15.5253   23.9995 C   0  0  2  0  0  0  0  0  0  0  0  0
    8.0967  -14.4451   24.2721 N   0  0  0  0  0  0  0  0  0  0  0  0
   10.0064  -15.7267   25.0597 C   0  0  0  0  0  0  0  0  0  0  0  0
   10.9294  -16.5604   24.8746 O   0  0  0  0  0  0  0  0  0  0  0  0
   10.7839  -14.1182   28.4181 C   0  0  0  0  0  0  0  0  0  0  0  0
   10.8839  -15.2053   27.3787 C   0  0  2  0  0  0  0  0  0  0  0  0
    9.9627  -15.0173   26.2862 N   0  0  0  0  0  0  0  0  0  0  0  0
   10.6642  -16.5447   28.0142 C   0  0  0  0  0  0  0  0  0  0  0  0
    9.7134  -17.2822   27.7234 O   0  0  0  0  0  0  0  0  0  0  0  0
   11.5653  -16.9841   28.9741 O   0  0  0  0  0  0  0  0  0  0  0  0
  2  1  1  1
  2  3  1  0
  4  3  1  0
  5  2  1  0
  6  5  2  0
  8  7  1  6
  8  9  1  0
  9  5  1  0
 10  8  1  0
 10 14  1  0
 11 10  2  0
 13 15  1  0
 13 12  1  1
 13 14  1  0
 15 17  1  0
 16 15  2  0
M  END
$$$$
