MLL.pdb
     RDKit          3D

 25 24  0  0  1  0  0  0  0  0999 V2000
   19.4058  -19.9283  -18.0267 C   0  0  0  0  0  0  0  0  0  0  0  0
   19.9397  -18.4498  -18.9460 S   0  0  0  0  0  0  0  0  0  0  0  0
   21.5214  -17.8389  -18.3000 C   0  0  0  0  0  0  0  0  0  0  0  0
   22.2693  -19.0081  -17.7444 C   0  0  0  0  0  0  0  0  0  0  0  0
   22.6342  -18.8786  -16.3032 C   0  0  2  0  0  0  0  0  0  0  0  0
   23.0807  -17.5424  -16.0103 N   0  0  0  0  0  0  0  0  0  0  0  0
   23.6618  -19.8538  -15.8602 C   0  0  0  0  0  0  0  0  0  0  0  0
   23.4956  -21.0836  -16.0728 O   0  0  0  0  0  0  0  0  0  0  0  0
   27.4953  -19.9159  -17.1874 C   0  0  0  0  0  0  0  0  0  0  0  0
   27.4502  -18.9359  -16.0628 C   0  0  2  0  0  0  0  0  0  0  0  0
   28.6490  -18.0353  -16.0040 C   0  0  0  0  0  0  0  0  0  0  0  0
   27.1999  -19.6508  -14.7561 C   0  0  0  0  0  0  0  0  0  0  0  0
   25.8853  -20.3863  -14.7567 C   0  0  2  0  0  0  0  0  0  0  0  0
   24.8538  -19.4746  -15.1931 N   0  0  0  0  0  0  0  0  0  0  0  0
   25.5774  -20.9586  -13.4130 C   0  0  0  0  0  0  0  0  0  0  0  0
   26.2034  -21.9767  -13.0170 O   0  0  0  0  0  0  0  0  0  0  0  0
   26.8291  -21.6550   -9.6851 C   0  0  0  0  0  0  0  0  0  0  0  0
   26.1132  -20.3263   -9.8151 C   0  0  2  0  0  0  0  0  0  0  0  0
   26.5568  -19.4151   -8.7159 C   0  0  0  0  0  0  0  0  0  0  0  0
   24.6816  -20.3996  -10.1337 C   0  0  0  0  0  0  0  0  0  0  0  0
   24.2182  -21.1465  -11.3268 C   0  0  2  0  0  0  0  0  0  0  0  0
   24.6042  -20.4047  -12.5531 N   0  0  0  0  0  0  0  0  0  0  0  0
   22.7903  -21.4156  -11.4532 C   0  0  0  0  0  0  0  0  0  0  0  0
   22.1365  -21.9977  -10.5618 O   0  0  0  0  0  0  0  0  0  0  0  0
   22.1163  -21.0080  -12.6173 O   0  0  0  0  0  0  0  0  0  0  0  0
  2  3  1  0
  2  1  1  0
  3  4  1  0
  4  5  1  0
  5  6  1  6
  7  8  2  0
  7  5  1  0
 10  9  1  6
 10 12  1  0
 11 10  1  0
 13 12  1  1
 13 14  1  0
 14  7  1  0
 15 13  1  0
 16 15  2  0
 18 19  1  1
 18 17  1  0
 21 20  1  1
 20 18  1  0
 21 22  1  0
 22 15  1  0
 23 25  1  0
 23 21  1  0
 24 23  2  0
M  END
$$$$
