MLL.pdb
     RDKit          3D

 25 24  0  0  1  0  0  0  0  0999 V2000
   23.7509  -24.4493  -20.7702 C   0  0  0  0  0  0  0  0  0  0  0  0
   24.8422  -25.9070  -20.7802 S   0  0  0  0  0  0  0  0  0  0  0  0
   25.0458  -26.5579  -19.0988 C   0  0  0  0  0  0  0  0  0  0  0  0
   24.8284  -25.4287  -18.1432 C   0  0  0  0  0  0  0  0  0  0  0  0
   26.0614  -24.9713  -17.4381 C   0  0  2  0  0  0  0  0  0  0  0  0
   26.4894  -25.9515  -16.4756 N   0  0  0  0  0  0  0  0  0  0  0  0
   25.9108  -23.6536  -16.7715 C   0  0  0  0  0  0  0  0  0  0  0  0
   25.5126  -23.5935  -15.5787 O   0  0  0  0  0  0  0  0  0  0  0  0
   29.4266  -19.4782  -17.6427 C   0  0  0  0  0  0  0  0  0  0  0  0
   28.4697  -20.3489  -16.8988 C   0  0  2  0  0  0  0  0  0  0  0  0
   28.9040  -21.7829  -16.8161 C   0  0  0  0  0  0  0  0  0  0  0  0
   27.0775  -20.1985  -17.4648 C   0  0  0  0  0  0  0  0  0  0  0  0
   26.0925  -21.1215  -16.7962 C   0  0  2  0  0  0  0  0  0  0  0  0
   26.1962  -22.4227  -17.4142 N   0  0  0  0  0  0  0  0  0  0  0  0
   24.7011  -20.5874  -16.8749 C   0  0  0  0  0  0  0  0  0  0  0  0
   24.4114  -19.5256  -16.2634 O   0  0  0  0  0  0  0  0  0  0  0  0
   22.7306  -18.0440  -19.6187 C   0  0  0  0  0  0  0  0  0  0  0  0
   22.7615  -19.5081  -20.0066 C   0  0  2  0  0  0  0  0  0  0  0  0
   22.6143  -19.6309  -21.4892 C   0  0  0  0  0  0  0  0  0  0  0  0
   21.9909  -20.4141  -19.1454 C   0  0  0  0  0  0  0  0  0  0  0  0
   22.3502  -20.5741  -17.7166 C   0  0  2  0  0  0  0  0  0  0  0  0
   23.6802  -21.2250  -17.6129 N   0  0  0  0  0  0  0  0  0  0  0  0
   21.4548  -21.3535  -16.8693 C   0  0  0  0  0  0  0  0  0  0  0  0
   21.6955  -22.5372  -16.5501 O   0  0  0  0  0  0  0  0  0  0  0  0
   20.2752  -20.7590  -16.3891 O   0  0  0  0  0  0  0  0  0  0  0  0
  2  3  1  0
  2  1  1  0
  3  4  1  0
  4  5  1  0
  5  6  1  1
  7  8  2  0
  7  5  1  0
 10  9  1  6
 10 12  1  0
 11 10  1  0
 13 12  1  6
 13 14  1  0
 14  7  1  0
 15 13  1  0
 16 15  2  0
 18 19  1  6
 18 17  1  0
 21 20  1  6
 20 18  1  0
 21 22  1  0
 22 15  1  0
 23 25  1  0
 23 21  1  0
 24 23  2  0
M  END
$$$$
