MLL.pdb
     RDKit          3D

 25 24  0  0  1  0  0  0  0  0999 V2000
   24.7048  -35.7120  -18.6492 C   0  0  0  0  0  0  0  0  0  0  0  0
   25.0777  -35.9987  -16.8900 S   0  0  0  0  0  0  0  0  0  0  0  0
   26.1978  -34.7165  -16.2625 C   0  0  0  0  0  0  0  0  0  0  0  0
   26.3827  -34.9497  -14.7973 C   0  0  0  0  0  0  0  0  0  0  0  0
   26.7596  -33.7319  -14.0216 C   0  0  2  0  0  0  0  0  0  0  0  0
   27.9423  -33.1248  -14.5723 N   0  0  0  0  0  0  0  0  0  0  0  0
   26.9613  -33.9882  -12.5735 C   0  0  0  0  0  0  0  0  0  0  0  0
   28.1003  -34.3092  -12.1438 O   0  0  0  0  0  0  0  0  0  0  0  0
   26.8170  -32.5264   -8.0109 C   0  0  0  0  0  0  0  0  0  0  0  0
   25.6181  -32.1722   -8.8260 C   0  0  2  0  0  0  0  0  0  0  0  0
   24.6006  -31.3639   -8.0757 C   0  0  0  0  0  0  0  0  0  0  0  0
   25.0247  -33.4133   -9.4495 C   0  0  0  0  0  0  0  0  0  0  0  0
   26.0509  -34.2082  -10.2139 C   0  0  2  0  0  0  0  0  0  0  0  0
   25.9198  -33.8909  -11.6168 N   0  0  0  0  0  0  0  0  0  0  0  0
   25.9035  -35.6729   -9.9678 C   0  0  0  0  0  0  0  0  0  0  0  0
   24.9567  -36.2987  -10.5130 O   0  0  0  0  0  0  0  0  0  0  0  0
   27.1985  -40.6918   -7.9597 C   0  0  0  0  0  0  0  0  0  0  0  0
   27.9687  -40.0174   -9.0763 C   0  0  2  0  0  0  0  0  0  0  0  0
   29.3043  -40.6731   -9.2230 C   0  0  0  0  0  0  0  0  0  0  0  0
   27.8974  -38.5510   -9.1075 C   0  0  0  0  0  0  0  0  0  0  0  0
   26.5907  -37.8629   -8.9846 C   0  0  2  0  0  0  0  0  0  0  0  0
   26.7876  -36.4001   -9.1415 N   0  0  0  0  0  0  0  0  0  0  0  0
   25.8402  -38.0363   -7.7461 C   0  0  0  0  0  0  0  0  0  0  0  0
   26.0736  -37.3614   -6.7209 O   0  0  0  0  0  0  0  0  0  0  0  0
   24.8142  -38.9956   -7.6950 O   0  0  0  0  0  0  0  0  0  0  0  0
  2  3  1  0
  2  1  1  0
  3  4  1  0
  4  5  1  0
  5  6  1  6
  7  8  2  0
  7  5  1  0
 10  9  1  1
 10 12  1  0
 11 10  1  0
 13 12  1  1
 13 14  1  0
 14  7  1  0
 15 13  1  0
 16 15  2  0
 18 19  1  1
 18 17  1  0
 21 20  1  1
 20 18  1  0
 21 22  1  0
 22 15  1  0
 23 25  1  0
 23 21  1  0
 24 23  2  0
M  END
$$$$
