MLL.pdb
     RDKit          3D

 25 24  0  0  1  0  0  0  0  0999 V2000
   25.0544  -17.2628  -18.3411 C   0  0  0  0  0  0  0  0  0  0  0  0
   26.8328  -17.3888  -18.7114 S   0  0  0  0  0  0  0  0  0  0  0  0
   27.6419  -18.5283  -17.5542 C   0  0  0  0  0  0  0  0  0  0  0  0
   26.5710  -19.2785  -16.8291 C   0  0  0  0  0  0  0  0  0  0  0  0
   27.0626  -20.1108  -15.6922 C   0  0  2  0  0  0  0  0  0  0  0  0
   27.9927  -21.1059  -16.1561 N   0  0  0  0  0  0  0  0  0  0  0  0
   25.9762  -20.7669  -14.9225 C   0  0  0  0  0  0  0  0  0  0  0  0
   25.5617  -21.9055  -15.2643 O   0  0  0  0  0  0  0  0  0  0  0  0
   25.8677  -22.3001  -11.0938 C   0  0  0  0  0  0  0  0  0  0  0  0
   25.7643  -20.8175  -10.9579 C   0  0  2  0  0  0  0  0  0  0  0  0
   25.9513  -20.3300   -9.5511 C   0  0  0  0  0  0  0  0  0  0  0  0
   24.4763  -20.3246  -11.5739 C   0  0  0  0  0  0  0  0  0  0  0  0
   24.3188  -20.7851  -12.9995 C   0  0  2  0  0  0  0  0  0  0  0  0
   25.3587  -20.1730  -13.7931 N   0  0  0  0  0  0  0  0  0  0  0  0
   22.9623  -20.4630  -13.5323 C   0  0  0  0  0  0  0  0  0  0  0  0
   22.6138  -19.2586  -13.6473 O   0  0  0  0  0  0  0  0  0  0  0  0
   18.8673  -22.7376  -17.4080 C   0  0  0  0  0  0  0  0  0  0  0  0
   19.3886  -21.5333  -16.6511 C   0  0  2  0  0  0  0  0  0  0  0  0
   19.3512  -20.3338  -17.5425 C   0  0  0  0  0  0  0  0  0  0  0  0
   20.5842  -21.7627  -15.8298 C   0  0  0  0  0  0  0  0  0  0  0  0
   20.7552  -21.0495  -14.5420 C   0  0  2  0  0  0  0  0  0  0  0  0
   22.0389  -21.4585  -13.9191 N   0  0  0  0  0  0  0  0  0  0  0  0
   19.7345  -21.2347  -13.5168 C   0  0  0  0  0  0  0  0  0  0  0  0
   18.6803  -20.5647  -13.4919 O   0  0  0  0  0  0  0  0  0  0  0  0
   19.9355  -22.2009  -12.5161 O   0  0  0  0  0  0  0  0  0  0  0  0
  2  3  1  0
  2  1  1  0
  3  4  1  0
  4  5  1  0
  5  6  1  6
  7  8  2  0
  7  5  1  0
 10  9  1  1
 10 12  1  0
 11 10  1  0
 13 12  1  1
 13 14  1  0
 14  7  1  0
 15 13  1  0
 16 15  2  0
 18 19  1  6
 18 17  1  0
 21 20  1  6
 20 18  1  0
 21 22  1  0
 22 15  1  0
 23 25  1  0
 23 21  1  0
 24 23  2  0
M  END
$$$$
