MLL.pdb
     RDKit          3D

 25 24  0  0  1  0  0  0  0  0999 V2000
   27.2456  -13.1209  -16.3063 C   0  0  0  0  0  0  0  0  0  0  0  0
   26.3979  -14.3644  -15.2811 S   0  0  0  0  0  0  0  0  0  0  0  0
   27.2000  -15.9827  -15.4552 C   0  0  0  0  0  0  0  0  0  0  0  0
   26.4519  -16.9566  -14.6025 C   0  0  0  0  0  0  0  0  0  0  0  0
   27.0281  -18.3331  -14.5876 C   0  0  2  0  0  0  0  0  0  0  0  0
   27.6208  -18.6494  -15.8601 N   0  0  0  0  0  0  0  0  0  0  0  0
   26.0463  -19.3845  -14.2219 C   0  0  0  0  0  0  0  0  0  0  0  0
   25.6884  -20.2363  -15.0772 O   0  0  0  0  0  0  0  0  0  0  0  0
   26.4774  -22.1528  -11.0225 C   0  0  0  0  0  0  0  0  0  0  0  0
   25.9482  -20.8748  -10.4623 C   0  0  2  0  0  0  0  0  0  0  0  0
   25.9953  -20.8123   -8.9637 C   0  0  0  0  0  0  0  0  0  0  0  0
   24.5683  -20.5960  -11.0092 C   0  0  0  0  0  0  0  0  0  0  0  0
   24.5588  -20.5318  -12.5142 C   0  0  2  0  0  0  0  0  0  0  0  0
   25.4701  -19.4919  -12.9312 N   0  0  0  0  0  0  0  0  0  0  0  0
   23.1830  -20.2988  -13.0438 C   0  0  0  0  0  0  0  0  0  0  0  0
   22.6299  -19.1833  -12.8569 O   0  0  0  0  0  0  0  0  0  0  0  0
   18.6435  -21.5558  -16.0293 C   0  0  0  0  0  0  0  0  0  0  0  0
   19.9234  -20.9536  -16.5716 C   0  0  2  0  0  0  0  0  0  0  0  0
   19.9838  -21.1674  -18.0500 C   0  0  0  0  0  0  0  0  0  0  0  0
   21.1327  -21.1980  -15.7752 C   0  0  0  0  0  0  0  0  0  0  0  0
   21.1322  -20.9398  -14.3159 C   0  0  2  0  0  0  0  0  0  0  0  0
   22.4625  -21.2833  -13.7544 N   0  0  0  0  0  0  0  0  0  0  0  0
   20.1555  -21.6481  -13.4963 C   0  0  0  0  0  0  0  0  0  0  0  0
   20.3902  -22.7658  -12.9899 O   0  0  0  0  0  0  0  0  0  0  0  0
   18.9013  -21.0587  -13.2618 O   0  0  0  0  0  0  0  0  0  0  0  0
  2  3  1  0
  2  1  1  0
  3  4  1  0
  4  5  1  0
  5  6  1  6
  7  8  2  0
  7  5  1  0
 10  9  1  1
 10 12  1  0
 11 10  1  0
 13 12  1  1
 13 14  1  0
 14  7  1  0
 15 13  1  0
 16 15  2  0
 18 19  1  6
 18 17  1  0
 21 20  1  6
 20 18  1  0
 21 22  1  0
 22 15  1  0
 23 25  1  0
 23 21  1  0
 24 23  2  0
M  END
$$$$
