MLL.pdb
     RDKit          3D

 25 24  0  0  1  0  0  0  0  0999 V2000
   22.6036  -20.4033  -11.9306 C   0  0  0  0  0  0  0  0  0  0  0  0
   22.9679  -18.7935  -12.6999 S   0  0  0  0  0  0  0  0  0  0  0  0
   24.6452  -18.7870  -13.3921 C   0  0  0  0  0  0  0  0  0  0  0  0
   25.4044  -19.9084  -12.7584 C   0  0  0  0  0  0  0  0  0  0  0  0
   26.8358  -19.9951  -13.1713 C   0  0  2  0  0  0  0  0  0  0  0  0
   26.9467  -20.0901  -14.6028 N   0  0  0  0  0  0  0  0  0  0  0  0
   27.5693  -21.1209  -12.5407 C   0  0  0  0  0  0  0  0  0  0  0  0
   27.3527  -22.3027  -12.9170 O   0  0  0  0  0  0  0  0  0  0  0  0
   32.1175  -20.3376   -9.7533 C   0  0  0  0  0  0  0  0  0  0  0  0
   30.9935  -21.2303   -9.3447 C   0  0  2  0  0  0  0  0  0  0  0  0
   31.3382  -22.1454   -8.2064 C   0  0  0  0  0  0  0  0  0  0  0  0
   30.4558  -21.9759  -10.5431 C   0  0  0  0  0  0  0  0  0  0  0  0
   28.9501  -21.9672  -10.5856 C   0  0  2  0  0  0  0  0  0  0  0  0
   28.5267  -20.9421  -11.5107 N   0  0  0  0  0  0  0  0  0  0  0  0
   28.3651  -21.7557   -9.2288 C   0  0  0  0  0  0  0  0  0  0  0  0
   28.6543  -22.5550   -8.3000 O   0  0  0  0  0  0  0  0  0  0  0  0
   28.6444  -20.8400   -5.0839 C   0  0  0  0  0  0  0  0  0  0  0  0
   28.5840  -19.6943   -6.0732 C   0  0  2  0  0  0  0  0  0  0  0  0
   29.2036  -18.4788   -5.4617 C   0  0  0  0  0  0  0  0  0  0  0  0
   27.3194  -19.5471   -6.8049 C   0  0  0  0  0  0  0  0  0  0  0  0
   26.7941  -20.6654   -7.6232 C   0  0  2  0  0  0  0  0  0  0  0  0
   27.4912  -20.6869   -8.9335 N   0  0  0  0  0  0  0  0  0  0  0  0
   25.3676  -20.6793   -7.9271 C   0  0  0  0  0  0  0  0  0  0  0  0
   24.9112  -20.2796   -9.0193 O   0  0  0  0  0  0  0  0  0  0  0  0
   24.4658  -21.1590   -6.9617 O   0  0  0  0  0  0  0  0  0  0  0  0
  2  3  1  0
  2  1  1  0
  3  4  1  0
  4  5  1  0
  5  6  1  6
  7  8  2  0
  7  5  1  0
 10  9  1  6
 10 12  1  0
 11 10  1  0
 13 12  1  1
 13 14  1  0
 14  7  1  0
 15 13  1  0
 16 15  2  0
 18 19  1  1
 18 17  1  0
 21 20  1  6
 20 18  1  0
 21 22  1  0
 22 15  1  0
 23 25  1  0
 23 21  1  0
 24 23  2  0
M  END
$$$$
