MLL.pdb
     RDKit          3D

 25 24  0  0  1  0  0  0  0  0999 V2000
   21.3723  -18.3402  -16.3701 C   0  0  0  0  0  0  0  0  0  0  0  0
   22.3312  -17.1924  -17.4089 S   0  0  0  0  0  0  0  0  0  0  0  0
   24.0874  -17.2442  -16.9558 C   0  0  0  0  0  0  0  0  0  0  0  0
   24.3674  -18.5902  -16.3684 C   0  0  0  0  0  0  0  0  0  0  0  0
   24.9572  -18.5547  -14.9981 C   0  0  2  0  0  0  0  0  0  0  0  0
   26.1769  -17.7914  -14.9897 N   0  0  0  0  0  0  0  0  0  0  0  0
   25.2095  -19.9003  -14.4244 C   0  0  0  0  0  0  0  0  0  0  0  0
   24.3345  -20.8003  -14.5221 O   0  0  0  0  0  0  0  0  0  0  0  0
   28.7088  -19.3308  -13.3791 C   0  0  0  0  0  0  0  0  0  0  0  0
   28.8637  -20.5039  -12.4698 C   0  0  2  0  0  0  0  0  0  0  0  0
   30.2890  -20.7895  -12.0973 C   0  0  0  0  0  0  0  0  0  0  0  0
   28.1651  -21.7108  -13.0498 C   0  0  0  0  0  0  0  0  0  0  0  0
   26.6730  -21.5182  -13.1261 C   0  0  2  0  0  0  0  0  0  0  0  0
   26.4101  -20.2443  -13.7538 N   0  0  0  0  0  0  0  0  0  0  0  0
   26.0400  -21.6047  -11.7772 C   0  0  0  0  0  0  0  0  0  0  0  0
   26.0658  -22.6971  -11.1517 O   0  0  0  0  0  0  0  0  0  0  0  0
   26.4473  -21.2442   -7.3457 C   0  0  0  0  0  0  0  0  0  0  0  0
   26.3914  -19.9438   -8.1208 C   0  0  2  0  0  0  0  0  0  0  0  0
   26.9281  -18.8372   -7.2708 C   0  0  0  0  0  0  0  0  0  0  0  0
   25.1614  -19.7088   -8.8878 C   0  0  0  0  0  0  0  0  0  0  0  0
   24.6927  -20.7097   -9.8749 C   0  0  2  0  0  0  0  0  0  0  0  0
   25.4051  -20.5046  -11.1608 N   0  0  0  0  0  0  0  0  0  0  0  0
   23.2717  -20.7336  -10.2027 C   0  0  0  0  0  0  0  0  0  0  0  0
   22.8458  -20.5063  -11.3551 O   0  0  0  0  0  0  0  0  0  0  0  0
   22.3396  -21.0225   -9.1912 O   0  0  0  0  0  0  0  0  0  0  0  0
  2  3  1  0
  2  1  1  0
  3  4  1  0
  4  5  1  0
  5  6  1  6
  7  8  2  0
  7  5  1  0
 10  9  1  6
 10 12  1  0
 11 10  1  0
 13 12  1  1
 13 14  1  0
 14  7  1  0
 15 13  1  0
 16 15  2  0
 18 19  1  1
 18 17  1  0
 21 20  1  1
 20 18  1  0
 21 22  1  0
 22 15  1  0
 23 25  1  0
 23 21  1  0
 24 23  2  0
M  END
$$$$
