MLL.pdb
     RDKit          3D

 25 24  0  0  1  0  0  0  0  0999 V2000
   20.3770   -8.7901  -21.5266 C   0  0  0  0  0  0  0  0  0  0  0  0
   19.5889  -10.4287  -21.4270 S   0  0  0  0  0  0  0  0  0  0  0  0
   20.5961  -11.5564  -20.4240 C   0  0  0  0  0  0  0  0  0  0  0  0
   20.9832  -10.8329  -19.1742 C   0  0  0  0  0  0  0  0  0  0  0  0
   21.9145  -11.5893  -18.2868 C   0  0  2  0  0  0  0  0  0  0  0  0
   21.2957  -12.7995  -17.8147 N   0  0  0  0  0  0  0  0  0  0  0  0
   22.4067  -10.7994  -17.1305 C   0  0  0  0  0  0  0  0  0  0  0  0
   21.7458  -10.7731  -16.0592 O   0  0  0  0  0  0  0  0  0  0  0  0
   25.8160  -11.0361  -14.7891 C   0  0  0  0  0  0  0  0  0  0  0  0
   26.1987  -10.3748  -16.0711 C   0  0  2  0  0  0  0  0  0  0  0  0
   27.6815  -10.3072  -16.2915 C   0  0  0  0  0  0  0  0  0  0  0  0
   25.5361   -9.0219  -16.1797 C   0  0  0  0  0  0  0  0  0  0  0  0
   24.0337   -9.1230  -16.1366 C   0  0  2  0  0  0  0  0  0  0  0  0
   23.6104  -10.0512  -17.1589 N   0  0  0  0  0  0  0  0  0  0  0  0
   23.3898   -7.7876  -16.3091 C   0  0  0  0  0  0  0  0  0  0  0  0
   23.6353   -6.8718  -15.4807 O   0  0  0  0  0  0  0  0  0  0  0  0
   20.7876   -4.2592  -20.6262 C   0  0  0  0  0  0  0  0  0  0  0  0
   21.4962   -4.5177  -19.3125 C   0  0  2  0  0  0  0  0  0  0  0  0
   22.8416   -3.8664  -19.3389 C   0  0  0  0  0  0  0  0  0  0  0  0
   21.3858   -5.8834  -18.7842 C   0  0  0  0  0  0  0  0  0  0  0  0
   21.8135   -6.1862  -17.3981 C   0  0  2  0  0  0  0  0  0  0  0  0
   22.5064   -7.4986  -17.3718 N   0  0  0  0  0  0  0  0  0  0  0  0
   20.7865   -6.2538  -16.3647 C   0  0  0  0  0  0  0  0  0  0  0  0
   20.2188   -7.3222  -16.0530 O   0  0  0  0  0  0  0  0  0  0  0  0
   20.4157   -5.0786  -15.6888 O   0  0  0  0  0  0  0  0  0  0  0  0
  2  3  1  0
  2  1  1  0
  3  4  1  0
  4  5  1  0
  5  6  1  1
  7  8  2  0
  7  5  1  0
 10  9  1  1
 10 12  1  0
 11 10  1  0
 13 12  1  6
 13 14  1  0
 14  7  1  0
 15 13  1  0
 16 15  2  0
 18 19  1  6
 18 17  1  0
 21 20  1  6
 20 18  1  0
 21 22  1  0
 22 15  1  0
 23 25  1  0
 23 21  1  0
 24 23  2  0
M  END
$$$$
