MLL.pdb
     RDKit          3D

 25 24  0  0  1  0  0  0  0  0999 V2000
   20.7545  -17.2565  -18.4505 C   0  0  0  0  0  0  0  0  0  0  0  0
   21.8835  -15.8837  -18.0541 S   0  0  0  0  0  0  0  0  0  0  0  0
   23.5949  -16.4787  -17.9569 C   0  0  0  0  0  0  0  0  0  0  0  0
   23.5909  -17.7535  -17.1759 C   0  0  0  0  0  0  0  0  0  0  0  0
   24.9449  -18.2336  -16.7718 C   0  0  2  0  0  0  0  0  0  0  0  0
   25.7338  -18.5618  -17.9296 N   0  0  0  0  0  0  0  0  0  0  0  0
   24.9125  -19.3946  -15.8475 C   0  0  0  0  0  0  0  0  0  0  0  0
   24.8001  -20.5616  -16.3065 O   0  0  0  0  0  0  0  0  0  0  0  0
   25.3248  -20.3332   -9.7204 C   0  0  0  0  0  0  0  0  0  0  0  0
   25.1599  -20.9276  -11.0793 C   0  0  2  0  0  0  0  0  0  0  0  0
   26.0637  -22.0977  -11.3355 C   0  0  0  0  0  0  0  0  0  0  0  0
   25.2869  -19.8570  -12.1371 C   0  0  0  0  0  0  0  0  0  0  0  0
   24.8729  -20.3542  -13.4975 C   0  0  2  0  0  0  0  0  0  0  0  0
   25.0032  -19.2665  -14.4387 N   0  0  0  0  0  0  0  0  0  0  0  0
   23.4841  -20.9008  -13.4814 C   0  0  0  0  0  0  0  0  0  0  0  0
   23.2399  -21.9478  -12.8262 O   0  0  0  0  0  0  0  0  0  0  0  0
   19.1477  -19.3434  -10.5839 C   0  0  0  0  0  0  0  0  0  0  0  0
   19.9068  -20.3614  -11.4099 C   0  0  2  0  0  0  0  0  0  0  0  0
   20.3974  -21.4563  -10.5180 C   0  0  0  0  0  0  0  0  0  0  0  0
   20.8219  -19.8122  -12.4185 C   0  0  0  0  0  0  0  0  0  0  0  0
   21.0270  -20.5174  -13.7057 C   0  0  2  0  0  0  0  0  0  0  0  0
   22.4166  -20.2910  -14.1756 N   0  0  0  0  0  0  0  0  0  0  0  0
   20.1619  -20.1629  -14.8252 C   0  0  0  0  0  0  0  0  0  0  0  0
   20.4947  -19.3250  -15.6901 O   0  0  0  0  0  0  0  0  0  0  0  0
   18.9058  -20.7822  -14.9437 O   0  0  0  0  0  0  0  0  0  0  0  0
  2  3  1  0
  2  1  1  0
  3  4  1  0
  4  5  1  0
  5  6  1  6
  7  8  2  0
  7  5  1  0
 10  9  1  1
 10 12  1  0
 11 10  1  0
 13 12  1  1
 13 14  1  0
 14  7  1  0
 15 13  1  0
 16 15  2  0
 18 19  1  1
 18 17  1  0
 21 20  1  1
 20 18  1  0
 21 22  1  0
 22 15  1  0
 23 25  1  0
 23 21  1  0
 24 23  2  0
M  END
$$$$
