MLL.pdb
     RDKit          3D

 25 24  0  0  1  0  0  0  0  0999 V2000
   19.6353  -18.0828  -14.1204 C   0  0  0  0  0  0  0  0  0  0  0  0
   19.5973  -16.6916  -15.2947 S   0  0  0  0  0  0  0  0  0  0  0  0
   21.0882  -16.6946  -16.3291 C   0  0  0  0  0  0  0  0  0  0  0  0
   21.7802  -18.0045  -16.1279 C   0  0  0  0  0  0  0  0  0  0  0  0
   23.0976  -18.1188  -16.8195 C   0  0  2  0  0  0  0  0  0  0  0  0
   22.9293  -18.0529  -18.2470 N   0  0  0  0  0  0  0  0  0  0  0  0
   23.8508  -19.3476  -16.4644 C   0  0  0  0  0  0  0  0  0  0  0  0
   23.6530  -20.4139  -17.1040 O   0  0  0  0  0  0  0  0  0  0  0  0
   27.5695  -21.0351  -16.9790 C   0  0  0  0  0  0  0  0  0  0  0  0
   27.6762  -19.8995  -16.0166 C   0  0  2  0  0  0  0  0  0  0  0  0
   29.0873  -19.4514  -15.7720 C   0  0  0  0  0  0  0  0  0  0  0  0
   26.9443  -20.2282  -14.7369 C   0  0  0  0  0  0  0  0  0  0  0  0
   25.5022  -20.5853  -14.9859 C   0  0  2  0  0  0  0  0  0  0  0  0
   24.8071  -19.3958  -15.4191 N   0  0  0  0  0  0  0  0  0  0  0  0
   24.8676  -21.1789  -13.7724 C   0  0  0  0  0  0  0  0  0  0  0  0
   25.1630  -22.3550  -13.4335 O   0  0  0  0  0  0  0  0  0  0  0  0
   25.8326  -22.1624  -10.2216 C   0  0  0  0  0  0  0  0  0  0  0  0
   25.3089  -20.7411  -10.2485 C   0  0  2  0  0  0  0  0  0  0  0  0
   25.8739  -19.9831   -9.0905 C   0  0  0  0  0  0  0  0  0  0  0  0
   23.8813  -20.5914  -10.5584 C   0  0  0  0  0  0  0  0  0  0  0  0
   23.3241  -21.1569  -11.8098 C   0  0  2  0  0  0  0  0  0  0  0  0
   23.9392  -20.4744  -12.9755 N   0  0  0  0  0  0  0  0  0  0  0  0
   21.8820  -21.0779  -12.0133 C   0  0  0  0  0  0  0  0  0  0  0  0
   21.0628  -21.5401  -11.1910 O   0  0  0  0  0  0  0  0  0  0  0  0
   21.3865  -20.4604  -13.1746 O   0  0  0  0  0  0  0  0  0  0  0  0
  2  3  1  0
  2  1  1  0
  3  4  1  0
  4  5  1  0
  5  6  1  6
  7  8  2  0
  7  5  1  0
 10  9  1  6
 10 12  1  0
 11 10  1  0
 13 12  1  1
 13 14  1  0
 14  7  1  0
 15 13  1  0
 16 15  2  0
 18 19  1  1
 18 17  1  0
 21 20  1  1
 20 18  1  0
 21 22  1  0
 22 15  1  0
 23 25  1  0
 23 21  1  0
 24 23  2  0
M  END
$$$$
