VKR.pdb
     RDKit          3D

 28 27  0  0  1  0  0  0  0  0999 V2000
    9.5874  -12.7683   19.5145 C   0  0  0  0  0  0  0  0  0  0  0  0
    8.1074  -13.0605   19.4047 C   0  0  1  0  0  0  0  0  0  0  0  0
    7.4574  -11.9355   18.6583 C   0  0  0  0  0  0  0  0  0  0  0  0
    7.9180  -14.3896   18.7070 C   0  0  2  0  0  0  0  0  0  0  0  0
    6.5150  -14.6633   18.4561 N   0  0  0  0  0  0  0  0  0  0  0  0
    8.5149  -15.4725   19.5295 C   0  0  0  0  0  0  0  0  0  0  0  0
    7.8659  -15.8954   20.5406 O   0  0  0  0  0  0  0  0  0  0  0  0
    9.7798  -16.0573   19.2348 N   0  0  0  0  0  0  0  0  0  0  0  0
   10.2760  -17.2193   20.0051 C   0  0  1  0  0  0  0  0  0  0  0  0
   11.0702  -18.0245   19.0153 C   0  0  0  0  0  0  0  0  0  0  0  0
   11.7123  -19.2525   19.5416 C   0  0  0  0  0  0  0  0  0  0  0  0
   12.4508  -20.0248   18.4463 C   0  0  0  0  0  0  0  0  0  0  0  0
   13.0685  -21.2902   19.0284 C   0  0  0  0  0  0  0  0  0  0  0  0
   13.8859  -21.9024   18.0049 N   0  0  0  0  0  0  0  0  0  0  0  0
   11.0308  -16.7145   21.1515 C   0  0  0  0  0  0  0  0  0  0  0  0
   11.6147  -15.5903   21.0347 O   0  0  0  0  0  0  0  0  0  0  0  0
   10.5798  -18.2422   29.3224 N   0  0  0  0  0  0  0  0  0  0  0  0
   10.7768  -16.8272   29.4420 C   0  0  0  0  0  0  0  0  0  0  0  0
   11.1819  -16.3277   30.5573 N   0  0  0  0  0  0  0  0  0  0  0  0
   10.5318  -15.9618   28.3452 N   0  0  0  0  0  0  0  0  0  0  0  0
   10.0122  -16.4644   27.0702 C   0  0  0  0  0  0  0  0  0  0  0  0
   11.1131  -16.2708   26.0418 C   0  0  0  0  0  0  0  0  0  0  0  0
   10.6404  -16.7581   24.7042 C   0  0  0  0  0  0  0  0  0  0  0  0
   11.6754  -16.6687   23.6087 C   0  0  2  0  0  0  0  0  0  0  0  0
   11.1854  -17.3432   22.3963 N   0  0  0  0  0  0  0  0  0  0  0  0
   12.8821  -17.3924   24.0401 C   0  0  0  0  0  0  0  0  0  0  0  0
   13.6614  -16.8506   24.8559 O   0  0  0  0  0  0  0  0  0  0  0  0
   13.2095  -18.6562   23.5898 O   0  0  0  0  0  0  0  0  0  0  0  0
  2  1  1  6
  3  2  1  0
  4  2  1  0
  4  5  1  1
  6  7  2  0
  6  4  1  0
  8  6  1  0
  9  8  1  0
  9 10  1  6
 11 10  1  0
 12 11  1  0
 13 14  1  0
 13 12  1  0
 15 16  2  0
 15  9  1  0
 18 17  1  0
 19 18  2  0
 20 18  1  0
 21 22  1  0
 21 20  1  0
 22 23  1  0
 24 23  1  1
 24 25  1  0
 25 15  1  0
 26 24  1  0
 27 26  2  0
 28 26  1  0
M  END
$$$$
