VKR.pdb
     RDKit          3D

 28 27  0  0  1  0  0  0  0  0999 V2000
    9.3023  -13.0082   20.0372 C   0  0  0  0  0  0  0  0  0  0  0  0
    8.0463  -13.4773   19.3369 C   0  0  1  0  0  0  0  0  0  0  0  0
    7.7155  -12.4974   18.2527 C   0  0  0  0  0  0  0  0  0  0  0  0
    8.2766  -14.8703   18.7930 C   0  0  2  0  0  0  0  0  0  0  0  0
    7.1802  -15.2972   17.9432 N   0  0  0  0  0  0  0  0  0  0  0  0
    8.4551  -15.8209   19.9198 C   0  0  0  0  0  0  0  0  0  0  0  0
    7.4597  -16.0577   20.6785 O   0  0  0  0  0  0  0  0  0  0  0  0
    9.6902  -16.4783   20.1864 N   0  0  0  0  0  0  0  0  0  0  0  0
    9.8092  -17.4468   21.2989 C   0  0  1  0  0  0  0  0  0  0  0  0
   10.7181  -18.5229   20.7748 C   0  0  0  0  0  0  0  0  0  0  0  0
   10.1688  -19.3653   19.6859 C   0  0  0  0  0  0  0  0  0  0  0  0
   11.2006  -20.3671   19.1633 C   0  0  0  0  0  0  0  0  0  0  0  0
   10.5911  -21.2074   18.0479 C   0  0  0  0  0  0  0  0  0  0  0  0
   11.5860  -22.1606   17.6093 N   0  0  0  0  0  0  0  0  0  0  0  0
   10.3008  -16.7290   22.4744 C   0  0  0  0  0  0  0  0  0  0  0  0
   11.3072  -15.9645   22.3305 O   0  0  0  0  0  0  0  0  0  0  0  0
    5.4462  -14.0610   26.5669 N   0  0  0  0  0  0  0  0  0  0  0  0
    6.1292  -12.8142   26.7527 C   0  0  0  0  0  0  0  0  0  0  0  0
    5.7610  -12.0147   27.6922 N   0  0  0  0  0  0  0  0  0  0  0  0
    7.2113  -12.4437   25.9139 N   0  0  0  0  0  0  0  0  0  0  0  0
    7.5768  -13.2351   24.7355 C   0  0  0  0  0  0  0  0  0  0  0  0
    8.2016  -14.5210   25.2482 C   0  0  0  0  0  0  0  0  0  0  0  0
    9.6382  -14.5849   24.8211 C   0  0  0  0  0  0  0  0  0  0  0  0
   10.2485  -15.9637   24.8966 C   0  0  2  0  0  0  0  0  0  0  0  0
    9.7738  -16.7873   23.7736 N   0  0  0  0  0  0  0  0  0  0  0  0
    9.7838  -16.6180   26.1303 C   0  0  0  0  0  0  0  0  0  0  0  0
   10.2110  -16.2140   27.2352 O   0  0  0  0  0  0  0  0  0  0  0  0
    8.8881  -17.6691   26.1396 O   0  0  0  0  0  0  0  0  0  0  0  0
  2  1  1  6
  3  2  1  0
  4  2  1  0
  4  5  1  1
  6  7  2  0
  6  4  1  0
  8  6  1  0
  9  8  1  0
  9 10  1  6
 11 10  1  0
 12 11  1  0
 13 14  1  0
 13 12  1  0
 15 16  2  0
 15  9  1  0
 18 17  1  0
 19 18  2  0
 20 18  1  0
 21 22  1  0
 21 20  1  0
 22 23  1  0
 24 23  1  6
 24 25  1  0
 25 15  1  0
 26 24  1  0
 27 26  2  0
 28 26  1  0
M  END
$$$$
