VKR.pdb
     RDKit          3D

 28 27  0  0  1  0  0  0  0  0999 V2000
    9.7076  -13.0258   20.0677 C   0  0  0  0  0  0  0  0  0  0  0  0
    8.3093  -12.8998   19.5048 C   0  0  1  0  0  0  0  0  0  0  0  0
    8.3282  -11.8680   18.4185 C   0  0  0  0  0  0  0  0  0  0  0  0
    7.8592  -14.2519   18.9964 C   0  0  2  0  0  0  0  0  0  0  0  0
    6.5903  -14.1618   18.2978 N   0  0  0  0  0  0  0  0  0  0  0  0
    7.7547  -15.2012   20.1337 C   0  0  0  0  0  0  0  0  0  0  0  0
    6.7334  -15.1314   20.8915 O   0  0  0  0  0  0  0  0  0  0  0  0
    8.7466  -16.1850   20.4112 N   0  0  0  0  0  0  0  0  0  0  0  0
    8.5631  -17.1577   21.5112 C   0  0  1  0  0  0  0  0  0  0  0  0
    8.9550  -18.4829   20.9205 C   0  0  0  0  0  0  0  0  0  0  0  0
    8.8630  -19.6521   21.8270 C   0  0  0  0  0  0  0  0  0  0  0  0
    9.1642  -20.9639   21.0990 C   0  0  0  0  0  0  0  0  0  0  0  0
    9.7243  -21.9864   22.0801 C   0  0  0  0  0  0  0  0  0  0  0  0
    8.8109  -23.1061   22.1316 N   0  0  0  0  0  0  0  0  0  0  0  0
    9.3705  -16.7149   22.6474 C   0  0  0  0  0  0  0  0  0  0  0  0
   10.6105  -16.5065   22.4546 O   0  0  0  0  0  0  0  0  0  0  0  0
    8.8703  -20.4466   27.4309 N   0  0  0  0  0  0  0  0  0  0  0  0
    7.4753  -20.1163   27.4465 C   0  0  0  0  0  0  0  0  0  0  0  0
    6.6539  -20.8326   28.1318 N   0  0  0  0  0  0  0  0  0  0  0  0
    6.9807  -19.0060   26.7153 N   0  0  0  0  0  0  0  0  0  0  0  0
    7.2615  -17.6276   27.1267 C   0  0  0  0  0  0  0  0  0  0  0  0
    8.7561  -17.4159   26.9577 C   0  0  0  0  0  0  0  0  0  0  0  0
    9.0059  -16.0626   26.3608 C   0  0  0  0  0  0  0  0  0  0  0  0
    9.7931  -16.0869   25.0728 C   0  0  2  0  0  0  0  0  0  0  0  0
    8.9212  -16.4858   23.9568 N   0  0  0  0  0  0  0  0  0  0  0  0
   10.8424  -17.1133   25.1809 C   0  0  0  0  0  0  0  0  0  0  0  0
   10.6554  -18.2363   24.6609 O   0  0  0  0  0  0  0  0  0  0  0  0
   12.0417  -16.9052   25.8332 O   0  0  0  0  0  0  0  0  0  0  0  0
  2  1  1  6
  3  2  1  0
  4  2  1  0
  4  5  1  1
  6  7  2  0
  6  4  1  0
  8  6  1  0
  9  8  1  0
  9 10  1  6
 11 10  1  0
 12 11  1  0
 13 14  1  0
 13 12  1  0
 15 16  2  0
 15  9  1  0
 18 17  1  0
 19 18  2  0
 20 18  1  0
 21 22  1  0
 21 20  1  0
 22 23  1  0
 24 23  1  1
 24 25  1  0
 25 15  1  0
 26 24  1  0
 27 26  2  0
 28 26  1  0
M  END
$$$$
