VKR.pdb
     RDKit          3D

 28 27  0  0  1  0  0  0  0  0999 V2000
    8.7820  -11.8457   18.8412 C   0  0  0  0  0  0  0  0  0  0  0  0
    8.6921  -13.0637   19.7335 C   0  0  1  0  0  0  0  0  0  0  0  0
    7.7101  -12.7765   20.8282 C   0  0  0  0  0  0  0  0  0  0  0  0
    8.2800  -14.2565   18.8989 C   0  0  2  0  0  0  0  0  0  0  0  0
    6.9632  -14.0694   18.3180 N   0  0  0  0  0  0  0  0  0  0  0  0
    8.3036  -15.4821   19.7372 C   0  0  0  0  0  0  0  0  0  0  0  0
    7.2521  -15.7963   20.3837 O   0  0  0  0  0  0  0  0  0  0  0  0
    9.4504  -16.3195   19.8475 N   0  0  0  0  0  0  0  0  0  0  0  0
    9.4617  -17.4717   20.7760 C   0  0  1  0  0  0  0  0  0  0  0  0
    9.9951  -18.6160   19.9606 C   0  0  0  0  0  0  0  0  0  0  0  0
   10.2561  -19.8748   20.6985 C   0  0  0  0  0  0  0  0  0  0  0  0
   10.8498  -20.9552   19.7921 C   0  0  0  0  0  0  0  0  0  0  0  0
   11.1173  -22.2206   20.5976 C   0  0  0  0  0  0  0  0  0  0  0  0
   11.8175  -23.1556   19.7454 N   0  0  0  0  0  0  0  0  0  0  0  0
   10.2642  -17.1061   21.9427 C   0  0  0  0  0  0  0  0  0  0  0  0
   11.1928  -16.2510   21.7854 O   0  0  0  0  0  0  0  0  0  0  0  0
   10.3444  -16.3133   29.4426 N   0  0  0  0  0  0  0  0  0  0  0  0
   10.2279  -14.8844   29.4512 C   0  0  0  0  0  0  0  0  0  0  0  0
   10.6231  -14.2145   30.4771 N   0  0  0  0  0  0  0  0  0  0  0  0
    9.6812  -14.1909   28.3411 N   0  0  0  0  0  0  0  0  0  0  0  0
    9.0831  -14.9029   27.2081 C   0  0  0  0  0  0  0  0  0  0  0  0
   10.2155  -15.6223   26.4960 C   0  0  0  0  0  0  0  0  0  0  0  0
    9.7035  -16.2229   25.2204 C   0  0  0  0  0  0  0  0  0  0  0  0
   10.7388  -16.9927   24.4362 C   0  0  2  0  0  0  0  0  0  0  0  0
   10.1209  -17.6014   23.2477 N   0  0  0  0  0  0  0  0  0  0  0  0
   11.2362  -18.0982   25.2706 C   0  0  0  0  0  0  0  0  0  0  0  0
   10.6874  -19.2202   25.1902 O   0  0  0  0  0  0  0  0  0  0  0  0
   12.2917  -17.9674   26.1514 O   0  0  0  0  0  0  0  0  0  0  0  0
  2  1  1  6
  3  2  1  0
  4  2  1  0
  4  5  1  1
  6  7  2  0
  6  4  1  0
  8  6  1  0
  9  8  1  0
  9 10  1  6
 11 10  1  0
 12 11  1  0
 13 14  1  0
 13 12  1  0
 15 16  2  0
 15  9  1  0
 18 17  1  0
 19 18  2  0
 20 18  1  0
 21 22  1  0
 21 20  1  0
 22 23  1  0
 24 23  1  1
 24 25  1  0
 25 15  1  0
 26 24  1  0
 27 26  2  0
 28 26  1  0
M  END
$$$$
