VKR.pdb
     RDKit          3D

 28 27  0  0  1  0  0  0  0  0999 V2000
    6.3899  -17.6741   25.8280 C   0  0  0  0  0  0  0  0  0  0  0  0
    6.2111  -18.9783   25.0830 C   0  0  1  0  0  0  0  0  0  0  0  0
    5.1639  -19.7857   25.7879 C   0  0  0  0  0  0  0  0  0  0  0  0
    5.8286  -18.6787   23.6501 C   0  0  2  0  0  0  0  0  0  0  0  0
    5.4568  -19.8860   22.9355 N   0  0  0  0  0  0  0  0  0  0  0  0
    6.9590  -18.0021   22.9648 C   0  0  0  0  0  0  0  0  0  0  0  0
    8.0304  -18.6612   22.7647 O   0  0  0  0  0  0  0  0  0  0  0  0
    6.8948  -16.6499   22.5220 N   0  0  0  0  0  0  0  0  0  0  0  0
    8.0808  -15.9866   21.9358 C   0  0  1  0  0  0  0  0  0  0  0  0
    7.5210  -14.8757   21.0924 C   0  0  0  0  0  0  0  0  0  0  0  0
    8.0721  -14.7587   19.7214 C   0  0  0  0  0  0  0  0  0  0  0  0
    7.4044  -13.6305   18.9321 C   0  0  0  0  0  0  0  0  0  0  0  0
    7.9940  -13.5578   17.5290 C   0  0  0  0  0  0  0  0  0  0  0  0
    7.3259  -12.4918   16.8162 N   0  0  0  0  0  0  0  0  0  0  0  0
    8.9515  -15.5634   23.0318 C   0  0  0  0  0  0  0  0  0  0  0  0
    8.4107  -15.0379   24.0563 O   0  0  0  0  0  0  0  0  0  0  0  0
   13.9128  -19.4983   27.0427 N   0  0  0  0  0  0  0  0  0  0  0  0
   13.2715  -19.1712   28.2824 C   0  0  0  0  0  0  0  0  0  0  0  0
   13.7771  -19.5794   29.3938 N   0  0  0  0  0  0  0  0  0  0  0  0
   12.0813  -18.3998   28.3062 N   0  0  0  0  0  0  0  0  0  0  0  0
   11.2134  -18.2886   27.1303 C   0  0  0  0  0  0  0  0  0  0  0  0
   11.6188  -17.0169   26.4055 C   0  0  0  0  0  0  0  0  0  0  0  0
   10.7413  -16.8235   25.2044 C   0  0  0  0  0  0  0  0  0  0  0  0
   11.1348  -15.6591   24.3278 C   0  0  2  0  0  0  0  0  0  0  0  0
   10.3492  -15.6764   23.0840 N   0  0  0  0  0  0  0  0  0  0  0  0
   12.5464  -15.8156   23.9418 C   0  0  0  0  0  0  0  0  0  0  0  0
   12.8240  -16.2606   22.8054 O   0  0  0  0  0  0  0  0  0  0  0  0
   13.6000  -15.4939   24.7746 O   0  0  0  0  0  0  0  0  0  0  0  0
  2  1  1  1
  3  2  1  0
  4  2  1  0
  4  5  1  6
  6  7  2  0
  6  4  1  0
  8  6  1  0
  9  8  1  0
  9 10  1  1
 11 10  1  0
 12 11  1  0
 13 14  1  0
 13 12  1  0
 15 16  2  0
 15  9  1  0
 18 17  1  0
 19 18  2  0
 20 18  1  0
 21 22  1  0
 21 20  1  0
 22 23  1  0
 24 23  1  1
 24 25  1  0
 25 15  1  0
 26 24  1  0
 27 26  2  0
 28 26  1  0
M  END
$$$$
