VKR.pdb
     RDKit          3D

 28 27  0  0  1  0  0  0  0  0999 V2000
    7.9825  -12.0761   25.9834 C   0  0  0  0  0  0  0  0  0  0  0  0
    7.0034  -12.9330   26.7548 C   0  0  1  0  0  0  0  0  0  0  0  0
    6.2982  -12.0645   27.7516 C   0  0  0  0  0  0  0  0  0  0  0  0
    6.0410  -13.5785   25.7821 C   0  0  2  0  0  0  0  0  0  0  0  0
    5.1372  -14.4926   26.4559 N   0  0  0  0  0  0  0  0  0  0  0  0
    6.8043  -14.2930   24.7274 C   0  0  0  0  0  0  0  0  0  0  0  0
    7.2097  -15.4764   24.9670 O   0  0  0  0  0  0  0  0  0  0  0  0
    7.1004  -13.7114   23.4614 N   0  0  0  0  0  0  0  0  0  0  0  0
    7.7858  -14.4941   22.4090 C   0  0  1  0  0  0  0  0  0  0  0  0
    7.7237  -13.6259   21.1838 C   0  0  0  0  0  0  0  0  0  0  0  0
    8.3294  -14.1909   19.9545 C   0  0  0  0  0  0  0  0  0  0  0  0
    8.1592  -13.2581   18.7536 C   0  0  0  0  0  0  0  0  0  0  0  0
    8.6028  -13.9652   17.4789 C   0  0  0  0  0  0  0  0  0  0  0  0
    8.3146  -13.0960   16.3599 N   0  0  0  0  0  0  0  0  0  0  0  0
    9.1320  -14.8116   22.8842 C   0  0  0  0  0  0  0  0  0  0  0  0
    9.6745  -14.0181   23.7174 O   0  0  0  0  0  0  0  0  0  0  0  0
   13.0963  -19.2735   29.7443 N   0  0  0  0  0  0  0  0  0  0  0  0
   12.0880  -19.3237   28.7265 C   0  0  0  0  0  0  0  0  0  0  0  0
   10.9917  -19.9639   28.9403 N   0  0  0  0  0  0  0  0  0  0  0  0
   12.2782  -18.6756   27.4792 N   0  0  0  0  0  0  0  0  0  0  0  0
   11.1451  -18.2709   26.6422 C   0  0  0  0  0  0  0  0  0  0  0  0
   11.7271  -17.5761   25.4234 C   0  0  0  0  0  0  0  0  0  0  0  0
   10.6132  -17.0993   24.5391 C   0  0  0  0  0  0  0  0  0  0  0  0
   11.0728  -16.4026   23.2811 C   0  0  2  0  0  0  0  0  0  0  0  0
    9.9105  -15.9202   22.5187 N   0  0  0  0  0  0  0  0  0  0  0  0
   11.7659  -17.3804   22.4270 C   0  0  0  0  0  0  0  0  0  0  0  0
   11.1556  -17.8891   21.4600 O   0  0  0  0  0  0  0  0  0  0  0  0
   13.0730  -17.7752   22.6339 O   0  0  0  0  0  0  0  0  0  0  0  0
  2  1  1  6
  3  2  1  0
  4  2  1  0
  4  5  1  1
  6  7  2  0
  6  4  1  0
  8  6  1  0
  9  8  1  0
  9 10  1  6
 11 10  1  0
 12 11  1  0
 13 14  1  0
 13 12  1  0
 15 16  2  0
 15  9  1  0
 18 17  1  0
 19 18  2  0
 20 18  1  0
 21 22  1  0
 21 20  1  0
 22 23  1  0
 24 23  1  1
 24 25  1  0
 25 15  1  0
 26 24  1  0
 27 26  2  0
 28 26  1  0
M  END
$$$$
