VKR.pdb
     RDKit          3D

 28 27  0  0  1  0  0  0  0  0999 V2000
    9.1343  -12.8174   19.5452 C   0  0  0  0  0  0  0  0  0  0  0  0
    7.9156  -13.2336   18.7517 C   0  0  1  0  0  0  0  0  0  0  0  0
    7.8338  -12.3756   17.5260 C   0  0  0  0  0  0  0  0  0  0  0  0
    8.0285  -14.7033   18.4100 C   0  0  2  0  0  0  0  0  0  0  0  0
    6.9707  -15.1224   17.5091 N   0  0  0  0  0  0  0  0  0  0  0  0
    7.9915  -15.5081   19.6575 C   0  0  0  0  0  0  0  0  0  0  0  0
    7.0724  -15.2708   20.5067 O   0  0  0  0  0  0  0  0  0  0  0  0
    8.9387  -16.5329   19.9429 N   0  0  0  0  0  0  0  0  0  0  0  0
    8.8580  -17.3118   21.1986 C   0  0  1  0  0  0  0  0  0  0  0  0
    8.9825  -18.7465   20.7684 C   0  0  0  0  0  0  0  0  0  0  0  0
    9.0479  -19.7492   21.8581 C   0  0  0  0  0  0  0  0  0  0  0  0
    9.2071  -21.1714   21.3164 C   0  0  0  0  0  0  0  0  0  0  0  0
    9.2856  -22.1621   22.4714 C   0  0  0  0  0  0  0  0  0  0  0  0
    9.5357  -23.4752   21.9201 N   0  0  0  0  0  0  0  0  0  0  0  0
    9.9083  -16.8338   22.0970 C   0  0  0  0  0  0  0  0  0  0  0  0
   11.0806  -16.6917   21.6242 O   0  0  0  0  0  0  0  0  0  0  0  0
    9.3504  -14.2865   30.4374 N   0  0  0  0  0  0  0  0  0  0  0  0
   10.0114  -15.5234   30.1402 C   0  0  0  0  0  0  0  0  0  0  0  0
   10.0613  -16.4540   31.0285 N   0  0  0  0  0  0  0  0  0  0  0  0
   10.6154  -15.7416   28.8755 N   0  0  0  0  0  0  0  0  0  0  0  0
   10.7511  -14.6635   27.8918 C   0  0  0  0  0  0  0  0  0  0  0  0
   11.3988  -15.2731   26.6606 C   0  0  0  0  0  0  0  0  0  0  0  0
   10.3407  -15.6049   25.6504 C   0  0  0  0  0  0  0  0  0  0  0  0
   10.8767  -16.0951   24.3269 C   0  0  2  0  0  0  0  0  0  0  0  0
    9.7654  -16.5035   23.4532 N   0  0  0  0  0  0  0  0  0  0  0  0
   11.6942  -17.2956   24.5648 C   0  0  0  0  0  0  0  0  0  0  0  0
   11.1303  -18.4072   24.6776 O   0  0  0  0  0  0  0  0  0  0  0  0
   13.0707  -17.2660   24.6720 O   0  0  0  0  0  0  0  0  0  0  0  0
  2  1  1  6
  3  2  1  0
  4  2  1  0
  4  5  1  6
  6  7  2  0
  6  4  1  0
  8  6  1  0
  9  8  1  0
  9 10  1  6
 11 10  1  0
 12 11  1  0
 13 14  1  0
 13 12  1  0
 15 16  2  0
 15  9  1  0
 18 17  1  0
 19 18  2  0
 20 18  1  0
 21 22  1  0
 21 20  1  0
 22 23  1  0
 24 23  1  1
 24 25  1  0
 25 15  1  0
 26 24  1  0
 27 26  2  0
 28 26  1  0
M  END
$$$$
