VKR.pdb
     RDKit          3D

 28 27  0  0  1  0  0  0  0  0999 V2000
    9.5065  -12.9059   20.1533 C   0  0  0  0  0  0  0  0  0  0  0  0
    8.2458  -13.0781   19.3354 C   0  0  1  0  0  0  0  0  0  0  0  0
    8.1125  -11.9006   18.4185 C   0  0  0  0  0  0  0  0  0  0  0  0
    8.3264  -14.3839   18.5752 C   0  0  2  0  0  0  0  0  0  0  0  0
    7.1742  -14.5687   17.7123 N   0  0  0  0  0  0  0  0  0  0  0  0
    8.4374  -15.5119   19.5348 C   0  0  0  0  0  0  0  0  0  0  0  0
    7.4604  -15.7405   20.3194 O   0  0  0  0  0  0  0  0  0  0  0  0
    9.5881  -16.3475   19.6134 N   0  0  0  0  0  0  0  0  0  0  0  0
    9.6756  -17.4246   20.6245 C   0  0  1  0  0  0  0  0  0  0  0  0
   10.3250  -18.5735   19.9055 C   0  0  0  0  0  0  0  0  0  0  0  0
   10.6541  -19.7574   20.7345 C   0  0  0  0  0  0  0  0  0  0  0  0
   11.3568  -20.8464   19.9210 C   0  0  0  0  0  0  0  0  0  0  0  0
   11.6268  -22.0604   20.8013 C   0  0  0  0  0  0  0  0  0  0  0  0
   12.2579  -23.0744   19.9862 N   0  0  0  0  0  0  0  0  0  0  0  0
   10.4151  -16.9072   21.7753 C   0  0  0  0  0  0  0  0  0  0  0  0
   11.3666  -16.0917   21.5570 O   0  0  0  0  0  0  0  0  0  0  0  0
    9.8912  -14.4832   31.0480 N   0  0  0  0  0  0  0  0  0  0  0  0
   10.4927  -15.1405   29.9248 C   0  0  0  0  0  0  0  0  0  0  0  0
   11.0300  -16.3010   30.0726 N   0  0  0  0  0  0  0  0  0  0  0  0
   10.5059  -14.5304   28.6444 N   0  0  0  0  0  0  0  0  0  0  0  0
    9.7496  -15.0875   27.5192 C   0  0  0  0  0  0  0  0  0  0  0  0
   10.7684  -15.6399   26.5374 C   0  0  0  0  0  0  0  0  0  0  0  0
   10.0705  -16.0736   25.2824 C   0  0  0  0  0  0  0  0  0  0  0  0
   10.9818  -16.6777   24.2414 C   0  0  2  0  0  0  0  0  0  0  0  0
   10.1867  -17.2136   23.1254 N   0  0  0  0  0  0  0  0  0  0  0  0
   11.6938  -17.8170   24.8422 C   0  0  0  0  0  0  0  0  0  0  0  0
   11.2270  -18.9703   24.7067 O   0  0  0  0  0  0  0  0  0  0  0  0
   12.8673  -17.6850   25.5582 O   0  0  0  0  0  0  0  0  0  0  0  0
  2  1  1  6
  3  2  1  0
  4  2  1  0
  4  5  1  1
  6  7  2  0
  6  4  1  0
  8  6  1  0
  9  8  1  0
  9 10  1  6
 11 10  1  0
 12 11  1  0
 13 14  1  0
 13 12  1  0
 15 16  2  0
 15  9  1  0
 18 17  1  0
 19 18  2  0
 20 18  1  0
 21 22  1  0
 21 20  1  0
 22 23  1  0
 24 23  1  1
 24 25  1  0
 25 15  1  0
 26 24  1  0
 27 26  2  0
 28 26  1  0
M  END
$$$$
