VKR.pdb
     RDKit          3D

 28 27  0  0  1  0  0  0  0  0999 V2000
    7.4562  -13.6360   17.2282 C   0  0  0  0  0  0  0  0  0  0  0  0
    8.0606  -13.3463   18.5843 C   0  0  1  0  0  0  0  0  0  0  0  0
    7.1770  -12.3680   19.2964 C   0  0  0  0  0  0  0  0  0  0  0  0
    8.2022  -14.6447   19.3480 C   0  0  2  0  0  0  0  0  0  0  0  0
    6.9460  -15.3696   19.4019 N   0  0  0  0  0  0  0  0  0  0  0  0
    8.6935  -14.3631   20.7208 C   0  0  0  0  0  0  0  0  0  0  0  0
    9.8993  -13.9800   20.8680 O   0  0  0  0  0  0  0  0  0  0  0  0
    7.8739  -14.5025   21.8774 N   0  0  0  0  0  0  0  0  0  0  0  0
    8.4273  -14.2754   23.2310 C   0  0  1  0  0  0  0  0  0  0  0  0
    7.2601  -13.7948   24.0466 C   0  0  0  0  0  0  0  0  0  0  0  0
    7.5349  -13.5211   25.4773 C   0  0  0  0  0  0  0  0  0  0  0  0
    6.3239  -12.9083   26.1841 C   0  0  0  0  0  0  0  0  0  0  0  0
    6.6125  -12.7560   27.6724 C   0  0  0  0  0  0  0  0  0  0  0  0
    5.4499  -12.1649   28.2968 N   0  0  0  0  0  0  0  0  0  0  0  0
    9.0383  -15.5237   23.6863 C   0  0  0  0  0  0  0  0  0  0  0  0
    8.3789  -16.6012   23.5373 O   0  0  0  0  0  0  0  0  0  0  0  0
   15.5365  -14.4990   20.9895 N   0  0  0  0  0  0  0  0  0  0  0  0
   14.6459  -15.2391   20.1443 C   0  0  0  0  0  0  0  0  0  0  0  0
   14.5542  -14.9445   18.8944 N   0  0  0  0  0  0  0  0  0  0  0  0
   13.8586  -16.2980   20.6646 N   0  0  0  0  0  0  0  0  0  0  0  0
   13.8567  -16.6246   22.0935 C   0  0  0  0  0  0  0  0  0  0  0  0
   12.4054  -16.6209   22.5416 C   0  0  0  0  0  0  0  0  0  0  0  0
   12.3275  -17.0033   23.9900 C   0  0  0  0  0  0  0  0  0  0  0  0
   10.9333  -16.9683   24.5681 C   0  0  2  0  0  0  0  0  0  0  0  0
   10.3008  -15.6714   24.2806 N   0  0  0  0  0  0  0  0  0  0  0  0
   11.0272  -17.0806   26.0325 C   0  0  0  0  0  0  0  0  0  0  0  0
   10.7122  -16.0994   26.7427 O   0  0  0  0  0  0  0  0  0  0  0  0
   11.4492  -18.2255   26.6793 O   0  0  0  0  0  0  0  0  0  0  0  0
  2  1  1  6
  3  2  1  0
  4  2  1  0
  4  5  1  1
  6  7  2  0
  6  4  1  0
  8  6  1  0
  9  8  1  0
  9 10  1  1
 11 10  1  0
 12 11  1  0
 13 14  1  0
 13 12  1  0
 15 16  2  0
 15  9  1  0
 18 17  1  0
 19 18  2  0
 20 18  1  0
 21 22  1  0
 21 20  1  0
 22 23  1  0
 24 23  1  6
 24 25  1  0
 25 15  1  0
 26 24  1  0
 27 26  2  0
 28 26  1  0
M  END
$$$$
