VKR.pdb
     RDKit          3D

 28 27  0  0  1  0  0  0  0  0999 V2000
    7.8816  -12.2851   25.7082 C   0  0  0  0  0  0  0  0  0  0  0  0
    7.1715  -13.3208   26.5514 C   0  0  1  0  0  0  0  0  0  0  0  0
    6.4997  -12.6210   27.6933 C   0  0  0  0  0  0  0  0  0  0  0  0
    6.1838  -14.0695   25.6835 C   0  0  2  0  0  0  0  0  0  0  0  0
    5.5162  -15.1232   26.4255 N   0  0  0  0  0  0  0  0  0  0  0  0
    6.8871  -14.6359   24.5046 C   0  0  0  0  0  0  0  0  0  0  0  0
    7.3339  -15.8265   24.5778 O   0  0  0  0  0  0  0  0  0  0  0  0
    7.0818  -13.9050   23.2977 N   0  0  0  0  0  0  0  0  0  0  0  0
    7.8146  -14.5023   22.1592 C   0  0  1  0  0  0  0  0  0  0  0  0
    7.5813  -13.5566   21.0146 C   0  0  0  0  0  0  0  0  0  0  0  0
    7.5789  -14.1612   19.6612 C   0  0  0  0  0  0  0  0  0  0  0  0
    8.1871  -13.2235   18.6161 C   0  0  0  0  0  0  0  0  0  0  0  0
    8.1507  -13.8821   17.2426 C   0  0  0  0  0  0  0  0  0  0  0  0
    8.7541  -12.9737   16.2931 N   0  0  0  0  0  0  0  0  0  0  0  0
    9.2115  -14.6712   22.5576 C   0  0  0  0  0  0  0  0  0  0  0  0
    9.6746  -13.8989   23.4560 O   0  0  0  0  0  0  0  0  0  0  0  0
   11.6743  -19.2341   27.4757 N   0  0  0  0  0  0  0  0  0  0  0  0
   12.1910  -20.2929   26.6589 C   0  0  0  0  0  0  0  0  0  0  0  0
   13.1489  -21.0327   27.0977 N   0  0  0  0  0  0  0  0  0  0  0  0
   11.6613  -20.5418   25.3668 N   0  0  0  0  0  0  0  0  0  0  0  0
   10.6638  -19.6553   24.7608 C   0  0  0  0  0  0  0  0  0  0  0  0
   11.4205  -18.4647   24.1978 C   0  0  0  0  0  0  0  0  0  0  0  0
   10.4581  -17.5340   23.5212 C   0  0  0  0  0  0  0  0  0  0  0  0
   11.1057  -16.3356   22.8702 C   0  0  2  0  0  0  0  0  0  0  0  0
   10.1199  -15.6131   22.0510 N   0  0  0  0  0  0  0  0  0  0  0  0
   12.1566  -16.8072   21.9541 C   0  0  0  0  0  0  0  0  0  0  0  0
   13.1430  -17.4213   22.4191 O   0  0  0  0  0  0  0  0  0  0  0  0
   12.1162  -16.6086   20.5881 O   0  0  0  0  0  0  0  0  0  0  0  0
  2  1  1  6
  3  2  1  0
  4  2  1  0
  4  5  1  1
  6  7  2  0
  6  4  1  0
  8  6  1  0
  9  8  1  0
  9 10  1  6
 11 10  1  0
 12 11  1  0
 13 14  1  0
 13 12  1  0
 15 16  2  0
 15  9  1  0
 18 17  1  0
 19 18  2  0
 20 18  1  0
 21 22  1  0
 21 20  1  0
 22 23  1  0
 24 23  1  6
 24 25  1  0
 25 15  1  0
 26 24  1  0
 27 26  2  0
 28 26  1  0
M  END
$$$$
