VKR.pdb
     RDKit          3D

 28 27  0  0  1  0  0  0  0  0999 V2000
   10.2731  -14.5109   19.2689 C   0  0  0  0  0  0  0  0  0  0  0  0
    9.0312  -13.7369   19.6515 C   0  0  1  0  0  0  0  0  0  0  0  0
    8.7482  -12.7344   18.5744 C   0  0  0  0  0  0  0  0  0  0  0  0
    7.8852  -14.7065   19.8407 C   0  0  2  0  0  0  0  0  0  0  0  0
    6.6228  -14.0108   20.0110 N   0  0  0  0  0  0  0  0  0  0  0  0
    8.1571  -15.5749   21.0143 C   0  0  0  0  0  0  0  0  0  0  0  0
    8.0620  -15.0691   22.1794 O   0  0  0  0  0  0  0  0  0  0  0  0
    8.5181  -16.9472   20.8915 N   0  0  0  0  0  0  0  0  0  0  0  0
    8.8348  -17.7581   22.0882 C   0  0  1  0  0  0  0  0  0  0  0  0
    8.0381  -19.0210   21.9174 C   0  0  0  0  0  0  0  0  0  0  0  0
    6.5921  -18.9252   22.2289 C   0  0  0  0  0  0  0  0  0  0  0  0
    5.8386  -20.1986   21.8389 C   0  0  0  0  0  0  0  0  0  0  0  0
    4.3694  -20.0717   22.2225 C   0  0  0  0  0  0  0  0  0  0  0  0
    3.6729  -21.2361   21.7228 N   0  0  0  0  0  0  0  0  0  0  0  0
   10.2854  -17.9352   22.1450 C   0  0  0  0  0  0  0  0  0  0  0  0
   10.8488  -18.5630   21.1928 O   0  0  0  0  0  0  0  0  0  0  0  0
   16.4854  -14.6079   19.5305 N   0  0  0  0  0  0  0  0  0  0  0  0
   15.1676  -14.3912   19.0092 C   0  0  0  0  0  0  0  0  0  0  0  0
   15.0095  -14.1000   17.7651 N   0  0  0  0  0  0  0  0  0  0  0  0
   14.0267  -14.4930   19.8459 N   0  0  0  0  0  0  0  0  0  0  0  0
   14.1410  -14.8572   21.2610 C   0  0  0  0  0  0  0  0  0  0  0  0
   13.3155  -16.1170   21.4570 C   0  0  0  0  0  0  0  0  0  0  0  0
   13.3899  -16.5464   22.8923 C   0  0  0  0  0  0  0  0  0  0  0  0
   12.5853  -17.7826   23.2140 C   0  0  2  0  0  0  0  0  0  0  0  0
   11.1471  -17.4779   23.1535 N   0  0  0  0  0  0  0  0  0  0  0  0
   12.8766  -18.1877   24.5986 C   0  0  0  0  0  0  0  0  0  0  0  0
   14.0153  -18.6232   24.8818 O   0  0  0  0  0  0  0  0  0  0  0  0
   11.9509  -18.1132   25.6207 O   0  0  0  0  0  0  0  0  0  0  0  0
  2  1  1  6
  3  2  1  0
  4  2  1  0
  4  5  1  1
  6  7  2  0
  6  4  1  0
  8  6  1  0
  9  8  1  0
  9 10  1  6
 11 10  1  0
 12 11  1  0
 13 14  1  0
 13 12  1  0
 15 16  2  0
 15  9  1  0
 18 17  1  0
 19 18  2  0
 20 18  1  0
 21 22  1  0
 21 20  1  0
 22 23  1  0
 24 23  1  1
 24 25  1  0
 25 15  1  0
 26 24  1  0
 27 26  2  0
 28 26  1  0
M  END
$$$$
