FFN.pdb
     RDKit          3D

 31 32  0  0  1  0  0  0  0  0999 V2000
    9.8672  -17.9299   20.0591 N   0  0  0  0  0  0  0  0  0  0  0  0
    9.2969  -16.7632   20.6542 C   0  0  1  0  0  0  0  0  0  0  0  0
    7.9375  -16.4530   20.0703 C   0  0  0  0  0  0  0  0  0  0  0  0
    7.7847  -14.9844   19.9286 C   0  0  0  0  0  0  0  0  0  0  0  0
    6.7026  -14.3887   20.5402 C   0  0  0  0  0  0  0  0  0  0  0  0
    6.4947  -13.0085   20.4480 C   0  0  0  0  0  0  0  0  0  0  0  0
    7.3613  -12.2274   19.7497 C   0  0  0  0  0  0  0  0  0  0  0  0
    8.4498  -12.8012   19.1302 C   0  0  0  0  0  0  0  0  0  0  0  0
    8.6493  -14.1738   19.2268 C   0  0  0  0  0  0  0  0  0  0  0  0
    9.2544  -16.8350   22.1389 C   0  0  0  0  0  0  0  0  0  0  0  0
   10.2281  -17.3191   22.7774 O   0  0  0  0  0  0  0  0  0  0  0  0
    8.1580  -16.3817   22.9157 N   0  0  0  0  0  0  0  0  0  0  0  0
    8.3234  -15.4782   24.0644 C   0  0  1  0  0  0  0  0  0  0  0  0
    7.2582  -14.4347   24.0916 C   0  0  0  0  0  0  0  0  0  0  0  0
    7.3084  -13.4966   25.2073 C   0  0  0  0  0  0  0  0  0  0  0  0
    8.2174  -13.6482   26.2318 C   0  0  0  0  0  0  0  0  0  0  0  0
    8.2806  -12.7736   27.2993 C   0  0  0  0  0  0  0  0  0  0  0  0
    7.4231  -11.7005   27.3796 C   0  0  0  0  0  0  0  0  0  0  0  0
    6.5069  -11.5313   26.3657 C   0  0  0  0  0  0  0  0  0  0  0  0
    6.4528  -12.4249   25.2888 C   0  0  0  0  0  0  0  0  0  0  0  0
    8.4548  -16.2945   25.2724 C   0  0  0  0  0  0  0  0  0  0  0  0
    8.6057  -15.7503   26.4208 O   0  0  0  0  0  0  0  0  0  0  0  0
   11.9975  -20.4664   24.6339 N   0  0  0  0  0  0  0  0  0  0  0  0
   11.8764  -19.0961   24.9775 C   0  0  0  0  0  0  0  0  0  0  0  0
   12.7710  -18.5083   25.6179 O   0  0  0  0  0  0  0  0  0  0  0  0
   10.6678  -18.3635   24.5656 C   0  0  0  0  0  0  0  0  0  0  0  0
    9.6089  -18.5239   25.6357 C   0  0  2  0  0  0  0  0  0  0  0  0
    8.4255  -17.7162   25.2843 N   0  0  0  0  0  0  0  0  0  0  0  0
   10.1022  -18.1978   26.9690 C   0  0  0  0  0  0  0  0  0  0  0  0
   10.5122  -16.9433   27.3833 O   0  0  0  0  0  0  0  0  0  0  0  0
   10.1824  -19.1066   27.8603 O   0  0  0  0  0  0  0  0  0  0  0  0
  2  1  1  6
  2  3  1  0
  3  4  1  0
  4  5  2  0
  5  6  1  0
  7  6  2  0
  8  7  1  0
  9  4  1  0
  9  8  2  0
 10 12  1  0
 10  2  1  0
 11 10  2  0
 13 12  1  0
 13 14  1  1
 15 16  2  0
 15 14  1  0
 17 16  1  0
 18 17  2  0
 19 18  1  0
 19 20  2  0
 20 15  1  0
 21 28  1  0
 21 13  1  0
 22 21  2  0
 24 23  1  0
 24 25  2  0
 27 26  1  6
 26 24  1  0
 27 28  1  0
 27 29  1  0
 29 30  1  0
 31 29  2  0
M  END
$$$$
