FFN.pdb
     RDKit          3D

 31 32  0  0  1  0  0  0  0  0999 V2000
    8.1259  -17.3443   20.9608 N   0  0  0  0  0  0  0  0  0  0  0  0
    9.4923  -16.9291   20.9276 C   0  0  1  0  0  0  0  0  0  0  0  0
    9.7177  -15.8515   19.8917 C   0  0  0  0  0  0  0  0  0  0  0  0
    8.8137  -14.7077   20.1646 C   0  0  0  0  0  0  0  0  0  0  0  0
    7.4713  -14.8714   19.8984 C   0  0  0  0  0  0  0  0  0  0  0  0
    6.5607  -13.8351   20.1304 C   0  0  0  0  0  0  0  0  0  0  0  0
    6.9873  -12.6426   20.6252 C   0  0  0  0  0  0  0  0  0  0  0  0
    8.3245  -12.4564   20.8987 C   0  0  0  0  0  0  0  0  0  0  0  0
    9.2230  -13.4915   20.6653 C   0  0  0  0  0  0  0  0  0  0  0  0
   10.0046  -16.5235   22.2635 C   0  0  0  0  0  0  0  0  0  0  0  0
   11.1715  -16.0599   22.3799 O   0  0  0  0  0  0  0  0  0  0  0  0
    9.2476  -16.6245   23.4583 N   0  0  0  0  0  0  0  0  0  0  0  0
    9.7981  -16.2687   24.7749 C   0  0  1  0  0  0  0  0  0  0  0  0
    8.7734  -15.6017   25.6291 C   0  0  0  0  0  0  0  0  0  0  0  0
    9.2530  -15.0469   26.8899 C   0  0  0  0  0  0  0  0  0  0  0  0
    9.5253  -13.7029   27.0250 C   0  0  0  0  0  0  0  0  0  0  0  0
    9.9827  -13.1567   28.2086 C   0  0  0  0  0  0  0  0  0  0  0  0
   10.1866  -13.9490   29.3150 C   0  0  0  0  0  0  0  0  0  0  0  0
    9.9203  -15.2951   29.2008 C   0  0  0  0  0  0  0  0  0  0  0  0
    9.4569  -15.8367   27.9953 C   0  0  0  0  0  0  0  0  0  0  0  0
   10.4314  -17.4603   25.3424 C   0  0  0  0  0  0  0  0  0  0  0  0
   10.0119  -17.9690   26.4392 O   0  0  0  0  0  0  0  0  0  0  0  0
   10.6363  -20.3674   23.6704 N   0  0  0  0  0  0  0  0  0  0  0  0
   12.0176  -20.6106   23.4627 C   0  0  0  0  0  0  0  0  0  0  0  0
   12.4184  -21.2661   22.4799 O   0  0  0  0  0  0  0  0  0  0  0  0
   12.9878  -20.0746   24.4314 C   0  0  0  0  0  0  0  0  0  0  0  0
   12.2504  -19.2251   25.4446 C   0  0  2  0  0  0  0  0  0  0  0  0
   11.5298  -18.1416   24.7496 N   0  0  0  0  0  0  0  0  0  0  0  0
   13.1279  -18.7018   26.4855 C   0  0  0  0  0  0  0  0  0  0  0  0
   13.7565  -19.4616   27.4556 O   0  0  0  0  0  0  0  0  0  0  0  0
   13.3658  -17.4504   26.5508 O   0  0  0  0  0  0  0  0  0  0  0  0
  2  1  1  1
  2  3  1  0
  3  4  1  0
  4  5  2  0
  5  6  1  0
  7  6  2  0
  8  7  1  0
  9  4  1  0
  9  8  2  0
 10 12  1  0
 10  2  1  0
 11 10  2  0
 13 12  1  0
 13 14  1  1
 15 16  2  0
 15 14  1  0
 17 16  1  0
 18 17  2  0
 19 18  1  0
 19 20  2  0
 20 15  1  0
 21 28  1  0
 21 13  1  0
 22 21  2  0
 24 23  1  0
 24 25  2  0
 27 26  1  6
 26 24  1  0
 27 28  1  0
 27 29  1  0
 29 30  1  0
 31 29  2  0
M  END
$$$$
