FFN.pdb
     RDKit          3D

 31 32  0  0  1  0  0  0  0  0999 V2000
    7.6907  -17.6473   20.8200 N   0  0  0  0  0  0  0  0  0  0  0  0
    8.9662  -17.0282   20.6454 C   0  0  1  0  0  0  0  0  0  0  0  0
    8.9820  -16.1274   19.4317 C   0  0  0  0  0  0  0  0  0  0  0  0
    8.1904  -14.9051   19.7139 C   0  0  0  0  0  0  0  0  0  0  0  0
    8.8321  -13.6886   19.6242 C   0  0  0  0  0  0  0  0  0  0  0  0
    8.1485  -12.4947   19.8776 C   0  0  0  0  0  0  0  0  0  0  0  0
    6.8324  -12.5148   20.2186 C   0  0  0  0  0  0  0  0  0  0  0  0
    6.1706  -13.7191   20.3143 C   0  0  0  0  0  0  0  0  0  0  0  0
    6.8574  -14.9012   20.0607 C   0  0  0  0  0  0  0  0  0  0  0  0
    9.4337  -16.3166   21.8646 C   0  0  0  0  0  0  0  0  0  0  0  0
   10.4846  -15.6207   21.8275 O   0  0  0  0  0  0  0  0  0  0  0  0
    8.7579  -16.3664   23.1103 N   0  0  0  0  0  0  0  0  0  0  0  0
    9.2282  -15.6315   24.2944 C   0  0  1  0  0  0  0  0  0  0  0  0
    8.0899  -15.2245   25.1678 C   0  0  0  0  0  0  0  0  0  0  0  0
    8.4399  -14.4737   26.3682 C   0  0  0  0  0  0  0  0  0  0  0  0
    8.2688  -13.1080   26.4358 C   0  0  0  0  0  0  0  0  0  0  0  0
    8.5960  -12.3769   27.5613 C   0  0  0  0  0  0  0  0  0  0  0  0
    9.1138  -12.9968   28.6753 C   0  0  0  0  0  0  0  0  0  0  0  0
    9.2926  -14.3612   28.6281 C   0  0  0  0  0  0  0  0  0  0  0  0
    8.9570  -15.0912   27.4811 C   0  0  0  0  0  0  0  0  0  0  0  0
   10.2795  -16.4233   24.9355 C   0  0  0  0  0  0  0  0  0  0  0  0
   11.0764  -15.8933   25.7851 O   0  0  0  0  0  0  0  0  0  0  0  0
   14.1351  -19.9270   24.8323 N   0  0  0  0  0  0  0  0  0  0  0  0
   14.1612  -18.5104   24.8851 C   0  0  0  0  0  0  0  0  0  0  0  0
   15.1932  -17.8945   25.2194 O   0  0  0  0  0  0  0  0  0  0  0  0
   12.9418  -17.7629   24.5368 C   0  0  0  0  0  0  0  0  0  0  0  0
   11.7422  -18.4883   25.1085 C   0  0  2  0  0  0  0  0  0  0  0  0
   10.5047  -17.8050   24.6865 N   0  0  0  0  0  0  0  0  0  0  0  0
   11.8077  -18.6285   26.5588 C   0  0  0  0  0  0  0  0  0  0  0  0
   11.6214  -17.6034   27.4687 O   0  0  0  0  0  0  0  0  0  0  0  0
   12.0548  -19.7661   27.0800 O   0  0  0  0  0  0  0  0  0  0  0  0
  2  1  1  1
  2  3  1  0
  3  4  1  0
  4  5  2  0
  5  6  1  0
  7  6  2  0
  8  7  1  0
  9  4  1  0
  9  8  2  0
 10 12  1  0
 10  2  1  0
 11 10  2  0
 13 12  1  0
 13 14  1  1
 15 16  2  0
 15 14  1  0
 17 16  1  0
 18 17  2  0
 19 18  1  0
 19 20  2  0
 20 15  1  0
 21 28  1  0
 21 13  1  0
 22 21  2  0
 24 23  1  0
 24 25  2  0
 27 26  1  1
 26 24  1  0
 27 28  1  0
 27 29  1  0
 29 30  1  0
 31 29  2  0
M  END
$$$$
