FFN.pdb
     RDKit          3D

 31 32  0  0  1  0  0  0  0  0999 V2000
    8.4510  -15.8502   21.6505 N   0  0  0  0  0  0  0  0  0  0  0  0
    9.6711  -15.3030   22.1531 C   0  0  1  0  0  0  0  0  0  0  0  0
    9.7821  -13.8267   21.8478 C   0  0  0  0  0  0  0  0  0  0  0  0
    8.6723  -13.4235   20.9501 C   0  0  0  0  0  0  0  0  0  0  0  0
    8.9191  -12.4273   20.0301 C   0  0  0  0  0  0  0  0  0  0  0  0
    7.9192  -11.9956   19.1523 C   0  0  0  0  0  0  0  0  0  0  0  0
    6.6804  -12.5547   19.1923 C   0  0  0  0  0  0  0  0  0  0  0  0
    6.4110  -13.5520   20.1036 C   0  0  0  0  0  0  0  0  0  0  0  0
    7.4105  -13.9753   20.9726 C   0  0  0  0  0  0  0  0  0  0  0  0
    9.8760  -15.5825   23.5993 C   0  0  0  0  0  0  0  0  0  0  0  0
   10.9149  -15.1697   24.1828 O   0  0  0  0  0  0  0  0  0  0  0  0
    8.9537  -16.3057   24.3975 N   0  0  0  0  0  0  0  0  0  0  0  0
    9.0212  -16.3198   25.8666 C   0  0  1  0  0  0  0  0  0  0  0  0
    7.7323  -15.8782   26.4732 C   0  0  0  0  0  0  0  0  0  0  0  0
    7.4780  -14.4420   26.4629 C   0  0  0  0  0  0  0  0  0  0  0  0
    6.2393  -13.9350   26.1353 C   0  0  0  0  0  0  0  0  0  0  0  0
    5.9773  -12.5788   26.1165 C   0  0  0  0  0  0  0  0  0  0  0  0
    6.9609  -11.6690   26.4297 C   0  0  0  0  0  0  0  0  0  0  0  0
    8.2060  -12.1554   26.7599 C   0  0  0  0  0  0  0  0  0  0  0  0
    8.4592  -13.5327   26.7754 C   0  0  0  0  0  0  0  0  0  0  0  0
    9.5143  -17.6320   26.2886 C   0  0  0  0  0  0  0  0  0  0  0  0
    9.4441  -17.9985   27.5128 O   0  0  0  0  0  0  0  0  0  0  0  0
    9.7834  -20.3682   22.5454 N   0  0  0  0  0  0  0  0  0  0  0  0
    9.7091  -20.8386   23.8809 C   0  0  0  0  0  0  0  0  0  0  0  0
    8.6460  -21.2943   24.3479 O   0  0  0  0  0  0  0  0  0  0  0  0
   10.9154  -20.7833   24.7228 C   0  0  0  0  0  0  0  0  0  0  0  0
   10.6516  -19.8652   25.8973 C   0  0  2  0  0  0  0  0  0  0  0  0
   10.0937  -18.5890   25.4110 N   0  0  0  0  0  0  0  0  0  0  0  0
   11.8356  -19.6515   26.7217 C   0  0  0  0  0  0  0  0  0  0  0  0
   12.1119  -20.3090   27.9070 O   0  0  0  0  0  0  0  0  0  0  0  0
   12.7164  -18.8002   26.3661 O   0  0  0  0  0  0  0  0  0  0  0  0
  2  1  1  1
  2  3  1  0
  3  4  1  0
  4  5  2  0
  5  6  1  0
  7  6  2  0
  8  7  1  0
  9  4  1  0
  9  8  2  0
 10 12  1  0
 10  2  1  0
 11 10  2  0
 13 12  1  0
 13 14  1  1
 15 16  2  0
 15 14  1  0
 17 16  1  0
 18 17  2  0
 19 18  1  0
 19 20  2  0
 20 15  1  0
 21 28  1  0
 21 13  1  0
 22 21  2  0
 24 23  1  0
 24 25  2  0
 27 26  1  6
 26 24  1  0
 27 28  1  0
 27 29  1  0
 29 30  1  0
 31 29  2  0
M  END
$$$$
