FFN.pdb
     RDKit          3D

 31 32  0  0  1  0  0  0  0  0999 V2000
   10.5700  -15.4543   21.0900 N   0  0  0  0  0  0  0  0  0  0  0  0
    9.3938  -15.2195   21.8658 C   0  0  1  0  0  0  0  0  0  0  0  0
    8.1477  -15.6450   21.1234 C   0  0  0  0  0  0  0  0  0  0  0  0
    7.8425  -14.6540   20.0627 C   0  0  0  0  0  0  0  0  0  0  0  0
    7.4582  -13.3899   20.4553 C   0  0  0  0  0  0  0  0  0  0  0  0
    7.1541  -12.4048   19.5099 C   0  0  0  0  0  0  0  0  0  0  0  0
    7.2329  -12.6796   18.1805 C   0  0  0  0  0  0  0  0  0  0  0  0
    7.6148  -13.9362   17.7650 C   0  0  0  0  0  0  0  0  0  0  0  0
    7.9154  -14.9097   18.7112 C   0  0  0  0  0  0  0  0  0  0  0  0
    9.4637  -15.8318   23.2192 C   0  0  0  0  0  0  0  0  0  0  0  0
   10.5254  -16.3909   23.6069 O   0  0  0  0  0  0  0  0  0  0  0  0
    8.3832  -15.8317   24.1375 N   0  0  0  0  0  0  0  0  0  0  0  0
    8.5503  -16.1895   25.5543 C   0  0  1  0  0  0  0  0  0  0  0  0
    7.4246  -15.6680   26.3820 C   0  0  0  0  0  0  0  0  0  0  0  0
    7.2459  -14.2204   26.3815 C   0  0  0  0  0  0  0  0  0  0  0  0
    6.1214  -13.6364   25.8400 C   0  0  0  0  0  0  0  0  0  0  0  0
    5.9329  -12.2680   25.8263 C   0  0  0  0  0  0  0  0  0  0  0  0
    6.8779  -11.4236   26.3624 C   0  0  0  0  0  0  0  0  0  0  0  0
    8.0091  -11.9874   26.9086 C   0  0  0  0  0  0  0  0  0  0  0  0
    8.1886  -13.3763   26.9163 C   0  0  0  0  0  0  0  0  0  0  0  0
    8.7944  -17.6306   25.6357 C   0  0  0  0  0  0  0  0  0  0  0  0
    8.2398  -18.4392   24.8132 O   0  0  0  0  0  0  0  0  0  0  0  0
   10.0660  -19.9104   23.0747 N   0  0  0  0  0  0  0  0  0  0  0  0
   11.1946  -19.8384   23.9299 C   0  0  0  0  0  0  0  0  0  0  0  0
   12.0884  -20.7080   23.8961 O   0  0  0  0  0  0  0  0  0  0  0  0
   11.3032  -18.7118   24.8713 C   0  0  0  0  0  0  0  0  0  0  0  0
   10.7494  -19.1399   26.2137 C   0  0  2  0  0  0  0  0  0  0  0  0
    9.6411  -18.2455   26.5986 N   0  0  0  0  0  0  0  0  0  0  0  0
   11.7726  -19.2004   27.2514 C   0  0  0  0  0  0  0  0  0  0  0  0
   11.7521  -18.4843   28.4348 O   0  0  0  0  0  0  0  0  0  0  0  0
   12.7881  -19.9577   27.1037 O   0  0  0  0  0  0  0  0  0  0  0  0
  2  1  1  6
  2  3  1  0
  3  4  1  0
  4  5  2  0
  5  6  1  0
  7  6  2  0
  8  7  1  0
  9  4  1  0
  9  8  2  0
 10 12  1  0
 10  2  1  0
 11 10  2  0
 13 12  1  0
 13 14  1  1
 15 16  2  0
 15 14  1  0
 17 16  1  0
 18 17  2  0
 19 18  1  0
 19 20  2  0
 20 15  1  0
 21 28  1  0
 21 13  1  0
 22 21  2  0
 24 23  1  0
 24 25  2  0
 27 26  1  6
 26 24  1  0
 27 28  1  0
 27 29  1  0
 29 30  1  0
 31 29  2  0
M  END
$$$$
