FFN.pdb
     RDKit          3D

 31 32  0  0  1  0  0  0  0  0999 V2000
   10.6663  -17.8695   20.7755 N   0  0  0  0  0  0  0  0  0  0  0  0
    9.8835  -16.6785   20.8717 C   0  0  1  0  0  0  0  0  0  0  0  0
    8.7380  -16.6885   19.8854 C   0  0  0  0  0  0  0  0  0  0  0  0
    8.0955  -15.3518   19.8616 C   0  0  0  0  0  0  0  0  0  0  0  0
    6.8344  -15.2349   20.4054 C   0  0  0  0  0  0  0  0  0  0  0  0
    6.1674  -14.0053   20.4167 C   0  0  0  0  0  0  0  0  0  0  0  0
    6.7556  -12.8990   19.8885 C   0  0  0  0  0  0  0  0  0  0  0  0
    8.0156  -12.9922   19.3396 C   0  0  0  0  0  0  0  0  0  0  0  0
    8.6716  -14.2182   19.3324 C   0  0  0  0  0  0  0  0  0  0  0  0
    9.4145  -16.4066   22.2565 C   0  0  0  0  0  0  0  0  0  0  0  0
    9.3896  -17.3346   23.1099 O   0  0  0  0  0  0  0  0  0  0  0  0
    8.9780  -15.1330   22.7016 N   0  0  0  0  0  0  0  0  0  0  0  0
    8.7012  -14.8426   24.1166 C   0  0  1  0  0  0  0  0  0  0  0  0
    7.9192  -13.5818   24.2688 C   0  0  0  0  0  0  0  0  0  0  0  0
    7.5701  -13.2052   25.6340 C   0  0  0  0  0  0  0  0  0  0  0  0
    6.2844  -12.8420   25.9716 C   0  0  0  0  0  0  0  0  0  0  0  0
    5.9322  -12.4792   27.2572 C   0  0  0  0  0  0  0  0  0  0  0  0
    6.8691  -12.4671   28.2649 C   0  0  0  0  0  0  0  0  0  0  0  0
    8.1599  -12.8268   27.9482 C   0  0  0  0  0  0  0  0  0  0  0  0
    8.5044  -13.1926   26.6410 C   0  0  0  0  0  0  0  0  0  0  0  0
    8.1153  -16.0397   24.7223 C   0  0  0  0  0  0  0  0  0  0  0  0
    6.8763  -16.3181   24.5633 O   0  0  0  0  0  0  0  0  0  0  0  0
    5.9507  -18.1749   24.7927 N   0  0  0  0  0  0  0  0  0  0  0  0
    6.8533  -19.2451   24.5688 C   0  0  0  0  0  0  0  0  0  0  0  0
    6.6051  -20.1365   23.7322 O   0  0  0  0  0  0  0  0  0  0  0  0
    8.1038  -19.2951   25.3440 C   0  0  0  0  0  0  0  0  0  0  0  0
    8.1765  -18.0741   26.2361 C   0  0  2  0  0  0  0  0  0  0  0  0
    8.8405  -16.9729   25.5130 N   0  0  0  0  0  0  0  0  0  0  0  0
    8.8296  -18.3468   27.5114 C   0  0  0  0  0  0  0  0  0  0  0  0
    8.2693  -19.0547   28.5595 O   0  0  0  0  0  0  0  0  0  0  0  0
   10.0116  -17.9192   27.7280 O   0  0  0  0  0  0  0  0  0  0  0  0
  2  1  1  1
  2  3  1  0
  3  4  1  0
  4  5  2  0
  5  6  1  0
  7  6  2  0
  8  7  1  0
  9  4  1  0
  9  8  2  0
 10 12  1  0
 10  2  1  0
 11 10  2  0
 13 12  1  0
 13 14  1  6
 15 16  2  0
 15 14  1  0
 17 16  1  0
 18 17  2  0
 19 18  1  0
 19 20  2  0
 20 15  1  0
 21 28  1  0
 21 13  1  0
 22 21  2  0
 24 23  1  0
 24 25  2  0
 27 26  1  6
 26 24  1  0
 27 28  1  0
 27 29  1  0
 29 30  1  0
 31 29  2  0
M  END
$$$$
