FFN.pdb
     RDKit          3D

 31 32  0  0  1  0  0  0  0  0999 V2000
   11.1458  -16.0136   21.8507 N   0  0  0  0  0  0  0  0  0  0  0  0
    9.9177  -15.5833   22.4398 C   0  0  1  0  0  0  0  0  0  0  0  0
    8.7274  -16.0134   21.6133 C   0  0  0  0  0  0  0  0  0  0  0  0
    8.1378  -14.8286   20.9433 C   0  0  0  0  0  0  0  0  0  0  0  0
    7.5547  -13.8648   21.7374 C   0  0  0  0  0  0  0  0  0  0  0  0
    6.9781  -12.7215   21.1742 C   0  0  0  0  0  0  0  0  0  0  0  0
    6.9835  -12.5411   19.8265 C   0  0  0  0  0  0  0  0  0  0  0  0
    7.5608  -13.4913   19.0133 C   0  0  0  0  0  0  0  0  0  0  0  0
    8.1317  -14.6248   19.5811 C   0  0  0  0  0  0  0  0  0  0  0  0
    9.7813  -16.0025   23.8601 C   0  0  0  0  0  0  0  0  0  0  0  0
   10.7967  -16.3678   24.5126 O   0  0  0  0  0  0  0  0  0  0  0  0
    8.5470  -16.0212   24.5580 N   0  0  0  0  0  0  0  0  0  0  0  0
    8.4589  -16.2946   26.0005 C   0  0  1  0  0  0  0  0  0  0  0  0
    7.2693  -15.6302   26.6069 C   0  0  0  0  0  0  0  0  0  0  0  0
    7.2514  -14.1729   26.5508 C   0  0  0  0  0  0  0  0  0  0  0  0
    8.3916  -13.4321   26.7742 C   0  0  0  0  0  0  0  0  0  0  0  0
    8.3968  -12.0514   26.7288 C   0  0  0  0  0  0  0  0  0  0  0  0
    7.2431  -11.3536   26.4540 C   0  0  0  0  0  0  0  0  0  0  0  0
    6.0926  -12.0753   26.2279 C   0  0  0  0  0  0  0  0  0  0  0  0
    6.1003  -13.4749   26.2768 C   0  0  0  0  0  0  0  0  0  0  0  0
    8.5573  -17.7418   26.1978 C   0  0  0  0  0  0  0  0  0  0  0  0
    8.5238  -18.2493   27.3722 O   0  0  0  0  0  0  0  0  0  0  0  0
    6.0374  -19.6937   24.1902 N   0  0  0  0  0  0  0  0  0  0  0  0
    7.2758  -20.0557   23.6023 C   0  0  0  0  0  0  0  0  0  0  0  0
    7.6013  -19.6400   22.4721 O   0  0  0  0  0  0  0  0  0  0  0  0
    8.1864  -20.9392   24.3488 C   0  0  0  0  0  0  0  0  0  0  0  0
    8.9120  -20.1223   25.3968 C   0  0  2  0  0  0  0  0  0  0  0  0
    8.6919  -18.6858   25.1429 N   0  0  0  0  0  0  0  0  0  0  0  0
   10.3334  -20.4400   25.4736 C   0  0  0  0  0  0  0  0  0  0  0  0
   11.2253  -19.8938   26.3790 O   0  0  0  0  0  0  0  0  0  0  0  0
   10.8445  -21.2816   24.6629 O   0  0  0  0  0  0  0  0  0  0  0  0
  2  1  1  6
  2  3  1  0
  3  4  1  0
  4  5  2  0
  5  6  1  0
  7  6  2  0
  8  7  1  0
  9  4  1  0
  9  8  2  0
 10 12  1  0
 10  2  1  0
 11 10  2  0
 13 12  1  0
 13 14  1  6
 15 16  2  0
 15 14  1  0
 17 16  1  0
 18 17  2  0
 19 18  1  0
 19 20  2  0
 20 15  1  0
 21 28  1  0
 21 13  1  0
 22 21  2  0
 24 23  1  0
 24 25  2  0
 27 26  1  6
 26 24  1  0
 27 28  1  0
 27 29  1  0
 29 30  1  0
 31 29  2  0
M  END
$$$$
