FFN.pdb
     RDKit          3D

 31 32  0  0  1  0  0  0  0  0999 V2000
    8.0284  -17.3251   20.0778 N   0  0  0  0  0  0  0  0  0  0  0  0
    9.3062  -16.7327   20.3161 C   0  0  1  0  0  0  0  0  0  0  0  0
    9.6815  -15.7664   19.2159 C   0  0  0  0  0  0  0  0  0  0  0  0
    8.7718  -14.5955   19.2558 C   0  0  0  0  0  0  0  0  0  0  0  0
    7.5693  -14.6927   18.5892 C   0  0  0  0  0  0  0  0  0  0  0  0
    6.6625  -13.6275   18.5831 C   0  0  0  0  0  0  0  0  0  0  0  0
    6.9541  -12.4723   19.2384 C   0  0  0  0  0  0  0  0  0  0  0  0
    8.1501  -12.3528   19.9114 C   0  0  0  0  0  0  0  0  0  0  0  0
    9.0458  -13.4162   19.9125 C   0  0  0  0  0  0  0  0  0  0  0  0
    9.4086  -16.1031   21.6595 C   0  0  0  0  0  0  0  0  0  0  0  0
   10.5174  -15.6652   22.0704 O   0  0  0  0  0  0  0  0  0  0  0  0
    8.3092  -15.9549   22.5428 N   0  0  0  0  0  0  0  0  0  0  0  0
    8.4358  -15.3163   23.8617 C   0  0  1  0  0  0  0  0  0  0  0  0
    7.2564  -14.4543   24.1625 C   0  0  0  0  0  0  0  0  0  0  0  0
    7.2584  -13.7974   25.4647 C   0  0  0  0  0  0  0  0  0  0  0  0
    8.1048  -12.7443   25.7358 C   0  0  0  0  0  0  0  0  0  0  0  0
    8.1254  -12.1095   26.9626 C   0  0  0  0  0  0  0  0  0  0  0  0
    7.2866  -12.5128   27.9761 C   0  0  0  0  0  0  0  0  0  0  0  0
    6.4329  -13.5636   27.7254 C   0  0  0  0  0  0  0  0  0  0  0  0
    6.4216  -14.1991   26.4775 C   0  0  0  0  0  0  0  0  0  0  0  0
    8.7395  -16.3567   24.8457 C   0  0  0  0  0  0  0  0  0  0  0  0
    7.9487  -17.3476   25.0205 O   0  0  0  0  0  0  0  0  0  0  0  0
   11.0322  -20.5180   26.7832 N   0  0  0  0  0  0  0  0  0  0  0  0
   11.8152  -19.3383   26.8569 C   0  0  0  0  0  0  0  0  0  0  0  0
   12.7776  -19.2488   27.6454 O   0  0  0  0  0  0  0  0  0  0  0  0
   11.4768  -18.2041   25.9816 C   0  0  0  0  0  0  0  0  0  0  0  0
   10.2446  -17.5144   26.5274 C   0  0  2  0  0  0  0  0  0  0  0  0
    9.8997  -16.3662   25.6678 N   0  0  0  0  0  0  0  0  0  0  0  0
   10.3954  -17.1125   27.9213 C   0  0  0  0  0  0  0  0  0  0  0  0
   10.7081  -15.8364   28.3544 O   0  0  0  0  0  0  0  0  0  0  0  0
   10.2380  -17.9686   28.8536 O   0  0  0  0  0  0  0  0  0  0  0  0
  2  1  1  6
  2  3  1  0
  3  4  1  0
  4  5  2  0
  5  6  1  0
  7  6  2  0
  8  7  1  0
  9  4  1  0
  9  8  2  0
 10 12  1  0
 10  2  1  0
 11 10  2  0
 13 12  1  0
 13 14  1  1
 15 16  2  0
 15 14  1  0
 17 16  1  0
 18 17  2  0
 19 18  1  0
 19 20  2  0
 20 15  1  0
 21 28  1  0
 21 13  1  0
 22 21  2  0
 24 23  1  0
 24 25  2  0
 27 26  1  6
 26 24  1  0
 27 28  1  0
 27 29  1  0
 29 30  1  0
 31 29  2  0
M  END
$$$$
