FFN.pdb
     RDKit          3D

 31 32  0  0  1  0  0  0  0  0999 V2000
    8.2532  -17.1848   21.8667 N   0  0  0  0  0  0  0  0  0  0  0  0
    9.4937  -16.5542   22.1894 C   0  0  1  0  0  0  0  0  0  0  0  0
    9.8610  -15.5017   21.1685 C   0  0  0  0  0  0  0  0  0  0  0  0
    8.7595  -14.5144   21.0592 C   0  0  0  0  0  0  0  0  0  0  0  0
    7.5255  -14.9707   20.6482 C   0  0  0  0  0  0  0  0  0  0  0  0
    6.4412  -14.0961   20.5216 C   0  0  0  0  0  0  0  0  0  0  0  0
    6.5874  -12.7739   20.8035 C   0  0  0  0  0  0  0  0  0  0  0  0
    7.8116  -12.2955   21.2159 C   0  0  0  0  0  0  0  0  0  0  0  0
    8.8843  -13.1715   21.3392 C   0  0  0  0  0  0  0  0  0  0  0  0
    9.5219  -16.0112   23.5736 C   0  0  0  0  0  0  0  0  0  0  0  0
   10.5110  -15.3362   23.9687 O   0  0  0  0  0  0  0  0  0  0  0  0
    8.4787  -16.2052   24.5143 N   0  0  0  0  0  0  0  0  0  0  0  0
    8.6743  -16.0209   25.9603 C   0  0  1  0  0  0  0  0  0  0  0  0
    7.4930  -15.3613   26.5878 C   0  0  0  0  0  0  0  0  0  0  0  0
    7.3224  -13.9421   26.2979 C   0  0  0  0  0  0  0  0  0  0  0  0
    6.1797  -13.4657   25.6927 C   0  0  0  0  0  0  0  0  0  0  0  0
    5.9984  -12.1264   25.4064 C   0  0  0  0  0  0  0  0  0  0  0  0
    6.9692  -11.2034   25.7208 C   0  0  0  0  0  0  0  0  0  0  0  0
    8.1189  -11.6592   26.3262 C   0  0  0  0  0  0  0  0  0  0  0  0
    8.2909  -13.0195   26.6112 C   0  0  0  0  0  0  0  0  0  0  0  0
    9.0731  -17.3069   26.5348 C   0  0  0  0  0  0  0  0  0  0  0  0
    9.2498  -17.4376   27.7956 O   0  0  0  0  0  0  0  0  0  0  0  0
    6.8096  -20.5527   24.5940 N   0  0  0  0  0  0  0  0  0  0  0  0
    7.5390  -20.6613   25.8050 C   0  0  0  0  0  0  0  0  0  0  0  0
    6.9754  -20.5485   26.9120 O   0  0  0  0  0  0  0  0  0  0  0  0
    8.9883  -20.9121   25.7424 C   0  0  0  0  0  0  0  0  0  0  0  0
    9.7143  -19.7574   26.3993 C   0  0  2  0  0  0  0  0  0  0  0  0
    9.2913  -18.4892   25.7754 N   0  0  0  0  0  0  0  0  0  0  0  0
   11.1642  -19.9120   26.3662 C   0  0  0  0  0  0  0  0  0  0  0  0
   12.0177  -19.2499   25.5021 O   0  0  0  0  0  0  0  0  0  0  0  0
   11.7400  -20.7103   27.1773 O   0  0  0  0  0  0  0  0  0  0  0  0
  2  1  1  6
  2  3  1  0
  3  4  1  0
  4  5  2  0
  5  6  1  0
  7  6  2  0
  8  7  1  0
  9  4  1  0
  9  8  2  0
 10 12  1  0
 10  2  1  0
 11 10  2  0
 13 12  1  0
 13 14  1  1
 15 16  2  0
 15 14  1  0
 17 16  1  0
 18 17  2  0
 19 18  1  0
 19 20  2  0
 20 15  1  0
 21 28  1  0
 21 13  1  0
 22 21  2  0
 24 23  1  0
 24 25  2  0
 27 26  1  6
 26 24  1  0
 27 28  1  0
 27 29  1  0
 29 30  1  0
 31 29  2  0
M  END
$$$$
