FFN.pdb
     RDKit          3D

 31 32  0  0  1  0  0  0  0  0999 V2000
   10.3333  -17.9079   20.2264 N   0  0  0  0  0  0  0  0  0  0  0  0
    9.7637  -16.7447   20.8289 C   0  0  1  0  0  0  0  0  0  0  0  0
    8.3422  -16.5219   20.3657 C   0  0  0  0  0  0  0  0  0  0  0  0
    7.9992  -15.0850   20.4990 C   0  0  0  0  0  0  0  0  0  0  0  0
    6.8659  -14.7581   21.2122 C   0  0  0  0  0  0  0  0  0  0  0  0
    6.4808  -13.4235   21.3779 C   0  0  0  0  0  0  0  0  0  0  0  0
    7.2222  -12.4212   20.8352 C   0  0  0  0  0  0  0  0  0  0  0  0
    8.3588  -12.7244   20.1185 C   0  0  0  0  0  0  0  0  0  0  0  0
    8.7346  -14.0535   19.9584 C   0  0  0  0  0  0  0  0  0  0  0  0
    9.8632  -16.7561   22.3126 C   0  0  0  0  0  0  0  0  0  0  0  0
   10.4988  -17.6750   22.8974 O   0  0  0  0  0  0  0  0  0  0  0  0
    9.2735  -15.7725   23.1465 N   0  0  0  0  0  0  0  0  0  0  0  0
    9.5841  -15.6622   24.5799 C   0  0  1  0  0  0  0  0  0  0  0  0
    9.0156  -14.4131   25.1637 C   0  0  0  0  0  0  0  0  0  0  0  0
    9.2012  -14.2345   26.5993 C   0  0  0  0  0  0  0  0  0  0  0  0
    8.2272  -14.6060   27.5005 C   0  0  0  0  0  0  0  0  0  0  0  0
    8.3808  -14.4434   28.8637 C   0  0  0  0  0  0  0  0  0  0  0  0
    9.5322  -13.8950   29.3802 C   0  0  0  0  0  0  0  0  0  0  0  0
   10.5180  -13.5171   28.4963 C   0  0  0  0  0  0  0  0  0  0  0  0
   10.3502  -13.6871   27.1163 C   0  0  0  0  0  0  0  0  0  0  0  0
    9.1901  -16.9132   25.2301 C   0  0  0  0  0  0  0  0  0  0  0  0
    9.7486  -17.2939   26.3169 O   0  0  0  0  0  0  0  0  0  0  0  0
    5.7612  -17.7741   24.3748 N   0  0  0  0  0  0  0  0  0  0  0  0
    5.9268  -19.1074   23.9218 C   0  0  0  0  0  0  0  0  0  0  0  0
    5.1683  -19.5970   23.0610 O   0  0  0  0  0  0  0  0  0  0  0  0
    7.0176  -19.9198   24.4849 C   0  0  0  0  0  0  0  0  0  0  0  0
    7.8437  -19.0551   25.4133 C   0  0  2  0  0  0  0  0  0  0  0  0
    8.1854  -17.7898   24.7360 N   0  0  0  0  0  0  0  0  0  0  0  0
    9.0354  -19.7367   25.9059 C   0  0  0  0  0  0  0  0  0  0  0  0
    9.8220  -20.6023   25.1674 O   0  0  0  0  0  0  0  0  0  0  0  0
    9.4248  -19.5548   27.1067 O   0  0  0  0  0  0  0  0  0  0  0  0
  2  1  1  1
  2  3  1  0
  3  4  1  0
  4  5  2  0
  5  6  1  0
  7  6  2  0
  8  7  1  0
  9  4  1  0
  9  8  2  0
 10 12  1  0
 10  2  1  0
 11 10  2  0
 13 12  1  0
 13 14  1  1
 15 16  2  0
 15 14  1  0
 17 16  1  0
 18 17  2  0
 19 18  1  0
 19 20  2  0
 20 15  1  0
 21 28  1  0
 21 13  1  0
 22 21  2  0
 24 23  1  0
 24 25  2  0
 27 26  1  6
 26 24  1  0
 27 28  1  0
 27 29  1  0
 29 30  1  0
 31 29  2  0
M  END
$$$$
