FFN.pdb
     RDKit          3D

 31 32  0  0  1  0  0  0  0  0999 V2000
    8.0028  -16.1073   21.3377 N   0  0  0  0  0  0  0  0  0  0  0  0
    9.3444  -15.7778   21.7009 C   0  0  1  0  0  0  0  0  0  0  0  0
    9.7517  -14.4307   21.1491 C   0  0  0  0  0  0  0  0  0  0  0  0
    8.6787  -13.9150   20.2643 C   0  0  0  0  0  0  0  0  0  0  0  0
    8.0281  -12.7619   20.6475 C   0  0  0  0  0  0  0  0  0  0  0  0
    7.0055  -12.2187   19.8628 C   0  0  0  0  0  0  0  0  0  0  0  0
    6.6343  -12.8226   18.7024 C   0  0  0  0  0  0  0  0  0  0  0  0
    7.2706  -13.9760   18.2996 C   0  0  0  0  0  0  0  0  0  0  0  0
    8.2861  -14.5094   19.0854 C   0  0  0  0  0  0  0  0  0  0  0  0
    9.5840  -15.8672   23.1659 C   0  0  0  0  0  0  0  0  0  0  0  0
   10.7121  -15.5662   23.6423 O   0  0  0  0  0  0  0  0  0  0  0  0
    8.5995  -16.2816   24.0984 N   0  0  0  0  0  0  0  0  0  0  0  0
    8.8332  -16.2729   25.5505 C   0  0  1  0  0  0  0  0  0  0  0  0
    7.6124  -15.8472   26.2940 C   0  0  0  0  0  0  0  0  0  0  0  0
    7.3871  -14.4091   26.3860 C   0  0  0  0  0  0  0  0  0  0  0  0
    6.1550  -13.8568   26.1113 C   0  0  0  0  0  0  0  0  0  0  0  0
    5.9202  -12.4977   26.1895 C   0  0  0  0  0  0  0  0  0  0  0  0
    6.9259  -11.6309   26.5509 C   0  0  0  0  0  0  0  0  0  0  0  0
    8.1649  -12.1629   26.8296 C   0  0  0  0  0  0  0  0  0  0  0  0
    8.3904  -13.5426   26.7467 C   0  0  0  0  0  0  0  0  0  0  0  0
    9.3977  -17.5692   25.9300 C   0  0  0  0  0  0  0  0  0  0  0  0
    8.6793  -18.6282   25.9189 O   0  0  0  0  0  0  0  0  0  0  0  0
   13.6876  -17.9910   24.6659 N   0  0  0  0  0  0  0  0  0  0  0  0
   12.9193  -19.0808   25.1481 C   0  0  0  0  0  0  0  0  0  0  0  0
   12.4313  -19.9233   24.3684 O   0  0  0  0  0  0  0  0  0  0  0  0
   12.7001  -19.2102   26.5981 C   0  0  0  0  0  0  0  0  0  0  0  0
   11.2227  -19.0486   26.8866 C   0  0  2  0  0  0  0  0  0  0  0  0
   10.7480  -17.7677   26.3295 N   0  0  0  0  0  0  0  0  0  0  0  0
   10.9108  -19.1622   28.3068 C   0  0  0  0  0  0  0  0  0  0  0  0
   11.0843  -20.3007   29.0732 O   0  0  0  0  0  0  0  0  0  0  0  0
   10.4366  -18.1609   28.9388 O   0  0  0  0  0  0  0  0  0  0  0  0
  2  1  1  1
  2  3  1  0
  3  4  1  0
  4  5  2  0
  5  6  1  0
  7  6  2  0
  8  7  1  0
  9  4  1  0
  9  8  2  0
 10 12  1  0
 10  2  1  0
 11 10  2  0
 13 12  1  0
 13 14  1  1
 15 16  2  0
 15 14  1  0
 17 16  1  0
 18 17  2  0
 19 18  1  0
 19 20  2  0
 20 15  1  0
 21 28  1  0
 21 13  1  0
 22 21  2  0
 24 23  1  0
 24 25  2  0
 27 26  1  1
 26 24  1  0
 27 28  1  0
 27 29  1  0
 29 30  1  0
 31 29  2  0
M  END
$$$$
