YKF.pdb
     RDKit          3D

 33 34  0  0  1  0  0  0  0  0999 V2000
   24.2457  -18.4574  -23.5078 O   0  0  0  0  0  0  0  0  0  0  0  0
   23.3724  -17.4575  -23.0946 C   0  0  0  0  0  0  0  0  0  0  0  0
   22.8159  -16.5340  -23.9693 C   0  0  0  0  0  0  0  0  0  0  0  0
   21.9495  -15.5511  -23.5463 C   0  0  0  0  0  0  0  0  0  0  0  0
   21.6462  -15.5042  -22.2203 C   0  0  0  0  0  0  0  0  0  0  0  0
   20.7120  -14.4630  -21.7155 C   0  0  0  0  0  0  0  0  0  0  0  0
   19.3594  -15.0566  -21.3881 C   0  0  2  0  0  0  0  0  0  0  0  0
   18.7448  -15.4640  -22.6464 N   0  0  0  0  0  0  0  0  0  0  0  0
   18.5473  -14.0008  -20.7163 C   0  0  0  0  0  0  0  0  0  0  0  0
   18.0190  -13.0655  -21.3556 O   0  0  0  0  0  0  0  0  0  0  0  0
   22.1805  -16.4067  -21.3196 C   0  0  0  0  0  0  0  0  0  0  0  0
   23.0540  -17.3931  -21.7701 C   0  0  0  0  0  0  0  0  0  0  0  0
   18.3518  -14.0291  -19.3059 N   0  0  0  0  0  0  0  0  0  0  0  0
   17.5323  -13.0790  -18.5696 C   0  0  1  0  0  0  0  0  0  0  0  0
   17.0538  -13.7445  -17.3247 C   0  0  0  0  0  0  0  0  0  0  0  0
   16.3058  -12.8616  -16.3826 C   0  0  0  0  0  0  0  0  0  0  0  0
   14.8079  -13.1463  -16.5836 C   0  0  0  0  0  0  0  0  0  0  0  0
   13.9911  -12.3079  -15.6108 C   0  0  0  0  0  0  0  0  0  0  0  0
   12.6045  -12.7004  -15.7778 N   0  0  0  0  0  0  0  0  0  0  0  0
   18.3488  -11.8609  -18.3344 C   0  0  0  0  0  0  0  0  0  0  0  0
   19.4757  -11.9582  -17.8200 O   0  0  0  0  0  0  0  0  0  0  0  0
   17.8397  -10.6128  -18.6926 N   0  0  0  0  0  0  0  0  0  0  0  0
   18.5701   -9.3826  -18.4908 C   0  0  1  0  0  0  0  0  0  0  0  0
   18.7031   -8.7211  -19.8173 C   0  0  0  0  0  0  0  0  0  0  0  0
   17.4558   -8.2542  -20.4394 C   0  0  0  0  0  0  0  0  0  0  0  0
   16.7408   -9.0682  -21.2975 C   0  0  0  0  0  0  0  0  0  0  0  0
   15.5582   -8.5878  -21.8555 C   0  0  0  0  0  0  0  0  0  0  0  0
   15.0553   -7.3349  -21.6024 C   0  0  0  0  0  0  0  0  0  0  0  0
   15.7770   -6.5237  -20.7429 C   0  0  0  0  0  0  0  0  0  0  0  0
   16.9387   -6.9832  -20.1866 C   0  0  0  0  0  0  0  0  0  0  0  0
   17.8761   -8.5179  -17.4734 C   0  0  0  0  0  0  0  0  0  0  0  0
   16.7024   -8.7060  -17.1210 O   0  0  0  0  0  0  0  0  0  0  0  0
   18.5877   -7.4814  -16.9161 O   0  0  0  0  0  0  0  0  0  0  0  0
  2  1  1  0
  3  2  2  0
  4  3  1  0
  5 11  1  0
  5  4  2  0
  6  5  1  0
  7  9  1  0
  7  6  1  0
  7  8  1  6
  9 10  2  0
 11 12  2  0
 12  2  1  0
 13 14  1  0
 13  9  1  0
 15 16  1  0
 14 15  1  1
 17 16  1  0
 18 17  1  0
 19 18  1  0
 20 22  1  0
 20 14  1  0
 21 20  2  0
 23 22  1  0
 23 24  1  6
 24 25  1  0
 25 30  1  0
 26 25  2  0
 26 27  1  0
 27 28  2  0
 28 29  1  0
 30 29  2  0
 31 23  1  0
 32 31  2  0
 33 31  1  0
M  END
$$$$
