YKF.pdb
     RDKit          3D

 33 34  0  0  1  0  0  0  0  0999 V2000
   17.4332  -17.0437  -14.7539 O   0  0  0  0  0  0  0  0  0  0  0  0
   18.4233  -17.7848  -14.1185 C   0  0  0  0  0  0  0  0  0  0  0  0
   18.1617  -18.9690  -13.4427 C   0  0  0  0  0  0  0  0  0  0  0  0
   19.1532  -19.6943  -12.8208 C   0  0  0  0  0  0  0  0  0  0  0  0
   20.4239  -19.2110  -12.8844 C   0  0  0  0  0  0  0  0  0  0  0  0
   21.5299  -19.9608  -12.2315 C   0  0  0  0  0  0  0  0  0  0  0  0
   22.4934  -20.5148  -13.2579 C   0  0  2  0  0  0  0  0  0  0  0  0
   21.7879  -21.5491  -14.0060 N   0  0  0  0  0  0  0  0  0  0  0  0
   23.6601  -21.0889  -12.5267 C   0  0  0  0  0  0  0  0  0  0  0  0
   23.5752  -22.1536  -11.8773 O   0  0  0  0  0  0  0  0  0  0  0  0
   20.7227  -18.0357  -13.5482 C   0  0  0  0  0  0  0  0  0  0  0  0
   19.7041  -17.3191  -14.1709 C   0  0  0  0  0  0  0  0  0  0  0  0
   24.9210  -20.4271  -12.5470 N   0  0  0  0  0  0  0  0  0  0  0  0
   26.1214  -20.9237  -11.8922 C   0  0  1  0  0  0  0  0  0  0  0  0
   27.2681  -20.7477  -12.8280 C   0  0  0  0  0  0  0  0  0  0  0  0
   28.5993  -21.1385  -12.2783 C   0  0  0  0  0  0  0  0  0  0  0  0
   29.6483  -20.8221  -13.3574 C   0  0  0  0  0  0  0  0  0  0  0  0
   31.0381  -21.1603  -12.8368 C   0  0  0  0  0  0  0  0  0  0  0  0
   31.0345  -22.5748  -12.5148 N   0  0  0  0  0  0  0  0  0  0  0  0
   26.2693  -20.1995  -10.6040 C   0  0  0  0  0  0  0  0  0  0  0  0
   25.9795  -18.9933  -10.5328 O   0  0  0  0  0  0  0  0  0  0  0  0
   26.7365  -20.8826   -9.4815 N   0  0  0  0  0  0  0  0  0  0  0  0
   27.5737  -20.2624   -8.4803 C   0  0  1  0  0  0  0  0  0  0  0  0
   26.8031  -20.2402   -7.2073 C   0  0  0  0  0  0  0  0  0  0  0  0
   27.5218  -19.7556   -6.0201 C   0  0  0  0  0  0  0  0  0  0  0  0
   27.9781  -20.6350   -5.0566 C   0  0  0  0  0  0  0  0  0  0  0  0
   28.6639  -20.1317   -3.9535 C   0  0  0  0  0  0  0  0  0  0  0  0
   28.9146  -18.7947   -3.7625 C   0  0  0  0  0  0  0  0  0  0  0  0
   28.4536  -17.9187   -4.7309 C   0  0  0  0  0  0  0  0  0  0  0  0
   27.7804  -18.3991   -5.8198 C   0  0  0  0  0  0  0  0  0  0  0  0
   28.8821  -20.9957   -8.3588 C   0  0  0  0  0  0  0  0  0  0  0  0
   29.8218  -20.5816   -7.6641 O   0  0  0  0  0  0  0  0  0  0  0  0
   29.0258  -22.1761   -9.0497 O   0  0  0  0  0  0  0  0  0  0  0  0
  2  1  1  0
  3  2  2  0
  4  3  1  0
  5 11  1  0
  5  4  2  0
  6  5  1  0
  7  9  1  0
  7  6  1  0
  7  8  1  1
  9 10  2  0
 11 12  2  0
 12  2  1  0
 13 14  1  0
 13  9  1  0
 15 16  1  0
 14 15  1  6
 17 16  1  0
 18 17  1  0
 19 18  1  0
 20 22  1  0
 20 14  1  0
 21 20  2  0
 23 22  1  0
 23 24  1  1
 24 25  1  0
 25 30  1  0
 26 25  2  0
 26 27  1  0
 27 28  2  0
 28 29  1  0
 30 29  2  0
 31 23  1  0
 32 31  2  0
 33 31  1  0
M  END
$$$$
