YKF.pdb
     RDKit          3D

 33 34  0  0  1  0  0  0  0  0999 V2000
   28.2066  -13.9196  -24.0778 O   0  0  0  0  0  0  0  0  0  0  0  0
   27.3810  -14.8092  -23.3995 C   0  0  0  0  0  0  0  0  0  0  0  0
   26.2051  -15.3097  -23.9421 C   0  0  0  0  0  0  0  0  0  0  0  0
   25.3989  -16.1930  -23.2598 C   0  0  0  0  0  0  0  0  0  0  0  0
   25.7901  -16.5710  -22.0122 C   0  0  0  0  0  0  0  0  0  0  0  0
   24.9547  -17.5263  -21.2369 C   0  0  0  0  0  0  0  0  0  0  0  0
   25.6557  -18.8572  -21.0756 C   0  0  2  0  0  0  0  0  0  0  0  0
   25.7687  -19.4551  -22.4010 N   0  0  0  0  0  0  0  0  0  0  0  0
   24.8217  -19.7074  -20.1774 C   0  0  0  0  0  0  0  0  0  0  0  0
   23.7748  -20.2624  -20.5759 O   0  0  0  0  0  0  0  0  0  0  0  0
   26.9543  -16.0940  -21.4392 C   0  0  0  0  0  0  0  0  0  0  0  0
   27.7548  -15.2020  -22.1482 C   0  0  0  0  0  0  0  0  0  0  0  0
   25.2001  -19.9102  -18.8195 N   0  0  0  0  0  0  0  0  0  0  0  0
   24.4485  -20.7127  -17.8669 C   0  0  1  0  0  0  0  0  0  0  0  0
   25.3407  -21.0225  -16.7138 C   0  0  0  0  0  0  0  0  0  0  0  0
   26.1300  -22.2821  -16.8450 C   0  0  0  0  0  0  0  0  0  0  0  0
   27.3399  -21.9703  -17.7415 C   0  0  0  0  0  0  0  0  0  0  0  0
   28.1406  -23.2419  -17.9835 C   0  0  0  0  0  0  0  0  0  0  0  0
   28.7428  -23.6082  -16.7156 N   0  0  0  0  0  0  0  0  0  0  0  0
   23.2227  -19.9571  -17.5032 C   0  0  0  0  0  0  0  0  0  0  0  0
   23.2177  -18.7159  -17.5623 O   0  0  0  0  0  0  0  0  0  0  0  0
   22.0839  -20.6507  -17.0946 N   0  0  0  0  0  0  0  0  0  0  0  0
   20.8388  -19.9912  -16.7743 C   0  0  1  0  0  0  0  0  0  0  0  0
   20.4139  -19.2318  -17.9816 C   0  0  0  0  0  0  0  0  0  0  0  0
   19.0919  -18.5924  -17.9161 C   0  0  0  0  0  0  0  0  0  0  0  0
   17.9668  -19.2342  -18.3979 C   0  0  0  0  0  0  0  0  0  0  0  0
   16.7327  -18.5946  -18.3051 C   0  0  0  0  0  0  0  0  0  0  0  0
   16.5659  -17.3456  -17.7583 C   0  0  0  0  0  0  0  0  0  0  0  0
   17.6974  -16.7073  -17.2785 C   0  0  0  0  0  0  0  0  0  0  0  0
   18.9149  -17.3243  -17.3615 C   0  0  0  0  0  0  0  0  0  0  0  0
   19.8116  -20.9940  -16.3231 C   0  0  0  0  0  0  0  0  0  0  0  0
   18.8883  -20.7065  -15.5471 O   0  0  0  0  0  0  0  0  0  0  0  0
   19.9109  -22.2788  -16.8033 O   0  0  0  0  0  0  0  0  0  0  0  0
  2  1  1  0
  3  2  2  0
  4  3  1  0
  5 11  1  0
  5  4  2  0
  6  5  1  0
  7  9  1  0
  7  6  1  0
  7  8  1  6
  9 10  2  0
 11 12  2  0
 12  2  1  0
 13 14  1  0
 13  9  1  0
 15 16  1  0
 14 15  1  1
 17 16  1  0
 18 17  1  0
 19 18  1  0
 20 22  1  0
 20 14  1  0
 21 20  2  0
 23 22  1  0
 23 24  1  6
 24 25  1  0
 25 30  1  0
 26 25  2  0
 26 27  1  0
 27 28  2  0
 28 29  1  0
 30 29  2  0
 31 23  1  0
 32 31  2  0
 33 31  1  0
M  END
$$$$
