YKF.pdb
     RDKit          3D

 33 34  0  0  1  0  0  0  0  0999 V2000
   25.6646  -11.2458  -21.5580 O   0  0  0  0  0  0  0  0  0  0  0  0
   25.1081  -12.3604  -20.9405 C   0  0  0  0  0  0  0  0  0  0  0  0
   25.5563  -12.8484  -19.7203 C   0  0  0  0  0  0  0  0  0  0  0  0
   24.9931  -13.9515  -19.1189 C   0  0  0  0  0  0  0  0  0  0  0  0
   23.9647  -14.5667  -19.7641 C   0  0  0  0  0  0  0  0  0  0  0  0
   23.3211  -15.7598  -19.1526 C   0  0  0  0  0  0  0  0  0  0  0  0
   24.2593  -16.9467  -19.1547 C   0  0  2  0  0  0  0  0  0  0  0  0
   24.5000  -17.3111  -20.5462 N   0  0  0  0  0  0  0  0  0  0  0  0
   23.5901  -18.0599  -18.4210 C   0  0  0  0  0  0  0  0  0  0  0  0
   22.5734  -18.6317  -18.8706 O   0  0  0  0  0  0  0  0  0  0  0  0
   23.4914  -14.1096  -20.9799 C   0  0  0  0  0  0  0  0  0  0  0  0
   24.0756  -12.9915  -21.5693 C   0  0  0  0  0  0  0  0  0  0  0  0
   24.0979  -18.5059  -17.1674 N   0  0  0  0  0  0  0  0  0  0  0  0
   23.5351  -19.6027  -16.3949 C   0  0  1  0  0  0  0  0  0  0  0  0
   24.6202  -20.1846  -15.5550 C   0  0  0  0  0  0  0  0  0  0  0  0
   24.1836  -21.2505  -14.6063 C   0  0  0  0  0  0  0  0  0  0  0  0
   25.4419  -21.7617  -13.8850 C   0  0  0  0  0  0  0  0  0  0  0  0
   25.0460  -22.7658  -12.8118 C   0  0  0  0  0  0  0  0  0  0  0  0
   26.2714  -23.1977  -12.1666 N   0  0  0  0  0  0  0  0  0  0  0  0
   22.3845  -19.0704  -15.6213 C   0  0  0  0  0  0  0  0  0  0  0  0
   22.5428  -18.1006  -14.8608 O   0  0  0  0  0  0  0  0  0  0  0  0
   21.1316  -19.6683  -15.7544 N   0  0  0  0  0  0  0  0  0  0  0  0
   19.9793  -19.2491  -14.9901 C   0  0  1  0  0  0  0  0  0  0  0  0
   19.0742  -18.5150  -15.9157 C   0  0  0  0  0  0  0  0  0  0  0  0
   18.2273  -19.3406  -16.7885 C   0  0  0  0  0  0  0  0  0  0  0  0
   17.0254  -19.8518  -16.3367 C   0  0  0  0  0  0  0  0  0  0  0  0
   16.2503  -20.6201  -17.2024 C   0  0  0  0  0  0  0  0  0  0  0  0
   16.6159  -20.9061  -18.4952 C   0  0  0  0  0  0  0  0  0  0  0  0
   17.8219  -20.3920  -18.9414 C   0  0  0  0  0  0  0  0  0  0  0  0
   18.5921  -19.6347  -18.1028 C   0  0  0  0  0  0  0  0  0  0  0  0
   19.3163  -20.4344  -14.3422 C   0  0  0  0  0  0  0  0  0  0  0  0
   19.5825  -21.6050  -14.6521 O   0  0  0  0  0  0  0  0  0  0  0  0
   18.3808  -20.1941  -13.3633 O   0  0  0  0  0  0  0  0  0  0  0  0
  2  1  1  0
  3  2  2  0
  4  3  1  0
  5 11  1  0
  5  4  2  0
  6  5  1  0
  7  9  1  0
  7  6  1  0
  7  8  1  6
  9 10  2  0
 11 12  2  0
 12  2  1  0
 13 14  1  0
 13  9  1  0
 15 16  1  0
 14 15  1  1
 17 16  1  0
 18 17  1  0
 19 18  1  0
 20 22  1  0
 20 14  1  0
 21 20  2  0
 23 22  1  0
 23 24  1  6
 24 25  1  0
 25 30  1  0
 26 25  2  0
 26 27  1  0
 27 28  2  0
 28 29  1  0
 30 29  2  0
 31 23  1  0
 32 31  2  0
 33 31  1  0
M  END
$$$$
