YKF.pdb
     RDKit          3D

 33 34  0  0  1  0  0  0  0  0999 V2000
   29.0873  -30.8194  -18.9935 O   0  0  0  0  0  0  0  0  0  0  0  0
   28.5691  -29.7403  -18.2861 C   0  0  0  0  0  0  0  0  0  0  0  0
   28.9445  -29.4433  -16.9829 C   0  0  0  0  0  0  0  0  0  0  0  0
   28.4253  -28.3690  -16.2958 C   0  0  0  0  0  0  0  0  0  0  0  0
   27.5139  -27.5887  -16.9384 C   0  0  0  0  0  0  0  0  0  0  0  0
   26.9274  -26.4145  -16.2393 C   0  0  0  0  0  0  0  0  0  0  0  0
   27.3194  -25.1222  -16.9213 C   0  0  2  0  0  0  0  0  0  0  0  0
   28.7422  -24.9137  -16.6778 N   0  0  0  0  0  0  0  0  0  0  0  0
   26.5097  -24.0234  -16.3191 C   0  0  0  0  0  0  0  0  0  0  0  0
   26.8973  -23.3910  -15.3128 O   0  0  0  0  0  0  0  0  0  0  0  0
   27.1160  -27.8532  -18.2357 C   0  0  0  0  0  0  0  0  0  0  0  0
   27.6551  -28.9447  -18.9117 C   0  0  0  0  0  0  0  0  0  0  0  0
   25.2523  -23.6621  -16.8815 N   0  0  0  0  0  0  0  0  0  0  0  0
   24.4273  -22.5595  -16.4123 C   0  0  1  0  0  0  0  0  0  0  0  0
   24.2639  -21.5911  -17.5335 C   0  0  0  0  0  0  0  0  0  0  0  0
   23.3874  -20.4206  -17.2360 C   0  0  0  0  0  0  0  0  0  0  0  0
   23.3767  -19.5295  -18.4893 C   0  0  0  0  0  0  0  0  0  0  0  0
   22.5823  -18.2614  -18.2106 C   0  0  0  0  0  0  0  0  0  0  0  0
   22.5117  -17.5258  -19.4589 N   0  0  0  0  0  0  0  0  0  0  0  0
   23.1518  -23.1288  -15.9077 C   0  0  0  0  0  0  0  0  0  0  0  0
   22.5697  -24.0169  -16.5531 O   0  0  0  0  0  0  0  0  0  0  0  0
   22.6153  -22.6575  -14.7098 N   0  0  0  0  0  0  0  0  0  0  0  0
   21.3847  -23.1667  -14.1495 C   0  0  1  0  0  0  0  0  0  0  0  0
   21.6106  -23.3731  -12.6930 C   0  0  0  0  0  0  0  0  0  0  0  0
   20.4778  -23.9157  -11.9294 C   0  0  0  0  0  0  0  0  0  0  0  0
   19.6207  -23.0805  -11.2382 C   0  0  0  0  0  0  0  0  0  0  0  0
   18.5539  -23.6381  -10.5370 C   0  0  0  0  0  0  0  0  0  0  0  0
   18.3016  -24.9875  -10.4888 C   0  0  0  0  0  0  0  0  0  0  0  0
   19.1647  -25.8190  -11.1824 C   0  0  0  0  0  0  0  0  0  0  0  0
   20.2150  -25.2850  -11.8764 C   0  0  0  0  0  0  0  0  0  0  0  0
   20.2454  -22.2267  -14.4368 C   0  0  0  0  0  0  0  0  0  0  0  0
   20.3677  -20.9933  -14.4028 O   0  0  0  0  0  0  0  0  0  0  0  0
   19.0236  -22.7728  -14.7534 O   0  0  0  0  0  0  0  0  0  0  0  0
  2  1  1  0
  3  2  2  0
  4  3  1  0
  5 11  1  0
  5  4  2  0
  6  5  1  0
  7  9  1  0
  7  6  1  0
  7  8  1  1
  9 10  2  0
 11 12  2  0
 12  2  1  0
 13 14  1  0
 13  9  1  0
 15 16  1  0
 14 15  1  6
 17 16  1  0
 18 17  1  0
 19 18  1  0
 20 22  1  0
 20 14  1  0
 21 20  2  0
 23 22  1  0
 23 24  1  1
 24 25  1  0
 25 30  1  0
 26 25  2  0
 26 27  1  0
 27 28  2  0
 28 29  1  0
 30 29  2  0
 31 23  1  0
 32 31  2  0
 33 31  1  0
M  END
$$$$
