YKF.pdb
     RDKit          3D

 33 34  0  0  1  0  0  0  0  0999 V2000
   26.7989  -10.4350  -24.5906 O   0  0  0  0  0  0  0  0  0  0  0  0
   26.0913   -9.7893  -23.5829 C   0  0  0  0  0  0  0  0  0  0  0  0
   26.0015   -8.4068  -23.4918 C   0  0  0  0  0  0  0  0  0  0  0  0
   25.2941   -7.7812  -22.4899 C   0  0  0  0  0  0  0  0  0  0  0  0
   24.6726   -8.5677  -21.5694 C   0  0  0  0  0  0  0  0  0  0  0  0
   23.8930   -7.9386  -20.4702 C   0  0  0  0  0  0  0  0  0  0  0  0
   22.4144   -8.2228  -20.6185 C   0  0  2  0  0  0  0  0  0  0  0  0
   21.9556   -7.5352  -21.8201 N   0  0  0  0  0  0  0  0  0  0  0  0
   21.7235   -7.6948  -19.4064 C   0  0  0  0  0  0  0  0  0  0  0  0
   21.6319   -6.4692  -19.1782 O   0  0  0  0  0  0  0  0  0  0  0  0
   24.7394   -9.9473  -21.6277 C   0  0  0  0  0  0  0  0  0  0  0  0
   25.4598  -10.5586  -22.6505 C   0  0  0  0  0  0  0  0  0  0  0  0
   21.1433   -8.5873  -18.4604 N   0  0  0  0  0  0  0  0  0  0  0  0
   20.3983   -8.1682  -17.2832 C   0  0  1  0  0  0  0  0  0  0  0  0
   19.4513   -9.2600  -16.9191 C   0  0  0  0  0  0  0  0  0  0  0  0
   18.6428   -9.0127  -15.6895 C   0  0  0  0  0  0  0  0  0  0  0  0
   17.6816  -10.2024  -15.5294 C   0  0  0  0  0  0  0  0  0  0  0  0
   16.7520   -9.9560  -14.3497 C   0  0  0  0  0  0  0  0  0  0  0  0
   15.9216  -11.1377  -14.2138 N   0  0  0  0  0  0  0  0  0  0  0  0
   21.3794   -7.8325  -16.2200 C   0  0  0  0  0  0  0  0  0  0  0  0
   22.2557   -8.6539  -15.9017 O   0  0  0  0  0  0  0  0  0  0  0  0
   21.3063   -6.5935  -15.5839 N   0  0  0  0  0  0  0  0  0  0  0  0
   22.2692   -6.1627  -14.5967 C   0  0  1  0  0  0  0  0  0  0  0  0
   22.8859   -4.9037  -15.0961 C   0  0  0  0  0  0  0  0  0  0  0  0
   21.9809   -3.7574  -15.2627 C   0  0  0  0  0  0  0  0  0  0  0  0
   21.3013   -3.5542  -16.4488 C   0  0  0  0  0  0  0  0  0  0  0  0
   20.4456   -2.4604  -16.5580 C   0  0  0  0  0  0  0  0  0  0  0  0
   20.2365   -1.5578  -15.5438 C   0  0  0  0  0  0  0  0  0  0  0  0
   20.9214   -1.7663  -14.3584 C   0  0  0  0  0  0  0  0  0  0  0  0
   21.7633   -2.8369  -14.2368 C   0  0  0  0  0  0  0  0  0  0  0  0
   21.6104   -5.9981  -13.2538 C   0  0  0  0  0  0  0  0  0  0  0  0
   22.2463   -5.7412  -12.2209 O   0  0  0  0  0  0  0  0  0  0  0  0
   20.2439   -6.1369  -13.1852 O   0  0  0  0  0  0  0  0  0  0  0  0
  2  1  1  0
  3  2  2  0
  4  3  1  0
  5 11  1  0
  5  4  2  0
  6  5  1  0
  7  9  1  0
  7  6  1  0
  7  8  1  6
  9 10  2  0
 11 12  2  0
 12  2  1  0
 13 14  1  0
 13  9  1  0
 15 16  1  0
 14 15  1  1
 17 16  1  0
 18 17  1  0
 19 18  1  0
 20 22  1  0
 20 14  1  0
 21 20  2  0
 23 22  1  0
 23 24  1  6
 24 25  1  0
 25 30  1  0
 26 25  2  0
 26 27  1  0
 27 28  2  0
 28 29  1  0
 30 29  2  0
 31 23  1  0
 32 31  2  0
 33 31  1  0
M  END
$$$$
