YKF.pdb
     RDKit          3D

 33 34  0  0  1  0  0  0  0  0999 V2000
   16.4186  -13.3116  -24.0568 O   0  0  0  0  0  0  0  0  0  0  0  0
   17.1611  -12.8060  -22.9955 C   0  0  0  0  0  0  0  0  0  0  0  0
   16.5958  -12.4696  -21.7728 C   0  0  0  0  0  0  0  0  0  0  0  0
   17.3443  -11.9730  -20.7293 C   0  0  0  0  0  0  0  0  0  0  0  0
   18.6811  -11.8147  -20.9300 C   0  0  0  0  0  0  0  0  0  0  0  0
   19.5324  -11.2853  -19.8316 C   0  0  0  0  0  0  0  0  0  0  0  0
   20.3421  -12.3898  -19.1887 C   0  0  2  0  0  0  0  0  0  0  0  0
   19.4260  -13.1934  -18.3873 N   0  0  0  0  0  0  0  0  0  0  0  0
   21.3826  -11.7534  -18.3297 C   0  0  0  0  0  0  0  0  0  0  0  0
   21.1056  -11.2444  -17.2221 O   0  0  0  0  0  0  0  0  0  0  0  0
   19.2794  -12.1387  -22.1335 C   0  0  0  0  0  0  0  0  0  0  0  0
   18.5028  -12.6403  -23.1748 C   0  0  0  0  0  0  0  0  0  0  0  0
   22.7403  -11.7053  -18.7570 N   0  0  0  0  0  0  0  0  0  0  0  0
   23.8139  -11.0620  -18.0154 C   0  0  1  0  0  0  0  0  0  0  0  0
   25.1037  -11.3881  -18.6875 C   0  0  0  0  0  0  0  0  0  0  0  0
   26.3187  -10.8157  -18.0373 C   0  0  0  0  0  0  0  0  0  0  0  0
   26.9123  -11.9115  -17.1365 C   0  0  0  0  0  0  0  0  0  0  0  0
   28.1894  -11.4028  -16.4831 C   0  0  0  0  0  0  0  0  0  0  0  0
   28.7513  -12.5122  -15.7362 N   0  0  0  0  0  0  0  0  0  0  0  0
   23.5125   -9.6094  -17.9470 C   0  0  0  0  0  0  0  0  0  0  0  0
   23.1896   -8.9929  -18.9764 O   0  0  0  0  0  0  0  0  0  0  0  0
   23.5972   -8.9470  -16.7226 N   0  0  0  0  0  0  0  0  0  0  0  0
   23.4483   -7.5155  -16.5955 C   0  0  1  0  0  0  0  0  0  0  0  0
   22.2840   -7.2666  -15.7025 C   0  0  0  0  0  0  0  0  0  0  0  0
   21.9948   -5.8602  -15.3872 C   0  0  0  0  0  0  0  0  0  0  0  0
   22.4026   -5.3012  -14.1908 C   0  0  0  0  0  0  0  0  0  0  0  0
   22.1161   -3.9614  -13.9392 C   0  0  0  0  0  0  0  0  0  0  0  0
   21.4406   -3.1526  -14.8203 C   0  0  0  0  0  0  0  0  0  0  0  0
   21.0336   -3.7191  -16.0166 C   0  0  0  0  0  0  0  0  0  0  0  0
   21.3097   -5.0327  -16.2775 C   0  0  0  0  0  0  0  0  0  0  0  0
   24.7204   -6.8961  -16.0833 C   0  0  0  0  0  0  0  0  0  0  0  0
   24.9799   -5.6907  -16.2129 O   0  0  0  0  0  0  0  0  0  0  0  0
   25.6223   -7.7130  -15.4425 O   0  0  0  0  0  0  0  0  0  0  0  0
  2  1  1  0
  3  2  2  0
  4  3  1  0
  5 11  1  0
  5  4  2  0
  6  5  1  0
  7  9  1  0
  7  6  1  0
  7  8  1  1
  9 10  2  0
 11 12  2  0
 12  2  1  0
 13 14  1  0
 13  9  1  0
 15 16  1  0
 14 15  1  6
 17 16  1  0
 18 17  1  0
 19 18  1  0
 20 22  1  0
 20 14  1  0
 21 20  2  0
 23 22  1  0
 23 24  1  1
 24 25  1  0
 25 30  1  0
 26 25  2  0
 26 27  1  0
 27 28  2  0
 28 29  1  0
 30 29  2  0
 31 23  1  0
 32 31  2  0
 33 31  1  0
M  END
$$$$
