YKF.pdb
     RDKit          3D

 33 34  0  0  1  0  0  0  0  0999 V2000
   30.3741  -26.7935  -16.8385 O   0  0  0  0  0  0  0  0  0  0  0  0
   29.5154  -25.7396  -16.5467 C   0  0  0  0  0  0  0  0  0  0  0  0
   28.1358  -25.8850  -16.4897 C   0  0  0  0  0  0  0  0  0  0  0  0
   27.2978  -24.8327  -16.1960 C   0  0  0  0  0  0  0  0  0  0  0  0
   27.8667  -23.6192  -15.9592 C   0  0  0  0  0  0  0  0  0  0  0  0
   27.0035  -22.4527  -15.6340 C   0  0  0  0  0  0  0  0  0  0  0  0
   26.2393  -21.9834  -16.8524 C   0  0  2  0  0  0  0  0  0  0  0  0
   27.1994  -21.3628  -17.7581 N   0  0  0  0  0  0  0  0  0  0  0  0
   25.2189  -20.9941  -16.3992 C   0  0  0  0  0  0  0  0  0  0  0  0
   25.5397  -19.9061  -15.8738 O   0  0  0  0  0  0  0  0  0  0  0  0
   29.2362  -23.4361  -16.0068 C   0  0  0  0  0  0  0  0  0  0  0  0
   30.0646  -24.5149  -16.3050 C   0  0  0  0  0  0  0  0  0  0  0  0
   23.8299  -21.2686  -16.5525 N   0  0  0  0  0  0  0  0  0  0  0  0
   22.7628  -20.3769  -16.1249 C   0  0  1  0  0  0  0  0  0  0  0  0
   21.9281  -20.0466  -17.3147 C   0  0  0  0  0  0  0  0  0  0  0  0
   22.5024  -19.0113  -18.2230 C   0  0  0  0  0  0  0  0  0  0  0  0
   21.5479  -18.8765  -19.4213 C   0  0  0  0  0  0  0  0  0  0  0  0
   22.0539  -17.7913  -20.3609 C   0  0  0  0  0  0  0  0  0  0  0  0
   21.1768  -17.7921  -21.5164 N   0  0  0  0  0  0  0  0  0  0  0  0
   22.0212  -21.0489  -15.0276 C   0  0  0  0  0  0  0  0  0  0  0  0
   21.8780  -22.2831  -15.0395 O   0  0  0  0  0  0  0  0  0  0  0  0
   21.4878  -20.2845  -13.9902 N   0  0  0  0  0  0  0  0  0  0  0  0
   20.7918  -20.8677  -12.8663 C   0  0  1  0  0  0  0  0  0  0  0  0
   20.7233  -19.8326  -11.7992 C   0  0  0  0  0  0  0  0  0  0  0  0
   19.8428  -18.6851  -12.0614 C   0  0  0  0  0  0  0  0  0  0  0  0
   20.2971  -17.5864  -12.7660 C   0  0  0  0  0  0  0  0  0  0  0  0
   19.4242  -16.5263  -13.0004 C   0  0  0  0  0  0  0  0  0  0  0  0
   18.1218  -16.5068  -12.5643 C   0  0  0  0  0  0  0  0  0  0  0  0
   17.6731  -17.6101  -11.8579 C   0  0  0  0  0  0  0  0  0  0  0  0
   18.5187  -18.6585  -11.6221 C   0  0  0  0  0  0  0  0  0  0  0  0
   19.4350  -21.3649  -13.2863 C   0  0  0  0  0  0  0  0  0  0  0  0
   18.8607  -20.9650  -14.3098 O   0  0  0  0  0  0  0  0  0  0  0  0
   18.8199  -22.3057  -12.4941 O   0  0  0  0  0  0  0  0  0  0  0  0
  2  1  1  0
  3  2  2  0
  4  3  1  0
  5 11  1  0
  5  4  2  0
  6  5  1  0
  7  9  1  0
  7  6  1  0
  7  8  1  6
  9 10  2  0
 11 12  2  0
 12  2  1  0
 13 14  1  0
 13  9  1  0
 15 16  1  0
 14 15  1  6
 17 16  1  0
 18 17  1  0
 19 18  1  0
 20 22  1  0
 20 14  1  0
 21 20  2  0
 23 22  1  0
 23 24  1  1
 24 25  1  0
 25 30  1  0
 26 25  2  0
 26 27  1  0
 27 28  2  0
 28 29  1  0
 30 29  2  0
 31 23  1  0
 32 31  2  0
 33 31  1  0
M  END
$$$$
