YKF.pdb
     RDKit          3D

 33 34  0  0  1  0  0  0  0  0999 V2000
   18.6327   -4.9560  -20.8604 O   0  0  0  0  0  0  0  0  0  0  0  0
   19.2353   -6.0535  -20.2557 C   0  0  0  0  0  0  0  0  0  0  0  0
   19.8256   -7.0821  -20.9777 C   0  0  0  0  0  0  0  0  0  0  0  0
   20.4218   -8.1614  -20.3651 C   0  0  0  0  0  0  0  0  0  0  0  0
   20.4173   -8.1975  -19.0046 C   0  0  0  0  0  0  0  0  0  0  0  0
   21.0524   -9.3409  -18.2968 C   0  0  0  0  0  0  0  0  0  0  0  0
   20.2535  -10.6116  -18.4870 C   0  0  2  0  0  0  0  0  0  0  0  0
   19.0339  -10.4832  -17.6976 N   0  0  0  0  0  0  0  0  0  0  0  0
   21.0846  -11.7512  -18.0012 C   0  0  0  0  0  0  0  0  0  0  0  0
   21.1989  -12.0153  -16.7846 O   0  0  0  0  0  0  0  0  0  0  0  0
   19.8396   -7.1919  -18.2522 C   0  0  0  0  0  0  0  0  0  0  0  0
   19.2430   -6.1092  -18.8931 C   0  0  0  0  0  0  0  0  0  0  0  0
   21.7834  -12.5798  -18.9248 N   0  0  0  0  0  0  0  0  0  0  0  0
   22.5951  -13.7274  -18.5498 C   0  0  1  0  0  0  0  0  0  0  0  0
   21.9639  -14.9503  -19.1221 C   0  0  0  0  0  0  0  0  0  0  0  0
   20.8769  -15.5486  -18.2930 C   0  0  0  0  0  0  0  0  0  0  0  0
   21.5473  -16.2465  -17.0978 C   0  0  0  0  0  0  0  0  0  0  0  0
   20.4982  -16.9893  -16.2827 C   0  0  0  0  0  0  0  0  0  0  0  0
   21.1880  -17.5924  -15.1581 N   0  0  0  0  0  0  0  0  0  0  0  0
   23.9807  -13.4783  -19.0229 C   0  0  0  0  0  0  0  0  0  0  0  0
   24.1764  -13.0422  -20.1699 O   0  0  0  0  0  0  0  0  0  0  0  0
   25.0546  -13.7394  -18.1722 N   0  0  0  0  0  0  0  0  0  0  0  0
   26.4320  -13.6326  -18.5953 C   0  0  1  0  0  0  0  0  0  0  0  0
   27.2507  -13.3629  -17.3821 C   0  0  0  0  0  0  0  0  0  0  0  0
   28.7087  -13.3576  -17.5690 C   0  0  0  0  0  0  0  0  0  0  0  0
   29.3848  -12.1868  -17.8556 C   0  0  0  0  0  0  0  0  0  0  0  0
   30.7682  -12.2273  -18.0138 C   0  0  0  0  0  0  0  0  0  0  0  0
   31.5101  -13.3781  -17.9031 C   0  0  0  0  0  0  0  0  0  0  0  0
   30.8265  -14.5479  -17.6171 C   0  0  0  0  0  0  0  0  0  0  0  0
   29.4687  -14.5224  -17.4575 C   0  0  0  0  0  0  0  0  0  0  0  0
   26.8585  -14.8786  -19.3230 C   0  0  0  0  0  0  0  0  0  0  0  0
   26.4269  -16.0049  -19.0359 O   0  0  0  0  0  0  0  0  0  0  0  0
   27.7626  -14.7470  -20.3509 O   0  0  0  0  0  0  0  0  0  0  0  0
  2  1  1  0
  3  2  2  0
  4  3  1  0
  5 11  1  0
  5  4  2  0
  6  5  1  0
  7  9  1  0
  7  6  1  0
  7  8  1  1
  9 10  2  0
 11 12  2  0
 12  2  1  0
 13 14  1  0
 13  9  1  0
 15 16  1  0
 14 15  1  6
 17 16  1  0
 18 17  1  0
 19 18  1  0
 20 22  1  0
 20 14  1  0
 21 20  2  0
 23 22  1  0
 23 24  1  1
 24 25  1  0
 25 30  1  0
 26 25  2  0
 26 27  1  0
 27 28  2  0
 28 29  1  0
 30 29  2  0
 31 23  1  0
 32 31  2  0
 33 31  1  0
M  END
$$$$
