YKF.pdb
     RDKit          3D

 33 34  0  0  1  0  0  0  0  0999 V2000
   19.9270  -27.2743  -15.7283 O   0  0  0  0  0  0  0  0  0  0  0  0
   21.0124  -26.5574  -15.2373 C   0  0  0  0  0  0  0  0  0  0  0  0
   20.9414  -25.2087  -14.9153 C   0  0  0  0  0  0  0  0  0  0  0  0
   22.0239  -24.5122  -14.4266 C   0  0  0  0  0  0  0  0  0  0  0  0
   23.1917  -25.1922  -14.2645 C   0  0  0  0  0  0  0  0  0  0  0  0
   24.3880  -24.4844  -13.7359 C   0  0  0  0  0  0  0  0  0  0  0  0
   24.8217  -23.3752  -14.6688 C   0  0  2  0  0  0  0  0  0  0  0  0
   25.4342  -24.0000  -15.8357 N   0  0  0  0  0  0  0  0  0  0  0  0
   25.8082  -22.5251  -13.9410 C   0  0  0  0  0  0  0  0  0  0  0  0
   26.9925  -22.8859  -13.7686 O   0  0  0  0  0  0  0  0  0  0  0  0
   23.3004  -26.5352  -14.5739 C   0  0  0  0  0  0  0  0  0  0  0  0
   22.1921  -27.2197  -15.0660 C   0  0  0  0  0  0  0  0  0  0  0  0
   25.4198  -21.2611  -13.4121 N   0  0  0  0  0  0  0  0  0  0  0  0
   26.2826  -20.4023  -12.6155 C   0  0  1  0  0  0  0  0  0  0  0  0
   25.9559  -18.9849  -12.9406 C   0  0  0  0  0  0  0  0  0  0  0  0
   26.9563  -18.2857  -13.7991 C   0  0  0  0  0  0  0  0  0  0  0  0
   26.4701  -18.4033  -15.2533 C   0  0  0  0  0  0  0  0  0  0  0  0
   27.5049  -17.7979  -16.1910 C   0  0  0  0  0  0  0  0  0  0  0  0
   27.5367  -16.3732  -15.9196 N   0  0  0  0  0  0  0  0  0  0  0  0
   26.0874  -20.7607  -11.1875 C   0  0  0  0  0  0  0  0  0  0  0  0
   24.9738  -21.1421  -10.7894 O   0  0  0  0  0  0  0  0  0  0  0  0
   27.1602  -20.6631  -10.3018 N   0  0  0  0  0  0  0  0  0  0  0  0
   27.0283  -20.9038   -8.8832 C   0  0  1  0  0  0  0  0  0  0  0  0
   28.2639  -20.3945   -8.2284 C   0  0  0  0  0  0  0  0  0  0  0  0
   28.2447  -20.3348   -6.7598 C   0  0  0  0  0  0  0  0  0  0  0  0
   28.8822  -21.2975   -6.0003 C   0  0  0  0  0  0  0  0  0  0  0  0
   28.8470  -21.1946   -4.6116 C   0  0  0  0  0  0  0  0  0  0  0  0
   28.2052  -20.1808   -3.9429 C   0  0  0  0  0  0  0  0  0  0  0  0
   27.5673  -19.2200   -4.7096 C   0  0  0  0  0  0  0  0  0  0  0  0
   27.5953  -19.3077   -6.0740 C   0  0  0  0  0  0  0  0  0  0  0  0
   25.7770  -20.2579   -8.3526 C   0  0  0  0  0  0  0  0  0  0  0  0
   25.4072  -19.1261   -8.6984 O   0  0  0  0  0  0  0  0  0  0  0  0
   25.0191  -20.9665   -7.4500 O   0  0  0  0  0  0  0  0  0  0  0  0
  2  1  1  0
  3  2  2  0
  4  3  1  0
  5 11  1  0
  5  4  2  0
  6  5  1  0
  7  9  1  0
  7  6  1  0
  7  8  1  6
  9 10  2  0
 11 12  2  0
 12  2  1  0
 13 14  1  0
 13  9  1  0
 15 16  1  0
 14 15  1  1
 17 16  1  0
 18 17  1  0
 19 18  1  0
 20 22  1  0
 20 14  1  0
 21 20  2  0
 23 22  1  0
 23 24  1  1
 24 25  1  0
 25 30  1  0
 26 25  2  0
 26 27  1  0
 27 28  2  0
 28 29  1  0
 30 29  2  0
 31 23  1  0
 32 31  2  0
 33 31  1  0
M  END
$$$$
