YKF.pdb
     RDKit          3D

 33 34  0  0  1  0  0  0  0  0999 V2000
   12.4306  -23.9089    2.1905 O   0  0  0  0  0  0  0  0  0  0  0  0
   13.3597  -22.9852    2.6560 C   0  0  0  0  0  0  0  0  0  0  0  0
   12.9961  -21.7959    3.2731 C   0  0  0  0  0  0  0  0  0  0  0  0
   13.9276  -20.8919    3.7323 C   0  0  0  0  0  0  0  0  0  0  0  0
   15.2427  -21.1981    3.5616 C   0  0  0  0  0  0  0  0  0  0  0  0
   16.2864  -20.2552    4.0444 C   0  0  0  0  0  0  0  0  0  0  0  0
   16.3183  -18.9991    3.2017 C   0  0  2  0  0  0  0  0  0  0  0  0
   16.6307  -19.3982    1.8341 N   0  0  0  0  0  0  0  0  0  0  0  0
   17.3797  -18.1065    3.7513 C   0  0  0  0  0  0  0  0  0  0  0  0
   18.5822  -18.2358    3.4350 O   0  0  0  0  0  0  0  0  0  0  0  0
   15.6428  -22.3726    2.9520 C   0  0  0  0  0  0  0  0  0  0  0  0
   14.6832  -23.2727    2.4960 C   0  0  0  0  0  0  0  0  0  0  0  0
   17.0465  -17.0689    4.6680 N   0  0  0  0  0  0  0  0  0  0  0  0
   18.0118  -16.1643    5.2732 C   0  0  1  0  0  0  0  0  0  0  0  0
   17.3051  -14.9018    5.6314 C   0  0  0  0  0  0  0  0  0  0  0  0
   18.1727  -13.8315    6.2043 C   0  0  0  0  0  0  0  0  0  0  0  0
   17.2684  -12.6244    6.5048 C   0  0  0  0  0  0  0  0  0  0  0  0
   18.1097  -11.4727    7.0366 C   0  0  0  0  0  0  0  0  0  0  0  0
   17.1861  -10.4402    7.4670 N   0  0  0  0  0  0  0  0  0  0  0  0
   18.6302  -16.8651    6.4274 C   0  0  0  0  0  0  0  0  0  0  0  0
   18.0027  -17.7591    7.0199 O   0  0  0  0  0  0  0  0  0  0  0  0
   19.9146  -16.5102    6.8389 N   0  0  0  0  0  0  0  0  0  0  0  0
   20.5466  -17.0778    8.0077 C   0  0  1  0  0  0  0  0  0  0  0  0
   21.9741  -17.3241    7.6664 C   0  0  0  0  0  0  0  0  0  0  0  0
   22.8280  -17.8172    8.7566 C   0  0  0  0  0  0  0  0  0  0  0  0
   22.7178  -19.1165    9.2144 C   0  0  0  0  0  0  0  0  0  0  0  0
   23.5552  -19.5438   10.2423 C   0  0  0  0  0  0  0  0  0  0  0  0
   24.4951  -18.7383   10.8381 C   0  0  0  0  0  0  0  0  0  0  0  0
   24.5997  -17.4372   10.3758 C   0  0  0  0  0  0  0  0  0  0  0  0
   23.7850  -17.0050    9.3661 C   0  0  0  0  0  0  0  0  0  0  0  0
   20.3780  -16.1668    9.1935 C   0  0  0  0  0  0  0  0  0  0  0  0
   20.2992  -14.9341    9.0872 O   0  0  0  0  0  0  0  0  0  0  0  0
   20.3052  -16.7403   10.4413 O   0  0  0  0  0  0  0  0  0  0  0  0
  2  1  1  0
  3  2  2  0
  4  3  1  0
  5 11  1  0
  5  4  2  0
  6  5  1  0
  7  9  1  0
  7  6  1  0
  7  8  1  6
  9 10  2  0
 11 12  2  0
 12  2  1  0
 13 14  1  0
 13  9  1  0
 15 16  1  0
 14 15  1  1
 17 16  1  0
 18 17  1  0
 19 18  1  0
 20 22  1  0
 20 14  1  0
 21 20  2  0
 23 22  1  0
 23 24  1  6
 24 25  1  0
 25 30  1  0
 26 25  2  0
 26 27  1  0
 27 28  2  0
 28 29  1  0
 30 29  2  0
 31 23  1  0
 32 31  2  0
 33 31  1  0
M  END
$$$$
