YKF.pdb
     RDKit          3D

 33 34  0  0  1  0  0  0  0  0999 V2000
   29.8984  -14.7737  -18.5192 O   0  0  0  0  0  0  0  0  0  0  0  0
   29.1585  -15.3239  -17.4785 C   0  0  0  0  0  0  0  0  0  0  0  0
   28.3524  -14.5632  -16.6423 C   0  0  0  0  0  0  0  0  0  0  0  0
   27.6224  -15.1224  -15.6176 C   0  0  0  0  0  0  0  0  0  0  0  0
   27.7132  -16.4686  -15.4388 C   0  0  0  0  0  0  0  0  0  0  0  0
   26.9405  -17.1198  -14.3476 C   0  0  0  0  0  0  0  0  0  0  0  0
   25.8213  -17.9714  -14.9053 C   0  0  2  0  0  0  0  0  0  0  0  0
   24.6955  -17.0867  -15.1825 N   0  0  0  0  0  0  0  0  0  0  0  0
   25.4598  -18.9851  -13.8722 C   0  0  0  0  0  0  0  0  0  0  0  0
   24.5925  -18.7609  -13.0003 O   0  0  0  0  0  0  0  0  0  0  0  0
   28.5051  -17.2585  -16.2513 C   0  0  0  0  0  0  0  0  0  0  0  0
   29.2340  -16.6714  -17.2823 C   0  0  0  0  0  0  0  0  0  0  0  0
   26.1057  -20.2541  -13.8495 N   0  0  0  0  0  0  0  0  0  0  0  0
   25.6882  -21.3752  -13.0217 C   0  0  1  0  0  0  0  0  0  0  0  0
   26.1058  -22.6350  -13.6999 C   0  0  0  0  0  0  0  0  0  0  0  0
   25.4420  -23.8738  -13.1984 C   0  0  0  0  0  0  0  0  0  0  0  0
   24.0252  -23.9051  -13.7956 C   0  0  0  0  0  0  0  0  0  0  0  0
   23.3335  -25.2043  -13.4080 C   0  0  0  0  0  0  0  0  0  0  0  0
   22.7412  -24.9925  -12.1008 N   0  0  0  0  0  0  0  0  0  0  0  0
   26.2758  -21.1865  -11.6708 C   0  0  0  0  0  0  0  0  0  0  0  0
   27.5005  -21.0192  -11.5441 O   0  0  0  0  0  0  0  0  0  0  0  0
   25.4440  -21.2013  -10.5515 N   0  0  0  0  0  0  0  0  0  0  0  0
   25.9479  -21.3327   -9.2038 C   0  0  1  0  0  0  0  0  0  0  0  0
   26.8709  -20.1909   -8.9603 C   0  0  0  0  0  0  0  0  0  0  0  0
   27.3687  -20.0385   -7.5856 C   0  0  0  0  0  0  0  0  0  0  0  0
   28.2081  -20.9821   -7.0243 C   0  0  0  0  0  0  0  0  0  0  0  0
   28.6641  -20.7909   -5.7220 C   0  0  0  0  0  0  0  0  0  0  0  0
   28.3220  -19.7067   -4.9510 C   0  0  0  0  0  0  0  0  0  0  0  0
   27.4797  -18.7655   -5.5187 C   0  0  0  0  0  0  0  0  0  0  0  0
   27.0260  -18.9397   -6.7969 C   0  0  0  0  0  0  0  0  0  0  0  0
   24.8117  -21.3861   -8.2186 C   0  0  0  0  0  0  0  0  0  0  0  0
   23.6547  -21.0482   -8.5091 O   0  0  0  0  0  0  0  0  0  0  0  0
   25.0819  -21.8350   -6.9471 O   0  0  0  0  0  0  0  0  0  0  0  0
  2  1  1  0
  3  2  2  0
  4  3  1  0
  5 11  1  0
  5  4  2  0
  6  5  1  0
  7  9  1  0
  7  6  1  0
  7  8  1  1
  9 10  2  0
 11 12  2  0
 12  2  1  0
 13 14  1  0
 13  9  1  0
 15 16  1  0
 14 15  1  6
 17 16  1  0
 18 17  1  0
 19 18  1  0
 20 22  1  0
 20 14  1  0
 21 20  2  0
 23 22  1  0
 23 24  1  1
 24 25  1  0
 25 30  1  0
 26 25  2  0
 26 27  1  0
 27 28  2  0
 28 29  1  0
 30 29  2  0
 31 23  1  0
 32 31  2  0
 33 31  1  0
M  END
$$$$
