KST.pdb
     RDKit          3D

 23 22  0  0  1  0  0  0  0  0999 V2000
    6.9297  -18.4652   17.2862 N   0  0  0  0  0  0  0  0  0  0  0  0
    6.2155  -17.6292   18.2849 C   0  0  1  0  0  0  0  0  0  0  0  0
    5.4600  -18.6156   19.1105 C   0  0  0  0  0  0  0  0  0  0  0  0
    6.1350  -19.9005   19.4165 C   0  0  0  0  0  0  0  0  0  0  0  0
    5.0751  -20.7652   20.1299 C   0  0  0  0  0  0  0  0  0  0  0  0
    5.6603  -22.1090   20.4964 C   0  0  0  0  0  0  0  0  0  0  0  0
    4.6306  -22.8891   21.1154 N   0  0  0  0  0  0  0  0  0  0  0  0
    7.2071  -16.9082   19.1214 C   0  0  0  0  0  0  0  0  0  0  0  0
    8.3823  -17.3816   19.2989 O   0  0  0  0  0  0  0  0  0  0  0  0
    8.2134  -12.9499   21.7973 O   0  0  0  0  0  0  0  0  0  0  0  0
    7.3389  -13.6527   20.9650 C   0  0  0  0  0  0  0  0  0  0  0  0
    7.9136  -15.0330   20.6448 C   0  0  2  0  0  0  0  0  0  0  0  0
    6.9567  -15.6782   19.7727 N   0  0  0  0  0  0  0  0  0  0  0  0
    8.1627  -15.7966   21.8794 C   0  0  0  0  0  0  0  0  0  0  0  0
    7.2588  -16.1932   22.6632 O   0  0  0  0  0  0  0  0  0  0  0  0
   11.1482  -18.5305   22.2802 C   0  0  0  0  0  0  0  0  0  0  0  0
   11.2330  -17.4005   23.2665 C   0  0  1  0  0  0  0  0  0  0  0  0
   12.1601  -16.4448   22.8461 O   0  0  0  0  0  0  0  0  0  0  0  0
    9.8709  -16.7507   23.4737 C   0  0  2  0  0  0  0  0  0  0  0  0
    9.5017  -16.1091   22.2141 N   0  0  0  0  0  0  0  0  0  0  0  0
   10.0418  -15.7372   24.5458 C   0  0  0  0  0  0  0  0  0  0  0  0
    9.9578  -14.4032   24.1718 O   0  0  0  0  0  0  0  0  0  0  0  0
   10.2521  -16.0670   25.7338 O   0  0  0  0  0  0  0  0  0  0  0  0
  2  1  1  6
  3  4  1  0
  3  2  1  0
  5  4  1  0
  6  5  1  0
  7  6  1  0
  8 13  1  0
  8  2  1  0
  9  8  2  0
 11 10  1  0
 12 11  1  1
 12 14  1  0
 12 13  1  0
 14 15  2  0
 17 16  1  6
 17 19  1  0
 18 17  1  0
 19 21  1  0
 19 20  1  6
 20 14  1  0
 21 22  1  0
 23 21  2  0
M  END
$$$$
