KST.pdb
     RDKit          3D

 23 22  0  0  1  0  0  0  0  0999 V2000
    8.0668  -12.3757   18.3148 N   0  0  0  0  0  0  0  0  0  0  0  0
    7.7769  -13.5826   19.1306 C   0  0  1  0  0  0  0  0  0  0  0  0
    7.7861  -14.6999   18.1422 C   0  0  0  0  0  0  0  0  0  0  0  0
    8.9477  -14.7816   17.2234 C   0  0  0  0  0  0  0  0  0  0  0  0
    8.6080  -15.9084   16.2259 C   0  0  0  0  0  0  0  0  0  0  0  0
    9.7089  -16.0454   15.2004 C   0  0  0  0  0  0  0  0  0  0  0  0
    9.3199  -17.0550   14.2617 N   0  0  0  0  0  0  0  0  0  0  0  0
    8.8567  -13.7702   20.1314 C   0  0  0  0  0  0  0  0  0  0  0  0
   10.0525  -13.3882   19.8847 O   0  0  0  0  0  0  0  0  0  0  0  0
    8.3498  -16.0730   23.5850 O   0  0  0  0  0  0  0  0  0  0  0  0
    9.0875  -14.8911   23.6865 C   0  0  0  0  0  0  0  0  0  0  0  0
    9.7485  -14.5675   22.3462 C   0  0  2  0  0  0  0  0  0  0  0  0
    8.6720  -14.3629   21.4020 N   0  0  0  0  0  0  0  0  0  0  0  0
   10.6644  -15.6468   21.9391 C   0  0  0  0  0  0  0  0  0  0  0  0
   10.2951  -16.7272   21.4050 O   0  0  0  0  0  0  0  0  0  0  0  0
   13.3997  -15.1027   19.6311 C   0  0  0  0  0  0  0  0  0  0  0  0
   14.0574  -15.6758   20.8541 C   0  0  1  0  0  0  0  0  0  0  0  0
   14.6678  -14.6697   21.6056 O   0  0  0  0  0  0  0  0  0  0  0  0
   13.0523  -16.4322   21.7131 C   0  0  2  0  0  0  0  0  0  0  0  0
   12.0507  -15.4664   22.1586 N   0  0  0  0  0  0  0  0  0  0  0  0
   13.8063  -16.9748   22.8719 C   0  0  0  0  0  0  0  0  0  0  0  0
   13.5050  -16.4513   24.1215 O   0  0  0  0  0  0  0  0  0  0  0  0
   14.6748  -17.8640   22.7320 O   0  0  0  0  0  0  0  0  0  0  0  0
  2  1  1  6
  3  4  1  0
  3  2  1  0
  5  4  1  0
  6  5  1  0
  7  6  1  0
  8 13  1  0
  8  2  1  0
  9  8  2  0
 11 10  1  0
 12 11  1  1
 12 14  1  0
 12 13  1  0
 14 15  2  0
 17 16  1  6
 17 19  1  0
 18 17  1  0
 19 21  1  0
 19 20  1  1
 20 14  1  0
 21 22  1  0
 23 21  2  0
M  END
$$$$
