KST.pdb
     RDKit          3D

 23 22  0  0  1  0  0  0  0  0999 V2000
    8.0581  -13.0424   15.7806 N   0  0  0  0  0  0  0  0  0  0  0  0
    7.4719  -13.8778   16.8600 C   0  0  1  0  0  0  0  0  0  0  0  0
    7.4651  -15.2560   16.2892 C   0  0  0  0  0  0  0  0  0  0  0  0
    7.7961  -15.3947   14.8501 C   0  0  0  0  0  0  0  0  0  0  0  0
    7.4628  -16.8568   14.4876 C   0  0  0  0  0  0  0  0  0  0  0  0
    7.8688  -17.1451   13.0613 C   0  0  0  0  0  0  0  0  0  0  0  0
    7.5715  -18.5185   12.7828 N   0  0  0  0  0  0  0  0  0  0  0  0
    8.3477  -13.8194   18.0569 C   0  0  0  0  0  0  0  0  0  0  0  0
    9.6097  -13.6467   17.9377 O   0  0  0  0  0  0  0  0  0  0  0  0
    6.9586  -14.8245   21.8413 O   0  0  0  0  0  0  0  0  0  0  0  0
    7.8729  -13.7712   21.7634 C   0  0  0  0  0  0  0  0  0  0  0  0
    8.7681  -13.9420   20.5357 C   0  0  2  0  0  0  0  0  0  0  0  0
    7.8872  -13.9418   19.3884 N   0  0  0  0  0  0  0  0  0  0  0  0
    9.5686  -15.1741   20.6377 C   0  0  0  0  0  0  0  0  0  0  0  0
    9.2223  -16.2871   20.1580 O   0  0  0  0  0  0  0  0  0  0  0  0
   12.8803  -15.6358   19.3312 C   0  0  0  0  0  0  0  0  0  0  0  0
   13.0305  -15.8709   20.8073 C   0  0  1  0  0  0  0  0  0  0  0  0
   13.5438  -14.7368   21.4397 O   0  0  0  0  0  0  0  0  0  0  0  0
   11.7003  -16.2631   21.4377 C   0  0  2  0  0  0  0  0  0  0  0  0
   10.8085  -15.1121   21.3170 N   0  0  0  0  0  0  0  0  0  0  0  0
   11.9779  -16.5612   22.8659 C   0  0  0  0  0  0  0  0  0  0  0  0
   11.4216  -15.7073   23.8082 O   0  0  0  0  0  0  0  0  0  0  0  0
   12.6812  -17.5373   23.2084 O   0  0  0  0  0  0  0  0  0  0  0  0
  2  1  1  6
  3  4  1  0
  3  2  1  0
  5  4  1  0
  6  5  1  0
  7  6  1  0
  8 13  1  0
  8  2  1  0
  9  8  2  0
 11 10  1  0
 12 11  1  1
 12 14  1  0
 12 13  1  0
 14 15  2  0
 17 16  1  6
 17 19  1  0
 18 17  1  0
 19 21  1  0
 19 20  1  1
 20 14  1  0
 21 22  1  0
 23 21  2  0
M  END
$$$$
