KST.pdb
     RDKit          3D

 23 22  0  0  1  0  0  0  0  0999 V2000
    2.4435  -19.8061   20.3411 N   0  0  0  0  0  0  0  0  0  0  0  0
    2.8711  -18.7357   21.2779 C   0  0  1  0  0  0  0  0  0  0  0  0
    2.1597  -19.0596   22.5485 C   0  0  0  0  0  0  0  0  0  0  0  0
    0.9748  -19.9467   22.4540 C   0  0  0  0  0  0  0  0  0  0  0  0
   -0.1891  -19.1508   23.0804 C   0  0  0  0  0  0  0  0  0  0  0  0
   -1.4391  -19.9984   23.1170 C   0  0  0  0  0  0  0  0  0  0  0  0
   -2.5202  -19.1777   23.5750 N   0  0  0  0  0  0  0  0  0  0  0  0
    4.3401  -18.8131   21.4749 C   0  0  0  0  0  0  0  0  0  0  0  0
    4.9906  -19.8650   21.1477 O   0  0  0  0  0  0  0  0  0  0  0  0
    6.4217  -15.7175   23.2378 O   0  0  0  0  0  0  0  0  0  0  0  0
    7.0679  -16.4045   22.2074 C   0  0  0  0  0  0  0  0  0  0  0  0
    6.5667  -17.8476   22.1429 C   0  0  2  0  0  0  0  0  0  0  0  0
    5.1276  -17.7719   22.0187 N   0  0  0  0  0  0  0  0  0  0  0  0
    6.9959  -18.6053   23.3308 C   0  0  0  0  0  0  0  0  0  0  0  0
    6.3924  -18.5918   24.4373 O   0  0  0  0  0  0  0  0  0  0  0  0
    8.7022  -22.3693   23.0121 C   0  0  0  0  0  0  0  0  0  0  0  0
    9.5228  -21.3229   23.7109 C   0  0  1  0  0  0  0  0  0  0  0  0
   10.4378  -20.7417   22.8309 O   0  0  0  0  0  0  0  0  0  0  0  0
    8.6337  -20.2487   24.3242 C   0  0  2  0  0  0  0  0  0  0  0  0
    8.1606  -19.4028   23.2310 N   0  0  0  0  0  0  0  0  0  0  0  0
    9.4888  -19.4693   25.2553 C   0  0  0  0  0  0  0  0  0  0  0  0
    9.8502  -20.0855   26.4454 O   0  0  0  0  0  0  0  0  0  0  0  0
    9.8685  -18.3090   24.9829 O   0  0  0  0  0  0  0  0  0  0  0  0
  2  1  1  6
  3  4  1  0
  3  2  1  0
  5  4  1  0
  6  5  1  0
  7  6  1  0
  8 13  1  0
  8  2  1  0
  9  8  2  0
 11 10  1  0
 12 11  1  1
 12 14  1  0
 12 13  1  0
 14 15  2  0
 17 16  1  6
 17 19  1  0
 18 17  1  0
 19 21  1  0
 19 20  1  6
 20 14  1  0
 21 22  1  0
 23 21  2  0
M  END
$$$$
