KST.pdb
     RDKit          3D

 23 22  0  0  1  0  0  0  0  0999 V2000
    8.9745  -15.9200   20.3231 N   0  0  0  0  0  0  0  0  0  0  0  0
    8.7422  -14.7286   21.1793 C   0  0  1  0  0  0  0  0  0  0  0  0
    7.4307  -14.1945   20.7102 C   0  0  0  0  0  0  0  0  0  0  0  0
    7.1917  -14.1754   19.2465 C   0  0  0  0  0  0  0  0  0  0  0  0
    8.2521  -13.2166   18.6665 C   0  0  0  0  0  0  0  0  0  0  0  0
    8.0521  -13.0585   17.1774 C   0  0  0  0  0  0  0  0  0  0  0  0
    8.4534  -14.2783   16.5423 N   0  0  0  0  0  0  0  0  0  0  0  0
    8.6483  -15.1540   22.5981 C   0  0  0  0  0  0  0  0  0  0  0  0
    8.2712  -14.3338   23.5046 O   0  0  0  0  0  0  0  0  0  0  0  0
   10.1685  -18.8259   24.0351 O   0  0  0  0  0  0  0  0  0  0  0  0
    8.9340  -18.3587   24.4923 C   0  0  0  0  0  0  0  0  0  0  0  0
    8.9053  -16.8303   24.4583 C   0  0  2  0  0  0  0  0  0  0  0  0
    8.9525  -16.4548   23.0622 N   0  0  0  0  0  0  0  0  0  0  0  0
   10.0218  -16.2673   25.2367 C   0  0  0  0  0  0  0  0  0  0  0  0
   11.1641  -16.0220   24.7635 O   0  0  0  0  0  0  0  0  0  0  0  0
   10.0298  -13.0656   27.3528 C   0  0  0  0  0  0  0  0  0  0  0  0
   10.2164  -14.2655   28.2372 C   0  0  1  0  0  0  0  0  0  0  0  0
    8.9995  -14.6654   28.7927 O   0  0  0  0  0  0  0  0  0  0  0  0
   10.8439  -15.4209   27.4677 C   0  0  2  0  0  0  0  0  0  0  0  0
    9.8057  -15.9806   26.6055 N   0  0  0  0  0  0  0  0  0  0  0  0
   11.2778  -16.4190   28.4783 C   0  0  0  0  0  0  0  0  0  0  0  0
   12.2891  -16.0367   29.3486 O   0  0  0  0  0  0  0  0  0  0  0  0
   10.7576  -17.5545   28.5452 O   0  0  0  0  0  0  0  0  0  0  0  0
  2  1  1  6
  3  4  1  0
  3  2  1  0
  5  4  1  0
  6  5  1  0
  7  6  1  0
  8 13  1  0
  8  2  1  0
  9  8  2  0
 11 10  1  0
 12 11  1  6
 12 14  1  0
 12 13  1  0
 14 15  2  0
 17 16  1  6
 17 19  1  0
 18 17  1  0
 19 21  1  0
 19 20  1  6
 20 14  1  0
 21 22  1  0
 23 21  2  0
M  END
$$$$
