KST.pdb
     RDKit          3D

 23 22  0  0  1  0  0  0  0  0999 V2000
    5.8299  -15.4025   26.0741 N   0  0  0  0  0  0  0  0  0  0  0  0
    6.6806  -14.5087   25.2472 C   0  0  1  0  0  0  0  0  0  0  0  0
    7.4277  -13.6914   26.2469 C   0  0  0  0  0  0  0  0  0  0  0  0
    7.2153  -12.2237   26.2162 C   0  0  0  0  0  0  0  0  0  0  0  0
    5.7448  -12.0095   26.6307 C   0  0  0  0  0  0  0  0  0  0  0  0
    5.3978  -10.5401   26.5780 C   0  0  0  0  0  0  0  0  0  0  0  0
    4.0039  -10.4008   26.8778 N   0  0  0  0  0  0  0  0  0  0  0  0
    7.6217  -15.3298   24.4453 C   0  0  0  0  0  0  0  0  0  0  0  0
    8.3017  -16.2667   24.9898 O   0  0  0  0  0  0  0  0  0  0  0  0
    9.7154  -14.5527   20.6840 O   0  0  0  0  0  0  0  0  0  0  0  0
    8.6864  -15.4818   20.8547 C   0  0  0  0  0  0  0  0  0  0  0  0
    8.7035  -16.0286   22.2825 C   0  0  2  0  0  0  0  0  0  0  0  0
    7.8443  -15.1618   23.0589 N   0  0  0  0  0  0  0  0  0  0  0  0
   10.0789  -16.0835   22.8066 C   0  0  0  0  0  0  0  0  0  0  0  0
   10.7158  -15.0834   23.2345 O   0  0  0  0  0  0  0  0  0  0  0  0
   11.6172  -19.1588   25.2243 C   0  0  0  0  0  0  0  0  0  0  0  0
   12.1792  -18.9704   23.8440 C   0  0  1  0  0  0  0  0  0  0  0  0
   11.5302  -19.8001   22.9275 O   0  0  0  0  0  0  0  0  0  0  0  0
   12.0692  -17.5169   23.4014 C   0  0  2  0  0  0  0  0  0  0  0  0
   10.7347  -17.3372   22.8347 N   0  0  0  0  0  0  0  0  0  0  0  0
   13.1102  -17.3087   22.3627 C   0  0  0  0  0  0  0  0  0  0  0  0
   14.4330  -17.3290   22.7824 O   0  0  0  0  0  0  0  0  0  0  0  0
   12.8121  -17.1229   21.1622 O   0  0  0  0  0  0  0  0  0  0  0  0
  2  1  1  1
  3  4  1  0
  3  2  1  0
  5  4  1  0
  6  5  1  0
  7  6  1  0
  8 13  1  0
  8  2  1  0
  9  8  2  0
 11 10  1  0
 12 11  1  6
 12 14  1  0
 12 13  1  0
 14 15  2  0
 17 16  1  1
 17 19  1  0
 18 17  1  0
 19 21  1  0
 19 20  1  6
 20 14  1  0
 21 22  1  0
 23 21  2  0
M  END
$$$$
