KST.pdb
     RDKit          3D

 23 22  0  0  1  0  0  0  0  0999 V2000
    9.0211  -18.0158   17.1399 N   0  0  0  0  0  0  0  0  0  0  0  0
    9.5972  -17.0422   18.1025 C   0  0  1  0  0  0  0  0  0  0  0  0
    8.6072  -15.9266   18.1270 C   0  0  0  0  0  0  0  0  0  0  0  0
    8.4854  -15.1023   16.8999 C   0  0  0  0  0  0  0  0  0  0  0  0
    7.4976  -13.9722   17.2568 C   0  0  0  0  0  0  0  0  0  0  0  0
    7.2579  -13.0910   16.0533 C   0  0  0  0  0  0  0  0  0  0  0  0
    6.2188  -12.1613   16.3821 N   0  0  0  0  0  0  0  0  0  0  0  0
    9.6951  -17.6746   19.4417 C   0  0  0  0  0  0  0  0  0  0  0  0
    8.8556  -18.5681   19.8074 O   0  0  0  0  0  0  0  0  0  0  0  0
   13.1399  -17.5932   21.6419 O   0  0  0  0  0  0  0  0  0  0  0  0
   12.1857  -18.6051   21.7719 C   0  0  0  0  0  0  0  0  0  0  0  0
   10.7781  -18.0139   21.6886 C   0  0  2  0  0  0  0  0  0  0  0  0
   10.6873  -17.3630   20.4000 N   0  0  0  0  0  0  0  0  0  0  0  0
   10.5292  -17.0920   22.8100 C   0  0  0  0  0  0  0  0  0  0  0  0
   10.8849  -15.8828   22.8270 O   0  0  0  0  0  0  0  0  0  0  0  0
    7.7244  -18.3672   25.5794 C   0  0  0  0  0  0  0  0  0  0  0  0
    8.1130  -16.9203   25.4688 C   0  0  1  0  0  0  0  0  0  0  0  0
    7.8224  -16.2377   26.6516 O   0  0  0  0  0  0  0  0  0  0  0  0
    9.5913  -16.7743   25.1315 C   0  0  2  0  0  0  0  0  0  0  0  0
    9.8468  -17.5888   23.9458 N   0  0  0  0  0  0  0  0  0  0  0  0
   10.3474  -17.2979   26.2977 C   0  0  0  0  0  0  0  0  0  0  0  0
   10.2862  -16.5602   27.4718 O   0  0  0  0  0  0  0  0  0  0  0  0
   11.0109  -18.3560   26.2288 O   0  0  0  0  0  0  0  0  0  0  0  0
  2  1  1  6
  3  4  1  0
  3  2  1  0
  5  4  1  0
  6  5  1  0
  7  6  1  0
  8 13  1  0
  8  2  1  0
  9  8  2  0
 11 10  1  0
 12 11  1  1
 12 14  1  0
 12 13  1  0
 14 15  2  0
 17 16  1  1
 17 19  1  0
 18 17  1  0
 19 21  1  0
 19 20  1  6
 20 14  1  0
 21 22  1  0
 23 21  2  0
M  END
$$$$
