KST.pdb
     RDKit          3D

 23 22  0  0  1  0  0  0  0  0999 V2000
    6.3059  -19.3165   20.9874 N   0  0  0  0  0  0  0  0  0  0  0  0
    7.4915  -19.4873   21.8657 C   0  0  1  0  0  0  0  0  0  0  0  0
    8.6469  -19.1419   20.9875 C   0  0  0  0  0  0  0  0  0  0  0  0
    9.0119  -20.1193   19.9332 C   0  0  0  0  0  0  0  0  0  0  0  0
   10.1999  -19.4885   19.1774 C   0  0  0  0  0  0  0  0  0  0  0  0
   10.6842  -20.4243   18.0948 C   0  0  0  0  0  0  0  0  0  0  0  0
   11.7515  -19.7773   17.3918 N   0  0  0  0  0  0  0  0  0  0  0  0
    7.4034  -18.5349   23.0007 C   0  0  0  0  0  0  0  0  0  0  0  0
    6.8643  -17.3845   22.8504 O   0  0  0  0  0  0  0  0  0  0  0  0
    7.5866  -19.7663   26.8869 O   0  0  0  0  0  0  0  0  0  0  0  0
    6.9090  -18.6191   26.4674 C   0  0  0  0  0  0  0  0  0  0  0  0
    7.7300  -17.8811   25.4095 C   0  0  2  0  0  0  0  0  0  0  0  0
    7.8857  -18.8001   24.3033 N   0  0  0  0  0  0  0  0  0  0  0  0
    9.0195  -17.4346   25.9636 C   0  0  0  0  0  0  0  0  0  0  0  0
   10.1116  -18.0418   25.7978 O   0  0  0  0  0  0  0  0  0  0  0  0
    8.7591  -14.0675   28.5107 C   0  0  0  0  0  0  0  0  0  0  0  0
   10.0500  -14.3411   27.7927 C   0  0  1  0  0  0  0  0  0  0  0  0
   11.1377  -13.8779   28.5356 O   0  0  0  0  0  0  0  0  0  0  0  0
   10.2110  -15.8278   27.5025 C   0  0  2  0  0  0  0  0  0  0  0  0
    9.0418  -16.2475   26.7335 N   0  0  0  0  0  0  0  0  0  0  0  0
   10.2458  -16.5166   28.8179 C   0  0  0  0  0  0  0  0  0  0  0  0
   11.4183  -16.4129   29.5534 O   0  0  0  0  0  0  0  0  0  0  0  0
    9.2643  -17.1622   29.2472 O   0  0  0  0  0  0  0  0  0  0  0  0
  2  1  1  6
  3  4  1  0
  3  2  1  0
  5  4  1  0
  6  5  1  0
  7  6  1  0
  8 13  1  0
  8  2  1  0
  9  8  2  0
 11 10  1  0
 12 11  1  1
 12 14  1  0
 12 13  1  0
 14 15  2  0
 17 16  1  1
 17 19  1  0
 18 17  1  0
 19 21  1  0
 19 20  1  6
 20 14  1  0
 21 22  1  0
 23 21  2  0
M  END
$$$$
