KST.pdb
     RDKit          3D

 23 22  0  0  1  0  0  0  0  0999 V2000
    6.4446  -16.5219   21.2219 N   0  0  0  0  0  0  0  0  0  0  0  0
    7.6937  -15.7955   21.5661 C   0  0  1  0  0  0  0  0  0  0  0  0
    7.2614  -14.3742   21.7026 C   0  0  0  0  0  0  0  0  0  0  0  0
    6.8517  -13.6691   20.4636 C   0  0  0  0  0  0  0  0  0  0  0  0
    8.1593  -13.3939   19.6924 C   0  0  0  0  0  0  0  0  0  0  0  0
    7.8618  -12.6481   18.4127 C   0  0  0  0  0  0  0  0  0  0  0  0
    9.0906  -12.4898   17.6936 N   0  0  0  0  0  0  0  0  0  0  0  0
    8.2161  -16.3022   22.8596 C   0  0  0  0  0  0  0  0  0  0  0  0
    7.4215  -16.5872   23.8209 O   0  0  0  0  0  0  0  0  0  0  0  0
   11.6137  -18.7438   25.1425 O   0  0  0  0  0  0  0  0  0  0  0  0
   11.1737  -18.0604   24.0064 C   0  0  0  0  0  0  0  0  0  0  0  0
   10.0659  -17.0756   24.3817 C   0  0  2  0  0  0  0  0  0  0  0  0
    9.5865  -16.5117   23.1388 N   0  0  0  0  0  0  0  0  0  0  0  0
   10.5679  -16.0520   25.3142 C   0  0  0  0  0  0  0  0  0  0  0  0
   11.3991  -15.1564   25.0046 O   0  0  0  0  0  0  0  0  0  0  0  0
    9.1450  -13.2239   27.1654 C   0  0  0  0  0  0  0  0  0  0  0  0
    9.4470  -14.3131   28.1550 C   0  0  1  0  0  0  0  0  0  0  0  0
    8.3198  -15.1066   28.3772 O   0  0  0  0  0  0  0  0  0  0  0  0
   10.6087  -15.1771   27.6812 C   0  0  2  0  0  0  0  0  0  0  0  0
   10.0906  -16.0687   26.6463 N   0  0  0  0  0  0  0  0  0  0  0  0
   11.0678  -15.9558   28.8596 C   0  0  0  0  0  0  0  0  0  0  0  0
   11.7146  -15.2532   29.8669 O   0  0  0  0  0  0  0  0  0  0  0  0
   10.8819  -17.1898   28.9443 O   0  0  0  0  0  0  0  0  0  0  0  0
  2  1  1  1
  3  4  1  0
  3  2  1  0
  5  4  1  0
  6  5  1  0
  7  6  1  0
  8 13  1  0
  8  2  1  0
  9  8  2  0
 11 10  1  0
 12 11  1  6
 12 14  1  0
 12 13  1  0
 14 15  2  0
 17 16  1  6
 17 19  1  0
 18 17  1  0
 19 21  1  0
 19 20  1  6
 20 14  1  0
 21 22  1  0
 23 21  2  0
M  END
$$$$
