KST.pdb
     RDKit          3D

 23 22  0  0  1  0  0  0  0  0999 V2000
    8.8434  -14.8523   13.8646 N   0  0  0  0  0  0  0  0  0  0  0  0
    8.1353  -15.1401   15.1382 C   0  0  1  0  0  0  0  0  0  0  0  0
    8.0350  -16.6281   15.1698 C   0  0  0  0  0  0  0  0  0  0  0  0
    6.7026  -17.2229   14.9036 C   0  0  0  0  0  0  0  0  0  0  0  0
    6.9068  -18.7499   14.9866 C   0  0  0  0  0  0  0  0  0  0  0  0
    5.6340  -19.4670   14.6020 C   0  0  0  0  0  0  0  0  0  0  0  0
    5.8898  -20.8761   14.6342 N   0  0  0  0  0  0  0  0  0  0  0  0
    8.9544  -14.6539   16.2765 C   0  0  0  0  0  0  0  0  0  0  0  0
   10.2283  -14.7704   16.2640 O   0  0  0  0  0  0  0  0  0  0  0  0
    7.3255  -13.5540   19.9885 O   0  0  0  0  0  0  0  0  0  0  0  0
    8.3337  -12.7579   19.4399 C   0  0  0  0  0  0  0  0  0  0  0  0
    9.2419  -13.6023   18.5454 C   0  0  2  0  0  0  0  0  0  0  0  0
    8.4248  -14.0384   17.4343 N   0  0  0  0  0  0  0  0  0  0  0  0
    9.8226  -14.7263   19.2996 C   0  0  0  0  0  0  0  0  0  0  0  0
    9.2602  -15.8438   19.4532 O   0  0  0  0  0  0  0  0  0  0  0  0
   13.5142  -15.7636   18.8270 C   0  0  0  0  0  0  0  0  0  0  0  0
   13.2660  -15.4984   20.2847 C   0  0  1  0  0  0  0  0  0  0  0  0
   13.7421  -14.2367   20.6465 O   0  0  0  0  0  0  0  0  0  0  0  0
   11.7840  -15.6126   20.6178 C   0  0  2  0  0  0  0  0  0  0  0  0
   11.0946  -14.5474   19.8934 N   0  0  0  0  0  0  0  0  0  0  0  0
   11.6608  -15.4115   22.0841 C   0  0  0  0  0  0  0  0  0  0  0  0
   12.1969  -16.3958   22.9030 O   0  0  0  0  0  0  0  0  0  0  0  0
   11.0998  -14.4017   22.5637 O   0  0  0  0  0  0  0  0  0  0  0  0
  2  1  1  6
  3  4  1  0
  3  2  1  0
  5  4  1  0
  6  5  1  0
  7  6  1  0
  8 13  1  0
  8  2  1  0
  9  8  2  0
 11 10  1  0
 12 11  1  1
 12 14  1  0
 12 13  1  0
 14 15  2  0
 17 16  1  6
 17 19  1  0
 18 17  1  0
 19 21  1  0
 19 20  1  6
 20 14  1  0
 21 22  1  0
 23 21  2  0
M  END
$$$$
