KST.pdb
     RDKit          3D

 23 22  0  0  1  0  0  0  0  0999 V2000
   10.9603  -18.8104   17.2947 N   0  0  0  0  0  0  0  0  0  0  0  0
   10.9000  -19.2345   18.7170 C   0  0  1  0  0  0  0  0  0  0  0  0
   11.7041  -20.4904   18.7559 C   0  0  0  0  0  0  0  0  0  0  0  0
   11.1056  -21.6971   18.1348 C   0  0  0  0  0  0  0  0  0  0  0  0
   12.1342  -22.8267   18.3500 C   0  0  0  0  0  0  0  0  0  0  0  0
   11.6865  -24.0812   17.6371 C   0  0  0  0  0  0  0  0  0  0  0  0
   12.7497  -25.0384   17.7104 N   0  0  0  0  0  0  0  0  0  0  0  0
   11.5285  -18.1930   19.5673 C   0  0  0  0  0  0  0  0  0  0  0  0
   12.5607  -17.5533   19.1646 O   0  0  0  0  0  0  0  0  0  0  0  0
   10.0997  -17.2427   23.4030 O   0  0  0  0  0  0  0  0  0  0  0  0
   10.6558  -16.2508   22.5918 C   0  0  0  0  0  0  0  0  0  0  0  0
   11.7325  -16.8530   21.6884 C   0  0  2  0  0  0  0  0  0  0  0  0
   11.0625  -17.8229   20.8502 N   0  0  0  0  0  0  0  0  0  0  0  0
   12.8171  -17.4463   22.4891 C   0  0  0  0  0  0  0  0  0  0  0  0
   12.7120  -18.5195   23.1417 O   0  0  0  0  0  0  0  0  0  0  0  0
   16.6269  -16.7907   21.2274 C   0  0  0  0  0  0  0  0  0  0  0  0
   16.4492  -16.5706   22.7028 C   0  0  1  0  0  0  0  0  0  0  0  0
   16.3374  -15.2090   22.9905 O   0  0  0  0  0  0  0  0  0  0  0  0
   15.2279  -17.3166   23.2247 C   0  0  2  0  0  0  0  0  0  0  0  0
   14.0611  -16.7732   22.5334 N   0  0  0  0  0  0  0  0  0  0  0  0
   15.1491  -17.0370   24.6812 C   0  0  0  0  0  0  0  0  0  0  0  0
   16.1650  -17.5476   25.4773 O   0  0  0  0  0  0  0  0  0  0  0  0
   14.2107  -16.3716   25.1724 O   0  0  0  0  0  0  0  0  0  0  0  0
  2  1  1  6
  3  4  1  0
  3  2  1  0
  5  4  1  0
  6  5  1  0
  7  6  1  0
  8 13  1  0
  8  2  1  0
  9  8  2  0
 11 10  1  0
 12 11  1  1
 12 14  1  0
 12 13  1  0
 14 15  2  0
 17 16  1  6
 17 19  1  0
 18 17  1  0
 19 21  1  0
 19 20  1  6
 20 14  1  0
 21 22  1  0
 23 21  2  0
M  END
$$$$
