KST.pdb
     RDKit          3D

 23 22  0  0  1  0  0  0  0  0999 V2000
    7.3194  -17.9828   19.9428 N   0  0  0  0  0  0  0  0  0  0  0  0
    8.1872  -16.9077   20.4883 C   0  0  1  0  0  0  0  0  0  0  0  0
    7.7600  -15.6853   19.7476 C   0  0  0  0  0  0  0  0  0  0  0  0
    8.5456  -15.3124   18.5460 C   0  0  0  0  0  0  0  0  0  0  0  0
    7.9058  -14.0104   18.0210 C   0  0  0  0  0  0  0  0  0  0  0  0
    8.6234  -13.5428   16.7765 C   0  0  0  0  0  0  0  0  0  0  0  0
    7.9229  -12.4051   16.2596 N   0  0  0  0  0  0  0  0  0  0  0  0
    7.9212  -16.7507   21.9400 C   0  0  0  0  0  0  0  0  0  0  0  0
    6.7252  -16.7756   22.3935 O   0  0  0  0  0  0  0  0  0  0  0  0
   10.7911  -17.2551   25.1302 O   0  0  0  0  0  0  0  0  0  0  0  0
    9.4601  -17.6488   24.9730 C   0  0  0  0  0  0  0  0  0  0  0  0
    8.6492  -16.5184   24.3384 C   0  0  2  0  0  0  0  0  0  0  0  0
    8.9250  -16.5687   22.9194 N   0  0  0  0  0  0  0  0  0  0  0  0
    8.9991  -15.2203   24.9400 C   0  0  0  0  0  0  0  0  0  0  0  0
    9.9674  -14.5040   24.5686 O   0  0  0  0  0  0  0  0  0  0  0  0
    6.9162  -12.0399   25.5377 C   0  0  0  0  0  0  0  0  0  0  0  0
    7.2394  -12.7043   26.8457 C   0  0  1  0  0  0  0  0  0  0  0  0
    6.1849  -13.5198   27.2607 O   0  0  0  0  0  0  0  0  0  0  0  0
    8.5216  -13.5204   26.7434 C   0  0  2  0  0  0  0  0  0  0  0  0
    8.2006  -14.7394   26.0048 N   0  0  0  0  0  0  0  0  0  0  0  0
    8.9314  -13.8447   28.1337 C   0  0  0  0  0  0  0  0  0  0  0  0
    8.9604  -15.1869   28.4859 O   0  0  0  0  0  0  0  0  0  0  0  0
    9.2375  -12.9509   28.9534 O   0  0  0  0  0  0  0  0  0  0  0  0
  2  1  1  6
  3  4  1  0
  3  2  1  0
  5  4  1  0
  6  5  1  0
  7  6  1  0
  8 13  1  0
  8  2  1  0
  9  8  2  0
 11 10  1  0
 12 11  1  1
 12 14  1  0
 12 13  1  0
 14 15  2  0
 17 16  1  6
 17 19  1  0
 18 17  1  0
 19 21  1  0
 19 20  1  6
 20 14  1  0
 21 22  1  0
 23 21  2  0
M  END
$$$$
