KST.pdb
     RDKit          3D

 23 22  0  0  1  0  0  0  0  0999 V2000
   10.0721  -16.8385   19.1684 N   0  0  0  0  0  0  0  0  0  0  0  0
    9.0114  -16.7438   20.2039 C   0  0  1  0  0  0  0  0  0  0  0  0
    8.3619  -18.0866   20.1823 C   0  0  0  0  0  0  0  0  0  0  0  0
    8.0580  -18.6705   18.8531 C   0  0  0  0  0  0  0  0  0  0  0  0
    8.4197  -20.1661   18.9656 C   0  0  0  0  0  0  0  0  0  0  0  0
    8.0570  -20.8868   17.6883 C   0  0  0  0  0  0  0  0  0  0  0  0
    8.5478  -22.2295   17.7800 N   0  0  0  0  0  0  0  0  0  0  0  0
    9.6369  -16.4945   21.5266 C   0  0  0  0  0  0  0  0  0  0  0  0
   10.8388  -16.8633   21.7630 O   0  0  0  0  0  0  0  0  0  0  0  0
    7.5835  -14.7010   24.7731 O   0  0  0  0  0  0  0  0  0  0  0  0
    8.9356  -14.4477   24.5300 C   0  0  0  0  0  0  0  0  0  0  0  0
    9.5970  -15.6776   23.9072 C   0  0  2  0  0  0  0  0  0  0  0  0
    8.9895  -15.8493   22.6058 N   0  0  0  0  0  0  0  0  0  0  0  0
    9.4301  -16.8576   24.7728 C   0  0  0  0  0  0  0  0  0  0  0  0
    8.3292  -17.4352   24.9808 O   0  0  0  0  0  0  0  0  0  0  0  0
   11.3672  -20.0454   24.3741 C   0  0  0  0  0  0  0  0  0  0  0  0
   11.6641  -19.4999   25.7420 C   0  0  1  0  0  0  0  0  0  0  0  0
   12.8728  -18.8010   25.7447 O   0  0  0  0  0  0  0  0  0  0  0  0
   10.5377  -18.5970   26.2280 C   0  0  2  0  0  0  0  0  0  0  0  0
   10.5758  -17.3829   25.4162 N   0  0  0  0  0  0  0  0  0  0  0  0
   10.8276  -18.2834   27.6505 C   0  0  0  0  0  0  0  0  0  0  0  0
   11.1984  -16.9789   27.9460 O   0  0  0  0  0  0  0  0  0  0  0  0
   10.7426  -19.1534   28.5452 O   0  0  0  0  0  0  0  0  0  0  0  0
  2  1  1  6
  3  4  1  0
  3  2  1  0
  5  4  1  0
  6  5  1  0
  7  6  1  0
  8 13  1  0
  8  2  1  0
  9  8  2  0
 11 10  1  0
 12 11  1  1
 12 14  1  0
 12 13  1  0
 14 15  2  0
 17 16  1  6
 17 19  1  0
 18 17  1  0
 19 21  1  0
 19 20  1  6
 20 14  1  0
 21 22  1  0
 23 21  2  0
M  END
$$$$
