KST.pdb
     RDKit          3D

 23 22  0  0  1  0  0  0  0  0999 V2000
   12.1126  -17.3803   19.9204 N   0  0  0  0  0  0  0  0  0  0  0  0
   12.4001  -17.9393   21.2662 C   0  0  1  0  0  0  0  0  0  0  0  0
   13.8698  -17.7457   21.4334 C   0  0  0  0  0  0  0  0  0  0  0  0
   14.7608  -18.5048   20.5225 C   0  0  0  0  0  0  0  0  0  0  0  0
   16.1973  -18.1698   20.9745 C   0  0  0  0  0  0  0  0  0  0  0  0
   17.1980  -18.9190   20.1261 C   0  0  0  0  0  0  0  0  0  0  0  0
   18.5119  -18.4950   20.5086 N   0  0  0  0  0  0  0  0  0  0  0  0
   11.6576  -17.1622   22.2898 C   0  0  0  0  0  0  0  0  0  0  0  0
   11.6720  -15.8830   22.2794 O   0  0  0  0  0  0  0  0  0  0  0  0
    9.0255  -18.8858   25.1766 O   0  0  0  0  0  0  0  0  0  0  0  0
    8.8240  -17.6765   24.5069 C   0  0  0  0  0  0  0  0  0  0  0  0
   10.1593  -16.9602   24.3024 C   0  0  2  0  0  0  0  0  0  0  0  0
   10.8929  -17.7400   23.3297 N   0  0  0  0  0  0  0  0  0  0  0  0
   10.8801  -16.8200   25.5792 C   0  0  0  0  0  0  0  0  0  0  0  0
   11.8688  -17.5251   25.9171 O   0  0  0  0  0  0  0  0  0  0  0  0
   11.0430  -13.1779   27.7260 C   0  0  0  0  0  0  0  0  0  0  0  0
   10.4578  -14.3822   28.4073 C   0  0  1  0  0  0  0  0  0  0  0  0
    9.0652  -14.3799   28.3071 O   0  0  0  0  0  0  0  0  0  0  0  0
   11.0213  -15.6706   27.8217 C   0  0  2  0  0  0  0  0  0  0  0  0
   10.4399  -15.8315   26.4911 N   0  0  0  0  0  0  0  0  0  0  0  0
   10.5860  -16.7715   28.7186 C   0  0  0  0  0  0  0  0  0  0  0  0
   11.1867  -16.8422   29.9678 O   0  0  0  0  0  0  0  0  0  0  0  0
    9.7171  -17.5999   28.3674 O   0  0  0  0  0  0  0  0  0  0  0  0
  2  1  1  6
  3  4  1  0
  3  2  1  0
  5  4  1  0
  6  5  1  0
  7  6  1  0
  8 13  1  0
  8  2  1  0
  9  8  2  0
 11 10  1  0
 12 11  1  1
 12 14  1  0
 12 13  1  0
 14 15  2  0
 17 16  1  6
 17 19  1  0
 18 17  1  0
 19 21  1  0
 19 20  1  6
 20 14  1  0
 21 22  1  0
 23 21  2  0
M  END
$$$$
