KST.pdb
     RDKit          3D

 23 22  0  0  1  0  0  0  0  0999 V2000
   11.0739  -18.6594   18.0260 N   0  0  0  0  0  0  0  0  0  0  0  0
   11.6456  -19.2332   19.2711 C   0  0  1  0  0  0  0  0  0  0  0  0
   12.6584  -20.2155   18.7866 C   0  0  0  0  0  0  0  0  0  0  0  0
   12.3695  -20.9117   17.5092 C   0  0  0  0  0  0  0  0  0  0  0  0
   13.4946  -21.9541   17.3423 C   0  0  0  0  0  0  0  0  0  0  0  0
   13.3356  -22.6862   16.0304 C   0  0  0  0  0  0  0  0  0  0  0  0
   14.4148  -23.6202   15.9081 N   0  0  0  0  0  0  0  0  0  0  0  0
   12.3038  -18.1559   20.0515 C   0  0  0  0  0  0  0  0  0  0  0  0
   13.2366  -17.4489   19.5350 O   0  0  0  0  0  0  0  0  0  0  0  0
   11.1451  -17.3410   23.9201 O   0  0  0  0  0  0  0  0  0  0  0  0
   11.5999  -16.2676   23.1505 C   0  0  0  0  0  0  0  0  0  0  0  0
   12.6180  -16.7547   22.1189 C   0  0  2  0  0  0  0  0  0  0  0  0
   11.9731  -17.8215   21.3852 N   0  0  0  0  0  0  0  0  0  0  0  0
   13.8633  -17.1879   22.7753 C   0  0  0  0  0  0  0  0  0  0  0  0
   14.1464  -18.3876   23.0387 O   0  0  0  0  0  0  0  0  0  0  0  0
   18.2113  -15.4661   24.5208 C   0  0  0  0  0  0  0  0  0  0  0  0
   16.9577  -15.2916   23.7116 C   0  0  1  0  0  0  0  0  0  0  0  0
   17.2634  -15.0462   22.3715 O   0  0  0  0  0  0  0  0  0  0  0  0
   16.0571  -16.5148   23.8261 C   0  0  2  0  0  0  0  0  0  0  0  0
   14.8084  -16.1986   23.1366 N   0  0  0  0  0  0  0  0  0  0  0  0
   15.8136  -16.7296   25.2754 C   0  0  0  0  0  0  0  0  0  0  0  0
   16.7373  -17.5054   25.9620 O   0  0  0  0  0  0  0  0  0  0  0  0
   14.8216  -16.2351   25.8550 O   0  0  0  0  0  0  0  0  0  0  0  0
  2  1  1  6
  3  4  1  0
  3  2  1  0
  5  4  1  0
  6  5  1  0
  7  6  1  0
  8 13  1  0
  8  2  1  0
  9  8  2  0
 11 10  1  0
 12 11  1  1
 12 14  1  0
 12 13  1  0
 14 15  2  0
 17 16  1  1
 17 19  1  0
 18 17  1  0
 19 21  1  0
 19 20  1  6
 20 14  1  0
 21 22  1  0
 23 21  2  0
M  END
$$$$
