VSY.pdb
     RDKit          3D

 26 26  0  0  1  0  0  0  0  0999 V2000
   22.0800  -12.8453  -18.6544 C   0  0  0  0  0  0  0  0  0  0  0  0
   22.6024  -11.4214  -18.6555 C   0  0  2  0  0  0  0  0  0  0  0  0
   23.9365  -11.3312  -17.9748 C   0  0  0  0  0  0  0  0  0  0  0  0
   21.5915  -10.4410  -18.1119 C   0  0  2  0  0  0  0  0  0  0  0  0
   20.4129  -10.5328  -18.9491 N   0  0  0  0  0  0  0  0  0  0  0  0
   22.0809   -9.0632  -18.0832 C   0  0  0  0  0  0  0  0  0  0  0  0
   23.0602   -8.6688  -17.3968 O   0  0  0  0  0  0  0  0  0  0  0  0
   19.8436   -6.0628  -19.8934 O   0  0  0  0  0  0  0  0  0  0  0  0
   21.2127   -5.8854  -19.9612 C   0  0  0  0  0  0  0  0  0  0  0  0
   21.8765   -6.6934  -18.8801 C   0  0  2  0  0  0  0  0  0  0  0  0
   21.4377   -8.0702  -18.8674 N   0  0  0  0  0  0  0  0  0  0  0  0
   21.6627   -6.0134  -17.5917 C   0  0  0  0  0  0  0  0  0  0  0  0
   20.6784   -6.2201  -16.8373 O   0  0  0  0  0  0  0  0  0  0  0  0
   19.8872   -8.9003  -12.3031 O   0  0  0  0  0  0  0  0  0  0  0  0
   20.6673   -7.9500  -12.9136 C   0  0  0  0  0  0  0  0  0  0  0  0
   21.7658   -8.3375  -13.6582 C   0  0  0  0  0  0  0  0  0  0  0  0
   22.5679   -7.4050  -14.2829 C   0  0  0  0  0  0  0  0  0  0  0  0
   22.2780   -6.0774  -14.1677 C   0  0  0  0  0  0  0  0  0  0  0  0
   23.0978   -5.0298  -14.8023 C   0  0  0  0  0  0  0  0  0  0  0  0
   22.3836   -4.3118  -15.9228 C   0  0  2  0  0  0  0  0  0  0  0  0
   22.6274   -5.0616  -17.1676 N   0  0  0  0  0  0  0  0  0  0  0  0
   22.9303   -2.9405  -16.0387 C   0  0  0  0  0  0  0  0  0  0  0  0
   22.7039   -2.0459  -14.9907 O   0  0  0  0  0  0  0  0  0  0  0  0
   21.1815   -5.6862  -13.4249 C   0  0  0  0  0  0  0  0  0  0  0  0
   20.3636   -6.6155  -12.7895 C   0  0  0  0  0  0  0  0  0  0  0  0
   23.5845   -2.5362  -17.0232 O   0  0  0  0  0  0  0  0  0  0  0  0
  2  1  1  1
  2  3  1  0
  4  6  1  0
  4  2  1  0
  4  5  1  6
  6  7  2  0
  9  8  1  0
 10  9  1  6
 11  6  1  0
 11 10  1  0
 12 21  1  0
 12 10  1  0
 13 12  2  0
 15 14  1  0
 16 15  2  0
 17 16  1  0
 18 17  2  0
 18 24  1  0
 19 18  1  0
 20 22  1  0
 20 19  1  1
 20 21  1  0
 22 23  1  0
 24 25  2  0
 25 15  1  0
 26 22  2  0
M  END
$$$$
