VSY.pdb
     RDKit          3D

 26 26  0  0  1  0  0  0  0  0999 V2000
   20.7154  -18.3975  -17.5581 C   0  0  0  0  0  0  0  0  0  0  0  0
   21.3564  -17.0689  -17.2052 C   0  0  2  0  0  0  0  0  0  0  0  0
   21.0077  -16.0126  -18.2122 C   0  0  0  0  0  0  0  0  0  0  0  0
   22.8418  -17.1957  -16.9683 C   0  0  2  0  0  0  0  0  0  0  0  0
   23.4625  -17.4277  -18.2564 N   0  0  0  0  0  0  0  0  0  0  0  0
   23.1889  -18.2731  -16.0423 C   0  0  0  0  0  0  0  0  0  0  0  0
   22.8558  -18.3045  -14.8283 O   0  0  0  0  0  0  0  0  0  0  0  0
   25.7877  -21.4125  -17.2449 O   0  0  0  0  0  0  0  0  0  0  0  0
   24.7690  -21.6872  -16.3519 C   0  0  0  0  0  0  0  0  0  0  0  0
   24.3965  -20.4300  -15.6151 C   0  0  2  0  0  0  0  0  0  0  0  0
   23.9524  -19.3782  -16.5011 N   0  0  0  0  0  0  0  0  0  0  0  0
   25.5365  -20.0264  -14.7751 C   0  0  0  0  0  0  0  0  0  0  0  0
   26.3585  -19.1263  -15.0828 O   0  0  0  0  0  0  0  0  0  0  0  0
   22.2946  -20.9474   -8.3702 O   0  0  0  0  0  0  0  0  0  0  0  0
   23.3240  -20.5444   -9.1838 C   0  0  0  0  0  0  0  0  0  0  0  0
   23.0594  -20.1483  -10.4817 C   0  0  0  0  0  0  0  0  0  0  0  0
   24.0737  -19.7383  -11.3222 C   0  0  0  0  0  0  0  0  0  0  0  0
   25.3608  -19.7214  -10.8716 C   0  0  0  0  0  0  0  0  0  0  0  0
   26.4912  -19.3028  -11.7196 C   0  0  0  0  0  0  0  0  0  0  0  0
   26.9057  -20.3545  -12.7212 C   0  0  2  0  0  0  0  0  0  0  0  0
   25.7251  -20.6929  -13.5355 N   0  0  0  0  0  0  0  0  0  0  0  0
   27.3808  -21.5516  -11.9907 C   0  0  0  0  0  0  0  0  0  0  0  0
   26.6368  -22.7288  -12.0923 O   0  0  0  0  0  0  0  0  0  0  0  0
   25.6292  -20.1162   -9.5758 C   0  0  0  0  0  0  0  0  0  0  0  0
   24.6165  -20.5319   -8.7168 C   0  0  0  0  0  0  0  0  0  0  0  0
   28.4124  -21.5694  -11.2861 O   0  0  0  0  0  0  0  0  0  0  0  0
  2  1  1  6
  2  3  1  0
  4  6  1  0
  4  2  1  0
  4  5  1  6
  6  7  2  0
  9  8  1  0
 10  9  1  6
 11  6  1  0
 11 10  1  0
 12 21  1  0
 12 10  1  0
 13 12  2  0
 15 14  1  0
 16 15  2  0
 17 16  1  0
 18 17  2  0
 18 24  1  0
 19 18  1  0
 20 22  1  0
 20 19  1  1
 20 21  1  0
 22 23  1  0
 24 25  2  0
 25 15  1  0
 26 22  2  0
M  END
$$$$
