VSY.pdb
     RDKit          3D

 26 26  0  0  1  0  0  0  0  0999 V2000
   28.1028  -10.2520  -17.3483 C   0  0  0  0  0  0  0  0  0  0  0  0
   27.4249  -10.9357  -16.1763 C   0  0  2  0  0  0  0  0  0  0  0  0
   27.8838  -12.3575  -16.0368 C   0  0  0  0  0  0  0  0  0  0  0  0
   25.9225  -10.7992  -16.2256 C   0  0  2  0  0  0  0  0  0  0  0  0
   25.4655  -11.5179  -17.3975 N   0  0  0  0  0  0  0  0  0  0  0  0
   25.4704   -9.4095  -16.2810 C   0  0  0  0  0  0  0  0  0  0  0  0
   25.6561   -8.5627  -15.3677 O   0  0  0  0  0  0  0  0  0  0  0  0
   22.7293   -8.3197  -19.2383 O   0  0  0  0  0  0  0  0  0  0  0  0
   23.5732   -7.3111  -18.8129 C   0  0  0  0  0  0  0  0  0  0  0  0
   24.1160   -7.6528  -17.4525 C   0  0  2  0  0  0  0  0  0  0  0  0
   24.7707   -8.9408  -17.4235 N   0  0  0  0  0  0  0  0  0  0  0  0
   23.0217   -7.5456  -16.4732 C   0  0  0  0  0  0  0  0  0  0  0  0
   22.3709   -8.5254  -16.0293 O   0  0  0  0  0  0  0  0  0  0  0  0
   18.1231   -6.0422   -9.6876 O   0  0  0  0  0  0  0  0  0  0  0  0
   19.0914   -6.1259  -10.6568 C   0  0  0  0  0  0  0  0  0  0  0  0
   19.6358   -4.9704  -11.1860 C   0  0  0  0  0  0  0  0  0  0  0  0
   20.6103   -5.0237  -12.1610 C   0  0  0  0  0  0  0  0  0  0  0  0
   21.0481   -6.2329  -12.6148 C   0  0  0  0  0  0  0  0  0  0  0  0
   22.0797   -6.3603  -13.6597 C   0  0  0  0  0  0  0  0  0  0  0  0
   21.5474   -6.1271  -15.0538 C   0  0  2  0  0  0  0  0  0  0  0  0
   22.6741   -6.2546  -15.9947 N   0  0  0  0  0  0  0  0  0  0  0  0
   20.9747   -4.7636  -15.1264 C   0  0  0  0  0  0  0  0  0  0  0  0
   19.6034   -4.6083  -14.9136 O   0  0  0  0  0  0  0  0  0  0  0  0
   20.5070   -7.3894  -12.0888 C   0  0  0  0  0  0  0  0  0  0  0  0
   19.5237   -7.3510  -11.1049 C   0  0  0  0  0  0  0  0  0  0  0  0
   21.6497   -3.7403  -15.3680 O   0  0  0  0  0  0  0  0  0  0  0  0
  2  1  1  6
  2  3  1  0
  4  6  1  0
  4  2  1  0
  4  5  1  6
  6  7  2  0
  9  8  1  0
 10  9  1  6
 11  6  1  0
 11 10  1  0
 12 21  1  0
 12 10  1  0
 13 12  2  0
 15 14  1  0
 16 15  2  0
 17 16  1  0
 18 17  2  0
 18 24  1  0
 19 18  1  0
 20 22  1  0
 20 19  1  1
 20 21  1  0
 22 23  1  0
 24 25  2  0
 25 15  1  0
 26 22  2  0
M  END
$$$$
