VSY.pdb
     RDKit          3D

 26 26  0  0  1  0  0  0  0  0999 V2000
   18.5345  -10.6337  -21.4642 C   0  0  0  0  0  0  0  0  0  0  0  0
   18.6186  -10.0056  -20.0862 C   0  0  2  0  0  0  0  0  0  0  0  0
   19.2020   -8.6247  -20.1529 C   0  0  0  0  0  0  0  0  0  0  0  0
   19.3206  -10.8989  -19.0924 C   0  0  2  0  0  0  0  0  0  0  0  0
   18.5835  -12.1449  -19.0416 N   0  0  0  0  0  0  0  0  0  0  0  0
   19.4120  -10.3147  -17.7548 C   0  0  0  0  0  0  0  0  0  0  0  0
   18.4346  -10.1607  -16.9760 O   0  0  0  0  0  0  0  0  0  0  0  0
   22.9849  -10.2131  -15.7109 O   0  0  0  0  0  0  0  0  0  0  0  0
   21.7635  -10.0924  -15.0752 C   0  0  0  0  0  0  0  0  0  0  0  0
   20.8227   -9.3033  -15.9437 C   0  0  2  0  0  0  0  0  0  0  0  0
   20.6690   -9.8781  -17.2607 N   0  0  0  0  0  0  0  0  0  0  0  0
   21.2834   -7.9053  -15.9804 C   0  0  0  0  0  0  0  0  0  0  0  0
   21.9033   -7.3897  -16.9450 O   0  0  0  0  0  0  0  0  0  0  0  0
   18.2676   -4.3192  -20.0829 O   0  0  0  0  0  0  0  0  0  0  0  0
   18.8027   -4.4185  -18.8228 C   0  0  0  0  0  0  0  0  0  0  0  0
   18.3692   -5.4155  -17.9687 C   0  0  0  0  0  0  0  0  0  0  0  0
   18.8888   -5.5396  -16.6967 C   0  0  0  0  0  0  0  0  0  0  0  0
   19.8460   -4.6676  -16.2686 C   0  0  0  0  0  0  0  0  0  0  0  0
   20.4364   -4.7394  -14.9201 C   0  0  0  0  0  0  0  0  0  0  0  0
   21.5801   -5.7209  -14.8223 C   0  0  2  0  0  0  0  0  0  0  0  0
   21.0128   -7.0804  -14.8566 N   0  0  0  0  0  0  0  0  0  0  0  0
   22.2943   -5.4991  -13.5443 C   0  0  0  0  0  0  0  0  0  0  0  0
   22.2718   -6.5156  -12.5872 O   0  0  0  0  0  0  0  0  0  0  0  0
   20.2818   -3.6705  -17.1187 C   0  0  0  0  0  0  0  0  0  0  0  0
   19.7670   -3.5332  -18.4042 C   0  0  0  0  0  0  0  0  0  0  0  0
   22.9180   -4.4514  -13.2717 O   0  0  0  0  0  0  0  0  0  0  0  0
  2  1  1  6
  2  3  1  0
  4  6  1  0
  4  2  1  0
  4  5  1  1
  6  7  2  0
  9  8  1  0
 10  9  1  1
 11  6  1  0
 11 10  1  0
 12 21  1  0
 12 10  1  0
 13 12  2  0
 15 14  1  0
 16 15  2  0
 17 16  1  0
 18 17  2  0
 18 24  1  0
 19 18  1  0
 20 22  1  0
 20 19  1  1
 20 21  1  0
 22 23  1  0
 24 25  2  0
 25 15  1  0
 26 22  2  0
M  END
$$$$
