VSY.pdb
     RDKit          3D

 26 26  0  0  1  0  0  0  0  0999 V2000
   14.2210  -14.7963  -17.6402 C   0  0  0  0  0  0  0  0  0  0  0  0
   15.4213  -15.3902  -16.9282 C   0  0  2  0  0  0  0  0  0  0  0  0
   15.0868  -16.7173  -16.3132 C   0  0  0  0  0  0  0  0  0  0  0  0
   16.0425  -14.4226  -15.9502 C   0  0  2  0  0  0  0  0  0  0  0  0
   15.1199  -14.2823  -14.8423 N   0  0  0  0  0  0  0  0  0  0  0  0
   16.3272  -13.1129  -16.5354 C   0  0  0  0  0  0  0  0  0  0  0  0
   17.1452  -12.9133  -17.4718 O   0  0  0  0  0  0  0  0  0  0  0  0
   13.8361   -9.8690  -15.7643 O   0  0  0  0  0  0  0  0  0  0  0  0
   14.6490   -9.8873  -16.8821 C   0  0  0  0  0  0  0  0  0  0  0  0
   15.9137  -10.6389  -16.5693 C   0  0  2  0  0  0  0  0  0  0  0  0
   15.6584  -11.9612  -16.0449 N   0  0  0  0  0  0  0  0  0  0  0  0
   16.7349   -9.8149  -15.6668 C   0  0  0  0  0  0  0  0  0  0  0  0
   16.8617  -10.0268  -14.4341 O   0  0  0  0  0  0  0  0  0  0  0  0
   22.9829   -4.4380  -12.8494 O   0  0  0  0  0  0  0  0  0  0  0  0
   22.1688   -5.3182  -13.5177 C   0  0  0  0  0  0  0  0  0  0  0  0
   21.9314   -6.5729  -12.9876 C   0  0  0  0  0  0  0  0  0  0  0  0
   21.1178   -7.4783  -13.6368 C   0  0  0  0  0  0  0  0  0  0  0  0
   20.5352   -7.1363  -14.8215 C   0  0  0  0  0  0  0  0  0  0  0  0
   19.6626   -8.0585  -15.5700 C   0  0  0  0  0  0  0  0  0  0  0  0
   18.1922   -7.8268  -15.3141 C   0  0  2  0  0  0  0  0  0  0  0  0
   17.4320   -8.7074  -16.2184 N   0  0  0  0  0  0  0  0  0  0  0  0
   17.8740   -6.4087  -15.5976 C   0  0  0  0  0  0  0  0  0  0  0  0
   17.8732   -5.5040  -14.5339 O   0  0  0  0  0  0  0  0  0  0  0  0
   20.7696   -5.8841  -15.3543 C   0  0  0  0  0  0  0  0  0  0  0  0
   21.5877   -4.9606  -14.7106 C   0  0  0  0  0  0  0  0  0  0  0  0
   17.6052   -5.9731  -16.7373 O   0  0  0  0  0  0  0  0  0  0  0  0
  2  1  1  1
  2  3  1  0
  4  6  1  0
  4  2  1  0
  4  5  1  1
  6  7  2  0
  9  8  1  0
 10  9  1  1
 11  6  1  0
 11 10  1  0
 12 21  1  0
 12 10  1  0
 13 12  2  0
 15 14  1  0
 16 15  2  0
 17 16  1  0
 18 17  2  0
 18 24  1  0
 19 18  1  0
 20 22  1  0
 20 19  1  6
 20 21  1  0
 22 23  1  0
 24 25  2  0
 25 15  1  0
 26 22  2  0
M  END
$$$$
