VSY.pdb
     RDKit          3D

 26 26  0  0  1  0  0  0  0  0999 V2000
   27.9958   -8.8583  -18.2633 C   0  0  0  0  0  0  0  0  0  0  0  0
   28.4899  -10.1948  -17.7436 C   0  0  2  0  0  0  0  0  0  0  0  0
   29.9606  -10.3634  -17.9886 C   0  0  0  0  0  0  0  0  0  0  0  0
   27.6661  -11.3493  -18.2605 C   0  0  2  0  0  0  0  0  0  0  0  0
   28.0381  -11.5544  -19.6455 N   0  0  0  0  0  0  0  0  0  0  0  0
   26.2251  -11.1229  -18.1559 C   0  0  0  0  0  0  0  0  0  0  0  0
   25.5399  -10.4898  -19.0017 O   0  0  0  0  0  0  0  0  0  0  0  0
   24.0604  -12.6770  -14.8775 O   0  0  0  0  0  0  0  0  0  0  0  0
   23.4224  -12.5055  -16.0915 C   0  0  0  0  0  0  0  0  0  0  0  0
   24.0956  -11.4013  -16.8594 C   0  0  2  0  0  0  0  0  0  0  0  0
   25.5103  -11.6342  -17.0414 N   0  0  0  0  0  0  0  0  0  0  0  0
   23.8086  -10.1232  -16.1869 C   0  0  0  0  0  0  0  0  0  0  0  0
   24.6867   -9.3689  -15.6964 O   0  0  0  0  0  0  0  0  0  0  0  0
   21.4189   -2.0867  -14.9246 O   0  0  0  0  0  0  0  0  0  0  0  0
   21.7704   -3.3713  -15.2571 C   0  0  0  0  0  0  0  0  0  0  0  0
   22.4372   -4.1608  -14.3387 C   0  0  0  0  0  0  0  0  0  0  0  0
   22.8031   -5.4553  -14.6448 C   0  0  0  0  0  0  0  0  0  0  0  0
   22.5053   -5.9705  -15.8718 C   0  0  0  0  0  0  0  0  0  0  0  0
   22.8744   -7.3419  -16.2657 C   0  0  0  0  0  0  0  0  0  0  0  0
   22.1569   -8.4044  -15.4672 C   0  0  2  0  0  0  0  0  0  0  0  0
   22.4541   -9.7098  -16.0827 N   0  0  0  0  0  0  0  0  0  0  0  0
   20.7010   -8.1384  -15.5148 C   0  0  0  0  0  0  0  0  0  0  0  0
   20.1121   -7.4784  -14.4343 O   0  0  0  0  0  0  0  0  0  0  0  0
   21.8392   -5.1852  -16.7919 C   0  0  0  0  0  0  0  0  0  0  0  0
   21.4638   -3.8781  -16.4971 C   0  0  0  0  0  0  0  0  0  0  0  0
   19.9664   -8.4714  -16.4689 O   0  0  0  0  0  0  0  0  0  0  0  0
  2  1  1  6
  2  3  1  0
  4  6  1  0
  4  2  1  0
  4  5  1  6
  6  7  2  0
  9  8  1  0
 10  9  1  1
 11  6  1  0
 11 10  1  0
 12 21  1  0
 12 10  1  0
 13 12  2  0
 15 14  1  0
 16 15  2  0
 17 16  1  0
 18 17  2  0
 18 24  1  0
 19 18  1  0
 20 22  1  0
 20 19  1  6
 20 21  1  0
 22 23  1  0
 24 25  2  0
 25 15  1  0
 26 22  2  0
M  END
$$$$
