VSY.pdb
     RDKit          3D

 26 26  0  0  1  0  0  0  0  0999 V2000
   18.6756   -4.9096  -23.5184 C   0  0  0  0  0  0  0  0  0  0  0  0
   18.9758   -5.4619  -22.1381 C   0  0  2  0  0  0  0  0  0  0  0  0
   17.7171   -5.8685  -21.4297 C   0  0  0  0  0  0  0  0  0  0  0  0
   19.8397   -4.5291  -21.3244 C   0  0  2  0  0  0  0  0  0  0  0  0
   21.1272   -4.4534  -21.9839 N   0  0  0  0  0  0  0  0  0  0  0  0
   20.0104   -4.9621  -19.9380 C   0  0  0  0  0  0  0  0  0  0  0  0
   20.7593   -5.9065  -19.5733 O   0  0  0  0  0  0  0  0  0  0  0  0
   17.5630   -3.3738  -16.8790 O   0  0  0  0  0  0  0  0  0  0  0  0
   18.8764   -3.6711  -16.5676 C   0  0  0  0  0  0  0  0  0  0  0  0
   19.3926   -4.7153  -17.5192 C   0  0  2  0  0  0  0  0  0  0  0  0
   19.3027   -4.3005  -18.9007 N   0  0  0  0  0  0  0  0  0  0  0  0
   18.6841   -5.9786  -17.2545 C   0  0  0  0  0  0  0  0  0  0  0  0
   17.7503   -6.4287  -17.9659 O   0  0  0  0  0  0  0  0  0  0  0  0
   16.9110  -14.2014  -15.4589 O   0  0  0  0  0  0  0  0  0  0  0  0
   17.4629  -12.9648  -15.6826 C   0  0  0  0  0  0  0  0  0  0  0  0
   16.7770  -12.0327  -16.4392 C   0  0  0  0  0  0  0  0  0  0  0  0
   17.3068  -10.7820  -16.6806 C   0  0  0  0  0  0  0  0  0  0  0  0
   18.5269  -10.4534  -16.1676 C   0  0  0  0  0  0  0  0  0  0  0  0
   19.1532   -9.1387  -16.3944 C   0  0  0  0  0  0  0  0  0  0  0  0
   18.3519   -7.9914  -15.8265 C   0  0  2  0  0  0  0  0  0  0  0  0
   19.0765   -6.7433  -16.1241 N   0  0  0  0  0  0  0  0  0  0  0  0
   18.2280   -8.1717  -14.3620 C   0  0  0  0  0  0  0  0  0  0  0  0
   17.2028   -8.9875  -13.8790 O   0  0  0  0  0  0  0  0  0  0  0  0
   19.2152  -11.3815  -15.4113 C   0  0  0  0  0  0  0  0  0  0  0  0
   18.6933  -12.6466  -15.1595 C   0  0  0  0  0  0  0  0  0  0  0  0
   18.9902   -7.6344  -13.5306 O   0  0  0  0  0  0  0  0  0  0  0  0
  2  1  1  6
  2  3  1  0
  4  6  1  0
  4  2  1  0
  4  5  1  6
  6  7  2  0
  9  8  1  0
 10  9  1  1
 11  6  1  0
 11 10  1  0
 12 21  1  0
 12 10  1  0
 13 12  2  0
 15 14  1  0
 16 15  2  0
 17 16  1  0
 18 17  2  0
 18 24  1  0
 19 18  1  0
 20 22  1  0
 20 19  1  1
 20 21  1  0
 22 23  1  0
 24 25  2  0
 25 15  1  0
 26 22  2  0
M  END
$$$$
