VSY.pdb
     RDKit          3D

 26 26  0  0  1  0  0  0  0  0999 V2000
   13.2169  -14.0220  -17.4099 C   0  0  0  0  0  0  0  0  0  0  0  0
   14.4199  -14.1825  -18.3196 C   0  0  2  0  0  0  0  0  0  0  0  0
   14.7801  -15.6285  -18.4946 C   0  0  0  0  0  0  0  0  0  0  0  0
   15.5857  -13.3294  -17.8818 C   0  0  2  0  0  0  0  0  0  0  0  0
   16.1326  -13.9338  -16.6843 N   0  0  0  0  0  0  0  0  0  0  0  0
   15.2170  -11.9388  -17.6189 C   0  0  0  0  0  0  0  0  0  0  0  0
   14.7522  -11.1492  -18.4827 O   0  0  0  0  0  0  0  0  0  0  0  0
   14.1416  -10.5099  -13.9309 O   0  0  0  0  0  0  0  0  0  0  0  0
   13.9325   -9.8244  -15.1129 C   0  0  0  0  0  0  0  0  0  0  0  0
   15.1202  -10.0110  -16.0167 C   0  0  2  0  0  0  0  0  0  0  0  0
   15.3777  -11.4014  -16.3151 N   0  0  0  0  0  0  0  0  0  0  0  0
   16.2782   -9.3323  -15.4115 C   0  0  0  0  0  0  0  0  0  0  0  0
   17.2935   -9.9257  -14.9672 O   0  0  0  0  0  0  0  0  0  0  0  0
   22.8973   -4.2256  -13.6885 O   0  0  0  0  0  0  0  0  0  0  0  0
   21.8376   -4.9717  -14.1407 C   0  0  0  0  0  0  0  0  0  0  0  0
   21.7319   -6.3028  -13.7824 C   0  0  0  0  0  0  0  0  0  0  0  0
   20.6780   -7.0772  -14.2216 C   0  0  0  0  0  0  0  0  0  0  0  0
   19.7216   -6.5267  -15.0229 C   0  0  0  0  0  0  0  0  0  0  0  0
   18.5752   -7.2997  -15.5333 C   0  0  0  0  0  0  0  0  0  0  0  0
   17.3624   -7.2290  -14.6359 C   0  0  2  0  0  0  0  0  0  0  0  0
   16.2530   -7.9153  -15.3210 N   0  0  0  0  0  0  0  0  0  0  0  0
   17.0179   -5.8073  -14.4065 C   0  0  0  0  0  0  0  0  0  0  0  0
   17.5420   -5.1718  -13.2790 O   0  0  0  0  0  0  0  0  0  0  0  0
   19.8235   -5.1975  -15.3829 C   0  0  0  0  0  0  0  0  0  0  0  0
   20.8806   -4.4043  -14.9474 C   0  0  0  0  0  0  0  0  0  0  0  0
   16.2830   -5.1410  -15.1660 O   0  0  0  0  0  0  0  0  0  0  0  0
  2  1  1  1
  2  3  1  0
  4  6  1  0
  4  2  1  0
  4  5  1  1
  6  7  2  0
  9  8  1  0
 10  9  1  1
 11  6  1  0
 11 10  1  0
 12 21  1  0
 12 10  1  0
 13 12  2  0
 15 14  1  0
 16 15  2  0
 17 16  1  0
 18 17  2  0
 18 24  1  0
 19 18  1  0
 20 22  1  0
 20 19  1  6
 20 21  1  0
 22 23  1  0
 24 25  2  0
 25 15  1  0
 26 22  2  0
M  END
$$$$
