VSY.pdb
     RDKit          3D

 26 26  0  0  1  0  0  0  0  0999 V2000
   23.3000  -14.2157  -17.4217 C   0  0  0  0  0  0  0  0  0  0  0  0
   24.6847  -13.5977  -17.4540 C   0  0  2  0  0  0  0  0  0  0  0  0
   25.7288  -14.5799  -17.0107 C   0  0  0  0  0  0  0  0  0  0  0  0
   24.7446  -12.2891  -16.7039 C   0  0  2  0  0  0  0  0  0  0  0  0
   24.6165  -12.5974  -15.2943 N   0  0  0  0  0  0  0  0  0  0  0  0
   23.7042  -11.3440  -17.1077 C   0  0  0  0  0  0  0  0  0  0  0  0
   23.6000  -10.8485  -18.2607 O   0  0  0  0  0  0  0  0  0  0  0  0
   20.1670  -11.1702  -15.1014 O   0  0  0  0  0  0  0  0  0  0  0  0
   20.2970  -10.6361  -16.3696 C   0  0  0  0  0  0  0  0  0  0  0  0
   21.6598  -10.0166  -16.5148 C   0  0  2  0  0  0  0  0  0  0  0  0
   22.7246  -10.9300  -16.1677 N   0  0  0  0  0  0  0  0  0  0  0  0
   21.6935   -8.7734  -15.7265 C   0  0  0  0  0  0  0  0  0  0  0  0
   22.0171   -8.7134  -14.5132 O   0  0  0  0  0  0  0  0  0  0  0  0
   20.9147   -0.1492  -14.0581 O   0  0  0  0  0  0  0  0  0  0  0  0
   21.1221   -1.3815  -14.6259 C   0  0  0  0  0  0  0  0  0  0  0  0
   22.2147   -2.1384  -14.2455 C   0  0  0  0  0  0  0  0  0  0  0  0
   22.4485   -3.3804  -14.7989 C   0  0  0  0  0  0  0  0  0  0  0  0
   21.5917   -3.8752  -15.7374 C   0  0  0  0  0  0  0  0  0  0  0  0
   21.7877   -5.1900  -16.3738 C   0  0  0  0  0  0  0  0  0  0  0  0
   21.2234   -6.3335  -15.5643 C   0  0  2  0  0  0  0  0  0  0  0  0
   21.3390   -7.5597  -16.3730 N   0  0  0  0  0  0  0  0  0  0  0  0
   19.8006   -6.0528  -15.2653 C   0  0  0  0  0  0  0  0  0  0  0  0
   18.8349   -6.4749  -16.1813 O   0  0  0  0  0  0  0  0  0  0  0  0
   20.4991   -3.1224  -16.1200 C   0  0  0  0  0  0  0  0  0  0  0  0
   20.2506   -1.8684  -15.5704 C   0  0  0  0  0  0  0  0  0  0  0  0
   19.4126   -5.4581  -14.2373 O   0  0  0  0  0  0  0  0  0  0  0  0
  2  1  1  1
  2  3  1  0
  4  6  1  0
  4  2  1  0
  4  5  1  1
  6  7  2  0
  9  8  1  0
 10  9  1  1
 11  6  1  0
 11 10  1  0
 12 21  1  0
 12 10  1  0
 13 12  2  0
 15 14  1  0
 16 15  2  0
 17 16  1  0
 18 17  2  0
 18 24  1  0
 19 18  1  0
 20 22  1  0
 20 19  1  6
 20 21  1  0
 22 23  1  0
 24 25  2  0
 25 15  1  0
 26 22  2  0
M  END
$$$$
