VSY.pdb
     RDKit          3D

 26 26  0  0  1  0  0  0  0  0999 V2000
   24.1475  -13.8733  -15.4262 C   0  0  0  0  0  0  0  0  0  0  0  0
   22.9886  -14.4893  -16.1863 C   0  0  2  0  0  0  0  0  0  0  0  0
   23.0936  -15.9857  -16.2184 C   0  0  0  0  0  0  0  0  0  0  0  0
   22.8126  -13.8774  -17.5549 C   0  0  2  0  0  0  0  0  0  0  0  0
   23.9555  -14.2743  -18.3516 N   0  0  0  0  0  0  0  0  0  0  0  0
   22.7030  -12.4193  -17.5258 C   0  0  0  0  0  0  0  0  0  0  0  0
   23.6606  -11.6283  -17.7331 O   0  0  0  0  0  0  0  0  0  0  0  0
   18.9896  -10.4883  -17.7632 O   0  0  0  0  0  0  0  0  0  0  0  0
   20.1864   -9.9035  -18.1323 C   0  0  0  0  0  0  0  0  0  0  0  0
   21.2795  -10.3774  -17.2142 C   0  0  2  0  0  0  0  0  0  0  0  0
   21.4503  -11.8120  -17.2487 N   0  0  0  0  0  0  0  0  0  0  0  0
   21.0057   -9.8668  -15.8606 C   0  0  0  0  0  0  0  0  0  0  0  0
   20.4921  -10.5485  -14.9376 O   0  0  0  0  0  0  0  0  0  0  0  0
   25.1038   -3.8107  -16.8325 O   0  0  0  0  0  0  0  0  0  0  0  0
   24.4386   -4.7245  -16.0538 C   0  0  0  0  0  0  0  0  0  0  0  0
   23.5118   -4.2901  -15.1244 C   0  0  0  0  0  0  0  0  0  0  0  0
   22.8281   -5.1854  -14.3280 C   0  0  0  0  0  0  0  0  0  0  0  0
   23.0659   -6.5223  -14.4546 C   0  0  0  0  0  0  0  0  0  0  0  0
   22.3765   -7.5308  -13.6299 C   0  0  0  0  0  0  0  0  0  0  0  0
   21.0664   -7.9911  -14.2238 C   0  0  2  0  0  0  0  0  0  0  0  0
   21.3418   -8.5175  -15.5722 N   0  0  0  0  0  0  0  0  0  0  0  0
   20.1450   -6.8349  -14.3067 C   0  0  0  0  0  0  0  0  0  0  0  0
   19.6304   -6.3109  -13.1191 O   0  0  0  0  0  0  0  0  0  0  0  0
   23.9907   -6.9603  -15.3818 C   0  0  0  0  0  0  0  0  0  0  0  0
   24.6876   -6.0690  -16.1918 C   0  0  0  0  0  0  0  0  0  0  0  0
   19.8001   -6.2992  -15.3814 O   0  0  0  0  0  0  0  0  0  0  0  0
  2  1  1  6
  2  3  1  0
  4  6  1  0
  4  2  1  0
  4  5  1  6
  6  7  2  0
  9  8  1  0
 10  9  1  6
 11  6  1  0
 11 10  1  0
 12 21  1  0
 12 10  1  0
 13 12  2  0
 15 14  1  0
 16 15  2  0
 17 16  1  0
 18 17  2  0
 18 24  1  0
 19 18  1  0
 20 22  1  0
 20 19  1  6
 20 21  1  0
 22 23  1  0
 24 25  2  0
 25 15  1  0
 26 22  2  0
M  END
$$$$
