VSY.pdb
     RDKit          3D

 26 26  0  0  1  0  0  0  0  0999 V2000
   19.3434  -14.2293  -18.4558 C   0  0  0  0  0  0  0  0  0  0  0  0
   18.9534  -12.7636  -18.4458 C   0  0  2  0  0  0  0  0  0  0  0  0
   17.9810  -12.4523  -19.5453 C   0  0  0  0  0  0  0  0  0  0  0  0
   20.1564  -11.8518  -18.4418 C   0  0  2  0  0  0  0  0  0  0  0  0
   21.3327  -12.6952  -18.3851 N   0  0  0  0  0  0  0  0  0  0  0  0
   20.1614  -10.9074  -17.3252 C   0  0  0  0  0  0  0  0  0  0  0  0
   19.2445  -10.0769  -17.0900 O   0  0  0  0  0  0  0  0  0  0  0  0
   23.5317  -10.5235  -14.6849 O   0  0  0  0  0  0  0  0  0  0  0  0
   22.2340  -10.4324  -14.2177 C   0  0  0  0  0  0  0  0  0  0  0  0
   21.3359   -9.9525  -15.3247 C   0  0  2  0  0  0  0  0  0  0  0  0
   21.2548  -10.8916  -16.4202 N   0  0  0  0  0  0  0  0  0  0  0  0
   21.7903   -8.6177  -15.7485 C   0  0  0  0  0  0  0  0  0  0  0  0
   22.3927   -8.3847  -16.8271 O   0  0  0  0  0  0  0  0  0  0  0  0
   22.2590   -0.5708  -18.3231 O   0  0  0  0  0  0  0  0  0  0  0  0
   21.9885   -1.8398  -17.8754 C   0  0  0  0  0  0  0  0  0  0  0  0
   22.7753   -2.8977  -18.2919 C   0  0  0  0  0  0  0  0  0  0  0  0
   22.5274   -4.1838  -17.8586 C   0  0  0  0  0  0  0  0  0  0  0  0
   21.4905   -4.4223  -17.0055 C   0  0  0  0  0  0  0  0  0  0  0  0
   21.1662   -5.7725  -16.5113 C   0  0  0  0  0  0  0  0  0  0  0  0
   21.9774   -6.1750  -15.3026 C   0  0  2  0  0  0  0  0  0  0  0  0
   21.5342   -7.5176  -14.8878 N   0  0  0  0  0  0  0  0  0  0  0  0
   21.7339   -5.1996  -14.2154 C   0  0  0  0  0  0  0  0  0  0  0  0
   22.6392   -4.1489  -14.0524 O   0  0  0  0  0  0  0  0  0  0  0  0
   20.7023   -3.3684  -16.5870 C   0  0  0  0  0  0  0  0  0  0  0  0
   20.9406   -2.0662  -17.0157 C   0  0  0  0  0  0  0  0  0  0  0  0
   20.7622   -5.2625  -13.4327 O   0  0  0  0  0  0  0  0  0  0  0  0
  2  1  1  6
  2  3  1  0
  4  6  1  0
  4  2  1  0
  4  5  1  1
  6  7  2  0
  9  8  1  0
 10  9  1  1
 11  6  1  0
 11 10  1  0
 12 21  1  0
 12 10  1  0
 13 12  2  0
 15 14  1  0
 16 15  2  0
 17 16  1  0
 18 17  2  0
 18 24  1  0
 19 18  1  0
 20 22  1  0
 20 19  1  6
 20 21  1  0
 22 23  1  0
 24 25  2  0
 25 15  1  0
 26 22  2  0
M  END
$$$$
