VSY.pdb
     RDKit          3D

 26 26  0  0  1  0  0  0  0  0999 V2000
   19.4208  -15.5884  -13.9589 C   0  0  0  0  0  0  0  0  0  0  0  0
   18.8587  -16.2400  -15.2078 C   0  0  2  0  0  0  0  0  0  0  0  0
   17.9944  -17.4176  -14.8646 C   0  0  0  0  0  0  0  0  0  0  0  0
   19.9338  -16.5668  -16.2157 C   0  0  2  0  0  0  0  0  0  0  0  0
   20.6639  -17.7101  -15.7075 N   0  0  0  0  0  0  0  0  0  0  0  0
   20.8510  -15.4548  -16.4626 C   0  0  0  0  0  0  0  0  0  0  0  0
   21.9370  -15.2773  -15.8505 O   0  0  0  0  0  0  0  0  0  0  0  0
   20.1266  -12.6318  -19.5759 O   0  0  0  0  0  0  0  0  0  0  0  0
   21.4047  -12.9686  -19.1715 C   0  0  0  0  0  0  0  0  0  0  0  0
   21.3856  -13.3488  -17.7164 C   0  0  2  0  0  0  0  0  0  0  0  0
   20.5347  -14.4863  -17.4509 N   0  0  0  0  0  0  0  0  0  0  0  0
   21.0145  -12.1613  -16.9288 C   0  0  0  0  0  0  0  0  0  0  0  0
   19.9228  -12.0292  -16.3194 O   0  0  0  0  0  0  0  0  0  0  0  0
   21.9423   -4.1276  -13.4195 O   0  0  0  0  0  0  0  0  0  0  0  0
   22.1486   -5.3875  -13.9236 C   0  0  0  0  0  0  0  0  0  0  0  0
   22.5866   -5.5434  -15.2257 C   0  0  0  0  0  0  0  0  0  0  0  0
   22.8025   -6.7972  -15.7593 C   0  0  0  0  0  0  0  0  0  0  0  0
   22.5819   -7.9050  -14.9952 C   0  0  0  0  0  0  0  0  0  0  0  0
   22.7849   -9.2725  -15.5060 C   0  0  0  0  0  0  0  0  0  0  0  0
   21.5493   -9.8582  -16.1474 C   0  0  2  0  0  0  0  0  0  0  0  0
   21.9459  -11.0924  -16.8480 N   0  0  0  0  0  0  0  0  0  0  0  0
   21.0000   -8.8787  -17.1125 C   0  0  0  0  0  0  0  0  0  0  0  0
   19.9716   -8.0350  -16.6878 O   0  0  0  0  0  0  0  0  0  0  0  0
   22.1445   -7.7535  -13.6942 C   0  0  0  0  0  0  0  0  0  0  0  0
   21.9226   -6.4954  -13.1426 C   0  0  0  0  0  0  0  0  0  0  0  0
   21.4046   -8.7630  -18.2888 O   0  0  0  0  0  0  0  0  0  0  0  0
  2  1  1  1
  2  3  1  0
  4  6  1  0
  4  2  1  0
  4  5  1  1
  6  7  2  0
  9  8  1  0
 10  9  1  6
 11  6  1  0
 11 10  1  0
 12 21  1  0
 12 10  1  0
 13 12  2  0
 15 14  1  0
 16 15  2  0
 17 16  1  0
 18 17  2  0
 18 24  1  0
 19 18  1  0
 20 22  1  0
 20 19  1  6
 20 21  1  0
 22 23  1  0
 24 25  2  0
 25 15  1  0
 26 22  2  0
M  END
$$$$
