NPV.pdb
     RDKit          3D

 23 23  0  0  1  0  0  0  0  0999 V2000
    5.7151  -15.4311   20.2950 N   0  0  0  0  0  0  0  0  0  0  0  0
    5.8252  -16.2210   21.4662 C   0  0  0  0  0  0  0  0  0  0  0  0
    5.2534  -17.3534   21.4614 O   0  0  0  0  0  0  0  0  0  0  0  0
    6.5724  -15.7508   22.6448 C   0  0  0  0  0  0  0  0  0  0  0  0
    7.0289  -14.3026   22.4031 C   0  0  2  0  0  0  0  0  0  0  0  0
    7.6677  -14.3309   21.0944 N   0  0  0  0  0  0  0  0  0  0  0  0
    8.0213  -13.9917   23.4513 C   0  0  0  0  0  0  0  0  0  0  0  0
    9.2364  -13.8635   23.0489 O   0  0  0  0  0  0  0  0  0  0  0  0
    7.7201  -13.8339   24.8117 N   0  0  0  0  0  0  0  0  0  0  0  0
    6.4209  -13.9511   25.4086 C   0  0  0  0  0  0  0  0  0  0  0  0
    6.4775  -12.9488   26.5461 C   0  0  0  0  0  0  0  0  0  0  0  0
    7.8977  -12.3703   26.5368 C   0  0  0  0  0  0  0  0  0  0  0  0
    8.6316  -13.5454   25.8717 C   0  0  1  0  0  0  0  0  0  0  0  0
    8.7674  -14.6730   26.8358 C   0  0  0  0  0  0  0  0  0  0  0  0
    7.7545  -15.2572   27.2578 O   0  0  0  0  0  0  0  0  0  0  0  0
   12.7753  -15.9532   27.4677 C   0  0  0  0  0  0  0  0  0  0  0  0
   11.6901  -16.8797   27.0187 C   0  0  2  0  0  0  0  0  0  0  0  0
   11.6484  -16.8691   25.5075 C   0  0  0  0  0  0  0  0  0  0  0  0
   10.3360  -16.5005   27.6005 C   0  0  2  0  0  0  0  0  0  0  0  0
   10.0333  -15.1184   27.3033 N   0  0  0  0  0  0  0  0  0  0  0  0
   10.4398  -16.6523   29.0663 C   0  0  0  0  0  0  0  0  0  0  0  0
   10.6182  -17.8790   29.6915 O   0  0  0  0  0  0  0  0  0  0  0  0
   10.3646  -15.6323   29.7894 O   0  0  0  0  0  0  0  0  0  0  0  0
  2  3  2  0
  2  1  1  0
  4  2  1  0
  5  4  1  0
  5  6  1  6
  7  5  1  0
  7  8  2  0
  9  7  1  0
 10  9  1  0
 11 12  1  0
 11 10  1  0
 12 13  1  0
 13 14  1  1
 13  9  1  0
 14 20  1  0
 15 14  2  0
 17 19  1  0
 17 16  1  6
 18 17  1  0
 19 21  1  0
 19 20  1  1
 21 23  2  0
 21 22  1  0
M  END
$$$$
