NPV.pdb
     RDKit          3D

 23 23  0  0  1  0  0  0  0  0999 V2000
    7.6738  -16.7761   21.0624 N   0  0  0  0  0  0  0  0  0  0  0  0
    7.0875  -16.4416   22.3082 C   0  0  0  0  0  0  0  0  0  0  0  0
    7.3320  -17.2053   23.2913 O   0  0  0  0  0  0  0  0  0  0  0  0
    6.2277  -15.2559   22.4611 C   0  0  0  0  0  0  0  0  0  0  0  0
    7.0634  -13.9936   22.1922 C   0  0  2  0  0  0  0  0  0  0  0  0
    7.7575  -14.2704   20.9420 N   0  0  0  0  0  0  0  0  0  0  0  0
    8.0310  -13.8827   23.3021 C   0  0  0  0  0  0  0  0  0  0  0  0
    9.2700  -13.9968   22.9755 O   0  0  0  0  0  0  0  0  0  0  0  0
    7.6833  -13.6671   24.6433 N   0  0  0  0  0  0  0  0  0  0  0  0
    6.3529  -13.6545   25.1799 C   0  0  0  0  0  0  0  0  0  0  0  0
    6.4473  -12.6348   26.2993 C   0  0  0  0  0  0  0  0  0  0  0  0
    7.9127  -12.1851   26.3464 C   0  0  0  0  0  0  0  0  0  0  0  0
    8.5677  -13.4359   25.7397 C   0  0  1  0  0  0  0  0  0  0  0  0
    8.5575  -14.5483   26.7307 C   0  0  0  0  0  0  0  0  0  0  0  0
    7.4846  -15.0899   27.0482 O   0  0  0  0  0  0  0  0  0  0  0  0
   12.4462  -15.9967   27.2014 C   0  0  0  0  0  0  0  0  0  0  0  0
   11.2738  -16.8642   26.8687 C   0  0  2  0  0  0  0  0  0  0  0  0
   11.0690  -16.8362   25.3712 C   0  0  0  0  0  0  0  0  0  0  0  0
   10.0114  -16.4249   27.5963 C   0  0  2  0  0  0  0  0  0  0  0  0
    9.7482  -15.0264   27.3413 N   0  0  0  0  0  0  0  0  0  0  0  0
   10.2655  -16.5977   29.0413 C   0  0  0  0  0  0  0  0  0  0  0  0
   10.3717  -17.8410   29.6498 O   0  0  0  0  0  0  0  0  0  0  0  0
   10.3929  -15.5807   29.7614 O   0  0  0  0  0  0  0  0  0  0  0  0
  2  3  2  0
  2  1  1  0
  4  2  1  0
  5  4  1  0
  5  6  1  6
  7  5  1  0
  7  8  2  0
  9  7  1  0
 10  9  1  0
 11 12  1  0
 11 10  1  0
 12 13  1  0
 13 14  1  1
 13  9  1  0
 14 20  1  0
 15 14  2  0
 17 19  1  0
 17 16  1  6
 18 17  1  0
 19 21  1  0
 19 20  1  1
 21 23  2  0
 21 22  1  0
M  END
$$$$
