NPV.pdb
     RDKit          3D

 23 23  0  0  1  0  0  0  0  0999 V2000
    6.6243  -20.4780   20.9029 N   0  0  0  0  0  0  0  0  0  0  0  0
    6.4533  -19.0994   20.6239 C   0  0  0  0  0  0  0  0  0  0  0  0
    5.6330  -18.7875   19.7079 O   0  0  0  0  0  0  0  0  0  0  0  0
    7.1959  -18.0658   21.3648 C   0  0  0  0  0  0  0  0  0  0  0  0
    8.1084  -17.3073   20.3871 C   0  0  2  0  0  0  0  0  0  0  0  0
    9.1275  -18.2759   20.0070 N   0  0  0  0  0  0  0  0  0  0  0  0
    8.7148  -16.1975   21.1493 C   0  0  0  0  0  0  0  0  0  0  0  0
    9.8733  -16.4357   21.6552 O   0  0  0  0  0  0  0  0  0  0  0  0
    8.1169  -14.9440   21.3428 N   0  0  0  0  0  0  0  0  0  0  0  0
    6.8685  -14.5083   20.7864 C   0  0  0  0  0  0  0  0  0  0  0  0
    7.0907  -13.0225   20.5744 C   0  0  0  0  0  0  0  0  0  0  0  0
    8.4914  -12.7171   21.1188 C   0  0  0  0  0  0  0  0  0  0  0  0
    8.6096  -13.8637   22.1352 C   0  0  1  0  0  0  0  0  0  0  0  0
    7.7531  -13.5837   23.3215 C   0  0  0  0  0  0  0  0  0  0  0  0
    6.8430  -12.7401   23.2476 O   0  0  0  0  0  0  0  0  0  0  0  0
    5.9237  -13.4515   26.3716 C   0  0  0  0  0  0  0  0  0  0  0  0
    7.2257  -12.7175   26.3097 C   0  0  2  0  0  0  0  0  0  0  0  0
    7.0416  -11.4909   25.4455 C   0  0  0  0  0  0  0  0  0  0  0  0
    8.3514  -13.5917   25.7765 C   0  0  2  0  0  0  0  0  0  0  0  0
    7.9365  -14.2548   24.5606 N   0  0  0  0  0  0  0  0  0  0  0  0
    8.6201  -14.6203   26.8024 C   0  0  0  0  0  0  0  0  0  0  0  0
    8.4327  -15.9782   26.5828 O   0  0  0  0  0  0  0  0  0  0  0  0
    9.0372  -14.2613   27.9276 O   0  0  0  0  0  0  0  0  0  0  0  0
  2  3  2  0
  2  1  1  0
  4  2  1  0
  5  4  1  0
  5  6  1  1
  7  5  1  0
  7  8  2  0
  9  7  1  0
 10  9  1  0
 11 12  1  0
 11 10  1  0
 12 13  1  0
 13 14  1  1
 13  9  1  0
 14 20  1  0
 15 14  2  0
 17 19  1  0
 17 16  1  6
 18 17  1  0
 19 21  1  0
 19 20  1  6
 21 23  2  0
 21 22  1  0
M  END
$$$$
