NPV.pdb
     RDKit          3D

 23 23  0  0  1  0  0  0  0  0999 V2000
    6.2631  -15.6316   19.6424 N   0  0  0  0  0  0  0  0  0  0  0  0
    6.3837  -16.4914   20.7622 C   0  0  0  0  0  0  0  0  0  0  0  0
    5.9239  -17.6680   20.6460 O   0  0  0  0  0  0  0  0  0  0  0  0
    7.0168  -16.0419   22.0135 C   0  0  0  0  0  0  0  0  0  0  0  0
    7.4691  -14.5816   21.8493 C   0  0  2  0  0  0  0  0  0  0  0  0
    8.3771  -14.6027   20.7107 N   0  0  0  0  0  0  0  0  0  0  0  0
    8.2002  -14.2243   23.0814 C   0  0  0  0  0  0  0  0  0  0  0  0
    9.4761  -14.1138   22.9609 O   0  0  0  0  0  0  0  0  0  0  0  0
    7.5991  -14.0066   24.3295 N   0  0  0  0  0  0  0  0  0  0  0  0
    6.1966  -14.0929   24.6185 C   0  0  0  0  0  0  0  0  0  0  0  0
    6.0062  -13.0424   25.6964 C   0  0  0  0  0  0  0  0  0  0  0  0
    7.3988  -12.4703   25.9875 C   0  0  0  0  0  0  0  0  0  0  0  0
    8.2489  -13.6758   25.5566 C   0  0  1  0  0  0  0  0  0  0  0  0
    8.1462  -14.7610   26.5721 C   0  0  0  0  0  0  0  0  0  0  0  0
    7.3485  -15.6992   26.4026 O   0  0  0  0  0  0  0  0  0  0  0  0
   10.3312  -14.8506   30.2906 C   0  0  0  0  0  0  0  0  0  0  0  0
   11.0406  -14.8931   28.9743 C   0  0  2  0  0  0  0  0  0  0  0  0
   11.4577  -13.4861   28.6113 C   0  0  0  0  0  0  0  0  0  0  0  0
   10.1784  -15.5022   27.8782 C   0  0  2  0  0  0  0  0  0  0  0  0
    8.9388  -14.7690   27.7515 N   0  0  0  0  0  0  0  0  0  0  0  0
    9.8644  -16.8840   28.2958 C   0  0  0  0  0  0  0  0  0  0  0  0
   10.8066  -17.9035   28.3152 O   0  0  0  0  0  0  0  0  0  0  0  0
    8.6956  -17.1603   28.6513 O   0  0  0  0  0  0  0  0  0  0  0  0
  2  3  2  0
  2  1  1  0
  4  2  1  0
  5  4  1  0
  5  6  1  6
  7  5  1  0
  7  8  2  0
  9  7  1  0
 10  9  1  0
 11 12  1  0
 11 10  1  0
 12 13  1  0
 13 14  1  1
 13  9  1  0
 14 20  1  0
 15 14  2  0
 17 19  1  0
 17 16  1  1
 18 17  1  0
 19 21  1  0
 19 20  1  1
 21 23  2  0
 21 22  1  0
M  END
$$$$
