NPV.pdb
     RDKit          3D

 23 23  0  0  1  0  0  0  0  0999 V2000
   10.8419  -18.9936   19.5067 N   0  0  0  0  0  0  0  0  0  0  0  0
   11.7573  -18.5942   20.5118 C   0  0  0  0  0  0  0  0  0  0  0  0
   12.9709  -18.9323   20.3626 O   0  0  0  0  0  0  0  0  0  0  0  0
   11.3225  -17.8173   21.6849 C   0  0  0  0  0  0  0  0  0  0  0  0
    9.9054  -17.2778   21.4307 C   0  0  2  0  0  0  0  0  0  0  0  0
   10.0662  -16.3132   20.3512 N   0  0  0  0  0  0  0  0  0  0  0  0
    9.4845  -16.5945   22.6702 C   0  0  0  0  0  0  0  0  0  0  0  0
    9.7187  -15.3306   22.7176 O   0  0  0  0  0  0  0  0  0  0  0  0
    8.8654  -17.2273   23.7576 N   0  0  0  0  0  0  0  0  0  0  0  0
    8.6211  -18.6348   23.8891 C   0  0  0  0  0  0  0  0  0  0  0  0
    7.3247  -18.6829   24.6757 C   0  0  0  0  0  0  0  0  0  0  0  0
    6.9640  -17.2274   24.9963 C   0  0  0  0  0  0  0  0  0  0  0  0
    8.3725  -16.6146   24.9490 C   0  0  1  0  0  0  0  0  0  0  0  0
    9.1425  -17.0125   26.1607 C   0  0  0  0  0  0  0  0  0  0  0  0
    9.6673  -18.1376   26.2238 O   0  0  0  0  0  0  0  0  0  0  0  0
    9.5144  -14.1568   29.3548 C   0  0  0  0  0  0  0  0  0  0  0  0
   10.6761  -14.5437   28.4955 C   0  0  2  0  0  0  0  0  0  0  0  0
   10.7707  -13.5613   27.3503 C   0  0  0  0  0  0  0  0  0  0  0  0
   10.5557  -15.9694   27.9773 C   0  0  2  0  0  0  0  0  0  0  0  0
    9.3058  -16.1411   27.2714 N   0  0  0  0  0  0  0  0  0  0  0  0
   10.5524  -16.8574   29.1580 C   0  0  0  0  0  0  0  0  0  0  0  0
   11.6891  -17.1264   29.9084 O   0  0  0  0  0  0  0  0  0  0  0  0
    9.4784  -17.3989   29.5076 O   0  0  0  0  0  0  0  0  0  0  0  0
  2  3  2  0
  2  1  1  0
  4  2  1  0
  5  4  1  0
  5  6  1  6
  7  5  1  0
  7  8  2  0
  9  7  1  0
 10  9  1  0
 11 12  1  0
 11 10  1  0
 12 13  1  0
 13 14  1  1
 13  9  1  0
 14 20  1  0
 15 14  2  0
 17 19  1  0
 17 16  1  6
 18 17  1  0
 19 21  1  0
 19 20  1  1
 21 23  2  0
 21 22  1  0
M  END
$$$$
