NPV.pdb
     RDKit          3D

 23 23  0  0  1  0  0  0  0  0999 V2000
   10.6575  -19.6840   21.5594 N   0  0  0  0  0  0  0  0  0  0  0  0
    9.5388  -18.8163   21.6192 C   0  0  0  0  0  0  0  0  0  0  0  0
    8.9896  -18.6505   22.7506 O   0  0  0  0  0  0  0  0  0  0  0  0
    9.0301  -18.1319   20.4186 C   0  0  0  0  0  0  0  0  0  0  0  0
   10.0029  -17.0049   20.0349 C   0  0  2  0  0  0  0  0  0  0  0  0
   11.3257  -17.6021   20.1568 N   0  0  0  0  0  0  0  0  0  0  0  0
    9.8286  -15.9359   21.0386 C   0  0  0  0  0  0  0  0  0  0  0  0
   10.8696  -15.6537   21.7396 O   0  0  0  0  0  0  0  0  0  0  0  0
    8.6327  -15.2378   21.2592 N   0  0  0  0  0  0  0  0  0  0  0  0
    7.3697  -15.5067   20.6342 C   0  0  0  0  0  0  0  0  0  0  0  0
    6.7424  -14.1293   20.5287 C   0  0  0  0  0  0  0  0  0  0  0  0
    7.7240  -13.1594   21.1976 C   0  0  0  0  0  0  0  0  0  0  0  0
    8.4221  -14.1427   22.1502 C   0  0  1  0  0  0  0  0  0  0  0  0
    7.5155  -14.4878   23.2809 C   0  0  0  0  0  0  0  0  0  0  0  0
    6.9428  -15.5908   23.3058 O   0  0  0  0  0  0  0  0  0  0  0  0
    5.5055  -12.6895   26.3267 C   0  0  0  0  0  0  0  0  0  0  0  0
    6.9516  -12.8764   26.6608 C   0  0  2  0  0  0  0  0  0  0  0  0
    7.6330  -11.5282   26.6025 C   0  0  0  0  0  0  0  0  0  0  0  0
    7.6316  -13.8677   25.7277 C   0  0  2  0  0  0  0  0  0  0  0  0
    7.2726  -13.5898   24.3551 N   0  0  0  0  0  0  0  0  0  0  0  0
    7.1245  -15.2093   26.0818 C   0  0  0  0  0  0  0  0  0  0  0  0
    7.6616  -15.9778   27.1057 O   0  0  0  0  0  0  0  0  0  0  0  0
    6.1644  -15.6861   25.4339 O   0  0  0  0  0  0  0  0  0  0  0  0
  2  3  2  0
  2  1  1  0
  4  2  1  0
  5  4  1  0
  5  6  1  1
  7  5  1  0
  7  8  2  0
  9  7  1  0
 10  9  1  0
 11 12  1  0
 11 10  1  0
 12 13  1  0
 13 14  1  1
 13  9  1  0
 14 20  1  0
 15 14  2  0
 17 19  1  0
 17 16  1  6
 18 17  1  0
 19 21  1  0
 19 20  1  6
 21 23  2  0
 21 22  1  0
M  END
$$$$
