NPV.pdb
     RDKit          3D

 23 23  0  0  1  0  0  0  0  0999 V2000
   11.1442  -19.8190   20.6195 N   0  0  0  0  0  0  0  0  0  0  0  0
   10.0732  -19.2283   21.3350 C   0  0  0  0  0  0  0  0  0  0  0  0
   10.0612  -19.3777   22.5947 O   0  0  0  0  0  0  0  0  0  0  0  0
    9.0138  -18.4701   20.6484 C   0  0  0  0  0  0  0  0  0  0  0  0
    9.5966  -17.1394   20.1449 C   0  0  2  0  0  0  0  0  0  0  0  0
   10.8832  -17.4970   19.5634 N   0  0  0  0  0  0  0  0  0  0  0  0
    9.7910  -16.2861   21.3341 C   0  0  0  0  0  0  0  0  0  0  0  0
   11.0103  -15.9837   21.6107 O   0  0  0  0  0  0  0  0  0  0  0  0
    8.7547  -15.8052   22.1474 N   0  0  0  0  0  0  0  0  0  0  0  0
    7.3769  -16.1993   22.0818 C   0  0  0  0  0  0  0  0  0  0  0  0
    6.6415  -14.9306   22.4708 C   0  0  0  0  0  0  0  0  0  0  0  0
    7.7217  -13.8949   22.8055 C   0  0  0  0  0  0  0  0  0  0  0  0
    8.8565  -14.8514   23.2045 C   0  0  1  0  0  0  0  0  0  0  0  0
    8.5768  -15.4442   24.5423 C   0  0  0  0  0  0  0  0  0  0  0  0
    8.1409  -16.6050   24.6306 O   0  0  0  0  0  0  0  0  0  0  0  0
   10.4982  -14.5015   29.0550 C   0  0  0  0  0  0  0  0  0  0  0  0
    9.9090  -13.9843   27.7810 C   0  0  2  0  0  0  0  0  0  0  0  0
    8.5470  -13.4036   28.0862 C   0  0  0  0  0  0  0  0  0  0  0  0
    9.8101  -15.0658   26.7150 C   0  0  2  0  0  0  0  0  0  0  0  0
    8.7919  -14.7229   25.7477 N   0  0  0  0  0  0  0  0  0  0  0  0
    9.4045  -16.3099   27.4007 C   0  0  0  0  0  0  0  0  0  0  0  0
   10.2922  -17.1125   28.1046 O   0  0  0  0  0  0  0  0  0  0  0  0
    8.2050  -16.6673   27.3512 O   0  0  0  0  0  0  0  0  0  0  0  0
  2  3  2  0
  2  1  1  0
  4  2  1  0
  5  4  1  0
  5  6  1  1
  7  5  1  0
  7  8  2  0
  9  7  1  0
 10  9  1  0
 11 12  1  0
 11 10  1  0
 12 13  1  0
 13 14  1  1
 13  9  1  0
 14 20  1  0
 15 14  2  0
 17 19  1  0
 17 16  1  1
 18 17  1  0
 19 21  1  0
 19 20  1  6
 21 23  2  0
 21 22  1  0
M  END
$$$$
