NPV.pdb
     RDKit          3D

 23 23  0  0  1  0  0  0  0  0999 V2000
    6.8635  -19.9491   16.7901 N   0  0  0  0  0  0  0  0  0  0  0  0
    6.6267  -18.6275   17.2430 C   0  0  0  0  0  0  0  0  0  0  0  0
    5.6032  -18.0306   16.7898 O   0  0  0  0  0  0  0  0  0  0  0  0
    7.5298  -17.9685   18.2015 C   0  0  0  0  0  0  0  0  0  0  0  0
    8.1513  -16.7307   17.5341 C   0  0  2  0  0  0  0  0  0  0  0  0
    8.9852  -17.2668   16.4670 N   0  0  0  0  0  0  0  0  0  0  0  0
    8.9884  -16.0738   18.5579 C   0  0  0  0  0  0  0  0  0  0  0  0
   10.2592  -16.2032   18.4066 O   0  0  0  0  0  0  0  0  0  0  0  0
    8.4894  -15.3428   19.6456 N   0  0  0  0  0  0  0  0  0  0  0  0
    7.1054  -15.1428   19.9656 C   0  0  0  0  0  0  0  0  0  0  0  0
    7.0958  -13.7566   20.5820 C   0  0  0  0  0  0  0  0  0  0  0  0
    8.5578  -13.2954   20.6218 C   0  0  0  0  0  0  0  0  0  0  0  0
    9.2428  -14.6707   20.6546 C   0  0  1  0  0  0  0  0  0  0  0  0
    9.0808  -15.2889   22.0004 C   0  0  0  0  0  0  0  0  0  0  0  0
    7.9610  -15.6746   22.3780 O   0  0  0  0  0  0  0  0  0  0  0  0
   12.7530  -16.0097   24.0324 C   0  0  0  0  0  0  0  0  0  0  0  0
   11.7825  -17.0991   23.7021 C   0  0  2  0  0  0  0  0  0  0  0  0
   12.1261  -17.6463   22.3354 C   0  0  0  0  0  0  0  0  0  0  0  0
   10.3407  -16.6141   23.7444 C   0  0  2  0  0  0  0  0  0  0  0  0
   10.1760  -15.4598   22.8896 N   0  0  0  0  0  0  0  0  0  0  0  0
   10.0640  -16.2081   25.1377 C   0  0  0  0  0  0  0  0  0  0  0  0
    9.9795  -17.1112   26.1887 O   0  0  0  0  0  0  0  0  0  0  0  0
    9.8961  -14.9937   25.3944 O   0  0  0  0  0  0  0  0  0  0  0  0
  2  3  2  0
  2  1  1  0
  4  2  1  0
  5  4  1  0
  5  6  1  6
  7  5  1  0
  7  8  2  0
  9  7  1  0
 10  9  1  0
 11 12  1  0
 11 10  1  0
 12 13  1  0
 13 14  1  1
 13  9  1  0
 14 20  1  0
 15 14  2  0
 17 19  1  0
 17 16  1  6
 18 17  1  0
 19 21  1  0
 19 20  1  6
 21 23  2  0
 21 22  1  0
M  END
$$$$
