NPV.pdb
     RDKit          3D

 23 23  0  0  1  0  0  0  0  0999 V2000
    8.9252  -19.3736   18.3523 N   0  0  0  0  0  0  0  0  0  0  0  0
    7.9753  -19.2466   19.3960 C   0  0  0  0  0  0  0  0  0  0  0  0
    7.1305  -20.1831   19.5324 O   0  0  0  0  0  0  0  0  0  0  0  0
    7.9648  -18.0761   20.2896 C   0  0  0  0  0  0  0  0  0  0  0  0
    9.0385  -17.0798   19.8221 C   0  0  2  0  0  0  0  0  0  0  0  0
   10.2340  -17.8893   19.6299 N   0  0  0  0  0  0  0  0  0  0  0  0
    9.2392  -16.1240   20.9295 C   0  0  0  0  0  0  0  0  0  0  0  0
   10.3161  -16.2824   21.6149 O   0  0  0  0  0  0  0  0  0  0  0  0
    8.3509  -15.0907   21.2607 N   0  0  0  0  0  0  0  0  0  0  0  0
    7.0351  -14.9022   20.7212 C   0  0  0  0  0  0  0  0  0  0  0  0
    6.8857  -13.3925   20.7087 C   0  0  0  0  0  0  0  0  0  0  0  0
    8.1669  -12.8302   21.3364 C   0  0  0  0  0  0  0  0  0  0  0  0
    8.5609  -14.0378   22.2014 C   0  0  1  0  0  0  0  0  0  0  0  0
    7.6589  -14.1344   23.3831 C   0  0  0  0  0  0  0  0  0  0  0  0
    6.5158  -14.6065   23.2572 O   0  0  0  0  0  0  0  0  0  0  0  0
    8.7619  -12.4402   27.2299 C   0  0  0  0  0  0  0  0  0  0  0  0
    8.1806  -13.8129   27.1049 C   0  0  2  0  0  0  0  0  0  0  0  0
    9.3161  -14.8100   27.0615 C   0  0  0  0  0  0  0  0  0  0  0  0
    7.2928  -13.9494   25.8764 C   0  0  2  0  0  0  0  0  0  0  0  0
    8.0587  -13.7004   24.6758 N   0  0  0  0  0  0  0  0  0  0  0  0
    6.2445  -12.9142   25.9860 C   0  0  0  0  0  0  0  0  0  0  0  0
    5.1668  -13.0147   26.8554 O   0  0  0  0  0  0  0  0  0  0  0  0
    6.3217  -11.8929   25.2649 O   0  0  0  0  0  0  0  0  0  0  0  0
  2  3  2  0
  2  1  1  0
  4  2  1  0
  5  4  1  0
  5  6  1  1
  7  5  1  0
  7  8  2  0
  9  7  1  0
 10  9  1  0
 11 12  1  0
 11 10  1  0
 12 13  1  0
 13 14  1  1
 13  9  1  0
 14 20  1  0
 15 14  2  0
 17 19  1  0
 17 16  1  6
 18 17  1  0
 19 21  1  0
 19 20  1  6
 21 23  2  0
 21 22  1  0
M  END
$$$$
