NPV.pdb
     RDKit          3D

 23 23  0  0  1  0  0  0  0  0999 V2000
    6.5927  -17.0421   15.3242 N   0  0  0  0  0  0  0  0  0  0  0  0
    6.9425  -17.9295   16.3721 C   0  0  0  0  0  0  0  0  0  0  0  0
    6.2021  -18.9444   16.5480 O   0  0  0  0  0  0  0  0  0  0  0  0
    8.1177  -17.6876   17.2259 C   0  0  0  0  0  0  0  0  0  0  0  0
    8.7934  -16.3777   16.7883 C   0  0  2  0  0  0  0  0  0  0  0  0
    9.8436  -16.7937   15.8689 N   0  0  0  0  0  0  0  0  0  0  0  0
    9.3827  -15.7796   18.0030 C   0  0  0  0  0  0  0  0  0  0  0  0
   10.6369  -16.0021   18.1822 O   0  0  0  0  0  0  0  0  0  0  0  0
    8.6735  -15.0100   18.9363 N   0  0  0  0  0  0  0  0  0  0  0  0
    7.2746  -14.6966   18.8846 C   0  0  0  0  0  0  0  0  0  0  0  0
    7.2125  -13.3143   19.5065 C   0  0  0  0  0  0  0  0  0  0  0  0
    8.6437  -12.9751   19.9401 C   0  0  0  0  0  0  0  0  0  0  0  0
    9.1842  -14.4021   20.1226 C   0  0  1  0  0  0  0  0  0  0  0  0
    8.6236  -15.0047   21.3643 C   0  0  0  0  0  0  0  0  0  0  0  0
    7.4208  -15.3142   21.4184 O   0  0  0  0  0  0  0  0  0  0  0  0
   11.4177  -15.9633   24.4767 C   0  0  0  0  0  0  0  0  0  0  0  0
   10.4373  -16.9501   23.9264 C   0  0  2  0  0  0  0  0  0  0  0  0
   11.0908  -17.6813   22.7759 C   0  0  0  0  0  0  0  0  0  0  0  0
    9.1436  -16.2845   23.4801 C   0  0  2  0  0  0  0  0  0  0  0  0
    9.4230  -15.2457   22.5142 N   0  0  0  0  0  0  0  0  0  0  0  0
    8.5451  -15.6610   24.6783 C   0  0  0  0  0  0  0  0  0  0  0  0
    8.4286  -14.2872   24.8408 O   0  0  0  0  0  0  0  0  0  0  0  0
    8.1190  -16.3975   25.5975 O   0  0  0  0  0  0  0  0  0  0  0  0
  2  3  2  0
  2  1  1  0
  4  2  1  0
  5  4  1  0
  5  6  1  6
  7  5  1  0
  7  8  2  0
  9  7  1  0
 10  9  1  0
 11 12  1  0
 11 10  1  0
 12 13  1  0
 13 14  1  1
 13  9  1  0
 14 20  1  0
 15 14  2  0
 17 19  1  0
 17 16  1  6
 18 17  1  0
 19 21  1  0
 19 20  1  6
 21 23  2  0
 21 22  1  0
M  END
$$$$
