NPV.pdb
     RDKit          3D

 23 23  0  0  1  0  0  0  0  0999 V2000
   10.3275  -20.1997   23.0934 N   0  0  0  0  0  0  0  0  0  0  0  0
   10.5185  -18.8088   22.9018 C   0  0  0  0  0  0  0  0  0  0  0  0
    9.8332  -18.0216   23.6228 O   0  0  0  0  0  0  0  0  0  0  0  0
   11.4732  -18.2925   21.9065 C   0  0  0  0  0  0  0  0  0  0  0  0
   10.6967  -17.5535   20.8043 C   0  0  2  0  0  0  0  0  0  0  0  0
   11.6901  -17.2766   19.7758 N   0  0  0  0  0  0  0  0  0  0  0  0
   10.2118  -16.2930   21.4013 C   0  0  0  0  0  0  0  0  0  0  0  0
   11.1212  -15.4424   21.7240 O   0  0  0  0  0  0  0  0  0  0  0  0
    8.8622  -15.9856   21.6260 N   0  0  0  0  0  0  0  0  0  0  0  0
    7.7470  -16.8578   21.3947 C   0  0  0  0  0  0  0  0  0  0  0  0
    6.6456  -15.8994   20.9824 C   0  0  0  0  0  0  0  0  0  0  0  0
    7.2425  -14.4907   21.0862 C   0  0  0  0  0  0  0  0  0  0  0  0
    8.3269  -14.7662   22.1398 C   0  0  1  0  0  0  0  0  0  0  0  0
    7.7026  -14.9331   23.4822 C   0  0  0  0  0  0  0  0  0  0  0  0
    7.5008  -16.0719   23.9381 O   0  0  0  0  0  0  0  0  0  0  0  0
    7.8443  -11.9219   27.4929 C   0  0  0  0  0  0  0  0  0  0  0  0
    7.2585  -12.2795   26.1637 C   0  0  2  0  0  0  0  0  0  0  0  0
    5.7727  -12.4961   26.3397 C   0  0  0  0  0  0  0  0  0  0  0  0
    7.9175  -13.5112   25.5599 C   0  0  2  0  0  0  0  0  0  0  0  0
    7.3200  -13.8215   24.2805 N   0  0  0  0  0  0  0  0  0  0  0  0
    7.6569  -14.6347   26.4831 C   0  0  0  0  0  0  0  0  0  0  0  0
    8.4160  -14.8738   27.6207 O   0  0  0  0  0  0  0  0  0  0  0  0
    6.7085  -15.4152   26.2375 O   0  0  0  0  0  0  0  0  0  0  0  0
  2  3  2  0
  2  1  1  0
  4  2  1  0
  5  4  1  0
  5  6  1  6
  7  5  1  0
  7  8  2  0
  9  7  1  0
 10  9  1  0
 11 12  1  0
 11 10  1  0
 12 13  1  0
 13 14  1  1
 13  9  1  0
 14 20  1  0
 15 14  2  0
 17 19  1  0
 17 16  1  1
 18 17  1  0
 19 21  1  0
 19 20  1  6
 21 23  2  0
 21 22  1  0
M  END
$$$$
