NPV.pdb
     RDKit          3D

 23 23  0  0  1  0  0  0  0  0999 V2000
    8.7616  -16.5606   20.9630 N   0  0  0  0  0  0  0  0  0  0  0  0
    7.4422  -16.7798   21.4308 C   0  0  0  0  0  0  0  0  0  0  0  0
    7.0639  -17.9831   21.5655 O   0  0  0  0  0  0  0  0  0  0  0  0
    6.5418  -15.6589   21.7494 C   0  0  0  0  0  0  0  0  0  0  0  0
    7.3073  -14.3369   21.5750 C   0  0  2  0  0  0  0  0  0  0  0  0
    8.1595  -14.5546   20.4140 N   0  0  0  0  0  0  0  0  0  0  0  0
    8.1295  -14.1611   22.7888 C   0  0  0  0  0  0  0  0  0  0  0  0
    9.4029  -14.1941   22.6096 O   0  0  0  0  0  0  0  0  0  0  0  0
    7.6145  -13.9668   24.0784 N   0  0  0  0  0  0  0  0  0  0  0  0
    6.2335  -14.0482   24.4580 C   0  0  0  0  0  0  0  0  0  0  0  0
    6.1250  -13.0208   25.5691 C   0  0  0  0  0  0  0  0  0  0  0  0
    7.5393  -12.4668   25.7796 C   0  0  0  0  0  0  0  0  0  0  0  0
    8.3474  -13.6692   25.2667 C   0  0  1  0  0  0  0  0  0  0  0  0
    8.3016  -14.7763   26.2626 C   0  0  0  0  0  0  0  0  0  0  0  0
    7.6035  -15.7815   26.0449 O   0  0  0  0  0  0  0  0  0  0  0  0
   12.0422  -15.5983   29.4624 C   0  0  0  0  0  0  0  0  0  0  0  0
   11.1290  -14.6722   28.7234 C   0  0  2  0  0  0  0  0  0  0  0  0
   10.2322  -13.9844   29.7274 C   0  0  0  0  0  0  0  0  0  0  0  0
   10.3054  -15.3993   27.6703 C   0  0  2  0  0  0  0  0  0  0  0  0
    9.0383  -14.7305   27.4769 N   0  0  0  0  0  0  0  0  0  0  0  0
   10.0436  -16.7569   28.1908 C   0  0  0  0  0  0  0  0  0  0  0  0
    8.7771  -17.2032   28.5435 O   0  0  0  0  0  0  0  0  0  0  0  0
   11.0026  -17.5515   28.3244 O   0  0  0  0  0  0  0  0  0  0  0  0
  2  3  2  0
  2  1  1  0
  4  2  1  0
  5  4  1  0
  5  6  1  6
  7  5  1  0
  7  8  2  0
  9  7  1  0
 10  9  1  0
 11 12  1  0
 11 10  1  0
 12 13  1  0
 13 14  1  1
 13  9  1  0
 14 20  1  0
 15 14  2  0
 17 19  1  0
 17 16  1  1
 18 17  1  0
 19 21  1  0
 19 20  1  1
 21 23  2  0
 21 22  1  0
M  END
$$$$
