NPV.pdb
     RDKit          3D

 23 23  0  0  1  0  0  0  0  0999 V2000
   12.0919  -19.0858   19.6560 N   0  0  0  0  0  0  0  0  0  0  0  0
   12.1801  -18.7678   21.0339 C   0  0  0  0  0  0  0  0  0  0  0  0
   12.9190  -19.5040   21.7559 O   0  0  0  0  0  0  0  0  0  0  0  0
   11.4454  -17.6289   21.6100 C   0  0  0  0  0  0  0  0  0  0  0  0
   10.5729  -16.9913   20.5164 C   0  0  2  0  0  0  0  0  0  0  0  0
   11.5237  -16.4483   19.5559 N   0  0  0  0  0  0  0  0  0  0  0  0
    9.8164  -15.8998   21.1620 C   0  0  0  0  0  0  0  0  0  0  0  0
   10.3802  -14.7438   21.1442 O   0  0  0  0  0  0  0  0  0  0  0  0
    8.5620  -16.0514   21.7702 N   0  0  0  0  0  0  0  0  0  0  0  0
    7.8464  -17.2837   21.9353 C   0  0  0  0  0  0  0  0  0  0  0  0
    6.3960  -16.8517   21.8279 C   0  0  0  0  0  0  0  0  0  0  0  0
    6.4140  -15.3263   21.6712 C   0  0  0  0  0  0  0  0  0  0  0  0
    7.7566  -15.0299   22.3578 C   0  0  1  0  0  0  0  0  0  0  0  0
    7.6194  -15.1837   23.8333 C   0  0  0  0  0  0  0  0  0  0  0  0
    7.7473  -16.3036   24.3574 O   0  0  0  0  0  0  0  0  0  0  0  0
    5.8410  -12.6854   26.7416 C   0  0  0  0  0  0  0  0  0  0  0  0
    7.3357  -12.6874   26.6819 C   0  0  2  0  0  0  0  0  0  0  0  0
    7.7854  -11.4499   25.9392 C   0  0  0  0  0  0  0  0  0  0  0  0
    7.8809  -13.9445   26.0198 C   0  0  2  0  0  0  0  0  0  0  0  0
    7.3426  -14.0803   24.6849 N   0  0  0  0  0  0  0  0  0  0  0  0
    7.4205  -15.0913   26.8293 C   0  0  0  0  0  0  0  0  0  0  0  0
    8.0559  -15.5025   27.9931 O   0  0  0  0  0  0  0  0  0  0  0  0
    6.4096  -15.7305   26.4570 O   0  0  0  0  0  0  0  0  0  0  0  0
  2  3  2  0
  2  1  1  0
  4  2  1  0
  5  4  1  0
  5  6  1  6
  7  5  1  0
  7  8  2  0
  9  7  1  0
 10  9  1  0
 11 12  1  0
 11 10  1  0
 12 13  1  0
 13 14  1  1
 13  9  1  0
 14 20  1  0
 15 14  2  0
 17 19  1  0
 17 16  1  6
 18 17  1  0
 19 21  1  0
 19 20  1  6
 21 23  2  0
 21 22  1  0
M  END
$$$$
