YGE.pdb
     RDKit          3D

 26 26  0  0  1  0  0  0  0  0999 V2000
   20.7175  -19.2941  -15.0246 O   0  0  0  0  0  0  0  0  0  0  0  0
   20.6242  -17.9626  -15.4339 C   0  0  0  0  0  0  0  0  0  0  0  0
   19.7885  -17.6037  -16.4695 C   0  0  0  0  0  0  0  0  0  0  0  0
   19.7184  -16.2882  -16.8487 C   0  0  0  0  0  0  0  0  0  0  0  0
   20.4556  -15.2701  -16.2384 C   0  0  0  0  0  0  0  0  0  0  0  0
   20.3372  -13.8628  -16.6945 C   0  0  0  0  0  0  0  0  0  0  0  0
   19.4625  -13.0531  -15.7496 C   0  0  2  0  0  0  0  0  0  0  0  0
   18.2216  -13.7624  -15.6069 N   0  0  0  0  0  0  0  0  0  0  0  0
   19.2626  -11.6751  -16.2968 C   0  0  0  0  0  0  0  0  0  0  0  0
   18.4413  -11.4137  -17.2037 O   0  0  0  0  0  0  0  0  0  0  0  0
   21.2834  -15.6560  -15.2058 C   0  0  0  0  0  0  0  0  0  0  0  0
   21.3648  -16.9722  -14.8135 C   0  0  0  0  0  0  0  0  0  0  0  0
   20.0261  -10.6098  -15.7780 N   0  0  0  0  0  0  0  0  0  0  0  0
   19.9646   -9.2556  -16.2690 C   0  0  0  0  0  0  0  0  0  0  0  0
   20.8178   -8.3362  -15.4500 C   0  0  0  0  0  0  0  0  0  0  0  0
   21.3485   -8.7941  -14.4042 O   0  0  0  0  0  0  0  0  0  0  0  0
   21.0487   -6.9964  -15.7960 N   0  0  0  0  0  0  0  0  0  0  0  0
   21.8670   -6.0870  -14.9885 C   0  0  1  0  0  0  0  0  0  0  0  0
   22.2948   -4.9008  -15.7555 C   0  0  0  0  0  0  0  0  0  0  0  0
   22.9370   -5.2227  -17.0513 C   0  0  0  0  0  0  0  0  0  0  0  0
   23.3338   -4.1692  -17.9534 C   0  0  0  0  0  0  0  0  0  0  0  0
   24.0115   -3.1904  -17.6827 O   0  0  0  0  0  0  0  0  0  0  0  0
   21.3004   -5.8858  -13.6633 C   0  0  0  0  0  0  0  0  0  0  0  0
   22.1067   -5.7534  -12.5240 O   0  0  0  0  0  0  0  0  0  0  0  0
   22.9067   -4.2504  -19.3054 O   0  0  0  0  0  0  0  0  0  0  0  0
   20.0380   -5.8162  -13.4527 O   0  0  0  0  0  0  0  0  0  0  0  0
  1  2  1  0
  2  3  2  0
  3  4  1  0
  5  4  2  0
  5  6  1  0
  6  7  1  0
  7  9  1  0
  7  8  1  6
  9 13  1  0
 10  9  2  0
 11  5  1  0
 12  2  1  0
 12 11  2  0
 13 14  1  0
 15 17  1  0
 15 14  1  0
 16 15  2  0
 18 17  1  0
 18 23  1  0
 18 19  1  6
 20 19  1  0
 21 20  1  0
 22 21  2  0
 23 24  1  0
 25 21  1  0
 26 23  2  0
M  END
$$$$
