YGE.pdb
     RDKit          3D

 26 26  0  0  1  0  0  0  0  0999 V2000
   23.0050  -31.7875  -12.1198 O   0  0  0  0  0  0  0  0  0  0  0  0
   23.9500  -32.0797  -11.1346 C   0  0  0  0  0  0  0  0  0  0  0  0
   24.1751  -31.2023  -10.0958 C   0  0  0  0  0  0  0  0  0  0  0  0
   25.1096  -31.5170   -9.1435 C   0  0  0  0  0  0  0  0  0  0  0  0
   25.8617  -32.6945   -9.1616 C   0  0  0  0  0  0  0  0  0  0  0  0
   26.8603  -32.9793   -8.1014 C   0  0  0  0  0  0  0  0  0  0  0  0
   26.3045  -33.9529   -7.0733 C   0  0  2  0  0  0  0  0  0  0  0  0
   25.2112  -33.2952   -6.4133 N   0  0  0  0  0  0  0  0  0  0  0  0
   27.3820  -34.3508   -6.1149 C   0  0  0  0  0  0  0  0  0  0  0  0
   27.7810  -33.6083   -5.1903 O   0  0  0  0  0  0  0  0  0  0  0  0
   25.6172  -33.5544  -10.2111 C   0  0  0  0  0  0  0  0  0  0  0  0
   24.6826  -33.2528  -11.1747 C   0  0  0  0  0  0  0  0  0  0  0  0
   27.9866  -35.6175   -6.2445 N   0  0  0  0  0  0  0  0  0  0  0  0
   29.1164  -36.0588   -5.4649 C   0  0  0  0  0  0  0  0  0  0  0  0
   28.7352  -36.3037   -4.0370 C   0  0  0  0  0  0  0  0  0  0  0  0
   27.5296  -36.1472   -3.7100 O   0  0  0  0  0  0  0  0  0  0  0  0
   29.6577  -36.6968   -3.0560 N   0  0  0  0  0  0  0  0  0  0  0  0
   29.2676  -37.1071   -1.7040 C   0  0  1  0  0  0  0  0  0  0  0  0
   30.2900  -37.9622   -1.0697 C   0  0  0  0  0  0  0  0  0  0  0  0
   29.8809  -38.5151    0.2425 C   0  0  0  0  0  0  0  0  0  0  0  0
   30.7896  -39.3337    1.0074 C   0  0  0  0  0  0  0  0  0  0  0  0
   31.9774  -39.1259    1.1990 O   0  0  0  0  0  0  0  0  0  0  0  0
   28.7257  -35.9943   -0.9386 C   0  0  0  0  0  0  0  0  0  0  0  0
   27.6456  -36.1547   -0.0593 O   0  0  0  0  0  0  0  0  0  0  0  0
   30.2793  -40.5121    1.6136 O   0  0  0  0  0  0  0  0  0  0  0  0
   29.1969  -34.8049   -1.0171 O   0  0  0  0  0  0  0  0  0  0  0  0
  1  2  1  0
  2  3  2  0
  3  4  1  0
  5  4  2  0
  5  6  1  0
  6  7  1  0
  7  9  1  0
  7  8  1  1
  9 13  1  0
 10  9  2  0
 11  5  1  0
 12  2  1  0
 12 11  2  0
 13 14  1  0
 15 17  1  0
 15 14  1  0
 16 15  2  0
 18 17  1  0
 18 23  1  0
 18 19  1  1
 20 19  1  0
 21 20  1  0
 22 21  2  0
 23 24  1  0
 25 21  1  0
 26 23  2  0
M  END
$$$$
