YGE.pdb
     RDKit          3D

 26 26  0  0  1  0  0  0  0  0999 V2000
   22.8361  -18.9367  -16.8173 O   0  0  0  0  0  0  0  0  0  0  0  0
   24.0347  -19.5679  -17.1552 C   0  0  0  0  0  0  0  0  0  0  0  0
   24.9472  -18.9459  -17.9800 C   0  0  0  0  0  0  0  0  0  0  0  0
   26.1153  -19.5910  -18.2939 C   0  0  0  0  0  0  0  0  0  0  0  0
   26.4437  -20.8639  -17.8202 C   0  0  0  0  0  0  0  0  0  0  0  0
   27.7249  -21.5116  -18.1961 C   0  0  0  0  0  0  0  0  0  0  0  0
   28.8936  -20.8872  -17.4492 C   0  0  2  0  0  0  0  0  0  0  0  0
   30.0911  -21.5171  -17.9315 N   0  0  0  0  0  0  0  0  0  0  0  0
   28.7142  -21.0748  -15.9759 C   0  0  0  0  0  0  0  0  0  0  0  0
   28.6770  -22.2005  -15.4310 O   0  0  0  0  0  0  0  0  0  0  0  0
   25.5141  -21.4636  -16.9976 C   0  0  0  0  0  0  0  0  0  0  0  0
   24.3370  -20.8291  -16.6733 C   0  0  0  0  0  0  0  0  0  0  0  0
   28.5797  -19.9420  -15.1479 N   0  0  0  0  0  0  0  0  0  0  0  0
   28.3858  -20.0011  -13.7204 C   0  0  0  0  0  0  0  0  0  0  0  0
   26.9334  -20.1035  -13.3682 C   0  0  0  0  0  0  0  0  0  0  0  0
   26.0958  -19.5774  -14.1471 O   0  0  0  0  0  0  0  0  0  0  0  0
   26.4702  -20.7557  -12.2157 N   0  0  0  0  0  0  0  0  0  0  0  0
   25.0516  -20.8456  -11.8580 C   0  0  1  0  0  0  0  0  0  0  0  0
   24.4037  -22.0266  -12.4612 C   0  0  0  0  0  0  0  0  0  0  0  0
   22.9445  -22.1022  -12.2161 C   0  0  0  0  0  0  0  0  0  0  0  0
   22.0663  -22.6873  -13.1998 C   0  0  0  0  0  0  0  0  0  0  0  0
   21.5386  -23.7870  -13.1479 O   0  0  0  0  0  0  0  0  0  0  0  0
   24.8355  -20.5863  -10.4424 C   0  0  0  0  0  0  0  0  0  0  0  0
   25.8454  -20.7815   -9.4898 O   0  0  0  0  0  0  0  0  0  0  0  0
   21.7649  -21.9292  -14.3621 O   0  0  0  0  0  0  0  0  0  0  0  0
   23.7175  -20.1654   -9.9779 O   0  0  0  0  0  0  0  0  0  0  0  0
  1  2  1  0
  2  3  2  0
  3  4  1  0
  5  4  2  0
  5  6  1  0
  6  7  1  0
  7  9  1  0
  7  8  1  6
  9 13  1  0
 10  9  2  0
 11  5  1  0
 12  2  1  0
 12 11  2  0
 13 14  1  0
 15 17  1  0
 15 14  1  0
 16 15  2  0
 18 17  1  0
 18 23  1  0
 18 19  1  1
 20 19  1  0
 21 20  1  0
 22 21  2  0
 23 24  1  0
 25 21  1  0
 26 23  2  0
M  END
$$$$
