YGE.pdb
     RDKit          3D

 26 26  0  0  1  0  0  0  0  0999 V2000
   29.5587  -18.9705   -3.9687 O   0  0  0  0  0  0  0  0  0  0  0  0
   29.0145  -19.4616   -5.1568 C   0  0  0  0  0  0  0  0  0  0  0  0
   29.7964  -20.1621   -6.0500 C   0  0  0  0  0  0  0  0  0  0  0  0
   29.2335  -20.6319   -7.2083 C   0  0  0  0  0  0  0  0  0  0  0  0
   27.8910  -20.4407   -7.5452 C   0  0  0  0  0  0  0  0  0  0  0  0
   27.3390  -20.9734   -8.8156 C   0  0  0  0  0  0  0  0  0  0  0  0
   26.0192  -20.3019   -9.1631 C   0  0  2  0  0  0  0  0  0  0  0  0
   25.0537  -20.7348   -8.1915 N   0  0  0  0  0  0  0  0  0  0  0  0
   25.6154  -20.6648  -10.5571 C   0  0  0  0  0  0  0  0  0  0  0  0
   26.3515  -20.4774  -11.5513 O   0  0  0  0  0  0  0  0  0  0  0  0
   27.1314  -19.7371   -6.6350 C   0  0  0  0  0  0  0  0  0  0  0  0
   27.6817  -19.2592   -5.4680 C   0  0  0  0  0  0  0  0  0  0  0  0
   24.3506  -21.2462  -10.7792 N   0  0  0  0  0  0  0  0  0  0  0  0
   23.1505  -20.4946  -11.0502 C   0  0  0  0  0  0  0  0  0  0  0  0
   23.1858  -19.8786  -12.4152 C   0  0  0  0  0  0  0  0  0  0  0  0
   24.2992  -19.7866  -12.9956 O   0  0  0  0  0  0  0  0  0  0  0  0
   22.0395  -19.4031  -13.0694 N   0  0  0  0  0  0  0  0  0  0  0  0
   21.9453  -19.2613  -14.5253 C   0  0  1  0  0  0  0  0  0  0  0  0
   22.4083  -20.4731  -15.2293 C   0  0  0  0  0  0  0  0  0  0  0  0
   21.4844  -21.6255  -15.1130 C   0  0  0  0  0  0  0  0  0  0  0  0
   21.7623  -22.8595  -15.8065 C   0  0  0  0  0  0  0  0  0  0  0  0
   21.1909  -23.9280  -15.6566 O   0  0  0  0  0  0  0  0  0  0  0  0
   20.6783  -18.6696  -14.9280 C   0  0  0  0  0  0  0  0  0  0  0  0
   19.6375  -18.4517  -14.0143 O   0  0  0  0  0  0  0  0  0  0  0  0
   22.8046  -22.8645  -16.7709 O   0  0  0  0  0  0  0  0  0  0  0  0
   20.4331  -18.3114  -16.1340 O   0  0  0  0  0  0  0  0  0  0  0  0
  1  2  1  0
  2  3  2  0
  3  4  1  0
  5  4  2  0
  5  6  1  0
  6  7  1  0
  7  9  1  0
  7  8  1  1
  9 13  1  0
 10  9  2  0
 11  5  1  0
 12  2  1  0
 12 11  2  0
 13 14  1  0
 15 17  1  0
 15 14  1  0
 16 15  2  0
 18 17  1  0
 18 23  1  0
 18 19  1  6
 20 19  1  0
 21 20  1  0
 22 21  2  0
 23 24  1  0
 25 21  1  0
 26 23  2  0
M  END
$$$$
