YGE.pdb
     RDKit          3D

 26 26  0  0  1  0  0  0  0  0999 V2000
   16.8451  -21.8848  -17.1924 O   0  0  0  0  0  0  0  0  0  0  0  0
   16.9264  -22.0256  -15.8058 C   0  0  0  0  0  0  0  0  0  0  0  0
   17.8091  -21.2612  -15.0734 C   0  0  0  0  0  0  0  0  0  0  0  0
   17.8661  -21.4221  -13.7132 C   0  0  0  0  0  0  0  0  0  0  0  0
   17.0695  -22.3301  -13.0108 C   0  0  0  0  0  0  0  0  0  0  0  0
   17.1774  -22.4594  -11.5363 C   0  0  0  0  0  0  0  0  0  0  0  0
   18.4940  -23.1091  -11.1388 C   0  0  2  0  0  0  0  0  0  0  0  0
   18.4784  -24.4500  -11.6538 N   0  0  0  0  0  0  0  0  0  0  0  0
   18.6467  -23.0802   -9.6509 C   0  0  0  0  0  0  0  0  0  0  0  0
   18.4273  -22.0589   -8.9623 O   0  0  0  0  0  0  0  0  0  0  0  0
   16.1957  -23.0820  -13.7669 C   0  0  0  0  0  0  0  0  0  0  0  0
   16.1267  -22.9322  -15.1329 C   0  0  0  0  0  0  0  0  0  0  0  0
   19.0551  -24.2489   -8.9770 N   0  0  0  0  0  0  0  0  0  0  0  0
   19.3882  -24.3004   -7.5751 C   0  0  0  0  0  0  0  0  0  0  0  0
   18.2583  -24.8556   -6.7631 C   0  0  0  0  0  0  0  0  0  0  0  0
   17.1792  -25.1231   -7.3538 O   0  0  0  0  0  0  0  0  0  0  0  0
   18.3508  -25.0881   -5.3828 N   0  0  0  0  0  0  0  0  0  0  0  0
   17.2791  -25.7083   -4.5984 C   0  0  1  0  0  0  0  0  0  0  0  0
   17.8083  -26.5179   -3.4835 C   0  0  0  0  0  0  0  0  0  0  0  0
   17.5923  -27.9749   -3.6435 C   0  0  0  0  0  0  0  0  0  0  0  0
   17.3417  -28.8086   -2.4932 C   0  0  0  0  0  0  0  0  0  0  0  0
   16.9557  -29.9668   -2.4989 O   0  0  0  0  0  0  0  0  0  0  0  0
   16.2024  -24.7696   -4.3206 C   0  0  0  0  0  0  0  0  0  0  0  0
   16.4103  -23.3831   -4.3134 O   0  0  0  0  0  0  0  0  0  0  0  0
   17.5572  -28.2522   -1.2045 O   0  0  0  0  0  0  0  0  0  0  0  0
   15.0036  -25.1456   -4.0672 O   0  0  0  0  0  0  0  0  0  0  0  0
  1  2  1  0
  2  3  2  0
  3  4  1  0
  5  4  2  0
  5  6  1  0
  6  7  1  0
  7  9  1  0
  7  8  1  1
  9 13  1  0
 10  9  2  0
 11  5  1  0
 12  2  1  0
 12 11  2  0
 13 14  1  0
 15 17  1  0
 15 14  1  0
 16 15  2  0
 18 17  1  0
 18 23  1  0
 18 19  1  1
 20 19  1  0
 21 20  1  0
 22 21  2  0
 23 24  1  0
 25 21  1  0
 26 23  2  0
M  END
$$$$
