YGE.pdb
     RDKit          3D

 26 26  0  0  1  0  0  0  0  0999 V2000
   28.1397  -19.9231   -5.4828 O   0  0  0  0  0  0  0  0  0  0  0  0
   27.9419  -19.9727   -6.8639 C   0  0  0  0  0  0  0  0  0  0  0  0
   28.9579  -20.3739   -7.7044 C   0  0  0  0  0  0  0  0  0  0  0  0
   28.7334  -20.4123   -9.0562 C   0  0  0  0  0  0  0  0  0  0  0  0
   27.5152  -20.0635   -9.6451 C   0  0  0  0  0  0  0  0  0  0  0  0
   27.3330  -20.1250  -11.1166 C   0  0  0  0  0  0  0  0  0  0  0  0
   26.3658  -21.2338  -11.5024 C   0  0  2  0  0  0  0  0  0  0  0  0
   27.1491  -22.3156  -12.0312 N   0  0  0  0  0  0  0  0  0  0  0  0
   25.3735  -20.7199  -12.4970 C   0  0  0  0  0  0  0  0  0  0  0  0
   25.6273  -20.6043  -13.7167 O   0  0  0  0  0  0  0  0  0  0  0  0
   26.5161  -19.6660   -8.7823 C   0  0  0  0  0  0  0  0  0  0  0  0
   26.7259  -19.6221   -7.4232 C   0  0  0  0  0  0  0  0  0  0  0  0
   24.0879  -20.3443  -12.0574 N   0  0  0  0  0  0  0  0  0  0  0  0
   23.0365  -19.8838  -12.9298 C   0  0  0  0  0  0  0  0  0  0  0  0
   22.1025  -20.9958  -13.2973 C   0  0  0  0  0  0  0  0  0  0  0  0
   22.4648  -22.1777  -13.0587 O   0  0  0  0  0  0  0  0  0  0  0  0
   20.8507  -20.7780  -13.8920 N   0  0  0  0  0  0  0  0  0  0  0  0
   19.8861  -21.8508  -14.1511 C   0  0  1  0  0  0  0  0  0  0  0  0
   18.9426  -22.0278  -13.0299 C   0  0  0  0  0  0  0  0  0  0  0  0
   17.9881  -23.1451  -13.2187 C   0  0  0  0  0  0  0  0  0  0  0  0
   16.9728  -23.4155  -12.2301 C   0  0  0  0  0  0  0  0  0  0  0  0
   15.7677  -23.4764  -12.4164 O   0  0  0  0  0  0  0  0  0  0  0  0
   19.3488  -21.7774  -15.5016 C   0  0  0  0  0  0  0  0  0  0  0  0
   18.7320  -20.6182  -15.9927 O   0  0  0  0  0  0  0  0  0  0  0  0
   17.3868  -23.6383  -10.8901 O   0  0  0  0  0  0  0  0  0  0  0  0
   19.4045  -22.7592  -16.3236 O   0  0  0  0  0  0  0  0  0  0  0  0
  1  2  1  0
  2  3  2  0
  3  4  1  0
  5  4  2  0
  5  6  1  0
  6  7  1  0
  7  9  1  0
  7  8  1  6
  9 13  1  0
 10  9  2  0
 11  5  1  0
 12  2  1  0
 12 11  2  0
 13 14  1  0
 15 17  1  0
 15 14  1  0
 16 15  2  0
 18 17  1  0
 18 23  1  0
 18 19  1  1
 20 19  1  0
 21 20  1  0
 22 21  2  0
 23 24  1  0
 25 21  1  0
 26 23  2  0
M  END
$$$$
