YGE.pdb
     RDKit          3D

 26 26  0  0  1  0  0  0  0  0999 V2000
   27.0884  -17.5694  -15.5927 O   0  0  0  0  0  0  0  0  0  0  0  0
   26.3425  -16.4222  -15.8693 C   0  0  0  0  0  0  0  0  0  0  0  0
   26.4355  -15.3121  -15.0576 C   0  0  0  0  0  0  0  0  0  0  0  0
   25.6905  -14.2004  -15.3549 C   0  0  0  0  0  0  0  0  0  0  0  0
   24.8269  -14.1221  -16.4506 C   0  0  0  0  0  0  0  0  0  0  0  0
   24.0452  -12.8898  -16.7205 C   0  0  0  0  0  0  0  0  0  0  0  0
   22.9233  -12.7205  -15.7075 C   0  0  2  0  0  0  0  0  0  0  0  0
   22.2399  -13.9808  -15.6161 N   0  0  0  0  0  0  0  0  0  0  0  0
   22.0107  -11.6164  -16.1389 C   0  0  0  0  0  0  0  0  0  0  0  0
   21.0103  -11.8032  -16.8667 O   0  0  0  0  0  0  0  0  0  0  0  0
   24.7525  -15.2458  -17.2459 C   0  0  0  0  0  0  0  0  0  0  0  0
   25.4938  -16.3693  -16.9607 C   0  0  0  0  0  0  0  0  0  0  0  0
   22.2748  -10.2983  -15.7148 N   0  0  0  0  0  0  0  0  0  0  0  0
   21.4883   -9.1520  -16.0973 C   0  0  0  0  0  0  0  0  0  0  0  0
   21.9057   -7.9252  -15.3458 C   0  0  0  0  0  0  0  0  0  0  0  0
   22.7838   -8.0476  -14.4519 O   0  0  0  0  0  0  0  0  0  0  0  0
   21.3637   -6.6553  -15.5937 N   0  0  0  0  0  0  0  0  0  0  0  0
   21.7341   -5.4600  -14.8303 C   0  0  1  0  0  0  0  0  0  0  0  0
   21.3492   -4.2177  -15.5283 C   0  0  0  0  0  0  0  0  0  0  0  0
   21.6582   -2.9826  -14.7707 C   0  0  0  0  0  0  0  0  0  0  0  0
   21.3101   -1.6890  -15.3061 C   0  0  0  0  0  0  0  0  0  0  0  0
   20.7818   -1.4606  -16.3828 O   0  0  0  0  0  0  0  0  0  0  0  0
   21.3958   -5.5944  -13.4214 C   0  0  0  0  0  0  0  0  0  0  0  0
   22.1835   -5.0241  -12.4115 O   0  0  0  0  0  0  0  0  0  0  0  0
   21.6000   -0.5409  -14.5222 O   0  0  0  0  0  0  0  0  0  0  0  0
   20.3640   -6.2370  -13.0148 O   0  0  0  0  0  0  0  0  0  0  0  0
  1  2  1  0
  2  3  2  0
  3  4  1  0
  5  4  2  0
  5  6  1  0
  6  7  1  0
  7  9  1  0
  7  8  1  6
  9 13  1  0
 10  9  2  0
 11  5  1  0
 12  2  1  0
 12 11  2  0
 13 14  1  0
 15 17  1  0
 15 14  1  0
 16 15  2  0
 18 17  1  0
 18 23  1  0
 18 19  1  6
 20 19  1  0
 21 20  1  0
 22 21  2  0
 23 24  1  0
 25 21  1  0
 26 23  2  0
M  END
$$$$
