YGE.pdb
     RDKit          3D

 26 26  0  0  1  0  0  0  0  0999 V2000
   22.7820  -21.9232   -7.7932 O   0  0  0  0  0  0  0  0  0  0  0  0
   23.6379  -21.4672   -8.7975 C   0  0  0  0  0  0  0  0  0  0  0  0
   24.9702  -21.2345   -8.5320 C   0  0  0  0  0  0  0  0  0  0  0  0
   25.7858  -20.7869   -9.5388 C   0  0  0  0  0  0  0  0  0  0  0  0
   25.3412  -20.5479  -10.8417 C   0  0  0  0  0  0  0  0  0  0  0  0
   26.2731  -20.0625  -11.8897 C   0  0  0  0  0  0  0  0  0  0  0  0
   26.0535  -20.8002  -13.2017 C   0  0  2  0  0  0  0  0  0  0  0  0
   26.3781  -22.1806  -12.9722 N   0  0  0  0  0  0  0  0  0  0  0  0
   26.9021  -20.1941  -14.2743 C   0  0  0  0  0  0  0  0  0  0  0  0
   27.6557  -19.2152  -14.0765 O   0  0  0  0  0  0  0  0  0  0  0  0
   24.0049  -20.7884  -11.0804 C   0  0  0  0  0  0  0  0  0  0  0  0
   23.1734  -21.2378  -10.0805 C   0  0  0  0  0  0  0  0  0  0  0  0
   26.8639  -20.7388  -15.5738 N   0  0  0  0  0  0  0  0  0  0  0  0
   25.7032  -20.7125  -16.4288 C   0  0  0  0  0  0  0  0  0  0  0  0
   25.3773  -19.3179  -16.8681 C   0  0  0  0  0  0  0  0  0  0  0  0
   25.4265  -18.3989  -16.0090 O   0  0  0  0  0  0  0  0  0  0  0  0
   25.0220  -18.9949  -18.1862 N   0  0  0  0  0  0  0  0  0  0  0  0
   24.4434  -17.7038  -18.5694 C   0  0  1  0  0  0  0  0  0  0  0  0
   25.0582  -17.1662  -19.7989 C   0  0  0  0  0  0  0  0  0  0  0  0
   26.5149  -17.4164  -19.9011 C   0  0  0  0  0  0  0  0  0  0  0  0
   27.2536  -16.9771  -21.0597 C   0  0  0  0  0  0  0  0  0  0  0  0
   27.0235  -17.2597  -22.2249 O   0  0  0  0  0  0  0  0  0  0  0  0
   22.9916  -17.7133  -18.4698 C   0  0  0  0  0  0  0  0  0  0  0  0
   22.2551  -16.5402  -18.2532 O   0  0  0  0  0  0  0  0  0  0  0  0
   28.3718  -16.1255  -20.8564 O   0  0  0  0  0  0  0  0  0  0  0  0
   22.2971  -18.7855  -18.5733 O   0  0  0  0  0  0  0  0  0  0  0  0
  1  2  1  0
  2  3  2  0
  3  4  1  0
  5  4  2  0
  5  6  1  0
  6  7  1  0
  7  9  1  0
  7  8  1  1
  9 13  1  0
 10  9  2  0
 11  5  1  0
 12  2  1  0
 12 11  2  0
 13 14  1  0
 15 17  1  0
 15 14  1  0
 16 15  2  0
 18 17  1  0
 18 23  1  0
 18 19  1  6
 20 19  1  0
 21 20  1  0
 22 21  2  0
 23 24  1  0
 25 21  1  0
 26 23  2  0
M  END
$$$$
