YGE.pdb
     RDKit          3D

 26 26  0  0  1  0  0  0  0  0999 V2000
   22.1971  -20.3996  -17.7674 O   0  0  0  0  0  0  0  0  0  0  0  0
   21.4577  -19.2317  -17.9632 C   0  0  0  0  0  0  0  0  0  0  0  0
   20.1152  -19.2940  -18.2689 C   0  0  0  0  0  0  0  0  0  0  0  0
   19.4158  -18.1298  -18.4555 C   0  0  0  0  0  0  0  0  0  0  0  0
   19.9910  -16.8606  -18.3528 C   0  0  0  0  0  0  0  0  0  0  0  0
   19.1812  -15.6355  -18.5668 C   0  0  0  0  0  0  0  0  0  0  0  0
   18.6934  -15.0640  -17.2442 C   0  0  2  0  0  0  0  0  0  0  0  0
   17.9505  -16.1000  -16.5822 N   0  0  0  0  0  0  0  0  0  0  0  0
   17.8607  -13.8463  -17.4925 C   0  0  0  0  0  0  0  0  0  0  0  0
   16.6121  -13.8771  -17.5669 O   0  0  0  0  0  0  0  0  0  0  0  0
   21.3347  -16.8264  -18.0463 C   0  0  0  0  0  0  0  0  0  0  0  0
   22.0504  -17.9860  -17.8561 C   0  0  0  0  0  0  0  0  0  0  0  0
   18.4954  -12.5978  -17.6519 N   0  0  0  0  0  0  0  0  0  0  0  0
   17.7950  -11.3527  -17.8467 C   0  0  0  0  0  0  0  0  0  0  0  0
   18.0559  -10.3954  -16.7244 C   0  0  0  0  0  0  0  0  0  0  0  0
   18.6026  -10.8398  -15.6810 O   0  0  0  0  0  0  0  0  0  0  0  0
   17.7194   -9.0349  -16.7860 N   0  0  0  0  0  0  0  0  0  0  0  0
   18.1100   -8.0628  -15.7608 C   0  0  1  0  0  0  0  0  0  0  0  0
   18.6808   -6.8365  -16.3514 C   0  0  0  0  0  0  0  0  0  0  0  0
   17.6885   -5.7595  -16.5758 C   0  0  0  0  0  0  0  0  0  0  0  0
   18.1089   -4.4642  -17.0517 C   0  0  0  0  0  0  0  0  0  0  0  0
   19.2567   -4.0829  -17.2185 O   0  0  0  0  0  0  0  0  0  0  0  0
   17.0891   -7.9245  -14.7329 C   0  0  0  0  0  0  0  0  0  0  0  0
   17.4129   -7.6350  -13.3999 O   0  0  0  0  0  0  0  0  0  0  0  0
   17.1057   -3.5100  -17.3677 O   0  0  0  0  0  0  0  0  0  0  0  0
   15.8378   -8.0564  -14.9771 O   0  0  0  0  0  0  0  0  0  0  0  0
  1  2  1  0
  2  3  2  0
  3  4  1  0
  5  4  2  0
  5  6  1  0
  6  7  1  0
  7  9  1  0
  7  8  1  6
  9 13  1  0
 10  9  2  0
 11  5  1  0
 12  2  1  0
 12 11  2  0
 13 14  1  0
 15 17  1  0
 15 14  1  0
 16 15  2  0
 18 17  1  0
 18 23  1  0
 18 19  1  6
 20 19  1  0
 21 20  1  0
 22 21  2  0
 23 24  1  0
 25 21  1  0
 26 23  2  0
M  END
$$$$
