YGE.pdb
     RDKit          3D

 26 26  0  0  1  0  0  0  0  0999 V2000
   29.1887  -18.8898   -2.8540 O   0  0  0  0  0  0  0  0  0  0  0  0
   28.8785  -19.3174   -4.1462 C   0  0  0  0  0  0  0  0  0  0  0  0
   29.2517  -20.5718   -4.5789 C   0  0  0  0  0  0  0  0  0  0  0  0
   28.9329  -20.9632   -5.8534 C   0  0  0  0  0  0  0  0  0  0  0  0
   28.2397  -20.1539   -6.7573 C   0  0  0  0  0  0  0  0  0  0  0  0
   27.9238  -20.6341   -8.1255 C   0  0  0  0  0  0  0  0  0  0  0  0
   26.4976  -20.2767   -8.5152 C   0  0  2  0  0  0  0  0  0  0  0  0
   25.6225  -21.0316   -7.6620 N   0  0  0  0  0  0  0  0  0  0  0  0
   26.2737  -20.5832   -9.9622 C   0  0  0  0  0  0  0  0  0  0  0  0
   26.9686  -20.0915  -10.8792 O   0  0  0  0  0  0  0  0  0  0  0  0
   27.8784  -18.9048   -6.2995 C   0  0  0  0  0  0  0  0  0  0  0  0
   28.1911  -18.4971   -5.0231 C   0  0  0  0  0  0  0  0  0  0  0  0
   25.2365  -21.4650  -10.3277 N   0  0  0  0  0  0  0  0  0  0  0  0
   24.8485  -21.7382  -11.6892 C   0  0  0  0  0  0  0  0  0  0  0  0
   23.5810  -21.0266  -12.0513 C   0  0  0  0  0  0  0  0  0  0  0  0
   22.9310  -20.4671  -11.1297 O   0  0  0  0  0  0  0  0  0  0  0  0
   23.0909  -20.9579  -13.3640 N   0  0  0  0  0  0  0  0  0  0  0  0
   21.8772  -20.2229  -13.7317 C   0  0  1  0  0  0  0  0  0  0  0  0
   21.8456  -19.8933  -15.1701 C   0  0  0  0  0  0  0  0  0  0  0  0
   21.3872  -21.0079  -16.0319 C   0  0  0  0  0  0  0  0  0  0  0  0
   21.4141  -20.8811  -17.4686 C   0  0  0  0  0  0  0  0  0  0  0  0
   20.7002  -21.4653  -18.2684 O   0  0  0  0  0  0  0  0  0  0  0  0
   20.6890  -20.8102  -13.1309 C   0  0  0  0  0  0  0  0  0  0  0  0
   20.6425  -22.1562  -12.7416 O   0  0  0  0  0  0  0  0  0  0  0  0
   22.3596  -19.9913  -18.0438 O   0  0  0  0  0  0  0  0  0  0  0  0
   19.6166  -20.1408  -12.9194 O   0  0  0  0  0  0  0  0  0  0  0  0
  1  2  1  0
  2  3  2  0
  3  4  1  0
  5  4  2  0
  5  6  1  0
  6  7  1  0
  7  9  1  0
  7  8  1  1
  9 13  1  0
 10  9  2  0
 11  5  1  0
 12  2  1  0
 12 11  2  0
 13 14  1  0
 15 17  1  0
 15 14  1  0
 16 15  2  0
 18 17  1  0
 18 23  1  0
 18 19  1  6
 20 19  1  0
 21 20  1  0
 22 21  2  0
 23 24  1  0
 25 21  1  0
 26 23  2  0
M  END
$$$$
