YGE.pdb
     RDKit          3D

 26 26  0  0  1  0  0  0  0  0999 V2000
   20.1412  -18.8675  -15.4038 O   0  0  0  0  0  0  0  0  0  0  0  0
   20.2949  -17.5088  -15.6857 C   0  0  0  0  0  0  0  0  0  0  0  0
   20.0852  -17.0285  -16.9605 C   0  0  0  0  0  0  0  0  0  0  0  0
   20.2438  -15.6892  -17.2063 C   0  0  0  0  0  0  0  0  0  0  0  0
   20.6118  -14.7642  -16.2259 C   0  0  0  0  0  0  0  0  0  0  0  0
   20.7686  -13.3253  -16.5538 C   0  0  0  0  0  0  0  0  0  0  0  0
   22.0570  -13.0766  -17.3230 C   0  0  2  0  0  0  0  0  0  0  0  0
   23.1424  -13.2313  -16.3948 N   0  0  0  0  0  0  0  0  0  0  0  0
   22.0296  -11.7110  -17.9332 C   0  0  0  0  0  0  0  0  0  0  0  0
   21.2019  -11.3709  -18.8075 O   0  0  0  0  0  0  0  0  0  0  0  0
   20.8154  -15.2706  -14.9599 C   0  0  0  0  0  0  0  0  0  0  0  0
   20.6601  -16.6123  -14.6972 C   0  0  0  0  0  0  0  0  0  0  0  0
   22.9724  -10.7500  -17.5151 N   0  0  0  0  0  0  0  0  0  0  0  0
   23.0902   -9.4306  -18.0843 C   0  0  0  0  0  0  0  0  0  0  0  0
   22.0282   -8.5117  -17.5629 C   0  0  0  0  0  0  0  0  0  0  0  0
   21.0479   -9.0208  -16.9590 O   0  0  0  0  0  0  0  0  0  0  0  0
   22.0791   -7.1183  -17.7179 N   0  0  0  0  0  0  0  0  0  0  0  0
   21.0868   -6.2082  -17.1388 C   0  0  1  0  0  0  0  0  0  0  0  0
   20.8439   -6.4924  -15.7109 C   0  0  0  0  0  0  0  0  0  0  0  0
   21.9717   -6.1224  -14.8243 C   0  0  0  0  0  0  0  0  0  0  0  0
   21.8290   -6.1915  -13.3905 C   0  0  0  0  0  0  0  0  0  0  0  0
   22.6488   -5.8427  -12.5556 O   0  0  0  0  0  0  0  0  0  0  0  0
   21.3228   -4.8290  -17.5386 C   0  0  0  0  0  0  0  0  0  0  0  0
   22.3903   -4.4709  -18.3739 O   0  0  0  0  0  0  0  0  0  0  0  0
   20.6190   -6.7159  -12.8635 O   0  0  0  0  0  0  0  0  0  0  0  0
   20.5761   -3.8596  -17.1570 O   0  0  0  0  0  0  0  0  0  0  0  0
  1  2  1  0
  2  3  2  0
  3  4  1  0
  5  4  2  0
  5  6  1  0
  6  7  1  0
  7  9  1  0
  7  8  1  1
  9 13  1  0
 10  9  2  0
 11  5  1  0
 12  2  1  0
 12 11  2  0
 13 14  1  0
 15 17  1  0
 15 14  1  0
 16 15  2  0
 18 17  1  0
 18 23  1  0
 18 19  1  1
 20 19  1  0
 21 20  1  0
 22 21  2  0
 23 24  1  0
 25 21  1  0
 26 23  2  0
M  END
$$$$
