YGE.pdb
     RDKit          3D

 26 26  0  0  1  0  0  0  0  0999 V2000
   28.2052  -19.2803   -5.4777 O   0  0  0  0  0  0  0  0  0  0  0  0
   27.8734  -19.8398   -6.7130 C   0  0  0  0  0  0  0  0  0  0  0  0
   28.8581  -20.2791   -7.5716 C   0  0  0  0  0  0  0  0  0  0  0  0
   28.5011  -20.8240   -8.7778 C   0  0  0  0  0  0  0  0  0  0  0  0
   27.1758  -20.9641   -9.1979 C   0  0  0  0  0  0  0  0  0  0  0  0
   26.8519  -21.5621  -10.5169 C   0  0  0  0  0  0  0  0  0  0  0  0
   26.8721  -20.5095  -11.6148 C   0  0  2  0  0  0  0  0  0  0  0  0
   25.8607  -19.5413  -11.2935 N   0  0  0  0  0  0  0  0  0  0  0  0
   26.6307  -21.1548  -12.9427 C   0  0  0  0  0  0  0  0  0  0  0  0
   27.3234  -22.1019  -13.3769 O   0  0  0  0  0  0  0  0  0  0  0  0
   26.2109  -20.5169   -8.3207 C   0  0  0  0  0  0  0  0  0  0  0  0
   26.5532  -19.9676   -7.1065 C   0  0  0  0  0  0  0  0  0  0  0  0
   25.5780  -20.6873  -13.7552 N   0  0  0  0  0  0  0  0  0  0  0  0
   25.3334  -21.1390  -15.1024 C   0  0  0  0  0  0  0  0  0  0  0  0
   24.2616  -22.1847  -15.1440 C   0  0  0  0  0  0  0  0  0  0  0  0
   24.5253  -23.3231  -14.6755 O   0  0  0  0  0  0  0  0  0  0  0  0
   22.9860  -21.9513  -15.6792 N   0  0  0  0  0  0  0  0  0  0  0  0
   21.7604  -22.5247  -15.1155 C   0  0  1  0  0  0  0  0  0  0  0  0
   21.6752  -22.3196  -13.6563 C   0  0  0  0  0  0  0  0  0  0  0  0
   21.3150  -20.9371  -13.2639 C   0  0  0  0  0  0  0  0  0  0  0  0
   21.0847  -20.6056  -11.8789 C   0  0  0  0  0  0  0  0  0  0  0  0
   20.9543  -19.4877  -11.4058 O   0  0  0  0  0  0  0  0  0  0  0  0
   20.5948  -22.2082  -15.9272 C   0  0  0  0  0  0  0  0  0  0  0  0
   20.5142  -21.0296  -16.6821 O   0  0  0  0  0  0  0  0  0  0  0  0
   20.9957  -21.6696  -10.9426 O   0  0  0  0  0  0  0  0  0  0  0  0
   19.5745  -22.9800  -16.0050 O   0  0  0  0  0  0  0  0  0  0  0  0
  1  2  1  0
  2  3  2  0
  3  4  1  0
  5  4  2  0
  5  6  1  0
  6  7  1  0
  7  9  1  0
  7  8  1  1
  9 13  1  0
 10  9  2  0
 11  5  1  0
 12  2  1  0
 12 11  2  0
 13 14  1  0
 15 17  1  0
 15 14  1  0
 16 15  2  0
 18 17  1  0
 18 23  1  0
 18 19  1  1
 20 19  1  0
 21 20  1  0
 22 21  2  0
 23 24  1  0
 25 21  1  0
 26 23  2  0
M  END
$$$$
