YGE.pdb
     RDKit          3D

 26 26  0  0  1  0  0  0  0  0999 V2000
   31.8748  -22.1669  -10.9976 O   0  0  0  0  0  0  0  0  0  0  0  0
   30.5710  -21.6716  -10.9361 C   0  0  0  0  0  0  0  0  0  0  0  0
   30.0578  -20.9163  -11.9685 C   0  0  0  0  0  0  0  0  0  0  0  0
   28.7741  -20.4439  -11.8793 C   0  0  0  0  0  0  0  0  0  0  0  0
   27.9384  -20.6856  -10.7858 C   0  0  0  0  0  0  0  0  0  0  0  0
   26.5565  -20.1461  -10.7467 C   0  0  0  0  0  0  0  0  0  0  0  0
   25.5645  -21.1392  -11.3326 C   0  0  2  0  0  0  0  0  0  0  0  0
   25.9888  -21.4210  -12.6758 N   0  0  0  0  0  0  0  0  0  0  0  0
   24.1837  -20.5652  -11.2882 C   0  0  0  0  0  0  0  0  0  0  0  0
   23.5326  -20.4355  -10.2278 O   0  0  0  0  0  0  0  0  0  0  0  0
   28.4760  -21.4434   -9.7673 C   0  0  0  0  0  0  0  0  0  0  0  0
   29.7628  -21.9247   -9.8420 C   0  0  0  0  0  0  0  0  0  0  0  0
   23.5727  -20.1454  -12.4872 N   0  0  0  0  0  0  0  0  0  0  0  0
   22.8856  -21.0274  -13.3975 C   0  0  0  0  0  0  0  0  0  0  0  0
   21.4002  -20.9505  -13.2192 C   0  0  0  0  0  0  0  0  0  0  0  0
   20.9552  -20.3645  -12.1976 O   0  0  0  0  0  0  0  0  0  0  0  0
   20.4906  -21.4998  -14.1352 N   0  0  0  0  0  0  0  0  0  0  0  0
   19.0388  -21.4843  -13.9342 C   0  0  1  0  0  0  0  0  0  0  0  0
   18.3359  -20.7990  -15.0364 C   0  0  0  0  0  0  0  0  0  0  0  0
   18.7699  -19.3981  -15.2467 C   0  0  0  0  0  0  0  0  0  0  0  0
   18.0778  -18.5506  -16.1868 C   0  0  0  0  0  0  0  0  0  0  0  0
   16.9042  -18.6269  -16.5147 O   0  0  0  0  0  0  0  0  0  0  0  0
   18.5416  -22.7804  -13.4974 C   0  0  0  0  0  0  0  0  0  0  0  0
   17.7118  -22.9171  -12.3757 O   0  0  0  0  0  0  0  0  0  0  0  0
   18.8114  -17.5088  -16.8137 O   0  0  0  0  0  0  0  0  0  0  0  0
   18.8268  -23.8724  -14.1049 O   0  0  0  0  0  0  0  0  0  0  0  0
  1  2  1  0
  2  3  2  0
  3  4  1  0
  5  4  2  0
  5  6  1  0
  6  7  1  0
  7  9  1  0
  7  8  1  6
  9 13  1  0
 10  9  2  0
 11  5  1  0
 12  2  1  0
 12 11  2  0
 13 14  1  0
 15 17  1  0
 15 14  1  0
 16 15  2  0
 18 17  1  0
 18 23  1  0
 18 19  1  6
 20 19  1  0
 21 20  1  0
 22 21  2  0
 23 24  1  0
 25 21  1  0
 26 23  2  0
M  END
$$$$
