YGE.pdb
     RDKit          3D

 26 26  0  0  1  0  0  0  0  0999 V2000
   28.9721  -19.2604   -3.7005 O   0  0  0  0  0  0  0  0  0  0  0  0
   28.4786  -19.7134   -4.9253 C   0  0  0  0  0  0  0  0  0  0  0  0
   27.3813  -20.5460   -4.9751 C   0  0  0  0  0  0  0  0  0  0  0  0
   26.9200  -20.9743   -6.1928 C   0  0  0  0  0  0  0  0  0  0  0  0
   27.5046  -20.6119   -7.4091 C   0  0  0  0  0  0  0  0  0  0  0  0
   26.9594  -21.1090   -8.6967 C   0  0  0  0  0  0  0  0  0  0  0  0
   26.1214  -20.0421   -9.3845 C   0  0  2  0  0  0  0  0  0  0  0  0
   24.7999  -20.1145   -8.8260 N   0  0  0  0  0  0  0  0  0  0  0  0
   26.1200  -20.2710  -10.8629 C   0  0  0  0  0  0  0  0  0  0  0  0
   27.1038  -20.7330  -11.4827 O   0  0  0  0  0  0  0  0  0  0  0  0
   28.6003  -19.7789   -7.3311 C   0  0  0  0  0  0  0  0  0  0  0  0
   29.0754  -19.3404   -6.1165 C   0  0  0  0  0  0  0  0  0  0  0  0
   24.9651  -19.9579  -11.6080 N   0  0  0  0  0  0  0  0  0  0  0  0
   24.8494  -20.1345  -13.0343 C   0  0  0  0  0  0  0  0  0  0  0  0
   23.5725  -20.8276  -13.3991 C   0  0  0  0  0  0  0  0  0  0  0  0
   23.4921  -21.3627  -14.5358 O   0  0  0  0  0  0  0  0  0  0  0  0
   22.4705  -20.9050  -12.5344 N   0  0  0  0  0  0  0  0  0  0  0  0
   21.1971  -21.5273  -12.9086 C   0  0  1  0  0  0  0  0  0  0  0  0
   20.4748  -22.0557  -11.7349 C   0  0  0  0  0  0  0  0  0  0  0  0
   19.1819  -22.6996  -12.0649 C   0  0  0  0  0  0  0  0  0  0  0  0
   18.3592  -23.2657  -11.0240 C   0  0  0  0  0  0  0  0  0  0  0  0
   18.5097  -23.1347   -9.8195 O   0  0  0  0  0  0  0  0  0  0  0  0
   20.4608  -20.7144  -13.8650 C   0  0  0  0  0  0  0  0  0  0  0  0
   20.3169  -19.3289  -13.7055 O   0  0  0  0  0  0  0  0  0  0  0  0
   17.2499  -24.0647  -11.4085 O   0  0  0  0  0  0  0  0  0  0  0  0
   19.9010  -21.2074  -14.9072 O   0  0  0  0  0  0  0  0  0  0  0  0
  1  2  1  0
  2  3  2  0
  3  4  1  0
  5  4  2  0
  5  6  1  0
  6  7  1  0
  7  9  1  0
  7  8  1  1
  9 13  1  0
 10  9  2  0
 11  5  1  0
 12  2  1  0
 12 11  2  0
 13 14  1  0
 15 17  1  0
 15 14  1  0
 16 15  2  0
 18 17  1  0
 18 23  1  0
 18 19  1  1
 20 19  1  0
 21 20  1  0
 22 21  2  0
 23 24  1  0
 25 21  1  0
 26 23  2  0
M  END
$$$$
