CYQ.pdb
     RDKit          3D

 28 28  0  0  1  0  0  0  0  0999 V2000
    7.9474  -12.3045   18.7824 N   0  0  0  0  0  0  0  0  0  0  0  0
    7.7024  -13.6254   19.3131 C   0  0  1  0  0  0  0  0  0  0  0  0
    8.1874  -14.7020   18.3823 C   0  0  0  0  0  0  0  0  0  0  0  0
    7.7523  -16.3139   19.0771 S   0  0  0  0  0  0  0  0  0  0  0  0
    8.3827  -13.7621   20.6285 C   0  0  0  0  0  0  0  0  0  0  0  0
    9.5332  -13.2821   20.8027 O   0  0  0  0  0  0  0  0  0  0  0  0
    6.2629  -11.0842   27.9296 O   0  0  0  0  0  0  0  0  0  0  0  0
    6.5904  -12.0354   26.9724 C   0  0  0  0  0  0  0  0  0  0  0  0
    7.8237  -12.0885   26.3699 C   0  0  0  0  0  0  0  0  0  0  0  0
    8.1154  -13.0546   25.4161 C   0  0  0  0  0  0  0  0  0  0  0  0
    7.1826  -13.9970   25.0356 C   0  0  0  0  0  0  0  0  0  0  0  0
    7.4608  -15.0187   24.0327 C   0  0  0  0  0  0  0  0  0  0  0  0
    8.4738  -14.6614   22.9924 C   0  0  2  0  0  0  0  0  0  0  0  0
    7.7687  -14.4302   21.7235 N   0  0  0  0  0  0  0  0  0  0  0  0
    9.4488  -15.7638   22.8584 C   0  0  0  0  0  0  0  0  0  0  0  0
    9.1233  -16.8743   22.3478 O   0  0  0  0  0  0  0  0  0  0  0  0
    5.9454  -13.9296   25.6522 C   0  0  0  0  0  0  0  0  0  0  0  0
    5.6510  -12.9781   26.5949 C   0  0  0  0  0  0  0  0  0  0  0  0
   14.1536  -15.5975   19.1251 N   0  0  0  0  0  0  0  0  0  0  0  0
   14.0264  -15.4024   20.5069 C   0  0  0  0  0  0  0  0  0  0  0  0
   14.9456  -14.9083   21.1708 O   0  0  0  0  0  0  0  0  0  0  0  0
   12.7644  -15.7968   21.1829 C   0  0  0  0  0  0  0  0  0  0  0  0
   13.0138  -16.3865   22.5429 C   0  0  0  0  0  0  0  0  0  0  0  0
   11.7234  -16.8079   23.1455 C   0  0  2  0  0  0  0  0  0  0  0  0
   10.7997  -15.6803   23.2778 N   0  0  0  0  0  0  0  0  0  0  0  0
   11.9265  -17.3546   24.4959 C   0  0  0  0  0  0  0  0  0  0  0  0
   11.3772  -16.7244   25.4739 O   0  0  0  0  0  0  0  0  0  0  0  0
   12.6559  -18.4947   24.8120 O   0  0  0  0  0  0  0  0  0  0  0  0
  2  3  1  0
  2  1  1  6
  4  3  1  0
  5  2  1  0
  6  5  2  0
  8  9  2  0
  8  7  1  0
 10  9  1  0
 11 10  2  0
 13 12  1  1
 12 11  1  0
 13 14  1  0
 14  5  1  0
 15 25  1  0
 15 13  1  0
 16 15  2  0
 17 11  1  0
 17 18  2  0
 18  8  1  0
 20 19  1  0
 21 20  2  0
 22 20  1  0
 24 23  1  1
 23 22  1  0
 24 25  1  0
 26 24  1  0
 26 28  1  0
 27 26  2  0
M  END
$$$$
