CYQ.pdb
     RDKit          3D

 28 28  0  0  1  0  0  0  0  0999 V2000
   10.0711  -17.0238   18.3682 N   0  0  0  0  0  0  0  0  0  0  0  0
    8.8354  -16.9677   19.1140 C   0  0  1  0  0  0  0  0  0  0  0  0
    8.2535  -18.3359   19.3381 C   0  0  0  0  0  0  0  0  0  0  0  0
    7.7908  -19.0425   17.7391 S   0  0  0  0  0  0  0  0  0  0  0  0
    9.0806  -16.3110   20.4256 C   0  0  0  0  0  0  0  0  0  0  0  0
   10.2158  -16.3731   20.9658 O   0  0  0  0  0  0  0  0  0  0  0  0
    6.7185  -12.3894   28.1523 O   0  0  0  0  0  0  0  0  0  0  0  0
    6.8281  -12.8027   26.8312 C   0  0  0  0  0  0  0  0  0  0  0  0
    7.5341  -12.0960   25.8882 C   0  0  0  0  0  0  0  0  0  0  0  0
    7.6219  -12.5404   24.5756 C   0  0  0  0  0  0  0  0  0  0  0  0
    7.0062  -13.7050   24.1659 C   0  0  0  0  0  0  0  0  0  0  0  0
    7.0777  -14.1913   22.7928 C   0  0  0  0  0  0  0  0  0  0  0  0
    8.2554  -15.0500   22.4588 C   0  0  2  0  0  0  0  0  0  0  0  0
    8.0574  -15.5985   21.1095 N   0  0  0  0  0  0  0  0  0  0  0  0
    8.3695  -16.1350   23.4555 C   0  0  0  0  0  0  0  0  0  0  0  0
    7.7366  -17.2221   23.3230 O   0  0  0  0  0  0  0  0  0  0  0  0
    6.2993  -14.4048   25.1281 C   0  0  0  0  0  0  0  0  0  0  0  0
    6.2088  -13.9714   26.4260 C   0  0  0  0  0  0  0  0  0  0  0  0
   12.8723  -18.8046   22.6138 N   0  0  0  0  0  0  0  0  0  0  0  0
   12.7794  -19.3216   23.9128 C   0  0  0  0  0  0  0  0  0  0  0  0
   13.5302  -20.2266   24.2967 O   0  0  0  0  0  0  0  0  0  0  0  0
   11.7606  -18.7713   24.8425 C   0  0  0  0  0  0  0  0  0  0  0  0
   11.0149  -17.6133   24.2403 C   0  0  0  0  0  0  0  0  0  0  0  0
    9.8982  -17.2214   25.1376 C   0  0  2  0  0  0  0  0  0  0  0  0
    9.1756  -16.0593   24.6184 N   0  0  0  0  0  0  0  0  0  0  0  0
   10.3985  -16.8528   26.4708 C   0  0  0  0  0  0  0  0  0  0  0  0
    9.9313  -17.5068   27.4754 O   0  0  0  0  0  0  0  0  0  0  0  0
   11.3350  -15.8629   26.7446 O   0  0  0  0  0  0  0  0  0  0  0  0
  2  3  1  0
  2  1  1  1
  4  3  1  0
  5  2  1  0
  6  5  2  0
  8  9  2  0
  8  7  1  0
 10  9  1  0
 11 10  2  0
 13 12  1  1
 12 11  1  0
 13 14  1  0
 14  5  1  0
 15 25  1  0
 15 13  1  0
 16 15  2  0
 17 11  1  0
 17 18  2  0
 18  8  1  0
 20 19  1  0
 21 20  2  0
 22 20  1  0
 24 23  1  6
 23 22  1  0
 24 25  1  0
 26 24  1  0
 26 28  1  0
 27 26  2  0
M  END
$$$$
