CYQ.pdb
     RDKit          3D

 28 28  0  0  1  0  0  0  0  0999 V2000
   10.3077  -16.8411   18.8892 N   0  0  0  0  0  0  0  0  0  0  0  0
    9.0024  -16.6753   19.4851 C   0  0  1  0  0  0  0  0  0  0  0  0
    8.2431  -17.9719   19.5407 C   0  0  0  0  0  0  0  0  0  0  0  0
    7.8552  -18.4940   17.8534 S   0  0  0  0  0  0  0  0  0  0  0  0
    9.1539  -16.1287   20.8599 C   0  0  0  0  0  0  0  0  0  0  0  0
   10.2003  -16.3538   21.5222 O   0  0  0  0  0  0  0  0  0  0  0  0
    6.8414  -11.6126   28.2692 O   0  0  0  0  0  0  0  0  0  0  0  0
    6.9630  -12.1163   26.9808 C   0  0  0  0  0  0  0  0  0  0  0  0
    7.7988  -11.5616   26.0424 C   0  0  0  0  0  0  0  0  0  0  0  0
    7.8943  -12.0928   24.7630 C   0  0  0  0  0  0  0  0  0  0  0  0
    7.1567  -13.1949   24.3829 C   0  0  0  0  0  0  0  0  0  0  0  0
    7.2337  -13.7693   23.0446 C   0  0  0  0  0  0  0  0  0  0  0  0
    8.2598  -14.8384   22.8449 C   0  0  2  0  0  0  0  0  0  0  0  0
    8.1377  -15.3427   21.4696 N   0  0  0  0  0  0  0  0  0  0  0  0
    8.0354  -15.9224   23.8239 C   0  0  0  0  0  0  0  0  0  0  0  0
    7.2195  -16.8611   23.5937 O   0  0  0  0  0  0  0  0  0  0  0  0
    6.3198  -13.7415   25.3401 C   0  0  0  0  0  0  0  0  0  0  0  0
    6.2210  -13.2218   26.6053 C   0  0  0  0  0  0  0  0  0  0  0  0
   11.6923  -19.1825   22.4892 N   0  0  0  0  0  0  0  0  0  0  0  0
   12.0377  -19.3829   23.8323 C   0  0  0  0  0  0  0  0  0  0  0  0
   13.0489  -20.0234   24.1445 O   0  0  0  0  0  0  0  0  0  0  0  0
   11.1727  -18.8150   24.8973 C   0  0  0  0  0  0  0  0  0  0  0  0
   10.2895  -17.7144   24.3791 C   0  0  0  0  0  0  0  0  0  0  0  0
    9.4358  -17.2025   25.4813 C   0  0  2  0  0  0  0  0  0  0  0  0
    8.6950  -16.0073   25.0751 N   0  0  0  0  0  0  0  0  0  0  0  0
   10.2503  -16.8249   26.6464 C   0  0  0  0  0  0  0  0  0  0  0  0
   10.9008  -17.7641   27.2380 O   0  0  0  0  0  0  0  0  0  0  0  0
   10.3848  -15.5425   27.1653 O   0  0  0  0  0  0  0  0  0  0  0  0
  2  3  1  0
  2  1  1  1
  4  3  1  0
  5  2  1  0
  6  5  2  0
  8  9  2  0
  8  7  1  0
 10  9  1  0
 11 10  2  0
 13 12  1  1
 12 11  1  0
 13 14  1  0
 14  5  1  0
 15 25  1  0
 15 13  1  0
 16 15  2  0
 17 11  1  0
 17 18  2  0
 18  8  1  0
 20 19  1  0
 21 20  2  0
 22 20  1  0
 24 23  1  6
 23 22  1  0
 24 25  1  0
 26 24  1  0
 26 28  1  0
 27 26  2  0
M  END
$$$$
