CYQ.pdb
     RDKit          3D

 28 28  0  0  1  0  0  0  0  0999 V2000
    6.5658  -20.8639   25.3730 N   0  0  0  0  0  0  0  0  0  0  0  0
    6.6527  -19.4580   25.6925 C   0  0  1  0  0  0  0  0  0  0  0  0
    7.5920  -19.2007   26.8380 C   0  0  0  0  0  0  0  0  0  0  0  0
    6.6364  -19.1288   28.3716 S   0  0  0  0  0  0  0  0  0  0  0  0
    7.1134  -18.7076   24.4939 C   0  0  0  0  0  0  0  0  0  0  0  0
    7.8398  -19.2686   23.6325 O   0  0  0  0  0  0  0  0  0  0  0  0
    8.2600  -12.2296   18.5317 O   0  0  0  0  0  0  0  0  0  0  0  0
    7.8525  -12.9715   19.6324 C   0  0  0  0  0  0  0  0  0  0  0  0
    7.9727  -12.5140   20.9221 C   0  0  0  0  0  0  0  0  0  0  0  0
    7.5539  -13.2843   21.9988 C   0  0  0  0  0  0  0  0  0  0  0  0
    7.0022  -14.5359   21.8187 C   0  0  0  0  0  0  0  0  0  0  0  0
    6.5596  -15.3678   22.9318 C   0  0  0  0  0  0  0  0  0  0  0  0
    7.4618  -16.4996   23.3074 C   0  0  2  0  0  0  0  0  0  0  0  0
    6.7562  -17.3481   24.2784 N   0  0  0  0  0  0  0  0  0  0  0  0
    8.7087  -15.9604   23.8892 C   0  0  0  0  0  0  0  0  0  0  0  0
    8.7072  -14.9124   24.5975 O   0  0  0  0  0  0  0  0  0  0  0  0
    6.8882  -14.9817   20.5135 C   0  0  0  0  0  0  0  0  0  0  0  0
    7.2997  -14.2258   19.4458 C   0  0  0  0  0  0  0  0  0  0  0  0
   12.1974  -18.2616   27.7597 N   0  0  0  0  0  0  0  0  0  0  0  0
   11.0399  -17.4738   27.8147 C   0  0  0  0  0  0  0  0  0  0  0  0
   10.3432  -17.4303   28.8358 O   0  0  0  0  0  0  0  0  0  0  0  0
   10.6456  -16.6783   26.6245 C   0  0  0  0  0  0  0  0  0  0  0  0
   11.6237  -16.8331   25.4935 C   0  0  0  0  0  0  0  0  0  0  0  0
   11.1865  -16.0034   24.3420 C   0  0  2  0  0  0  0  0  0  0  0  0
    9.9844  -16.5511   23.7119 N   0  0  0  0  0  0  0  0  0  0  0  0
   12.2276  -15.9527   23.3041 C   0  0  0  0  0  0  0  0  0  0  0  0
   11.9524  -16.4917   22.1687 O   0  0  0  0  0  0  0  0  0  0  0  0
   13.4829  -15.3709   23.4370 O   0  0  0  0  0  0  0  0  0  0  0  0
  2  3  1  0
  2  1  1  6
  4  3  1  0
  5  2  1  0
  6  5  2  0
  8  9  2  0
  8  7  1  0
 10  9  1  0
 11 10  2  0
 13 12  1  1
 12 11  1  0
 13 14  1  0
 14  5  1  0
 15 25  1  0
 15 13  1  0
 16 15  2  0
 17 11  1  0
 17 18  2  0
 18  8  1  0
 20 19  1  0
 21 20  2  0
 22 20  1  0
 24 23  1  1
 23 22  1  0
 24 25  1  0
 26 24  1  0
 26 28  1  0
 27 26  2  0
M  END
$$$$
