CYQ.pdb
     RDKit          3D

 28 28  0  0  1  0  0  0  0  0999 V2000
    5.8640  -20.8545   25.1160 N   0  0  0  0  0  0  0  0  0  0  0  0
    6.3134  -19.5764   25.6168 C   0  0  1  0  0  0  0  0  0  0  0  0
    7.3006  -19.7305   26.7403 C   0  0  0  0  0  0  0  0  0  0  0  0
    7.0652  -18.3751   27.9142 S   0  0  0  0  0  0  0  0  0  0  0  0
    6.9376  -18.8049   24.5091 C   0  0  0  0  0  0  0  0  0  0  0  0
    7.7474  -19.3623   23.7231 O   0  0  0  0  0  0  0  0  0  0  0  0
    8.4807  -12.1192   18.8146 O   0  0  0  0  0  0  0  0  0  0  0  0
    8.0243  -12.8970   19.8705 C   0  0  0  0  0  0  0  0  0  0  0  0
    8.2142  -12.5488   21.1857 C   0  0  0  0  0  0  0  0  0  0  0  0
    7.7433  -13.3520   22.2159 C   0  0  0  0  0  0  0  0  0  0  0  0
    7.0682  -14.5281   21.9623 C   0  0  0  0  0  0  0  0  0  0  0  0
    6.5683  -15.3927   23.0250 C   0  0  0  0  0  0  0  0  0  0  0  0
    7.3743  -16.6197   23.3094 C   0  0  2  0  0  0  0  0  0  0  0  0
    6.6479  -17.4286   24.2988 N   0  0  0  0  0  0  0  0  0  0  0  0
    8.7018  -16.2257   23.8256 C   0  0  0  0  0  0  0  0  0  0  0  0
    8.8249  -15.5839   24.9086 O   0  0  0  0  0  0  0  0  0  0  0  0
    6.8853  -14.8641   20.6323 C   0  0  0  0  0  0  0  0  0  0  0  0
    7.3478  -14.0752   19.6103 C   0  0  0  0  0  0  0  0  0  0  0  0
   12.0749  -18.0520   27.3257 N   0  0  0  0  0  0  0  0  0  0  0  0
   11.8985  -18.8348   26.1770 C   0  0  0  0  0  0  0  0  0  0  0  0
   12.0352  -20.0637   26.2128 O   0  0  0  0  0  0  0  0  0  0  0  0
   11.5414  -18.1745   24.8959 C   0  0  0  0  0  0  0  0  0  0  0  0
   11.5006  -16.6774   25.0254 C   0  0  0  0  0  0  0  0  0  0  0  0
   11.2132  -16.0721   23.7000 C   0  0  2  0  0  0  0  0  0  0  0  0
    9.9241  -16.5222   23.1730 N   0  0  0  0  0  0  0  0  0  0  0  0
   12.2351  -16.4545   22.7136 C   0  0  0  0  0  0  0  0  0  0  0  0
   13.4503  -16.1142   22.9641 O   0  0  0  0  0  0  0  0  0  0  0  0
   12.0078  -17.1552   21.5349 O   0  0  0  0  0  0  0  0  0  0  0  0
  2  3  1  0
  2  1  1  6
  4  3  1  0
  5  2  1  0
  6  5  2  0
  8  9  2  0
  8  7  1  0
 10  9  1  0
 11 10  2  0
 13 12  1  1
 12 11  1  0
 13 14  1  0
 14  5  1  0
 15 25  1  0
 15 13  1  0
 16 15  2  0
 17 11  1  0
 17 18  2  0
 18  8  1  0
 20 19  1  0
 21 20  2  0
 22 20  1  0
 24 23  1  1
 23 22  1  0
 24 25  1  0
 26 24  1  0
 26 28  1  0
 27 26  2  0
M  END
$$$$
