CYQ.pdb
     RDKit          3D

 28 28  0  0  1  0  0  0  0  0999 V2000
    7.8791  -12.6291   19.6280 N   0  0  0  0  0  0  0  0  0  0  0  0
    7.3949  -13.8456   20.2381 C   0  0  1  0  0  0  0  0  0  0  0  0
    7.4340  -15.0057   19.2825 C   0  0  0  0  0  0  0  0  0  0  0  0
    6.7475  -16.4627   20.1048 S   0  0  0  0  0  0  0  0  0  0  0  0
    8.2203  -14.1593   21.4348 C   0  0  0  0  0  0  0  0  0  0  0  0
    9.4639  -13.9650   21.4186 O   0  0  0  0  0  0  0  0  0  0  0  0
    6.2484   -9.9183   27.2554 O   0  0  0  0  0  0  0  0  0  0  0  0
    6.5239  -11.1601   26.6983 C   0  0  0  0  0  0  0  0  0  0  0  0
    5.5404  -12.0066   26.2476 C   0  0  0  0  0  0  0  0  0  0  0  0
    5.8539  -13.2417   25.6959 C   0  0  0  0  0  0  0  0  0  0  0  0
    7.1606  -13.6681   25.5783 C   0  0  0  0  0  0  0  0  0  0  0  0
    7.5172  -14.9623   25.0083 C   0  0  0  0  0  0  0  0  0  0  0  0
    8.4428  -14.9322   23.8343 C   0  0  2  0  0  0  0  0  0  0  0  0
    7.6450  -14.6830   22.6252 N   0  0  0  0  0  0  0  0  0  0  0  0
    9.1541  -16.2240   23.7375 C   0  0  0  0  0  0  0  0  0  0  0  0
    8.5344  -17.3032   23.5111 O   0  0  0  0  0  0  0  0  0  0  0  0
    8.1391  -12.8035   26.0369 C   0  0  0  0  0  0  0  0  0  0  0  0
    7.8361  -11.5824   26.5827 C   0  0  0  0  0  0  0  0  0  0  0  0
   15.1056  -16.9825   22.2486 N   0  0  0  0  0  0  0  0  0  0  0  0
   14.0262  -16.4305   21.5460 C   0  0  0  0  0  0  0  0  0  0  0  0
   14.2028  -15.7831   20.5069 O   0  0  0  0  0  0  0  0  0  0  0  0
   12.6474  -16.6281   22.0605 C   0  0  0  0  0  0  0  0  0  0  0  0
   12.6205  -17.5116   23.2763 C   0  0  0  0  0  0  0  0  0  0  0  0
   11.2206  -17.6648   23.7479 C   0  0  2  0  0  0  0  0  0  0  0  0
   10.5559  -16.3681   23.8853 N   0  0  0  0  0  0  0  0  0  0  0  0
   11.1775  -18.3092   25.0695 C   0  0  0  0  0  0  0  0  0  0  0  0
   10.7288  -17.6085   26.0507 O   0  0  0  0  0  0  0  0  0  0  0  0
   11.5746  -19.6103   25.3547 O   0  0  0  0  0  0  0  0  0  0  0  0
  2  3  1  0
  2  1  1  6
  4  3  1  0
  5  2  1  0
  6  5  2  0
  8  9  2  0
  8  7  1  0
 10  9  1  0
 11 10  2  0
 13 12  1  1
 12 11  1  0
 13 14  1  0
 14  5  1  0
 15 25  1  0
 15 13  1  0
 16 15  2  0
 17 11  1  0
 17 18  2  0
 18  8  1  0
 20 19  1  0
 21 20  2  0
 22 20  1  0
 24 23  1  1
 23 22  1  0
 24 25  1  0
 26 24  1  0
 26 28  1  0
 27 26  2  0
M  END
$$$$
