CYQ.pdb
     RDKit          3D

 28 28  0  0  1  0  0  0  0  0999 V2000
   11.1554  -17.1610   19.8008 N   0  0  0  0  0  0  0  0  0  0  0  0
   10.0472  -17.5029   20.6618 C   0  0  1  0  0  0  0  0  0  0  0  0
   10.1983  -18.8783   21.2501 C   0  0  0  0  0  0  0  0  0  0  0  0
    8.6791  -19.3056   22.1332 S   0  0  0  0  0  0  0  0  0  0  0  0
    9.9470  -16.5021   21.7573 C   0  0  0  0  0  0  0  0  0  0  0  0
   10.9861  -15.9793   22.2383 O   0  0  0  0  0  0  0  0  0  0  0  0
    6.0037  -10.9035   27.5314 O   0  0  0  0  0  0  0  0  0  0  0  0
    6.2792  -11.8134   26.5192 C   0  0  0  0  0  0  0  0  0  0  0  0
    5.7327  -13.0732   26.4842 C   0  0  0  0  0  0  0  0  0  0  0  0
    6.0315  -13.9567   25.4554 C   0  0  0  0  0  0  0  0  0  0  0  0
    6.8861  -13.6073   24.4303 C   0  0  0  0  0  0  0  0  0  0  0  0
    7.2212  -14.5174   23.3411 C   0  0  0  0  0  0  0  0  0  0  0  0
    8.5861  -15.1264   23.3883 C   0  0  2  0  0  0  0  0  0  0  0  0
    8.6924  -16.1033   22.2951 N   0  0  0  0  0  0  0  0  0  0  0  0
    8.7863  -15.7801   24.6984 C   0  0  0  0  0  0  0  0  0  0  0  0
    8.9955  -15.1053   25.7476 O   0  0  0  0  0  0  0  0  0  0  0  0
    7.4278  -12.3347   24.4806 C   0  0  0  0  0  0  0  0  0  0  0  0
    7.1367  -11.4575   25.4937 C   0  0  0  0  0  0  0  0  0  0  0  0
    6.8778  -21.4903   26.0351 N   0  0  0  0  0  0  0  0  0  0  0  0
    6.4262  -20.4621   25.1970 C   0  0  0  0  0  0  0  0  0  0  0  0
    5.4929  -20.6444   24.4060 O   0  0  0  0  0  0  0  0  0  0  0  0
    7.0817  -19.1313   25.2622 C   0  0  0  0  0  0  0  0  0  0  0  0
    8.1758  -19.0915   26.2923 C   0  0  0  0  0  0  0  0  0  0  0  0
    8.8739  -17.7824   26.2248 C   0  0  2  0  0  0  0  0  0  0  0  0
    8.7630  -17.1834   24.8940 N   0  0  0  0  0  0  0  0  0  0  0  0
   10.3095  -17.9359   26.5060 C   0  0  0  0  0  0  0  0  0  0  0  0
   10.6367  -18.3756   27.6700 O   0  0  0  0  0  0  0  0  0  0  0  0
   11.3470  -17.6526   25.6256 O   0  0  0  0  0  0  0  0  0  0  0  0
  2  3  1  0
  2  1  1  6
  4  3  1  0
  5  2  1  0
  6  5  2  0
  8  9  2  0
  8  7  1  0
 10  9  1  0
 11 10  2  0
 13 12  1  1
 12 11  1  0
 13 14  1  0
 14  5  1  0
 15 25  1  0
 15 13  1  0
 16 15  2  0
 17 11  1  0
 17 18  2  0
 18  8  1  0
 20 19  1  0
 21 20  2  0
 22 20  1  0
 24 23  1  6
 23 22  1  0
 24 25  1  0
 26 24  1  0
 26 28  1  0
 27 26  2  0
M  END
$$$$
