CYQ.pdb
     RDKit          3D

 28 28  0  0  1  0  0  0  0  0999 V2000
    8.7308  -17.9072   19.3087 N   0  0  0  0  0  0  0  0  0  0  0  0
   10.0223  -17.2833   19.4797 C   0  0  1  0  0  0  0  0  0  0  0  0
   10.3788  -16.4042   18.3133 C   0  0  0  0  0  0  0  0  0  0  0  0
    9.9839  -17.2792   16.7807 S   0  0  0  0  0  0  0  0  0  0  0  0
   10.0178  -16.4751   20.7281 C   0  0  0  0  0  0  0  0  0  0  0  0
   11.0939  -16.0161   21.1927 O   0  0  0  0  0  0  0  0  0  0  0  0
    6.7081  -11.8630   27.6425 O   0  0  0  0  0  0  0  0  0  0  0  0
    6.8779  -12.6048   26.4810 C   0  0  0  0  0  0  0  0  0  0  0  0
    6.3650  -13.8698   26.3261 C   0  0  0  0  0  0  0  0  0  0  0  0
    6.5551  -14.5820   25.1493 C   0  0  0  0  0  0  0  0  0  0  0  0
    7.2640  -14.0511   24.0916 C   0  0  0  0  0  0  0  0  0  0  0  0
    7.4832  -14.7796   22.8473 C   0  0  0  0  0  0  0  0  0  0  0  0
    8.8105  -15.4531   22.7037 C   0  0  2  0  0  0  0  0  0  0  0  0
    8.8158  -16.1940   21.4341 N   0  0  0  0  0  0  0  0  0  0  0  0
    9.0231  -16.3663   23.8459 C   0  0  0  0  0  0  0  0  0  0  0  0
    8.2757  -17.3686   24.0375 O   0  0  0  0  0  0  0  0  0  0  0  0
    7.7738  -12.7761   24.2640 C   0  0  0  0  0  0  0  0  0  0  0  0
    7.5895  -12.0674   25.4235 C   0  0  0  0  0  0  0  0  0  0  0  0
   14.4357  -17.9520   25.0400 N   0  0  0  0  0  0  0  0  0  0  0  0
   13.4254  -18.7307   24.4599 C   0  0  0  0  0  0  0  0  0  0  0  0
   13.6864  -19.7979   23.8917 O   0  0  0  0  0  0  0  0  0  0  0  0
   12.0177  -18.2634   24.5302 C   0  0  0  0  0  0  0  0  0  0  0  0
   11.6869  -17.6700   25.8711 C   0  0  0  0  0  0  0  0  0  0  0  0
   10.2824  -17.1871   25.8675 C   0  0  2  0  0  0  0  0  0  0  0  0
   10.0547  -16.2075   24.8042 N   0  0  0  0  0  0  0  0  0  0  0  0
    9.9502  -16.5240   27.1378 C   0  0  0  0  0  0  0  0  0  0  0  0
    9.9500  -15.2375   27.1467 O   0  0  0  0  0  0  0  0  0  0  0  0
    9.6319  -17.1619   28.3309 O   0  0  0  0  0  0  0  0  0  0  0  0
  2  3  1  0
  2  1  1  6
  4  3  1  0
  5  2  1  0
  6  5  2  0
  8  9  2  0
  8  7  1  0
 10  9  1  0
 11 10  2  0
 13 12  1  1
 12 11  1  0
 13 14  1  0
 14  5  1  0
 15 25  1  0
 15 13  1  0
 16 15  2  0
 17 11  1  0
 17 18  2  0
 18  8  1  0
 20 19  1  0
 21 20  2  0
 22 20  1  0
 24 23  1  1
 23 22  1  0
 24 25  1  0
 26 24  1  0
 26 28  1  0
 27 26  2  0
M  END
$$$$
