CYQ.pdb
     RDKit          3D

 28 28  0  0  1  0  0  0  0  0999 V2000
   10.2414  -16.4931   18.4987 N   0  0  0  0  0  0  0  0  0  0  0  0
    8.9564  -16.3644   19.1456 C   0  0  1  0  0  0  0  0  0  0  0  0
    8.2092  -17.6688   19.1719 C   0  0  0  0  0  0  0  0  0  0  0  0
    9.0199  -18.7825   20.3435 S   0  0  0  0  0  0  0  0  0  0  0  0
    9.1516  -15.8754   20.5365 C   0  0  0  0  0  0  0  0  0  0  0  0
   10.2427  -16.0716   21.1327 O   0  0  0  0  0  0  0  0  0  0  0  0
    7.0347  -11.8781   28.2852 O   0  0  0  0  0  0  0  0  0  0  0  0
    7.0426  -12.3845   26.9922 C   0  0  0  0  0  0  0  0  0  0  0  0
    6.4354  -13.5697   26.6551 C   0  0  0  0  0  0  0  0  0  0  0  0
    6.4639  -14.0450   25.3507 C   0  0  0  0  0  0  0  0  0  0  0  0
    7.1007  -13.3497   24.3436 C   0  0  0  0  0  0  0  0  0  0  0  0
    7.1505  -13.8289   22.9671 C   0  0  0  0  0  0  0  0  0  0  0  0
    8.3043  -14.7144   22.6195 C   0  0  2  0  0  0  0  0  0  0  0  0
    8.1284  -15.1778   21.2357 N   0  0  0  0  0  0  0  0  0  0  0  0
    8.3446  -15.8573   23.5554 C   0  0  0  0  0  0  0  0  0  0  0  0
    7.7492  -16.9430   23.2971 O   0  0  0  0  0  0  0  0  0  0  0  0
    7.7071  -12.1578   24.7000 C   0  0  0  0  0  0  0  0  0  0  0  0
    7.6825  -11.6829   25.9863 C   0  0  0  0  0  0  0  0  0  0  0  0
   12.1638  -20.6515   23.6801 N   0  0  0  0  0  0  0  0  0  0  0  0
   12.4103  -19.3480   24.1312 C   0  0  0  0  0  0  0  0  0  0  0  0
   13.4157  -18.7248   23.7693 O   0  0  0  0  0  0  0  0  0  0  0  0
   11.4457  -18.7063   25.0600 C   0  0  0  0  0  0  0  0  0  0  0  0
   10.7702  -17.5162   24.4378 C   0  0  0  0  0  0  0  0  0  0  0  0
    9.6855  -17.0373   25.3320 C   0  0  2  0  0  0  0  0  0  0  0  0
    9.0344  -15.8424   24.7930 N   0  0  0  0  0  0  0  0  0  0  0  0
   10.2155  -16.6749   26.6554 C   0  0  0  0  0  0  0  0  0  0  0  0
   10.3266  -15.4209   26.9208 O   0  0  0  0  0  0  0  0  0  0  0  0
   10.6043  -17.5656   27.6491 O   0  0  0  0  0  0  0  0  0  0  0  0
  2  3  1  0
  2  1  1  1
  4  3  1  0
  5  2  1  0
  6  5  2  0
  8  9  2  0
  8  7  1  0
 10  9  1  0
 11 10  2  0
 13 12  1  1
 12 11  1  0
 13 14  1  0
 14  5  1  0
 15 25  1  0
 15 13  1  0
 16 15  2  0
 17 11  1  0
 17 18  2  0
 18  8  1  0
 20 19  1  0
 21 20  2  0
 22 20  1  0
 24 23  1  6
 23 22  1  0
 24 25  1  0
 26 24  1  0
 26 28  1  0
 27 26  2  0
M  END
$$$$
