CYQ.pdb
     RDKit          3D

 28 28  0  0  1  0  0  0  0  0999 V2000
   10.1430  -17.9793   17.3460 N   0  0  0  0  0  0  0  0  0  0  0  0
    9.7544  -18.5932   18.5944 C   0  0  1  0  0  0  0  0  0  0  0  0
   10.3923  -19.9423   18.7778 C   0  0  0  0  0  0  0  0  0  0  0  0
    9.7124  -20.7119   20.2663 S   0  0  0  0  0  0  0  0  0  0  0  0
   10.1399  -17.7037   19.7221 C   0  0  0  0  0  0  0  0  0  0  0  0
   11.2608  -17.1311   19.7264 O   0  0  0  0  0  0  0  0  0  0  0  0
    6.9457  -12.0483   18.3094 O   0  0  0  0  0  0  0  0  0  0  0  0
    7.3583  -12.9301   19.2996 C   0  0  0  0  0  0  0  0  0  0  0  0
    8.4546  -12.6954   20.0933 C   0  0  0  0  0  0  0  0  0  0  0  0
    8.8375  -13.6006   21.0742 C   0  0  0  0  0  0  0  0  0  0  0  0
    8.1357  -14.7684   21.2913 C   0  0  0  0  0  0  0  0  0  0  0  0
    8.5194  -15.7385   22.3104 C   0  0  0  0  0  0  0  0  0  0  0  0
    9.6650  -16.6360   21.9670 C   0  0  2  0  0  0  0  0  0  0  0  0
    9.2699  -17.4694   20.8225 N   0  0  0  0  0  0  0  0  0  0  0  0
    9.9988  -17.4745   23.1372 C   0  0  0  0  0  0  0  0  0  0  0  0
    9.2961  -18.4780   23.4520 O   0  0  0  0  0  0  0  0  0  0  0  0
    7.0340  -14.9894   20.4834 C   0  0  0  0  0  0  0  0  0  0  0  0
    6.6506  -14.0995   19.5130 C   0  0  0  0  0  0  0  0  0  0  0  0
   16.0609  -18.8946   24.5136 N   0  0  0  0  0  0  0  0  0  0  0  0
   15.1451  -19.9303   24.7418 C   0  0  0  0  0  0  0  0  0  0  0  0
   15.4650  -21.1143   24.5819 O   0  0  0  0  0  0  0  0  0  0  0  0
   13.7670  -19.5970   25.1833 C   0  0  0  0  0  0  0  0  0  0  0  0
   13.1156  -18.5850   24.2827 C   0  0  0  0  0  0  0  0  0  0  0  0
   11.7354  -18.3125   24.7585 C   0  0  2  0  0  0  0  0  0  0  0  0
   11.1054  -17.2379   23.9900 N   0  0  0  0  0  0  0  0  0  0  0  0
   11.7382  -17.8860   26.1662 C   0  0  0  0  0  0  0  0  0  0  0  0
   11.4312  -16.6606   26.4098 O   0  0  0  0  0  0  0  0  0  0  0  0
   12.0392  -18.6890   27.2601 O   0  0  0  0  0  0  0  0  0  0  0  0
  2  3  1  0
  2  1  1  6
  4  3  1  0
  5  2  1  0
  6  5  2  0
  8  9  2  0
  8  7  1  0
 10  9  1  0
 11 10  2  0
 13 12  1  1
 12 11  1  0
 13 14  1  0
 14  5  1  0
 15 25  1  0
 15 13  1  0
 16 15  2  0
 17 11  1  0
 17 18  2  0
 18  8  1  0
 20 19  1  0
 21 20  2  0
 22 20  1  0
 24 23  1  6
 23 22  1  0
 24 25  1  0
 26 24  1  0
 26 28  1  0
 27 26  2  0
M  END
$$$$
