CYQ.pdb
     RDKit          3D

 28 28  0  0  1  0  0  0  0  0999 V2000
   10.5439  -17.1967   18.5153 N   0  0  0  0  0  0  0  0  0  0  0  0
    9.2659  -17.1766   19.1881 C   0  0  1  0  0  0  0  0  0  0  0  0
    8.7410  -18.5636   19.4354 C   0  0  0  0  0  0  0  0  0  0  0  0
    9.9280  -19.4627   20.4615 S   0  0  0  0  0  0  0  0  0  0  0  0
    9.4019  -16.4584   20.4833 C   0  0  0  0  0  0  0  0  0  0  0  0
   10.5351  -16.3032   21.0087 O   0  0  0  0  0  0  0  0  0  0  0  0
    6.8921  -11.7065   27.6485 O   0  0  0  0  0  0  0  0  0  0  0  0
    6.9204  -12.4389   26.4690 C   0  0  0  0  0  0  0  0  0  0  0  0
    6.3212  -13.6686   26.3438 C   0  0  0  0  0  0  0  0  0  0  0  0
    6.3702  -14.3724   25.1478 C   0  0  0  0  0  0  0  0  0  0  0  0
    7.0202  -13.8679   24.0404 C   0  0  0  0  0  0  0  0  0  0  0  0
    7.0916  -14.5885   22.7745 C   0  0  0  0  0  0  0  0  0  0  0  0
    8.3950  -15.2544   22.4686 C   0  0  2  0  0  0  0  0  0  0  0  0
    8.2739  -15.9275   21.1674 N   0  0  0  0  0  0  0  0  0  0  0  0
    8.7112  -16.2267   23.5357 C   0  0  0  0  0  0  0  0  0  0  0  0
    8.0985  -17.3295   23.6264 O   0  0  0  0  0  0  0  0  0  0  0  0
    7.6183  -12.6281   24.1834 C   0  0  0  0  0  0  0  0  0  0  0  0
    7.5734  -11.9280   25.3617 C   0  0  0  0  0  0  0  0  0  0  0  0
   13.9726  -18.4153   24.9920 N   0  0  0  0  0  0  0  0  0  0  0  0
   13.0331  -18.7093   23.9948 C   0  0  0  0  0  0  0  0  0  0  0  0
   13.3600  -19.3118   22.9651 O   0  0  0  0  0  0  0  0  0  0  0  0
   11.6212  -18.2887   24.1804 C   0  0  0  0  0  0  0  0  0  0  0  0
   11.4349  -17.4750   25.4306 C   0  0  0  0  0  0  0  0  0  0  0  0
   10.0199  -17.0354   25.5306 C   0  0  2  0  0  0  0  0  0  0  0  0
    9.7019  -16.0185   24.5271 N   0  0  0  0  0  0  0  0  0  0  0  0
    9.7459  -16.4377   26.8464 C   0  0  0  0  0  0  0  0  0  0  0  0
    8.9955  -17.1052   27.6505 O   0  0  0  0  0  0  0  0  0  0  0  0
   10.2282  -15.2166   27.3028 O   0  0  0  0  0  0  0  0  0  0  0  0
  2  3  1  0
  2  1  1  1
  4  3  1  0
  5  2  1  0
  6  5  2  0
  8  9  2  0
  8  7  1  0
 10  9  1  0
 11 10  2  0
 13 12  1  1
 12 11  1  0
 13 14  1  0
 14  5  1  0
 15 25  1  0
 15 13  1  0
 16 15  2  0
 17 11  1  0
 17 18  2  0
 18  8  1  0
 20 19  1  0
 21 20  2  0
 22 20  1  0
 24 23  1  1
 23 22  1  0
 24 25  1  0
 26 24  1  0
 26 28  1  0
 27 26  2  0
M  END
$$$$
