CYQ.pdb
     RDKit          3D

 28 28  0  0  1  0  0  0  0  0999 V2000
    8.7779  -15.8101   18.7944 N   0  0  0  0  0  0  0  0  0  0  0  0
    7.8077  -15.6780   19.8564 C   0  0  1  0  0  0  0  0  0  0  0  0
    7.0431  -16.9534   20.0785 C   0  0  0  0  0  0  0  0  0  0  0  0
    7.5405  -18.1581   18.8249 S   0  0  0  0  0  0  0  0  0  0  0  0
    8.5020  -15.2895   21.1129 C   0  0  0  0  0  0  0  0  0  0  0  0
    9.7276  -15.5335   21.2641 O   0  0  0  0  0  0  0  0  0  0  0  0
    8.7964  -12.9391   29.7932 O   0  0  0  0  0  0  0  0  0  0  0  0
    8.5187  -13.0949   28.4416 C   0  0  0  0  0  0  0  0  0  0  0  0
    9.4992  -13.1177   27.4797 C   0  0  0  0  0  0  0  0  0  0  0  0
    9.1834  -13.2755   26.1367 C   0  0  0  0  0  0  0  0  0  0  0  0
    7.8775  -13.4150   25.7146 C   0  0  0  0  0  0  0  0  0  0  0  0
    7.5179  -13.5763   24.3104 C   0  0  0  0  0  0  0  0  0  0  0  0
    8.4472  -14.4065   23.4840 C   0  0  2  0  0  0  0  0  0  0  0  0
    7.8182  -14.6374   22.1756 N   0  0  0  0  0  0  0  0  0  0  0  0
    8.7072  -15.6866   24.1752 C   0  0  0  0  0  0  0  0  0  0  0  0
    7.8029  -16.5611   24.3069 O   0  0  0  0  0  0  0  0  0  0  0  0
    6.9021  -13.3899   26.6961 C   0  0  0  0  0  0  0  0  0  0  0  0
    7.2073  -13.2345   28.0240 C   0  0  0  0  0  0  0  0  0  0  0  0
   13.0869  -18.4559   22.2422 N   0  0  0  0  0  0  0  0  0  0  0  0
   11.7050  -18.6669   22.1455 C   0  0  0  0  0  0  0  0  0  0  0  0
   11.1367  -18.6917   21.0471 O   0  0  0  0  0  0  0  0  0  0  0  0
   10.9119  -18.8640   23.3853 C   0  0  0  0  0  0  0  0  0  0  0  0
   11.3992  -17.9945   24.5105 C   0  0  0  0  0  0  0  0  0  0  0  0
   10.2366  -17.3970   25.2155 C   0  0  2  0  0  0  0  0  0  0  0  0
    9.9582  -16.0418   24.7379 N   0  0  0  0  0  0  0  0  0  0  0  0
   10.4917  -17.2967   26.6606 C   0  0  0  0  0  0  0  0  0  0  0  0
   11.0186  -16.2044   27.0901 O   0  0  0  0  0  0  0  0  0  0  0  0
   10.2111  -18.2750   27.6073 O   0  0  0  0  0  0  0  0  0  0  0  0
  2  3  1  0
  2  1  1  6
  4  3  1  0
  5  2  1  0
  6  5  2  0
  8  9  2  0
  8  7  1  0
 10  9  1  0
 11 10  2  0
 13 12  1  1
 12 11  1  0
 13 14  1  0
 14  5  1  0
 15 25  1  0
 15 13  1  0
 16 15  2  0
 17 11  1  0
 17 18  2  0
 18  8  1  0
 20 19  1  0
 21 20  2  0
 22 20  1  0
 24 23  1  6
 23 22  1  0
 24 25  1  0
 26 24  1  0
 26 28  1  0
 27 26  2  0
M  END
$$$$
