CYQ.pdb
     RDKit          3D

 28 28  0  0  1  0  0  0  0  0999 V2000
   10.1513  -16.6080   18.2136 N   0  0  0  0  0  0  0  0  0  0  0  0
    9.3697  -17.2068   19.2705 C   0  0  1  0  0  0  0  0  0  0  0  0
    9.8104  -18.6138   19.5649 C   0  0  0  0  0  0  0  0  0  0  0  0
    8.7011  -19.3260   20.8029 S   0  0  0  0  0  0  0  0  0  0  0  0
    9.4898  -16.3805   20.5012 C   0  0  0  0  0  0  0  0  0  0  0  0
   10.6173  -15.9773   20.8892 O   0  0  0  0  0  0  0  0  0  0  0  0
    6.8494  -11.7972   27.7283 O   0  0  0  0  0  0  0  0  0  0  0  0
    6.8985  -12.5537   26.5649 C   0  0  0  0  0  0  0  0  0  0  0  0
    6.4561  -13.8529   26.5046 C   0  0  0  0  0  0  0  0  0  0  0  0
    6.5210  -14.5789   25.3228 C   0  0  0  0  0  0  0  0  0  0  0  0
    7.0305  -14.0281   24.1651 C   0  0  0  0  0  0  0  0  0  0  0  0
    7.1154  -14.7699   22.9124 C   0  0  0  0  0  0  0  0  0  0  0  0
    8.4710  -15.2789   22.5391 C   0  0  2  0  0  0  0  0  0  0  0  0
    8.3526  -16.0198   21.2751 N   0  0  0  0  0  0  0  0  0  0  0  0
    8.9796  -16.1544   23.6156 C   0  0  0  0  0  0  0  0  0  0  0  0
    8.4829  -17.2985   23.8258 O   0  0  0  0  0  0  0  0  0  0  0  0
    7.4716  -12.7186   24.2430 C   0  0  0  0  0  0  0  0  0  0  0  0
    7.4102  -11.9961   25.4070 C   0  0  0  0  0  0  0  0  0  0  0  0
   14.6759  -18.0278   23.0993 N   0  0  0  0  0  0  0  0  0  0  0  0
   13.9978  -17.0204   23.7983 C   0  0  0  0  0  0  0  0  0  0  0  0
   14.6038  -16.0534   24.2757 O   0  0  0  0  0  0  0  0  0  0  0  0
   12.5258  -17.1183   23.9673 C   0  0  0  0  0  0  0  0  0  0  0  0
   12.0947  -16.7756   25.3660 C   0  0  0  0  0  0  0  0  0  0  0  0
   10.6114  -16.7568   25.4379 C   0  0  2  0  0  0  0  0  0  0  0  0
   10.0404  -15.8023   24.4866 N   0  0  0  0  0  0  0  0  0  0  0  0
   10.1541  -16.3520   26.7760 C   0  0  0  0  0  0  0  0  0  0  0  0
    9.6061  -15.1930   26.8842 O   0  0  0  0  0  0  0  0  0  0  0  0
   10.2565  -17.1107   27.9361 O   0  0  0  0  0  0  0  0  0  0  0  0
  2  3  1  0
  2  1  1  6
  4  3  1  0
  5  2  1  0
  6  5  2  0
  8  9  2  0
  8  7  1  0
 10  9  1  0
 11 10  2  0
 13 12  1  1
 12 11  1  0
 13 14  1  0
 14  5  1  0
 15 25  1  0
 15 13  1  0
 16 15  2  0
 17 11  1  0
 17 18  2  0
 18  8  1  0
 20 19  1  0
 21 20  2  0
 22 20  1  0
 24 23  1  1
 23 22  1  0
 24 25  1  0
 26 24  1  0
 26 28  1  0
 27 26  2  0
M  END
$$$$
