CYQ.pdb
     RDKit          3D

 28 28  0  0  1  0  0  0  0  0999 V2000
    8.6310  -16.1574   18.6020 N   0  0  0  0  0  0  0  0  0  0  0  0
    7.7813  -16.4927   19.7209 C   0  0  1  0  0  0  0  0  0  0  0  0
    7.6717  -17.9795   19.9154 C   0  0  0  0  0  0  0  0  0  0  0  0
    6.4676  -18.6352   18.7362 S   0  0  0  0  0  0  0  0  0  0  0  0
    8.3245  -15.8685   20.9567 C   0  0  0  0  0  0  0  0  0  0  0  0
    9.5679  -15.7739   21.1281 O   0  0  0  0  0  0  0  0  0  0  0  0
    7.9686  -12.5268   29.3005 O   0  0  0  0  0  0  0  0  0  0  0  0
    7.7153  -12.9755   28.0110 C   0  0  0  0  0  0  0  0  0  0  0  0
    8.0981  -14.2183   27.5685 C   0  0  0  0  0  0  0  0  0  0  0  0
    7.8275  -14.6330   26.2712 C   0  0  0  0  0  0  0  0  0  0  0  0
    7.1659  -13.8173   25.3767 C   0  0  0  0  0  0  0  0  0  0  0  0
    6.8742  -14.2256   24.0074 C   0  0  0  0  0  0  0  0  0  0  0  0
    7.9964  -14.8719   23.2597 C   0  0  2  0  0  0  0  0  0  0  0  0
    7.4727  -15.3623   21.9768 N   0  0  0  0  0  0  0  0  0  0  0  0
    8.5443  -15.9845   24.0633 C   0  0  0  0  0  0  0  0  0  0  0  0
    7.8378  -16.9879   24.3695 O   0  0  0  0  0  0  0  0  0  0  0  0
    6.7872  -12.5688   25.8384 C   0  0  0  0  0  0  0  0  0  0  0  0
    7.0513  -12.1533   27.1183 C   0  0  0  0  0  0  0  0  0  0  0  0
   14.1185  -18.2302   23.6128 N   0  0  0  0  0  0  0  0  0  0  0  0
   13.0191  -18.1235   22.7505 C   0  0  0  0  0  0  0  0  0  0  0  0
   13.1439  -18.2877   21.5309 O   0  0  0  0  0  0  0  0  0  0  0  0
   11.6821  -17.8075   23.3140 C   0  0  0  0  0  0  0  0  0  0  0  0
   11.7351  -17.5824   24.7994 C   0  0  0  0  0  0  0  0  0  0  0  0
   10.3916  -17.1811   25.2890 C   0  0  2  0  0  0  0  0  0  0  0  0
    9.8741  -16.0281   24.5508 N   0  0  0  0  0  0  0  0  0  0  0  0
   10.4421  -16.7931   26.7069 C   0  0  0  0  0  0  0  0  0  0  0  0
    9.8278  -17.5508   27.5458 O   0  0  0  0  0  0  0  0  0  0  0  0
   11.0978  -15.6824   27.2247 O   0  0  0  0  0  0  0  0  0  0  0  0
  2  3  1  0
  2  1  1  6
  4  3  1  0
  5  2  1  0
  6  5  2  0
  8  9  2  0
  8  7  1  0
 10  9  1  0
 11 10  2  0
 13 12  1  1
 12 11  1  0
 13 14  1  0
 14  5  1  0
 15 25  1  0
 15 13  1  0
 16 15  2  0
 17 11  1  0
 17 18  2  0
 18  8  1  0
 20 19  1  0
 21 20  2  0
 22 20  1  0
 24 23  1  6
 23 22  1  0
 24 25  1  0
 26 24  1  0
 26 28  1  0
 27 26  2  0
M  END
$$$$
