CYQ.pdb
     RDKit          3D

 28 28  0  0  1  0  0  0  0  0999 V2000
    9.9260  -16.7761   18.0579 N   0  0  0  0  0  0  0  0  0  0  0  0
    8.9716  -17.1635   19.0705 C   0  0  1  0  0  0  0  0  0  0  0  0
    9.0464  -18.6333   19.3779 C   0  0  0  0  0  0  0  0  0  0  0  0
    7.8379  -19.0227   20.6656 S   0  0  0  0  0  0  0  0  0  0  0  0
    9.2247  -16.3828   20.3108 C   0  0  0  0  0  0  0  0  0  0  0  0
   10.3929  -16.2739   20.7667 O   0  0  0  0  0  0  0  0  0  0  0  0
    7.0286  -11.9601   27.8166 O   0  0  0  0  0  0  0  0  0  0  0  0
    7.0772  -12.5102   26.5425 C   0  0  0  0  0  0  0  0  0  0  0  0
    7.6546  -11.8644   25.4763 C   0  0  0  0  0  0  0  0  0  0  0  0
    7.6845  -12.4460   24.2158 C   0  0  0  0  0  0  0  0  0  0  0  0
    7.1379  -13.6910   23.9828 C   0  0  0  0  0  0  0  0  0  0  0  0
    7.1507  -14.3220   22.6681 C   0  0  0  0  0  0  0  0  0  0  0  0
    8.3928  -15.0739   22.3106 C   0  0  2  0  0  0  0  0  0  0  0  0
    8.1725  -15.7392   21.0186 N   0  0  0  0  0  0  0  0  0  0  0  0
    8.6882  -16.0635   23.3677 C   0  0  0  0  0  0  0  0  0  0  0  0
    8.0601  -17.1590   23.4402 O   0  0  0  0  0  0  0  0  0  0  0  0
    6.5604  -14.3278   25.0674 C   0  0  0  0  0  0  0  0  0  0  0  0
    6.5276  -13.7590   26.3148 C   0  0  0  0  0  0  0  0  0  0  0  0
   10.7512  -20.8352   25.8018 N   0  0  0  0  0  0  0  0  0  0  0  0
   11.6039  -19.9423   25.1391 C   0  0  0  0  0  0  0  0  0  0  0  0
   12.1428  -20.2473   24.0683 O   0  0  0  0  0  0  0  0  0  0  0  0
   11.8630  -18.6074   25.7355 C   0  0  0  0  0  0  0  0  0  0  0  0
   11.4489  -17.4903   24.8189 C   0  0  0  0  0  0  0  0  0  0  0  0
   10.1167  -16.9787   25.2301 C   0  0  2  0  0  0  0  0  0  0  0  0
    9.6743  -15.8811   24.3687 N   0  0  0  0  0  0  0  0  0  0  0  0
   10.1549  -16.4548   26.6040 C   0  0  0  0  0  0  0  0  0  0  0  0
   10.4335  -15.2073   26.7498 O   0  0  0  0  0  0  0  0  0  0  0  0
    9.9129  -17.1853   27.7614 O   0  0  0  0  0  0  0  0  0  0  0  0
  2  3  1  0
  2  1  1  6
  4  3  1  0
  5  2  1  0
  6  5  2  0
  8  9  2  0
  8  7  1  0
 10  9  1  0
 11 10  2  0
 13 12  1  1
 12 11  1  0
 13 14  1  0
 14  5  1  0
 15 25  1  0
 15 13  1  0
 16 15  2  0
 17 11  1  0
 17 18  2  0
 18  8  1  0
 20 19  1  0
 21 20  2  0
 22 20  1  0
 24 23  1  6
 23 22  1  0
 24 25  1  0
 26 24  1  0
 26 28  1  0
 27 26  2  0
M  END
$$$$
