IVS.pdb
     RDKit          3D

 22 21  0  0  1  0  0  0  0  0999 V2000
    6.8871  -11.9479   28.1983 C   0  0  0  0  0  0  0  0  0  0  0  0
    6.2113  -12.8661   27.2383 C   0  0  0  0  0  0  0  0  0  0  0  0
    7.1524  -13.6634   26.3588 C   0  0  2  0  0  0  0  0  0  0  0  0
    7.9741  -12.6299   25.5786 C   0  0  0  0  0  0  0  0  0  0  0  0
    6.3296  -14.5264   25.4229 C   0  0  2  0  0  0  0  0  0  0  0  0
    5.6572  -15.5815   26.2089 N   0  0  0  0  0  0  0  0  0  0  0  0
    7.1405  -15.2131   24.3913 C   0  0  0  0  0  0  0  0  0  0  0  0
    7.5835  -16.3995   24.6130 O   0  0  0  0  0  0  0  0  0  0  0  0
    6.7008  -14.5695   20.4763 C   0  0  0  0  0  0  0  0  0  0  0  0
    8.1521  -14.7068   20.8515 C   0  0  2  0  0  0  0  0  0  0  0  0
    8.8581  -15.5254   19.7882 C   0  0  0  0  0  0  0  0  0  0  0  0
    8.2668  -15.4431   22.1501 C   0  0  2  0  0  0  0  0  0  0  0  0
    7.4873  -14.6753   23.1405 N   0  0  0  0  0  0  0  0  0  0  0  0
    9.6510  -15.6297   22.6112 C   0  0  0  0  0  0  0  0  0  0  0  0
   10.3092  -14.6233   22.9544 O   0  0  0  0  0  0  0  0  0  0  0  0
   10.7518  -19.2358   23.5412 O   0  0  0  0  0  0  0  0  0  0  0  0
   11.6622  -18.2948   24.0120 C   0  0  0  0  0  0  0  0  0  0  0  0
   11.6415  -17.1114   23.0548 C   0  0  2  0  0  0  0  0  0  0  0  0
   10.2635  -16.8882   22.6821 N   0  0  0  0  0  0  0  0  0  0  0  0
   12.4731  -17.5057   21.8813 C   0  0  0  0  0  0  0  0  0  0  0  0
   11.8748  -17.7570   20.8048 O   0  0  0  0  0  0  0  0  0  0  0  0
   13.8384  -17.5718   22.0411 O   0  0  0  0  0  0  0  0  0  0  0  0
  2  1  1  0
  2  3  1  0
  3  4  1  6
  5  3  1  0
  5  7  1  0
  5  6  1  1
  7  8  2  0
 10  9  1  6
 10 12  1  0
 10 11  1  0
 12 13  1  1
 13  7  1  0
 14 12  1  0
 14 15  2  0
 16 17  1  0
 18 17  1  1
 18 19  1  0
 18 20  1  0
 19 14  1  0
 20 21  2  0
 20 22  1  0
M  END
$$$$
