IVS.pdb
     RDKit          3D

 22 21  0  0  1  0  0  0  0  0999 V2000
    6.8489  -11.6441   28.0015 C   0  0  0  0  0  0  0  0  0  0  0  0
    6.1842  -12.6824   27.1640 C   0  0  0  0  0  0  0  0  0  0  0  0
    7.1338  -13.5528   26.3669 C   0  0  2  0  0  0  0  0  0  0  0  0
    8.0056  -12.5877   25.5542 C   0  0  0  0  0  0  0  0  0  0  0  0
    6.3212  -14.4528   25.4571 C   0  0  2  0  0  0  0  0  0  0  0  0
    5.5802  -15.4282   26.2833 N   0  0  0  0  0  0  0  0  0  0  0  0
    7.1500  -15.2357   24.5118 C   0  0  0  0  0  0  0  0  0  0  0  0
    7.6112  -16.3824   24.8660 O   0  0  0  0  0  0  0  0  0  0  0  0
    6.8240  -15.0639   20.5481 C   0  0  0  0  0  0  0  0  0  0  0  0
    8.2690  -15.0839   20.9695 C   0  0  2  0  0  0  0  0  0  0  0  0
    9.0402  -15.9938   20.0334 C   0  0  0  0  0  0  0  0  0  0  0  0
    8.3802  -15.6464   22.3526 C   0  0  2  0  0  0  0  0  0  0  0  0
    7.4959  -14.8341   23.2106 N   0  0  0  0  0  0  0  0  0  0  0  0
    9.7514  -15.6581   22.8846 C   0  0  0  0  0  0  0  0  0  0  0  0
   10.3408  -14.5671   23.0464 O   0  0  0  0  0  0  0  0  0  0  0  0
   11.0976  -19.1314   24.0378 O   0  0  0  0  0  0  0  0  0  0  0  0
   11.8760  -18.1299   24.6097 C   0  0  0  0  0  0  0  0  0  0  0  0
   11.7805  -16.9018   23.7156 C   0  0  2  0  0  0  0  0  0  0  0  0
   10.4254  -16.8407   23.2179 N   0  0  0  0  0  0  0  0  0  0  0  0
   12.7639  -17.1070   22.6134 C   0  0  0  0  0  0  0  0  0  0  0  0
   13.9847  -17.0510   22.9075 O   0  0  0  0  0  0  0  0  0  0  0  0
   12.2838  -17.3443   21.3456 O   0  0  0  0  0  0  0  0  0  0  0  0
  2  1  1  0
  2  3  1  0
  3  4  1  6
  5  3  1  0
  5  7  1  0
  5  6  1  1
  7  8  2  0
 10  9  1  6
 10 12  1  0
 10 11  1  0
 12 13  1  1
 13  7  1  0
 14 12  1  0
 14 15  2  0
 16 17  1  0
 18 17  1  1
 18 19  1  0
 18 20  1  0
 19 14  1  0
 20 21  2  0
 20 22  1  0
M  END
$$$$
