IVS.pdb
     RDKit          3D

 22 21  0  0  1  0  0  0  0  0999 V2000
    6.1362  -18.2923   19.8483 C   0  0  0  0  0  0  0  0  0  0  0  0
    6.3392  -16.8448   20.1395 C   0  0  0  0  0  0  0  0  0  0  0  0
    7.0355  -16.5572   21.4537 C   0  0  2  0  0  0  0  0  0  0  0  0
    6.2205  -17.2865   22.5288 C   0  0  0  0  0  0  0  0  0  0  0  0
    7.0327  -15.0596   21.6882 C   0  0  2  0  0  0  0  0  0  0  0  0
    7.8132  -14.4043   20.6184 N   0  0  0  0  0  0  0  0  0  0  0  0
    7.6536  -14.6647   22.9734 C   0  0  0  0  0  0  0  0  0  0  0  0
    8.9332  -14.6854   23.0971 O   0  0  0  0  0  0  0  0  0  0  0  0
    6.7637  -11.8202   25.4891 C   0  0  0  0  0  0  0  0  0  0  0  0
    6.8099  -13.1347   26.2211 C   0  0  2  0  0  0  0  0  0  0  0  0
    7.5015  -12.9293   27.5547 C   0  0  0  0  0  0  0  0  0  0  0  0
    7.6156  -14.1198   25.4323 C   0  0  2  0  0  0  0  0  0  0  0  0
    6.9542  -14.2504   24.1194 N   0  0  0  0  0  0  0  0  0  0  0  0
    7.7510  -15.4344   26.0779 C   0  0  0  0  0  0  0  0  0  0  0  0
    6.7142  -16.0794   26.3475 O   0  0  0  0  0  0  0  0  0  0  0  0
   10.9075  -17.5781   25.5928 O   0  0  0  0  0  0  0  0  0  0  0  0
    9.8357  -18.2207   26.2046 C   0  0  0  0  0  0  0  0  0  0  0  0
    9.1724  -17.2229   27.1435 C   0  0  2  0  0  0  0  0  0  0  0  0
    8.9936  -15.9948   26.4037 N   0  0  0  0  0  0  0  0  0  0  0  0
   10.1055  -17.0433   28.2929 C   0  0  0  0  0  0  0  0  0  0  0  0
   10.6098  -15.9037   28.4579 O   0  0  0  0  0  0  0  0  0  0  0  0
   10.3606  -18.1266   29.1025 O   0  0  0  0  0  0  0  0  0  0  0  0
  2  1  1  0
  2  3  1  0
  3  4  1  1
  5  3  1  0
  5  7  1  0
  5  6  1  6
  7  8  2  0
 10  9  1  6
 10 12  1  0
 10 11  1  0
 12 13  1  6
 13  7  1  0
 14 12  1  0
 14 15  2  0
 16 17  1  0
 18 17  1  6
 18 19  1  0
 18 20  1  0
 19 14  1  0
 20 21  2  0
 20 22  1  0
M  END
$$$$
