IVS.pdb
     RDKit          3D

 22 21  0  0  1  0  0  0  0  0999 V2000
    6.7282  -11.5348   28.0072 C   0  0  0  0  0  0  0  0  0  0  0  0
    6.0951  -12.5437   27.1112 C   0  0  0  0  0  0  0  0  0  0  0  0
    7.0722  -13.3583   26.2888 C   0  0  2  0  0  0  0  0  0  0  0  0
    7.8832  -12.3432   25.4740 C   0  0  0  0  0  0  0  0  0  0  0  0
    6.2890  -14.2861   25.3813 C   0  0  2  0  0  0  0  0  0  0  0  0
    5.6124  -15.3076   26.2071 N   0  0  0  0  0  0  0  0  0  0  0  0
    7.1383  -15.0147   24.4113 C   0  0  0  0  0  0  0  0  0  0  0  0
    7.6622  -16.1414   24.7417 O   0  0  0  0  0  0  0  0  0  0  0  0
    8.5907  -13.3849   20.8602 C   0  0  0  0  0  0  0  0  0  0  0  0
    8.0410  -14.7854   20.8120 C   0  0  2  0  0  0  0  0  0  0  0  0
    6.5624  -14.7208   20.4824 C   0  0  0  0  0  0  0  0  0  0  0  0
    8.1844  -15.4269   22.1573 C   0  0  2  0  0  0  0  0  0  0  0  0
    7.4404  -14.5800   23.1098 N   0  0  0  0  0  0  0  0  0  0  0  0
    9.5790  -15.5960   22.5932 C   0  0  0  0  0  0  0  0  0  0  0  0
   10.1767  -14.6135   23.0843 O   0  0  0  0  0  0  0  0  0  0  0  0
   10.9163  -18.5558   24.4822 O   0  0  0  0  0  0  0  0  0  0  0  0
   11.7642  -18.4378   23.3853 C   0  0  0  0  0  0  0  0  0  0  0  0
   11.6459  -17.0141   22.8598 C   0  0  2  0  0  0  0  0  0  0  0  0
   10.2662  -16.8122   22.4813 N   0  0  0  0  0  0  0  0  0  0  0  0
   12.5591  -16.9230   21.6843 C   0  0  0  0  0  0  0  0  0  0  0  0
   12.0335  -16.7798   20.5514 O   0  0  0  0  0  0  0  0  0  0  0  0
   13.9156  -17.0002   21.9035 O   0  0  0  0  0  0  0  0  0  0  0  0
  2  1  1  0
  2  3  1  0
  3  4  1  6
  5  3  1  0
  5  7  1  0
  5  6  1  1
  7  8  2  0
 10  9  1  1
 10 12  1  0
 10 11  1  0
 12 13  1  1
 13  7  1  0
 14 12  1  0
 14 15  2  0
 16 17  1  0
 18 17  1  6
 18 19  1  0
 18 20  1  0
 19 14  1  0
 20 21  2  0
 20 22  1  0
M  END
$$$$
