IVS.pdb
     RDKit          3D

 22 21  0  0  1  0  0  0  0  0999 V2000
    6.6552  -11.5996   27.8820 C   0  0  0  0  0  0  0  0  0  0  0  0
    6.1451  -12.8252   27.2045 C   0  0  0  0  0  0  0  0  0  0  0  0
    7.1223  -13.4664   26.2409 C   0  0  2  0  0  0  0  0  0  0  0  0
    7.4885  -12.3758   25.2268 C   0  0  0  0  0  0  0  0  0  0  0  0
    6.4387  -14.6365   25.5616 C   0  0  2  0  0  0  0  0  0  0  0  0
    6.1941  -15.6965   26.5616 N   0  0  0  0  0  0  0  0  0  0  0  0
    7.2500  -15.2457   24.4828 C   0  0  0  0  0  0  0  0  0  0  0  0
    8.0278  -16.2341   24.7496 O   0  0  0  0  0  0  0  0  0  0  0  0
    8.3273  -15.6859   19.6724 C   0  0  0  0  0  0  0  0  0  0  0  0
    7.5788  -14.9991   20.7833 C   0  0  2  0  0  0  0  0  0  0  0  0
    7.9342  -13.5251   20.7760 C   0  0  0  0  0  0  0  0  0  0  0  0
    8.0043  -15.5680   22.1012 C   0  0  2  0  0  0  0  0  0  0  0  0
    7.2536  -14.8350   23.1391 N   0  0  0  0  0  0  0  0  0  0  0  0
    9.4514  -15.4824   22.3500 C   0  0  0  0  0  0  0  0  0  0  0  0
    9.9048  -14.4569   22.9037 O   0  0  0  0  0  0  0  0  0  0  0  0
   11.3602  -18.2357   23.7998 O   0  0  0  0  0  0  0  0  0  0  0  0
   11.9401  -16.9746   23.7048 C   0  0  0  0  0  0  0  0  0  0  0  0
   11.7611  -16.4894   22.2732 C   0  0  2  0  0  0  0  0  0  0  0  0
   10.3439  -16.5021   21.9924 N   0  0  0  0  0  0  0  0  0  0  0  0
   12.5033  -17.4509   21.4078 C   0  0  0  0  0  0  0  0  0  0  0  0
   11.8267  -18.1857   20.6446 O   0  0  0  0  0  0  0  0  0  0  0  0
   13.8766  -17.4799   21.4924 O   0  0  0  0  0  0  0  0  0  0  0  0
  2  1  1  0
  2  3  1  0
  3  4  1  6
  5  3  1  0
  5  7  1  0
  5  6  1  1
  7  8  2  0
 10  9  1  6
 10 12  1  0
 10 11  1  0
 12 13  1  1
 13  7  1  0
 14 12  1  0
 14 15  2  0
 16 17  1  0
 18 17  1  1
 18 19  1  0
 18 20  1  0
 19 14  1  0
 20 21  2  0
 20 22  1  0
M  END
$$$$
