IVS.pdb
     RDKit          3D

 22 21  0  0  1  0  0  0  0  0999 V2000
    6.3933  -11.2074   27.7267 C   0  0  0  0  0  0  0  0  0  0  0  0
    5.8815  -12.3944   26.9849 C   0  0  0  0  0  0  0  0  0  0  0  0
    6.9538  -13.2354   26.3234 C   0  0  2  0  0  0  0  0  0  0  0  0
    7.7480  -12.2753   25.4292 C   0  0  0  0  0  0  0  0  0  0  0  0
    6.2842  -14.3192   25.5018 C   0  0  2  0  0  0  0  0  0  0  0  0
    5.6861  -15.3143   26.4157 N   0  0  0  0  0  0  0  0  0  0  0  0
    7.2223  -15.0551   24.6234 C   0  0  0  0  0  0  0  0  0  0  0  0
    7.7746  -16.1374   25.0438 O   0  0  0  0  0  0  0  0  0  0  0  0
    7.0136  -14.8452   20.6046 C   0  0  0  0  0  0  0  0  0  0  0  0
    8.4319  -14.9076   21.1051 C   0  0  2  0  0  0  0  0  0  0  0  0
    9.2372  -15.8056   20.1863 C   0  0  0  0  0  0  0  0  0  0  0  0
    8.4543  -15.5124   22.4745 C   0  0  2  0  0  0  0  0  0  0  0  0
    7.5833  -14.6733   23.3203 N   0  0  0  0  0  0  0  0  0  0  0  0
    9.7997  -15.6178   23.0595 C   0  0  0  0  0  0  0  0  0  0  0  0
   10.4054  -14.5667   23.3628 O   0  0  0  0  0  0  0  0  0  0  0  0
   10.9692  -19.1526   24.1926 O   0  0  0  0  0  0  0  0  0  0  0  0
   11.8329  -18.1820   24.6904 C   0  0  0  0  0  0  0  0  0  0  0  0
   11.7983  -16.9976   23.7349 C   0  0  2  0  0  0  0  0  0  0  0  0
   10.4315  -16.8471   23.2913 N   0  0  0  0  0  0  0  0  0  0  0  0
   12.7097  -17.3419   22.6058 C   0  0  0  0  0  0  0  0  0  0  0  0
   12.1937  -17.4938   21.4696 O   0  0  0  0  0  0  0  0  0  0  0  0
   14.0542  -17.4731   22.8685 O   0  0  0  0  0  0  0  0  0  0  0  0
  2  1  1  0
  2  3  1  0
  3  4  1  6
  5  3  1  0
  5  7  1  0
  5  6  1  1
  7  8  2  0
 10  9  1  6
 10 12  1  0
 10 11  1  0
 12 13  1  1
 13  7  1  0
 14 12  1  0
 14 15  2  0
 16 17  1  0
 18 17  1  1
 18 19  1  0
 18 20  1  0
 19 14  1  0
 20 21  2  0
 20 22  1  0
M  END
$$$$
