IVS.pdb
     RDKit          3D

 22 21  0  0  1  0  0  0  0  0999 V2000
   10.0065  -13.8281   29.3194 C   0  0  0  0  0  0  0  0  0  0  0  0
    8.8540  -14.4450   28.6035 C   0  0  0  0  0  0  0  0  0  0  0  0
    9.1951  -15.0381   27.2520 C   0  0  2  0  0  0  0  0  0  0  0  0
    9.8634  -13.9107   26.4555 C   0  0  0  0  0  0  0  0  0  0  0  0
    7.9134  -15.4938   26.5832 C   0  0  2  0  0  0  0  0  0  0  0  0
    7.3491  -16.6259   27.3470 N   0  0  0  0  0  0  0  0  0  0  0  0
    8.1120  -15.9713   25.1955 C   0  0  0  0  0  0  0  0  0  0  0  0
    8.2540  -17.2287   24.9672 O   0  0  0  0  0  0  0  0  0  0  0  0
    6.3580  -14.6068   21.9539 C   0  0  0  0  0  0  0  0  0  0  0  0
    7.8417  -14.7283   21.7307 C   0  0  2  0  0  0  0  0  0  0  0  0
    8.0850  -15.2700   20.3356 C   0  0  0  0  0  0  0  0  0  0  0  0
    8.4178  -15.7038   22.7096 C   0  0  2  0  0  0  0  0  0  0  0  0
    8.1614  -15.1528   24.0545 N   0  0  0  0  0  0  0  0  0  0  0  0
    9.8532  -15.9633   22.5205 C   0  0  0  0  0  0  0  0  0  0  0  0
   10.6649  -15.0414   22.7550 O   0  0  0  0  0  0  0  0  0  0  0  0
   11.5802  -19.1561   23.6807 O   0  0  0  0  0  0  0  0  0  0  0  0
   11.8916  -19.0077   22.3328 C   0  0  0  0  0  0  0  0  0  0  0  0
   11.7520  -17.5325   21.9850 C   0  0  2  0  0  0  0  0  0  0  0  0
   10.3495  -17.2006   22.0884 N   0  0  0  0  0  0  0  0  0  0  0  0
   12.2528  -17.3809   20.5884 C   0  0  0  0  0  0  0  0  0  0  0  0
   11.3982  -17.2301   19.6790 O   0  0  0  0  0  0  0  0  0  0  0  0
   13.6120  -17.4142   20.3749 O   0  0  0  0  0  0  0  0  0  0  0  0
  2  1  1  0
  2  3  1  0
  3  4  1  6
  5  3  1  0
  5  7  1  0
  5  6  1  1
  7  8  2  0
 10  9  1  1
 10 12  1  0
 10 11  1  0
 12 13  1  1
 13  7  1  0
 14 12  1  0
 14 15  2  0
 16 17  1  0
 18 17  1  6
 18 19  1  0
 18 20  1  0
 19 14  1  0
 20 21  2  0
 20 22  1  0
M  END
$$$$
