IVS.pdb
     RDKit          3D

 22 21  0  0  1  0  0  0  0  0999 V2000
    5.8268  -10.9972   26.6295 C   0  0  0  0  0  0  0  0  0  0  0  0
    6.3902  -12.0886   27.4738 C   0  0  0  0  0  0  0  0  0  0  0  0
    7.2376  -13.0942   26.7219 C   0  0  2  0  0  0  0  0  0  0  0  0
    8.3007  -12.2753   25.9795 C   0  0  0  0  0  0  0  0  0  0  0  0
    6.3510  -13.8473   25.7500 C   0  0  2  0  0  0  0  0  0  0  0  0
    5.3801  -14.6576   26.5142 N   0  0  0  0  0  0  0  0  0  0  0  0
    7.0970  -14.7840   24.8785 C   0  0  0  0  0  0  0  0  0  0  0  0
    7.4440  -15.9368   25.3298 O   0  0  0  0  0  0  0  0  0  0  0  0
    6.7759  -14.6768   20.9073 C   0  0  0  0  0  0  0  0  0  0  0  0
    8.1808  -15.0188   21.3261 C   0  0  2  0  0  0  0  0  0  0  0  0
    8.7071  -16.1185   20.4247 C   0  0  0  0  0  0  0  0  0  0  0  0
    8.1729  -15.5392   22.7299 C   0  0  2  0  0  0  0  0  0  0  0  0
    7.4783  -14.5283   23.5506 N   0  0  0  0  0  0  0  0  0  0  0  0
    9.5118  -15.8165   23.2720 C   0  0  0  0  0  0  0  0  0  0  0  0
   10.3097  -14.8642   23.4147 O   0  0  0  0  0  0  0  0  0  0  0  0
   10.1922  -19.5174   24.3918 O   0  0  0  0  0  0  0  0  0  0  0  0
   11.0987  -18.6651   25.0145 C   0  0  0  0  0  0  0  0  0  0  0  0
   11.2454  -17.4271   24.1410 C   0  0  2  0  0  0  0  0  0  0  0  0
    9.9311  -17.1034   23.6355 N   0  0  0  0  0  0  0  0  0  0  0  0
   12.1830  -17.7971   23.0419 C   0  0  0  0  0  0  0  0  0  0  0  0
   11.7191  -17.8425   21.8745 O   0  0  0  0  0  0  0  0  0  0  0  0
   13.4936  -18.0661   23.3645 O   0  0  0  0  0  0  0  0  0  0  0  0
  2  1  1  0
  2  3  1  0
  3  4  1  6
  5  3  1  0
  5  7  1  0
  5  6  1  1
  7  8  2  0
 10  9  1  6
 10 12  1  0
 10 11  1  0
 12 13  1  1
 13  7  1  0
 14 12  1  0
 14 15  2  0
 16 17  1  0
 18 17  1  1
 18 19  1  0
 18 20  1  0
 19 14  1  0
 20 21  2  0
 20 22  1  0
M  END
$$$$
