IVS.pdb
     RDKit          3D

 22 21  0  0  1  0  0  0  0  0999 V2000
    6.5503  -11.6577   27.9542 C   0  0  0  0  0  0  0  0  0  0  0  0
    5.9865  -12.7270   27.0823 C   0  0  0  0  0  0  0  0  0  0  0  0
    7.0174  -13.5028   26.2886 C   0  0  2  0  0  0  0  0  0  0  0  0
    7.7199  -12.4738   25.3944 C   0  0  0  0  0  0  0  0  0  0  0  0
    6.3039  -14.5512   25.4583 C   0  0  2  0  0  0  0  0  0  0  0  0
    5.7270  -15.5685   26.3614 N   0  0  0  0  0  0  0  0  0  0  0  0
    7.1993  -15.2692   24.5223 C   0  0  0  0  0  0  0  0  0  0  0  0
    7.7104  -16.3976   24.8668 O   0  0  0  0  0  0  0  0  0  0  0  0
    6.7459  -15.1861   20.5888 C   0  0  0  0  0  0  0  0  0  0  0  0
    8.2016  -15.0893   20.9598 C   0  0  2  0  0  0  0  0  0  0  0  0
    9.0098  -15.9418   20.0010 C   0  0  0  0  0  0  0  0  0  0  0  0
    8.4043  -15.6321   22.3403 C   0  0  2  0  0  0  0  0  0  0  0  0
    7.5602  -14.8222   23.2401 N   0  0  0  0  0  0  0  0  0  0  0  0
    9.8049  -15.6160   22.7892 C   0  0  0  0  0  0  0  0  0  0  0  0
   10.3835  -14.5138   22.9082 O   0  0  0  0  0  0  0  0  0  0  0  0
   11.1858  -18.8784   24.3288 O   0  0  0  0  0  0  0  0  0  0  0  0
   12.0669  -17.8304   24.5764 C   0  0  0  0  0  0  0  0  0  0  0  0
   11.9185  -16.8235   23.4445 C   0  0  2  0  0  0  0  0  0  0  0  0
   10.5185  -16.7843   23.0892 N   0  0  0  0  0  0  0  0  0  0  0  0
   12.7586  -17.3282   22.3204 C   0  0  0  0  0  0  0  0  0  0  0  0
   12.1642  -17.7510   21.2966 O   0  0  0  0  0  0  0  0  0  0  0  0
   14.1269  -17.3032   22.4655 O   0  0  0  0  0  0  0  0  0  0  0  0
  2  1  1  0
  2  3  1  0
  3  4  1  6
  5  3  1  0
  5  7  1  0
  5  6  1  1
  7  8  2  0
 10  9  1  6
 10 12  1  0
 10 11  1  0
 12 13  1  1
 13  7  1  0
 14 12  1  0
 14 15  2  0
 16 17  1  0
 18 17  1  1
 18 19  1  0
 18 20  1  0
 19 14  1  0
 20 21  2  0
 20 22  1  0
M  END
$$$$
