IVS.pdb
     RDKit          3D

 22 21  0  0  1  0  0  0  0  0999 V2000
    6.6145  -11.6519   27.8019 C   0  0  0  0  0  0  0  0  0  0  0  0
    6.0188  -12.7590   27.0014 C   0  0  0  0  0  0  0  0  0  0  0  0
    7.0243  -13.6019   26.2443 C   0  0  2  0  0  0  0  0  0  0  0  0
    7.8347  -12.6205   25.3886 C   0  0  0  0  0  0  0  0  0  0  0  0
    6.2734  -14.5922   25.3763 C   0  0  2  0  0  0  0  0  0  0  0  0
    5.6363  -15.6046   26.2436 N   0  0  0  0  0  0  0  0  0  0  0  0
    7.1467  -15.3267   24.4323 C   0  0  0  0  0  0  0  0  0  0  0  0
    7.5530  -16.5102   24.7277 O   0  0  0  0  0  0  0  0  0  0  0  0
    6.8521  -14.8599   20.5415 C   0  0  0  0  0  0  0  0  0  0  0  0
    8.2992  -15.0223   20.9230 C   0  0  2  0  0  0  0  0  0  0  0  0
    8.9711  -15.9388   19.9192 C   0  0  0  0  0  0  0  0  0  0  0  0
    8.3931  -15.6686   22.2703 C   0  0  2  0  0  0  0  0  0  0  0  0
    7.5932  -14.8392   23.1925 N   0  0  0  0  0  0  0  0  0  0  0  0
    9.7694  -15.8170   22.7674 C   0  0  0  0  0  0  0  0  0  0  0  0
   10.4221  -14.7862   23.0415 O   0  0  0  0  0  0  0  0  0  0  0  0
   10.8869  -18.8308   24.8994 O   0  0  0  0  0  0  0  0  0  0  0  0
   11.8547  -18.6776   23.9116 C   0  0  0  0  0  0  0  0  0  0  0  0
   11.7470  -17.2576   23.3742 C   0  0  2  0  0  0  0  0  0  0  0  0
   10.3802  -17.0655   22.9469 N   0  0  0  0  0  0  0  0  0  0  0  0
   12.6999  -17.1679   22.2304 C   0  0  0  0  0  0  0  0  0  0  0  0
   12.2128  -17.0487   21.0778 O   0  0  0  0  0  0  0  0  0  0  0  0
   14.0488  -17.2202   22.4986 O   0  0  0  0  0  0  0  0  0  0  0  0
  2  1  1  0
  2  3  1  0
  3  4  1  6
  5  3  1  0
  5  7  1  0
  5  6  1  1
  7  8  2  0
 10  9  1  6
 10 12  1  0
 10 11  1  0
 12 13  1  1
 13  7  1  0
 14 12  1  0
 14 15  2  0
 16 17  1  0
 18 17  1  6
 18 19  1  0
 18 20  1  0
 19 14  1  0
 20 21  2  0
 20 22  1  0
M  END
$$$$
