IVS.pdb
     RDKit          3D

 22 21  0  0  1  0  0  0  0  0999 V2000
    6.8902  -11.5905   27.9606 C   0  0  0  0  0  0  0  0  0  0  0  0
    6.1873  -12.5539   27.0666 C   0  0  0  0  0  0  0  0  0  0  0  0
    7.1009  -13.5054   26.3218 C   0  0  2  0  0  0  0  0  0  0  0  0
    8.0707  -12.6211   25.5284 C   0  0  0  0  0  0  0  0  0  0  0  0
    6.2604  -14.3619   25.3957 C   0  0  2  0  0  0  0  0  0  0  0  0
    5.4671  -15.3095   26.2057 N   0  0  0  0  0  0  0  0  0  0  0  0
    7.0651  -15.1739   24.4542 C   0  0  0  0  0  0  0  0  0  0  0  0
    7.3523  -16.3925   24.7466 O   0  0  0  0  0  0  0  0  0  0  0  0
    6.9667  -14.8980   20.4909 C   0  0  0  0  0  0  0  0  0  0  0  0
    8.3835  -14.9714   20.9941 C   0  0  2  0  0  0  0  0  0  0  0  0
    9.1864  -15.8657   20.0697 C   0  0  0  0  0  0  0  0  0  0  0  0
    8.3998  -15.5877   22.3585 C   0  0  2  0  0  0  0  0  0  0  0  0
    7.5661  -14.7269   23.2200 N   0  0  0  0  0  0  0  0  0  0  0  0
    9.7469  -15.7426   22.9284 C   0  0  0  0  0  0  0  0  0  0  0  0
   10.3655  -14.7182   23.2914 O   0  0  0  0  0  0  0  0  0  0  0  0
   10.9030  -18.6764   25.1274 O   0  0  0  0  0  0  0  0  0  0  0  0
   11.8292  -18.5842   24.0932 C   0  0  0  0  0  0  0  0  0  0  0  0
   11.7332  -17.1818   23.5094 C   0  0  2  0  0  0  0  0  0  0  0  0
   10.3665  -16.9902   23.0816 N   0  0  0  0  0  0  0  0  0  0  0  0
   12.6819  -17.1395   22.3594 C   0  0  0  0  0  0  0  0  0  0  0  0
   12.1903  -17.1089   21.2029 O   0  0  0  0  0  0  0  0  0  0  0  0
   14.0320  -17.1365   22.6264 O   0  0  0  0  0  0  0  0  0  0  0  0
  2  1  1  0
  2  3  1  0
  3  4  1  6
  5  3  1  0
  5  7  1  0
  5  6  1  1
  7  8  2  0
 10  9  1  6
 10 12  1  0
 10 11  1  0
 12 13  1  1
 13  7  1  0
 14 12  1  0
 14 15  2  0
 16 17  1  0
 18 17  1  6
 18 19  1  0
 18 20  1  0
 19 14  1  0
 20 21  2  0
 20 22  1  0
M  END
$$$$
