IVS.pdb
     RDKit          3D

 22 21  0  0  1  0  0  0  0  0999 V2000
    6.8357  -11.3023   27.9323 C   0  0  0  0  0  0  0  0  0  0  0  0
    6.1621  -12.3493   27.1130 C   0  0  0  0  0  0  0  0  0  0  0  0
    7.1054  -13.2907   26.3928 C   0  0  2  0  0  0  0  0  0  0  0  0
    8.0392  -12.3980   25.5663 C   0  0  0  0  0  0  0  0  0  0  0  0
    6.2915  -14.2053   25.4990 C   0  0  2  0  0  0  0  0  0  0  0  0
    5.4937  -15.1176   26.3442 N   0  0  0  0  0  0  0  0  0  0  0  0
    7.1222  -15.0567   24.6168 C   0  0  0  0  0  0  0  0  0  0  0  0
    7.5762  -16.1772   25.0543 O   0  0  0  0  0  0  0  0  0  0  0  0
    6.9108  -15.1973   20.5948 C   0  0  0  0  0  0  0  0  0  0  0  0
    8.3280  -15.1191   21.0964 C   0  0  2  0  0  0  0  0  0  0  0  0
    9.1981  -16.0289   20.2513 C   0  0  0  0  0  0  0  0  0  0  0  0
    8.3873  -15.6090   22.5099 C   0  0  2  0  0  0  0  0  0  0  0  0
    7.4776  -14.7500   23.2925 N   0  0  0  0  0  0  0  0  0  0  0  0
    9.7388  -15.5975   23.0902 C   0  0  0  0  0  0  0  0  0  0  0  0
   10.1593  -14.5403   23.6092 O   0  0  0  0  0  0  0  0  0  0  0  0
   11.1208  -18.4761   24.9492 O   0  0  0  0  0  0  0  0  0  0  0  0
   11.8871  -17.3155   24.9915 C   0  0  0  0  0  0  0  0  0  0  0  0
   11.9318  -16.7386   23.5836 C   0  0  2  0  0  0  0  0  0  0  0  0
   10.5754  -16.7219   23.0861 N   0  0  0  0  0  0  0  0  0  0  0  0
   12.8012  -17.6490   22.7839 C   0  0  0  0  0  0  0  0  0  0  0  0
   14.0285  -17.6651   23.0551 O   0  0  0  0  0  0  0  0  0  0  0  0
   12.2159  -18.4147   21.8015 O   0  0  0  0  0  0  0  0  0  0  0  0
  2  1  1  0
  2  3  1  0
  3  4  1  6
  5  3  1  0
  5  7  1  0
  5  6  1  1
  7  8  2  0
 10  9  1  6
 10 12  1  0
 10 11  1  0
 12 13  1  1
 13  7  1  0
 14 12  1  0
 14 15  2  0
 16 17  1  0
 18 17  1  1
 18 19  1  0
 18 20  1  0
 19 14  1  0
 20 21  2  0
 20 22  1  0
M  END
$$$$
