SEG.pdb
     RDKit          3D

 20 19  0  0  1  0  0  0  0  0999 V2000
   21.4379  -12.9975  -14.8186 O   0  0  0  0  0  0  0  0  0  0  0  0
   21.7005  -11.7019  -15.2434 C   0  0  0  0  0  0  0  0  0  0  0  0
   20.8495  -11.3101  -16.4281 C   0  0  2  0  0  0  0  0  0  0  0  0
   21.2431  -11.9738  -17.6318 N   0  0  0  0  0  0  0  0  0  0  0  0
   20.7562   -9.8625  -16.6192 C   0  0  0  0  0  0  0  0  0  0  0  0
   21.4326   -9.2154  -17.4645 O   0  0  0  0  0  0  0  0  0  0  0  0
   19.8520   -9.1300  -15.8089 N   0  0  0  0  0  0  0  0  0  0  0  0
   19.6645   -7.6629  -15.9597 C   0  0  1  0  0  0  0  0  0  0  0  0
   18.2142   -7.3978  -16.1474 C   0  0  0  0  0  0  0  0  0  0  0  0
   17.8268   -5.9889  -16.2742 C   0  0  0  0  0  0  0  0  0  0  0  0
   16.4126   -5.7083  -16.5212 C   0  0  0  0  0  0  0  0  0  0  0  0
   15.6955   -5.2866  -15.5840 O   0  0  0  0  0  0  0  0  0  0  0  0
   20.3565   -7.0287  -14.8477 C   0  0  0  0  0  0  0  0  0  0  0  0
   20.4014   -7.6521  -13.7281 O   0  0  0  0  0  0  0  0  0  0  0  0
   15.7907   -5.8773  -17.7542 O   0  0  0  0  0  0  0  0  0  0  0  0
   21.0135   -5.7755  -14.8500 N   0  0  0  0  0  0  0  0  0  0  0  0
   21.6236   -5.1975  -13.6715 C   0  0  0  0  0  0  0  0  0  0  0  0
   22.4046   -3.9846  -13.9904 C   0  0  0  0  0  0  0  0  0  0  0  0
   23.0086   -3.3177  -12.9371 O   0  0  0  0  0  0  0  0  0  0  0  0
   22.5563   -3.5216  -15.1432 O   0  0  0  0  0  0  0  0  0  0  0  0
  2  1  1  0
  3  2  1  0
  3  4  1  6
  5  3  1  0
  5  6  2  0
  7  5  1  0
  8  7  1  0
  8  9  1  1
 10  9  1  0
 11 10  1  0
 12 11  2  0
 13  8  1  0
 13 16  1  0
 14 13  2  0
 15 11  1  0
 17 16  1  0
 18 17  1  0
 19 18  1  0
 20 18  2  0
M  END
$$$$
