SEG.pdb
     RDKit          3D

 20 19  0  0  1  0  0  0  0  0999 V2000
   20.2407  -12.2481  -14.9429 O   0  0  0  0  0  0  0  0  0  0  0  0
   20.4288  -10.9253  -15.3206 C   0  0  0  0  0  0  0  0  0  0  0  0
   19.8520  -10.6382  -16.6867 C   0  0  2  0  0  0  0  0  0  0  0  0
   20.4384  -11.4438  -17.7120 N   0  0  0  0  0  0  0  0  0  0  0  0
   19.8788   -9.2182  -17.0386 C   0  0  0  0  0  0  0  0  0  0  0  0
   20.5860   -8.7315  -17.9625 O   0  0  0  0  0  0  0  0  0  0  0  0
   19.0627   -8.3230  -16.3016 N   0  0  0  0  0  0  0  0  0  0  0  0
   18.9114   -6.8939  -16.6825 C   0  0  1  0  0  0  0  0  0  0  0  0
   17.4640   -6.6157  -16.8732 C   0  0  0  0  0  0  0  0  0  0  0  0
   17.1159   -5.2447  -17.2610 C   0  0  0  0  0  0  0  0  0  0  0  0
   15.6952   -4.9442  -17.4366 C   0  0  0  0  0  0  0  0  0  0  0  0
   15.2348   -4.7981  -18.5929 O   0  0  0  0  0  0  0  0  0  0  0  0
   19.6545   -6.1120  -15.7058 C   0  0  0  0  0  0  0  0  0  0  0  0
   19.3728   -6.2683  -14.4647 O   0  0  0  0  0  0  0  0  0  0  0  0
   14.7942   -4.8081  -16.3853 O   0  0  0  0  0  0  0  0  0  0  0  0
   20.6866   -5.1785  -15.9617 N   0  0  0  0  0  0  0  0  0  0  0  0
   21.3876   -4.4643  -14.9159 C   0  0  0  0  0  0  0  0  0  0  0  0
   21.9007   -5.3747  -13.8715 C   0  0  0  0  0  0  0  0  0  0  0  0
   20.9913   -5.8680  -12.9503 O   0  0  0  0  0  0  0  0  0  0  0  0
   23.0964   -5.7283  -13.7640 O   0  0  0  0  0  0  0  0  0  0  0  0
  2  1  1  0
  3  2  1  0
  3  4  1  6
  5  3  1  0
  5  6  2  0
  7  5  1  0
  8  7  1  0
  8  9  1  1
 10  9  1  0
 11 10  1  0
 12 11  2  0
 13  8  1  0
 13 16  1  0
 14 13  2  0
 15 11  1  0
 17 16  1  0
 18 17  1  0
 19 18  1  0
 20 18  2  0
M  END
$$$$
