SEG.pdb
     RDKit          3D

 20 19  0  0  1  0  0  0  0  0999 V2000
   14.4068  -10.2742  -14.6736 O   0  0  0  0  0  0  0  0  0  0  0  0
   15.7375  -10.0790  -14.3289 C   0  0  0  0  0  0  0  0  0  0  0  0
   16.6579  -11.0266  -15.0612 C   0  0  2  0  0  0  0  0  0  0  0  0
   16.3456  -12.3994  -14.8118 N   0  0  0  0  0  0  0  0  0  0  0  0
   18.0758  -10.7483  -14.8313 C   0  0  0  0  0  0  0  0  0  0  0  0
   18.7615  -11.2786  -13.9152 O   0  0  0  0  0  0  0  0  0  0  0  0
   18.7314   -9.8260  -15.6858 N   0  0  0  0  0  0  0  0  0  0  0  0
   20.1849   -9.5355  -15.5703 C   0  0  1  0  0  0  0  0  0  0  0  0
   20.8080   -9.7505  -16.9023 C   0  0  0  0  0  0  0  0  0  0  0  0
   22.2423   -9.4596  -16.9984 C   0  0  0  0  0  0  0  0  0  0  0  0
   22.8514   -9.5508  -18.3251 C   0  0  0  0  0  0  0  0  0  0  0  0
   23.1609   -8.5005  -18.9345 O   0  0  0  0  0  0  0  0  0  0  0  0
   20.3093   -8.2304  -14.9388 C   0  0  0  0  0  0  0  0  0  0  0  0
   19.5238   -7.2936  -15.3255 O   0  0  0  0  0  0  0  0  0  0  0  0
   23.1216  -10.7509  -18.9751 O   0  0  0  0  0  0  0  0  0  0  0  0
   21.2106   -7.8567  -13.9140 N   0  0  0  0  0  0  0  0  0  0  0  0
   21.1881   -6.5598  -13.2717 C   0  0  0  0  0  0  0  0  0  0  0  0
   21.7260   -5.4985  -14.1475 C   0  0  0  0  0  0  0  0  0  0  0  0
   22.1448   -5.8670  -15.4154 O   0  0  0  0  0  0  0  0  0  0  0  0
   21.8280   -4.2944  -13.8218 O   0  0  0  0  0  0  0  0  0  0  0  0
  2  1  1  0
  3  2  1  0
  3  4  1  1
  5  3  1  0
  5  6  2  0
  7  5  1  0
  8  7  1  0
  8  9  1  6
 10  9  1  0
 11 10  1  0
 12 11  2  0
 13  8  1  0
 13 16  1  0
 14 13  2  0
 15 11  1  0
 17 16  1  0
 18 17  1  0
 19 18  1  0
 20 18  2  0
M  END
$$$$
