SEG.pdb
     RDKit          3D

 20 19  0  0  1  0  0  0  0  0999 V2000
   17.5271  -12.1052  -14.8850 O   0  0  0  0  0  0  0  0  0  0  0  0
   17.6552  -10.7710  -15.2476 C   0  0  0  0  0  0  0  0  0  0  0  0
   18.9155  -10.5173  -16.0404 C   0  0  2  0  0  0  0  0  0  0  0  0
   20.0625  -11.1508  -15.4680 N   0  0  0  0  0  0  0  0  0  0  0  0
   19.1595   -9.0981  -16.2995 C   0  0  0  0  0  0  0  0  0  0  0  0
   18.2940   -8.3037  -16.7582 O   0  0  0  0  0  0  0  0  0  0  0  0
   20.4461   -8.5710  -16.0213 N   0  0  0  0  0  0  0  0  0  0  0  0
   20.7238   -7.1106  -16.0391 C   0  0  1  0  0  0  0  0  0  0  0  0
   21.2274   -6.7180  -14.6971 C   0  0  0  0  0  0  0  0  0  0  0  0
   21.7303   -5.3458  -14.5725 C   0  0  0  0  0  0  0  0  0  0  0  0
   22.2610   -4.9485  -13.2687 C   0  0  0  0  0  0  0  0  0  0  0  0
   22.8504   -5.7966  -12.5590 O   0  0  0  0  0  0  0  0  0  0  0  0
   21.5541   -6.8492  -17.2053 C   0  0  0  0  0  0  0  0  0  0  0  0
   22.5261   -7.6495  -17.4477 O   0  0  0  0  0  0  0  0  0  0  0  0
   22.1586   -3.6627  -12.7472 O   0  0  0  0  0  0  0  0  0  0  0  0
   21.4133   -5.7951  -18.1386 N   0  0  0  0  0  0  0  0  0  0  0  0
   22.3630   -5.5447  -19.2019 C   0  0  0  0  0  0  0  0  0  0  0  0
   22.0903   -6.3730  -20.3945 C   0  0  0  0  0  0  0  0  0  0  0  0
   22.9031   -6.1882  -21.5008 O   0  0  0  0  0  0  0  0  0  0  0  0
   21.1782   -7.2265  -20.4716 O   0  0  0  0  0  0  0  0  0  0  0  0
  2  1  1  0
  3  2  1  0
  3  4  1  1
  5  3  1  0
  5  6  2  0
  7  5  1  0
  8  7  1  0
  8  9  1  1
 10  9  1  0
 11 10  1  0
 12 11  2  0
 13  8  1  0
 13 16  1  0
 14 13  2  0
 15 11  1  0
 17 16  1  0
 18 17  1  0
 19 18  1  0
 20 18  2  0
M  END
$$$$
