SEG.pdb
     RDKit          3D

 20 19  0  0  1  0  0  0  0  0999 V2000
   18.6135  -13.8335  -14.6662 O   0  0  0  0  0  0  0  0  0  0  0  0
   19.1455  -12.5787  -14.9312 C   0  0  0  0  0  0  0  0  0  0  0  0
   18.4991  -11.9309  -16.1328 C   0  0  2  0  0  0  0  0  0  0  0  0
   18.6601  -12.7015  -17.3264 N   0  0  0  0  0  0  0  0  0  0  0  0
   18.9110  -10.5411  -16.3316 C   0  0  0  0  0  0  0  0  0  0  0  0
   19.7856  -10.1744  -17.1630 O   0  0  0  0  0  0  0  0  0  0  0  0
   18.2953   -9.5340  -15.5459 N   0  0  0  0  0  0  0  0  0  0  0  0
   18.5365   -8.0864  -15.7842 C   0  0  1  0  0  0  0  0  0  0  0  0
   17.2868   -7.3491  -15.4626 C   0  0  0  0  0  0  0  0  0  0  0  0
   17.3656   -5.8860  -15.5282 C   0  0  0  0  0  0  0  0  0  0  0  0
   16.9262   -5.2520  -16.7710 C   0  0  0  0  0  0  0  0  0  0  0  0
   15.9565   -5.7359  -17.4000 O   0  0  0  0  0  0  0  0  0  0  0  0
   19.7601   -7.7368  -15.0783 C   0  0  0  0  0  0  0  0  0  0  0  0
   19.9082   -8.1610  -13.8774 O   0  0  0  0  0  0  0  0  0  0  0  0
   17.5209   -4.1193  -17.3179 O   0  0  0  0  0  0  0  0  0  0  0  0
   20.8437   -6.9710  -15.5696 N   0  0  0  0  0  0  0  0  0  0  0  0
   22.0132   -6.6525  -14.7783 C   0  0  0  0  0  0  0  0  0  0  0  0
   21.7201   -5.6465  -13.7368 C   0  0  0  0  0  0  0  0  0  0  0  0
   22.7695   -5.2356  -12.9314 O   0  0  0  0  0  0  0  0  0  0  0  0
   20.5923   -5.1430  -13.5346 O   0  0  0  0  0  0  0  0  0  0  0  0
  2  1  1  0
  3  2  1  0
  3  4  1  6
  5  3  1  0
  5  6  2  0
  7  5  1  0
  8  7  1  0
  8  9  1  1
 10  9  1  0
 11 10  1  0
 12 11  2  0
 13  8  1  0
 13 16  1  0
 14 13  2  0
 15 11  1  0
 17 16  1  0
 18 17  1  0
 19 18  1  0
 20 18  2  0
M  END
$$$$
