SEG.pdb
     RDKit          3D

 20 19  0  0  1  0  0  0  0  0999 V2000
   25.0948  -30.8420   -8.8635 O   0  0  0  0  0  0  0  0  0  0  0  0
   25.0124  -32.0055   -8.1104 C   0  0  0  0  0  0  0  0  0  0  0  0
   25.8660  -33.1127   -8.6820 C   0  0  2  0  0  0  0  0  0  0  0  0
   25.4128  -33.5500   -9.9656 N   0  0  0  0  0  0  0  0  0  0  0  0
   26.0442  -34.2378   -7.7637 C   0  0  0  0  0  0  0  0  0  0  0  0
   25.4739  -35.3551   -7.8947 O   0  0  0  0  0  0  0  0  0  0  0  0
   26.9101  -34.0739   -6.6529 N   0  0  0  0  0  0  0  0  0  0  0  0
   27.1464  -35.1609   -5.6665 C   0  0  1  0  0  0  0  0  0  0  0  0
   28.6124  -35.3820   -5.5625 C   0  0  0  0  0  0  0  0  0  0  0  0
   29.0408  -36.4546   -4.6586 C   0  0  0  0  0  0  0  0  0  0  0  0
   29.6095  -36.0522   -3.3724 C   0  0  0  0  0  0  0  0  0  0  0  0
   30.6169  -35.3072   -3.3504 O   0  0  0  0  0  0  0  0  0  0  0  0
   26.4009  -34.8154   -4.4655 C   0  0  0  0  0  0  0  0  0  0  0  0
   26.3538  -33.5826   -4.1161 O   0  0  0  0  0  0  0  0  0  0  0  0
   29.0977  -36.4447   -2.1397 O   0  0  0  0  0  0  0  0  0  0  0  0
   25.6928  -35.6957   -3.6136 N   0  0  0  0  0  0  0  0  0  0  0  0
   24.9878  -35.2566   -2.4281 C   0  0  0  0  0  0  0  0  0  0  0  0
   25.8752  -35.1900   -1.2488 C   0  0  0  0  0  0  0  0  0  0  0  0
   25.3173  -34.7729   -0.0514 O   0  0  0  0  0  0  0  0  0  0  0  0
   27.0917  -35.4838   -1.2592 O   0  0  0  0  0  0  0  0  0  0  0  0
  2  1  1  0
  3  2  1  0
  3  4  1  6
  5  3  1  0
  5  6  2  0
  7  5  1  0
  8  7  1  0
  8  9  1  1
 10  9  1  0
 11 10  1  0
 12 11  2  0
 13  8  1  0
 13 16  1  0
 14 13  2  0
 15 11  1  0
 17 16  1  0
 18 17  1  0
 19 18  1  0
 20 18  2  0
M  END
$$$$
