SEG.pdb
     RDKit          3D

 20 19  0  0  1  0  0  0  0  0999 V2000
   25.7830  -20.3546   -8.2188 O   0  0  0  0  0  0  0  0  0  0  0  0
   27.1425  -20.4243   -8.4924 C   0  0  0  0  0  0  0  0  0  0  0  0
   27.4209  -21.0965   -9.8160 C   0  0  2  0  0  0  0  0  0  0  0  0
   28.8172  -21.1638  -10.1159 N   0  0  0  0  0  0  0  0  0  0  0  0
   26.6604  -20.5231  -10.9266 C   0  0  0  0  0  0  0  0  0  0  0  0
   26.9261  -19.4159  -11.4690 O   0  0  0  0  0  0  0  0  0  0  0  0
   25.5526  -21.2485  -11.4339 N   0  0  0  0  0  0  0  0  0  0  0  0
   24.7512  -20.7641  -12.5887 C   0  0  1  0  0  0  0  0  0  0  0  0
   25.0994  -21.5906  -13.7738 C   0  0  0  0  0  0  0  0  0  0  0  0
   25.5378  -20.8570  -14.9659 C   0  0  0  0  0  0  0  0  0  0  0  0
   25.4544  -21.5594  -16.2463 C   0  0  0  0  0  0  0  0  0  0  0  0
   24.4626  -21.3711  -16.9887 O   0  0  0  0  0  0  0  0  0  0  0  0
   23.3641  -20.7112  -12.1520 C   0  0  0  0  0  0  0  0  0  0  0  0
   22.9598  -21.5923  -11.3127 O   0  0  0  0  0  0  0  0  0  0  0  0
   26.4233  -22.4422  -16.7127 O   0  0  0  0  0  0  0  0  0  0  0  0
   22.3777  -19.7752  -12.5433 N   0  0  0  0  0  0  0  0  0  0  0  0
   21.0274  -19.7811  -12.0220 C   0  0  0  0  0  0  0  0  0  0  0  0
   20.1608  -20.7385  -12.7396 C   0  0  0  0  0  0  0  0  0  0  0  0
   18.8283  -20.3967  -12.9031 O   0  0  0  0  0  0  0  0  0  0  0  0
   20.5482  -21.8328  -13.2074 O   0  0  0  0  0  0  0  0  0  0  0  0
  2  1  1  0
  3  2  1  0
  3  4  1  6
  5  3  1  0
  5  6  2  0
  7  5  1  0
  8  7  1  0
  8  9  1  6
 10  9  1  0
 11 10  1  0
 12 11  2  0
 13  8  1  0
 13 16  1  0
 14 13  2  0
 15 11  1  0
 17 16  1  0
 18 17  1  0
 19 18  1  0
 20 18  2  0
M  END
$$$$
