SEG.pdb
     RDKit          3D

 20 19  0  0  1  0  0  0  0  0999 V2000
   13.2508   -9.9926  -15.2629 O   0  0  0  0  0  0  0  0  0  0  0  0
   14.5876   -9.7974  -14.9429 C   0  0  0  0  0  0  0  0  0  0  0  0
   15.4174  -11.0341  -15.1946 C   0  0  2  0  0  0  0  0  0  0  0  0
   14.8916  -12.1919  -14.5409 N   0  0  0  0  0  0  0  0  0  0  0  0
   16.8376  -10.8477  -14.8961 C   0  0  0  0  0  0  0  0  0  0  0  0
   17.3876  -11.2079  -13.8197 O   0  0  0  0  0  0  0  0  0  0  0  0
   17.6576  -10.2242  -15.8705 N   0  0  0  0  0  0  0  0  0  0  0  0
   19.1280  -10.0882  -15.6977 C   0  0  1  0  0  0  0  0  0  0  0  0
   19.7953  -10.8980  -16.7502 C   0  0  0  0  0  0  0  0  0  0  0  0
   21.2596  -10.8237  -16.7902 C   0  0  0  0  0  0  0  0  0  0  0  0
   21.9374  -11.6174  -17.8150 C   0  0  0  0  0  0  0  0  0  0  0  0
   21.2624  -12.3594  -18.5661 O   0  0  0  0  0  0  0  0  0  0  0  0
   19.4174   -8.6643  -15.6175 C   0  0  0  0  0  0  0  0  0  0  0  0
   18.7961   -7.8747  -16.4142 O   0  0  0  0  0  0  0  0  0  0  0  0
   23.3129  -11.6055  -18.0234 O   0  0  0  0  0  0  0  0  0  0  0  0
   20.3199   -8.0216  -14.7375 N   0  0  0  0  0  0  0  0  0  0  0  0
   20.6070   -6.6040  -14.7919 C   0  0  0  0  0  0  0  0  0  0  0  0
   21.6797   -6.2196  -13.8514 C   0  0  0  0  0  0  0  0  0  0  0  0
   22.1053   -7.1741  -12.9422 O   0  0  0  0  0  0  0  0  0  0  0  0
   22.2270   -5.0945  -13.8215 O   0  0  0  0  0  0  0  0  0  0  0  0
  2  1  1  0
  3  2  1  0
  3  4  1  1
  5  3  1  0
  5  6  2  0
  7  5  1  0
  8  7  1  0
  8  9  1  6
 10  9  1  0
 11 10  1  0
 12 11  2  0
 13  8  1  0
 13 16  1  0
 14 13  2  0
 15 11  1  0
 17 16  1  0
 18 17  1  0
 19 18  1  0
 20 18  2  0
M  END
$$$$
