SEG.pdb
     RDKit          3D

 20 19  0  0  1  0  0  0  0  0999 V2000
   15.3679  -11.7181  -13.8412 O   0  0  0  0  0  0  0  0  0  0  0  0
   16.1211  -10.5531  -13.8978 C   0  0  0  0  0  0  0  0  0  0  0  0
   16.9022  -10.4448  -15.1860 C   0  0  2  0  0  0  0  0  0  0  0  0
   17.6562  -11.6252  -15.4731 N   0  0  0  0  0  0  0  0  0  0  0  0
   17.7360   -9.2447  -15.2571 C   0  0  0  0  0  0  0  0  0  0  0  0
   18.9203   -9.2306  -15.6907 O   0  0  0  0  0  0  0  0  0  0  0  0
   17.1894   -8.0138  -14.8136 N   0  0  0  0  0  0  0  0  0  0  0  0
   17.8785   -6.7155  -15.0374 C   0  0  1  0  0  0  0  0  0  0  0  0
   16.8424   -5.6606  -15.1876 C   0  0  0  0  0  0  0  0  0  0  0  0
   16.0966   -5.6637  -16.4505 C   0  0  0  0  0  0  0  0  0  0  0  0
   14.9819   -4.7236  -16.5663 C   0  0  0  0  0  0  0  0  0  0  0  0
   14.7125   -3.9662  -15.6050 O   0  0  0  0  0  0  0  0  0  0  0  0
   18.8759   -6.5762  -13.9870 C   0  0  0  0  0  0  0  0  0  0  0  0
   18.6236   -7.0921  -12.8406 O   0  0  0  0  0  0  0  0  0  0  0  0
   14.1802   -4.6045  -17.6971 O   0  0  0  0  0  0  0  0  0  0  0  0
   20.1315   -5.9302  -14.0779 N   0  0  0  0  0  0  0  0  0  0  0  0
   21.0953   -5.9138  -12.9980 C   0  0  0  0  0  0  0  0  0  0  0  0
   22.3783   -5.3079  -13.4098 C   0  0  0  0  0  0  0  0  0  0  0  0
   23.3496   -5.1438  -12.4359 O   0  0  0  0  0  0  0  0  0  0  0  0
   22.6449   -4.9348  -14.5742 O   0  0  0  0  0  0  0  0  0  0  0  0
  2  1  1  0
  3  2  1  0
  3  4  1  1
  5  3  1  0
  5  6  2  0
  7  5  1  0
  8  7  1  0
  8  9  1  1
 10  9  1  0
 11 10  1  0
 12 11  2  0
 13  8  1  0
 13 16  1  0
 14 13  2  0
 15 11  1  0
 17 16  1  0
 18 17  1  0
 19 18  1  0
 20 18  2  0
M  END
$$$$
