SEG.pdb
     RDKit          3D

 20 19  0  0  1  0  0  0  0  0999 V2000
   15.6066   -7.8325  -16.5660 O   0  0  0  0  0  0  0  0  0  0  0  0
   16.7991   -7.9078  -15.8589 C   0  0  0  0  0  0  0  0  0  0  0  0
   17.6729   -9.0419  -16.3399 C   0  0  2  0  0  0  0  0  0  0  0  0
   16.9894  -10.2978  -16.3481 N   0  0  0  0  0  0  0  0  0  0  0  0
   18.9489   -9.1299  -15.6292 C   0  0  0  0  0  0  0  0  0  0  0  0
   19.1707   -9.9160  -14.6682 O   0  0  0  0  0  0  0  0  0  0  0  0
   20.0104   -8.2832  -16.0375 N   0  0  0  0  0  0  0  0  0  0  0  0
   21.3287   -8.2794  -15.3501 C   0  0  1  0  0  0  0  0  0  0  0  0
   22.3638   -8.6998  -16.3303 C   0  0  0  0  0  0  0  0  0  0  0  0
   22.5351  -10.1456  -16.5079 C   0  0  0  0  0  0  0  0  0  0  0  0
   23.5076  -10.5814  -17.5098 C   0  0  0  0  0  0  0  0  0  0  0  0
   23.6861  -11.8065  -17.7030 O   0  0  0  0  0  0  0  0  0  0  0  0
   21.4642   -6.9864  -14.6963 C   0  0  0  0  0  0  0  0  0  0  0  0
   22.5261   -6.7618  -14.0136 O   0  0  0  0  0  0  0  0  0  0  0  0
   24.2665   -9.7111  -18.2860 O   0  0  0  0  0  0  0  0  0  0  0  0
   20.5464   -5.9099  -14.7276 N   0  0  0  0  0  0  0  0  0  0  0  0
   20.7705   -4.6560  -14.0402 C   0  0  0  0  0  0  0  0  0  0  0  0
   21.5723   -3.7159  -14.8502 C   0  0  0  0  0  0  0  0  0  0  0  0
   21.7733   -2.4435  -14.3406 O   0  0  0  0  0  0  0  0  0  0  0  0
   22.0795   -3.9909  -15.9607 O   0  0  0  0  0  0  0  0  0  0  0  0
  2  1  1  0
  3  2  1  0
  3  4  1  1
  5  3  1  0
  5  6  2  0
  7  5  1  0
  8  7  1  0
  8  9  1  6
 10  9  1  0
 11 10  1  0
 12 11  2  0
 13  8  1  0
 13 16  1  0
 14 13  2  0
 15 11  1  0
 17 16  1  0
 18 17  1  0
 19 18  1  0
 20 18  2  0
M  END
$$$$
