SEG.pdb
     RDKit          3D

 20 19  0  0  1  0  0  0  0  0999 V2000
   25.2376  -11.6166  -15.7129 O   0  0  0  0  0  0  0  0  0  0  0  0
   24.4979  -10.4448  -15.8002 C   0  0  0  0  0  0  0  0  0  0  0  0
   23.2423  -10.6264  -16.6198 C   0  0  2  0  0  0  0  0  0  0  0  0
   23.5147  -11.0589  -17.9551 N   0  0  0  0  0  0  0  0  0  0  0  0
   22.3667   -9.4544  -16.6033 C   0  0  0  0  0  0  0  0  0  0  0  0
   22.2414   -8.6511  -17.5676 O   0  0  0  0  0  0  0  0  0  0  0  0
   21.6060   -9.1946  -15.4352 N   0  0  0  0  0  0  0  0  0  0  0  0
   20.5717   -8.1277  -15.3854 C   0  0  1  0  0  0  0  0  0  0  0  0
   19.3148   -8.7246  -14.8633 C   0  0  0  0  0  0  0  0  0  0  0  0
   18.4975   -9.4597  -15.8344 C   0  0  0  0  0  0  0  0  0  0  0  0
   17.5805  -10.4678  -15.3030 C   0  0  0  0  0  0  0  0  0  0  0  0
   17.4255  -11.5466  -15.9214 O   0  0  0  0  0  0  0  0  0  0  0  0
   21.1589   -6.9981  -14.6805 C   0  0  0  0  0  0  0  0  0  0  0  0
   22.0428   -7.2379  -13.7831 O   0  0  0  0  0  0  0  0  0  0  0  0
   16.8512  -10.3127  -14.1283 O   0  0  0  0  0  0  0  0  0  0  0  0
   20.8739   -5.6257  -14.8734 N   0  0  0  0  0  0  0  0  0  0  0  0
   21.4343   -4.5756  -14.0499 C   0  0  0  0  0  0  0  0  0  0  0  0
   22.5001   -3.8307  -14.7513 C   0  0  0  0  0  0  0  0  0  0  0  0
   22.8601   -4.2680  -16.0154 O   0  0  0  0  0  0  0  0  0  0  0  0
   23.0966   -2.8356  -14.2819 O   0  0  0  0  0  0  0  0  0  0  0  0
  2  1  1  0
  3  2  1  0
  3  4  1  6
  5  3  1  0
  5  6  2  0
  7  5  1  0
  8  7  1  0
  8  9  1  1
 10  9  1  0
 11 10  1  0
 12 11  2  0
 13  8  1  0
 13 16  1  0
 14 13  2  0
 15 11  1  0
 17 16  1  0
 18 17  1  0
 19 18  1  0
 20 18  2  0
M  END
$$$$
