SEG.pdb
     RDKit          3D

 20 19  0  0  1  0  0  0  0  0999 V2000
   26.2262  -21.7337   -9.7962 O   0  0  0  0  0  0  0  0  0  0  0  0
   25.3611  -20.8804  -10.4679 C   0  0  0  0  0  0  0  0  0  0  0  0
   25.3319  -21.1561  -11.9526 C   0  0  2  0  0  0  0  0  0  0  0  0
   26.6390  -21.3277  -12.5062 N   0  0  0  0  0  0  0  0  0  0  0  0
   24.5540  -20.1735  -12.7077 C   0  0  0  0  0  0  0  0  0  0  0  0
   24.9293  -18.9889  -12.9239 O   0  0  0  0  0  0  0  0  0  0  0  0
   23.2974  -20.5658  -13.2347 N   0  0  0  0  0  0  0  0  0  0  0  0
   22.4646  -19.6510  -14.0593 C   0  0  1  0  0  0  0  0  0  0  0  0
   22.4427  -20.1720  -15.4510 C   0  0  0  0  0  0  0  0  0  0  0  0
   23.6522  -19.9378  -16.2469 C   0  0  0  0  0  0  0  0  0  0  0  0
   23.6397  -20.4130  -17.6302 C   0  0  0  0  0  0  0  0  0  0  0  0
   24.4420  -21.3094  -17.9810 O   0  0  0  0  0  0  0  0  0  0  0  0
   21.2032  -19.4732  -13.3557 C   0  0  0  0  0  0  0  0  0  0  0  0
   20.7169  -20.4764  -12.7223 O   0  0  0  0  0  0  0  0  0  0  0  0
   22.7769  -19.9310  -18.6095 O   0  0  0  0  0  0  0  0  0  0  0  0
   20.4269  -18.2931  -13.2735 N   0  0  0  0  0  0  0  0  0  0  0  0
   19.2266  -18.1874  -12.4716 C   0  0  0  0  0  0  0  0  0  0  0  0
   18.0882  -18.9053  -13.0810 C   0  0  0  0  0  0  0  0  0  0  0  0
   18.3275  -19.6072  -14.2511 O   0  0  0  0  0  0  0  0  0  0  0  0
   16.9276  -18.9217  -12.6130 O   0  0  0  0  0  0  0  0  0  0  0  0
  2  1  1  0
  3  2  1  0
  3  4  1  6
  5  3  1  0
  5  6  2  0
  7  5  1  0
  8  7  1  0
  8  9  1  6
 10  9  1  0
 11 10  1  0
 12 11  2  0
 13  8  1  0
 13 16  1  0
 14 13  2  0
 15 11  1  0
 17 16  1  0
 18 17  1  0
 19 18  1  0
 20 18  2  0
M  END
$$$$
