SEG.pdb
     RDKit          3D

 20 19  0  0  1  0  0  0  0  0999 V2000
   17.8503  -12.7979  -14.6920 O   0  0  0  0  0  0  0  0  0  0  0  0
   18.9053  -11.9163  -14.8851 C   0  0  0  0  0  0  0  0  0  0  0  0
   19.1968  -11.6929  -16.3502 C   0  0  2  0  0  0  0  0  0  0  0  0
   19.7708  -12.8419  -16.9784 N   0  0  0  0  0  0  0  0  0  0  0  0
   19.9894  -10.4897  -16.6049 C   0  0  0  0  0  0  0  0  0  0  0  0
   21.2156  -10.4995  -16.8999 O   0  0  0  0  0  0  0  0  0  0  0  0
   19.3498   -9.2272  -16.5175 N   0  0  0  0  0  0  0  0  0  0  0  0
   20.0574   -7.9582  -16.8329 C   0  0  1  0  0  0  0  0  0  0  0  0
   19.1030   -7.0556  -17.5281 C   0  0  0  0  0  0  0  0  0  0  0  0
   19.5998   -5.7130  -17.8468 C   0  0  0  0  0  0  0  0  0  0  0  0
   18.6655   -4.7965  -18.5000 C   0  0  0  0  0  0  0  0  0  0  0  0
   17.4983   -5.1795  -18.7474 O   0  0  0  0  0  0  0  0  0  0  0  0
   20.6847   -7.5031  -15.6012 C   0  0  0  0  0  0  0  0  0  0  0  0
   20.0220   -7.6108  -14.5088 O   0  0  0  0  0  0  0  0  0  0  0  0
   18.9867   -3.4953  -18.8736 O   0  0  0  0  0  0  0  0  0  0  0  0
   21.9774   -6.9473  -15.4526 N   0  0  0  0  0  0  0  0  0  0  0  0
   22.5331   -6.5622  -14.1727 C   0  0  0  0  0  0  0  0  0  0  0  0
   21.9441   -5.3043  -13.6691 C   0  0  0  0  0  0  0  0  0  0  0  0
   22.5029   -4.7475  -12.5304 O   0  0  0  0  0  0  0  0  0  0  0  0
   20.9784   -4.7110  -14.2000 O   0  0  0  0  0  0  0  0  0  0  0  0
  2  1  1  0
  3  2  1  0
  3  4  1  1
  5  3  1  0
  5  6  2  0
  7  5  1  0
  8  7  1  0
  8  9  1  1
 10  9  1  0
 11 10  1  0
 12 11  2  0
 13  8  1  0
 13 16  1  0
 14 13  2  0
 15 11  1  0
 17 16  1  0
 18 17  1  0
 19 18  1  0
 20 18  2  0
M  END
$$$$
