SEG.pdb
     RDKit          3D

 20 19  0  0  1  0  0  0  0  0999 V2000
   11.0795  -12.6186  -10.1953 O   0  0  0  0  0  0  0  0  0  0  0  0
   12.2655  -11.9269   -9.9890 C   0  0  0  0  0  0  0  0  0  0  0  0
   13.2795  -12.2036  -11.0737 C   0  0  2  0  0  0  0  0  0  0  0  0
   13.5288  -13.6004  -11.2503 N   0  0  0  0  0  0  0  0  0  0  0  0
   14.5244  -11.4532  -10.9062 C   0  0  0  0  0  0  0  0  0  0  0  0
   15.5219  -11.8730  -10.2587 O   0  0  0  0  0  0  0  0  0  0  0  0
   14.6278  -10.1720  -11.5050 N   0  0  0  0  0  0  0  0  0  0  0  0
   15.8856   -9.3803  -11.4678 C   0  0  1  0  0  0  0  0  0  0  0  0
   16.5075   -9.4344  -12.8165 C   0  0  0  0  0  0  0  0  0  0  0  0
   17.7553   -8.6816  -12.9825 C   0  0  0  0  0  0  0  0  0  0  0  0
   18.4029   -8.7493  -14.2923 C   0  0  0  0  0  0  0  0  0  0  0  0
   19.4851   -8.1450  -14.4764 O   0  0  0  0  0  0  0  0  0  0  0  0
   15.5553   -8.0827  -10.8979 C   0  0  0  0  0  0  0  0  0  0  0  0
   14.4374   -7.5456  -11.2235 O   0  0  0  0  0  0  0  0  0  0  0  0
   17.8923   -9.4571  -15.3758 O   0  0  0  0  0  0  0  0  0  0  0  0
   16.3334   -7.3202   -9.9950 N   0  0  0  0  0  0  0  0  0  0  0  0
   16.0479   -5.9382   -9.6729 C   0  0  0  0  0  0  0  0  0  0  0  0
   16.9926   -5.3955   -8.6751 C   0  0  0  0  0  0  0  0  0  0  0  0
   16.8464   -4.0665   -8.3127 O   0  0  0  0  0  0  0  0  0  0  0  0
   17.9120   -6.0531   -8.1379 O   0  0  0  0  0  0  0  0  0  0  0  0
  2  1  1  0
  3  2  1  0
  3  4  1  1
  5  3  1  0
  5  6  2  0
  7  5  1  0
  8  7  1  0
  8  9  1  6
 10  9  1  0
 11 10  1  0
 12 11  2  0
 13  8  1  0
 13 16  1  0
 14 13  2  0
 15 11  1  0
 17 16  1  0
 18 17  1  0
 19 18  1  0
 20 18  2  0
M  END
$$$$
