SEG.pdb
     RDKit          3D

 20 19  0  0  1  0  0  0  0  0999 V2000
   15.4650   -7.8687  -15.9509 O   0  0  0  0  0  0  0  0  0  0  0  0
   16.5660   -7.7846  -15.1092 C   0  0  0  0  0  0  0  0  0  0  0  0
   17.5217   -8.9370  -15.3087 C   0  0  2  0  0  0  0  0  0  0  0  0
   16.9930  -10.1785  -14.8357 N   0  0  0  0  0  0  0  0  0  0  0  0
   18.8567   -8.6811  -14.7673 C   0  0  0  0  0  0  0  0  0  0  0  0
   19.2149   -8.9824  -13.5961 O   0  0  0  0  0  0  0  0  0  0  0  0
   19.8168   -8.0555  -15.6023 N   0  0  0  0  0  0  0  0  0  0  0  0
   21.1927   -7.7456  -15.1318 C   0  0  1  0  0  0  0  0  0  0  0  0
   22.1339   -7.9955  -16.2546 C   0  0  0  0  0  0  0  0  0  0  0  0
   23.5538   -7.7629  -15.9703 C   0  0  0  0  0  0  0  0  0  0  0  0
   24.4876   -7.9095  -17.0866 C   0  0  0  0  0  0  0  0  0  0  0  0
   25.2561   -8.8988  -17.1211 O   0  0  0  0  0  0  0  0  0  0  0  0
   21.1495   -6.4200  -14.5331 C   0  0  0  0  0  0  0  0  0  0  0  0
   22.1071   -6.0771  -13.7524 O   0  0  0  0  0  0  0  0  0  0  0  0
   24.5847   -7.0080  -18.1419 O   0  0  0  0  0  0  0  0  0  0  0  0
   20.1567   -5.4287  -14.7170 N   0  0  0  0  0  0  0  0  0  0  0  0
   20.2151   -4.1226  -14.0957 C   0  0  0  0  0  0  0  0  0  0  0  0
   21.1398   -3.2134  -14.8034 C   0  0  0  0  0  0  0  0  0  0  0  0
   21.2303   -1.9094  -14.3449 O   0  0  0  0  0  0  0  0  0  0  0  0
   21.8437   -3.5411  -15.7851 O   0  0  0  0  0  0  0  0  0  0  0  0
  2  1  1  0
  3  2  1  0
  3  4  1  1
  5  3  1  0
  5  6  2  0
  7  5  1  0
  8  7  1  0
  8  9  1  6
 10  9  1  0
 11 10  1  0
 12 11  2  0
 13  8  1  0
 13 16  1  0
 14 13  2  0
 15 11  1  0
 17 16  1  0
 18 17  1  0
 19 18  1  0
 20 18  2  0
M  END
$$$$
