SEG.pdb
     RDKit          3D

 20 19  0  0  1  0  0  0  0  0999 V2000
   19.0496  -12.3325  -14.9039 O   0  0  0  0  0  0  0  0  0  0  0  0
   18.9814  -10.9463  -14.8650 C   0  0  0  0  0  0  0  0  0  0  0  0
   17.6984  -10.4592  -14.2340 C   0  0  2  0  0  0  0  0  0  0  0  0
   16.5399  -10.8328  -14.9841 N   0  0  0  0  0  0  0  0  0  0  0  0
   17.7074   -9.0262  -13.9385 C   0  0  0  0  0  0  0  0  0  0  0  0
   17.3548   -8.1330  -14.7561 O   0  0  0  0  0  0  0  0  0  0  0  0
   18.1376   -8.6027  -12.6555 N   0  0  0  0  0  0  0  0  0  0  0  0
   18.2424   -7.1653  -12.2905 C   0  0  1  0  0  0  0  0  0  0  0  0
   17.6583   -6.9872  -10.9356 C   0  0  0  0  0  0  0  0  0  0  0  0
   17.7852   -5.6490  -10.3488 C   0  0  0  0  0  0  0  0  0  0  0  0
   17.2746   -5.4680   -8.9901 C   0  0  0  0  0  0  0  0  0  0  0  0
   17.2682   -6.4404   -8.1998 O   0  0  0  0  0  0  0  0  0  0  0  0
   19.6236   -6.7678  -12.5180 C   0  0  0  0  0  0  0  0  0  0  0  0
   20.5530   -7.4945  -12.0157 O   0  0  0  0  0  0  0  0  0  0  0  0
   16.7855   -4.2620   -8.4981 O   0  0  0  0  0  0  0  0  0  0  0  0
   20.0836   -5.6503  -13.2539 N   0  0  0  0  0  0  0  0  0  0  0  0
   21.4849   -5.3178  -13.3985 C   0  0  0  0  0  0  0  0  0  0  0  0
   22.0117   -5.7028  -14.7240 C   0  0  0  0  0  0  0  0  0  0  0  0
   23.3041   -5.3138  -15.0361 O   0  0  0  0  0  0  0  0  0  0  0  0
   21.3713   -6.3537  -15.5798 O   0  0  0  0  0  0  0  0  0  0  0  0
  2  1  1  0
  3  2  1  0
  3  4  1  6
  5  3  1  0
  5  6  2  0
  7  5  1  0
  8  7  1  0
  8  9  1  1
 10  9  1  0
 11 10  1  0
 12 11  2  0
 13  8  1  0
 13 16  1  0
 14 13  2  0
 15 11  1  0
 17 16  1  0
 18 17  1  0
 19 18  1  0
 20 18  2  0
M  END
$$$$
