QVR.pdb
     RDKit          3D

 28 27  0  0  1  0  0  0  0  0999 V2000
   25.9411  -20.6481  -20.4069 N   0  0  0  0  0  0  0  0  0  0  0  0
   26.5458  -21.9228  -20.7363 C   0  0  0  0  0  0  0  0  0  0  0  0
   26.0753  -22.5953  -21.6494 O   0  0  0  0  0  0  0  0  0  0  0  0
   27.7018  -22.3483  -19.9471 C   0  0  0  0  0  0  0  0  0  0  0  0
   28.1383  -21.4175  -18.8617 C   0  0  0  0  0  0  0  0  0  0  0  0
   28.3794  -21.9719  -17.5272 C   0  0  2  0  0  0  0  0  0  0  0  0
   28.7671  -23.3800  -17.6233 N   0  0  0  0  0  0  0  0  0  0  0  0
   27.5275  -21.7317  -16.3818 C   0  0  0  0  0  0  0  0  0  0  0  0
   27.1417  -22.7062  -15.6164 O   0  0  0  0  0  0  0  0  0  0  0  0
   26.3271  -17.6166  -14.9951 C   0  0  0  0  0  0  0  0  0  0  0  0
   26.6296  -18.8402  -14.1632 C   0  0  2  0  0  0  0  0  0  0  0  0
   28.0515  -18.7004  -13.6971 C   0  0  0  0  0  0  0  0  0  0  0  0
   26.2696  -20.1313  -14.8016 C   0  0  2  0  0  0  0  0  0  0  0  0
   27.0292  -20.4792  -15.9826 N   0  0  0  0  0  0  0  0  0  0  0  0
   24.8297  -20.3192  -15.0160 C   0  0  0  0  0  0  0  0  0  0  0  0
   24.2751  -20.0916  -16.1380 O   0  0  0  0  0  0  0  0  0  0  0  0
   18.4736  -24.2151   -9.8733 N   0  0  0  0  0  0  0  0  0  0  0  0
   17.9019  -23.6821  -11.0533 C   0  0  0  0  0  0  0  0  0  0  0  0
   16.6548  -23.8906  -11.3423 N   0  0  0  0  0  0  0  0  0  0  0  0
   18.6423  -22.8994  -11.9822 N   0  0  0  0  0  0  0  0  0  0  0  0
   20.0635  -22.6736  -11.8064 C   0  0  0  0  0  0  0  0  0  0  0  0
   20.5443  -21.8997  -13.0349 C   0  0  0  0  0  0  0  0  0  0  0  0
   22.0214  -21.7032  -13.0229 C   0  0  0  0  0  0  0  0  0  0  0  0
   22.5155  -20.8413  -14.1832 C   0  0  2  0  0  0  0  0  0  0  0  0
   23.9649  -20.7727  -13.9964 N   0  0  0  0  0  0  0  0  0  0  0  0
   21.9154  -19.5150  -14.2304 C   0  0  0  0  0  0  0  0  0  0  0  0
   20.8652  -19.2222  -15.1089 O   0  0  0  0  0  0  0  0  0  0  0  0
   22.2830  -18.5500  -13.5039 O   0  0  0  0  0  0  0  0  0  0  0  0
  2  1  1  0
  2  4  1  0
  3  2  2  0
  5  4  1  0
  6  5  1  0
  6  7  1  6
  8  9  2  0
  8  6  1  0
 11 10  1  6
 11 13  1  0
 12 11  1  0
 13 14  1  6
 13 15  1  0
 14  8  1  0
 15 16  2  0
 15 25  1  0
 17 18  1  0
 18 20  1  0
 18 19  2  0
 20 21  1  0
 21 22  1  0
 23 22  1  0
 24 23  1  1
 24 26  1  0
 25 24  1  0
 26 28  2  0
 26 27  1  0
M  END
$$$$
