QVR.pdb
     RDKit          3D

 28 27  0  0  1  0  0  0  0  0999 V2000
   29.0911  -22.2060  -10.1956 N   0  0  0  0  0  0  0  0  0  0  0  0
   30.2761  -21.6303  -10.7984 C   0  0  0  0  0  0  0  0  0  0  0  0
   31.3498  -22.2171  -10.6973 O   0  0  0  0  0  0  0  0  0  0  0  0
   30.1272  -20.3574  -11.5038 C   0  0  0  0  0  0  0  0  0  0  0  0
   28.7383  -19.8116  -11.5937 C   0  0  0  0  0  0  0  0  0  0  0  0
   27.9164  -20.1914  -12.7456 C   0  0  2  0  0  0  0  0  0  0  0  0
   28.7077  -20.1373  -13.9756 N   0  0  0  0  0  0  0  0  0  0  0  0
   26.5616  -19.7307  -12.9638 C   0  0  0  0  0  0  0  0  0  0  0  0
   26.1487  -18.6034  -12.4708 O   0  0  0  0  0  0  0  0  0  0  0  0
   24.9079  -18.2735  -15.7114 C   0  0  0  0  0  0  0  0  0  0  0  0
   24.0251  -19.4513  -15.3730 C   0  0  2  0  0  0  0  0  0  0  0  0
   22.6218  -19.0524  -15.7337 C   0  0  0  0  0  0  0  0  0  0  0  0
   24.2226  -20.0056  -14.0100 C   0  0  2  0  0  0  0  0  0  0  0  0
   25.5725  -20.4163  -13.6905 N   0  0  0  0  0  0  0  0  0  0  0  0
   23.2456  -21.0320  -13.6271 C   0  0  0  0  0  0  0  0  0  0  0  0
   23.2222  -22.1827  -14.1688 O   0  0  0  0  0  0  0  0  0  0  0  0
   18.9841  -24.8541   -8.1152 N   0  0  0  0  0  0  0  0  0  0  0  0
   17.9711  -23.8835   -8.3022 C   0  0  0  0  0  0  0  0  0  0  0  0
   16.7175  -24.2014   -8.2039 N   0  0  0  0  0  0  0  0  0  0  0  0
   18.2549  -22.5229   -8.6055 N   0  0  0  0  0  0  0  0  0  0  0  0
   19.6200  -22.0555   -8.7457 C   0  0  0  0  0  0  0  0  0  0  0  0
   20.1070  -22.5164  -10.1204 C   0  0  0  0  0  0  0  0  0  0  0  0
   20.9354  -21.4758  -10.7923 C   0  0  0  0  0  0  0  0  0  0  0  0
   21.3412  -21.8651  -12.2124 C   0  0  2  0  0  0  0  0  0  0  0  0
   22.2724  -20.8158  -12.6273 N   0  0  0  0  0  0  0  0  0  0  0  0
   20.2203  -21.9854  -13.1345 C   0  0  0  0  0  0  0  0  0  0  0  0
   19.6440  -23.2289  -13.4214 O   0  0  0  0  0  0  0  0  0  0  0  0
   19.6926  -21.0064  -13.7324 O   0  0  0  0  0  0  0  0  0  0  0  0
  2  1  1  0
  2  4  1  0
  3  2  2  0
  5  4  1  0
  6  5  1  0
  6  7  1  6
  8  9  2  0
  8  6  1  0
 11 10  1  1
 11 13  1  0
 12 11  1  0
 13 14  1  6
 13 15  1  0
 14  8  1  0
 15 16  2  0
 15 25  1  0
 17 18  1  0
 18 20  1  0
 18 19  2  0
 20 21  1  0
 21 22  1  0
 23 22  1  0
 24 23  1  1
 24 26  1  0
 25 24  1  0
 26 28  2  0
 26 27  1  0
M  END
$$$$
