QVR.pdb
     RDKit          3D

 28 27  0  0  1  0  0  0  0  0999 V2000
   26.3168  -19.4117  -20.8491 N   0  0  0  0  0  0  0  0  0  0  0  0
   27.6755  -19.9135  -20.8148 C   0  0  0  0  0  0  0  0  0  0  0  0
   28.2813  -20.0860  -21.8686 O   0  0  0  0  0  0  0  0  0  0  0  0
   28.2606  -20.1956  -19.5040 C   0  0  0  0  0  0  0  0  0  0  0  0
   27.3650  -19.9927  -18.3243 C   0  0  0  0  0  0  0  0  0  0  0  0
   27.0766  -18.6205  -17.8996 C   0  0  2  0  0  0  0  0  0  0  0  0
   28.3197  -17.8638  -17.7438 N   0  0  0  0  0  0  0  0  0  0  0  0
   26.1103  -18.2721  -16.8795 C   0  0  0  0  0  0  0  0  0  0  0  0
   26.3916  -18.3960  -15.6187 O   0  0  0  0  0  0  0  0  0  0  0  0
   24.2724  -14.9297  -16.2425 C   0  0  0  0  0  0  0  0  0  0  0  0
   23.2458  -16.0341  -16.3277 C   0  0  2  0  0  0  0  0  0  0  0  0
   22.1241  -15.6483  -15.4049 C   0  0  0  0  0  0  0  0  0  0  0  0
   23.7915  -17.4050  -16.1641 C   0  0  2  0  0  0  0  0  0  0  0  0
   24.8107  -17.7910  -17.1155 N   0  0  0  0  0  0  0  0  0  0  0  0
   22.7702  -18.4493  -16.0197 C   0  0  0  0  0  0  0  0  0  0  0  0
   22.1572  -18.9422  -17.0194 O   0  0  0  0  0  0  0  0  0  0  0  0
   19.7857  -22.7521   -8.6070 N   0  0  0  0  0  0  0  0  0  0  0  0
   19.0301  -23.1363   -9.7405 C   0  0  0  0  0  0  0  0  0  0  0  0
   18.0651  -23.9968   -9.6375 N   0  0  0  0  0  0  0  0  0  0  0  0
   19.2747  -22.6156  -11.0416 N   0  0  0  0  0  0  0  0  0  0  0  0
   20.3474  -21.6702  -11.2806 C   0  0  0  0  0  0  0  0  0  0  0  0
   20.3635  -21.3896  -12.7841 C   0  0  0  0  0  0  0  0  0  0  0  0
   21.4189  -20.4042  -13.1526 C   0  0  0  0  0  0  0  0  0  0  0  0
   21.3908  -20.0293  -14.6331 C   0  0  2  0  0  0  0  0  0  0  0  0
   22.4051  -18.9833  -14.7648 N   0  0  0  0  0  0  0  0  0  0  0  0
   20.0881  -19.5781  -15.1029 C   0  0  0  0  0  0  0  0  0  0  0  0
   19.5895  -18.3146  -14.7632 O   0  0  0  0  0  0  0  0  0  0  0  0
   19.3253  -20.2698  -15.8336 O   0  0  0  0  0  0  0  0  0  0  0  0
  2  1  1  0
  2  4  1  0
  3  2  2  0
  5  4  1  0
  6  5  1  0
  6  7  1  1
  8  9  2  0
  8  6  1  0
 11 10  1  1
 11 13  1  0
 12 11  1  0
 13 14  1  6
 13 15  1  0
 14  8  1  0
 15 16  2  0
 15 25  1  0
 17 18  1  0
 18 20  1  0
 18 19  2  0
 20 21  1  0
 21 22  1  0
 23 22  1  0
 24 23  1  1
 24 26  1  0
 25 24  1  0
 26 28  2  0
 26 27  1  0
M  END
$$$$
