QVR.pdb
     RDKit          3D

 28 27  0  0  1  0  0  0  0  0999 V2000
   16.6588  -23.7177   -6.4415 N   0  0  0  0  0  0  0  0  0  0  0  0
   17.3417  -24.3932   -5.3569 C   0  0  0  0  0  0  0  0  0  0  0  0
   17.0111  -24.1594   -4.1978 O   0  0  0  0  0  0  0  0  0  0  0  0
   18.4087  -25.3306   -5.7075 C   0  0  0  0  0  0  0  0  0  0  0  0
   18.7039  -25.4788   -7.1656 C   0  0  0  0  0  0  0  0  0  0  0  0
   17.7039  -26.1328   -8.0133 C   0  0  2  0  0  0  0  0  0  0  0  0
   17.5086  -27.5208   -7.5920 N   0  0  0  0  0  0  0  0  0  0  0  0
   17.6492  -26.0012   -9.4538 C   0  0  0  0  0  0  0  0  0  0  0  0
   17.9168  -27.0064  -10.2299 O   0  0  0  0  0  0  0  0  0  0  0  0
   15.0000  -23.4687  -11.7159 C   0  0  0  0  0  0  0  0  0  0  0  0
   15.8803  -24.6127  -12.1602 C   0  0  2  0  0  0  0  0  0  0  0  0
   15.0801  -25.8698  -11.9647 C   0  0  0  0  0  0  0  0  0  0  0  0
   17.2480  -24.6060  -11.5830 C   0  0  2  0  0  0  0  0  0  0  0  0
   17.3262  -24.8265  -10.1553 N   0  0  0  0  0  0  0  0  0  0  0  0
   18.0726  -23.4636  -11.9946 C   0  0  0  0  0  0  0  0  0  0  0  0
   17.9995  -22.3313  -11.4195 O   0  0  0  0  0  0  0  0  0  0  0  0
   25.6780  -22.9089  -15.7191 N   0  0  0  0  0  0  0  0  0  0  0  0
   24.7564  -23.8482  -15.1979 C   0  0  0  0  0  0  0  0  0  0  0  0
   25.0280  -25.1164  -15.1940 N   0  0  0  0  0  0  0  0  0  0  0  0
   23.4962  -23.4714  -14.6559 N   0  0  0  0  0  0  0  0  0  0  0  0
   23.1316  -22.0762  -14.5073 C   0  0  0  0  0  0  0  0  0  0  0  0
   21.7082  -21.9303  -15.0476 C   0  0  0  0  0  0  0  0  0  0  0  0
   20.7935  -22.9638  -14.4856 C   0  0  0  0  0  0  0  0  0  0  0  0
   19.8109  -22.3950  -13.4638 C   0  0  2  0  0  0  0  0  0  0  0  0
   19.0076  -23.5453  -13.0493 N   0  0  0  0  0  0  0  0  0  0  0  0
   18.9798  -21.3166  -13.9812 C   0  0  0  0  0  0  0  0  0  0  0  0
   19.2577  -19.9768  -13.6840 O   0  0  0  0  0  0  0  0  0  0  0  0
   17.9707  -21.4974  -14.7183 O   0  0  0  0  0  0  0  0  0  0  0  0
  2  1  1  0
  2  4  1  0
  3  2  2  0
  5  4  1  0
  6  5  1  0
  6  7  1  6
  8  9  2  0
  8  6  1  0
 11 10  1  1
 11 13  1  0
 12 11  1  0
 13 14  1  1
 13 15  1  0
 14  8  1  0
 15 16  2  0
 15 25  1  0
 17 18  1  0
 18 20  1  0
 18 19  2  0
 20 21  1  0
 21 22  1  0
 23 22  1  0
 24 23  1  6
 24 26  1  0
 25 24  1  0
 26 28  2  0
 26 27  1  0
M  END
$$$$
