QVR.pdb
     RDKit          3D

 28 27  0  0  1  0  0  0  0  0999 V2000
   22.9811   -3.3157  -15.3442 N   0  0  0  0  0  0  0  0  0  0  0  0
   21.5665   -3.3700  -15.0359 C   0  0  0  0  0  0  0  0  0  0  0  0
   21.1479   -2.8130  -14.0250 O   0  0  0  0  0  0  0  0  0  0  0  0
   20.6994   -4.1013  -15.9598 C   0  0  0  0  0  0  0  0  0  0  0  0
   21.3565   -4.6541  -17.1836 C   0  0  0  0  0  0  0  0  0  0  0  0
   20.8942   -5.9465  -17.6959 C   0  0  2  0  0  0  0  0  0  0  0  0
   19.9996   -5.7510  -18.8377 N   0  0  0  0  0  0  0  0  0  0  0  0
   20.4559   -7.0425  -16.8581 C   0  0  0  0  0  0  0  0  0  0  0  0
   21.1769   -7.4546  -15.8608 O   0  0  0  0  0  0  0  0  0  0  0  0
   16.9056   -7.4574  -15.1161 C   0  0  0  0  0  0  0  0  0  0  0  0
   17.2802   -8.7147  -15.8642 C   0  0  2  0  0  0  0  0  0  0  0  0
   16.6788   -9.8619  -15.1021 C   0  0  0  0  0  0  0  0  0  0  0  0
   18.7211   -8.8317  -16.2021 C   0  0  2  0  0  0  0  0  0  0  0  0
   19.2614   -7.7663  -17.0183 N   0  0  0  0  0  0  0  0  0  0  0  0
   19.1180  -10.1501  -16.7108 C   0  0  0  0  0  0  0  0  0  0  0  0
   18.6827  -10.6116  -17.8134 O   0  0  0  0  0  0  0  0  0  0  0  0
   26.7378  -14.6562  -16.0805 N   0  0  0  0  0  0  0  0  0  0  0  0
   25.7736  -15.4468  -16.7504 C   0  0  0  0  0  0  0  0  0  0  0  0
   26.1223  -16.5127  -17.4020 N   0  0  0  0  0  0  0  0  0  0  0  0
   24.3866  -15.1306  -16.7545 N   0  0  0  0  0  0  0  0  0  0  0  0
   23.8925  -13.9197  -16.1290 C   0  0  0  0  0  0  0  0  0  0  0  0
   22.4107  -13.8072  -16.4909 C   0  0  0  0  0  0  0  0  0  0  0  0
   21.8338  -12.5010  -16.0648 C   0  0  0  0  0  0  0  0  0  0  0  0
   20.3895  -12.3112  -16.5242 C   0  0  2  0  0  0  0  0  0  0  0  0
   20.0148  -10.9912  -16.0168 N   0  0  0  0  0  0  0  0  0  0  0  0
   19.4798  -13.3468  -16.0538 C   0  0  0  0  0  0  0  0  0  0  0  0
   19.1546  -14.4485  -16.8545 O   0  0  0  0  0  0  0  0  0  0  0  0
   18.9269  -13.3353  -14.9187 O   0  0  0  0  0  0  0  0  0  0  0  0
  2  1  1  0
  2  4  1  0
  3  2  2  0
  5  4  1  0
  6  5  1  0
  6  7  1  6
  8  9  2  0
  8  6  1  0
 11 10  1  1
 11 13  1  0
 12 11  1  0
 13 14  1  6
 13 15  1  0
 14  8  1  0
 15 16  2  0
 15 25  1  0
 17 18  1  0
 18 20  1  0
 18 19  2  0
 20 21  1  0
 21 22  1  0
 23 22  1  0
 24 23  1  1
 24 26  1  0
 25 24  1  0
 26 28  2  0
 26 27  1  0
M  END
$$$$
