QVR.pdb
     RDKit          3D

 28 27  0  0  1  0  0  0  0  0999 V2000
   27.8025  -25.3722  -16.5833 N   0  0  0  0  0  0  0  0  0  0  0  0
   29.0755  -24.6810  -16.5536 C   0  0  0  0  0  0  0  0  0  0  0  0
   30.1146  -25.3331  -16.5028 O   0  0  0  0  0  0  0  0  0  0  0  0
   29.0533  -23.2186  -16.5826 C   0  0  0  0  0  0  0  0  0  0  0  0
   27.7029  -22.5806  -16.6506 C   0  0  0  0  0  0  0  0  0  0  0  0
   27.6211  -21.1196  -16.5785 C   0  0  2  0  0  0  0  0  0  0  0  0
   28.9625  -20.5365  -16.5258 N   0  0  0  0  0  0  0  0  0  0  0  0
   26.6940  -20.3989  -15.7320 C   0  0  0  0  0  0  0  0  0  0  0  0
   26.9554  -20.1874  -14.4785 O   0  0  0  0  0  0  0  0  0  0  0  0
   24.0971  -17.1214  -16.7783 C   0  0  0  0  0  0  0  0  0  0  0  0
   24.4998  -17.6936  -15.4399 C   0  0  2  0  0  0  0  0  0  0  0  0
   25.8031  -17.0428  -15.0705 C   0  0  0  0  0  0  0  0  0  0  0  0
   24.4570  -19.1753  -15.3584 C   0  0  2  0  0  0  0  0  0  0  0  0
   25.4546  -19.8745  -16.1386 N   0  0  0  0  0  0  0  0  0  0  0  0
   23.1220  -19.7536  -15.5538 C   0  0  0  0  0  0  0  0  0  0  0  0
   22.6992  -20.1141  -16.6981 O   0  0  0  0  0  0  0  0  0  0  0  0
   16.5783  -21.9074  -10.4730 N   0  0  0  0  0  0  0  0  0  0  0  0
   16.5403  -22.9513  -11.4281 C   0  0  0  0  0  0  0  0  0  0  0  0
   15.4708  -23.6668  -11.5909 N   0  0  0  0  0  0  0  0  0  0  0  0
   17.6504  -23.2792  -12.2551 N   0  0  0  0  0  0  0  0  0  0  0  0
   18.9274  -22.6121  -12.0941 C   0  0  0  0  0  0  0  0  0  0  0  0
   19.2378  -21.9230  -13.4238 C   0  0  0  0  0  0  0  0  0  0  0  0
   20.5907  -21.2983  -13.4216 C   0  0  0  0  0  0  0  0  0  0  0  0
   20.8823  -20.5083  -14.6960 C   0  0  2  0  0  0  0  0  0  0  0  0
   22.2209  -19.9567  -14.4861 N   0  0  0  0  0  0  0  0  0  0  0  0
   19.9078  -19.4634  -14.9785 C   0  0  0  0  0  0  0  0  0  0  0  0
   18.8309  -19.6874  -15.8450 O   0  0  0  0  0  0  0  0  0  0  0  0
   19.9538  -18.3045  -14.4793 O   0  0  0  0  0  0  0  0  0  0  0  0
  2  1  1  0
  2  4  1  0
  3  2  2  0
  5  4  1  0
  6  5  1  0
  6  7  1  1
  8  9  2  0
  8  6  1  0
 11 10  1  6
 11 13  1  0
 12 11  1  0
 13 14  1  6
 13 15  1  0
 14  8  1  0
 15 16  2  0
 15 25  1  0
 17 18  1  0
 18 20  1  0
 18 19  2  0
 20 21  1  0
 21 22  1  0
 23 22  1  0
 24 23  1  1
 24 26  1  0
 25 24  1  0
 26 28  2  0
 26 27  1  0
M  END
$$$$
