QVR.pdb
     RDKit          3D

 28 27  0  0  1  0  0  0  0  0999 V2000
   30.0920  -23.9479  -16.6973 N   0  0  0  0  0  0  0  0  0  0  0  0
   30.1273  -22.6116  -17.2560 C   0  0  0  0  0  0  0  0  0  0  0  0
   30.8909  -22.3668  -18.1857 O   0  0  0  0  0  0  0  0  0  0  0  0
   29.2385  -21.6084  -16.6697 C   0  0  0  0  0  0  0  0  0  0  0  0
   28.3672  -22.0742  -15.5476 C   0  0  0  0  0  0  0  0  0  0  0  0
   27.4256  -21.1193  -14.9577 C   0  0  2  0  0  0  0  0  0  0  0  0
   28.1015  -19.8559  -14.6594 N   0  0  0  0  0  0  0  0  0  0  0  0
   26.4575  -21.4589  -13.9364 C   0  0  0  0  0  0  0  0  0  0  0  0
   25.7180  -22.5203  -14.0393 O   0  0  0  0  0  0  0  0  0  0  0  0
   26.8614  -21.0135   -9.8884 C   0  0  0  0  0  0  0  0  0  0  0  0
   25.5412  -20.4799  -10.3917 C   0  0  2  0  0  0  0  0  0  0  0  0
   24.5279  -20.7622   -9.3184 C   0  0  0  0  0  0  0  0  0  0  0  0
   25.1808  -20.9077  -11.7668 C   0  0  2  0  0  0  0  0  0  0  0  0
   26.2038  -20.7142  -12.7713 N   0  0  0  0  0  0  0  0  0  0  0  0
   23.8762  -20.4193  -12.2298 C   0  0  0  0  0  0  0  0  0  0  0  0
   23.6879  -19.2097  -12.5756 O   0  0  0  0  0  0  0  0  0  0  0  0
   18.5489  -22.8216  -18.5693 N   0  0  0  0  0  0  0  0  0  0  0  0
   17.8208  -21.9430  -17.7320 C   0  0  0  0  0  0  0  0  0  0  0  0
   16.6625  -21.4849  -18.0936 N   0  0  0  0  0  0  0  0  0  0  0  0
   18.3017  -21.5119  -16.4644 N   0  0  0  0  0  0  0  0  0  0  0  0
   19.6036  -21.9239  -15.9775 C   0  0  0  0  0  0  0  0  0  0  0  0
   19.8518  -21.1597  -14.6760 C   0  0  0  0  0  0  0  0  0  0  0  0
   21.1943  -21.4611  -14.1039 C   0  0  0  0  0  0  0  0  0  0  0  0
   21.4443  -20.7564  -12.7720 C   0  0  2  0  0  0  0  0  0  0  0  0
   22.7456  -21.2588  -12.3310 N   0  0  0  0  0  0  0  0  0  0  0  0
   20.4095  -20.9944  -11.7750 C   0  0  0  0  0  0  0  0  0  0  0  0
   19.2678  -20.1868  -11.7041 O   0  0  0  0  0  0  0  0  0  0  0  0
   20.4568  -21.9213  -10.9190 O   0  0  0  0  0  0  0  0  0  0  0  0
  2  1  1  0
  2  4  1  0
  3  2  2  0
  5  4  1  0
  6  5  1  0
  6  7  1  1
  8  9  2  0
  8  6  1  0
 11 10  1  1
 11 13  1  0
 12 11  1  0
 13 14  1  6
 13 15  1  0
 14  8  1  0
 15 16  2  0
 15 25  1  0
 17 18  1  0
 18 20  1  0
 18 19  2  0
 20 21  1  0
 21 22  1  0
 23 22  1  0
 24 23  1  6
 24 26  1  0
 25 24  1  0
 26 28  2  0
 26 27  1  0
M  END
$$$$
