QVR.pdb
     RDKit          3D

 28 27  0  0  1  0  0  0  0  0999 V2000
   31.0038  -25.6972  -17.9451 N   0  0  0  0  0  0  0  0  0  0  0  0
   30.8373  -25.5375  -19.3754 C   0  0  0  0  0  0  0  0  0  0  0  0
   31.3446  -26.3564  -20.1366 O   0  0  0  0  0  0  0  0  0  0  0  0
   30.0635  -24.3875  -19.8431 C   0  0  0  0  0  0  0  0  0  0  0  0
   29.3954  -23.5680  -18.7862 C   0  0  0  0  0  0  0  0  0  0  0  0
   29.6833  -22.1324  -18.7355 C   0  0  2  0  0  0  0  0  0  0  0  0
   31.0359  -21.8667  -19.2273 N   0  0  0  0  0  0  0  0  0  0  0  0
   29.3451  -21.2752  -17.6191 C   0  0  0  0  0  0  0  0  0  0  0  0
   30.2141  -21.0040  -16.6942 O   0  0  0  0  0  0  0  0  0  0  0  0
   26.1776  -18.2325  -17.5700 C   0  0  0  0  0  0  0  0  0  0  0  0
   27.3611  -18.4218  -16.6511 C   0  0  2  0  0  0  0  0  0  0  0  0
   28.4917  -17.6253  -17.2393 C   0  0  0  0  0  0  0  0  0  0  0  0
   27.6606  -19.8341  -16.3051 C   0  0  2  0  0  0  0  0  0  0  0  0
   28.0949  -20.6695  -17.4036 N   0  0  0  0  0  0  0  0  0  0  0  0
   26.6201  -20.4953  -15.5082 C   0  0  0  0  0  0  0  0  0  0  0  0
   25.6049  -21.0467  -16.0406 O   0  0  0  0  0  0  0  0  0  0  0  0
   22.3762  -20.1812   -9.3910 N   0  0  0  0  0  0  0  0  0  0  0  0
   23.0231  -21.0867   -8.5163 C   0  0  0  0  0  0  0  0  0  0  0  0
   22.3461  -21.7756   -7.6507 N   0  0  0  0  0  0  0  0  0  0  0  0
   24.4302  -21.2961   -8.5276 N   0  0  0  0  0  0  0  0  0  0  0  0
   25.2868  -20.5795   -9.4518 C   0  0  0  0  0  0  0  0  0  0  0  0
   24.9407  -21.0797  -10.8552 C   0  0  0  0  0  0  0  0  0  0  0  0
   25.8444  -20.5001  -11.8886 C   0  0  0  0  0  0  0  0  0  0  0  0
   25.5324  -20.9994  -13.2981 C   0  0  2  0  0  0  0  0  0  0  0  0
   26.6791  -20.5718  -14.0997 N   0  0  0  0  0  0  0  0  0  0  0  0
   24.2786  -20.4934  -13.8394 C   0  0  0  0  0  0  0  0  0  0  0  0
   23.1290  -21.2918  -13.8813 O   0  0  0  0  0  0  0  0  0  0  0  0
   24.1310  -19.3276  -14.3012 O   0  0  0  0  0  0  0  0  0  0  0  0
  2  1  1  0
  2  4  1  0
  3  2  2  0
  5  4  1  0
  6  5  1  0
  6  7  1  1
  8  9  2  0
  8  6  1  0
 11 10  1  6
 11 13  1  0
 12 11  1  0
 13 14  1  6
 13 15  1  0
 14  8  1  0
 15 16  2  0
 15 25  1  0
 17 18  1  0
 18 20  1  0
 18 19  2  0
 20 21  1  0
 21 22  1  0
 23 22  1  0
 24 23  1  1
 24 26  1  0
 25 24  1  0
 26 28  2  0
 26 27  1  0
M  END
$$$$
