QVR.pdb
     RDKit          3D

 28 27  0  0  1  0  0  0  0  0999 V2000
   19.7177  -27.3480  -18.4009 N   0  0  0  0  0  0  0  0  0  0  0  0
   20.6417  -28.4267  -18.6869 C   0  0  0  0  0  0  0  0  0  0  0  0
   20.6039  -28.9782  -19.7832 O   0  0  0  0  0  0  0  0  0  0  0  0
   21.5832  -28.8092  -17.6346 C   0  0  0  0  0  0  0  0  0  0  0  0
   21.5005  -28.0312  -16.3607 C   0  0  0  0  0  0  0  0  0  0  0  0
   22.1042  -26.6968  -16.3219 C   0  0  2  0  0  0  0  0  0  0  0  0
   23.5642  -26.7984  -16.3188 N   0  0  0  0  0  0  0  0  0  0  0  0
   21.6439  -25.6217  -15.4688 C   0  0  0  0  0  0  0  0  0  0  0  0
   22.2940  -25.2918  -14.3952 O   0  0  0  0  0  0  0  0  0  0  0  0
   20.8405  -21.8841  -16.2876 C   0  0  0  0  0  0  0  0  0  0  0  0
   19.6514  -22.5138  -15.6017 C   0  0  2  0  0  0  0  0  0  0  0  0
   18.9907  -21.4248  -14.8042 C   0  0  0  0  0  0  0  0  0  0  0  0
   19.9474  -23.7746  -14.8760 C   0  0  2  0  0  0  0  0  0  0  0  0
   20.4894  -24.8479  -15.6806 N   0  0  0  0  0  0  0  0  0  0  0  0
   18.8560  -24.2482  -14.0162 C   0  0  0  0  0  0  0  0  0  0  0  0
   17.7297  -24.6082  -14.4853 O   0  0  0  0  0  0  0  0  0  0  0  0
   18.7355  -25.4990   -5.0444 N   0  0  0  0  0  0  0  0  0  0  0  0
   17.5233  -25.9040   -5.6526 C   0  0  0  0  0  0  0  0  0  0  0  0
   16.6792  -26.6576   -5.0187 N   0  0  0  0  0  0  0  0  0  0  0  0
   17.1582  -25.5201   -6.9728 N   0  0  0  0  0  0  0  0  0  0  0  0
   18.0633  -25.7180   -8.0878 C   0  0  0  0  0  0  0  0  0  0  0  0
   17.4219  -25.0471   -9.3035 C   0  0  0  0  0  0  0  0  0  0  0  0
   18.4325  -24.6990  -10.3418 C   0  0  0  0  0  0  0  0  0  0  0  0
   17.8772  -24.7813  -11.7624 C   0  0  2  0  0  0  0  0  0  0  0  0
   18.9841  -24.3445  -12.6135 N   0  0  0  0  0  0  0  0  0  0  0  0
   16.6830  -23.9756  -11.9768 C   0  0  0  0  0  0  0  0  0  0  0  0
   15.4411  -24.5691  -12.2339 O   0  0  0  0  0  0  0  0  0  0  0  0
   16.6712  -22.7134  -11.9488 O   0  0  0  0  0  0  0  0  0  0  0  0
  2  1  1  0
  2  4  1  0
  3  2  2  0
  5  4  1  0
  6  5  1  0
  6  7  1  1
  8  9  2  0
  8  6  1  0
 11 10  1  1
 11 13  1  0
 12 11  1  0
 13 14  1  6
 13 15  1  0
 14  8  1  0
 15 16  2  0
 15 25  1  0
 17 18  1  0
 18 20  1  0
 18 19  2  0
 20 21  1  0
 21 22  1  0
 23 22  1  0
 24 23  1  1
 24 26  1  0
 25 24  1  0
 26 28  2  0
 26 27  1  0
M  END
$$$$
