QVR.pdb
     RDKit          3D

 28 27  0  0  1  0  0  0  0  0999 V2000
   16.6095  -12.5578  -10.3733 N   0  0  0  0  0  0  0  0  0  0  0  0
   15.5225  -13.4090  -10.8125 C   0  0  0  0  0  0  0  0  0  0  0  0
   15.6407  -14.6283  -10.7308 O   0  0  0  0  0  0  0  0  0  0  0  0
   14.3240  -12.7584  -11.3420 C   0  0  0  0  0  0  0  0  0  0  0  0
   14.3497  -11.2643  -11.3870 C   0  0  0  0  0  0  0  0  0  0  0  0
   13.3670  -10.5287  -10.5872 C   0  0  2  0  0  0  0  0  0  0  0  0
   12.0078  -10.8978  -10.9851 N   0  0  0  0  0  0  0  0  0  0  0  0
   13.4657   -9.1186  -10.2752 C   0  0  0  0  0  0  0  0  0  0  0  0
   12.7882   -8.2350  -10.9419 O   0  0  0  0  0  0  0  0  0  0  0  0
   12.6060   -6.9902   -7.3223 C   0  0  0  0  0  0  0  0  0  0  0  0
   14.0609   -6.7168   -7.6214 C   0  0  2  0  0  0  0  0  0  0  0  0
   14.3032   -5.2723   -7.2850 C   0  0  0  0  0  0  0  0  0  0  0  0
   14.5159   -7.1664   -8.9611 C   0  0  2  0  0  0  0  0  0  0  0  0
   14.2736   -8.5588   -9.2701 N   0  0  0  0  0  0  0  0  0  0  0  0
   15.8903   -6.7746   -9.2961 C   0  0  0  0  0  0  0  0  0  0  0  0
   16.8771   -7.5627   -9.1436 O   0  0  0  0  0  0  0  0  0  0  0  0
   21.5244   -8.3594  -14.9566 N   0  0  0  0  0  0  0  0  0  0  0  0
   21.7888   -8.1041  -13.5898 C   0  0  0  0  0  0  0  0  0  0  0  0
   22.7035   -8.7673  -12.9530 N   0  0  0  0  0  0  0  0  0  0  0  0
   21.0823   -7.1239  -12.8388 N   0  0  0  0  0  0  0  0  0  0  0  0
   19.6374   -7.0270  -12.9054 C   0  0  0  0  0  0  0  0  0  0  0  0
   19.2264   -5.8879  -11.9711 C   0  0  0  0  0  0  0  0  0  0  0  0
   17.8895   -6.1288  -11.3585 C   0  0  0  0  0  0  0  0  0  0  0  0
   17.5688   -5.1517  -10.2291 C   0  0  2  0  0  0  0  0  0  0  0  0
   16.2094   -5.5019   -9.8174 N   0  0  0  0  0  0  0  0  0  0  0  0
   17.6705   -3.7507  -10.6141 C   0  0  0  0  0  0  0  0  0  0  0  0
   18.8548   -3.0280  -10.4251 O   0  0  0  0  0  0  0  0  0  0  0  0
   16.7263   -3.0936  -11.1346 O   0  0  0  0  0  0  0  0  0  0  0  0
  2  1  1  0
  2  4  1  0
  3  2  2  0
  5  4  1  0
  6  5  1  0
  6  7  1  6
  8  9  2  0
  8  6  1  0
 11 10  1  6
 11 13  1  0
 12 11  1  0
 13 14  1  1
 13 15  1  0
 14  8  1  0
 15 16  2  0
 15 25  1  0
 17 18  1  0
 18 20  1  0
 18 19  2  0
 20 21  1  0
 21 22  1  0
 23 22  1  0
 24 23  1  6
 24 26  1  0
 25 24  1  0
 26 28  2  0
 26 27  1  0
M  END
$$$$
