QVR.pdb
     RDKit          3D

 28 27  0  0  1  0  0  0  0  0999 V2000
   28.6218  -27.2804  -15.4431 N   0  0  0  0  0  0  0  0  0  0  0  0
   29.2724  -26.9630  -16.6981 C   0  0  0  0  0  0  0  0  0  0  0  0
   29.7032  -27.8729  -17.4009 O   0  0  0  0  0  0  0  0  0  0  0  0
   29.3858  -25.5513  -17.0644 C   0  0  0  0  0  0  0  0  0  0  0  0
   28.8051  -24.5701  -16.0974 C   0  0  0  0  0  0  0  0  0  0  0  0
   27.7799  -23.6422  -16.5815 C   0  0  2  0  0  0  0  0  0  0  0  0
   28.1735  -23.0774  -17.8731 N   0  0  0  0  0  0  0  0  0  0  0  0
   27.1166  -22.6594  -15.7510 C   0  0  0  0  0  0  0  0  0  0  0  0
   26.7943  -22.9268  -14.5226 O   0  0  0  0  0  0  0  0  0  0  0  0
   28.0069  -18.6847  -15.5928 C   0  0  0  0  0  0  0  0  0  0  0  0
   26.5218  -18.9333  -15.7093 C   0  0  2  0  0  0  0  0  0  0  0  0
   25.8422  -17.8358  -14.9399 C   0  0  0  0  0  0  0  0  0  0  0  0
   26.0965  -20.3201  -15.3934 C   0  0  2  0  0  0  0  0  0  0  0  0
   26.7487  -21.3638  -16.1539 N   0  0  0  0  0  0  0  0  0  0  0  0
   24.6418  -20.5131  -15.3569 C   0  0  0  0  0  0  0  0  0  0  0  0
   23.9141  -20.3872  -16.3927 O   0  0  0  0  0  0  0  0  0  0  0  0
   18.3276  -24.3900  -10.1882 N   0  0  0  0  0  0  0  0  0  0  0  0
   18.4468  -24.7911  -11.5403 C   0  0  0  0  0  0  0  0  0  0  0  0
   17.6495  -25.6816  -12.0439 N   0  0  0  0  0  0  0  0  0  0  0  0
   19.4297  -24.2560  -12.4186 N   0  0  0  0  0  0  0  0  0  0  0  0
   20.5603  -23.5051  -11.9091 C   0  0  0  0  0  0  0  0  0  0  0  0
   20.7903  -22.3413  -12.8746 C   0  0  0  0  0  0  0  0  0  0  0  0
   22.2407  -22.1051  -13.1222 C   0  0  0  0  0  0  0  0  0  0  0  0
   22.4966  -20.9914  -14.1357 C   0  0  2  0  0  0  0  0  0  0  0  0
   23.9531  -20.8595  -14.1741 N   0  0  0  0  0  0  0  0  0  0  0  0
   21.8505  -19.7295  -13.8016 C   0  0  0  0  0  0  0  0  0  0  0  0
   20.6291  -19.3619  -14.3792 O   0  0  0  0  0  0  0  0  0  0  0  0
   22.3258  -18.8895  -12.9875 O   0  0  0  0  0  0  0  0  0  0  0  0
  2  1  1  0
  2  4  1  0
  3  2  2  0
  5  4  1  0
  6  5  1  0
  6  7  1  6
  8  9  2  0
  8  6  1  0
 11 10  1  1
 11 13  1  0
 12 11  1  0
 13 14  1  6
 13 15  1  0
 14  8  1  0
 15 16  2  0
 15 25  1  0
 17 18  1  0
 18 20  1  0
 18 19  2  0
 20 21  1  0
 21 22  1  0
 23 22  1  0
 24 23  1  1
 24 26  1  0
 25 24  1  0
 26 28  2  0
 26 27  1  0
M  END
$$$$
