FLN.pdb
     RDKit          3D

 28 28  0  0  1  0  0  0  0  0999 V2000
    7.5578  -16.8931   21.6753 N   0  0  0  0  0  0  0  0  0  0  0  0
    8.9214  -16.4418   21.8641 C   0  0  1  0  0  0  0  0  0  0  0  0
    9.4131  -15.6801   20.6282 C   0  0  0  0  0  0  0  0  0  0  0  0
    8.4406  -14.6035   20.3850 C   0  0  0  0  0  0  0  0  0  0  0  0
    8.8920  -13.2882   20.4919 C   0  0  0  0  0  0  0  0  0  0  0  0
    7.9929  -12.2756   20.2669 C   0  0  0  0  0  0  0  0  0  0  0  0
    6.6927  -12.5647   19.9475 C   0  0  0  0  0  0  0  0  0  0  0  0
    6.2556  -13.8830   19.8443 C   0  0  0  0  0  0  0  0  0  0  0  0
    7.1496  -14.9235   20.0680 C   0  0  0  0  0  0  0  0  0  0  0  0
    9.0318  -15.4970   23.0049 C   0  0  0  0  0  0  0  0  0  0  0  0
   10.1572  -15.0955   23.3572 O   0  0  0  0  0  0  0  0  0  0  0  0
    5.5334  -12.2317   26.9731 C   0  0  0  0  0  0  0  0  0  0  0  0
    6.8958  -12.7983   26.6010 C   0  0  2  0  0  0  0  0  0  0  0  0
    7.9034  -11.6897   26.6367 C   0  0  0  0  0  0  0  0  0  0  0  0
    6.8418  -13.5272   25.2856 C   0  0  0  0  0  0  0  0  0  0  0  0
    7.9952  -14.3982   24.9992 C   0  0  2  0  0  0  0  0  0  0  0  0
    7.8873  -15.0490   23.6923 N   0  0  0  0  0  0  0  0  0  0  0  0
    8.2721  -15.4849   25.9618 C   0  0  0  0  0  0  0  0  0  0  0  0
    8.5975  -15.1435   27.1277 O   0  0  0  0  0  0  0  0  0  0  0  0
    7.0966  -21.3086   27.2187 N   0  0  0  0  0  0  0  0  0  0  0  0
    7.4301  -19.9535   27.5844 C   0  0  0  0  0  0  0  0  0  0  0  0
    7.8998  -19.7986   28.7303 O   0  0  0  0  0  0  0  0  0  0  0  0
    7.2191  -18.8486   26.6469 C   0  0  0  0  0  0  0  0  0  0  0  0
    8.2854  -17.8091   26.7907 C   0  0  2  0  0  0  0  0  0  0  0  0
    8.1979  -16.8477   25.6693 N   0  0  0  0  0  0  0  0  0  0  0  0
    9.6169  -18.4716   26.5803 C   0  0  0  0  0  0  0  0  0  0  0  0
   10.0463  -19.3100   27.3866 O   0  0  0  0  0  0  0  0  0  0  0  0
   10.3989  -18.1518   25.4654 O   0  0  0  0  0  0  0  0  0  0  0  0
  2  1  1  6
  3  4  1  0
  3  2  1  0
  4  9  2  0
  5  4  1  0
  5  6  2  0
  6  7  1  0
  7  8  2  0
  9  8  1  0
 10  2  1  0
 11 10  2  0
 13 12  1  6
 14 13  1  0
 15 13  1  0
 16 17  1  0
 16 15  1  1
 17 10  1  0
 18 16  1  0
 19 18  2  0
 20 21  1  0
 21 22  2  0
 23 21  1  0
 24 23  1  6
 24 25  1  0
 25 18  1  0
 26 24  1  0
 26 28  1  0
 27 26  2  0
M  END
$$$$
