FLN.pdb
     RDKit          3D

 28 28  0  0  1  0  0  0  0  0999 V2000
    7.5724  -16.6591   21.3486 N   0  0  0  0  0  0  0  0  0  0  0  0
    8.9639  -16.3891   21.6476 C   0  0  1  0  0  0  0  0  0  0  0  0
    9.6110  -15.5806   20.5176 C   0  0  0  0  0  0  0  0  0  0  0  0
    8.6688  -14.5021   20.1812 C   0  0  0  0  0  0  0  0  0  0  0  0
    8.9955  -13.6682   19.1122 C   0  0  0  0  0  0  0  0  0  0  0  0
    8.1234  -12.6585   18.7895 C   0  0  0  0  0  0  0  0  0  0  0  0
    6.9690  -12.4875   19.5066 C   0  0  0  0  0  0  0  0  0  0  0  0
    6.6554  -13.3279   20.5721 C   0  0  0  0  0  0  0  0  0  0  0  0
    7.5246  -14.3566   20.9157 C   0  0  0  0  0  0  0  0  0  0  0  0
    9.1101  -15.5717   22.8791 C   0  0  0  0  0  0  0  0  0  0  0  0
   10.1993  -15.0155   23.1159 O   0  0  0  0  0  0  0  0  0  0  0  0
    5.8324  -12.5313   27.1202 C   0  0  0  0  0  0  0  0  0  0  0  0
    7.1670  -13.1205   26.6874 C   0  0  2  0  0  0  0  0  0  0  0  0
    8.1479  -12.0030   26.5012 C   0  0  0  0  0  0  0  0  0  0  0  0
    7.0077  -13.9967   25.4744 C   0  0  0  0  0  0  0  0  0  0  0  0
    8.2197  -14.7238   25.0579 C   0  0  2  0  0  0  0  0  0  0  0  0
    8.0394  -15.4158   23.7805 N   0  0  0  0  0  0  0  0  0  0  0  0
    8.7458  -15.7428   25.9902 C   0  0  0  0  0  0  0  0  0  0  0  0
    8.7281  -15.4571   27.2148 O   0  0  0  0  0  0  0  0  0  0  0  0
    6.3176  -19.1986   26.9368 N   0  0  0  0  0  0  0  0  0  0  0  0
    7.6415  -19.0030   27.4755 C   0  0  0  0  0  0  0  0  0  0  0  0
    7.6982  -18.7047   28.6861 O   0  0  0  0  0  0  0  0  0  0  0  0
    8.8270  -19.1524   26.6289 C   0  0  0  0  0  0  0  0  0  0  0  0
    9.6785  -17.9231   26.6727 C   0  0  2  0  0  0  0  0  0  0  0  0
    9.2544  -16.9856   25.6093 N   0  0  0  0  0  0  0  0  0  0  0  0
   11.0733  -18.3046   26.2667 C   0  0  0  0  0  0  0  0  0  0  0  0
   11.7797  -19.0122   27.0001 O   0  0  0  0  0  0  0  0  0  0  0  0
   11.6015  -17.8657   25.0480 O   0  0  0  0  0  0  0  0  0  0  0  0
  2  1  1  6
  3  4  1  0
  3  2  1  0
  4  9  2  0
  5  4  1  0
  5  6  2  0
  6  7  1  0
  7  8  2  0
  9  8  1  0
 10  2  1  0
 11 10  2  0
 13 12  1  6
 14 13  1  0
 15 13  1  0
 16 17  1  0
 16 15  1  1
 17 10  1  0
 18 16  1  0
 19 18  2  0
 20 21  1  0
 21 22  2  0
 23 21  1  0
 24 23  1  6
 24 25  1  0
 25 18  1  0
 26 24  1  0
 26 28  1  0
 27 26  2  0
M  END
$$$$
