FLN.pdb
     RDKit          3D

 28 28  0  0  1  0  0  0  0  0999 V2000
    7.4077  -16.6869   21.2365 N   0  0  0  0  0  0  0  0  0  0  0  0
    8.7982  -16.5064   21.6005 C   0  0  1  0  0  0  0  0  0  0  0  0
    9.5239  -15.6562   20.5518 C   0  0  0  0  0  0  0  0  0  0  0  0
    8.7085  -14.4478   20.3545 C   0  0  0  0  0  0  0  0  0  0  0  0
    7.5108  -14.5834   19.6530 C   0  0  0  0  0  0  0  0  0  0  0  0
    6.7420  -13.4622   19.4631 C   0  0  0  0  0  0  0  0  0  0  0  0
    7.1530  -12.2516   19.9547 C   0  0  0  0  0  0  0  0  0  0  0  0
    8.3516  -12.1308   20.6536 C   0  0  0  0  0  0  0  0  0  0  0  0
    9.1453  -13.2535   20.8570 C   0  0  0  0  0  0  0  0  0  0  0  0
    8.9365  -15.7821   22.8899 C   0  0  0  0  0  0  0  0  0  0  0  0
   10.0749  -15.5355   23.3315 O   0  0  0  0  0  0  0  0  0  0  0  0
    5.8763  -12.1901   26.8576 C   0  0  0  0  0  0  0  0  0  0  0  0
    7.0672  -13.0968   26.5835 C   0  0  2  0  0  0  0  0  0  0  0  0
    8.3259  -12.3020   26.7554 C   0  0  0  0  0  0  0  0  0  0  0  0
    6.9477  -13.7612   25.2387 C   0  0  0  0  0  0  0  0  0  0  0  0
    7.9308  -14.8258   24.9715 C   0  0  2  0  0  0  0  0  0  0  0  0
    7.8039  -15.3705   23.6185 N   0  0  0  0  0  0  0  0  0  0  0  0
    7.9154  -15.9964   25.8734 C   0  0  0  0  0  0  0  0  0  0  0  0
    6.8534  -16.6688   25.9154 O   0  0  0  0  0  0  0  0  0  0  0  0
   10.9926  -20.4725   25.3366 N   0  0  0  0  0  0  0  0  0  0  0  0
    9.7361  -19.9594   25.8255 C   0  0  0  0  0  0  0  0  0  0  0  0
    9.0110  -20.7776   26.4276 O   0  0  0  0  0  0  0  0  0  0  0  0
    9.3622  -18.5596   25.6130 C   0  0  0  0  0  0  0  0  0  0  0  0
    9.1665  -17.8506   26.9157 C   0  0  2  0  0  0  0  0  0  0  0  0
    8.9858  -16.4023   26.6720 N   0  0  0  0  0  0  0  0  0  0  0  0
   10.4555  -17.9178   27.6839 C   0  0  0  0  0  0  0  0  0  0  0  0
   10.6704  -18.8357   28.4893 O   0  0  0  0  0  0  0  0  0  0  0  0
   11.4400  -16.9407   27.5026 O   0  0  0  0  0  0  0  0  0  0  0  0
  2  1  1  6
  3  4  1  0
  3  2  1  0
  4  9  2  0
  5  4  1  0
  5  6  2  0
  6  7  1  0
  7  8  2  0
  9  8  1  0
 10  2  1  0
 11 10  2  0
 13 12  1  6
 14 13  1  0
 15 13  1  0
 16 17  1  0
 16 15  1  1
 17 10  1  0
 18 16  1  0
 19 18  2  0
 20 21  1  0
 21 22  2  0
 23 21  1  0
 24 23  1  6
 24 25  1  0
 25 18  1  0
 26 24  1  0
 26 28  1  0
 27 26  2  0
M  END
$$$$
