FLN.pdb
     RDKit          3D

 28 28  0  0  1  0  0  0  0  0999 V2000
    5.8599  -17.5955   25.1958 N   0  0  0  0  0  0  0  0  0  0  0  0
    6.6088  -16.3722   24.9929 C   0  0  1  0  0  0  0  0  0  0  0  0
    7.4291  -16.0289   26.2412 C   0  0  0  0  0  0  0  0  0  0  0  0
    7.2613  -14.5853   26.4691 C   0  0  0  0  0  0  0  0  0  0  0  0
    8.4028  -13.7856   26.4177 C   0  0  0  0  0  0  0  0  0  0  0  0
    8.2578  -12.4370   26.6288 C   0  0  0  0  0  0  0  0  0  0  0  0
    7.0205  -11.9067   26.8817 C   0  0  0  0  0  0  0  0  0  0  0  0
    5.8889  -12.7172   26.9303 C   0  0  0  0  0  0  0  0  0  0  0  0
    6.0134  -14.0854   26.7193 C   0  0  0  0  0  0  0  0  0  0  0  0
    7.5832  -16.5057   23.8798 C   0  0  0  0  0  0  0  0  0  0  0  0
    7.9980  -17.6373   23.5651 O   0  0  0  0  0  0  0  0  0  0  0  0
    6.5673  -14.3073   20.2292 C   0  0  0  0  0  0  0  0  0  0  0  0
    7.5755  -13.5144   21.0480 C   0  0  2  0  0  0  0  0  0  0  0  0
    7.7152  -12.1489   20.4466 C   0  0  0  0  0  0  0  0  0  0  0  0
    8.8778  -14.2573   21.1762 C   0  0  0  0  0  0  0  0  0  0  0  0
    8.8133  -15.5164   21.9388 C   0  0  2  0  0  0  0  0  0  0  0  0
    8.0438  -15.3760   23.1763 N   0  0  0  0  0  0  0  0  0  0  0  0
   10.0986  -16.1267   22.3382 C   0  0  0  0  0  0  0  0  0  0  0  0
   10.5782  -16.9986   21.5690 O   0  0  0  0  0  0  0  0  0  0  0  0
   13.7252  -16.5394   21.7567 N   0  0  0  0  0  0  0  0  0  0  0  0
   13.9410  -15.6688   22.8866 C   0  0  0  0  0  0  0  0  0  0  0  0
   14.8200  -14.7949   22.7406 O   0  0  0  0  0  0  0  0  0  0  0  0
   13.1608  -15.8254   24.1158 C   0  0  0  0  0  0  0  0  0  0  0  0
   11.9476  -16.6685   23.8800 C   0  0  2  0  0  0  0  0  0  0  0  0
   10.8085  -15.8055   23.4963 N   0  0  0  0  0  0  0  0  0  0  0  0
   11.5180  -17.2499   25.1966 C   0  0  0  0  0  0  0  0  0  0  0  0
   10.4251  -16.9499   25.6998 O   0  0  0  0  0  0  0  0  0  0  0  0
   12.3481  -18.1442   25.8807 O   0  0  0  0  0  0  0  0  0  0  0  0
  2  1  1  1
  3  4  1  0
  3  2  1  0
  4  9  2  0
  5  4  1  0
  5  6  2  0
  6  7  1  0
  7  8  2  0
  9  8  1  0
 10  2  1  0
 11 10  2  0
 13 12  1  6
 14 13  1  0
 15 13  1  0
 16 17  1  0
 16 15  1  1
 17 10  1  0
 18 16  1  0
 19 18  2  0
 20 21  1  0
 21 22  2  0
 23 21  1  0
 24 23  1  1
 24 25  1  0
 25 18  1  0
 26 24  1  0
 26 28  1  0
 27 26  2  0
M  END
$$$$
