FLN.pdb
     RDKit          3D

 28 28  0  0  1  0  0  0  0  0999 V2000
    5.7961  -17.4343   25.1892 N   0  0  0  0  0  0  0  0  0  0  0  0
    6.5947  -16.2559   24.9205 C   0  0  1  0  0  0  0  0  0  0  0  0
    7.5472  -15.9727   26.0874 C   0  0  0  0  0  0  0  0  0  0  0  0
    7.5430  -14.5153   26.2877 C   0  0  0  0  0  0  0  0  0  0  0  0
    6.3211  -13.9048   26.5692 C   0  0  0  0  0  0  0  0  0  0  0  0
    6.3056  -12.5452   26.7579 C   0  0  0  0  0  0  0  0  0  0  0  0
    7.4657  -11.8224   26.6690 C   0  0  0  0  0  0  0  0  0  0  0  0
    8.6791  -12.4452   26.3871 C   0  0  0  0  0  0  0  0  0  0  0  0
    8.7171  -13.8209   26.1925 C   0  0  0  0  0  0  0  0  0  0  0  0
    7.4510  -16.4374   23.7205 C   0  0  0  0  0  0  0  0  0  0  0  0
    7.7941  -17.5869   23.3846 O   0  0  0  0  0  0  0  0  0  0  0  0
    6.4244  -14.4401   20.0125 C   0  0  0  0  0  0  0  0  0  0  0  0
    7.4361  -13.5578   20.7291 C   0  0  2  0  0  0  0  0  0  0  0  0
    7.5705  -12.2702   19.9743 C   0  0  0  0  0  0  0  0  0  0  0  0
    8.7401  -14.2802   20.9342 C   0  0  0  0  0  0  0  0  0  0  0  0
    8.6579  -15.5162   21.7321 C   0  0  2  0  0  0  0  0  0  0  0  0
    7.8796  -15.3334   22.9585 N   0  0  0  0  0  0  0  0  0  0  0  0
    9.9343  -16.1261   22.1596 C   0  0  0  0  0  0  0  0  0  0  0  0
   10.2983  -17.1673   21.5554 O   0  0  0  0  0  0  0  0  0  0  0  0
   13.4712  -13.9750   21.1811 N   0  0  0  0  0  0  0  0  0  0  0  0
   13.5483  -15.2453   21.8605 C   0  0  0  0  0  0  0  0  0  0  0  0
   13.9511  -16.2065   21.1739 O   0  0  0  0  0  0  0  0  0  0  0  0
   13.1702  -15.3679   23.2699 C   0  0  0  0  0  0  0  0  0  0  0  0
   12.0336  -16.3254   23.4414 C   0  0  2  0  0  0  0  0  0  0  0  0
   10.7538  -15.6317   23.1757 N   0  0  0  0  0  0  0  0  0  0  0  0
   11.9403  -16.6861   24.8965 C   0  0  0  0  0  0  0  0  0  0  0  0
   10.9332  -16.4003   25.5608 O   0  0  0  0  0  0  0  0  0  0  0  0
   12.9938  -17.3541   25.5296 O   0  0  0  0  0  0  0  0  0  0  0  0
  2  1  1  1
  3  4  1  0
  3  2  1  0
  4  9  2  0
  5  4  1  0
  5  6  2  0
  6  7  1  0
  7  8  2  0
  9  8  1  0
 10  2  1  0
 11 10  2  0
 13 12  1  6
 14 13  1  0
 15 13  1  0
 16 17  1  0
 16 15  1  1
 17 10  1  0
 18 16  1  0
 19 18  2  0
 20 21  1  0
 21 22  2  0
 23 21  1  0
 24 23  1  1
 24 25  1  0
 25 18  1  0
 26 24  1  0
 26 28  1  0
 27 26  2  0
M  END
$$$$
