FLN.pdb
     RDKit          3D

 28 28  0  0  1  0  0  0  0  0999 V2000
    8.2511  -17.6501   26.8364 N   0  0  0  0  0  0  0  0  0  0  0  0
    7.4569  -16.9801   25.8270 C   0  0  1  0  0  0  0  0  0  0  0  0
    6.9606  -15.6250   26.3433 C   0  0  0  0  0  0  0  0  0  0  0  0
    8.0430  -15.0697   27.1705 C   0  0  0  0  0  0  0  0  0  0  0  0
    8.6116  -15.9015   28.1348 C   0  0  0  0  0  0  0  0  0  0  0  0
    9.6224  -15.3936   28.9123 C   0  0  0  0  0  0  0  0  0  0  0  0
   10.0495  -14.1044   28.7342 C   0  0  0  0  0  0  0  0  0  0  0  0
    9.4725  -13.2847   27.7672 C   0  0  0  0  0  0  0  0  0  0  0  0
    8.4475  -13.7792   26.9692 C   0  0  0  0  0  0  0  0  0  0  0  0
    8.2530  -16.6928   24.6064 C   0  0  0  0  0  0  0  0  0  0  0  0
    8.7747  -17.6365   23.9826 O   0  0  0  0  0  0  0  0  0  0  0  0
    7.3819  -14.6862   20.3250 C   0  0  0  0  0  0  0  0  0  0  0  0
    7.3880  -13.5058   21.2853 C   0  0  2  0  0  0  0  0  0  0  0  0
    7.5734  -12.2454   20.4963 C   0  0  0  0  0  0  0  0  0  0  0  0
    8.4084  -13.6955   22.3750 C   0  0  0  0  0  0  0  0  0  0  0  0
    8.6966  -15.0955   22.7326 C   0  0  2  0  0  0  0  0  0  0  0  0
    8.4263  -15.3738   24.1442 N   0  0  0  0  0  0  0  0  0  0  0  0
   10.0704  -15.5823   22.4883 C   0  0  0  0  0  0  0  0  0  0  0  0
   10.1867  -16.7193   21.9637 O   0  0  0  0  0  0  0  0  0  0  0  0
   14.0530  -17.0446   25.0839 N   0  0  0  0  0  0  0  0  0  0  0  0
   12.6777  -17.4791   25.0487 C   0  0  0  0  0  0  0  0  0  0  0  0
   12.4329  -18.5590   25.6245 O   0  0  0  0  0  0  0  0  0  0  0  0
   11.6544  -16.6804   24.3711 C   0  0  0  0  0  0  0  0  0  0  0  0
   12.2709  -15.5530   23.6049 C   0  0  2  0  0  0  0  0  0  0  0  0
   11.2338  -14.8750   22.7960 N   0  0  0  0  0  0  0  0  0  0  0  0
   13.1931  -16.1368   22.5730 C   0  0  0  0  0  0  0  0  0  0  0  0
   14.3081  -15.6382   22.3595 O   0  0  0  0  0  0  0  0  0  0  0  0
   12.8072  -17.2586   21.8317 O   0  0  0  0  0  0  0  0  0  0  0  0
  2  1  1  1
  3  4  1  0
  3  2  1  0
  4  9  2  0
  5  4  1  0
  5  6  2  0
  6  7  1  0
  7  8  2  0
  9  8  1  0
 10  2  1  0
 11 10  2  0
 13 12  1  6
 14 13  1  0
 15 13  1  0
 16 17  1  0
 16 15  1  1
 17 10  1  0
 18 16  1  0
 19 18  2  0
 20 21  1  0
 21 22  2  0
 23 21  1  0
 24 23  1  6
 24 25  1  0
 25 18  1  0
 26 24  1  0
 26 28  1  0
 27 26  2  0
M  END
$$$$
