FLN.pdb
     RDKit          3D

 28 28  0  0  1  0  0  0  0  0999 V2000
    7.1680  -17.6676   21.7187 N   0  0  0  0  0  0  0  0  0  0  0  0
    7.6580  -16.3583   21.3391 C   0  0  1  0  0  0  0  0  0  0  0  0
    6.5247  -15.5066   20.7564 C   0  0  0  0  0  0  0  0  0  0  0  0
    7.1328  -14.2385   20.3247 C   0  0  0  0  0  0  0  0  0  0  0  0
    7.8323  -14.2346   19.1183 C   0  0  0  0  0  0  0  0  0  0  0  0
    8.4037  -13.0566   18.7058 C   0  0  0  0  0  0  0  0  0  0  0  0
    8.2816  -11.9255   19.4685 C   0  0  0  0  0  0  0  0  0  0  0  0
    7.5800  -11.9439   20.6715 C   0  0  0  0  0  0  0  0  0  0  0  0
    6.9936  -13.1262   21.1077 C   0  0  0  0  0  0  0  0  0  0  0  0
    8.1801  -15.6089   22.5105 C   0  0  0  0  0  0  0  0  0  0  0  0
    9.2215  -14.9361   22.3890 O   0  0  0  0  0  0  0  0  0  0  0  0
    8.8237  -12.9128   26.9288 C   0  0  0  0  0  0  0  0  0  0  0  0
    7.5849  -12.7823   26.0548 C   0  0  2  0  0  0  0  0  0  0  0  0
    6.5625  -11.9689   26.7887 C   0  0  0  0  0  0  0  0  0  0  0  0
    7.0848  -14.1314   25.6139 C   0  0  0  0  0  0  0  0  0  0  0  0
    8.0769  -14.9791   24.9295 C   0  0  2  0  0  0  0  0  0  0  0  0
    7.5178  -15.6467   23.7527 N   0  0  0  0  0  0  0  0  0  0  0  0
    8.7119  -16.0484   25.7279 C   0  0  0  0  0  0  0  0  0  0  0  0
    7.9454  -16.8830   26.2735 O   0  0  0  0  0  0  0  0  0  0  0  0
   12.4535  -17.1791   23.6024 N   0  0  0  0  0  0  0  0  0  0  0  0
   11.8249  -18.0605   24.5559 C   0  0  0  0  0  0  0  0  0  0  0  0
   11.2153  -19.0376   24.0748 O   0  0  0  0  0  0  0  0  0  0  0  0
   11.9141  -17.7985   25.9938 C   0  0  0  0  0  0  0  0  0  0  0  0
   10.5779  -17.4331   26.5587 C   0  0  2  0  0  0  0  0  0  0  0  0
   10.0874  -16.1941   25.9154 N   0  0  0  0  0  0  0  0  0  0  0  0
   10.7698  -17.0301   27.9929 C   0  0  0  0  0  0  0  0  0  0  0  0
   10.5439  -15.8690   28.3646 O   0  0  0  0  0  0  0  0  0  0  0  0
   11.2089  -17.9632   28.9382 O   0  0  0  0  0  0  0  0  0  0  0  0
  2  1  1  1
  3  4  1  0
  3  2  1  0
  4  9  2  0
  5  4  1  0
  5  6  2  0
  6  7  1  0
  7  8  2  0
  9  8  1  0
 10  2  1  0
 11 10  2  0
 13 12  1  1
 14 13  1  0
 15 13  1  0
 16 17  1  0
 16 15  1  1
 17 10  1  0
 18 16  1  0
 19 18  2  0
 20 21  1  0
 21 22  2  0
 23 21  1  0
 24 23  1  6
 24 25  1  0
 25 18  1  0
 26 24  1  0
 26 28  1  0
 27 26  2  0
M  END
$$$$
