FLN.pdb
     RDKit          3D

 28 28  0  0  1  0  0  0  0  0999 V2000
    7.9411  -18.9011   27.3792 N   0  0  0  0  0  0  0  0  0  0  0  0
    8.2422  -17.4939   27.2123 C   0  0  1  0  0  0  0  0  0  0  0  0
    9.7358  -17.2321   27.4358 C   0  0  0  0  0  0  0  0  0  0  0  0
    9.8306  -15.9991   28.2325 C   0  0  0  0  0  0  0  0  0  0  0  0
    9.9312  -16.1302   29.6173 C   0  0  0  0  0  0  0  0  0  0  0  0
   10.0202  -14.9861   30.3706 C   0  0  0  0  0  0  0  0  0  0  0  0
   10.0092  -13.7577   29.7647 C   0  0  0  0  0  0  0  0  0  0  0  0
    9.9081  -13.6416   28.3805 C   0  0  0  0  0  0  0  0  0  0  0  0
    9.8169  -14.7874   27.5990 C   0  0  0  0  0  0  0  0  0  0  0  0
    7.9413  -17.0299   25.8338 C   0  0  0  0  0  0  0  0  0  0  0  0
    7.6811  -17.8695   24.9511 O   0  0  0  0  0  0  0  0  0  0  0  0
    6.3209  -13.5073   26.4947 C   0  0  0  0  0  0  0  0  0  0  0  0
    7.3598  -13.0512   25.4807 C   0  0  2  0  0  0  0  0  0  0  0  0
    7.2971  -11.5583   25.3668 C   0  0  0  0  0  0  0  0  0  0  0  0
    7.1911  -13.7677   24.1682 C   0  0  0  0  0  0  0  0  0  0  0  0
    7.5568  -15.1950   24.1772 C   0  0  2  0  0  0  0  0  0  0  0  0
    7.9450  -15.6593   25.5101 N   0  0  0  0  0  0  0  0  0  0  0  0
    8.6514  -15.6139   23.2769 C   0  0  0  0  0  0  0  0  0  0  0  0
    8.5340  -15.3156   22.0608 O   0  0  0  0  0  0  0  0  0  0  0  0
   12.1440  -16.0391   19.8530 N   0  0  0  0  0  0  0  0  0  0  0  0
   12.5238  -15.6951   21.2016 C   0  0  0  0  0  0  0  0  0  0  0  0
   13.7501  -15.6701   21.4324 O   0  0  0  0  0  0  0  0  0  0  0  0
   11.5097  -15.3988   22.2155 C   0  0  0  0  0  0  0  0  0  0  0  0
   10.8052  -16.6440   22.6529 C   0  0  2  0  0  0  0  0  0  0  0  0
    9.7931  -16.3092   23.6789 N   0  0  0  0  0  0  0  0  0  0  0  0
   11.7882  -17.5013   23.3979 C   0  0  0  0  0  0  0  0  0  0  0  0
   12.0649  -18.6438   23.0034 O   0  0  0  0  0  0  0  0  0  0  0  0
   12.4109  -17.0225   24.5554 O   0  0  0  0  0  0  0  0  0  0  0  0
  2  1  1  6
  3  4  1  0
  3  2  1  0
  4  9  2  0
  5  4  1  0
  5  6  2  0
  6  7  1  0
  7  8  2  0
  9  8  1  0
 10  2  1  0
 11 10  2  0
 13 12  1  1
 14 13  1  0
 15 13  1  0
 16 17  1  0
 16 15  1  1
 17 10  1  0
 18 16  1  0
 19 18  2  0
 20 21  1  0
 21 22  2  0
 23 21  1  0
 24 23  1  1
 24 25  1  0
 25 18  1  0
 26 24  1  0
 26 28  1  0
 27 26  2  0
M  END
$$$$
