FLN.pdb
     RDKit          3D

 28 28  0  0  1  0  0  0  0  0999 V2000
    6.3411  -17.1785   25.7166 N   0  0  0  0  0  0  0  0  0  0  0  0
    6.9580  -15.9837   25.1777 C   0  0  1  0  0  0  0  0  0  0  0  0
    7.8853  -15.3410   26.2151 C   0  0  0  0  0  0  0  0  0  0  0  0
    7.3603  -13.9900   26.4667 C   0  0  0  0  0  0  0  0  0  0  0  0
    8.2830  -12.9720   26.7059 C   0  0  0  0  0  0  0  0  0  0  0  0
    7.8042  -11.7073   26.9418 C   0  0  0  0  0  0  0  0  0  0  0  0
    6.4555  -11.4678   26.9390 C   0  0  0  0  0  0  0  0  0  0  0  0
    5.5453  -12.4942   26.6987 C   0  0  0  0  0  0  0  0  0  0  0  0
    6.0089  -13.7822   26.4575 C   0  0  0  0  0  0  0  0  0  0  0  0
    7.8056  -16.2906   23.9971 C   0  0  0  0  0  0  0  0  0  0  0  0
    8.0527  -17.4788   23.7164 O   0  0  0  0  0  0  0  0  0  0  0  0
    6.6208  -14.5660   20.2228 C   0  0  0  0  0  0  0  0  0  0  0  0
    7.6690  -13.6673   20.8625 C   0  0  2  0  0  0  0  0  0  0  0  0
    7.7599  -12.3973   20.0723 C   0  0  0  0  0  0  0  0  0  0  0  0
    8.9834  -14.3846   21.0119 C   0  0  0  0  0  0  0  0  0  0  0  0
    8.9646  -15.5563   21.9051 C   0  0  2  0  0  0  0  0  0  0  0  0
    8.3323  -15.2620   23.1923 N   0  0  0  0  0  0  0  0  0  0  0  0
   10.2675  -16.1711   22.2346 C   0  0  0  0  0  0  0  0  0  0  0  0
   10.8634  -16.7745   21.3059 O   0  0  0  0  0  0  0  0  0  0  0  0
   13.7818  -16.4052   21.5978 N   0  0  0  0  0  0  0  0  0  0  0  0
   14.0905  -15.7972   22.8692 C   0  0  0  0  0  0  0  0  0  0  0  0
   15.1084  -15.0754   22.8947 O   0  0  0  0  0  0  0  0  0  0  0  0
   13.2427  -16.0315   24.0398 C   0  0  0  0  0  0  0  0  0  0  0  0
   12.0977  -16.9338   23.7038 C   0  0  2  0  0  0  0  0  0  0  0  0
   10.8750  -16.1281   23.4906 N   0  0  0  0  0  0  0  0  0  0  0  0
   11.7709  -17.7497   24.9218 C   0  0  0  0  0  0  0  0  0  0  0  0
   12.1105  -18.9396   25.0019 O   0  0  0  0  0  0  0  0  0  0  0  0
   11.0743  -17.1778   25.9916 O   0  0  0  0  0  0  0  0  0  0  0  0
  2  1  1  1
  3  4  1  0
  3  2  1  0
  4  9  2  0
  5  4  1  0
  5  6  2  0
  6  7  1  0
  7  8  2  0
  9  8  1  0
 10  2  1  0
 11 10  2  0
 13 12  1  6
 14 13  1  0
 15 13  1  0
 16 17  1  0
 16 15  1  1
 17 10  1  0
 18 16  1  0
 19 18  2  0
 20 21  1  0
 21 22  2  0
 23 21  1  0
 24 23  1  1
 24 25  1  0
 25 18  1  0
 26 24  1  0
 26 28  1  0
 27 26  2  0
M  END
$$$$
