FLN.pdb
     RDKit          3D

 28 28  0  0  1  0  0  0  0  0999 V2000
    6.0822  -17.4901   25.0739 N   0  0  0  0  0  0  0  0  0  0  0  0
    6.7115  -16.1892   24.9727 C   0  0  1  0  0  0  0  0  0  0  0  0
    7.2714  -15.7540   26.3315 C   0  0  0  0  0  0  0  0  0  0  0  0
    7.1048  -14.2943   26.4054 C   0  0  0  0  0  0  0  0  0  0  0  0
    5.8117  -13.7845   26.2917 C   0  0  0  0  0  0  0  0  0  0  0  0
    5.6446  -12.4237   26.3592 C   0  0  0  0  0  0  0  0  0  0  0  0
    6.7272  -11.6028   26.5336 C   0  0  0  0  0  0  0  0  0  0  0  0
    8.0132  -12.1257   26.6457 C   0  0  0  0  0  0  0  0  0  0  0  0
    8.2046  -13.5008   26.5799 C   0  0  0  0  0  0  0  0  0  0  0  0
    7.8645  -16.2108   24.0365 C   0  0  0  0  0  0  0  0  0  0  0  0
    8.4211  -17.2952   23.7797 O   0  0  0  0  0  0  0  0  0  0  0  0
    6.9104  -14.7731   20.1966 C   0  0  0  0  0  0  0  0  0  0  0  0
    7.5033  -13.6231   20.9977 C   0  0  2  0  0  0  0  0  0  0  0  0
    7.3051  -12.3509   20.2310 C   0  0  0  0  0  0  0  0  0  0  0  0
    8.9379  -13.8954   21.3613 C   0  0  0  0  0  0  0  0  0  0  0  0
    9.1580  -15.0689   22.2248 C   0  0  2  0  0  0  0  0  0  0  0  0
    8.3365  -15.0277   23.4359 N   0  0  0  0  0  0  0  0  0  0  0  0
   10.5395  -15.3107   22.6907 C   0  0  0  0  0  0  0  0  0  0  0  0
   11.4329  -15.3850   21.8087 O   0  0  0  0  0  0  0  0  0  0  0  0
   12.3475  -19.5102   25.4123 N   0  0  0  0  0  0  0  0  0  0  0  0
   12.0325  -19.0224   24.0917 C   0  0  0  0  0  0  0  0  0  0  0  0
   12.5684  -19.6323   23.1437 O   0  0  0  0  0  0  0  0  0  0  0  0
   11.1355  -17.8798   23.9067 C   0  0  0  0  0  0  0  0  0  0  0  0
   11.7705  -16.6133   24.3871 C   0  0  2  0  0  0  0  0  0  0  0  0
   10.9162  -15.4601   24.0265 N   0  0  0  0  0  0  0  0  0  0  0  0
   13.0221  -16.3845   23.5887 C   0  0  0  0  0  0  0  0  0  0  0  0
   12.9656  -16.0823   22.3874 O   0  0  0  0  0  0  0  0  0  0  0  0
   14.2788  -16.5092   24.1903 O   0  0  0  0  0  0  0  0  0  0  0  0
  2  1  1  1
  3  4  1  0
  3  2  1  0
  4  9  2  0
  5  4  1  0
  5  6  2  0
  6  7  1  0
  7  8  2  0
  9  8  1  0
 10  2  1  0
 11 10  2  0
 13 12  1  6
 14 13  1  0
 15 13  1  0
 16 17  1  0
 16 15  1  1
 17 10  1  0
 18 16  1  0
 19 18  2  0
 20 21  1  0
 21 22  2  0
 23 21  1  0
 24 23  1  6
 24 25  1  0
 25 18  1  0
 26 24  1  0
 26 28  1  0
 27 26  2  0
M  END
$$$$
