FLN.pdb
     RDKit          3D

 28 28  0  0  1  0  0  0  0  0999 V2000
    8.9128  -16.1777   26.1521 N   0  0  0  0  0  0  0  0  0  0  0  0
    7.6068  -16.6142   25.7019 C   0  0  1  0  0  0  0  0  0  0  0  0
    6.5051  -16.0178   26.5849 C   0  0  0  0  0  0  0  0  0  0  0  0
    6.8173  -14.5883   26.7364 C   0  0  0  0  0  0  0  0  0  0  0  0
    5.9161  -13.6692   26.1996 C   0  0  0  0  0  0  0  0  0  0  0  0
    6.1975  -12.3325   26.3353 C   0  0  0  0  0  0  0  0  0  0  0  0
    7.3352  -11.9285   26.9822 C   0  0  0  0  0  0  0  0  0  0  0  0
    8.2266  -12.8575   27.5135 C   0  0  0  0  0  0  0  0  0  0  0  0
    7.9608  -14.2159   27.3872 C   0  0  0  0  0  0  0  0  0  0  0  0
    7.3236  -16.1549   24.3180 C   0  0  0  0  0  0  0  0  0  0  0  0
    6.2545  -16.4875   23.7721 O   0  0  0  0  0  0  0  0  0  0  0  0
    8.2655  -14.1816   19.3681 C   0  0  0  0  0  0  0  0  0  0  0  0
    7.6458  -13.3356   20.4708 C   0  0  2  0  0  0  0  0  0  0  0  0
    7.8159  -11.8888   20.1196 C   0  0  0  0  0  0  0  0  0  0  0  0
    8.2053  -13.7029   21.8186 C   0  0  0  0  0  0  0  0  0  0  0  0
    8.1073  -15.1292   22.1749 C   0  0  2  0  0  0  0  0  0  0  0  0
    8.2422  -15.3512   23.6156 N   0  0  0  0  0  0  0  0  0  0  0  0
    9.0745  -16.0486   21.5397 C   0  0  0  0  0  0  0  0  0  0  0  0
    9.1499  -16.0173   20.2847 O   0  0  0  0  0  0  0  0  0  0  0  0
   13.1315  -18.3013   19.7659 N   0  0  0  0  0  0  0  0  0  0  0  0
   13.2155  -17.0689   20.5111 C   0  0  0  0  0  0  0  0  0  0  0  0
   14.3487  -16.5503   20.5798 O   0  0  0  0  0  0  0  0  0  0  0  0
   12.0267  -16.4867   21.1371 C   0  0  0  0  0  0  0  0  0  0  0  0
   11.0351  -17.5465   21.4997 C   0  0  2  0  0  0  0  0  0  0  0  0
    9.9003  -16.9382   22.2289 N   0  0  0  0  0  0  0  0  0  0  0  0
   11.6655  -18.4477   22.5227 C   0  0  0  0  0  0  0  0  0  0  0  0
   12.6955  -19.0865   22.2613 O   0  0  0  0  0  0  0  0  0  0  0  0
   11.0978  -18.5820   23.7942 O   0  0  0  0  0  0  0  0  0  0  0  0
  2  1  1  1
  3  4  1  0
  3  2  1  0
  4  9  2  0
  5  4  1  0
  5  6  2  0
  6  7  1  0
  7  8  2  0
  9  8  1  0
 10  2  1  0
 11 10  2  0
 13 12  1  6
 14 13  1  0
 15 13  1  0
 16 17  1  0
 16 15  1  1
 17 10  1  0
 18 16  1  0
 19 18  2  0
 20 21  1  0
 21 22  2  0
 23 21  1  0
 24 23  1  1
 24 25  1  0
 25 18  1  0
 26 24  1  0
 26 28  1  0
 27 26  2  0
M  END
$$$$
