FLN.pdb
     RDKit          3D

 28 28  0  0  1  0  0  0  0  0999 V2000
    5.8738  -17.8830   24.9037 N   0  0  0  0  0  0  0  0  0  0  0  0
    6.5068  -16.5801   24.8811 C   0  0  1  0  0  0  0  0  0  0  0  0
    7.1339  -16.2618   26.2429 C   0  0  0  0  0  0  0  0  0  0  0  0
    7.2017  -14.7955   26.3406 C   0  0  0  0  0  0  0  0  0  0  0  0
    6.0074  -14.0841   26.2285 C   0  0  0  0  0  0  0  0  0  0  0  0
    6.0590  -12.7153   26.3182 C   0  0  0  0  0  0  0  0  0  0  0  0
    7.2571  -12.0807   26.5126 C   0  0  0  0  0  0  0  0  0  0  0  0
    8.4423  -12.8038   26.6228 C   0  0  0  0  0  0  0  0  0  0  0  0
    8.4125  -14.1906   26.5348 C   0  0  0  0  0  0  0  0  0  0  0  0
    7.6135  -16.5268   23.8919 C   0  0  0  0  0  0  0  0  0  0  0  0
    8.2114  -17.5768   23.5888 O   0  0  0  0  0  0  0  0  0  0  0  0
    6.7159  -14.4029   20.1936 C   0  0  0  0  0  0  0  0  0  0  0  0
    7.4733  -13.4656   21.1229 C   0  0  2  0  0  0  0  0  0  0  0  0
    7.4714  -12.0914   20.5252 C   0  0  0  0  0  0  0  0  0  0  0  0
    8.8493  -13.9939   21.4261 C   0  0  0  0  0  0  0  0  0  0  0  0
    8.8873  -15.2869   22.1315 C   0  0  2  0  0  0  0  0  0  0  0  0
    7.9961  -15.3112   23.2926 N   0  0  0  0  0  0  0  0  0  0  0  0
   10.2019  -15.7414   22.6310 C   0  0  0  0  0  0  0  0  0  0  0  0
   11.1210  -15.8676   21.7818 O   0  0  0  0  0  0  0  0  0  0  0  0
   13.4598  -14.6885   22.0268 N   0  0  0  0  0  0  0  0  0  0  0  0
   13.7409  -15.4037   23.2478 C   0  0  0  0  0  0  0  0  0  0  0  0
   14.8211  -16.0281   23.2767 O   0  0  0  0  0  0  0  0  0  0  0  0
   12.7972  -15.3794   24.3672 C   0  0  0  0  0  0  0  0  0  0  0  0
   11.8451  -16.5310   24.2941 C   0  0  2  0  0  0  0  0  0  0  0  0
   10.4900  -16.0365   23.9645 N   0  0  0  0  0  0  0  0  0  0  0  0
   11.6848  -17.0950   25.6770 C   0  0  0  0  0  0  0  0  0  0  0  0
   12.5619  -17.8143   26.1778 O   0  0  0  0  0  0  0  0  0  0  0  0
   10.5372  -16.8166   26.4270 O   0  0  0  0  0  0  0  0  0  0  0  0
  2  1  1  1
  3  4  1  0
  3  2  1  0
  4  9  2  0
  5  4  1  0
  5  6  2  0
  6  7  1  0
  7  8  2  0
  9  8  1  0
 10  2  1  0
 11 10  2  0
 13 12  1  6
 14 13  1  0
 15 13  1  0
 16 17  1  0
 16 15  1  1
 17 10  1  0
 18 16  1  0
 19 18  2  0
 20 21  1  0
 21 22  2  0
 23 21  1  0
 24 23  1  1
 24 25  1  0
 25 18  1  0
 26 24  1  0
 26 28  1  0
 27 26  2  0
M  END
$$$$
