FLN.pdb
     RDKit          3D

 28 28  0  0  1  0  0  0  0  0999 V2000
    7.0425  -16.6756   21.5602 N   0  0  0  0  0  0  0  0  0  0  0  0
    8.4822  -16.6645   21.7211 C   0  0  1  0  0  0  0  0  0  0  0  0
    9.1459  -15.8823   20.5824 C   0  0  0  0  0  0  0  0  0  0  0  0
    8.5171  -14.5525   20.5653 C   0  0  0  0  0  0  0  0  0  0  0  0
    9.3248  -13.4517   20.8495 C   0  0  0  0  0  0  0  0  0  0  0  0
    8.7484  -12.2059   20.8363 C   0  0  0  0  0  0  0  0  0  0  0  0
    7.4164  -12.0643   20.5501 C   0  0  0  0  0  0  0  0  0  0  0  0
    6.6216  -13.1726   20.2681 C   0  0  0  0  0  0  0  0  0  0  0  0
    7.1852  -14.4431   20.2762 C   0  0  0  0  0  0  0  0  0  0  0  0
    8.8866  -15.9881   22.9801 C   0  0  0  0  0  0  0  0  0  0  0  0
   10.0610  -15.5934   23.1101 O   0  0  0  0  0  0  0  0  0  0  0  0
    8.5045  -12.3598   25.9277 C   0  0  0  0  0  0  0  0  0  0  0  0
    7.2275  -13.1377   25.6456 C   0  0  2  0  0  0  0  0  0  0  0  0
    6.0793  -12.4293   26.2978 C   0  0  0  0  0  0  0  0  0  0  0  0
    7.3649  -14.5784   26.0579 C   0  0  0  0  0  0  0  0  0  0  0  0
    8.4075  -15.3407   25.3488 C   0  0  2  0  0  0  0  0  0  0  0  0
    7.9656  -15.7860   24.0261 N   0  0  0  0  0  0  0  0  0  0  0  0
    8.9301  -16.5493   26.0200 C   0  0  0  0  0  0  0  0  0  0  0  0
    8.1079  -17.4725   26.2513 O   0  0  0  0  0  0  0  0  0  0  0  0
   11.8898  -20.8227   26.0589 N   0  0  0  0  0  0  0  0  0  0  0  0
   12.6130  -19.6353   26.4440 C   0  0  0  0  0  0  0  0  0  0  0  0
   13.6858  -19.8246   27.0531 O   0  0  0  0  0  0  0  0  0  0  0  0
   12.0945  -18.3033   26.1258 C   0  0  0  0  0  0  0  0  0  0  0  0
   10.7199  -18.1128   26.6845 C   0  0  2  0  0  0  0  0  0  0  0  0
   10.2575  -16.7342   26.4100 N   0  0  0  0  0  0  0  0  0  0  0  0
   10.8127  -18.1586   28.1830 C   0  0  0  0  0  0  0  0  0  0  0  0
   11.1945  -19.1835   28.7671 O   0  0  0  0  0  0  0  0  0  0  0  0
   10.4679  -17.0396   28.9486 O   0  0  0  0  0  0  0  0  0  0  0  0
  2  1  1  6
  3  4  1  0
  3  2  1  0
  4  9  2  0
  5  4  1  0
  5  6  2  0
  6  7  1  0
  7  8  2  0
  9  8  1  0
 10  2  1  0
 11 10  2  0
 13 12  1  1
 14 13  1  0
 15 13  1  0
 16 17  1  0
 16 15  1  1
 17 10  1  0
 18 16  1  0
 19 18  2  0
 20 21  1  0
 21 22  2  0
 23 21  1  0
 24 23  1  6
 24 25  1  0
 25 18  1  0
 26 24  1  0
 26 28  1  0
 27 26  2  0
M  END
$$$$
