FIY.pdb
     RDKit          3D

 32 33  0  0  1  0  0  0  0  0999 V2000
   23.8185  -11.1833  -17.1209 N   0  0  0  0  0  0  0  0  0  0  0  0
   22.8826  -10.1241  -17.4354 C   0  0  1  0  0  0  0  0  0  0  0  0
   21.5066  -10.6157  -17.0472 C   0  0  0  0  0  0  0  0  0  0  0  0
   21.1057  -11.6863  -17.9956 C   0  0  0  0  0  0  0  0  0  0  0  0
   20.8214  -12.9772  -17.5674 C   0  0  0  0  0  0  0  0  0  0  0  0
   20.4515  -13.9490  -18.4752 C   0  0  0  0  0  0  0  0  0  0  0  0
   20.3512  -13.6785  -19.8271 C   0  0  0  0  0  0  0  0  0  0  0  0
   20.6324  -12.3982  -20.2581 C   0  0  0  0  0  0  0  0  0  0  0  0
   21.0005  -11.4342  -19.3477 C   0  0  0  0  0  0  0  0  0  0  0  0
   23.2695   -8.8932  -16.7419 C   0  0  0  0  0  0  0  0  0  0  0  0
   23.9566   -8.9959  -15.6747 O   0  0  0  0  0  0  0  0  0  0  0  0
   24.4267   -2.9485  -17.7572 C   0  0  0  0  0  0  0  0  0  0  0  0
   24.0718   -4.0025  -16.7298 C   0  0  0  0  0  0  0  0  0  0  0  0
   23.7010   -5.3107  -17.4217 C   0  0  2  0  0  0  0  0  0  0  0  0
   22.5514   -5.0700  -18.3649 C   0  0  0  0  0  0  0  0  0  0  0  0
   23.3345   -6.3708  -16.4080 C   0  0  2  0  0  0  0  0  0  0  0  0
   22.9461   -7.5930  -17.1542 N   0  0  0  0  0  0  0  0  0  0  0  0
   22.1662   -5.9056  -15.6309 C   0  0  0  0  0  0  0  0  0  0  0  0
   20.9899   -6.0596  -16.1334 O   0  0  0  0  0  0  0  0  0  0  0  0
   16.7701   -3.6442   -9.1164 O   0  0  0  0  0  0  0  0  0  0  0  0
   17.8595   -4.0140   -9.8901 C   0  0  0  0  0  0  0  0  0  0  0  0
   18.0177   -5.3434  -10.1933 C   0  0  0  0  0  0  0  0  0  0  0  0
   19.0904   -5.7479  -10.9611 C   0  0  0  0  0  0  0  0  0  0  0  0
   19.9964   -4.8136  -11.4185 C   0  0  0  0  0  0  0  0  0  0  0  0
   21.1475   -5.1923  -12.2283 C   0  0  0  0  0  0  0  0  0  0  0  0
   20.9428   -4.8983  -13.6821 C   0  0  2  0  0  0  0  0  0  0  0  0
   22.1832   -5.2990  -14.3625 N   0  0  0  0  0  0  0  0  0  0  0  0
   20.6724   -3.4664  -13.8711 C   0  0  0  0  0  0  0  0  0  0  0  0
   21.5886   -2.5800  -13.9037 O   0  0  0  0  0  0  0  0  0  0  0  0
   19.8151   -3.4680  -11.0978 C   0  0  0  0  0  0  0  0  0  0  0  0
   18.7499   -3.0699  -10.3360 C   0  0  0  0  0  0  0  0  0  0  0  0
   19.3786   -3.0243  -14.0265 O   0  0  0  0  0  0  0  0  0  0  0  0
  2  1  1  1
  3  2  1  0
  4  3  1  0
  4  5  2  0
  6  5  1  0
  7  6  2  0
  8  9  2  0
  8  7  1  0
  9  4  1  0
 10  2  1  0
 10 17  1  0
 11 10  2  0
 13 12  1  0
 13 14  1  0
 14 15  1  6
 16 14  1  0
 16 17  1  6
 18 16  1  0
 19 18  2  0
 20 21  1  0
 21 22  2  0
 21 31  1  0
 22 23  1  0
 23 24  2  0
 24 25  1  0
 26 25  1  1
 26 28  1  0
 26 27  1  0
 27 18  1  0
 28 32  1  0
 29 28  2  0
 30 24  1  0
 31 30  2  0
M  END
$$$$
