FIY.pdb
     RDKit          3D

 32 33  0  0  1  0  0  0  0  0999 V2000
   25.4098  -20.4145  -18.6725 N   0  0  0  0  0  0  0  0  0  0  0  0
   25.6014  -19.5020  -17.5646 C   0  0  1  0  0  0  0  0  0  0  0  0
   24.3496  -18.6609  -17.4588 C   0  0  0  0  0  0  0  0  0  0  0  0
   24.3504  -17.6761  -18.5708 C   0  0  0  0  0  0  0  0  0  0  0  0
   23.5410  -17.8320  -19.6894 C   0  0  0  0  0  0  0  0  0  0  0  0
   23.5659  -16.8980  -20.7055 C   0  0  0  0  0  0  0  0  0  0  0  0
   24.3861  -15.7866  -20.6495 C   0  0  0  0  0  0  0  0  0  0  0  0
   25.1920  -15.6267  -19.5410 C   0  0  0  0  0  0  0  0  0  0  0  0
   25.1622  -16.5617  -18.5317 C   0  0  0  0  0  0  0  0  0  0  0  0
   25.8926  -20.2547  -16.3421 C   0  0  0  0  0  0  0  0  0  0  0  0
   25.3541  -21.3997  -16.1993 O   0  0  0  0  0  0  0  0  0  0  0  0
   29.9571  -20.5027  -11.6680 C   0  0  0  0  0  0  0  0  0  0  0  0
   28.5729  -20.8599  -12.1667 C   0  0  0  0  0  0  0  0  0  0  0  0
   28.3237  -20.2265  -13.5322 C   0  0  2  0  0  0  0  0  0  0  0  0
   28.4617  -18.7305  -13.4230 C   0  0  0  0  0  0  0  0  0  0  0  0
   26.9513  -20.5900  -14.0519 C   0  0  2  0  0  0  0  0  0  0  0  0
   26.7235  -19.8205  -15.2999 N   0  0  0  0  0  0  0  0  0  0  0  0
   25.9387  -20.1785  -13.0566 C   0  0  0  0  0  0  0  0  0  0  0  0
   25.4461  -18.9905  -13.1325 O   0  0  0  0  0  0  0  0  0  0  0  0
   18.5059  -19.3417   -8.9823 O   0  0  0  0  0  0  0  0  0  0  0  0
   19.6388  -19.7674   -9.6589 C   0  0  0  0  0  0  0  0  0  0  0  0
   20.0853  -19.0123  -10.7146 C   0  0  0  0  0  0  0  0  0  0  0  0
   21.2095  -19.4056  -11.4111 C   0  0  0  0  0  0  0  0  0  0  0  0
   21.8768  -20.5550  -11.0417 C   0  0  0  0  0  0  0  0  0  0  0  0
   23.0656  -21.0139  -11.7491 C   0  0  0  0  0  0  0  0  0  0  0  0
   24.3279  -20.4738  -11.1520 C   0  0  2  0  0  0  0  0  0  0  0  0
   25.4259  -20.9558  -12.0031 N   0  0  0  0  0  0  0  0  0  0  0  0
   24.4758  -20.9549   -9.7716 C   0  0  0  0  0  0  0  0  0  0  0  0
   24.9439  -22.1042   -9.4778 O   0  0  0  0  0  0  0  0  0  0  0  0
   21.4047  -21.3065   -9.9653 C   0  0  0  0  0  0  0  0  0  0  0  0
   20.2891  -20.9136   -9.2763 C   0  0  0  0  0  0  0  0  0  0  0  0
   24.1035  -20.1514   -8.7184 O   0  0  0  0  0  0  0  0  0  0  0  0
  2  1  1  6
  3  2  1  0
  4  3  1  0
  4  5  2  0
  6  5  1  0
  7  6  2  0
  8  9  2  0
  8  7  1  0
  9  4  1  0
 10  2  1  0
 10 17  1  0
 11 10  2  0
 13 12  1  0
 13 14  1  0
 14 15  1  1
 16 14  1  0
 16 17  1  6
 18 16  1  0
 19 18  2  0
 20 21  1  0
 21 22  2  0
 21 31  1  0
 22 23  1  0
 23 24  2  0
 24 25  1  0
 26 25  1  6
 26 28  1  0
 26 27  1  0
 27 18  1  0
 28 32  1  0
 29 28  2  0
 30 24  1  0
 31 30  2  0
M  END
$$$$
