FIY.pdb
     RDKit          3D

 32 33  0  0  1  0  0  0  0  0999 V2000
   24.0978  -20.5640  -15.0500 N   0  0  0  0  0  0  0  0  0  0  0  0
   23.6173  -19.8189  -13.9051 C   0  0  1  0  0  0  0  0  0  0  0  0
   22.1942  -19.4075  -14.2068 C   0  0  0  0  0  0  0  0  0  0  0  0
   22.2194  -18.3848  -15.2837 C   0  0  0  0  0  0  0  0  0  0  0  0
   22.5953  -17.0698  -15.0382 C   0  0  0  0  0  0  0  0  0  0  0  0
   22.6079  -16.1439  -16.0619 C   0  0  0  0  0  0  0  0  0  0  0  0
   22.2516  -16.4852  -17.3533 C   0  0  0  0  0  0  0  0  0  0  0  0
   21.8774  -17.7896  -17.6029 C   0  0  0  0  0  0  0  0  0  0  0  0
   21.8671  -18.7075  -16.5777 C   0  0  0  0  0  0  0  0  0  0  0  0
   23.7350  -20.6337  -12.6935 C   0  0  0  0  0  0  0  0  0  0  0  0
   23.4892  -21.8799  -12.7818 O   0  0  0  0  0  0  0  0  0  0  0  0
   26.5361  -20.5065   -7.1755 C   0  0  0  0  0  0  0  0  0  0  0  0
   25.4724  -21.1490   -8.0405 C   0  0  0  0  0  0  0  0  0  0  0  0
   25.2826  -20.3491   -9.3257 C   0  0  2  0  0  0  0  0  0  0  0  0
   24.8140  -18.9584   -8.9856 C   0  0  0  0  0  0  0  0  0  0  0  0
   24.2890  -21.0282  -10.2407 C   0  0  2  0  0  0  0  0  0  0  0  0
   24.0995  -20.1568  -11.4266 N   0  0  0  0  0  0  0  0  0  0  0  0
   22.9949  -21.1481   -9.5363 C   0  0  0  0  0  0  0  0  0  0  0  0
   22.3277  -20.0752   -9.2845 O   0  0  0  0  0  0  0  0  0  0  0  0
   15.5516  -23.9896   -5.8903 O   0  0  0  0  0  0  0  0  0  0  0  0
   16.7593  -23.8888   -6.5639 C   0  0  0  0  0  0  0  0  0  0  0  0
   16.7886  -23.1802   -7.7392 C   0  0  0  0  0  0  0  0  0  0  0  0
   17.9730  -23.0590   -8.4365 C   0  0  0  0  0  0  0  0  0  0  0  0
   19.1192  -23.6509   -7.9479 C   0  0  0  0  0  0  0  0  0  0  0  0
   20.3925  -23.5551   -8.6505 C   0  0  0  0  0  0  0  0  0  0  0  0
   21.1475  -22.3120   -8.2946 C   0  0  2  0  0  0  0  0  0  0  0  0
   22.3794  -22.3337   -9.0972 N   0  0  0  0  0  0  0  0  0  0  0  0
   21.4508  -22.3036   -6.8569 C   0  0  0  0  0  0  0  0  0  0  0  0
   22.4689  -22.8834   -6.3534 O   0  0  0  0  0  0  0  0  0  0  0  0
   19.0654  -24.3661   -6.7513 C   0  0  0  0  0  0  0  0  0  0  0  0
   17.8889  -24.4845   -6.0618 C   0  0  0  0  0  0  0  0  0  0  0  0
   20.6183  -21.6452   -5.9812 O   0  0  0  0  0  0  0  0  0  0  0  0
  2  1  1  6
  3  2  1  0
  4  3  1  0
  4  5  2  0
  6  5  1  0
  7  6  2  0
  8  9  2  0
  8  7  1  0
  9  4  1  0
 10  2  1  0
 10 17  1  0
 11 10  2  0
 13 12  1  0
 13 14  1  0
 14 15  1  1
 16 14  1  0
 16 17  1  6
 18 16  1  0
 19 18  2  0
 20 21  1  0
 21 22  2  0
 21 31  1  0
 22 23  1  0
 23 24  2  0
 24 25  1  0
 26 25  1  1
 26 28  1  0
 26 27  1  0
 27 18  1  0
 28 32  1  0
 29 28  2  0
 30 24  1  0
 31 30  2  0
M  END
$$$$
