FIY.pdb
     RDKit          3D

 32 33  0  0  1  0  0  0  0  0999 V2000
   28.3797  -20.1941  -15.6396 N   0  0  0  0  0  0  0  0  0  0  0  0
   27.4436  -19.4315  -14.8403 C   0  0  1  0  0  0  0  0  0  0  0  0
   26.6315  -18.5840  -15.7931 C   0  0  0  0  0  0  0  0  0  0  0  0
   27.4629  -17.4296  -16.2199 C   0  0  0  0  0  0  0  0  0  0  0  0
   28.0655  -17.3820  -17.4711 C   0  0  0  0  0  0  0  0  0  0  0  0
   28.8322  -16.2939  -17.8365 C   0  0  0  0  0  0  0  0  0  0  0  0
   29.0272  -15.2242  -16.9829 C   0  0  0  0  0  0  0  0  0  0  0  0
   28.4312  -15.2660  -15.7391 C   0  0  0  0  0  0  0  0  0  0  0  0
   27.6682  -16.3538  -15.3813 C   0  0  0  0  0  0  0  0  0  0  0  0
   26.6217  -20.3370  -14.0339 C   0  0  0  0  0  0  0  0  0  0  0  0
   26.3044  -21.4646  -14.5328 O   0  0  0  0  0  0  0  0  0  0  0  0
   26.8718  -20.8678   -8.5846 C   0  0  0  0  0  0  0  0  0  0  0  0
   26.6939  -21.1858  -10.0542 C   0  0  0  0  0  0  0  0  0  0  0  0
   25.3414  -20.6779  -10.5446 C   0  0  2  0  0  0  0  0  0  0  0  0
   24.2412  -21.3567   -9.7714 C   0  0  0  0  0  0  0  0  0  0  0  0
   25.1756  -20.9322  -12.0256 C   0  0  2  0  0  0  0  0  0  0  0  0
   26.1462  -20.0688  -12.7427 N   0  0  0  0  0  0  0  0  0  0  0  0
   23.8096  -20.5360  -12.4287 C   0  0  0  0  0  0  0  0  0  0  0  0
   23.4130  -19.3379  -12.1701 O   0  0  0  0  0  0  0  0  0  0  0  0
   16.5541  -18.6991  -16.6731 O   0  0  0  0  0  0  0  0  0  0  0  0
   17.7824  -19.1665  -16.2312 C   0  0  0  0  0  0  0  0  0  0  0  0
   17.9934  -20.5228  -16.2188 C   0  0  0  0  0  0  0  0  0  0  0  0
   19.2038  -21.0238  -15.7854 C   0  0  0  0  0  0  0  0  0  0  0  0
   20.1932  -20.1582  -15.3675 C   0  0  0  0  0  0  0  0  0  0  0  0
   21.4859  -20.6392  -14.8966 C   0  0  0  0  0  0  0  0  0  0  0  0
   21.5168  -20.8288  -13.4118 C   0  0  2  0  0  0  0  0  0  0  0  0
   22.8590  -21.3349  -13.0885 N   0  0  0  0  0  0  0  0  0  0  0  0
   20.4772  -21.7849  -13.0064 C   0  0  0  0  0  0  0  0  0  0  0  0
   20.6295  -23.0497  -13.0634 O   0  0  0  0  0  0  0  0  0  0  0  0
   19.9561  -18.7835  -15.3889 C   0  0  0  0  0  0  0  0  0  0  0  0
   18.7543  -18.2897  -15.8195 C   0  0  0  0  0  0  0  0  0  0  0  0
   19.2679  -21.3285  -12.5345 O   0  0  0  0  0  0  0  0  0  0  0  0
  2  1  1  6
  3  2  1  0
  4  3  1  0
  4  5  2  0
  6  5  1  0
  7  6  2  0
  8  9  2  0
  8  7  1  0
  9  4  1  0
 10  2  1  0
 10 17  1  0
 11 10  2  0
 13 12  1  0
 13 14  1  0
 14 15  1  1
 16 14  1  0
 16 17  1  6
 18 16  1  0
 19 18  2  0
 20 21  1  0
 21 22  2  0
 21 31  1  0
 22 23  1  0
 23 24  2  0
 24 25  1  0
 26 25  1  6
 26 28  1  0
 26 27  1  0
 27 18  1  0
 28 32  1  0
 29 28  2  0
 30 24  1  0
 31 30  2  0
M  END
$$$$
