FIY.pdb
     RDKit          3D

 32 33  0  0  1  0  0  0  0  0999 V2000
   28.8137   -4.6530    5.8841 N   0  0  0  0  0  0  0  0  0  0  0  0
   27.5161   -4.8818    6.4848 C   0  0  1  0  0  0  0  0  0  0  0  0
   26.4769   -4.4116    5.4924 C   0  0  0  0  0  0  0  0  0  0  0  0
   26.0699   -3.0306    5.8576 C   0  0  0  0  0  0  0  0  0  0  0  0
   25.2819   -2.2519    5.0190 C   0  0  0  0  0  0  0  0  0  0  0  0
   24.9214   -0.9718    5.3887 C   0  0  0  0  0  0  0  0  0  0  0  0
   25.3252   -0.4230    6.5914 C   0  0  0  0  0  0  0  0  0  0  0  0
   26.1079   -1.1917    7.4283 C   0  0  0  0  0  0  0  0  0  0  0  0
   26.4637   -2.4672    7.0535 C   0  0  0  0  0  0  0  0  0  0  0  0
   27.3723   -6.2955    6.8405 C   0  0  0  0  0  0  0  0  0  0  0  0
   27.7723   -7.1686    6.0045 O   0  0  0  0  0  0  0  0  0  0  0  0
   29.5793   -8.4068   10.9377 C   0  0  0  0  0  0  0  0  0  0  0  0
   28.9155   -8.2201    9.5898 C   0  0  0  0  0  0  0  0  0  0  0  0
   27.4087   -8.4268    9.7099 C   0  0  2  0  0  0  0  0  0  0  0  0
   27.1332   -9.8138   10.2288 C   0  0  0  0  0  0  0  0  0  0  0  0
   26.7291   -8.2215    8.3751 C   0  0  2  0  0  0  0  0  0  0  0  0
   26.8256   -6.7800    8.0369 N   0  0  0  0  0  0  0  0  0  0  0  0
   25.3002   -8.5769    8.5065 C   0  0  0  0  0  0  0  0  0  0  0  0
   24.5527   -7.8563    9.2693 O   0  0  0  0  0  0  0  0  0  0  0  0
   17.6248  -12.8658    7.9621 O   0  0  0  0  0  0  0  0  0  0  0  0
   18.9068  -12.3830    7.7483 C   0  0  0  0  0  0  0  0  0  0  0  0
   19.0470  -11.1818    7.0988 C   0  0  0  0  0  0  0  0  0  0  0  0
   20.3077  -10.6706    6.8687 C   0  0  0  0  0  0  0  0  0  0  0  0
   21.4184  -11.3703    7.2926 C   0  0  0  0  0  0  0  0  0  0  0  0
   22.7704  -10.8741    7.0686 C   0  0  0  0  0  0  0  0  0  0  0  0
   23.2184   -9.9354    8.1456 C   0  0  2  0  0  0  0  0  0  0  0  0
   24.6330   -9.6404    7.8733 N   0  0  0  0  0  0  0  0  0  0  0  0
   23.0517  -10.5661    9.4622 C   0  0  0  0  0  0  0  0  0  0  0  0
   22.0398  -10.3640   10.2115 O   0  0  0  0  0  0  0  0  0  0  0  0
   21.2515  -12.5890    7.9507 C   0  0  0  0  0  0  0  0  0  0  0  0
   19.9994  -13.0934    8.1776 C   0  0  0  0  0  0  0  0  0  0  0  0
   24.0140  -11.4252    9.9412 O   0  0  0  0  0  0  0  0  0  0  0  0
  2  1  1  6
  3  2  1  0
  4  3  1  0
  4  5  2  0
  6  5  1  0
  7  6  2  0
  8  9  2  0
  8  7  1  0
  9  4  1  0
 10  2  1  0
 10 17  1  0
 11 10  2  0
 13 12  1  0
 13 14  1  0
 14 15  1  6
 16 14  1  0
 16 17  1  1
 18 16  1  0
 19 18  2  0
 20 21  1  0
 21 22  2  0
 21 31  1  0
 22 23  1  0
 23 24  2  0
 24 25  1  0
 26 25  1  6
 26 28  1  0
 26 27  1  0
 27 18  1  0
 28 32  1  0
 29 28  2  0
 30 24  1  0
 31 30  2  0
M  END
$$$$
