FIY.pdb
     RDKit          3D

 32 33  0  0  1  0  0  0  0  0999 V2000
   15.5274  -15.3369    4.5314 N   0  0  0  0  0  0  0  0  0  0  0  0
   16.3953  -16.2401    3.8052 C   0  0  1  0  0  0  0  0  0  0  0  0
   17.8097  -15.9614    4.2609 C   0  0  0  0  0  0  0  0  0  0  0  0
   18.2630  -14.6927    3.6357 C   0  0  0  0  0  0  0  0  0  0  0  0
   18.5569  -14.6065    2.2804 C   0  0  0  0  0  0  0  0  0  0  0  0
   18.9759  -13.4116    1.7308 C   0  0  0  0  0  0  0  0  0  0  0  0
   19.1173  -12.2703    2.4978 C   0  0  0  0  0  0  0  0  0  0  0  0
   18.8269  -12.3499    3.8443 C   0  0  0  0  0  0  0  0  0  0  0  0
   18.4096  -13.5443    4.3857 C   0  0  0  0  0  0  0  0  0  0  0  0
   15.9801  -17.6258    4.0359 C   0  0  0  0  0  0  0  0  0  0  0  0
   15.2966  -17.8819    5.0793 O   0  0  0  0  0  0  0  0  0  0  0  0
   15.7112  -21.6044    0.1919 C   0  0  0  0  0  0  0  0  0  0  0  0
   15.3849  -20.9010    1.4923 C   0  0  0  0  0  0  0  0  0  0  0  0
   16.5659  -20.9936    2.4537 C   0  0  2  0  0  0  0  0  0  0  0  0
   16.7588  -22.4274    2.8735 C   0  0  0  0  0  0  0  0  0  0  0  0
   16.3435  -20.1176    3.6656 C   0  0  2  0  0  0  0  0  0  0  0  0
   16.2723  -18.7111    3.1983 N   0  0  0  0  0  0  0  0  0  0  0  0
   17.5038  -20.2516    4.5718 C   0  0  0  0  0  0  0  0  0  0  0  0
   18.6585  -19.8576    4.1581 O   0  0  0  0  0  0  0  0  0  0  0  0
   23.2250  -19.1667   10.8068 O   0  0  0  0  0  0  0  0  0  0  0  0
   22.1259  -19.2507    9.9659 C   0  0  0  0  0  0  0  0  0  0  0  0
   22.3170  -19.0265    8.6252 C   0  0  0  0  0  0  0  0  0  0  0  0
   21.2460  -19.1017    7.7586 C   0  0  0  0  0  0  0  0  0  0  0  0
   19.9906  -19.4016    8.2456 C   0  0  0  0  0  0  0  0  0  0  0  0
   18.8279  -19.4876    7.3710 C   0  0  0  0  0  0  0  0  0  0  0  0
   18.7214  -20.8189    6.6943 C   0  0  2  0  0  0  0  0  0  0  0  0
   17.4988  -20.7703    5.8787 N   0  0  0  0  0  0  0  0  0  0  0  0
   18.6467  -21.8881    7.6994 C   0  0  0  0  0  0  0  0  0  0  0  0
   17.5472  -22.3877    8.1088 O   0  0  0  0  0  0  0  0  0  0  0  0
   19.8204  -19.6257    9.6120 C   0  0  0  0  0  0  0  0  0  0  0  0
   20.8850  -19.5504   10.4691 C   0  0  0  0  0  0  0  0  0  0  0  0
   19.8005  -22.4017    8.2458 O   0  0  0  0  0  0  0  0  0  0  0  0
  2  1  1  1
  3  2  1  0
  4  3  1  0
  4  5  2  0
  6  5  1  0
  7  6  2  0
  8  9  2  0
  8  7  1  0
  9  4  1  0
 10  2  1  0
 10 17  1  0
 11 10  2  0
 13 12  1  0
 13 14  1  0
 14 15  1  1
 16 14  1  0
 16 17  1  6
 18 16  1  0
 19 18  2  0
 20 21  1  0
 21 22  2  0
 21 31  1  0
 22 23  1  0
 23 24  2  0
 24 25  1  0
 26 25  1  1
 26 28  1  0
 26 27  1  0
 27 18  1  0
 28 32  1  0
 29 28  2  0
 30 24  1  0
 31 30  2  0
M  END
$$$$
