FIY.pdb
     RDKit          3D

 32 33  0  0  1  0  0  0  0  0999 V2000
   24.3134   -7.6115  -19.5232 N   0  0  0  0  0  0  0  0  0  0  0  0
   23.1067   -6.8266  -19.3667 C   0  0  1  0  0  0  0  0  0  0  0  0
   22.3025   -6.9882  -20.6366 C   0  0  0  0  0  0  0  0  0  0  0  0
   22.9372   -6.1702  -21.7016 C   0  0  0  0  0  0  0  0  0  0  0  0
   23.4136   -6.7379  -22.8770 C   0  0  0  0  0  0  0  0  0  0  0  0
   23.9984   -5.9489  -23.8470 C   0  0  0  0  0  0  0  0  0  0  0  0
   24.1305   -4.5821  -23.6882 C   0  0  0  0  0  0  0  0  0  0  0  0
   23.6592   -4.0129  -22.5230 C   0  0  0  0  0  0  0  0  0  0  0  0
   23.0773   -4.8053  -21.5600 C   0  0  0  0  0  0  0  0  0  0  0  0
   22.3819   -7.2579  -18.1690 C   0  0  0  0  0  0  0  0  0  0  0  0
   22.4293   -8.4895  -17.8496 O   0  0  0  0  0  0  0  0  0  0  0  0
   22.9830   -4.6001  -13.7518 C   0  0  0  0  0  0  0  0  0  0  0  0
   22.7278   -5.7161  -14.7425 C   0  0  0  0  0  0  0  0  0  0  0  0
   21.2325   -5.8489  -15.0150 C   0  0  2  0  0  0  0  0  0  0  0  0
   20.5224   -6.2223  -13.7401 C   0  0  0  0  0  0  0  0  0  0  0  0
   20.9700   -6.8848  -16.0843 C   0  0  2  0  0  0  0  0  0  0  0  0
   21.6297   -6.4233  -17.3307 N   0  0  0  0  0  0  0  0  0  0  0  0
   19.5139   -6.9633  -16.3267 C   0  0  0  0  0  0  0  0  0  0  0  0
   18.8801   -5.8839  -16.6317 O   0  0  0  0  0  0  0  0  0  0  0  0
   17.4630  -14.1447  -14.8736 O   0  0  0  0  0  0  0  0  0  0  0  0
   17.3221  -12.9189  -15.5059 C   0  0  0  0  0  0  0  0  0  0  0  0
   18.4003  -12.4146  -16.1897 C   0  0  0  0  0  0  0  0  0  0  0  0
   18.2963  -11.1974  -16.8309 C   0  0  0  0  0  0  0  0  0  0  0  0
   17.1098  -10.4956  -16.7803 C   0  0  0  0  0  0  0  0  0  0  0  0
   16.9526   -9.2042  -17.4373 C   0  0  0  0  0  0  0  0  0  0  0  0
   17.2622   -8.0589  -16.5238 C   0  0  2  0  0  0  0  0  0  0  0  0
   18.7092   -8.1149  -16.2681 N   0  0  0  0  0  0  0  0  0  0  0  0
   16.4972   -8.1914  -15.2763 C   0  0  0  0  0  0  0  0  0  0  0  0
   17.0028   -8.6235  -14.1883 O   0  0  0  0  0  0  0  0  0  0  0  0
   16.0273  -11.0279  -16.0794 C   0  0  0  0  0  0  0  0  0  0  0  0
   16.1336  -12.2358  -15.4443 C   0  0  0  0  0  0  0  0  0  0  0  0
   15.1676   -7.8384  -15.2428 O   0  0  0  0  0  0  0  0  0  0  0  0
  2  1  1  6
  3  2  1  0
  4  3  1  0
  4  5  2  0
  6  5  1  0
  7  6  2  0
  8  9  2  0
  8  7  1  0
  9  4  1  0
 10  2  1  0
 10 17  1  0
 11 10  2  0
 13 12  1  0
 13 14  1  0
 14 15  1  1
 16 14  1  0
 16 17  1  6
 18 16  1  0
 19 18  2  0
 20 21  1  0
 21 22  2  0
 21 31  1  0
 22 23  1  0
 23 24  2  0
 24 25  1  0
 26 25  1  6
 26 28  1  0
 26 27  1  0
 27 18  1  0
 28 32  1  0
 29 28  2  0
 30 24  1  0
 31 30  2  0
M  END
$$$$
