FIY.pdb
     RDKit          3D

 32 33  0  0  1  0  0  0  0  0999 V2000
   22.6920  -35.0491  -13.7114 N   0  0  0  0  0  0  0  0  0  0  0  0
   23.8395  -34.6972  -12.9014 C   0  0  1  0  0  0  0  0  0  0  0  0
   23.8919  -33.1877  -12.8354 C   0  0  0  0  0  0  0  0  0  0  0  0
   24.9060  -32.7969  -11.8229 C   0  0  0  0  0  0  0  0  0  0  0  0
   24.5565  -32.4981  -10.5117 C   0  0  0  0  0  0  0  0  0  0  0  0
   25.5241  -32.1382   -9.5953 C   0  0  0  0  0  0  0  0  0  0  0  0
   26.8599  -32.0625   -9.9426 C   0  0  0  0  0  0  0  0  0  0  0  0
   27.2129  -32.3582  -11.2433 C   0  0  0  0  0  0  0  0  0  0  0  0
   26.2432  -32.7162  -12.1518 C   0  0  0  0  0  0  0  0  0  0  0  0
   23.7323  -35.3263  -11.5829 C   0  0  0  0  0  0  0  0  0  0  0  0
   22.5848  -35.3769  -11.0333 O   0  0  0  0  0  0  0  0  0  0  0  0
   24.9098  -40.2576  -10.2755 C   0  0  0  0  0  0  0  0  0  0  0  0
   24.2880  -38.8782  -10.2216 C   0  0  0  0  0  0  0  0  0  0  0  0
   25.2562  -37.8870   -9.5830 C   0  0  2  0  0  0  0  0  0  0  0  0
   25.6186  -38.3612   -8.1999 C   0  0  0  0  0  0  0  0  0  0  0  0
   24.6480  -36.5043   -9.5208 C   0  0  2  0  0  0  0  0  0  0  0  0
   24.7959  -35.8859  -10.8614 N   0  0  0  0  0  0  0  0  0  0  0  0
   25.4051  -35.6925   -8.5445 C   0  0  0  0  0  0  0  0  0  0  0  0
   26.6479  -35.4467   -8.7785 O   0  0  0  0  0  0  0  0  0  0  0  0
   20.0424  -33.9811   -3.8411 O   0  0  0  0  0  0  0  0  0  0  0  0
   21.2881  -33.7526   -4.4052 C   0  0  0  0  0  0  0  0  0  0  0  0
   21.4204  -33.8957   -5.7639 C   0  0  0  0  0  0  0  0  0  0  0  0
   22.6454  -33.6763   -6.3597 C   0  0  0  0  0  0  0  0  0  0  0  0
   23.7286  -33.3150   -5.5858 C   0  0  0  0  0  0  0  0  0  0  0  0
   25.0434  -33.0772   -6.1680 C   0  0  0  0  0  0  0  0  0  0  0  0
   25.7781  -34.3500   -6.4546 C   0  0  2  0  0  0  0  0  0  0  0  0
   24.9145  -35.1315   -7.3522 N   0  0  0  0  0  0  0  0  0  0  0  0
   26.0350  -35.0739   -5.2020 C   0  0  0  0  0  0  0  0  0  0  0  0
   25.4822  -36.1855   -4.9105 O   0  0  0  0  0  0  0  0  0  0  0  0
   23.5703  -33.1755   -4.2067 C   0  0  0  0  0  0  0  0  0  0  0  0
   22.3537  -33.3937   -3.6187 C   0  0  0  0  0  0  0  0  0  0  0  0
   26.9118  -34.5578   -4.2755 O   0  0  0  0  0  0  0  0  0  0  0  0
  2  1  1  6
  3  2  1  0
  4  3  1  0
  4  5  2  0
  6  5  1  0
  7  6  2  0
  8  9  2  0
  8  7  1  0
  9  4  1  0
 10  2  1  0
 10 17  1  0
 11 10  2  0
 13 12  1  0
 13 14  1  0
 14 15  1  1
 16 14  1  0
 16 17  1  6
 18 16  1  0
 19 18  2  0
 20 21  1  0
 21 22  2  0
 21 31  1  0
 22 23  1  0
 23 24  2  0
 24 25  1  0
 26 25  1  1
 26 28  1  0
 26 27  1  0
 27 18  1  0
 28 32  1  0
 29 28  2  0
 30 24  1  0
 31 30  2  0
M  END
$$$$
