FIY.pdb
     RDKit          3D

 32 33  0  0  1  0  0  0  0  0999 V2000
   22.2688  -20.1850  -16.5711 N   0  0  0  0  0  0  0  0  0  0  0  0
   23.0287  -19.6176  -15.4769 C   0  0  1  0  0  0  0  0  0  0  0  0
   22.2025  -19.7928  -14.2229 C   0  0  0  0  0  0  0  0  0  0  0  0
   20.9485  -19.0112  -14.3738 C   0  0  0  0  0  0  0  0  0  0  0  0
   20.9536  -17.6239  -14.4535 C   0  0  0  0  0  0  0  0  0  0  0  0
   19.7700  -16.9277  -14.5935 C   0  0  0  0  0  0  0  0  0  0  0  0
   18.5506  -17.5755  -14.6590 C   0  0  0  0  0  0  0  0  0  0  0  0
   18.5394  -18.9530  -14.5805 C   0  0  0  0  0  0  0  0  0  0  0  0
   19.7231  -19.6409  -14.4409 C   0  0  0  0  0  0  0  0  0  0  0  0
   24.3420  -20.2611  -15.3940 C   0  0  0  0  0  0  0  0  0  0  0  0
   24.4046  -21.5217  -15.5622 O   0  0  0  0  0  0  0  0  0  0  0  0
   29.1258  -17.6010  -16.3620 C   0  0  0  0  0  0  0  0  0  0  0  0
   28.0792  -18.6949  -16.3469 C   0  0  0  0  0  0  0  0  0  0  0  0
   27.9421  -19.2753  -14.9426 C   0  0  2  0  0  0  0  0  0  0  0  0
   29.2514  -19.8926  -14.5257 C   0  0  0  0  0  0  0  0  0  0  0  0
   26.8368  -20.3055  -14.8914 C   0  0  2  0  0  0  0  0  0  0  0  0
   25.5540  -19.6032  -15.1423 N   0  0  0  0  0  0  0  0  0  0  0  0
   26.7921  -20.8918  -13.5351 C   0  0  0  0  0  0  0  0  0  0  0  0
   27.7548  -21.6636  -13.1645 O   0  0  0  0  0  0  0  0  0  0  0  0
   28.2662  -20.2214   -5.2700 O   0  0  0  0  0  0  0  0  0  0  0  0
   27.9955  -20.1696   -6.6288 C   0  0  0  0  0  0  0  0  0  0  0  0
   26.9879  -19.3420   -7.0579 C   0  0  0  0  0  0  0  0  0  0  0  0
   26.6907  -19.2651   -8.4030 C   0  0  0  0  0  0  0  0  0  0  0  0
   27.4081  -20.0205   -9.3073 C   0  0  0  0  0  0  0  0  0  0  0  0
   27.1284  -19.9772  -10.7370 C   0  0  0  0  0  0  0  0  0  0  0  0
   26.0499  -20.9362  -11.1358 C   0  0  2  0  0  0  0  0  0  0  0  0
   25.7938  -20.6980  -12.5640 N   0  0  0  0  0  0  0  0  0  0  0  0
   24.8430  -20.6960  -10.3328 C   0  0  0  0  0  0  0  0  0  0  0  0
   23.9513  -19.8409  -10.6488 O   0  0  0  0  0  0  0  0  0  0  0  0
   28.4278  -20.8545   -8.8480 C   0  0  0  0  0  0  0  0  0  0  0  0
   28.7203  -20.9285   -7.5129 C   0  0  0  0  0  0  0  0  0  0  0  0
   24.6302  -21.4131   -9.1778 O   0  0  0  0  0  0  0  0  0  0  0  0
  2  1  1  6
  3  2  1  0
  4  3  1  0
  4  5  2  0
  6  5  1  0
  7  6  2  0
  8  9  2  0
  8  7  1  0
  9  4  1  0
 10  2  1  0
 10 17  1  0
 11 10  2  0
 13 12  1  0
 13 14  1  0
 14 15  1  6
 16 14  1  0
 16 17  1  1
 18 16  1  0
 19 18  2  0
 20 21  1  0
 21 22  2  0
 21 31  1  0
 22 23  1  0
 23 24  2  0
 24 25  1  0
 26 25  1  1
 26 28  1  0
 26 27  1  0
 27 18  1  0
 28 32  1  0
 29 28  2  0
 30 24  1  0
 31 30  2  0
M  END
$$$$
