FIY.pdb
     RDKit          3D

 32 33  0  0  1  0  0  0  0  0999 V2000
   27.6373  -20.5606  -17.4804 N   0  0  0  0  0  0  0  0  0  0  0  0
   26.8114  -19.7369  -16.6224 C   0  0  1  0  0  0  0  0  0  0  0  0
   25.8677  -18.9671  -17.5182 C   0  0  0  0  0  0  0  0  0  0  0  0
   26.6433  -17.9145  -18.2231 C   0  0  0  0  0  0  0  0  0  0  0  0
   26.7426  -17.8801  -19.6086 C   0  0  0  0  0  0  0  0  0  0  0  0
   27.4716  -16.8877  -20.2325 C   0  0  0  0  0  0  0  0  0  0  0  0
   28.1220  -15.9034  -19.5121 C   0  0  0  0  0  0  0  0  0  0  0  0
   28.0268  -15.9326  -18.1359 C   0  0  0  0  0  0  0  0  0  0  0  0
   27.2984  -16.9247  -17.5204 C   0  0  0  0  0  0  0  0  0  0  0  0
   26.1171  -20.5755  -15.6424 C   0  0  0  0  0  0  0  0  0  0  0  0
   25.5807  -21.6561  -16.0497 O   0  0  0  0  0  0  0  0  0  0  0  0
   25.4041  -21.1927   -9.4831 C   0  0  0  0  0  0  0  0  0  0  0  0
   24.9171  -21.5509  -10.8712 C   0  0  0  0  0  0  0  0  0  0  0  0
   25.7037  -20.7752  -11.9234 C   0  0  2  0  0  0  0  0  0  0  0  0
   25.5136  -19.2974  -11.7023 C   0  0  0  0  0  0  0  0  0  0  0  0
   25.2610  -21.1582  -13.3173 C   0  0  2  0  0  0  0  0  0  0  0  0
   25.9887  -20.2904  -14.2759 N   0  0  0  0  0  0  0  0  0  0  0  0
   23.8131  -20.8906  -13.4495 C   0  0  0  0  0  0  0  0  0  0  0  0
   23.3973  -19.6764  -13.3374 O   0  0  0  0  0  0  0  0  0  0  0  0
   15.1193  -21.7306  -14.5121 O   0  0  0  0  0  0  0  0  0  0  0  0
   16.4869  -21.9511  -14.4534 C   0  0  0  0  0  0  0  0  0  0  0  0
   17.2767  -21.3864  -15.4238 C   0  0  0  0  0  0  0  0  0  0  0  0
   18.6418  -21.5846  -15.3970 C   0  0  0  0  0  0  0  0  0  0  0  0
   19.2035  -22.3489  -14.3954 C   0  0  0  0  0  0  0  0  0  0  0  0
   20.6391  -22.5909  -14.3273 C   0  0  0  0  0  0  0  0  0  0  0  0
   21.3776  -21.4589  -13.6831 C   0  0  2  0  0  0  0  0  0  0  0  0
   22.7996  -21.8332  -13.6970 N   0  0  0  0  0  0  0  0  0  0  0  0
   20.8941  -21.2616  -12.3096 C   0  0  0  0  0  0  0  0  0  0  0  0
   21.2019  -22.0332  -11.3421 O   0  0  0  0  0  0  0  0  0  0  0  0
   18.3810  -22.9128  -13.4198 C   0  0  0  0  0  0  0  0  0  0  0  0
   17.0270  -22.7143  -13.4491 C   0  0  0  0  0  0  0  0  0  0  0  0
   20.0687  -20.2006  -12.0157 O   0  0  0  0  0  0  0  0  0  0  0  0
  2  1  1  6
  3  2  1  0
  4  3  1  0
  4  5  2  0
  6  5  1  0
  7  6  2  0
  8  9  2  0
  8  7  1  0
  9  4  1  0
 10  2  1  0
 10 17  1  0
 11 10  2  0
 13 12  1  0
 13 14  1  0
 14 15  1  1
 16 14  1  0
 16 17  1  6
 18 16  1  0
 19 18  2  0
 20 21  1  0
 21 22  2  0
 21 31  1  0
 22 23  1  0
 23 24  2  0
 24 25  1  0
 26 25  1  1
 26 28  1  0
 26 27  1  0
 27 18  1  0
 28 32  1  0
 29 28  2  0
 30 24  1  0
 31 30  2  0
M  END
$$$$
