FIY.pdb
     RDKit          3D

 32 33  0  0  1  0  0  0  0  0999 V2000
   26.2975  -17.8274  -17.0904 N   0  0  0  0  0  0  0  0  0  0  0  0
   26.8637  -18.1218  -15.7906 C   0  0  1  0  0  0  0  0  0  0  0  0
   27.5317  -16.8577  -15.2992 C   0  0  0  0  0  0  0  0  0  0  0  0
   28.7066  -16.5806  -16.1648 C   0  0  0  0  0  0  0  0  0  0  0  0
   28.8026  -15.4194  -16.9218 C   0  0  0  0  0  0  0  0  0  0  0  0
   29.9085  -15.1926  -17.7161 C   0  0  0  0  0  0  0  0  0  0  0  0
   30.9488  -16.1000  -17.7877 C   0  0  0  0  0  0  0  0  0  0  0  0
   30.8589  -17.2550  -17.0381 C   0  0  0  0  0  0  0  0  0  0  0  0
   29.7535  -17.4748  -16.2484 C   0  0  0  0  0  0  0  0  0  0  0  0
   25.8169  -18.6064  -14.8877 C   0  0  0  0  0  0  0  0  0  0  0  0
   24.7175  -17.9656  -14.8444 O   0  0  0  0  0  0  0  0  0  0  0  0
   22.5346  -23.2856  -14.0654 C   0  0  0  0  0  0  0  0  0  0  0  0
   23.0584  -22.0904  -13.2977 C   0  0  0  0  0  0  0  0  0  0  0  0
   24.2922  -21.5180  -13.9889 C   0  0  2  0  0  0  0  0  0  0  0  0
   25.3743  -22.5651  -14.0297 C   0  0  0  0  0  0  0  0  0  0  0  0
   24.7856  -20.2815  -13.2725 C   0  0  2  0  0  0  0  0  0  0  0  0
   25.9191  -19.7294  -14.0548 N   0  0  0  0  0  0  0  0  0  0  0  0
   25.2844  -20.6702  -11.9363 C   0  0  0  0  0  0  0  0  0  0  0  0
   26.0814  -21.6782  -11.8444 O   0  0  0  0  0  0  0  0  0  0  0  0
   30.8423  -19.8375   -6.7699 O   0  0  0  0  0  0  0  0  0  0  0  0
   29.5159  -19.7894   -7.1709 C   0  0  0  0  0  0  0  0  0  0  0  0
   29.0425  -20.8022   -7.9673 C   0  0  0  0  0  0  0  0  0  0  0  0
   27.7277  -20.7872   -8.3855 C   0  0  0  0  0  0  0  0  0  0  0  0
   26.8983  -19.7544   -8.0004 C   0  0  0  0  0  0  0  0  0  0  0  0
   25.5040  -19.6917   -8.4203 C   0  0  0  0  0  0  0  0  0  0  0  0
   25.1648  -20.7455   -9.4284 C   0  0  2  0  0  0  0  0  0  0  0  0
   24.9884  -20.0477  -10.7107 N   0  0  0  0  0  0  0  0  0  0  0  0
   23.9346  -21.4433   -9.0302 C   0  0  0  0  0  0  0  0  0  0  0  0
   23.8869  -22.2868   -8.0749 O   0  0  0  0  0  0  0  0  0  0  0  0
   27.4015  -18.7359   -7.1906 C   0  0  0  0  0  0  0  0  0  0  0  0
   28.7063  -18.7538   -6.7773 C   0  0  0  0  0  0  0  0  0  0  0  0
   22.7564  -21.1972   -9.6971 O   0  0  0  0  0  0  0  0  0  0  0  0
  2  1  1  6
  3  2  1  0
  4  3  1  0
  4  5  2  0
  6  5  1  0
  7  6  2  0
  8  9  2  0
  8  7  1  0
  9  4  1  0
 10  2  1  0
 10 17  1  0
 11 10  2  0
 13 12  1  0
 13 14  1  0
 14 15  1  1
 16 14  1  0
 16 17  1  6
 18 16  1  0
 19 18  2  0
 20 21  1  0
 21 22  2  0
 21 31  1  0
 22 23  1  0
 23 24  2  0
 24 25  1  0
 26 25  1  1
 26 28  1  0
 26 27  1  0
 27 18  1  0
 28 32  1  0
 29 28  2  0
 30 24  1  0
 31 30  2  0
M  END
$$$$
