FIY.pdb
     RDKit          3D

 32 33  0  0  1  0  0  0  0  0999 V2000
   26.1054  -20.8997  -18.3195 N   0  0  0  0  0  0  0  0  0  0  0  0
   25.2610  -20.2957  -17.3100 C   0  0  1  0  0  0  0  0  0  0  0  0
   23.8682  -20.2045  -17.8908 C   0  0  0  0  0  0  0  0  0  0  0  0
   23.8908  -19.2338  -19.0148 C   0  0  0  0  0  0  0  0  0  0  0  0
   24.0573  -17.8705  -18.8037 C   0  0  0  0  0  0  0  0  0  0  0  0
   24.0736  -16.9951  -19.8708 C   0  0  0  0  0  0  0  0  0  0  0  0
   23.9269  -17.4355  -21.1729 C   0  0  0  0  0  0  0  0  0  0  0  0
   23.7612  -18.7882  -21.3885 C   0  0  0  0  0  0  0  0  0  0  0  0
   23.7458  -19.6554  -20.3201 C   0  0  0  0  0  0  0  0  0  0  0  0
   25.3181  -21.0818  -16.0753 C   0  0  0  0  0  0  0  0  0  0  0  0
   25.2505  -22.3499  -16.1672 O   0  0  0  0  0  0  0  0  0  0  0  0
   28.7591  -19.7651  -12.2649 C   0  0  0  0  0  0  0  0  0  0  0  0
   27.8557  -20.5318  -13.2074 C   0  0  0  0  0  0  0  0  0  0  0  0
   26.4671  -20.6907  -12.5956 C   0  0  2  0  0  0  0  0  0  0  0  0
   26.5720  -21.4709  -11.3112 C   0  0  0  0  0  0  0  0  0  0  0  0
   25.5315  -21.3873  -13.5574 C   0  0  2  0  0  0  0  0  0  0  0  0
   25.4423  -20.5546  -14.7823 N   0  0  0  0  0  0  0  0  0  0  0  0
   24.1881  -21.4654  -12.9455 C   0  0  0  0  0  0  0  0  0  0  0  0
   24.0094  -22.2620  -11.9489 O   0  0  0  0  0  0  0  0  0  0  0  0
   15.9941  -19.6447  -10.3865 O   0  0  0  0  0  0  0  0  0  0  0  0
   17.2652  -19.6172  -10.9396 C   0  0  0  0  0  0  0  0  0  0  0  0
   17.4082  -19.9870  -12.2538 C   0  0  0  0  0  0  0  0  0  0  0  0
   18.6584  -19.9718  -12.8374 C   0  0  0  0  0  0  0  0  0  0  0  0
   19.7557  -19.5853  -12.0962 C   0  0  0  0  0  0  0  0  0  0  0  0
   21.0966  -19.5575  -12.6665 C   0  0  0  0  0  0  0  0  0  0  0  0
   21.7629  -20.8976  -12.6208 C   0  0  2  0  0  0  0  0  0  0  0  0
   23.0425  -20.7463  -13.3295 N   0  0  0  0  0  0  0  0  0  0  0  0
   20.9118  -21.9035  -13.2710 C   0  0  0  0  0  0  0  0  0  0  0  0
   20.9244  -22.1241  -14.5269 O   0  0  0  0  0  0  0  0  0  0  0  0
   19.5861  -19.2135  -10.7623 C   0  0  0  0  0  0  0  0  0  0  0  0
   18.3445  -19.2296  -10.1862 C   0  0  0  0  0  0  0  0  0  0  0  0
   20.0481  -22.6655  -12.5180 O   0  0  0  0  0  0  0  0  0  0  0  0
  2  1  1  6
  3  2  1  0
  4  3  1  0
  4  5  2  0
  6  5  1  0
  7  6  2  0
  8  9  2  0
  8  7  1  0
  9  4  1  0
 10  2  1  0
 10 17  1  0
 11 10  2  0
 13 12  1  0
 13 14  1  0
 14 15  1  1
 16 14  1  0
 16 17  1  6
 18 16  1  0
 19 18  2  0
 20 21  1  0
 21 22  2  0
 21 31  1  0
 22 23  1  0
 23 24  2  0
 24 25  1  0
 26 25  1  6
 26 28  1  0
 26 27  1  0
 27 18  1  0
 28 32  1  0
 29 28  2  0
 30 24  1  0
 31 30  2  0
M  END
$$$$
