FIY.pdb
     RDKit          3D

 32 33  0  0  1  0  0  0  0  0999 V2000
   24.4988  -20.0547  -19.2460 N   0  0  0  0  0  0  0  0  0  0  0  0
   24.4803  -19.1872  -18.0867 C   0  0  1  0  0  0  0  0  0  0  0  0
   23.0539  -18.7216  -17.9016 C   0  0  0  0  0  0  0  0  0  0  0  0
   22.7190  -17.7848  -19.0045 C   0  0  0  0  0  0  0  0  0  0  0  0
   21.7836  -18.1051  -19.9808 C   0  0  0  0  0  0  0  0  0  0  0  0
   21.4954  -17.2114  -20.9926 C   0  0  0  0  0  0  0  0  0  0  0  0
   22.1183  -15.9799  -21.0720 C   0  0  0  0  0  0  0  0  0  0  0  0
   23.0481  -15.6563  -20.1052 C   0  0  0  0  0  0  0  0  0  0  0  0
   23.3306  -16.5520  -19.0994 C   0  0  0  0  0  0  0  0  0  0  0  0
   25.0076  -19.9000  -16.9208 C   0  0  0  0  0  0  0  0  0  0  0  0
   24.5998  -21.0873  -16.7079 O   0  0  0  0  0  0  0  0  0  0  0  0
   28.8659  -21.3680  -15.4740 C   0  0  0  0  0  0  0  0  0  0  0  0
   28.7817  -19.8653  -15.3098 C   0  0  0  0  0  0  0  0  0  0  0  0
   27.6728  -19.5027  -14.3267 C   0  0  2  0  0  0  0  0  0  0  0  0
   28.0363  -20.0056  -12.9540 C   0  0  0  0  0  0  0  0  0  0  0  0
   26.3504  -20.0885  -14.7667 C   0  0  2  0  0  0  0  0  0  0  0  0
   25.9349  -19.3841  -16.0048 N   0  0  0  0  0  0  0  0  0  0  0  0
   25.3403  -19.8291  -13.7190 C   0  0  0  0  0  0  0  0  0  0  0  0
   25.0909  -18.6084  -13.3911 O   0  0  0  0  0  0  0  0  0  0  0  0
   18.5135  -19.4190   -8.4627 O   0  0  0  0  0  0  0  0  0  0  0  0
   19.4631  -19.7873   -9.4034 C   0  0  0  0  0  0  0  0  0  0  0  0
   20.1346  -20.9700   -9.2178 C   0  0  0  0  0  0  0  0  0  0  0  0
   21.0865  -21.3683  -10.1338 C   0  0  0  0  0  0  0  0  0  0  0  0
   21.3567  -20.5751  -11.2296 C   0  0  0  0  0  0  0  0  0  0  0  0
   22.3563  -20.9505  -12.2216 C   0  0  0  0  0  0  0  0  0  0  0  0
   23.7139  -20.4102  -11.8951 C   0  0  2  0  0  0  0  0  0  0  0  0
   24.5881  -20.7867  -13.0159 N   0  0  0  0  0  0  0  0  0  0  0  0
   24.1928  -20.9870  -10.6314 C   0  0  0  0  0  0  0  0  0  0  0  0
   24.7840  -22.1145  -10.5568 O   0  0  0  0  0  0  0  0  0  0  0  0
   20.6616  -19.3772  -11.3975 C   0  0  0  0  0  0  0  0  0  0  0  0
   19.7178  -18.9849  -10.4871 C   0  0  0  0  0  0  0  0  0  0  0  0
   24.0140  -20.3034   -9.4507 O   0  0  0  0  0  0  0  0  0  0  0  0
  2  1  1  6
  3  2  1  0
  4  3  1  0
  4  5  2  0
  6  5  1  0
  7  6  2  0
  8  9  2  0
  8  7  1  0
  9  4  1  0
 10  2  1  0
 10 17  1  0
 11 10  2  0
 13 12  1  0
 13 14  1  0
 14 15  1  1
 16 14  1  0
 16 17  1  6
 18 16  1  0
 19 18  2  0
 20 21  1  0
 21 22  2  0
 21 31  1  0
 22 23  1  0
 23 24  2  0
 24 25  1  0
 26 25  1  6
 26 28  1  0
 26 27  1  0
 27 18  1  0
 28 32  1  0
 29 28  2  0
 30 24  1  0
 31 30  2  0
M  END
$$$$
