FIY.pdb
     RDKit          3D

 32 33  0  0  1  0  0  0  0  0999 V2000
   25.7970  -18.9662  -18.3516 N   0  0  0  0  0  0  0  0  0  0  0  0
   24.3929  -19.3200  -18.3487 C   0  0  1  0  0  0  0  0  0  0  0  0
   24.2992  -20.7739  -18.7526 C   0  0  0  0  0  0  0  0  0  0  0  0
   24.2492  -20.8469  -20.2353 C   0  0  0  0  0  0  0  0  0  0  0  0
   23.0461  -20.8347  -20.9304 C   0  0  0  0  0  0  0  0  0  0  0  0
   23.0348  -20.9040  -22.3090 C   0  0  0  0  0  0  0  0  0  0  0  0
   24.2045  -20.9871  -23.0409 C   0  0  0  0  0  0  0  0  0  0  0  0
   25.4023  -20.9996  -22.3560 C   0  0  0  0  0  0  0  0  0  0  0  0
   25.4063  -20.9303  -20.9816 C   0  0  0  0  0  0  0  0  0  0  0  0
   23.8126  -19.0516  -17.0307 C   0  0  0  0  0  0  0  0  0  0  0  0
   24.6031  -18.9332  -16.0395 O   0  0  0  0  0  0  0  0  0  0  0  0
   20.7666  -14.9996  -16.5233 C   0  0  0  0  0  0  0  0  0  0  0  0
   21.7297  -16.1191  -16.1893 C   0  0  0  0  0  0  0  0  0  0  0  0
   20.9673  -17.3350  -15.6716 C   0  0  2  0  0  0  0  0  0  0  0  0
   20.2570  -16.9738  -14.3932 C   0  0  0  0  0  0  0  0  0  0  0  0
   21.9035  -18.4993  -15.4405 C   0  0  2  0  0  0  0  0  0  0  0  0
   22.4445  -18.9114  -16.7593 N   0  0  0  0  0  0  0  0  0  0  0  0
   21.1329  -19.6280  -14.8772 C   0  0  0  0  0  0  0  0  0  0  0  0
   20.1909  -20.1470  -15.5865 O   0  0  0  0  0  0  0  0  0  0  0  0
   18.2654  -26.2075   -9.7897 O   0  0  0  0  0  0  0  0  0  0  0  0
   18.9718  -25.1399  -10.3222 C   0  0  0  0  0  0  0  0  0  0  0  0
   19.6035  -25.3176  -11.5279 C   0  0  0  0  0  0  0  0  0  0  0  0
   20.3157  -24.2771  -12.0880 C   0  0  0  0  0  0  0  0  0  0  0  0
   20.3882  -23.0656  -11.4323 C   0  0  0  0  0  0  0  0  0  0  0  0
   21.1320  -21.9387  -11.9809 C   0  0  0  0  0  0  0  0  0  0  0  0
   20.4337  -21.3081  -13.1457 C   0  0  2  0  0  0  0  0  0  0  0  0
   21.3132  -20.2287  -13.6187 N   0  0  0  0  0  0  0  0  0  0  0  0
   19.1282  -20.7825  -12.7234 C   0  0  0  0  0  0  0  0  0  0  0  0
   18.9907  -19.7038  -12.0573 O   0  0  0  0  0  0  0  0  0  0  0  0
   19.7381  -22.9082  -10.2080 C   0  0  0  0  0  0  0  0  0  0  0  0
   19.0322  -23.9424   -9.6551 C   0  0  0  0  0  0  0  0  0  0  0  0
   17.9753  -21.4602  -13.0475 O   0  0  0  0  0  0  0  0  0  0  0  0
  2  1  1  1
  3  2  1  0
  4  3  1  0
  4  5  2  0
  6  5  1  0
  7  6  2  0
  8  9  2  0
  8  7  1  0
  9  4  1  0
 10  2  1  0
 10 17  1  0
 11 10  2  0
 13 12  1  0
 13 14  1  0
 14 15  1  1
 16 14  1  0
 16 17  1  6
 18 16  1  0
 19 18  2  0
 20 21  1  0
 21 22  2  0
 21 31  1  0
 22 23  1  0
 23 24  2  0
 24 25  1  0
 26 25  1  1
 26 28  1  0
 26 27  1  0
 27 18  1  0
 28 32  1  0
 29 28  2  0
 30 24  1  0
 31 30  2  0
M  END
$$$$
