SPM.pdb
     RDKit          3D

 22 22  0  0  1  0  0  0  0  0999 V2000
    5.8429  -17.6232   20.8957 O   0  0  0  0  0  0  0  0  0  0  0  0
    6.6871  -18.3949   20.0849 C   0  0  0  0  0  0  0  0  0  0  0  0
    7.5396  -17.4585   19.2155 C   0  0  2  0  0  0  0  0  0  0  0  0
    8.4912  -18.3518   18.5383 N   0  0  0  0  0  0  0  0  0  0  0  0
    8.2830  -16.4828   20.0233 C   0  0  0  0  0  0  0  0  0  0  0  0
    9.2157  -16.9177   20.7731 O   0  0  0  0  0  0  0  0  0  0  0  0
    8.0362  -15.0811   20.0283 N   0  0  0  0  0  0  0  0  0  0  0  0
    7.0753  -14.4542   19.1283 C   0  0  0  0  0  0  0  0  0  0  0  0
    7.5858  -13.0315   18.9677 C   0  0  0  0  0  0  0  0  0  0  0  0
    8.3294  -12.7605   20.2694 C   0  0  0  0  0  0  0  0  0  0  0  0
    8.6512  -14.0958   20.8645 C   0  0  1  0  0  0  0  0  0  0  0  0
    8.1347  -14.1386   22.2631 C   0  0  0  0  0  0  0  0  0  0  0  0
    6.9512  -13.8919   22.5324 O   0  0  0  0  0  0  0  0  0  0  0  0
    6.9076  -11.8838   27.8153 C   0  0  0  0  0  0  0  0  0  0  0  0
    6.0652  -12.8019   26.5291 S   0  0  0  0  0  0  0  0  0  0  0  0
    6.7351  -14.4664   26.2836 C   0  0  0  0  0  0  0  0  0  0  0  0
    7.1919  -14.6031   24.8481 C   0  0  0  0  0  0  0  0  0  0  0  0
    8.6913  -14.4197   24.7201 C   0  0  2  0  0  0  0  0  0  0  0  0
    9.0182  -14.4710   23.3229 N   0  0  0  0  0  0  0  0  0  0  0  0
    9.4567  -15.3588   25.5403 C   0  0  0  0  0  0  0  0  0  0  0  0
    9.4999  -15.2010   26.7983 O   0  0  0  0  0  0  0  0  0  0  0  0
   10.1600  -16.4386   25.0366 O   0  0  0  0  0  0  0  0  0  0  0  0
  1  2  1  0
  3  2  1  0
  3  5  1  0
  3  4  1  1
  5  6  2  0
  7  5  1  0
  7 11  1  0
  8  7  1  0
  9  8  1  0
  9 10  1  0
 10 11  1  0
 11 12  1  1
 12 19  1  0
 12 13  2  0
 14 15  1  0
 16 15  1  0
 18 17  1  6
 17 16  1  0
 18 20  1  0
 19 18  1  0
 20 22  1  0
 21 20  2  0
M  END
$$$$
