SPM.pdb
     RDKit          3D

 22 22  0  0  1  0  0  0  0  0999 V2000
   10.9052  -16.7830   19.5041 O   0  0  0  0  0  0  0  0  0  0  0  0
   10.5561  -17.9939   18.8898 C   0  0  0  0  0  0  0  0  0  0  0  0
    9.0304  -18.0475   18.7198 C   0  0  2  0  0  0  0  0  0  0  0  0
    8.7562  -17.1539   17.5847 N   0  0  0  0  0  0  0  0  0  0  0  0
    8.3266  -17.5492   19.9087 C   0  0  0  0  0  0  0  0  0  0  0  0
    7.9009  -16.3494   19.8896 O   0  0  0  0  0  0  0  0  0  0  0  0
    8.0841  -18.3133   21.0847 N   0  0  0  0  0  0  0  0  0  0  0  0
    8.5907  -19.6703   21.2525 C   0  0  0  0  0  0  0  0  0  0  0  0
    7.6112  -20.3191   22.2170 C   0  0  0  0  0  0  0  0  0  0  0  0
    7.0788  -19.1515   23.0382 C   0  0  0  0  0  0  0  0  0  0  0  0
    7.3428  -17.9122   22.2413 C   0  0  1  0  0  0  0  0  0  0  0  0
    8.0970  -16.9441   23.0891 C   0  0  0  0  0  0  0  0  0  0  0  0
    9.3349  -16.9290   23.1233 O   0  0  0  0  0  0  0  0  0  0  0  0
    6.5478  -10.4992   27.5309 C   0  0  0  0  0  0  0  0  0  0  0  0
    6.0227  -11.9816   26.6747 S   0  0  0  0  0  0  0  0  0  0  0  0
    7.4033  -13.0195   26.1304 C   0  0  0  0  0  0  0  0  0  0  0  0
    6.8709  -14.1039   25.2202 C   0  0  0  0  0  0  0  0  0  0  0  0
    7.9810  -15.0076   24.7207 C   0  0  2  0  0  0  0  0  0  0  0  0
    7.3832  -16.0090   23.8831 N   0  0  0  0  0  0  0  0  0  0  0  0
    8.8048  -15.5549   25.7989 C   0  0  0  0  0  0  0  0  0  0  0  0
    9.7580  -14.8640   26.2715 O   0  0  0  0  0  0  0  0  0  0  0  0
    8.6212  -16.8058   26.3608 O   0  0  0  0  0  0  0  0  0  0  0  0
  1  2  1  0
  3  2  1  0
  3  5  1  0
  3  4  1  6
  5  6  2  0
  7  5  1  0
  7 11  1  0
  8  7  1  0
  9  8  1  0
  9 10  1  0
 10 11  1  0
 11 12  1  1
 12 19  1  0
 12 13  2  0
 14 15  1  0
 16 15  1  0
 18 17  1  1
 17 16  1  0
 18 20  1  0
 19 18  1  0
 20 22  1  0
 21 20  2  0
M  END
$$$$
