SPM.pdb
     RDKit          3D

 22 22  0  0  1  0  0  0  0  0999 V2000
   11.0523  -13.3018   19.5196 O   0  0  0  0  0  0  0  0  0  0  0  0
   10.6589  -14.1727   18.4937 C   0  0  0  0  0  0  0  0  0  0  0  0
    9.1303  -14.1205   18.3514 C   0  0  2  0  0  0  0  0  0  0  0  0
    8.8411  -12.7192   18.0123 N   0  0  0  0  0  0  0  0  0  0  0  0
    8.4489  -14.4651   19.6060 C   0  0  0  0  0  0  0  0  0  0  0  0
    7.9335  -13.5182   20.2834 O   0  0  0  0  0  0  0  0  0  0  0  0
    8.3219  -15.7858   20.1212 N   0  0  0  0  0  0  0  0  0  0  0  0
    8.9819  -16.9310   19.5056 C   0  0  0  0  0  0  0  0  0  0  0  0
    8.1046  -18.1146   19.8800 C   0  0  0  0  0  0  0  0  0  0  0  0
    7.4636  -17.6929   21.1962 C   0  0  0  0  0  0  0  0  0  0  0  0
    7.5674  -16.2012   21.2643 C   0  0  1  0  0  0  0  0  0  0  0  0
    8.2275  -15.8209   22.5467 C   0  0  0  0  0  0  0  0  0  0  0  0
    9.4543  -15.8955   22.6994 O   0  0  0  0  0  0  0  0  0  0  0  0
    6.3058  -11.1105   28.6420 C   0  0  0  0  0  0  0  0  0  0  0  0
    5.8739  -12.1322   27.2362 S   0  0  0  0  0  0  0  0  0  0  0  0
    7.2541  -13.1371   26.6322 C   0  0  0  0  0  0  0  0  0  0  0  0
    6.8101  -13.8844   25.3943 C   0  0  0  0  0  0  0  0  0  0  0  0
    7.9380  -14.7093   24.8063 C   0  0  2  0  0  0  0  0  0  0  0  0
    7.4342  -15.3586   23.6289 N   0  0  0  0  0  0  0  0  0  0  0  0
    8.5432  -15.6260   25.7728 C   0  0  0  0  0  0  0  0  0  0  0  0
    9.3477  -15.1761   26.6443 O   0  0  0  0  0  0  0  0  0  0  0  0
    8.3005  -16.9875   25.8120 O   0  0  0  0  0  0  0  0  0  0  0  0
  1  2  1  0
  3  2  1  0
  3  5  1  0
  3  4  1  1
  5  6  2  0
  7  5  1  0
  7 11  1  0
  8  7  1  0
  9  8  1  0
  9 10  1  0
 10 11  1  0
 11 12  1  1
 12 19  1  0
 12 13  2  0
 14 15  1  0
 16 15  1  0
 18 17  1  1
 17 16  1  0
 18 20  1  0
 19 18  1  0
 20 22  1  0
 21 20  2  0
M  END
$$$$
