SPM.pdb
     RDKit          3D

 22 22  0  0  1  0  0  0  0  0999 V2000
    5.9418  -18.0351   22.3424 O   0  0  0  0  0  0  0  0  0  0  0  0
    5.5093  -17.4165   21.1609 C   0  0  0  0  0  0  0  0  0  0  0  0
    6.6779  -17.3662   20.1653 C   0  0  2  0  0  0  0  0  0  0  0  0
    7.1844  -18.7461   20.1241 N   0  0  0  0  0  0  0  0  0  0  0  0
    7.7498  -16.4709   20.6200 C   0  0  0  0  0  0  0  0  0  0  0  0
    8.6801  -16.9693   21.3324 O   0  0  0  0  0  0  0  0  0  0  0  0
    7.8250  -15.0816   20.3203 N   0  0  0  0  0  0  0  0  0  0  0  0
    6.7727  -14.3816   19.5931 C   0  0  0  0  0  0  0  0  0  0  0  0
    7.4894  -13.2209   18.9226 C   0  0  0  0  0  0  0  0  0  0  0  0
    8.6715  -12.9406   19.8419 C   0  0  0  0  0  0  0  0  0  0  0  0
    8.8834  -14.1787   20.6561 C   0  0  1  0  0  0  0  0  0  0  0  0
    8.8776  -13.8128   22.1021 C   0  0  0  0  0  0  0  0  0  0  0  0
    8.6086  -12.6667   22.4869 O   0  0  0  0  0  0  0  0  0  0  0  0
    6.0123  -12.2250   28.1895 C   0  0  0  0  0  0  0  0  0  0  0  0
    6.2408  -12.6416   26.4630 S   0  0  0  0  0  0  0  0  0  0  0  0
    7.2789  -14.1042   26.2122 C   0  0  0  0  0  0  0  0  0  0  0  0
    7.5726  -14.2481   24.7354 C   0  0  0  0  0  0  0  0  0  0  0  0
    9.0130  -14.6524   24.4901 C   0  0  2  0  0  0  0  0  0  0  0  0
    9.1879  -14.8008   23.0726 N   0  0  0  0  0  0  0  0  0  0  0  0
    9.4187  -15.8277   25.2611 C   0  0  0  0  0  0  0  0  0  0  0  0
    9.5416  -16.9477   24.6782 O   0  0  0  0  0  0  0  0  0  0  0  0
    9.6866  -15.8140   26.6185 O   0  0  0  0  0  0  0  0  0  0  0  0
  1  2  1  0
  3  2  1  0
  3  5  1  0
  3  4  1  1
  5  6  2  0
  7  5  1  0
  7 11  1  0
  8  7  1  0
  9  8  1  0
  9 10  1  0
 10 11  1  0
 11 12  1  1
 12 19  1  0
 12 13  2  0
 14 15  1  0
 16 15  1  0
 18 17  1  6
 17 16  1  0
 18 20  1  0
 19 18  1  0
 20 22  1  0
 21 20  2  0
M  END
$$$$
