SPM.pdb
     RDKit          3D

 22 22  0  0  1  0  0  0  0  0999 V2000
    8.6440  -19.0321   20.3633 O   0  0  0  0  0  0  0  0  0  0  0  0
    8.0833  -18.3683   19.2630 C   0  0  0  0  0  0  0  0  0  0  0  0
    9.0559  -17.2790   18.7865 C   0  0  2  0  0  0  0  0  0  0  0  0
   10.2925  -18.0067   18.4647 N   0  0  0  0  0  0  0  0  0  0  0  0
    9.3350  -16.2924   19.8382 C   0  0  0  0  0  0  0  0  0  0  0  0
   10.3702  -16.4668   20.5589 O   0  0  0  0  0  0  0  0  0  0  0  0
    8.5298  -15.1510   20.1109 N   0  0  0  0  0  0  0  0  0  0  0  0
    7.3429  -14.8276   19.3280 C   0  0  0  0  0  0  0  0  0  0  0  0
    7.2064  -13.3195   19.4604 C   0  0  0  0  0  0  0  0  0  0  0  0
    7.8481  -13.0110   20.8073 C   0  0  0  0  0  0  0  0  0  0  0  0
    8.7301  -14.1744   21.1377 C   0  0  1  0  0  0  0  0  0  0  0  0
    8.3637  -14.6902   22.4885 C   0  0  0  0  0  0  0  0  0  0  0  0
    7.3720  -15.4101   22.6680 O   0  0  0  0  0  0  0  0  0  0  0  0
    6.1693  -10.7935   27.0896 C   0  0  0  0  0  0  0  0  0  0  0  0
    5.6479  -12.4737   26.7553 S   0  0  0  0  0  0  0  0  0  0  0  0
    7.0307  -13.6313   26.5889 C   0  0  0  0  0  0  0  0  0  0  0  0
    7.5276  -13.5976   25.1606 C   0  0  0  0  0  0  0  0  0  0  0  0
    8.7649  -14.4548   24.9803 C   0  0  2  0  0  0  0  0  0  0  0  0
    9.1696  -14.3513   23.6065 N   0  0  0  0  0  0  0  0  0  0  0  0
    8.5813  -15.8318   25.4393 C   0  0  0  0  0  0  0  0  0  0  0  0
    8.0766  -16.6918   24.6550 O   0  0  0  0  0  0  0  0  0  0  0  0
    8.9245  -16.2843   26.7010 O   0  0  0  0  0  0  0  0  0  0  0  0
  1  2  1  0
  3  2  1  0
  3  5  1  0
  3  4  1  1
  5  6  2  0
  7  5  1  0
  7 11  1  0
  8  7  1  0
  9  8  1  0
  9 10  1  0
 10 11  1  0
 11 12  1  1
 12 19  1  0
 12 13  2  0
 14 15  1  0
 16 15  1  0
 18 17  1  6
 17 16  1  0
 18 20  1  0
 19 18  1  0
 20 22  1  0
 21 20  2  0
M  END
$$$$
