SPM.pdb
     RDKit          3D

 22 22  0  0  1  0  0  0  0  0999 V2000
   10.4186  -19.4727   19.9460 O   0  0  0  0  0  0  0  0  0  0  0  0
   11.2747  -18.4630   20.4078 C   0  0  0  0  0  0  0  0  0  0  0  0
   10.8160  -17.1151   19.8314 C   0  0  2  0  0  0  0  0  0  0  0  0
   12.0527  -16.4824   19.3493 N   0  0  0  0  0  0  0  0  0  0  0  0
   10.2022  -16.2593   20.8551 C   0  0  0  0  0  0  0  0  0  0  0  0
   10.9746  -15.6500   21.6635 O   0  0  0  0  0  0  0  0  0  0  0  0
    8.8014  -16.0601   21.0093 N   0  0  0  0  0  0  0  0  0  0  0  0
    7.8221  -16.6855   20.1283 C   0  0  0  0  0  0  0  0  0  0  0  0
    6.6271  -15.7471   20.1709 C   0  0  0  0  0  0  0  0  0  0  0  0
    6.7267  -15.0898   21.5417 C   0  0  0  0  0  0  0  0  0  0  0  0
    8.1435  -15.2574   21.9948 C   0  0  1  0  0  0  0  0  0  0  0  0
    8.1474  -15.8986   23.3415 C   0  0  0  0  0  0  0  0  0  0  0  0
    8.2916  -17.1203   23.4851 O   0  0  0  0  0  0  0  0  0  0  0  0
    6.9062  -10.2817   26.8256 C   0  0  0  0  0  0  0  0  0  0  0  0
    6.4250  -11.9934   27.0380 S   0  0  0  0  0  0  0  0  0  0  0  0
    7.6773  -13.1651   26.4561 C   0  0  0  0  0  0  0  0  0  0  0  0
    7.1703  -14.5729   26.6776 C   0  0  0  0  0  0  0  0  0  0  0  0
    7.9416  -15.5804   25.8478 C   0  0  2  0  0  0  0  0  0  0  0  0
    7.9818  -15.0927   24.4979 N   0  0  0  0  0  0  0  0  0  0  0  0
    7.4205  -16.9423   25.9681 C   0  0  0  0  0  0  0  0  0  0  0  0
    6.5512  -17.3558   25.1419 O   0  0  0  0  0  0  0  0  0  0  0  0
    7.8126  -17.8427   26.9428 O   0  0  0  0  0  0  0  0  0  0  0  0
  1  2  1  0
  3  2  1  0
  3  5  1  0
  3  4  1  1
  5  6  2  0
  7  5  1  0
  7 11  1  0
  8  7  1  0
  9  8  1  0
  9 10  1  0
 10 11  1  0
 11 12  1  1
 12 19  1  0
 12 13  2  0
 14 15  1  0
 16 15  1  0
 18 17  1  1
 17 16  1  0
 18 20  1  0
 19 18  1  0
 20 22  1  0
 21 20  2  0
M  END
$$$$
