SPM.pdb
     RDKit          3D

 22 22  0  0  1  0  0  0  0  0999 V2000
   10.7966  -13.4779   19.5782 O   0  0  0  0  0  0  0  0  0  0  0  0
    9.9593  -14.0668   18.6202 C   0  0  0  0  0  0  0  0  0  0  0  0
    8.5048  -13.6712   18.9155 C   0  0  2  0  0  0  0  0  0  0  0  0
    8.4797  -12.2110   18.7436 N   0  0  0  0  0  0  0  0  0  0  0  0
    8.1129  -14.0030   20.2915 C   0  0  0  0  0  0  0  0  0  0  0  0
    8.1660  -13.0784   21.1654 O   0  0  0  0  0  0  0  0  0  0  0  0
    7.6758  -15.2877   20.7207 N   0  0  0  0  0  0  0  0  0  0  0  0
    7.5138  -16.4056   19.7987 C   0  0  0  0  0  0  0  0  0  0  0  0
    6.4578  -17.2811   20.4536 C   0  0  0  0  0  0  0  0  0  0  0  0
    6.6181  -16.9964   21.9417 C   0  0  0  0  0  0  0  0  0  0  0  0
    7.3351  -15.6871   22.0521 C   0  0  1  0  0  0  0  0  0  0  0  0
    8.5389  -15.8667   22.9144 C   0  0  0  0  0  0  0  0  0  0  0  0
    9.6106  -16.2926   22.4630 O   0  0  0  0  0  0  0  0  0  0  0  0
   10.7686  -13.9339   30.2918 C   0  0  0  0  0  0  0  0  0  0  0  0
    9.7996  -13.6360   28.8157 S   0  0  0  0  0  0  0  0  0  0  0  0
   10.3373  -14.6243   27.3965 C   0  0  0  0  0  0  0  0  0  0  0  0
    9.1993  -14.7145   26.4041 C   0  0  0  0  0  0  0  0  0  0  0  0
    9.5634  -15.5824   25.2155 C   0  0  2  0  0  0  0  0  0  0  0  0
    8.4630  -15.5422   24.2940 N   0  0  0  0  0  0  0  0  0  0  0  0
    9.9660  -16.9367   25.5954 C   0  0  0  0  0  0  0  0  0  0  0  0
   11.1713  -17.1646   25.9189 O   0  0  0  0  0  0  0  0  0  0  0  0
    9.1095  -18.0228   25.6299 O   0  0  0  0  0  0  0  0  0  0  0  0
  1  2  1  0
  3  2  1  0
  3  5  1  0
  3  4  1  1
  5  6  2  0
  7  5  1  0
  7 11  1  0
  8  7  1  0
  9  8  1  0
  9 10  1  0
 10 11  1  0
 11 12  1  1
 12 19  1  0
 12 13  2  0
 14 15  1  0
 16 15  1  0
 18 17  1  1
 17 16  1  0
 18 20  1  0
 19 18  1  0
 20 22  1  0
 21 20  2  0
M  END
$$$$
