SPM.pdb
     RDKit          3D

 22 22  0  0  1  0  0  0  0  0999 V2000
   10.8064  -14.0015   19.3506 O   0  0  0  0  0  0  0  0  0  0  0  0
    9.7514  -14.3276   18.4867 C   0  0  0  0  0  0  0  0  0  0  0  0
    8.4537  -13.7057   19.0240 C   0  0  2  0  0  0  0  0  0  0  0  0
    8.6314  -12.2593   18.8277 N   0  0  0  0  0  0  0  0  0  0  0  0
    8.2635  -13.9799   20.4544 C   0  0  0  0  0  0  0  0  0  0  0  0
    8.6836  -13.1138   21.2879 O   0  0  0  0  0  0  0  0  0  0  0  0
    7.6405  -15.1473   20.9784 N   0  0  0  0  0  0  0  0  0  0  0  0
    7.1899  -16.2413   20.1262 C   0  0  0  0  0  0  0  0  0  0  0  0
    6.0578  -16.8849   20.9103 C   0  0  0  0  0  0  0  0  0  0  0  0
    6.4074  -16.5926   22.3640 C   0  0  0  0  0  0  0  0  0  0  0  0
    7.3596  -15.4377   22.3514 C   0  0  1  0  0  0  0  0  0  0  0  0
    8.5858  -15.8142   23.1125 C   0  0  0  0  0  0  0  0  0  0  0  0
    9.5778  -16.3044   22.5559 O   0  0  0  0  0  0  0  0  0  0  0  0
    9.7924  -12.6866   28.6305 C   0  0  0  0  0  0  0  0  0  0  0  0
   10.5865  -14.2470   29.0063 S   0  0  0  0  0  0  0  0  0  0  0  0
   10.7817  -15.3166   27.5580 C   0  0  0  0  0  0  0  0  0  0  0  0
    9.6210  -15.0821   26.6168 C   0  0  0  0  0  0  0  0  0  0  0  0
    9.7330  -15.9367   25.3696 C   0  0  2  0  0  0  0  0  0  0  0  0
    8.6261  -15.6081   24.5161 N   0  0  0  0  0  0  0  0  0  0  0  0
    9.8496  -17.3656   25.6612 C   0  0  0  0  0  0  0  0  0  0  0  0
    8.8001  -18.0620   25.8124 O   0  0  0  0  0  0  0  0  0  0  0  0
   11.0517  -18.0385   25.7900 O   0  0  0  0  0  0  0  0  0  0  0  0
  1  2  1  0
  3  2  1  0
  3  5  1  0
  3  4  1  1
  5  6  2  0
  7  5  1  0
  7 11  1  0
  8  7  1  0
  9  8  1  0
  9 10  1  0
 10 11  1  0
 11 12  1  1
 12 19  1  0
 12 13  2  0
 14 15  1  0
 16 15  1  0
 18 17  1  1
 17 16  1  0
 18 20  1  0
 19 18  1  0
 20 22  1  0
 21 20  2  0
M  END
$$$$
