SPM.pdb
     RDKit          3D

 22 22  0  0  1  0  0  0  0  0999 V2000
   10.8200  -13.2263   19.4425 O   0  0  0  0  0  0  0  0  0  0  0  0
   10.1410  -13.8077   18.3624 C   0  0  0  0  0  0  0  0  0  0  0  0
    8.6282  -13.6628   18.5854 C   0  0  2  0  0  0  0  0  0  0  0  0
    8.3689  -12.2249   18.4189 N   0  0  0  0  0  0  0  0  0  0  0  0
    8.2299  -14.0725   19.9385 C   0  0  0  0  0  0  0  0  0  0  0  0
    8.0779  -13.1624   20.8159 O   0  0  0  0  0  0  0  0  0  0  0  0
    7.9998  -15.4180   20.3414 N   0  0  0  0  0  0  0  0  0  0  0  0
    8.3524  -16.5560   19.5008 C   0  0  0  0  0  0  0  0  0  0  0  0
    7.3889  -17.6509   19.9292 C   0  0  0  0  0  0  0  0  0  0  0  0
    7.0733  -17.3129   21.3809 C   0  0  0  0  0  0  0  0  0  0  0  0
    7.4143  -15.8674   21.5676 C   0  0  1  0  0  0  0  0  0  0  0  0
    8.3495  -15.7369   22.7223 C   0  0  0  0  0  0  0  0  0  0  0  0
    9.5725  -15.8854   22.5950 O   0  0  0  0  0  0  0  0  0  0  0  0
    6.1041  -10.6906   26.7789 C   0  0  0  0  0  0  0  0  0  0  0  0
    6.4564  -12.4141   27.1134 S   0  0  0  0  0  0  0  0  0  0  0  0
    7.4817  -13.1940   25.8404 C   0  0  0  0  0  0  0  0  0  0  0  0
    7.7654  -14.6226   26.2483 C   0  0  0  0  0  0  0  0  0  0  0  0
    8.6076  -15.3414   25.2128 C   0  0  2  0  0  0  0  0  0  0  0  0
    7.8314  -15.4336   24.0084 N   0  0  0  0  0  0  0  0  0  0  0  0
    9.1220  -16.6277   25.6834 C   0  0  0  0  0  0  0  0  0  0  0  0
    8.4861  -17.6925   25.4162 O   0  0  0  0  0  0  0  0  0  0  0  0
   10.2829  -16.7794   26.4207 O   0  0  0  0  0  0  0  0  0  0  0  0
  1  2  1  0
  3  2  1  0
  3  5  1  0
  3  4  1  1
  5  6  2  0
  7  5  1  0
  7 11  1  0
  8  7  1  0
  9  8  1  0
  9 10  1  0
 10 11  1  0
 11 12  1  1
 12 19  1  0
 12 13  2  0
 14 15  1  0
 16 15  1  0
 18 17  1  1
 17 16  1  0
 18 20  1  0
 19 18  1  0
 20 22  1  0
 21 20  2  0
M  END
$$$$
