SVQ.pdb
     RDKit          3D

 23 22  0  0  1  0  0  0  0  0999 V2000
    8.4365  -19.0810   18.9482 O   0  0  0  0  0  0  0  0  0  0  0  0
    9.0439  -18.7575   17.7574 C   0  0  0  0  0  0  0  0  0  0  0  0
    8.8031  -17.3066   17.3568 C   0  0  2  0  0  0  0  0  0  0  0  0
    9.5272  -17.0145   16.1435 N   0  0  0  0  0  0  0  0  0  0  0  0
    9.2904  -16.4744   18.4878 C   0  0  0  0  0  0  0  0  0  0  0  0
   10.5165  -16.3662   18.7514 O   0  0  0  0  0  0  0  0  0  0  0  0
    7.2331  -13.1797   19.5154 C   0  0  0  0  0  0  0  0  0  0  0  0
    7.4706  -14.1119   20.7084 C   0  0  2  0  0  0  0  0  0  0  0  0
    7.6056  -13.3030   21.9630 C   0  0  0  0  0  0  0  0  0  0  0  0
    8.7010  -14.9135   20.3849 C   0  0  2  0  0  0  0  0  0  0  0  0
    8.3547  -15.7940   19.2788 N   0  0  0  0  0  0  0  0  0  0  0  0
    9.1684  -15.7297   21.5257 C   0  0  0  0  0  0  0  0  0  0  0  0
    8.5825  -16.8058   21.7768 O   0  0  0  0  0  0  0  0  0  0  0  0
   15.7564  -17.0968   24.5623 N   0  0  0  0  0  0  0  0  0  0  0  0
   14.8031  -16.5533   23.6934 C   0  0  0  0  0  0  0  0  0  0  0  0
   15.1580  -15.7449   22.8066 O   0  0  0  0  0  0  0  0  0  0  0  0
   13.3433  -16.8916   23.7646 C   0  0  0  0  0  0  0  0  0  0  0  0
   12.5174  -15.9114   22.9915 C   0  0  0  0  0  0  0  0  0  0  0  0
   11.0817  -16.2317   23.0951 C   0  0  2  0  0  0  0  0  0  0  0  0
   10.2464  -15.3165   22.3183 N   0  0  0  0  0  0  0  0  0  0  0  0
   10.6191  -16.1731   24.4827 C   0  0  0  0  0  0  0  0  0  0  0  0
   10.0078  -15.0978   24.8519 O   0  0  0  0  0  0  0  0  0  0  0  0
   10.7587  -17.1493   25.4547 O   0  0  0  0  0  0  0  0  0  0  0  0
  1  2  1  0
  3  2  1  0
  3  5  1  0
  3  4  1  6
  5 11  1  0
  6  5  2  0
  8  7  1  6
  8  9  1  0
 10  8  1  0
 10 12  1  0
 10 11  1  6
 12 20  1  0
 13 12  2  0
 15 14  1  0
 15 16  2  0
 17 15  1  0
 18 17  1  0
 19 21  1  0
 19 18  1  1
 20 19  1  0
 21 23  1  0
 22 21  2  0
M  END
$$$$
