SVQ.pdb
     RDKit          3D

 23 22  0  0  1  0  0  0  0  0999 V2000
    5.7794  -18.6656   19.2710 O   0  0  0  0  0  0  0  0  0  0  0  0
    6.9118  -18.5958   18.4936 C   0  0  0  0  0  0  0  0  0  0  0  0
    7.1528  -17.1958   17.9411 C   0  0  2  0  0  0  0  0  0  0  0  0
    7.6122  -17.2880   16.5765 N   0  0  0  0  0  0  0  0  0  0  0  0
    8.1819  -16.5733   18.8143 C   0  0  0  0  0  0  0  0  0  0  0  0
    9.3843  -16.9449   18.7910 O   0  0  0  0  0  0  0  0  0  0  0  0
    6.8409  -13.7161   21.6450 C   0  0  0  0  0  0  0  0  0  0  0  0
    8.0975  -13.4678   20.8036 C   0  0  2  0  0  0  0  0  0  0  0  0
    7.7284  -12.7406   19.5461 C   0  0  0  0  0  0  0  0  0  0  0  0
    8.7138  -14.8157   20.5496 C   0  0  2  0  0  0  0  0  0  0  0  0
    7.7972  -15.5449   19.6854 N   0  0  0  0  0  0  0  0  0  0  0  0
    8.9284  -15.5898   21.7909 C   0  0  0  0  0  0  0  0  0  0  0  0
    7.9822  -16.2664   22.2502 O   0  0  0  0  0  0  0  0  0  0  0  0
   13.3532  -19.0428   20.5097 N   0  0  0  0  0  0  0  0  0  0  0  0
   13.0499  -19.4882   21.8015 C   0  0  0  0  0  0  0  0  0  0  0  0
   13.4208  -20.6246   22.1715 O   0  0  0  0  0  0  0  0  0  0  0  0
   12.2867  -18.6620   22.7942 C   0  0  0  0  0  0  0  0  0  0  0  0
   11.7340  -17.4224   22.1627 C   0  0  0  0  0  0  0  0  0  0  0  0
   10.7743  -16.7541   23.0609 C   0  0  2  0  0  0  0  0  0  0  0  0
   10.1640  -15.5739   22.4497 N   0  0  0  0  0  0  0  0  0  0  0  0
   11.4166  -16.3195   24.3025 C   0  0  0  0  0  0  0  0  0  0  0  0
   11.3695  -17.1337   25.3030 O   0  0  0  0  0  0  0  0  0  0  0  0
   12.0796  -15.1254   24.5296 O   0  0  0  0  0  0  0  0  0  0  0  0
  1  2  1  0
  3  2  1  0
  3  5  1  0
  3  4  1  6
  5 11  1  0
  6  5  2  0
  8  7  1  1
  8  9  1  0
 10  8  1  0
 10 12  1  0
 10 11  1  6
 12 20  1  0
 13 12  2  0
 15 14  1  0
 15 16  2  0
 17 15  1  0
 18 17  1  0
 19 21  1  0
 19 18  1  6
 20 19  1  0
 21 23  1  0
 22 21  2  0
M  END
$$$$
