SVQ.pdb
     RDKit          3D

 23 22  0  0  1  0  0  0  0  0999 V2000
   10.2870  -17.6452   15.5977 O   0  0  0  0  0  0  0  0  0  0  0  0
    8.9899  -17.1939   15.5243 C   0  0  0  0  0  0  0  0  0  0  0  0
    8.9097  -15.6957   15.2552 C   0  0  2  0  0  0  0  0  0  0  0  0
    9.6263  -15.3842   14.0423 N   0  0  0  0  0  0  0  0  0  0  0  0
    9.5253  -15.0263   16.4308 C   0  0  0  0  0  0  0  0  0  0  0  0
   10.7483  -14.7300   16.4601 O   0  0  0  0  0  0  0  0  0  0  0  0
    7.2519  -12.6434   18.7195 C   0  0  0  0  0  0  0  0  0  0  0  0
    7.9901  -13.6960   19.5537 C   0  0  2  0  0  0  0  0  0  0  0  0
    8.3289  -13.1284   20.8989 C   0  0  0  0  0  0  0  0  0  0  0  0
    9.2011  -14.0981   18.7581 C   0  0  2  0  0  0  0  0  0  0  0  0
    8.7171  -14.7191   17.5339 N   0  0  0  0  0  0  0  0  0  0  0  0
   10.0663  -15.0567   19.4781 C   0  0  0  0  0  0  0  0  0  0  0  0
    9.7399  -16.2638   19.5005 O   0  0  0  0  0  0  0  0  0  0  0  0
   16.1617  -13.9725   20.6951 N   0  0  0  0  0  0  0  0  0  0  0  0
   15.4697  -14.2112   19.5021 C   0  0  0  0  0  0  0  0  0  0  0  0
   16.0130  -13.9534   18.4048 O   0  0  0  0  0  0  0  0  0  0  0  0
   14.0790  -14.7723   19.4606 C   0  0  0  0  0  0  0  0  0  0  0  0
   13.5402  -14.9985   20.8387 C   0  0  0  0  0  0  0  0  0  0  0  0
   12.1698  -15.5407   20.7884 C   0  0  2  0  0  0  0  0  0  0  0  0
   11.2327  -14.6332   20.1273 N   0  0  0  0  0  0  0  0  0  0  0  0
   11.6487  -15.8037   22.1309 C   0  0  0  0  0  0  0  0  0  0  0  0
   10.6840  -15.0515   22.5430 O   0  0  0  0  0  0  0  0  0  0  0  0
   12.0721  -16.7788   23.0181 O   0  0  0  0  0  0  0  0  0  0  0  0
  1  2  1  0
  3  2  1  0
  3  5  1  0
  3  4  1  6
  5 11  1  0
  6  5  2  0
  8  7  1  6
  8  9  1  0
 10  8  1  0
 10 12  1  0
 10 11  1  6
 12 20  1  0
 13 12  2  0
 15 14  1  0
 15 16  2  0
 17 15  1  0
 18 17  1  0
 19 21  1  0
 19 18  1  1
 20 19  1  0
 21 23  1  0
 22 21  2  0
M  END
$$$$
