SVQ.pdb
     RDKit          3D

 23 22  0  0  1  0  0  0  0  0999 V2000
    6.0836  -16.9788   20.7674 O   0  0  0  0  0  0  0  0  0  0  0  0
    6.7526  -16.3993   21.8200 C   0  0  0  0  0  0  0  0  0  0  0  0
    6.9834  -14.9070   21.6119 C   0  0  2  0  0  0  0  0  0  0  0  0
    7.6012  -14.6889   20.3264 N   0  0  0  0  0  0  0  0  0  0  0  0
    7.8717  -14.4632   22.7179 C   0  0  0  0  0  0  0  0  0  0  0  0
    9.1244  -14.5584   22.6412 O   0  0  0  0  0  0  0  0  0  0  0  0
    7.9956  -12.2899   27.1300 C   0  0  0  0  0  0  0  0  0  0  0  0
    7.1691  -12.6875   25.9023 C   0  0  2  0  0  0  0  0  0  0  0  0
    5.8753  -13.3038   26.3416 C   0  0  0  0  0  0  0  0  0  0  0  0
    8.0269  -13.6224   25.0953 C   0  0  2  0  0  0  0  0  0  0  0  0
    7.2929  -13.9249   23.8753 N   0  0  0  0  0  0  0  0  0  0  0  0
    8.3243  -14.8839   25.8068 C   0  0  0  0  0  0  0  0  0  0  0  0
    7.4160  -15.4294   26.4714 O   0  0  0  0  0  0  0  0  0  0  0  0
   13.3826  -18.7368   24.7767 N   0  0  0  0  0  0  0  0  0  0  0  0
   12.6258  -19.3386   25.7887 C   0  0  0  0  0  0  0  0  0  0  0  0
   12.9633  -20.4569   26.2374 O   0  0  0  0  0  0  0  0  0  0  0  0
   11.4022  -18.7055   26.3825 C   0  0  0  0  0  0  0  0  0  0  0  0
   11.1477  -17.3526   25.7946 C   0  0  0  0  0  0  0  0  0  0  0  0
    9.9349  -16.7445   26.3724 C   0  0  2  0  0  0  0  0  0  0  0  0
    9.5958  -15.4674   25.7457 N   0  0  0  0  0  0  0  0  0  0  0  0
   10.0911  -16.4984   27.8070 C   0  0  0  0  0  0  0  0  0  0  0  0
    9.6268  -17.3963   28.6099 O   0  0  0  0  0  0  0  0  0  0  0  0
   10.6891  -15.4045   28.4095 O   0  0  0  0  0  0  0  0  0  0  0  0
  1  2  1  0
  3  2  1  0
  3  5  1  0
  3  4  1  6
  5 11  1  0
  6  5  2  0
  8  7  1  1
  8  9  1  0
 10  8  1  0
 10 12  1  0
 10 11  1  6
 12 20  1  0
 13 12  2  0
 15 14  1  0
 15 16  2  0
 17 15  1  0
 18 17  1  0
 19 21  1  0
 19 18  1  6
 20 19  1  0
 21 23  1  0
 22 21  2  0
M  END
$$$$
