SVQ.pdb
     RDKit          3D

 23 22  0  0  1  0  0  0  0  0999 V2000
    6.0904  -16.9409   22.4364 O   0  0  0  0  0  0  0  0  0  0  0  0
    7.1673  -16.2912   21.8798 C   0  0  0  0  0  0  0  0  0  0  0  0
    7.0280  -14.7747   21.9429 C   0  0  2  0  0  0  0  0  0  0  0  0
    7.4588  -14.1980   20.6925 N   0  0  0  0  0  0  0  0  0  0  0  0
    7.8872  -14.3225   23.0682 C   0  0  0  0  0  0  0  0  0  0  0  0
    9.1395  -14.2560   22.9612 O   0  0  0  0  0  0  0  0  0  0  0  0
    5.7985  -13.2101   26.4301 C   0  0  0  0  0  0  0  0  0  0  0  0
    7.1453  -12.5263   26.1704 C   0  0  2  0  0  0  0  0  0  0  0  0
    6.9316  -11.2750   25.3734 C   0  0  0  0  0  0  0  0  0  0  0  0
    8.0079  -13.5371   25.4665 C   0  0  2  0  0  0  0  0  0  0  0  0
    7.2807  -13.9616   24.2792 N   0  0  0  0  0  0  0  0  0  0  0  0
    8.3017  -14.7201   26.3032 C   0  0  0  0  0  0  0  0  0  0  0  0
    7.5457  -15.7136   26.2288 O   0  0  0  0  0  0  0  0  0  0  0  0
   13.8266  -15.9190   24.9243 N   0  0  0  0  0  0  0  0  0  0  0  0
   13.6123  -16.9271   25.8714 C   0  0  0  0  0  0  0  0  0  0  0  0
   14.4562  -17.8405   26.0103 O   0  0  0  0  0  0  0  0  0  0  0  0
   12.3991  -16.9783   26.7524 C   0  0  0  0  0  0  0  0  0  0  0  0
   11.4762  -15.8323   26.4776 C   0  0  0  0  0  0  0  0  0  0  0  0
   10.2809  -15.8977   27.3386 C   0  0  2  0  0  0  0  0  0  0  0  0
    9.4035  -14.7403   27.1674 N   0  0  0  0  0  0  0  0  0  0  0  0
   10.6447  -15.9634   28.7551 C   0  0  0  0  0  0  0  0  0  0  0  0
   10.4817  -14.8896   29.4527 O   0  0  0  0  0  0  0  0  0  0  0  0
   11.1447  -17.0567   29.4421 O   0  0  0  0  0  0  0  0  0  0  0  0
  1  2  1  0
  3  2  1  0
  3  5  1  0
  3  4  1  6
  5 11  1  0
  6  5  2  0
  8  7  1  6
  8  9  1  0
 10  8  1  0
 10 12  1  0
 10 11  1  6
 12 20  1  0
 13 12  2  0
 15 14  1  0
 15 16  2  0
 17 15  1  0
 18 17  1  0
 19 21  1  0
 19 18  1  6
 20 19  1  0
 21 23  1  0
 22 21  2  0
M  END
$$$$
