SVQ.pdb
     RDKit          3D

 23 22  0  0  1  0  0  0  0  0999 V2000
    6.6852  -15.8520   20.2314 O   0  0  0  0  0  0  0  0  0  0  0  0
    7.5024  -15.2260   21.1433 C   0  0  0  0  0  0  0  0  0  0  0  0
    7.4427  -15.8762   22.5206 C   0  0  2  0  0  0  0  0  0  0  0  0
    6.0652  -16.0768   22.9002 N   0  0  0  0  0  0  0  0  0  0  0  0
    8.1273  -14.9432   23.4533 C   0  0  0  0  0  0  0  0  0  0  0  0
    9.3548  -14.6843   23.3501 O   0  0  0  0  0  0  0  0  0  0  0  0
    6.4604  -12.6788   27.2599 C   0  0  0  0  0  0  0  0  0  0  0  0
    6.9418  -12.4321   25.8260 C   0  0  2  0  0  0  0  0  0  0  0  0
    5.7705  -12.4413   24.8908 C   0  0  0  0  0  0  0  0  0  0  0  0
    7.9497  -13.5063   25.5238 C   0  0  2  0  0  0  0  0  0  0  0  0
    7.3808  -14.3383   24.4736 N   0  0  0  0  0  0  0  0  0  0  0  0
    8.2554  -14.3507   26.6983 C   0  0  0  0  0  0  0  0  0  0  0  0
    7.5520  -14.2317   27.7256 O   0  0  0  0  0  0  0  0  0  0  0  0
    7.5770  -20.0316   25.5772 N   0  0  0  0  0  0  0  0  0  0  0  0
    7.0861  -19.6141   26.8197 C   0  0  0  0  0  0  0  0  0  0  0  0
    6.3652  -20.3826   27.4945 O   0  0  0  0  0  0  0  0  0  0  0  0
    7.3809  -18.2646   27.4049 C   0  0  0  0  0  0  0  0  0  0  0  0
    8.1640  -17.4158   26.4526 C   0  0  0  0  0  0  0  0  0  0  0  0
    9.2022  -16.6453   27.1617 C   0  0  2  0  0  0  0  0  0  0  0  0
    9.3108  -15.2709   26.6736 N   0  0  0  0  0  0  0  0  0  0  0  0
   10.5207  -17.2648   27.0174 C   0  0  0  0  0  0  0  0  0  0  0  0
   10.8443  -18.1636   27.8856 O   0  0  0  0  0  0  0  0  0  0  0  0
   11.4697  -16.9989   26.0448 O   0  0  0  0  0  0  0  0  0  0  0  0
  1  2  1  0
  3  2  1  0
  3  5  1  0
  3  4  1  1
  5 11  1  0
  6  5  2  0
  8  7  1  1
  8  9  1  0
 10  8  1  0
 10 12  1  0
 10 11  1  6
 12 20  1  0
 13 12  2  0
 15 14  1  0
 15 16  2  0
 17 15  1  0
 18 17  1  0
 19 21  1  0
 19 18  1  6
 20 19  1  0
 21 23  1  0
 22 21  2  0
M  END
$$$$
