SVQ.pdb
     RDKit          3D

 23 22  0  0  1  0  0  0  0  0999 V2000
    6.3986  -19.2906   17.4460 O   0  0  0  0  0  0  0  0  0  0  0  0
    7.1557  -18.5559   18.3284 C   0  0  0  0  0  0  0  0  0  0  0  0
    7.6484  -17.2469   17.7224 C   0  0  2  0  0  0  0  0  0  0  0  0
    8.5122  -17.5289   16.6017 N   0  0  0  0  0  0  0  0  0  0  0  0
    8.3824  -16.5367   18.8021 C   0  0  0  0  0  0  0  0  0  0  0  0
    9.5857  -16.7945   19.0665 O   0  0  0  0  0  0  0  0  0  0  0  0
    7.3391  -12.7803   19.7168 C   0  0  0  0  0  0  0  0  0  0  0  0
    7.3684  -13.6757   20.9602 C   0  0  2  0  0  0  0  0  0  0  0  0
    7.7947  -12.8725   22.1517 C   0  0  0  0  0  0  0  0  0  0  0  0
    8.3027  -14.8112   20.6459 C   0  0  2  0  0  0  0  0  0  0  0  0
    7.7113  -15.5540   19.5427 N   0  0  0  0  0  0  0  0  0  0  0  0
    8.5009  -15.7232   21.7927 C   0  0  0  0  0  0  0  0  0  0  0  0
    7.4960  -16.2112   22.3551 O   0  0  0  0  0  0  0  0  0  0  0  0
   12.0050  -20.5393   22.1591 N   0  0  0  0  0  0  0  0  0  0  0  0
   12.5480  -19.2938   21.8227 C   0  0  0  0  0  0  0  0  0  0  0  0
   13.6164  -19.2351   21.1740 O   0  0  0  0  0  0  0  0  0  0  0  0
   11.9079  -17.9917   22.2038 C   0  0  0  0  0  0  0  0  0  0  0  0
   10.6449  -18.2100   22.9772 C   0  0  0  0  0  0  0  0  0  0  0  0
   10.0467  -16.9257   23.3864 C   0  0  2  0  0  0  0  0  0  0  0  0
    9.7852  -16.0427   22.2503 N   0  0  0  0  0  0  0  0  0  0  0  0
   10.9188  -16.1998   24.3114 C   0  0  0  0  0  0  0  0  0  0  0  0
   11.1617  -16.7590   25.4491 O   0  0  0  0  0  0  0  0  0  0  0  0
   11.5234  -14.9716   24.1037 O   0  0  0  0  0  0  0  0  0  0  0  0
  1  2  1  0
  3  2  1  0
  3  5  1  0
  3  4  1  6
  5 11  1  0
  6  5  2  0
  8  7  1  6
  8  9  1  0
 10  8  1  0
 10 12  1  0
 10 11  1  6
 12 20  1  0
 13 12  2  0
 15 14  1  0
 15 16  2  0
 17 15  1  0
 18 17  1  0
 19 21  1  0
 19 18  1  6
 20 19  1  0
 21 23  1  0
 22 21  2  0
M  END
$$$$
