SVQ.pdb
     RDKit          3D

 23 22  0  0  1  0  0  0  0  0999 V2000
    7.7423  -17.6525   22.9535 O   0  0  0  0  0  0  0  0  0  0  0  0
    6.6304  -16.8440   22.9159 C   0  0  0  0  0  0  0  0  0  0  0  0
    6.9247  -15.4779   22.3072 C   0  0  2  0  0  0  0  0  0  0  0  0
    7.7132  -15.6427   21.1102 N   0  0  0  0  0  0  0  0  0  0  0  0
    7.6691  -14.7115   23.3405 C   0  0  0  0  0  0  0  0  0  0  0  0
    8.9176  -14.5618   23.2840 O   0  0  0  0  0  0  0  0  0  0  0  0
    6.0456  -11.5220   25.1921 C   0  0  0  0  0  0  0  0  0  0  0  0
    6.4647  -12.6259   26.1691 C   0  0  2  0  0  0  0  0  0  0  0  0
    6.8828  -12.0154   27.4726 C   0  0  0  0  0  0  0  0  0  0  0  0
    7.5664  -13.3961   25.4951 C   0  0  2  0  0  0  0  0  0  0  0  0
    6.9561  -14.1424   24.4045 N   0  0  0  0  0  0  0  0  0  0  0  0
    8.2454  -14.3404   26.4078 C   0  0  0  0  0  0  0  0  0  0  0  0
    9.0097  -13.8849   27.2867 O   0  0  0  0  0  0  0  0  0  0  0  0
    6.6952  -20.5409   27.2125 N   0  0  0  0  0  0  0  0  0  0  0  0
    7.3385  -20.0643   26.0644 C   0  0  0  0  0  0  0  0  0  0  0  0
    7.3887  -20.7775   25.0374 O   0  0  0  0  0  0  0  0  0  0  0  0
    7.9880  -18.7140   25.9907 C   0  0  0  0  0  0  0  0  0  0  0  0
    7.8109  -17.9526   27.2673 C   0  0  0  0  0  0  0  0  0  0  0  0
    8.5851  -16.6978   27.2464 C   0  0  2  0  0  0  0  0  0  0  0  0
    8.0449  -15.7222   26.3003 N   0  0  0  0  0  0  0  0  0  0  0  0
    9.9814  -16.9366   26.8770 C   0  0  0  0  0  0  0  0  0  0  0  0
   10.6930  -17.6364   27.6957 O   0  0  0  0  0  0  0  0  0  0  0  0
   10.6335  -16.4979   25.7371 O   0  0  0  0  0  0  0  0  0  0  0  0
  1  2  1  0
  3  2  1  0
  3  5  1  0
  3  4  1  6
  5 11  1  0
  6  5  2  0
  8  7  1  6
  8  9  1  0
 10  8  1  0
 10 12  1  0
 10 11  1  6
 12 20  1  0
 13 12  2  0
 15 14  1  0
 15 16  2  0
 17 15  1  0
 18 17  1  0
 19 21  1  0
 19 18  1  6
 20 19  1  0
 21 23  1  0
 22 21  2  0
M  END
$$$$
