SVQ.pdb
     RDKit          3D

 23 22  0  0  1  0  0  0  0  0999 V2000
    7.8352  -19.5169   18.5547 O   0  0  0  0  0  0  0  0  0  0  0  0
    6.7775  -18.6390   18.5091 C   0  0  0  0  0  0  0  0  0  0  0  0
    7.1180  -17.3563   17.7593 C   0  0  2  0  0  0  0  0  0  0  0  0
    7.7778  -17.6832   16.5185 N   0  0  0  0  0  0  0  0  0  0  0  0
    8.0110  -16.5740   18.6536 C   0  0  0  0  0  0  0  0  0  0  0  0
    9.2644  -16.6269   18.5506 O   0  0  0  0  0  0  0  0  0  0  0  0
    7.0528  -12.9472   19.8469 C   0  0  0  0  0  0  0  0  0  0  0  0
    7.2907  -13.8559   21.0578 C   0  0  2  0  0  0  0  0  0  0  0  0
    7.8702  -13.0551   22.1846 C   0  0  0  0  0  0  0  0  0  0  0  0
    8.1960  -14.9616   20.5899 C   0  0  2  0  0  0  0  0  0  0  0  0
    7.4361  -15.7568   19.6364 N   0  0  0  0  0  0  0  0  0  0  0  0
    8.6515  -15.8337   21.6934 C   0  0  0  0  0  0  0  0  0  0  0  0
    7.9104  -16.7691   22.0675 O   0  0  0  0  0  0  0  0  0  0  0  0
   13.7490  -18.7232   21.4008 N   0  0  0  0  0  0  0  0  0  0  0  0
   12.5469  -19.3780   21.6929 C   0  0  0  0  0  0  0  0  0  0  0  0
   12.4006  -20.5804   21.3789 O   0  0  0  0  0  0  0  0  0  0  0  0
   11.3939  -18.7057   22.3778 C   0  0  0  0  0  0  0  0  0  0  0  0
   11.6783  -17.2580   22.6313 C   0  0  0  0  0  0  0  0  0  0  0  0
   10.5095  -16.5863   23.2289 C   0  0  2  0  0  0  0  0  0  0  0  0
    9.8884  -15.6266   22.3168 N   0  0  0  0  0  0  0  0  0  0  0  0
   10.8747  -15.8583   24.4454 C   0  0  0  0  0  0  0  0  0  0  0  0
   10.9259  -14.5710   24.3651 O   0  0  0  0  0  0  0  0  0  0  0  0
   11.1707  -16.3957   25.6867 O   0  0  0  0  0  0  0  0  0  0  0  0
  1  2  1  0
  3  2  1  0
  3  5  1  0
  3  4  1  6
  5 11  1  0
  6  5  2  0
  8  7  1  6
  8  9  1  0
 10  8  1  0
 10 12  1  0
 10 11  1  6
 12 20  1  0
 13 12  2  0
 15 14  1  0
 15 16  2  0
 17 15  1  0
 18 17  1  0
 19 21  1  0
 19 18  1  6
 20 19  1  0
 21 23  1  0
 22 21  2  0
M  END
$$$$
