SVQ.pdb
     RDKit          3D

 23 22  0  0  1  0  0  0  0  0999 V2000
    7.0432  -15.9543   20.9515 O   0  0  0  0  0  0  0  0  0  0  0  0
    6.1187  -14.9561   21.1526 C   0  0  0  0  0  0  0  0  0  0  0  0
    6.7701  -13.5962   21.3756 C   0  0  2  0  0  0  0  0  0  0  0  0
    7.5370  -13.2313   20.2092 N   0  0  0  0  0  0  0  0  0  0  0  0
    7.6431  -13.7418   22.5696 C   0  0  0  0  0  0  0  0  0  0  0  0
    8.8464  -14.0982   22.4719 O   0  0  0  0  0  0  0  0  0  0  0  0
    6.8313  -11.5712   25.8869 C   0  0  0  0  0  0  0  0  0  0  0  0
    6.9651  -13.0703   26.1756 C   0  0  2  0  0  0  0  0  0  0  0  0
    7.5319  -13.2722   27.5485 C   0  0  0  0  0  0  0  0  0  0  0  0
    7.8329  -13.6384   25.0869 C   0  0  2  0  0  0  0  0  0  0  0  0
    7.1065  -13.4735   23.8363 N   0  0  0  0  0  0  0  0  0  0  0  0
    8.1354  -15.0719   25.2858 C   0  0  0  0  0  0  0  0  0  0  0  0
    7.2966  -15.9220   24.9144 O   0  0  0  0  0  0  0  0  0  0  0  0
   13.1528  -18.5615   23.2224 N   0  0  0  0  0  0  0  0  0  0  0  0
   11.9952  -19.0098   23.8690 C   0  0  0  0  0  0  0  0  0  0  0  0
   11.3000  -19.9103   23.3479 O   0  0  0  0  0  0  0  0  0  0  0  0
   11.5269  -18.4601   25.1840 C   0  0  0  0  0  0  0  0  0  0  0  0
   10.9883  -17.0715   25.0344 C   0  0  0  0  0  0  0  0  0  0  0  0
    9.8037  -16.8689   25.8889 C   0  0  2  0  0  0  0  0  0  0  0  0
    9.3359  -15.4833   25.8781 N   0  0  0  0  0  0  0  0  0  0  0  0
   10.0813  -17.2246   27.2816 C   0  0  0  0  0  0  0  0  0  0  0  0
   10.1980  -16.2525   28.1228 O   0  0  0  0  0  0  0  0  0  0  0  0
   10.2305  -18.4965   27.8079 O   0  0  0  0  0  0  0  0  0  0  0  0
  1  2  1  0
  3  2  1  0
  3  5  1  0
  3  4  1  6
  5 11  1  0
  6  5  2  0
  8  7  1  6
  8  9  1  0
 10  8  1  0
 10 12  1  0
 10 11  1  6
 12 20  1  0
 13 12  2  0
 15 14  1  0
 15 16  2  0
 17 15  1  0
 18 17  1  0
 19 21  1  0
 19 18  1  6
 20 19  1  0
 21 23  1  0
 22 21  2  0
M  END
$$$$
