SVQ.pdb
     RDKit          3D

 23 22  0  0  1  0  0  0  0  0999 V2000
    7.7347  -18.6810   17.0019 O   0  0  0  0  0  0  0  0  0  0  0  0
    8.9132  -18.0691   16.6436 C   0  0  0  0  0  0  0  0  0  0  0  0
    8.7229  -16.5964   16.2997 C   0  0  2  0  0  0  0  0  0  0  0  0
    9.4123  -16.2954   15.0685 N   0  0  0  0  0  0  0  0  0  0  0  0
    9.2902  -15.8250   17.4364 C   0  0  0  0  0  0  0  0  0  0  0  0
   10.5294  -15.7752   17.6512 O   0  0  0  0  0  0  0  0  0  0  0  0
    8.1700  -12.5873   20.9662 C   0  0  0  0  0  0  0  0  0  0  0  0
    7.6576  -13.5478   19.8876 C   0  0  2  0  0  0  0  0  0  0  0  0
    6.5358  -14.3750   20.4387 C   0  0  0  0  0  0  0  0  0  0  0  0
    8.8397  -14.3681   19.4508 C   0  0  2  0  0  0  0  0  0  0  0  0
    8.4166  -15.1363   18.2890 N   0  0  0  0  0  0  0  0  0  0  0  0
    9.3106  -15.2970   20.5003 C   0  0  0  0  0  0  0  0  0  0  0  0
    8.7883  -16.4306   20.5802 O   0  0  0  0  0  0  0  0  0  0  0  0
   15.6210  -17.5180   22.8337 N   0  0  0  0  0  0  0  0  0  0  0  0
   14.7200  -16.4565   22.9770 C   0  0  0  0  0  0  0  0  0  0  0  0
   15.1474  -15.2830   23.0538 O   0  0  0  0  0  0  0  0  0  0  0  0
   13.2336  -16.6479   23.0457 C   0  0  0  0  0  0  0  0  0  0  0  0
   12.5157  -15.6646   22.1747 C   0  0  0  0  0  0  0  0  0  0  0  0
   11.0574  -15.8759   22.2293 C   0  0  2  0  0  0  0  0  0  0  0  0
   10.3224  -14.9262   21.3946 N   0  0  0  0  0  0  0  0  0  0  0  0
   10.5479  -15.7414   23.5951 C   0  0  0  0  0  0  0  0  0  0  0  0
   10.9789  -16.5893   24.4678 O   0  0  0  0  0  0  0  0  0  0  0  0
    9.6508  -14.7976   24.0658 O   0  0  0  0  0  0  0  0  0  0  0  0
  1  2  1  0
  3  2  1  0
  3  5  1  0
  3  4  1  6
  5 11  1  0
  6  5  2  0
  8  7  1  1
  8  9  1  0
 10  8  1  0
 10 12  1  0
 10 11  1  6
 12 20  1  0
 13 12  2  0
 15 14  1  0
 15 16  2  0
 17 15  1  0
 18 17  1  0
 19 21  1  0
 19 18  1  1
 20 19  1  0
 21 23  1  0
 22 21  2  0
M  END
$$$$
