SVQ.pdb
     RDKit          3D

 23 22  0  0  1  0  0  0  0  0999 V2000
    6.5632  -19.0420   20.8760 O   0  0  0  0  0  0  0  0  0  0  0  0
    5.8374  -17.8772   20.7864 C   0  0  0  0  0  0  0  0  0  0  0  0
    6.5207  -16.8317   19.9126 C   0  0  2  0  0  0  0  0  0  0  0  0
    6.8976  -17.4269   18.6534 N   0  0  0  0  0  0  0  0  0  0  0  0
    7.7145  -16.3708   20.6685 C   0  0  0  0  0  0  0  0  0  0  0  0
    8.8779  -16.7390   20.3596 O   0  0  0  0  0  0  0  0  0  0  0  0
    6.9664  -13.8842   23.9838 C   0  0  0  0  0  0  0  0  0  0  0  0
    8.1522  -13.6091   23.0527 C   0  0  2  0  0  0  0  0  0  0  0  0
    7.7284  -12.6806   21.9551 C   0  0  0  0  0  0  0  0  0  0  0  0
    8.6187  -14.9472   22.5498 C   0  0  2  0  0  0  0  0  0  0  0  0
    7.5338  -15.5028   21.7539 N   0  0  0  0  0  0  0  0  0  0  0  0
    8.9474  -15.8866   23.6432 C   0  0  0  0  0  0  0  0  0  0  0  0
    8.0422  -16.6172   24.1024 O   0  0  0  0  0  0  0  0  0  0  0  0
   14.7018  -20.2520   24.8964 N   0  0  0  0  0  0  0  0  0  0  0  0
   14.0292  -19.0881   24.5064 C   0  0  0  0  0  0  0  0  0  0  0  0
   14.5734  -18.2920   23.7091 O   0  0  0  0  0  0  0  0  0  0  0  0
   12.6589  -18.7298   25.0009 C   0  0  0  0  0  0  0  0  0  0  0  0
   12.1389  -17.4997   24.3249 C   0  0  0  0  0  0  0  0  0  0  0  0
   10.7890  -17.1596   24.8111 C   0  0  2  0  0  0  0  0  0  0  0  0
   10.2450  -15.9663   24.1638 N   0  0  0  0  0  0  0  0  0  0  0  0
   10.7863  -16.9126   26.2540 C   0  0  0  0  0  0  0  0  0  0  0  0
   10.5282  -15.7089   26.6423 O   0  0  0  0  0  0  0  0  0  0  0  0
   11.0269  -17.8310   27.2619 O   0  0  0  0  0  0  0  0  0  0  0  0
  1  2  1  0
  3  2  1  0
  3  5  1  0
  3  4  1  6
  5 11  1  0
  6  5  2  0
  8  7  1  1
  8  9  1  0
 10  8  1  0
 10 12  1  0
 10 11  1  1
 12 20  1  0
 13 12  2  0
 15 14  1  0
 15 16  2  0
 17 15  1  0
 18 17  1  0
 19 21  1  0
 19 18  1  6
 20 19  1  0
 21 23  1  0
 22 21  2  0
M  END
$$$$
