SVQ.pdb
     RDKit          3D

 23 22  0  0  1  0  0  0  0  0999 V2000
    5.4925  -18.8830   17.9057 O   0  0  0  0  0  0  0  0  0  0  0  0
    6.8308  -18.6341   17.7097 C   0  0  0  0  0  0  0  0  0  0  0  0
    7.0749  -17.3528   16.9209 C   0  0  2  0  0  0  0  0  0  0  0  0
    7.5723  -17.6822   15.6073 N   0  0  0  0  0  0  0  0  0  0  0  0
    8.0743  -16.5701   17.6940 C   0  0  0  0  0  0  0  0  0  0  0  0
    9.3116  -16.7572   17.5588 O   0  0  0  0  0  0  0  0  0  0  0  0
    8.6506  -12.8191   20.8256 C   0  0  0  0  0  0  0  0  0  0  0  0
    7.6925  -13.6671   19.9821 C   0  0  2  0  0  0  0  0  0  0  0  0
    6.4979  -14.0480   20.8032 C   0  0  0  0  0  0  0  0  0  0  0  0
    8.4832  -14.8523   19.5010 C   0  0  2  0  0  0  0  0  0  0  0  0
    7.6206  -15.5986   18.5966 N   0  0  0  0  0  0  0  0  0  0  0  0
    8.9121  -15.7394   20.6033 C   0  0  0  0  0  0  0  0  0  0  0  0
    8.0483  -16.4168   21.2026 O   0  0  0  0  0  0  0  0  0  0  0  0
   12.9160  -20.0879   22.0917 N   0  0  0  0  0  0  0  0  0  0  0  0
   12.1532  -19.8336   20.9461 C   0  0  0  0  0  0  0  0  0  0  0  0
   11.9714  -20.7418   20.1047 O   0  0  0  0  0  0  0  0  0  0  0  0
   11.5244  -18.5019   20.6602 C   0  0  0  0  0  0  0  0  0  0  0  0
   11.9037  -17.4862   21.6923 C   0  0  0  0  0  0  0  0  0  0  0  0
   10.7417  -16.6642   22.0775 C   0  0  2  0  0  0  0  0  0  0  0  0
   10.2582  -15.8286   20.9790 N   0  0  0  0  0  0  0  0  0  0  0  0
   11.0626  -15.7738   23.1943 C   0  0  0  0  0  0  0  0  0  0  0  0
   11.3523  -16.3297   24.3227 O   0  0  0  0  0  0  0  0  0  0  0  0
   11.0960  -14.3897   23.1797 O   0  0  0  0  0  0  0  0  0  0  0  0
  1  2  1  0
  3  2  1  0
  3  5  1  0
  3  4  1  6
  5 11  1  0
  6  5  2  0
  8  7  1  1
  8  9  1  0
 10  8  1  0
 10 12  1  0
 10 11  1  6
 12 20  1  0
 13 12  2  0
 15 14  1  0
 15 16  2  0
 17 15  1  0
 18 17  1  0
 19 21  1  0
 19 18  1  6
 20 19  1  0
 21 23  1  0
 22 21  2  0
M  END
$$$$
