FYW.pdb
     RDKit          3D

 38 41  0  0  1  0  0  0  0  0999 V2000
   23.6269  -19.6359  -28.7344 N   0  0  0  0  0  0  0  0  0  0  0  0
   23.0641  -20.0553  -27.4861 C   0  0  1  0  0  0  0  0  0  0  0  0
   24.0182  -20.9426  -26.7173 C   0  0  0  0  0  0  0  0  0  0  0  0
   24.1955  -22.1625  -27.5435 C   0  0  0  0  0  0  0  0  0  0  0  0
   23.2160  -23.1267  -27.6029 C   0  0  0  0  0  0  0  0  0  0  0  0
   23.3655  -24.2789  -28.3707 C   0  0  0  0  0  0  0  0  0  0  0  0
   24.5229  -24.4913  -29.1087 C   0  0  0  0  0  0  0  0  0  0  0  0
   25.5003  -23.5298  -29.0501 C   0  0  0  0  0  0  0  0  0  0  0  0
   25.3387  -22.3982  -28.2882 C   0  0  0  0  0  0  0  0  0  0  0  0
   22.5013  -18.9484  -26.7030 C   0  0  0  0  0  0  0  0  0  0  0  0
   23.2729  -17.9595  -26.4938 O   0  0  0  0  0  0  0  0  0  0  0  0
   15.2375  -20.1946  -27.8924 O   0  0  0  0  0  0  0  0  0  0  0  0
   16.3143  -19.4359  -27.4883 C   0  0  0  0  0  0  0  0  0  0  0  0
   16.2740  -18.7703  -26.2814 C   0  0  0  0  0  0  0  0  0  0  0  0
   17.3444  -18.0076  -25.8645 C   0  0  0  0  0  0  0  0  0  0  0  0
   18.4914  -17.8728  -26.6190 C   0  0  0  0  0  0  0  0  0  0  0  0
   19.6493  -17.0733  -26.2247 C   0  0  0  0  0  0  0  0  0  0  0  0
   20.6760  -17.8058  -25.3952 C   0  0  2  0  0  0  0  0  0  0  0  0
   21.2022  -18.9039  -26.1812 N   0  0  0  0  0  0  0  0  0  0  0  0
   20.1383  -18.3056  -24.1090 C   0  0  0  0  0  0  0  0  0  0  0  0
   19.4957  -19.3876  -24.0255 O   0  0  0  0  0  0  0  0  0  0  0  0
   18.5205  -18.5431  -27.8243 C   0  0  0  0  0  0  0  0  0  0  0  0
   17.4481  -19.3150  -28.2559 C   0  0  0  0  0  0  0  0  0  0  0  0
   20.3067  -17.6035  -22.8788 N   0  0  0  0  0  0  0  0  0  0  0  0
   19.9482  -18.1496  -21.5929 C   0  0  1  0  0  0  0  0  0  0  0  0
   21.1516  -18.5177  -20.7661 C   0  0  0  0  0  0  0  0  0  0  0  0
   22.2109  -17.4809  -20.8615 C   0  0  0  0  0  0  0  0  0  0  0  0
   22.2032  -16.2755  -20.1936 C   0  0  0  0  0  0  0  0  0  0  0  0
   23.3207  -15.5966  -20.5212 N   0  0  0  0  0  0  0  0  0  0  0  0
   24.0308  -16.3395  -21.3753 C   0  0  0  0  0  0  0  0  0  0  0  0
   25.2383  -16.0731  -21.9876 C   0  0  0  0  0  0  0  0  0  0  0  0
   25.7933  -16.9833  -22.8374 C   0  0  0  0  0  0  0  0  0  0  0  0
   25.1160  -18.1792  -23.0699 C   0  0  0  0  0  0  0  0  0  0  0  0
   23.9170  -18.4632  -22.4728 C   0  0  0  0  0  0  0  0  0  0  0  0
   23.3587  -17.5391  -21.6134 C   0  0  0  0  0  0  0  0  0  0  0  0
   19.1570  -17.1640  -20.7890 C   0  0  0  0  0  0  0  0  0  0  0  0
   19.1187  -15.9555  -21.1421 O   0  0  0  0  0  0  0  0  0  0  0  0
   18.4631  -17.5611  -19.6576 O   0  0  0  0  0  0  0  0  0  0  0  0
  2  1  1  6
  2  3  1  0
  3  4  1  0
  4  9  1  0
  4  5  2  0
  5  6  1  0
  6  7  2  0
  8  7  1  0
  9  8  2  0
 10  2  1  0
 11 10  2  0
 12 13  1  0
 13 14  2  0
 14 15  1  0
 16 15  2  0
 16 17  1  0
 18 17  1  6
 18 20  1  0
 18 19  1  0
 19 10  1  0
 20 21  2  0
 22 16  1  0
 23 13  1  0
 23 22  2  0
 24 25  1  0
 24 20  1  0
 25 26  1  1
 26 27  1  0
 27 28  2  0
 28 29  1  0
 30 29  1  0
 31 30  2  0
 32 31  1  0
 33 34  1  0
 33 32  2  0
 34 35  2  0
 35 27  1  0
 35 30  1  0
 36 25  1  0
 36 38  1  0
 37 36  2  0
M  END
$$$$
