FYW.pdb
     RDKit          3D

 38 41  0  0  1  0  0  0  0  0999 V2000
   23.9158  -15.0660  -16.7867 N   0  0  0  0  0  0  0  0  0  0  0  0
   25.0682  -15.7732  -16.3145 C   0  0  1  0  0  0  0  0  0  0  0  0
   25.9597  -14.8844  -15.4755 C   0  0  0  0  0  0  0  0  0  0  0  0
   27.1637  -14.6191  -16.3013 C   0  0  0  0  0  0  0  0  0  0  0  0
   28.1348  -15.5794  -16.4673 C   0  0  0  0  0  0  0  0  0  0  0  0
   29.2724  -15.3478  -17.2364 C   0  0  0  0  0  0  0  0  0  0  0  0
   29.4627  -14.1248  -17.8668 C   0  0  0  0  0  0  0  0  0  0  0  0
   28.4943  -13.1665  -17.7018 C   0  0  0  0  0  0  0  0  0  0  0  0
   27.3773  -13.4094  -16.9400 C   0  0  0  0  0  0  0  0  0  0  0  0
   24.7426  -17.0636  -15.6946 C   0  0  0  0  0  0  0  0  0  0  0  0
   23.7254  -17.0791  -14.9316 O   0  0  0  0  0  0  0  0  0  0  0  0
   24.2897  -25.8224  -14.2459 O   0  0  0  0  0  0  0  0  0  0  0  0
   24.5350  -24.5556  -14.7291 C   0  0  0  0  0  0  0  0  0  0  0  0
   23.4902  -23.7737  -15.1742 C   0  0  0  0  0  0  0  0  0  0  0  0
   23.7211  -22.5041  -15.6602 C   0  0  0  0  0  0  0  0  0  0  0  0
   24.9867  -21.9589  -15.7253 C   0  0  0  0  0  0  0  0  0  0  0  0
   25.2842  -20.6225  -16.2359 C   0  0  0  0  0  0  0  0  0  0  0  0
   25.1347  -19.5082  -15.2284 C   0  0  2  0  0  0  0  0  0  0  0  0
   25.4564  -18.2543  -15.8801 N   0  0  0  0  0  0  0  0  0  0  0  0
   25.9772  -19.6930  -14.0246 C   0  0  0  0  0  0  0  0  0  0  0  0
   27.2230  -19.4970  -14.0409 O   0  0  0  0  0  0  0  0  0  0  0  0
   26.0241  -22.7501  -15.2772 C   0  0  0  0  0  0  0  0  0  0  0  0
   25.8045  -24.0315  -14.7851 C   0  0  0  0  0  0  0  0  0  0  0  0
   25.4442  -20.1040  -12.7670 N   0  0  0  0  0  0  0  0  0  0  0  0
   26.2499  -20.3144  -11.5893 C   0  0  1  0  0  0  0  0  0  0  0  0
   25.5534  -19.8777  -10.3277 C   0  0  0  0  0  0  0  0  0  0  0  0
   24.0811  -20.0381  -10.4394 C   0  0  0  0  0  0  0  0  0  0  0  0
   23.3576  -19.9267  -11.6070 C   0  0  0  0  0  0  0  0  0  0  0  0
   22.0556  -20.1344  -11.3261 N   0  0  0  0  0  0  0  0  0  0  0  0
   21.9393  -20.3732  -10.0166 C   0  0  0  0  0  0  0  0  0  0  0  0
   20.8149  -20.6392   -9.2621 C   0  0  0  0  0  0  0  0  0  0  0  0
   20.9233  -20.8551   -7.9202 C   0  0  0  0  0  0  0  0  0  0  0  0
   22.1873  -20.8007   -7.3352 C   0  0  0  0  0  0  0  0  0  0  0  0
   23.3153  -20.5382   -8.0656 C   0  0  0  0  0  0  0  0  0  0  0  0
   23.2013  -20.3202   -9.4233 C   0  0  0  0  0  0  0  0  0  0  0  0
   26.5866  -21.7638  -11.4170 C   0  0  0  0  0  0  0  0  0  0  0  0
   25.9855  -22.6320  -12.1039 O   0  0  0  0  0  0  0  0  0  0  0  0
   27.5529  -22.1678  -10.5103 O   0  0  0  0  0  0  0  0  0  0  0  0
  2  1  1  1
  2  3  1  0
  3  4  1  0
  4  9  1  0
  4  5  2  0
  5  6  1  0
  6  7  2  0
  8  7  1  0
  9  8  2  0
 10  2  1  0
 11 10  2  0
 12 13  1  0
 13 14  2  0
 14 15  1  0
 16 15  2  0
 16 17  1  0
 18 17  1  6
 18 20  1  0
 18 19  1  0
 19 10  1  0
 20 21  2  0
 22 16  1  0
 23 13  1  0
 23 22  2  0
 24 25  1  0
 24 20  1  0
 25 26  1  1
 26 27  1  0
 27 28  2  0
 28 29  1  0
 30 29  1  0
 31 30  2  0
 32 31  1  0
 33 34  1  0
 33 32  2  0
 34 35  2  0
 35 27  1  0
 35 30  1  0
 36 25  1  0
 36 38  1  0
 37 36  2  0
M  END
$$$$
