FYW.pdb
     RDKit          3D

 38 41  0  0  1  0  0  0  0  0999 V2000
   26.4515  -21.8741  -18.7893 N   0  0  0  0  0  0  0  0  0  0  0  0
   26.1591  -22.0638  -17.4003 C   0  0  1  0  0  0  0  0  0  0  0  0
   27.2301  -21.4583  -16.5198 C   0  0  0  0  0  0  0  0  0  0  0  0
   28.4803  -22.1928  -16.8356 C   0  0  0  0  0  0  0  0  0  0  0  0
   29.4726  -21.6109  -17.5903 C   0  0  0  0  0  0  0  0  0  0  0  0
   30.6513  -22.2853  -17.8988 C   0  0  0  0  0  0  0  0  0  0  0  0
   30.8627  -23.5819  -17.4478 C   0  0  0  0  0  0  0  0  0  0  0  0
   29.8735  -24.1628  -16.6947 C   0  0  0  0  0  0  0  0  0  0  0  0
   28.7158  -23.4852  -16.3984 C   0  0  0  0  0  0  0  0  0  0  0  0
   24.7889  -21.6803  -17.0387 C   0  0  0  0  0  0  0  0  0  0  0  0
   24.4412  -20.4937  -17.3357 O   0  0  0  0  0  0  0  0  0  0  0  0
   21.6378  -21.6140  -22.5297 O   0  0  0  0  0  0  0  0  0  0  0  0
   21.6268  -21.9510  -21.1938 C   0  0  0  0  0  0  0  0  0  0  0  0
   22.4430  -22.9614  -20.7313 C   0  0  0  0  0  0  0  0  0  0  0  0
   22.4422  -23.3090  -19.3969 C   0  0  0  0  0  0  0  0  0  0  0  0
   21.6394  -22.6755  -18.4709 C   0  0  0  0  0  0  0  0  0  0  0  0
   21.5978  -23.0096  -17.0490 C   0  0  0  0  0  0  0  0  0  0  0  0
   22.4722  -22.1509  -16.1675 C   0  0  2  0  0  0  0  0  0  0  0  0
   23.8561  -22.5104  -16.4043 N   0  0  0  0  0  0  0  0  0  0  0  0
   22.1484  -22.2733  -14.7276 C   0  0  0  0  0  0  0  0  0  0  0  0
   22.3571  -23.3357  -14.0808 O   0  0  0  0  0  0  0  0  0  0  0  0
   20.8271  -21.6664  -18.9449 C   0  0  0  0  0  0  0  0  0  0  0  0
   20.8186  -21.3066  -20.2877 C   0  0  0  0  0  0  0  0  0  0  0  0
   21.5799  -21.2051  -13.9724 N   0  0  0  0  0  0  0  0  0  0  0  0
   21.3249  -21.2776  -12.5546 C   0  0  1  0  0  0  0  0  0  0  0  0
   21.7303  -20.0215  -11.8300 C   0  0  0  0  0  0  0  0  0  0  0  0
   23.2012  -19.8203  -11.8779 C   0  0  0  0  0  0  0  0  0  0  0  0
   23.8961  -19.3021  -12.9491 C   0  0  0  0  0  0  0  0  0  0  0  0
   25.2062  -19.2665  -12.6335 N   0  0  0  0  0  0  0  0  0  0  0  0
   25.3553  -19.7469  -11.3956 C   0  0  0  0  0  0  0  0  0  0  0  0
   26.4994  -19.9098  -10.6415 C   0  0  0  0  0  0  0  0  0  0  0  0
   26.4244  -20.4276   -9.3825 C   0  0  0  0  0  0  0  0  0  0  0  0
   25.1739  -20.7849   -8.8809 C   0  0  0  0  0  0  0  0  0  0  0  0
   24.0267  -20.6316   -9.6125 C   0  0  0  0  0  0  0  0  0  0  0  0
   24.1070  -20.1073  -10.8864 C   0  0  0  0  0  0  0  0  0  0  0  0
   19.8674  -21.4845  -12.2778 C   0  0  0  0  0  0  0  0  0  0  0  0
   19.0259  -21.3242  -13.2013 O   0  0  0  0  0  0  0  0  0  0  0  0
   19.4268  -21.8511  -11.0165 O   0  0  0  0  0  0  0  0  0  0  0  0
  2  1  1  6
  2  3  1  0
  3  4  1  0
  4  9  1  0
  4  5  2  0
  5  6  1  0
  6  7  2  0
  8  7  1  0
  9  8  2  0
 10  2  1  0
 11 10  2  0
 12 13  1  0
 13 14  2  0
 14 15  1  0
 16 15  2  0
 16 17  1  0
 18 17  1  6
 18 20  1  0
 18 19  1  0
 19 10  1  0
 20 21  2  0
 22 16  1  0
 23 13  1  0
 23 22  2  0
 24 25  1  0
 24 20  1  0
 25 26  1  1
 26 27  1  0
 27 28  2  0
 28 29  1  0
 30 29  1  0
 31 30  2  0
 32 31  1  0
 33 34  1  0
 33 32  2  0
 34 35  2  0
 35 27  1  0
 35 30  1  0
 36 25  1  0
 36 38  1  0
 37 36  2  0
M  END
$$$$
