FYW.pdb
     RDKit          3D

 38 41  0  0  1  0  0  0  0  0999 V2000
   24.2496   -7.2141  -20.1165 N   0  0  0  0  0  0  0  0  0  0  0  0
   23.3049   -6.2438  -19.6507 C   0  0  1  0  0  0  0  0  0  0  0  0
   22.4775   -5.6845  -20.7870 C   0  0  0  0  0  0  0  0  0  0  0  0
   23.3294   -4.6646  -21.4476 C   0  0  0  0  0  0  0  0  0  0  0  0
   24.0567   -4.9709  -22.5745 C   0  0  0  0  0  0  0  0  0  0  0  0
   24.8633   -4.0279  -23.2066 C   0  0  0  0  0  0  0  0  0  0  0  0
   24.9585   -2.7336  -22.7116 C   0  0  0  0  0  0  0  0  0  0  0  0
   24.2331   -2.4273  -21.5877 C   0  0  0  0  0  0  0  0  0  0  0  0
   23.4417   -3.3681  -20.9748 C   0  0  0  0  0  0  0  0  0  0  0  0
   22.5198   -6.7054  -18.4992 C   0  0  0  0  0  0  0  0  0  0  0  0
   21.8052   -7.7406  -18.6858 O   0  0  0  0  0  0  0  0  0  0  0  0
   25.5182  -11.7175  -15.1525 O   0  0  0  0  0  0  0  0  0  0  0  0
   24.8235  -10.5286  -15.1038 C   0  0  0  0  0  0  0  0  0  0  0  0
   25.3269   -9.4101  -15.7335 C   0  0  0  0  0  0  0  0  0  0  0  0
   24.6422   -8.2139  -15.6929 C   0  0  0  0  0  0  0  0  0  0  0  0
   23.4391   -8.0755  -15.0322 C   0  0  0  0  0  0  0  0  0  0  0  0
   22.6782   -6.8304  -14.9554 C   0  0  0  0  0  0  0  0  0  0  0  0
   21.7340   -6.5892  -16.1083 C   0  0  2  0  0  0  0  0  0  0  0  0
   22.5023   -6.1007  -17.2360 N   0  0  0  0  0  0  0  0  0  0  0  0
   20.6430   -5.6428  -15.7809 C   0  0  0  0  0  0  0  0  0  0  0  0
   20.8706   -4.4749  -15.3629 O   0  0  0  0  0  0  0  0  0  0  0  0
   22.9452   -9.2010  -14.4059 C   0  0  0  0  0  0  0  0  0  0  0  0
   23.6257  -10.4127  -14.4394 C   0  0  0  0  0  0  0  0  0  0  0  0
   19.2638   -5.9817  -15.9133 N   0  0  0  0  0  0  0  0  0  0  0  0
   18.1868   -5.0565  -15.6589 C   0  0  1  0  0  0  0  0  0  0  0  0
   17.2180   -4.9681  -16.8082 C   0  0  0  0  0  0  0  0  0  0  0  0
   16.1538   -3.9666  -16.5427 C   0  0  0  0  0  0  0  0  0  0  0  0
   14.9243   -4.2448  -15.9858 C   0  0  0  0  0  0  0  0  0  0  0  0
   14.2247   -3.0961  -15.8956 N   0  0  0  0  0  0  0  0  0  0  0  0
   14.9779   -2.1041  -16.3793 C   0  0  0  0  0  0  0  0  0  0  0  0
   14.6985   -0.7580  -16.4983 C   0  0  0  0  0  0  0  0  0  0  0  0
   15.6234    0.0914  -17.0292 C   0  0  0  0  0  0  0  0  0  0  0  0
   16.8476   -0.4299  -17.4448 C   0  0  0  0  0  0  0  0  0  0  0  0
   17.1448   -1.7620  -17.3357 C   0  0  0  0  0  0  0  0  0  0  0  0
   16.2058   -2.6182  -16.7980 C   0  0  0  0  0  0  0  0  0  0  0  0
   17.3940   -5.4679  -14.4565 C   0  0  0  0  0  0  0  0  0  0  0  0
   17.1899   -6.6899  -14.2294 O   0  0  0  0  0  0  0  0  0  0  0  0
   16.8786   -4.5220  -13.5853 O   0  0  0  0  0  0  0  0  0  0  0  0
  2  1  1  6
  2  3  1  0
  3  4  1  0
  4  9  1  0
  4  5  2  0
  5  6  1  0
  6  7  2  0
  8  7  1  0
  9  8  2  0
 10  2  1  0
 11 10  2  0
 12 13  1  0
 13 14  2  0
 14 15  1  0
 16 15  2  0
 16 17  1  0
 18 17  1  1
 18 20  1  0
 18 19  1  0
 19 10  1  0
 20 21  2  0
 22 16  1  0
 23 13  1  0
 23 22  2  0
 24 25  1  0
 24 20  1  0
 25 26  1  6
 26 27  1  0
 27 28  2  0
 28 29  1  0
 30 29  1  0
 31 30  2  0
 32 31  1  0
 33 34  1  0
 33 32  2  0
 34 35  2  0
 35 27  1  0
 35 30  1  0
 36 25  1  0
 36 38  1  0
 37 36  2  0
M  END
$$$$
