FYW.pdb
     RDKit          3D

 38 41  0  0  1  0  0  0  0  0999 V2000
   26.3773  -17.8487  -16.5804 N   0  0  0  0  0  0  0  0  0  0  0  0
   26.8330  -18.4597  -15.3679 C   0  0  1  0  0  0  0  0  0  0  0  0
   28.0364  -17.7388  -14.8013 C   0  0  0  0  0  0  0  0  0  0  0  0
   29.1053  -17.8654  -15.8229 C   0  0  0  0  0  0  0  0  0  0  0  0
   29.6961  -19.0803  -16.0835 C   0  0  0  0  0  0  0  0  0  0  0  0
   30.7022  -19.2180  -17.0365 C   0  0  0  0  0  0  0  0  0  0  0  0
   31.1446  -18.1188  -17.7613 C   0  0  0  0  0  0  0  0  0  0  0  0
   30.5555  -16.9067  -17.5020 C   0  0  0  0  0  0  0  0  0  0  0  0
   29.5641  -16.7862  -16.5588 C   0  0  0  0  0  0  0  0  0  0  0  0
   25.7566  -18.6970  -14.3983 C   0  0  0  0  0  0  0  0  0  0  0  0
   25.1464  -17.6655  -13.9732 O   0  0  0  0  0  0  0  0  0  0  0  0
   18.6080  -21.9216  -10.4733 O   0  0  0  0  0  0  0  0  0  0  0  0
   19.7273  -21.6877  -11.2420 C   0  0  0  0  0  0  0  0  0  0  0  0
   19.9208  -20.4505  -11.8189 C   0  0  0  0  0  0  0  0  0  0  0  0
   21.0364  -20.2025  -12.5904 C   0  0  0  0  0  0  0  0  0  0  0  0
   22.0006  -21.1618  -12.8215 C   0  0  0  0  0  0  0  0  0  0  0  0
   23.1963  -20.9509  -13.6345 C   0  0  0  0  0  0  0  0  0  0  0  0
   24.2920  -20.1597  -12.9620 C   0  0  2  0  0  0  0  0  0  0  0  0
   25.3611  -19.9520  -13.9183 N   0  0  0  0  0  0  0  0  0  0  0  0
   24.8154  -20.8106  -11.7391 C   0  0  0  0  0  0  0  0  0  0  0  0
   25.3338  -21.9602  -11.7602 O   0  0  0  0  0  0  0  0  0  0  0  0
   21.7966  -22.3957  -12.2393 C   0  0  0  0  0  0  0  0  0  0  0  0
   20.6761  -22.6582  -11.4595 C   0  0  0  0  0  0  0  0  0  0  0  0
   24.7711  -20.1886  -10.4562 N   0  0  0  0  0  0  0  0  0  0  0  0
   24.8503  -20.9164   -9.2134 C   0  0  1  0  0  0  0  0  0  0  0  0
   25.4623  -20.1014   -8.1050 C   0  0  0  0  0  0  0  0  0  0  0  0
   26.9193  -20.3626   -7.9827 C   0  0  0  0  0  0  0  0  0  0  0  0
   27.6954  -20.9879   -8.9342 C   0  0  0  0  0  0  0  0  0  0  0  0
   28.9635  -21.0485   -8.4811 N   0  0  0  0  0  0  0  0  0  0  0  0
   29.0076  -20.4795   -7.2729 C   0  0  0  0  0  0  0  0  0  0  0  0
   30.0747  -20.3039   -6.4158 C   0  0  0  0  0  0  0  0  0  0  0  0
   29.8953  -19.6892   -5.2122 C   0  0  0  0  0  0  0  0  0  0  0  0
   28.6178  -19.2466   -4.8724 C   0  0  0  0  0  0  0  0  0  0  0  0
   27.5457  -19.4111   -5.7080 C   0  0  0  0  0  0  0  0  0  0  0  0
   27.7316  -20.0338   -6.9253 C   0  0  0  0  0  0  0  0  0  0  0  0
   23.4902  -21.3322   -8.7434 C   0  0  0  0  0  0  0  0  0  0  0  0
   23.3738  -22.2872   -7.9302 O   0  0  0  0  0  0  0  0  0  0  0  0
   22.3520  -20.6810   -9.1903 O   0  0  0  0  0  0  0  0  0  0  0  0
  2  1  1  6
  2  3  1  0
  3  4  1  0
  4  9  1  0
  4  5  2  0
  5  6  1  0
  6  7  2  0
  8  7  1  0
  9  8  2  0
 10  2  1  0
 11 10  2  0
 12 13  1  0
 13 14  2  0
 14 15  1  0
 16 15  2  0
 16 17  1  0
 18 17  1  6
 18 20  1  0
 18 19  1  0
 19 10  1  0
 20 21  2  0
 22 16  1  0
 23 13  1  0
 23 22  2  0
 24 25  1  0
 24 20  1  0
 25 26  1  1
 26 27  1  0
 27 28  2  0
 28 29  1  0
 30 29  1  0
 31 30  2  0
 32 31  1  0
 33 34  1  0
 33 32  2  0
 34 35  2  0
 35 27  1  0
 35 30  1  0
 36 25  1  0
 36 38  1  0
 37 36  2  0
M  END
$$$$
