FYW.pdb
     RDKit          3D

 38 41  0  0  1  0  0  0  0  0999 V2000
   27.3946  -21.0300  -18.0742 N   0  0  0  0  0  0  0  0  0  0  0  0
   27.3202  -20.1604  -16.9387 C   0  0  1  0  0  0  0  0  0  0  0  0
   26.7252  -18.8186  -17.3052 C   0  0  0  0  0  0  0  0  0  0  0  0
   27.7539  -18.1256  -18.1199 C   0  0  0  0  0  0  0  0  0  0  0  0
   27.5463  -17.8706  -19.4558 C   0  0  0  0  0  0  0  0  0  0  0  0
   28.5008  -17.2238  -20.2368 C   0  0  0  0  0  0  0  0  0  0  0  0
   29.7061  -16.8117  -19.6829 C   0  0  0  0  0  0  0  0  0  0  0  0
   29.9137  -17.0655  -18.3503 C   0  0  0  0  0  0  0  0  0  0  0  0
   28.9628  -17.7047  -17.5924 C   0  0  0  0  0  0  0  0  0  0  0  0
   26.7100  -20.7932  -15.7629 C   0  0  0  0  0  0  0  0  0  0  0  0
   25.7543  -21.6001  -15.9923 O   0  0  0  0  0  0  0  0  0  0  0  0
   24.1810  -21.2482   -7.2239 O   0  0  0  0  0  0  0  0  0  0  0  0
   24.8921  -21.1105   -8.3961 C   0  0  0  0  0  0  0  0  0  0  0  0
   25.4295  -19.8872   -8.7364 C   0  0  0  0  0  0  0  0  0  0  0  0
   26.1433  -19.7352   -9.9063 C   0  0  0  0  0  0  0  0  0  0  0  0
   26.3538  -20.7801  -10.7821 C   0  0  0  0  0  0  0  0  0  0  0  0
   27.0974  -20.6695  -12.0352 C   0  0  0  0  0  0  0  0  0  0  0  0
   26.2812  -20.9064  -13.2829 C   0  0  2  0  0  0  0  0  0  0  0  0
   27.0975  -20.5773  -14.4344 N   0  0  0  0  0  0  0  0  0  0  0  0
   25.0186  -20.1330  -13.3098 C   0  0  0  0  0  0  0  0  0  0  0  0
   25.0029  -18.8780  -13.4343 O   0  0  0  0  0  0  0  0  0  0  0  0
   25.8117  -21.9991  -10.4314 C   0  0  0  0  0  0  0  0  0  0  0  0
   25.0900  -22.1653   -9.2550 C   0  0  0  0  0  0  0  0  0  0  0  0
   23.7363  -20.7475  -13.1969 N   0  0  0  0  0  0  0  0  0  0  0  0
   22.5391  -20.0335  -12.8263 C   0  0  1  0  0  0  0  0  0  0  0  0
   22.0430  -19.1294  -13.9235 C   0  0  0  0  0  0  0  0  0  0  0  0
   21.9255  -19.8576  -15.2126 C   0  0  0  0  0  0  0  0  0  0  0  0
   21.2126  -21.0213  -15.4039 C   0  0  0  0  0  0  0  0  0  0  0  0
   21.3316  -21.3897  -16.6951 N   0  0  0  0  0  0  0  0  0  0  0  0
   22.0982  -20.4920  -17.3212 C   0  0  0  0  0  0  0  0  0  0  0  0
   22.5030  -20.4399  -18.6394 C   0  0  0  0  0  0  0  0  0  0  0  0
   23.2971  -19.4206  -19.0744 C   0  0  0  0  0  0  0  0  0  0  0  0
   23.6861  -18.4413  -18.1619 C   0  0  0  0  0  0  0  0  0  0  0  0
   23.2958  -18.4744  -16.8500 C   0  0  0  0  0  0  0  0  0  0  0  0
   22.4921  -19.5078  -16.4137 C   0  0  0  0  0  0  0  0  0  0  0  0
   21.4224  -20.9798  -12.5084 C   0  0  0  0  0  0  0  0  0  0  0  0
   21.5884  -22.2187  -12.6636 O   0  0  0  0  0  0  0  0  0  0  0  0
   20.2034  -20.5129  -12.0442 O   0  0  0  0  0  0  0  0  0  0  0  0
  2  1  1  6
  2  3  1  0
  3  4  1  0
  4  9  1  0
  4  5  2  0
  5  6  1  0
  6  7  2  0
  8  7  1  0
  9  8  2  0
 10  2  1  0
 11 10  2  0
 12 13  1  0
 13 14  2  0
 14 15  1  0
 16 15  2  0
 16 17  1  0
 18 17  1  1
 18 20  1  0
 18 19  1  0
 19 10  1  0
 20 21  2  0
 22 16  1  0
 23 13  1  0
 23 22  2  0
 24 25  1  0
 24 20  1  0
 25 26  1  6
 26 27  1  0
 27 28  2  0
 28 29  1  0
 30 29  1  0
 31 30  2  0
 32 31  1  0
 33 34  1  0
 33 32  2  0
 34 35  2  0
 35 27  1  0
 35 30  1  0
 36 25  1  0
 36 38  1  0
 37 36  2  0
M  END
$$$$
