FYW.pdb
     RDKit          3D

 38 41  0  0  1  0  0  0  0  0999 V2000
   21.1035  -18.6465  -16.2229 N   0  0  0  0  0  0  0  0  0  0  0  0
   22.4312  -18.5389  -15.6970 C   0  0  1  0  0  0  0  0  0  0  0  0
   23.0441  -17.1913  -16.0083 C   0  0  0  0  0  0  0  0  0  0  0  0
   23.3326  -17.2014  -17.4639 C   0  0  0  0  0  0  0  0  0  0  0  0
   24.4459  -17.8386  -17.9612 C   0  0  0  0  0  0  0  0  0  0  0  0
   24.7342  -17.8566  -19.3235 C   0  0  0  0  0  0  0  0  0  0  0  0
   23.8956  -17.2237  -20.2321 C   0  0  0  0  0  0  0  0  0  0  0  0
   22.7848  -16.5881  -19.7367 C   0  0  0  0  0  0  0  0  0  0  0  0
   22.5133  -16.5787  -18.3901 C   0  0  0  0  0  0  0  0  0  0  0  0
   22.5307  -18.9393  -14.2880 C   0  0  0  0  0  0  0  0  0  0  0  0
   21.9202  -18.2023  -13.4506 O   0  0  0  0  0  0  0  0  0  0  0  0
   16.8611  -20.8768  -11.7027 O   0  0  0  0  0  0  0  0  0  0  0  0
   18.2159  -21.0833  -11.8451 C   0  0  0  0  0  0  0  0  0  0  0  0
   18.7473  -21.3339  -13.0925 C   0  0  0  0  0  0  0  0  0  0  0  0
   20.1013  -21.5424  -13.2496 C   0  0  0  0  0  0  0  0  0  0  0  0
   20.9798  -21.5116  -12.1863 C   0  0  0  0  0  0  0  0  0  0  0  0
   22.4201  -21.7311  -12.2993 C   0  0  0  0  0  0  0  0  0  0  0  0
   23.2477  -20.4747  -12.4237 C   0  0  2  0  0  0  0  0  0  0  0  0
   23.2344  -20.0519  -13.8099 N   0  0  0  0  0  0  0  0  0  0  0  0
   24.6410  -20.6445  -11.9513 C   0  0  0  0  0  0  0  0  0  0  0  0
   25.5052  -21.2718  -12.6222 O   0  0  0  0  0  0  0  0  0  0  0  0
   20.4370  -21.2601  -10.9434 C   0  0  0  0  0  0  0  0  0  0  0  0
   19.0739  -21.0483  -10.7718 C   0  0  0  0  0  0  0  0  0  0  0  0
   25.1036  -20.1145  -10.7105 N   0  0  0  0  0  0  0  0  0  0  0  0
   26.4089  -20.3902  -10.1622 C   0  0  1  0  0  0  0  0  0  0  0  0
   26.9101  -19.2793   -9.2778 C   0  0  0  0  0  0  0  0  0  0  0  0
   28.1846  -19.6513   -8.6120 C   0  0  0  0  0  0  0  0  0  0  0  0
   29.3177  -20.0938   -9.2593 C   0  0  0  0  0  0  0  0  0  0  0  0
   30.2721  -20.3332   -8.3379 N   0  0  0  0  0  0  0  0  0  0  0  0
   29.7724  -20.0543   -7.1304 C   0  0  0  0  0  0  0  0  0  0  0  0
   30.3630  -20.1423   -5.8864 C   0  0  0  0  0  0  0  0  0  0  0  0
   29.6615  -19.8040   -4.7674 C   0  0  0  0  0  0  0  0  0  0  0  0
   28.3444  -19.3707   -4.9107 C   0  0  0  0  0  0  0  0  0  0  0  0
   27.7397  -19.2762   -6.1355 C   0  0  0  0  0  0  0  0  0  0  0  0
   28.4531  -19.6198   -7.2655 C   0  0  0  0  0  0  0  0  0  0  0  0
   26.3923  -21.6332   -9.3266 C   0  0  0  0  0  0  0  0  0  0  0  0
   25.4305  -21.8470   -8.5418 O   0  0  0  0  0  0  0  0  0  0  0  0
   27.4222  -22.5566   -9.4027 O   0  0  0  0  0  0  0  0  0  0  0  0
  2  1  1  1
  2  3  1  0
  3  4  1  0
  4  9  1  0
  4  5  2  0
  5  6  1  0
  6  7  2  0
  8  7  1  0
  9  8  2  0
 10  2  1  0
 11 10  2  0
 12 13  1  0
 13 14  2  0
 14 15  1  0
 16 15  2  0
 16 17  1  0
 18 17  1  6
 18 20  1  0
 18 19  1  0
 19 10  1  0
 20 21  2  0
 22 16  1  0
 23 13  1  0
 23 22  2  0
 24 25  1  0
 24 20  1  0
 25 26  1  1
 26 27  1  0
 27 28  2  0
 28 29  1  0
 30 29  1  0
 31 30  2  0
 32 31  1  0
 33 34  1  0
 33 32  2  0
 34 35  2  0
 35 27  1  0
 35 30  1  0
 36 25  1  0
 36 38  1  0
 37 36  2  0
M  END
$$$$
