FYW.pdb
     RDKit          3D

 38 41  0  0  1  0  0  0  0  0999 V2000
   26.6845  -17.7565  -17.9288 N   0  0  0  0  0  0  0  0  0  0  0  0
   27.1986  -18.3343  -16.7234 C   0  0  1  0  0  0  0  0  0  0  0  0
   27.8285  -17.2877  -15.8309 C   0  0  0  0  0  0  0  0  0  0  0  0
   29.0333  -16.8085  -16.5526 C   0  0  0  0  0  0  0  0  0  0  0  0
   29.1165  -15.5140  -17.0111 C   0  0  0  0  0  0  0  0  0  0  0  0
   30.2377  -15.0471  -17.6924 C   0  0  0  0  0  0  0  0  0  0  0  0
   31.3191  -15.8853  -17.9322 C   0  0  0  0  0  0  0  0  0  0  0  0
   31.2369  -17.1765  -17.4749 C   0  0  0  0  0  0  0  0  0  0  0  0
   30.1242  -17.6230  -16.8043 C   0  0  0  0  0  0  0  0  0  0  0  0
   26.2361  -19.2105  -16.0442 C   0  0  0  0  0  0  0  0  0  0  0  0
   25.1379  -18.6733  -15.6942 O   0  0  0  0  0  0  0  0  0  0  0  0
   21.5471  -26.2903  -13.6537 O   0  0  0  0  0  0  0  0  0  0  0  0
   22.4995  -25.4303  -14.1555 C   0  0  0  0  0  0  0  0  0  0  0  0
   23.7973  -25.4947  -13.6947 C   0  0  0  0  0  0  0  0  0  0  0  0
   24.7606  -24.6402  -14.1881 C   0  0  0  0  0  0  0  0  0  0  0  0
   24.4816  -23.6930  -15.1516 C   0  0  0  0  0  0  0  0  0  0  0  0
   25.4641  -22.7621  -15.7024 C   0  0  0  0  0  0  0  0  0  0  0  0
   25.4868  -21.4008  -15.0502 C   0  0  2  0  0  0  0  0  0  0  0  0
   26.4360  -20.5674  -15.7607 N   0  0  0  0  0  0  0  0  0  0  0  0
   25.8235  -21.4499  -13.6089 C   0  0  0  0  0  0  0  0  0  0  0  0
   27.0159  -21.4804  -13.1991 O   0  0  0  0  0  0  0  0  0  0  0  0
   23.1801  -23.6378  -15.6052 C   0  0  0  0  0  0  0  0  0  0  0  0
   22.1999  -24.4935  -15.1158 C   0  0  0  0  0  0  0  0  0  0  0  0
   24.8298  -21.4665  -12.5858 N   0  0  0  0  0  0  0  0  0  0  0  0
   25.1222  -21.2761  -11.1862 C   0  0  1  0  0  0  0  0  0  0  0  0
   26.0828  -20.1416  -10.9463 C   0  0  0  0  0  0  0  0  0  0  0  0
   27.2208  -20.5680  -10.0923 C   0  0  0  0  0  0  0  0  0  0  0  0
   28.2417  -21.4034  -10.4907 C   0  0  0  0  0  0  0  0  0  0  0  0
   29.0909  -21.5660   -9.4565 N   0  0  0  0  0  0  0  0  0  0  0  0
   28.6341  -20.8575   -8.4198 C   0  0  0  0  0  0  0  0  0  0  0  0
   29.1546  -20.7107   -7.1503 C   0  0  0  0  0  0  0  0  0  0  0  0
   28.5172  -19.9293   -6.2326 C   0  0  0  0  0  0  0  0  0  0  0  0
   27.3371  -19.2883   -6.6061 C   0  0  0  0  0  0  0  0  0  0  0  0
   26.8038  -19.4208   -7.8602 C   0  0  0  0  0  0  0  0  0  0  0  0
   27.4520  -20.2126   -8.7860 C   0  0  0  0  0  0  0  0  0  0  0  0
   23.8790  -20.9602  -10.4127 C   0  0  0  0  0  0  0  0  0  0  0  0
   23.1465  -19.9998  -10.7701 O   0  0  0  0  0  0  0  0  0  0  0  0
   23.5192  -21.7104   -9.3050 O   0  0  0  0  0  0  0  0  0  0  0  0
  2  1  1  6
  2  3  1  0
  3  4  1  0
  4  9  1  0
  4  5  2  0
  5  6  1  0
  6  7  2  0
  8  7  1  0
  9  8  2  0
 10  2  1  0
 11 10  2  0
 12 13  1  0
 13 14  2  0
 14 15  1  0
 16 15  2  0
 16 17  1  0
 18 17  1  6
 18 20  1  0
 18 19  1  0
 19 10  1  0
 20 21  2  0
 22 16  1  0
 23 13  1  0
 23 22  2  0
 24 25  1  0
 24 20  1  0
 25 26  1  6
 26 27  1  0
 27 28  2  0
 28 29  1  0
 30 29  1  0
 31 30  2  0
 32 31  1  0
 33 34  1  0
 33 32  2  0
 34 35  2  0
 35 27  1  0
 35 30  1  0
 36 25  1  0
 36 38  1  0
 37 36  2  0
M  END
$$$$
