FYW.pdb
     RDKit          3D

 38 41  0  0  1  0  0  0  0  0999 V2000
   16.7233  -23.7150  -16.0631 N   0  0  0  0  0  0  0  0  0  0  0  0
   17.7165  -23.9290  -15.0537 C   0  0  1  0  0  0  0  0  0  0  0  0
   18.3480  -25.2981  -15.1777 C   0  0  0  0  0  0  0  0  0  0  0  0
   17.2851  -26.2707  -14.8222 C   0  0  0  0  0  0  0  0  0  0  0  0
   16.6930  -27.0563  -15.7841 C   0  0  0  0  0  0  0  0  0  0  0  0
   15.6925  -27.9726  -15.4699 C   0  0  0  0  0  0  0  0  0  0  0  0
   15.2571  -28.1224  -14.1594 C   0  0  0  0  0  0  0  0  0  0  0  0
   15.8475  -27.3392  -13.1995 C   0  0  0  0  0  0  0  0  0  0  0  0
   16.8334  -26.4395  -13.5244 C   0  0  0  0  0  0  0  0  0  0  0  0
   18.6785  -22.8254  -14.9439 C   0  0  0  0  0  0  0  0  0  0  0  0
   19.2592  -22.4777  -16.0205 O   0  0  0  0  0  0  0  0  0  0  0  0
   15.2371  -17.2985  -15.6320 O   0  0  0  0  0  0  0  0  0  0  0  0
   16.2607  -17.9421  -14.9712 C   0  0  0  0  0  0  0  0  0  0  0  0
   17.5676  -17.5588  -15.1856 C   0  0  0  0  0  0  0  0  0  0  0  0
   18.6017  -18.1940  -14.5311 C   0  0  0  0  0  0  0  0  0  0  0  0
   18.3872  -19.2279  -13.6432 C   0  0  0  0  0  0  0  0  0  0  0  0
   19.4475  -19.9360  -12.9293 C   0  0  0  0  0  0  0  0  0  0  0  0
   20.0231  -21.1248  -13.6604 C   0  0  2  0  0  0  0  0  0  0  0  0
   18.9955  -22.1416  -13.7634 N   0  0  0  0  0  0  0  0  0  0  0  0
   21.2325  -21.6800  -13.0105 C   0  0  0  0  0  0  0  0  0  0  0  0
   21.2873  -22.8718  -12.6016 O   0  0  0  0  0  0  0  0  0  0  0  0
   17.0759  -19.6028  -13.4365 C   0  0  0  0  0  0  0  0  0  0  0  0
   16.0245  -18.9705  -14.0902 C   0  0  0  0  0  0  0  0  0  0  0  0
   22.4157  -20.9116  -12.8007 N   0  0  0  0  0  0  0  0  0  0  0  0
   23.7223  -21.3177  -13.2572 C   0  0  1  0  0  0  0  0  0  0  0  0
   23.7450  -21.6425  -14.7273 C   0  0  0  0  0  0  0  0  0  0  0  0
   25.0644  -22.1848  -15.1411 C   0  0  0  0  0  0  0  0  0  0  0  0
   25.4107  -23.5186  -15.1353 C   0  0  0  0  0  0  0  0  0  0  0  0
   26.6803  -23.6338  -15.5734 N   0  0  0  0  0  0  0  0  0  0  0  0
   27.1424  -22.4119  -15.8546 C   0  0  0  0  0  0  0  0  0  0  0  0
   28.3779  -22.0204  -16.3283 C   0  0  0  0  0  0  0  0  0  0  0  0
   28.6428  -20.7012  -16.5481 C   0  0  0  0  0  0  0  0  0  0  0  0
   27.6429  -19.7665  -16.2846 C   0  0  0  0  0  0  0  0  0  0  0  0
   26.4106  -20.1338  -15.8141 C   0  0  0  0  0  0  0  0  0  0  0  0
   26.1465  -21.4700  -15.5929 C   0  0  0  0  0  0  0  0  0  0  0  0
   24.7320  -20.2330  -13.0390 C   0  0  0  0  0  0  0  0  0  0  0  0
   24.4723  -19.0543  -13.3994 O   0  0  0  0  0  0  0  0  0  0  0  0
   25.9532  -20.5057  -12.4444 O   0  0  0  0  0  0  0  0  0  0  0  0
  2  1  1  6
  2  3  1  0
  3  4  1  0
  4  9  1  0
  4  5  2  0
  5  6  1  0
  6  7  2  0
  8  7  1  0
  9  8  2  0
 10  2  1  0
 11 10  2  0
 12 13  1  0
 13 14  2  0
 14 15  1  0
 16 15  2  0
 16 17  1  0
 18 17  1  1
 18 20  1  0
 18 19  1  0
 19 10  1  0
 20 21  2  0
 22 16  1  0
 23 13  1  0
 23 22  2  0
 24 25  1  0
 24 20  1  0
 25 26  1  6
 26 27  1  0
 27 28  2  0
 28 29  1  0
 30 29  1  0
 31 30  2  0
 32 31  1  0
 33 34  1  0
 33 32  2  0
 34 35  2  0
 35 27  1  0
 35 30  1  0
 36 25  1  0
 36 38  1  0
 37 36  2  0
M  END
$$$$
