FYW.pdb
     RDKit          3D

 38 41  0  0  1  0  0  0  0  0999 V2000
   27.8715  -21.5848  -15.8881 N   0  0  0  0  0  0  0  0  0  0  0  0
   27.0281  -20.5706  -15.3305 C   0  0  1  0  0  0  0  0  0  0  0  0
   26.1958  -19.8928  -16.3966 C   0  0  0  0  0  0  0  0  0  0  0  0
   27.0124  -18.7558  -16.8893 C   0  0  0  0  0  0  0  0  0  0  0  0
   27.0411  -17.5583  -16.2125 C   0  0  0  0  0  0  0  0  0  0  0  0
   27.7993  -16.4797  -16.6608 C   0  0  0  0  0  0  0  0  0  0  0  0
   28.5588  -16.5823  -17.8193 C   0  0  0  0  0  0  0  0  0  0  0  0
   28.5307  -17.7766  -18.4947 C   0  0  0  0  0  0  0  0  0  0  0  0
   27.7778  -18.8320  -18.0404 C   0  0  0  0  0  0  0  0  0  0  0  0
   26.2628  -21.0295  -14.1647 C   0  0  0  0  0  0  0  0  0  0  0  0
   25.7248  -22.1775  -14.2628 O   0  0  0  0  0  0  0  0  0  0  0  0
   31.2691  -21.6830   -9.5571 O   0  0  0  0  0  0  0  0  0  0  0  0
   29.9613  -21.3274   -9.8055 C   0  0  0  0  0  0  0  0  0  0  0  0
   29.6550  -20.5501  -10.9023 C   0  0  0  0  0  0  0  0  0  0  0  0
   28.3506  -20.1869  -11.1630 C   0  0  0  0  0  0  0  0  0  0  0  0
   27.3021  -20.5751  -10.3548 C   0  0  0  0  0  0  0  0  0  0  0  0
   25.9052  -20.2127  -10.5843 C   0  0  0  0  0  0  0  0  0  0  0  0
   25.3020  -20.7726  -11.8499 C   0  0  2  0  0  0  0  0  0  0  0  0
   26.0872  -20.3091  -12.9765 N   0  0  0  0  0  0  0  0  0  0  0  0
   23.8785  -20.4061  -12.0297 C   0  0  0  0  0  0  0  0  0  0  0  0
   23.4682  -19.2213  -11.8930 O   0  0  0  0  0  0  0  0  0  0  0  0
   27.6204  -21.3524   -9.2605 C   0  0  0  0  0  0  0  0  0  0  0  0
   28.9313  -21.7252   -8.9868 C   0  0  0  0  0  0  0  0  0  0  0  0
   22.8741  -21.3607  -12.3680 N   0  0  0  0  0  0  0  0  0  0  0  0
   21.6532  -21.0237  -13.0582 C   0  0  1  0  0  0  0  0  0  0  0  0
   21.8611  -20.8269  -14.5365 C   0  0  0  0  0  0  0  0  0  0  0  0
   20.6265  -20.3281  -15.1946 C   0  0  0  0  0  0  0  0  0  0  0  0
   20.1413  -19.0419  -15.0992 C   0  0  0  0  0  0  0  0  0  0  0  0
   19.0086  -18.9560  -15.8249 N   0  0  0  0  0  0  0  0  0  0  0  0
   18.7674  -20.1501  -16.3738 C   0  0  0  0  0  0  0  0  0  0  0  0
   17.7330  -20.5551  -17.1924 C   0  0  0  0  0  0  0  0  0  0  0  0
   17.6781  -21.8398  -17.6456 C   0  0  0  0  0  0  0  0  0  0  0  0
   18.6845  -22.7258  -17.2644 C   0  0  0  0  0  0  0  0  0  0  0  0
   19.7194  -22.3444  -16.4530 C   0  0  0  0  0  0  0  0  0  0  0  0
   19.7711  -21.0433  -15.9964 C   0  0  0  0  0  0  0  0  0  0  0  0
   20.6302  -22.1073  -12.9065 C   0  0  0  0  0  0  0  0  0  0  0  0
   19.4575  -21.8157  -12.5508 O   0  0  0  0  0  0  0  0  0  0  0  0
   20.9537  -23.4319  -13.1518 O   0  0  0  0  0  0  0  0  0  0  0  0
  2  1  1  6
  2  3  1  0
  3  4  1  0
  4  9  1  0
  4  5  2  0
  5  6  1  0
  6  7  2  0
  8  7  1  0
  9  8  2  0
 10  2  1  0
 11 10  2  0
 12 13  1  0
 13 14  2  0
 14 15  1  0
 16 15  2  0
 16 17  1  0
 18 17  1  1
 18 20  1  0
 18 19  1  0
 19 10  1  0
 20 21  2  0
 22 16  1  0
 23 13  1  0
 23 22  2  0
 24 25  1  0
 24 20  1  0
 25 26  1  6
 26 27  1  0
 27 28  2  0
 28 29  1  0
 30 29  1  0
 31 30  2  0
 32 31  1  0
 33 34  1  0
 33 32  2  0
 34 35  2  0
 35 27  1  0
 35 30  1  0
 36 25  1  0
 36 38  1  0
 37 36  2  0
M  END
$$$$
