FYW.pdb
     RDKit          3D

 38 41  0  0  1  0  0  0  0  0999 V2000
   25.7418  -22.8822  -17.0741 N   0  0  0  0  0  0  0  0  0  0  0  0
   25.0516  -22.7089  -15.8313 C   0  0  1  0  0  0  0  0  0  0  0  0
   24.2526  -23.9398  -15.4637 C   0  0  0  0  0  0  0  0  0  0  0  0
   23.1308  -24.0018  -16.4332 C   0  0  0  0  0  0  0  0  0  0  0  0
   22.1385  -23.0488  -16.4307 C   0  0  0  0  0  0  0  0  0  0  0  0
   21.0770  -23.0918  -17.3310 C   0  0  0  0  0  0  0  0  0  0  0  0
   20.9875  -24.1113  -18.2703 C   0  0  0  0  0  0  0  0  0  0  0  0
   21.9770  -25.0620  -18.2735 C   0  0  0  0  0  0  0  0  0  0  0  0
   23.0182  -25.0066  -17.3791 C   0  0  0  0  0  0  0  0  0  0  0  0
   25.9127  -22.2018  -14.7558 C   0  0  0  0  0  0  0  0  0  0  0  0
   26.9609  -22.8785  -14.5096 O   0  0  0  0  0  0  0  0  0  0  0  0
   29.4294  -17.6962  -17.9745 O   0  0  0  0  0  0  0  0  0  0  0  0
   28.7772  -18.0309  -16.8078 C   0  0  0  0  0  0  0  0  0  0  0  0
   27.4302  -17.7697  -16.6721 C   0  0  0  0  0  0  0  0  0  0  0  0
   26.7649  -18.0994  -15.5102 C   0  0  0  0  0  0  0  0  0  0  0  0
   27.4004  -18.6971  -14.4414 C   0  0  0  0  0  0  0  0  0  0  0  0
   26.7424  -19.0607  -13.1884 C   0  0  0  0  0  0  0  0  0  0  0  0
   26.5591  -20.5436  -12.9725 C   0  0  2  0  0  0  0  0  0  0  0  0
   25.6684  -21.0497  -13.9977 N   0  0  0  0  0  0  0  0  0  0  0  0
   26.0371  -20.8774  -11.6274 C   0  0  0  0  0  0  0  0  0  0  0  0
   24.8413  -20.6510  -11.2965 O   0  0  0  0  0  0  0  0  0  0  0  0
   28.7478  -18.9536  -14.5885 C   0  0  0  0  0  0  0  0  0  0  0  0
   29.4299  -18.6262  -15.7546 C   0  0  0  0  0  0  0  0  0  0  0  0
   26.8442  -21.4750  -10.6145 N   0  0  0  0  0  0  0  0  0  0  0  0
   26.3963  -21.6888   -9.2602 C   0  0  1  0  0  0  0  0  0  0  0  0
   27.5312  -21.6923   -8.2706 C   0  0  0  0  0  0  0  0  0  0  0  0
   27.5641  -20.4347   -7.4809 C   0  0  0  0  0  0  0  0  0  0  0  0
   26.7699  -19.3324   -7.7118 C   0  0  0  0  0  0  0  0  0  0  0  0
   27.0749  -18.3859   -6.8017 N   0  0  0  0  0  0  0  0  0  0  0  0
   28.0373  -18.8606   -6.0055 C   0  0  0  0  0  0  0  0  0  0  0  0
   28.6741  -18.2658   -4.9355 C   0  0  0  0  0  0  0  0  0  0  0  0
   29.6431  -18.9387   -4.2521 C   0  0  0  0  0  0  0  0  0  0  0  0
   29.9713  -20.2312   -4.6582 C   0  0  0  0  0  0  0  0  0  0  0  0
   29.3519  -20.8395   -5.7170 C   0  0  0  0  0  0  0  0  0  0  0  0
   28.3718  -20.1549   -6.4060 C   0  0  0  0  0  0  0  0  0  0  0  0
   25.4497  -20.6114   -8.8279 C   0  0  0  0  0  0  0  0  0  0  0  0
   25.6808  -19.4130   -9.1396 O   0  0  0  0  0  0  0  0  0  0  0  0
   24.3184  -20.9123   -8.0870 O   0  0  0  0  0  0  0  0  0  0  0  0
  2  1  1  6
  2  3  1  0
  3  4  1  0
  4  9  1  0
  4  5  2  0
  5  6  1  0
  6  7  2  0
  8  7  1  0
  9  8  2  0
 10  2  1  0
 11 10  2  0
 12 13  1  0
 13 14  2  0
 14 15  1  0
 16 15  2  0
 16 17  1  0
 18 17  1  1
 18 20  1  0
 18 19  1  0
 19 10  1  0
 20 21  2  0
 22 16  1  0
 23 13  1  0
 23 22  2  0
 24 25  1  0
 24 20  1  0
 25 26  1  1
 26 27  1  0
 27 28  2  0
 28 29  1  0
 30 29  1  0
 31 30  2  0
 32 31  1  0
 33 34  1  0
 33 32  2  0
 34 35  2  0
 35 27  1  0
 35 30  1  0
 36 25  1  0
 36 38  1  0
 37 36  2  0
M  END
$$$$
