FYW.pdb
     RDKit          3D

 38 41  0  0  1  0  0  0  0  0999 V2000
   22.5744  -13.8002  -16.3846 N   0  0  0  0  0  0  0  0  0  0  0  0
   22.2830  -12.6709  -17.2158 C   0  0  1  0  0  0  0  0  0  0  0  0
   20.8798  -12.7417  -17.7766 C   0  0  0  0  0  0  0  0  0  0  0  0
   20.8599  -13.9211  -18.6770 C   0  0  0  0  0  0  0  0  0  0  0  0
   21.4811  -13.8863  -19.9041 C   0  0  0  0  0  0  0  0  0  0  0  0
   21.4709  -14.9822  -20.7634 C   0  0  0  0  0  0  0  0  0  0  0  0
   20.8251  -16.1577  -20.4023 C   0  0  0  0  0  0  0  0  0  0  0  0
   20.2055  -16.1931  -19.1783 C   0  0  0  0  0  0  0  0  0  0  0  0
   20.2238  -15.1041  -18.3412 C   0  0  0  0  0  0  0  0  0  0  0  0
   22.6213  -11.3872  -16.5889 C   0  0  0  0  0  0  0  0  0  0  0  0
   22.4694  -11.3209  -15.3280 O   0  0  0  0  0  0  0  0  0  0  0  0
   28.7811  -12.3020  -15.5809 O   0  0  0  0  0  0  0  0  0  0  0  0
   27.8042  -11.3919  -15.9212 C   0  0  0  0  0  0  0  0  0  0  0  0
   27.4070  -11.2666  -17.2355 C   0  0  0  0  0  0  0  0  0  0  0  0
   26.4305  -10.3600  -17.5902 C   0  0  0  0  0  0  0  0  0  0  0  0
   25.8105   -9.5452  -16.6655 C   0  0  0  0  0  0  0  0  0  0  0  0
   24.7756   -8.5662  -16.9908 C   0  0  0  0  0  0  0  0  0  0  0  0
   23.3700   -8.9820  -16.6298 C   0  0  2  0  0  0  0  0  0  0  0  0
   23.0902  -10.2540  -17.2654 N   0  0  0  0  0  0  0  0  0  0  0  0
   22.3486   -7.9803  -17.0127 C   0  0  0  0  0  0  0  0  0  0  0  0
   22.0866   -7.7159  -18.2177 O   0  0  0  0  0  0  0  0  0  0  0  0
   26.2159   -9.6793  -15.3538 C   0  0  0  0  0  0  0  0  0  0  0  0
   27.1992  -10.5894  -14.9834 C   0  0  0  0  0  0  0  0  0  0  0  0
   21.5920   -7.2458  -16.0521 N   0  0  0  0  0  0  0  0  0  0  0  0
   20.6399   -6.2202  -16.4014 C   0  0  1  0  0  0  0  0  0  0  0  0
   19.2292   -6.5901  -16.0266 C   0  0  0  0  0  0  0  0  0  0  0  0
   18.2741   -5.5095  -16.3821 C   0  0  0  0  0  0  0  0  0  0  0  0
   18.1053   -4.3371  -15.6779 C   0  0  0  0  0  0  0  0  0  0  0  0
   17.1587   -3.6001  -16.2928 N   0  0  0  0  0  0  0  0  0  0  0  0
   16.7277   -4.2746  -17.3628 C   0  0  0  0  0  0  0  0  0  0  0  0
   15.7716   -3.9336  -18.2976 C   0  0  0  0  0  0  0  0  0  0  0  0
   15.4816   -4.7822  -19.3246 C   0  0  0  0  0  0  0  0  0  0  0  0
   16.1694   -5.9919  -19.4055 C   0  0  0  0  0  0  0  0  0  0  0  0
   17.1213   -6.3494  -18.4886 C   0  0  0  0  0  0  0  0  0  0  0  0
   17.4117   -5.4877  -17.4506 C   0  0  0  0  0  0  0  0  0  0  0  0
   20.9500   -4.9336  -15.6997 C   0  0  0  0  0  0  0  0  0  0  0  0
   21.3108   -4.9500  -14.4930 O   0  0  0  0  0  0  0  0  0  0  0  0
   20.8459   -3.7196  -16.3589 O   0  0  0  0  0  0  0  0  0  0  0  0
  2  1  1  1
  2  3  1  0
  3  4  1  0
  4  9  1  0
  4  5  2  0
  5  6  1  0
  6  7  2  0
  8  7  1  0
  9  8  2  0
 10  2  1  0
 11 10  2  0
 12 13  1  0
 13 14  2  0
 14 15  1  0
 16 15  2  0
 16 17  1  0
 18 17  1  6
 18 20  1  0
 18 19  1  0
 19 10  1  0
 20 21  2  0
 22 16  1  0
 23 13  1  0
 23 22  2  0
 24 25  1  0
 24 20  1  0
 25 26  1  1
 26 27  1  0
 27 28  2  0
 28 29  1  0
 30 29  1  0
 31 30  2  0
 32 31  1  0
 33 34  1  0
 33 32  2  0
 34 35  2  0
 35 27  1  0
 35 30  1  0
 36 25  1  0
 36 38  1  0
 37 36  2  0
M  END
$$$$
