FYW.pdb
     RDKit          3D

 38 41  0  0  1  0  0  0  0  0999 V2000
   29.2861  -20.0017  -19.5361 N   0  0  0  0  0  0  0  0  0  0  0  0
   28.7211  -19.0889  -18.5883 C   0  0  1  0  0  0  0  0  0  0  0  0
   27.9190  -18.0039  -19.2725 C   0  0  0  0  0  0  0  0  0  0  0  0
   28.8876  -17.2404  -20.0978 C   0  0  0  0  0  0  0  0  0  0  0  0
   28.9293  -17.3932  -21.4644 C   0  0  0  0  0  0  0  0  0  0  0  0
   29.8327  -16.6872  -22.2549 C   0  0  0  0  0  0  0  0  0  0  0  0
   30.7298  -15.7964  -21.6795 C   0  0  0  0  0  0  0  0  0  0  0  0
   30.6886  -15.6434  -20.3164 C   0  0  0  0  0  0  0  0  0  0  0  0
   29.7918  -16.3467  -19.5494 C   0  0  0  0  0  0  0  0  0  0  0  0
   28.0189  -19.7583  -17.4864 C   0  0  0  0  0  0  0  0  0  0  0  0
   27.2657  -20.7307  -17.8093 O   0  0  0  0  0  0  0  0  0  0  0  0
   24.8673  -21.3761   -9.2988 O   0  0  0  0  0  0  0  0  0  0  0  0
   25.6041  -20.9540  -10.3839 C   0  0  0  0  0  0  0  0  0  0  0  0
   25.5756  -19.6286  -10.7626 C   0  0  0  0  0  0  0  0  0  0  0  0
   26.3081  -19.1923  -11.8463 C   0  0  0  0  0  0  0  0  0  0  0  0
   27.0941  -20.0435  -12.5952 C   0  0  0  0  0  0  0  0  0  0  0  0
   27.8838  -19.6323  -13.7539 C   0  0  0  0  0  0  0  0  0  0  0  0
   27.2523  -19.9294  -15.0926 C   0  0  2  0  0  0  0  0  0  0  0  0
   28.1175  -19.4107  -16.1332 N   0  0  0  0  0  0  0  0  0  0  0  0
   25.8883  -19.3695  -15.2315 C   0  0  0  0  0  0  0  0  0  0  0  0
   25.6699  -18.1273  -15.2347 O   0  0  0  0  0  0  0  0  0  0  0  0
   27.1150  -21.3671  -12.2072 C   0  0  0  0  0  0  0  0  0  0  0  0
   26.3810  -21.8194  -11.1167 C   0  0  0  0  0  0  0  0  0  0  0  0
   24.7295  -20.1895  -15.3704 N   0  0  0  0  0  0  0  0  0  0  0  0
   23.3853  -19.6691  -15.4225 C   0  0  1  0  0  0  0  0  0  0  0  0
   22.7281  -19.9001  -16.7574 C   0  0  0  0  0  0  0  0  0  0  0  0
   21.4007  -19.2375  -16.8286 C   0  0  0  0  0  0  0  0  0  0  0  0
   21.1966  -17.8766  -16.9012 C   0  0  0  0  0  0  0  0  0  0  0  0
   19.8698  -17.6440  -16.9522 N   0  0  0  0  0  0  0  0  0  0  0  0
   19.2337  -18.8185  -16.9140 C   0  0  0  0  0  0  0  0  0  0  0  0
   17.8818  -19.0940  -16.9399 C   0  0  0  0  0  0  0  0  0  0  0  0
   17.4424  -20.3836  -16.8893 C   0  0  0  0  0  0  0  0  0  0  0  0
   18.3849  -21.4075  -16.8114 C   0  0  0  0  0  0  0  0  0  0  0  0
   19.7306  -21.1560  -16.7844 C   0  0  0  0  0  0  0  0  0  0  0  0
   20.1712  -19.8493  -16.8357 C   0  0  0  0  0  0  0  0  0  0  0  0
   22.5135  -20.3207  -14.3934 C   0  0  0  0  0  0  0  0  0  0  0  0
   22.6719  -21.5401  -14.1202 O   0  0  0  0  0  0  0  0  0  0  0  0
   21.5306  -19.6011  -13.7335 O   0  0  0  0  0  0  0  0  0  0  0  0
  2  1  1  6
  2  3  1  0
  3  4  1  0
  4  9  1  0
  4  5  2  0
  5  6  1  0
  6  7  2  0
  8  7  1  0
  9  8  2  0
 10  2  1  0
 11 10  2  0
 12 13  1  0
 13 14  2  0
 14 15  1  0
 16 15  2  0
 16 17  1  0
 18 17  1  1
 18 20  1  0
 18 19  1  0
 19 10  1  0
 20 21  2  0
 22 16  1  0
 23 13  1  0
 23 22  2  0
 24 25  1  0
 24 20  1  0
 25 26  1  6
 26 27  1  0
 27 28  2  0
 28 29  1  0
 30 29  1  0
 31 30  2  0
 32 31  1  0
 33 34  1  0
 33 32  2  0
 34 35  2  0
 35 27  1  0
 35 30  1  0
 36 25  1  0
 36 38  1  0
 37 36  2  0
M  END
$$$$
