RSH.pdb
     RDKit          3D

 28 28  0  0  1  0  0  0  0  0999 V2000
   16.7279  -16.1105  -22.1688 N   0  0  0  0  0  0  0  0  0  0  0  0
   17.4611  -17.0651  -21.4255 C   0  0  0  0  0  0  0  0  0  0  0  0
   17.5354  -18.3030  -21.8213 N   0  0  0  0  0  0  0  0  0  0  0  0
   18.1209  -16.6393  -20.2262 N   0  0  0  0  0  0  0  0  0  0  0  0
   17.9818  -15.2541  -19.8206 C   0  0  0  0  0  0  0  0  0  0  0  0
   18.7645  -15.0863  -18.5405 C   0  0  0  0  0  0  0  0  0  0  0  0
   18.8132  -13.6438  -18.0802 C   0  0  0  0  0  0  0  0  0  0  0  0
   19.7746  -13.6154  -16.8883 C   0  0  2  0  0  0  0  0  0  0  0  0
   19.5650  -14.8184  -16.1437 N   0  0  0  0  0  0  0  0  0  0  0  0
   19.4685  -12.3925  -16.1035 C   0  0  0  0  0  0  0  0  0  0  0  0
   18.5168  -12.3429  -15.2845 O   0  0  0  0  0  0  0  0  0  0  0  0
   18.0581  -18.9763  -21.2427 O   0  0  0  0  0  0  0  0  0  0  0  0
   22.3474  -10.0804  -15.0663 C   0  0  0  0  0  0  0  0  0  0  0  0
   21.1165   -9.9426  -14.4278 C   0  0  1  0  0  0  0  0  0  0  0  0
   20.0215  -10.0192  -15.4770 N   0  0  0  0  0  0  0  0  0  0  0  0
   20.2513  -11.2167  -16.2517 C   0  0  0  0  0  0  0  0  0  0  0  0
   20.1282   -8.8468  -16.4173 O   0  0  0  0  0  0  0  0  0  0  0  0
   20.9600   -8.9113  -17.3443 N   0  0  0  0  0  0  0  0  0  0  0  0
   19.3270   -7.7101  -16.2720 C   0  0  1  0  0  0  0  0  0  0  0  0
   19.3894   -6.5083  -16.9761 C   0  0  0  0  0  0  0  0  0  0  0  0
   18.2013   -5.5757  -16.9366 C   0  0  0  0  0  0  0  0  0  0  0  0
   18.2962   -4.4136  -17.8195 C   0  0  0  0  0  0  0  0  0  0  0  0
   18.5463   -3.0662  -17.5749 N   0  0  0  0  0  0  0  0  0  0  0  0
   18.4760   -2.3680  -18.7198 C   0  0  0  0  0  0  0  0  0  0  0  0
   18.1873   -3.2537  -19.6709 N   0  0  0  0  0  0  0  0  0  0  0  0
   18.0783   -4.4657  -19.1534 C   0  0  0  0  0  0  0  0  0  0  0  0
   20.6186   -5.7310  -16.8239 O   0  0  0  0  0  0  0  0  0  0  0  0
   21.3358   -5.1844  -17.8727 O   0  0  0  0  0  0  0  0  0  0  0  0
  2  1  1  0
  3  2  2  0
  4  2  1  0
  5  4  1  0
  6  5  1  0
  7  6  1  0
  8  7  1  0
  8  9  1  1
 10  8  1  0
 10 15  1  0
 11 10  2  0
 12 13  1  0
 14 13  1  1
 14 15  1  0
 14 16  1  0
 16 18  1  0
 16 17  2  0
 18 19  1  0
 19 20  1  1
 19 26  1  0
 21 22  2  0
 21 20  1  0
 23 22  1  0
 24 25  2  0
 24 23  1  0
 25 21  1  0
 26 27  1  0
 28 26  2  0
M  END
$$$$
