RSH.pdb
     RDKit          3D

 28 28  0  0  1  0  0  0  0  0999 V2000
   26.4029  -23.8771  -16.9209 N   0  0  0  0  0  0  0  0  0  0  0  0
   25.9916  -25.1782  -16.5478 C   0  0  0  0  0  0  0  0  0  0  0  0
   26.8497  -26.1549  -16.4831 N   0  0  0  0  0  0  0  0  0  0  0  0
   24.6082  -25.3978  -16.2423 N   0  0  0  0  0  0  0  0  0  0  0  0
   23.7603  -24.2411  -16.0278 C   0  0  0  0  0  0  0  0  0  0  0  0
   24.5785  -23.2273  -15.2647 C   0  0  0  0  0  0  0  0  0  0  0  0
   23.7807  -21.9872  -14.9178 C   0  0  0  0  0  0  0  0  0  0  0  0
   24.7593  -21.0408  -14.2160 C   0  0  2  0  0  0  0  0  0  0  0  0
   24.9671  -21.5469  -12.8945 N   0  0  0  0  0  0  0  0  0  0  0  0
   24.1474  -19.6878  -14.2241 C   0  0  0  0  0  0  0  0  0  0  0  0
   23.3482  -19.3087  -13.3317 O   0  0  0  0  0  0  0  0  0  0  0  0
   26.5169  -27.0871  -16.1971 O   0  0  0  0  0  0  0  0  0  0  0  0
   25.3386  -17.1568  -17.1355 C   0  0  0  0  0  0  0  0  0  0  0  0
   24.8414  -16.5244  -15.9977 C   0  0  1  0  0  0  0  0  0  0  0  0
   23.8381  -17.4512  -15.3344 N   0  0  0  0  0  0  0  0  0  0  0  0
   24.4471  -18.7588  -15.2558 C   0  0  0  0  0  0  0  0  0  0  0  0
   22.6084  -17.5779  -16.1957 O   0  0  0  0  0  0  0  0  0  0  0  0
   22.6083  -18.4413  -17.0958 N   0  0  0  0  0  0  0  0  0  0  0  0
   21.4894  -16.7609  -16.0078 C   0  0  1  0  0  0  0  0  0  0  0  0
   20.2708  -16.7885  -16.6848 C   0  0  0  0  0  0  0  0  0  0  0  0
   19.1181  -15.9725  -16.1481 C   0  0  0  0  0  0  0  0  0  0  0  0
   18.6807  -16.3305  -14.7992 C   0  0  0  0  0  0  0  0  0  0  0  0
   18.9740  -17.4116  -13.9727 N   0  0  0  0  0  0  0  0  0  0  0  0
   18.2733  -17.3235  -12.8305 C   0  0  0  0  0  0  0  0  0  0  0  0
   17.5506  -16.2099  -12.9302 N   0  0  0  0  0  0  0  0  0  0  0  0
   17.7813  -15.6134  -14.0876 C   0  0  0  0  0  0  0  0  0  0  0  0
   20.3332  -16.6386  -18.1380 O   0  0  0  0  0  0  0  0  0  0  0  0
   19.3410  -17.0452  -19.0117 O   0  0  0  0  0  0  0  0  0  0  0  0
  2  1  1  0
  3  2  2  0
  4  2  1  0
  5  4  1  0
  6  5  1  0
  7  6  1  0
  8  7  1  0
  8  9  1  1
 10  8  1  0
 10 15  1  0
 11 10  2  0
 12 13  1  0
 14 13  1  1
 14 15  1  0
 14 16  1  0
 16 18  1  0
 16 17  2  0
 18 19  1  0
 19 20  1  6
 19 26  1  0
 21 22  2  0
 21 20  1  0
 23 22  1  0
 24 25  2  0
 24 23  1  0
 25 21  1  0
 26 27  1  0
 28 26  2  0
M  END
$$$$
