RSH.pdb
     RDKit          3D

 28 28  0  0  1  0  0  0  0  0999 V2000
   18.0946  -16.4245    3.8019 N   0  0  0  0  0  0  0  0  0  0  0  0
   16.7303  -16.1006    3.6151 C   0  0  0  0  0  0  0  0  0  0  0  0
   15.8151  -17.0257    3.6517 N   0  0  0  0  0  0  0  0  0  0  0  0
   16.3771  -14.7304    3.3844 N   0  0  0  0  0  0  0  0  0  0  0  0
   17.4416  -13.7474    3.3262 C   0  0  0  0  0  0  0  0  0  0  0  0
   17.7836  -13.3798    4.7501 C   0  0  0  0  0  0  0  0  0  0  0  0
   19.0306  -12.5243    4.8402 C   0  0  0  0  0  0  0  0  0  0  0  0
   19.2225  -12.2169    6.3283 C   0  0  2  0  0  0  0  0  0  0  0  0
   20.2134  -11.1902    6.4263 N   0  0  0  0  0  0  0  0  0  0  0  0
   19.6358  -13.4802    6.9902 C   0  0  0  0  0  0  0  0  0  0  0  0
   20.8393  -13.8329    7.0684 O   0  0  0  0  0  0  0  0  0  0  0  0
   14.8274  -16.7476    3.5596 O   0  0  0  0  0  0  0  0  0  0  0  0
   17.0159  -15.3469    9.5474 C   0  0  0  0  0  0  0  0  0  0  0  0
   18.4003  -15.3841    9.7018 C   0  0  1  0  0  0  0  0  0  0  0  0
   19.0319  -15.5238    8.3280 N   0  0  0  0  0  0  0  0  0  0  0  0
   18.6723  -14.3491    7.5679 C   0  0  0  0  0  0  0  0  0  0  0  0
   18.4513  -16.7172    7.6148 O   0  0  0  0  0  0  0  0  0  0  0  0
   17.4937  -16.5287    6.8382 N   0  0  0  0  0  0  0  0  0  0  0  0
   18.9570  -18.0070    7.8041 C   0  0  1  0  0  0  0  0  0  0  0  0
   18.5038  -19.2062    7.2560 C   0  0  0  0  0  0  0  0  0  0  0  0
   18.9526  -19.5896    5.8651 C   0  0  0  0  0  0  0  0  0  0  0  0
   18.3796  -20.8327    5.3499 C   0  0  0  0  0  0  0  0  0  0  0  0
   18.8357  -22.1479    5.3497 N   0  0  0  0  0  0  0  0  0  0  0  0
   17.9677  -22.9380    4.6973 C   0  0  0  0  0  0  0  0  0  0  0  0
   16.9815  -22.1408    4.2920 N   0  0  0  0  0  0  0  0  0  0  0  0
   17.2117  -20.8948    4.6704 C   0  0  0  0  0  0  0  0  0  0  0  0
   18.5669  -20.3808    8.1246 O   0  0  0  0  0  0  0  0  0  0  0  0
   17.6026  -21.3709    8.1762 O   0  0  0  0  0  0  0  0  0  0  0  0
  2  1  1  0
  3  2  2  0
  4  2  1  0
  5  4  1  0
  6  5  1  0
  7  6  1  0
  8  7  1  0
  8  9  1  6
 10  8  1  0
 10 15  1  0
 11 10  2  0
 12 13  1  0
 14 13  1  1
 14 15  1  0
 14 16  1  0
 16 18  1  0
 16 17  2  0
 18 19  1  0
 19 20  1  1
 19 26  1  0
 21 22  2  0
 21 20  1  0
 23 22  1  0
 24 25  2  0
 24 23  1  0
 25 21  1  0
 26 27  1  0
 28 26  2  0
M  END
$$$$
