RSH.pdb
     RDKit          3D

 28 28  0  0  1  0  0  0  0  0999 V2000
   39.7424  -12.6415   -6.9936 N   0  0  0  0  0  0  0  0  0  0  0  0
   38.7685  -11.6241   -7.1262 C   0  0  0  0  0  0  0  0  0  0  0  0
   37.7540  -11.5634   -6.3128 N   0  0  0  0  0  0  0  0  0  0  0  0
   38.9232  -10.6607   -8.1765 N   0  0  0  0  0  0  0  0  0  0  0  0
   40.1737  -10.6399   -8.9105 C   0  0  0  0  0  0  0  0  0  0  0  0
   41.1163   -9.7348   -8.1543 C   0  0  0  0  0  0  0  0  0  0  0  0
   42.4784   -9.6442   -8.8111 C   0  0  0  0  0  0  0  0  0  0  0  0
   43.3302   -8.7633   -7.8923 C   0  0  2  0  0  0  0  0  0  0  0  0
   43.5028   -9.4730   -6.6626 N   0  0  0  0  0  0  0  0  0  0  0  0
   42.6067   -7.4783   -7.7180 C   0  0  0  0  0  0  0  0  0  0  0  0
   41.7893   -7.2912   -6.7822 O   0  0  0  0  0  0  0  0  0  0  0  0
   37.0688  -10.8035   -6.4332 O   0  0  0  0  0  0  0  0  0  0  0  0
   43.2695   -4.5861  -10.4836 C   0  0  0  0  0  0  0  0  0  0  0  0
   43.0110   -4.0928   -9.2063 C   0  0  1  0  0  0  0  0  0  0  0  0
   42.1709   -5.1138   -8.4595 N   0  0  0  0  0  0  0  0  0  0  0  0
   42.8149   -6.3974   -8.6156 C   0  0  0  0  0  0  0  0  0  0  0  0
   40.8058   -5.2149   -9.0891 O   0  0  0  0  0  0  0  0  0  0  0  0
   40.6486   -6.0263  -10.0231 N   0  0  0  0  0  0  0  0  0  0  0  0
   39.7332   -4.4308   -8.6535 C   0  0  1  0  0  0  0  0  0  0  0  0
   38.4076   -4.4564   -9.0850 C   0  0  0  0  0  0  0  0  0  0  0  0
   37.3034   -4.3310   -8.0614 C   0  0  0  0  0  0  0  0  0  0  0  0
   37.2750   -5.3857   -7.0486 C   0  0  0  0  0  0  0  0  0  0  0  0
   38.0500   -6.5263   -6.8583 N   0  0  0  0  0  0  0  0  0  0  0  0
   37.5960   -7.2229   -5.8038 C   0  0  0  0  0  0  0  0  0  0  0  0
   36.5548   -6.5386   -5.3348 N   0  0  0  0  0  0  0  0  0  0  0  0
   36.3539   -5.4515   -6.0603 C   0  0  0  0  0  0  0  0  0  0  0  0
   38.0874   -3.6255  -10.2449 O   0  0  0  0  0  0  0  0  0  0  0  0
   36.8697   -3.6302  -10.9008 O   0  0  0  0  0  0  0  0  0  0  0  0
  2  1  1  0
  3  2  2  0
  4  2  1  0
  5  4  1  0
  6  5  1  0
  7  6  1  0
  8  7  1  0
  8  9  1  1
 10  8  1  0
 10 15  1  0
 11 10  2  0
 12 13  1  0
 14 13  1  1
 14 15  1  0
 14 16  1  0
 16 18  1  0
 16 17  2  0
 18 19  1  0
 19 20  1  6
 19 26  1  0
 21 22  2  0
 21 20  1  0
 23 22  1  0
 24 25  2  0
 24 23  1  0
 25 21  1  0
 26 27  1  0
 28 26  2  0
M  END
$$$$
