RSH.pdb
     RDKit          3D

 28 28  0  0  1  0  0  0  0  0999 V2000
   28.3385  -21.5725  -15.8838 N   0  0  0  0  0  0  0  0  0  0  0  0
   28.2386  -22.3224  -17.0791 C   0  0  0  0  0  0  0  0  0  0  0  0
   29.1776  -23.1559  -17.4227 N   0  0  0  0  0  0  0  0  0  0  0  0
   27.0800  -22.1444  -17.9044 N   0  0  0  0  0  0  0  0  0  0  0  0
   25.8935  -21.5636  -17.3063 C   0  0  0  0  0  0  0  0  0  0  0  0
   25.3324  -22.5884  -16.3500 C   0  0  0  0  0  0  0  0  0  0  0  0
   24.0295  -22.1375  -15.7223 C   0  0  0  0  0  0  0  0  0  0  0  0
   24.3937  -20.9877  -14.7783 C   0  0  2  0  0  0  0  0  0  0  0  0
   25.2574  -21.5214  -13.7710 N   0  0  0  0  0  0  0  0  0  0  0  0
   23.1242  -20.4533  -14.2234 C   0  0  0  0  0  0  0  0  0  0  0  0
   22.5566  -20.9722  -13.2297 O   0  0  0  0  0  0  0  0  0  0  0  0
   29.0821  -23.6693  -18.3108 O   0  0  0  0  0  0  0  0  0  0  0  0
   21.4080  -17.4513  -16.2441 C   0  0  0  0  0  0  0  0  0  0  0  0
   21.1695  -17.3359  -14.8761 C   0  0  1  0  0  0  0  0  0  0  0  0
   21.3088  -18.7113  -14.2480 N   0  0  0  0  0  0  0  0  0  0  0  0
   22.4955  -19.3196  -14.8036 C   0  0  0  0  0  0  0  0  0  0  0  0
   20.1362  -19.5742  -14.6359 O   0  0  0  0  0  0  0  0  0  0  0  0
   20.1414  -20.0977  -15.7679 N   0  0  0  0  0  0  0  0  0  0  0  0
   19.0635  -19.7944  -13.7665 C   0  0  1  0  0  0  0  0  0  0  0  0
   17.8887  -20.5079  -14.0006 C   0  0  0  0  0  0  0  0  0  0  0  0
   17.6026  -21.7371  -13.1699 C   0  0  0  0  0  0  0  0  0  0  0  0
   18.5539  -22.8349  -13.3398 C   0  0  0  0  0  0  0  0  0  0  0  0
   19.9411  -22.8666  -13.4529 N   0  0  0  0  0  0  0  0  0  0  0  0
   20.3597  -24.1267  -13.6531 C   0  0  0  0  0  0  0  0  0  0  0  0
   19.2612  -24.8788  -13.6667 N   0  0  0  0  0  0  0  0  0  0  0  0
   18.1877  -24.1290  -13.4828 C   0  0  0  0  0  0  0  0  0  0  0  0
   16.6653  -19.7177  -14.1308 O   0  0  0  0  0  0  0  0  0  0  0  0
   15.4182  -20.2439  -14.4150 O   0  0  0  0  0  0  0  0  0  0  0  0
  2  1  1  0
  3  2  2  0
  4  2  1  0
  5  4  1  0
  6  5  1  0
  7  6  1  0
  8  7  1  0
  8  9  1  1
 10  8  1  0
 10 15  1  0
 11 10  2  0
 12 13  1  0
 14 13  1  1
 14 15  1  0
 14 16  1  0
 16 18  1  0
 16 17  2  0
 18 19  1  0
 19 20  1  6
 19 26  1  0
 21 22  2  0
 21 20  1  0
 23 22  1  0
 24 25  2  0
 24 23  1  0
 25 21  1  0
 26 27  1  0
 28 26  2  0
M  END
$$$$
