RSH.pdb
     RDKit          3D

 28 28  0  0  1  0  0  0  0  0999 V2000
   37.9195  -11.1268   -6.7469 N   0  0  0  0  0  0  0  0  0  0  0  0
   37.3088   -9.8546   -6.8452 C   0  0  0  0  0  0  0  0  0  0  0  0
   36.1439   -9.6319   -6.3086 N   0  0  0  0  0  0  0  0  0  0  0  0
   38.0011   -8.8152   -7.5492 N   0  0  0  0  0  0  0  0  0  0  0  0
   38.6717   -9.1548   -8.7893 C   0  0  0  0  0  0  0  0  0  0  0  0
   40.1563   -9.0697   -8.5279 C   0  0  0  0  0  0  0  0  0  0  0  0
   40.9775   -9.4495   -9.7429 C   0  0  0  0  0  0  0  0  0  0  0  0
   42.4428   -9.2925   -9.3255 C   0  0  2  0  0  0  0  0  0  0  0  0
   42.6640  -10.1639   -8.2132 N   0  0  0  0  0  0  0  0  0  0  0  0
   42.6543   -7.8623   -8.9866 C   0  0  0  0  0  0  0  0  0  0  0  0
   42.7320   -7.4597   -7.7988 O   0  0  0  0  0  0  0  0  0  0  0  0
   35.7064   -8.7088   -6.4426 O   0  0  0  0  0  0  0  0  0  0  0  0
   42.7579   -5.1444  -12.0409 C   0  0  0  0  0  0  0  0  0  0  0  0
   43.6772   -4.9159  -11.0189 C   0  0  1  0  0  0  0  0  0  0  0  0
   43.1221   -5.5060   -9.7346 N   0  0  0  0  0  0  0  0  0  0  0  0
   42.7783   -6.8823  -10.0072 C   0  0  0  0  0  0  0  0  0  0  0  0
   41.8526   -4.7924   -9.3483 O   0  0  0  0  0  0  0  0  0  0  0  0
   40.7722   -5.2393   -9.7827 N   0  0  0  0  0  0  0  0  0  0  0  0
   41.8637   -3.6605   -8.5275 C   0  0  1  0  0  0  0  0  0  0  0  0
   40.7803   -2.9268   -8.0458 C   0  0  0  0  0  0  0  0  0  0  0  0
   40.9577   -2.0973   -6.7954 C   0  0  0  0  0  0  0  0  0  0  0  0
   39.7466   -1.4319   -6.3164 C   0  0  0  0  0  0  0  0  0  0  0  0
   39.0603   -0.3023   -6.7533 N   0  0  0  0  0  0  0  0  0  0  0  0
   38.0193   -0.0519   -5.9427 C   0  0  0  0  0  0  0  0  0  0  0  0
   38.0447   -1.0026   -5.0111 N   0  0  0  0  0  0  0  0  0  0  0  0
   39.0594   -1.8244   -5.2195 C   0  0  0  0  0  0  0  0  0  0  0  0
   40.0290   -2.1550   -9.0347 O   0  0  0  0  0  0  0  0  0  0  0  0
   38.6575   -1.9768   -9.0133 O   0  0  0  0  0  0  0  0  0  0  0  0
  2  1  1  0
  3  2  2  0
  4  2  1  0
  5  4  1  0
  6  5  1  0
  7  6  1  0
  8  7  1  0
  8  9  1  1
 10  8  1  0
 10 15  1  0
 11 10  2  0
 12 13  1  0
 14 13  1  1
 14 15  1  0
 14 16  1  0
 16 18  1  0
 16 17  2  0
 18 19  1  0
 19 20  1  6
 19 26  1  0
 21 22  2  0
 21 20  1  0
 23 22  1  0
 24 25  2  0
 24 23  1  0
 25 21  1  0
 26 27  1  0
 28 26  2  0
M  END
$$$$
