RSH.pdb
     RDKit          3D

 28 28  0  0  1  0  0  0  0  0999 V2000
   10.0116  -19.5353    2.9377 N   0  0  0  0  0  0  0  0  0  0  0  0
    9.4409  -20.6219    3.6410 C   0  0  0  0  0  0  0  0  0  0  0  0
    8.2592  -21.0701    3.3292 N   0  0  0  0  0  0  0  0  0  0  0  0
   10.1928  -21.2192    4.7056 N   0  0  0  0  0  0  0  0  0  0  0  0
   11.6314  -21.0367    4.7166 C   0  0  0  0  0  0  0  0  0  0  0  0
   12.2114  -22.0280    3.7366 C   0  0  0  0  0  0  0  0  0  0  0  0
   13.7260  -22.0015    3.7192 C   0  0  0  0  0  0  0  0  0  0  0  0
   14.1154  -20.8801    2.7514 C   0  0  2  0  0  0  0  0  0  0  0  0
   14.0133  -21.4075    1.4259 N   0  0  0  0  0  0  0  0  0  0  0  0
   15.4964  -20.4581    3.0977 C   0  0  0  0  0  0  0  0  0  0  0  0
   16.5102  -21.0327    2.6276 O   0  0  0  0  0  0  0  0  0  0  0  0
    7.8988  -21.8991    3.8235 O   0  0  0  0  0  0  0  0  0  0  0  0
   15.8755  -17.2755    5.5765 C   0  0  0  0  0  0  0  0  0  0  0  0
   16.8891  -17.3903    4.6272 C   0  0  1  0  0  0  0  0  0  0  0  0
   17.0451  -18.8575    4.2683 N   0  0  0  0  0  0  0  0  0  0  0  0
   15.7258  -19.3738    3.9859 C   0  0  0  0  0  0  0  0  0  0  0  0
   17.5843  -19.6208    5.4502 O   0  0  0  0  0  0  0  0  0  0  0  0
   16.7671  -20.1435    6.2340 N   0  0  0  0  0  0  0  0  0  0  0  0
   18.9574  -19.7510    5.6794 C   0  0  1  0  0  0  0  0  0  0  0  0
   19.6043  -20.3580    6.7551 C   0  0  0  0  0  0  0  0  0  0  0  0
   20.5102  -21.5381    6.4915 C   0  0  0  0  0  0  0  0  0  0  0  0
   19.8902  -22.6447    5.7636 C   0  0  0  0  0  0  0  0  0  0  0  0
   19.6065  -22.8398    4.4148 N   0  0  0  0  0  0  0  0  0  0  0  0
   18.9711  -24.0099    4.2408 C   0  0  0  0  0  0  0  0  0  0  0  0
   18.8540  -24.5460    5.4537 N   0  0  0  0  0  0  0  0  0  0  0  0
   19.3924  -23.7506    6.3625 C   0  0  0  0  0  0  0  0  0  0  0  0
   20.2464  -19.4613    7.7152 O   0  0  0  0  0  0  0  0  0  0  0  0
   20.7149  -19.8482    8.9577 O   0  0  0  0  0  0  0  0  0  0  0  0
  2  1  1  0
  3  2  2  0
  4  2  1  0
  5  4  1  0
  6  5  1  0
  7  6  1  0
  8  7  1  0
  8  9  1  6
 10  8  1  0
 10 15  1  0
 11 10  2  0
 12 13  1  0
 14 13  1  6
 14 15  1  0
 14 16  1  0
 16 18  1  0
 16 17  2  0
 18 19  1  0
 19 20  1  1
 19 26  1  0
 21 22  2  0
 21 20  1  0
 23 22  1  0
 24 25  2  0
 24 23  1  0
 25 21  1  0
 26 27  1  0
 28 26  2  0
M  END
$$$$
