RSH.pdb
     RDKit          3D

 28 28  0  0  1  0  0  0  0  0999 V2000
   15.7650  -15.2201  -13.1456 N   0  0  0  0  0  0  0  0  0  0  0  0
   15.3541  -15.5993  -14.4450 C   0  0  0  0  0  0  0  0  0  0  0  0
   14.5334  -16.5945  -14.6199 N   0  0  0  0  0  0  0  0  0  0  0  0
   15.8615  -14.8634  -15.5658 N   0  0  0  0  0  0  0  0  0  0  0  0
   16.8222  -13.8065  -15.3152 C   0  0  0  0  0  0  0  0  0  0  0  0
   16.7030  -12.8204  -16.4523 C   0  0  0  0  0  0  0  0  0  0  0  0
   17.7769  -11.7531  -16.4038 C   0  0  0  0  0  0  0  0  0  0  0  0
   17.5415  -10.8643  -17.6288 C   0  0  2  0  0  0  0  0  0  0  0  0
   17.5695  -11.7114  -18.7808 N   0  0  0  0  0  0  0  0  0  0  0  0
   18.6152   -9.8387  -17.6427 C   0  0  0  0  0  0  0  0  0  0  0  0
   19.5645   -9.8738  -18.4652 O   0  0  0  0  0  0  0  0  0  0  0  0
   14.2960  -16.8761  -15.5821 O   0  0  0  0  0  0  0  0  0  0  0  0
   18.9411   -7.2000  -14.4783 C   0  0  0  0  0  0  0  0  0  0  0  0
   19.1754   -6.6593  -15.7410 C   0  0  1  0  0  0  0  0  0  0  0  0
   19.6562   -7.7712  -16.6565 N   0  0  0  0  0  0  0  0  0  0  0  0
   18.6088   -8.7644  -16.7137 C   0  0  0  0  0  0  0  0  0  0  0  0
   20.8733   -8.4335  -16.0648 O   0  0  0  0  0  0  0  0  0  0  0  0
   20.7349   -9.5579  -15.5433 N   0  0  0  0  0  0  0  0  0  0  0  0
   22.1305   -7.8220  -16.0893 C   0  0  1  0  0  0  0  0  0  0  0  0
   23.3774   -8.3902  -15.8314 C   0  0  0  0  0  0  0  0  0  0  0  0
   23.6687   -9.7792  -16.3497 C   0  0  0  0  0  0  0  0  0  0  0  0
   24.9795  -10.3148  -15.9836 C   0  0  0  0  0  0  0  0  0  0  0  0
   26.0054   -9.8212  -15.1824 N   0  0  0  0  0  0  0  0  0  0  0  0
   27.0505  -10.6643  -15.1984 C   0  0  0  0  0  0  0  0  0  0  0  0
   26.6951  -11.6717  -15.9930 N   0  0  0  0  0  0  0  0  0  0  0  0
   25.4746  -11.4784  -16.4635 C   0  0  0  0  0  0  0  0  0  0  0  0
   24.5402   -7.5345  -16.0634 O   0  0  0  0  0  0  0  0  0  0  0  0
   25.7798   -7.7203  -15.4788 O   0  0  0  0  0  0  0  0  0  0  0  0
  2  1  1  0
  3  2  2  0
  4  2  1  0
  5  4  1  0
  6  5  1  0
  7  6  1  0
  8  7  1  0
  8  9  1  6
 10  8  1  0
 10 15  1  0
 11 10  2  0
 12 13  1  0
 14 13  1  6
 14 15  1  0
 14 16  1  0
 16 18  1  0
 16 17  2  0
 18 19  1  0
 19 20  1  1
 19 26  1  0
 21 22  2  0
 21 20  1  0
 23 22  1  0
 24 25  2  0
 24 23  1  0
 25 21  1  0
 26 27  1  0
 28 26  2  0
M  END
$$$$
