RSH.pdb
     RDKit          3D

 28 28  0  0  1  0  0  0  0  0999 V2000
   23.0852  -17.2166  -23.0943 N   0  0  0  0  0  0  0  0  0  0  0  0
   21.7099  -17.3306  -23.4055 C   0  0  0  0  0  0  0  0  0  0  0  0
   21.2673  -18.3319  -24.1098 N   0  0  0  0  0  0  0  0  0  0  0  0
   20.8136  -16.3186  -22.9281 N   0  0  0  0  0  0  0  0  0  0  0  0
   21.3682  -15.0335  -22.5490 C   0  0  0  0  0  0  0  0  0  0  0  0
   21.9324  -15.1875  -21.1571 C   0  0  0  0  0  0  0  0  0  0  0  0
   21.2574  -14.2710  -20.1575 C   0  0  0  0  0  0  0  0  0  0  0  0
   22.1224  -13.0086  -20.0942 C   0  0  2  0  0  0  0  0  0  0  0  0
   23.4829  -13.4161  -20.2628 N   0  0  0  0  0  0  0  0  0  0  0  0
   21.8728  -12.3681  -18.7780 C   0  0  0  0  0  0  0  0  0  0  0  0
   20.7387  -11.9416  -18.4449 O   0  0  0  0  0  0  0  0  0  0  0  0
   20.2518  -18.4206  -24.2589 O   0  0  0  0  0  0  0  0  0  0  0  0
   25.1004  -11.1520  -16.6132 C   0  0  0  0  0  0  0  0  0  0  0  0
   24.0566  -11.6206  -15.8179 C   0  0  1  0  0  0  0  0  0  0  0  0
   22.7608  -11.4812  -16.5973 N   0  0  0  0  0  0  0  0  0  0  0  0
   22.9217  -12.2115  -17.8332 C   0  0  0  0  0  0  0  0  0  0  0  0
   22.5295  -10.0359  -16.9547 O   0  0  0  0  0  0  0  0  0  0  0  0
   22.9484   -9.6292  -18.0567 N   0  0  0  0  0  0  0  0  0  0  0  0
   21.8665   -9.1597  -16.0899 C   0  0  1  0  0  0  0  0  0  0  0  0
   21.5999   -7.8025  -16.2658 C   0  0  0  0  0  0  0  0  0  0  0  0
   20.6155   -7.3836  -17.3327 C   0  0  0  0  0  0  0  0  0  0  0  0
   20.4429   -5.9391  -17.4836 C   0  0  0  0  0  0  0  0  0  0  0  0
   19.5391   -5.0381  -16.9276 N   0  0  0  0  0  0  0  0  0  0  0  0
   19.7487   -3.8079  -17.4237 C   0  0  0  0  0  0  0  0  0  0  0  0
   20.7641   -3.9260  -18.2765 N   0  0  0  0  0  0  0  0  0  0  0  0
   21.1839   -5.1791  -18.3218 C   0  0  0  0  0  0  0  0  0  0  0  0
   21.3538   -7.0274  -15.0506 O   0  0  0  0  0  0  0  0  0  0  0  0
   21.1266   -7.5775  -13.8020 O   0  0  0  0  0  0  0  0  0  0  0  0
  2  1  1  0
  3  2  2  0
  4  2  1  0
  5  4  1  0
  6  5  1  0
  7  6  1  0
  8  7  1  0
  8  9  1  1
 10  8  1  0
 10 15  1  0
 11 10  2  0
 12 13  1  0
 14 13  1  1
 14 15  1  0
 14 16  1  0
 16 18  1  0
 16 17  2  0
 18 19  1  0
 19 20  1  1
 19 26  1  0
 21 22  2  0
 21 20  1  0
 23 22  1  0
 24 25  2  0
 24 23  1  0
 25 21  1  0
 26 27  1  0
 28 26  2  0
M  END
$$$$
