RSH.pdb
     RDKit          3D

 28 28  0  0  1  0  0  0  0  0999 V2000
   17.8366  -24.7669  -11.8433 N   0  0  0  0  0  0  0  0  0  0  0  0
   17.7746  -23.4796  -11.2601 C   0  0  0  0  0  0  0  0  0  0  0  0
   17.6339  -23.3373   -9.9738 N   0  0  0  0  0  0  0  0  0  0  0  0
   17.8702  -22.3342  -12.1171 N   0  0  0  0  0  0  0  0  0  0  0  0
   18.0857  -22.5531  -13.5343 C   0  0  0  0  0  0  0  0  0  0  0  0
   19.5765  -22.5043  -13.7686 C   0  0  0  0  0  0  0  0  0  0  0  0
   19.9327  -22.6193  -15.2364 C   0  0  0  0  0  0  0  0  0  0  0  0
   21.4629  -22.6463  -15.2966 C   0  0  2  0  0  0  0  0  0  0  0  0
   21.9354  -22.9379  -13.9786 N   0  0  0  0  0  0  0  0  0  0  0  0
   21.9088  -21.3174  -15.7866 C   0  0  0  0  0  0  0  0  0  0  0  0
   22.3505  -20.4316  -15.0124 O   0  0  0  0  0  0  0  0  0  0  0  0
   17.5947  -22.3848   -9.5833 O   0  0  0  0  0  0  0  0  0  0  0  0
   21.4186  -20.4950  -19.7583 C   0  0  0  0  0  0  0  0  0  0  0  0
   22.5131  -19.8675  -19.1666 C   0  0  1  0  0  0  0  0  0  0  0  0
   22.2244  -19.6972  -17.6856 N   0  0  0  0  0  0  0  0  0  0  0  0
   21.8517  -20.9935  -17.1683 C   0  0  0  0  0  0  0  0  0  0  0  0
   21.0449  -18.7795  -17.4944 O   0  0  0  0  0  0  0  0  0  0  0  0
   19.9062  -19.2870  -17.4565 N   0  0  0  0  0  0  0  0  0  0  0  0
   21.2009  -17.3964  -17.3612 C   0  0  1  0  0  0  0  0  0  0  0  0
   20.2147  -16.4216  -17.2154 C   0  0  0  0  0  0  0  0  0  0  0  0
   20.1526  -15.6318  -15.9289 C   0  0  0  0  0  0  0  0  0  0  0  0
   20.0017  -16.4346  -14.7157 C   0  0  0  0  0  0  0  0  0  0  0  0
   19.8096  -17.7978  -14.5095 N   0  0  0  0  0  0  0  0  0  0  0  0
   19.6708  -18.0517  -13.1981 C   0  0  0  0  0  0  0  0  0  0  0  0
   19.7727  -16.8743  -12.5852 N   0  0  0  0  0  0  0  0  0  0  0  0
   19.9682  -15.9105  -13.4693 C   0  0  0  0  0  0  0  0  0  0  0  0
   20.0263  -15.5158  -18.3477 O   0  0  0  0  0  0  0  0  0  0  0  0
   20.8912  -15.4127  -19.4220 O   0  0  0  0  0  0  0  0  0  0  0  0
  2  1  1  0
  3  2  2  0
  4  2  1  0
  5  4  1  0
  6  5  1  0
  7  6  1  0
  8  7  1  0
  8  9  1  1
 10  8  1  0
 10 15  1  0
 11 10  2  0
 12 13  1  0
 14 13  1  1
 14 15  1  0
 14 16  1  0
 16 18  1  0
 16 17  2  0
 18 19  1  0
 19 20  1  6
 19 26  1  0
 21 22  2  0
 21 20  1  0
 23 22  1  0
 24 25  2  0
 24 23  1  0
 25 21  1  0
 26 27  1  0
 28 26  2  0
M  END
$$$$
