RSH.pdb
     RDKit          3D

 28 28  0  0  1  0  0  0  0  0999 V2000
   49.5570  -12.7983   -6.4922 N   0  0  0  0  0  0  0  0  0  0  0  0
   48.9158  -13.6710   -5.5821 C   0  0  0  0  0  0  0  0  0  0  0  0
   49.5584  -14.1552   -4.5587 N   0  0  0  0  0  0  0  0  0  0  0  0
   47.5421  -14.0109   -5.8113 N   0  0  0  0  0  0  0  0  0  0  0  0
   46.8468  -13.3595   -6.9046 C   0  0  0  0  0  0  0  0  0  0  0  0
   46.0839  -12.1977   -6.3149 C   0  0  0  0  0  0  0  0  0  0  0  0
   45.3374  -11.4051   -7.3682 C   0  0  0  0  0  0  0  0  0  0  0  0
   44.1692  -12.2910   -7.8111 C   0  0  2  0  0  0  0  0  0  0  0  0
   44.6407  -13.1126   -8.8826 N   0  0  0  0  0  0  0  0  0  0  0  0
   43.0627  -11.3897   -8.2215 C   0  0  0  0  0  0  0  0  0  0  0  0
   42.9021  -11.0259   -9.4134 O   0  0  0  0  0  0  0  0  0  0  0  0
   49.0600  -14.7882   -3.9166 O   0  0  0  0  0  0  0  0  0  0  0  0
   40.7241   -9.6423   -5.3175 C   0  0  0  0  0  0  0  0  0  0  0  0
   40.0454  -10.0680   -6.4576 C   0  0  1  0  0  0  0  0  0  0  0  0
   41.0154  -10.0538   -7.6258 N   0  0  0  0  0  0  0  0  0  0  0  0
   42.1316  -10.8983   -7.2682 C   0  0  0  0  0  0  0  0  0  0  0  0
   41.5518   -8.6609   -7.8310 O   0  0  0  0  0  0  0  0  0  0  0  0
   42.5400   -8.3070   -7.1573 N   0  0  0  0  0  0  0  0  0  0  0  0
   40.9730   -7.7753   -8.7452 C   0  0  2  0  0  0  0  0  0  0  0  0
   41.3702   -6.4784   -9.0681 C   0  0  0  0  0  0  0  0  0  0  0  0
   41.1727   -5.9844  -10.4822 C   0  0  0  0  0  0  0  0  0  0  0  0
   41.7355   -4.6637  -10.7614 C   0  0  0  0  0  0  0  0  0  0  0  0
   43.0213   -4.2401  -11.0857 N   0  0  0  0  0  0  0  0  0  0  0  0
   43.0534   -2.9020  -11.1942 C   0  0  0  0  0  0  0  0  0  0  0  0
   41.8140   -2.4853  -10.9440 N   0  0  0  0  0  0  0  0  0  0  0  0
   41.0253   -3.5150  -10.6868 C   0  0  0  0  0  0  0  0  0  0  0  0
   40.9771   -5.4276   -8.1303 O   0  0  0  0  0  0  0  0  0  0  0  0
   41.7158   -4.2862   -7.8766 O   0  0  0  0  0  0  0  0  0  0  0  0
  2  1  1  0
  3  2  2  0
  4  2  1  0
  5  4  1  0
  6  5  1  0
  7  6  1  0
  8  7  1  0
  8  9  1  6
 10  8  1  0
 10 15  1  0
 11 10  2  0
 12 13  1  0
 14 13  1  6
 14 15  1  0
 14 16  1  0
 16 18  1  0
 16 17  2  0
 18 19  1  0
 19 20  1  1
 19 26  1  0
 21 22  2  0
 21 20  1  0
 23 22  1  0
 24 25  2  0
 24 23  1  0
 25 21  1  0
 26 27  1  0
 28 26  2  0
M  END
$$$$
