RSH.pdb
     RDKit          3D

 28 28  0  0  1  0  0  0  0  0999 V2000
   25.6754  -18.9958  -24.0005 N   0  0  0  0  0  0  0  0  0  0  0  0
   26.2792  -18.4908  -22.8251 C   0  0  0  0  0  0  0  0  0  0  0  0
   27.4619  -17.9484  -22.8643 N   0  0  0  0  0  0  0  0  0  0  0  0
   25.5598  -18.5893  -21.5890 N   0  0  0  0  0  0  0  0  0  0  0  0
   24.2514  -19.2143  -21.6040 C   0  0  0  0  0  0  0  0  0  0  0  0
   23.6957  -19.1129  -20.2038 C   0  0  0  0  0  0  0  0  0  0  0  0
   24.5232  -19.8871  -19.1985 C   0  0  0  0  0  0  0  0  0  0  0  0
   23.8745  -19.6317  -17.8347 C   0  0  2  0  0  0  0  0  0  0  0  0
   23.7917  -18.2144  -17.6617 N   0  0  0  0  0  0  0  0  0  0  0  0
   24.7270  -20.2873  -16.8108 C   0  0  0  0  0  0  0  0  0  0  0  0
   24.9111  -21.5301  -16.7883 O   0  0  0  0  0  0  0  0  0  0  0  0
   27.8455  -17.5362  -22.0015 O   0  0  0  0  0  0  0  0  0  0  0  0
   28.5108  -20.0344  -14.0998 C   0  0  0  0  0  0  0  0  0  0  0  0
   27.6417  -19.5108  -15.0549 C   0  0  1  0  0  0  0  0  0  0  0  0
   26.2640  -20.1072  -14.8268 N   0  0  0  0  0  0  0  0  0  0  0  0
   25.3752  -19.5230  -15.8044 C   0  0  0  0  0  0  0  0  0  0  0  0
   25.7544  -19.7163  -13.4639 O   0  0  0  0  0  0  0  0  0  0  0  0
   25.5208  -18.5103  -13.2480 N   0  0  0  0  0  0  0  0  0  0  0  0
   25.5427  -20.6627  -12.4567 C   0  0  1  0  0  0  0  0  0  0  0  0
   25.1771  -20.4496  -11.1282 C   0  0  0  0  0  0  0  0  0  0  0  0
   23.8250  -20.9313  -10.6561 C   0  0  0  0  0  0  0  0  0  0  0  0
   22.6996  -20.5521  -11.5097 C   0  0  0  0  0  0  0  0  0  0  0  0
   22.4530  -20.7220  -12.8692 N   0  0  0  0  0  0  0  0  0  0  0  0
   21.2877  -20.1442  -13.2032 C   0  0  0  0  0  0  0  0  0  0  0  0
   20.8050  -19.6188  -12.0792 N   0  0  0  0  0  0  0  0  0  0  0  0
   21.6286  -19.8521  -11.0713 C   0  0  0  0  0  0  0  0  0  0  0  0
   26.1843  -20.7731  -10.1187 O   0  0  0  0  0  0  0  0  0  0  0  0
   26.0896  -20.4371   -8.7804 O   0  0  0  0  0  0  0  0  0  0  0  0
  2  1  1  0
  3  2  2  0
  4  2  1  0
  5  4  1  0
  6  5  1  0
  7  6  1  0
  8  7  1  0
  8  9  1  1
 10  8  1  0
 10 15  1  0
 11 10  2  0
 12 13  1  0
 14 13  1  6
 14 15  1  0
 14 16  1  0
 16 18  1  0
 16 17  2  0
 18 19  1  0
 19 20  1  1
 19 26  1  0
 21 22  2  0
 21 20  1  0
 23 22  1  0
 24 25  2  0
 24 23  1  0
 25 21  1  0
 26 27  1  0
 28 26  2  0
M  END
$$$$
