WLT.pdb
     RDKit          3D

 30 31  0  0  1  0  0  0  0  0999 V2000
   26.6627  -21.5335   -9.4145 N   0  0  0  0  0  0  0  0  0  0  0  0
   25.6960  -20.5072   -9.5468 C   0  0  1  0  0  0  0  0  0  0  0  0
   25.9732  -19.2209   -8.8554 C   0  0  0  0  0  0  0  0  0  0  0  0
   27.1114  -19.3960   -7.9269 C   0  0  0  0  0  0  0  0  0  0  0  0
   28.4083  -18.9200   -8.0955 C   0  0  0  0  0  0  0  0  0  0  0  0
   29.1127  -19.2681   -7.0342 N   0  0  0  0  0  0  0  0  0  0  0  0
   28.3594  -19.9563   -6.1550 C   0  0  0  0  0  0  0  0  0  0  0  0
   28.6957  -20.5120   -4.9197 C   0  0  0  0  0  0  0  0  0  0  0  0
   27.7282  -21.1853   -4.2042 C   0  0  0  0  0  0  0  0  0  0  0  0
   26.4714  -21.2721   -4.7556 C   0  0  0  0  0  0  0  0  0  0  0  0
   26.1365  -20.7216   -5.9798 C   0  0  0  0  0  0  0  0  0  0  0  0
   27.1032  -20.0406   -6.7084 C   0  0  0  0  0  0  0  0  0  0  0  0
   25.4945  -20.1800  -11.0064 C   0  0  0  0  0  0  0  0  0  0  0  0
   24.8049  -19.1854  -11.3394 O   0  0  0  0  0  0  0  0  0  0  0  0
   28.4145  -19.1253  -14.0752 C   0  0  0  0  0  0  0  0  0  0  0  0
   28.4580  -20.6394  -13.7965 C   0  0  2  0  0  0  0  0  0  0  0  0
   29.5713  -21.3008  -14.5400 C   0  0  0  0  0  0  0  0  0  0  0  0
   27.1129  -21.1620  -14.1380 C   0  0  0  0  0  0  0  0  0  0  0  0
   25.9546  -20.5483  -13.4121 C   0  0  2  0  0  0  0  0  0  0  0  0
   26.0753  -20.9835  -12.0108 N   0  0  0  0  0  0  0  0  0  0  0  0
   24.6955  -21.0756  -13.9947 C   0  0  0  0  0  0  0  0  0  0  0  0
   24.3802  -20.8447  -15.1792 O   0  0  0  0  0  0  0  0  0  0  0  0
   22.4735  -23.6979  -11.6121 C   0  0  0  0  0  0  0  0  0  0  0  0
   22.3207  -23.7100  -13.1176 C   0  0  1  0  0  0  0  0  0  0  0  0
   21.0414  -24.1791  -13.4014 O   0  0  0  0  0  0  0  0  0  0  0  0
   22.5226  -22.3190  -13.6797 C   0  0  2  0  0  0  0  0  0  0  0  0
   23.8161  -21.8615  -13.2067 N   0  0  0  0  0  0  0  0  0  0  0  0
   21.4942  -21.3757  -13.2372 C   0  0  0  0  0  0  0  0  0  0  0  0
   21.7692  -20.4052  -12.4836 O   0  0  0  0  0  0  0  0  0  0  0  0
   20.1689  -21.5083  -13.6285 O   0  0  0  0  0  0  0  0  0  0  0  0
  2  1  1  6
  2 13  1  0
  2  3  1  0
  3  4  1  0
  4  5  2  0
  6  5  1  0
  7  6  1  0
  8  7  2  0
  9  8  1  0
 10  9  2  0
 10 11  1  0
 11 12  2  0
 12  7  1  0
 12  4  1  0
 13 14  2  0
 16 15  1  6
 17 16  1  0
 19 18  1  6
 18 16  1  0
 20 19  1  0
 20 13  1  0
 21 22  2  0
 21 19  1  0
 24 23  1  1
 24 26  1  0
 25 24  1  0
 26 28  1  0
 26 27  1  1
 27 21  1  0
 28 30  1  0
 29 28  2  0
M  END
$$$$
