WLT.pdb
     RDKit          3D

 30 31  0  0  1  0  0  0  0  0999 V2000
   23.9812  -21.9392  -11.3766 N   0  0  0  0  0  0  0  0  0  0  0  0
   24.7024  -20.7537  -11.6591 C   0  0  1  0  0  0  0  0  0  0  0  0
   26.1809  -20.8085  -11.5158 C   0  0  0  0  0  0  0  0  0  0  0  0
   26.5491  -20.5494  -10.1066 C   0  0  0  0  0  0  0  0  0  0  0  0
   25.7110  -20.0901   -9.0948 C   0  0  0  0  0  0  0  0  0  0  0  0
   26.4177  -20.0139   -7.9819 N   0  0  0  0  0  0  0  0  0  0  0  0
   27.6922  -20.3976   -8.1880 C   0  0  0  0  0  0  0  0  0  0  0  0
   28.7682  -20.4665   -7.3018 C   0  0  0  0  0  0  0  0  0  0  0  0
   29.9933  -20.8923   -7.7699 C   0  0  0  0  0  0  0  0  0  0  0  0
   30.0862  -21.2289   -9.1001 C   0  0  0  0  0  0  0  0  0  0  0  0
   29.0206  -21.1613   -9.9796 C   0  0  0  0  0  0  0  0  0  0  0  0
   27.7819  -20.7345   -9.5184 C   0  0  0  0  0  0  0  0  0  0  0  0
   24.4203  -20.3086  -13.0734 C   0  0  0  0  0  0  0  0  0  0  0  0
   23.9751  -21.1273  -13.9143 O   0  0  0  0  0  0  0  0  0  0  0  0
   23.4937  -14.9589  -15.7684 C   0  0  0  0  0  0  0  0  0  0  0  0
   23.5882  -16.4695  -16.0531 C   0  0  2  0  0  0  0  0  0  0  0  0
   22.2844  -17.0188  -16.5309 C   0  0  0  0  0  0  0  0  0  0  0  0
   24.0831  -17.0962  -14.8036 C   0  0  0  0  0  0  0  0  0  0  0  0
   24.3016  -18.5781  -14.8415 C   0  0  2  0  0  0  0  0  0  0  0  0
   24.6522  -18.9733  -13.4672 N   0  0  0  0  0  0  0  0  0  0  0  0
   25.4371  -18.8679  -15.7522 C   0  0  0  0  0  0  0  0  0  0  0  0
   25.3499  -18.6766  -16.9816 O   0  0  0  0  0  0  0  0  0  0  0  0
   28.8377  -17.5279  -15.3025 C   0  0  0  0  0  0  0  0  0  0  0  0
   29.0072  -19.0295  -15.3842 C   0  0  1  0  0  0  0  0  0  0  0  0
   29.1411  -19.5038  -14.0826 O   0  0  0  0  0  0  0  0  0  0  0  0
   27.8122  -19.6590  -16.0679 C   0  0  2  0  0  0  0  0  0  0  0  0
   26.6576  -19.3739  -15.2362 N   0  0  0  0  0  0  0  0  0  0  0  0
   27.9446  -21.1094  -16.2156 C   0  0  0  0  0  0  0  0  0  0  0  0
   28.8841  -21.6222  -16.8788 O   0  0  0  0  0  0  0  0  0  0  0  0
   27.0402  -21.9856  -15.6311 O   0  0  0  0  0  0  0  0  0  0  0  0
  2  1  1  6
  2 13  1  0
  2  3  1  0
  3  4  1  0
  4  5  2  0
  6  5  1  0
  7  6  1  0
  8  7  2  0
  9  8  1  0
 10  9  2  0
 10 11  1  0
 11 12  2  0
 12  7  1  0
 12  4  1  0
 13 14  2  0
 16 15  1  1
 17 16  1  0
 19 18  1  1
 18 16  1  0
 20 19  1  0
 20 13  1  0
 21 22  2  0
 21 19  1  0
 24 23  1  1
 24 26  1  0
 25 24  1  0
 26 28  1  0
 26 27  1  1
 27 21  1  0
 28 30  1  0
 29 28  2  0
M  END
$$$$
