WLT.pdb
     RDKit          3D

 30 31  0  0  1  0  0  0  0  0999 V2000
   28.4005  -21.1003  -15.7383 N   0  0  0  0  0  0  0  0  0  0  0  0
   27.4274  -20.1967  -15.2465 C   0  0  1  0  0  0  0  0  0  0  0  0
   26.5653  -19.5166  -16.2483 C   0  0  0  0  0  0  0  0  0  0  0  0
   27.2830  -18.3482  -16.8036 C   0  0  0  0  0  0  0  0  0  0  0  0
   27.9591  -18.2827  -18.0183 C   0  0  0  0  0  0  0  0  0  0  0  0
   28.4413  -17.0607  -18.1524 N   0  0  0  0  0  0  0  0  0  0  0  0
   28.1270  -16.2947  -17.0901 C   0  0  0  0  0  0  0  0  0  0  0  0
   28.4338  -14.9609  -16.8171 C   0  0  0  0  0  0  0  0  0  0  0  0
   27.9934  -14.4020  -15.6360 C   0  0  0  0  0  0  0  0  0  0  0  0
   27.2680  -15.2009  -14.7836 C   0  0  0  0  0  0  0  0  0  0  0  0
   26.9629  -16.5231  -15.0527 C   0  0  0  0  0  0  0  0  0  0  0  0
   27.4009  -17.0958  -16.2400 C   0  0  0  0  0  0  0  0  0  0  0  0
   26.5018  -20.9118  -14.2926 C   0  0  0  0  0  0  0  0  0  0  0  0
   26.1663  -22.1010  -14.5132 O   0  0  0  0  0  0  0  0  0  0  0  0
   26.9126  -22.0672  -10.4819 C   0  0  0  0  0  0  0  0  0  0  0  0
   26.5306  -20.5780  -10.3914 C   0  0  2  0  0  0  0  0  0  0  0  0
   26.6695  -20.0613   -8.9974 C   0  0  0  0  0  0  0  0  0  0  0  0
   25.1569  -20.4690  -10.9391 C   0  0  0  0  0  0  0  0  0  0  0  0
   24.9632  -20.9299  -12.3517 C   0  0  2  0  0  0  0  0  0  0  0  0
   26.0039  -20.2564  -13.1461 N   0  0  0  0  0  0  0  0  0  0  0  0
   23.6207  -20.4967  -12.8130 C   0  0  0  0  0  0  0  0  0  0  0  0
   23.2232  -19.3259  -12.6492 O   0  0  0  0  0  0  0  0  0  0  0  0
   22.1791  -21.3690  -16.2942 C   0  0  0  0  0  0  0  0  0  0  0  0
   21.2156  -21.8328  -15.2234 C   0  0  1  0  0  0  0  0  0  0  0  0
   21.4399  -23.1918  -15.0232 O   0  0  0  0  0  0  0  0  0  0  0  0
   21.4350  -21.0551  -13.9433 C   0  0  2  0  0  0  0  0  0  0  0  0
   22.7535  -21.4165  -13.4564 N   0  0  0  0  0  0  0  0  0  0  0  0
   20.4448  -21.3718  -12.9126 C   0  0  0  0  0  0  0  0  0  0  0  0
   20.7625  -21.9800  -11.8569 O   0  0  0  0  0  0  0  0  0  0  0  0
   19.1103  -21.0158  -13.0524 O   0  0  0  0  0  0  0  0  0  0  0  0
  2  1  1  6
  2 13  1  0
  2  3  1  0
  3  4  1  0
  4  5  2  0
  6  5  1  0
  7  6  1  0
  8  7  2  0
  9  8  1  0
 10  9  2  0
 10 11  1  0
 11 12  2  0
 12  7  1  0
 12  4  1  0
 13 14  2  0
 16 15  1  1
 17 16  1  0
 19 18  1  1
 18 16  1  0
 20 19  1  0
 20 13  1  0
 21 22  2  0
 21 19  1  0
 24 23  1  6
 24 26  1  0
 25 24  1  0
 26 28  1  0
 26 27  1  1
 27 21  1  0
 28 30  1  0
 29 28  2  0
M  END
$$$$
