WLT.pdb
     RDKit          3D

 30 31  0  0  1  0  0  0  0  0999 V2000
   24.8666  -18.8732   -9.4458 N   0  0  0  0  0  0  0  0  0  0  0  0
   25.8256  -19.7925   -9.9361 C   0  0  1  0  0  0  0  0  0  0  0  0
   25.9769  -21.0736   -9.1977 C   0  0  0  0  0  0  0  0  0  0  0  0
   26.3485  -20.7920   -7.7938 C   0  0  0  0  0  0  0  0  0  0  0  0
   25.4819  -20.6179   -6.7188 C   0  0  0  0  0  0  0  0  0  0  0  0
   26.2095  -20.4094   -5.6367 N   0  0  0  0  0  0  0  0  0  0  0  0
   27.5253  -20.4329   -5.9237 C   0  0  0  0  0  0  0  0  0  0  0  0
   28.6331  -20.2561   -5.0934 C   0  0  0  0  0  0  0  0  0  0  0  0
   29.8965  -20.3210   -5.6419 C   0  0  0  0  0  0  0  0  0  0  0  0
   29.9941  -20.5591   -6.9928 C   0  0  0  0  0  0  0  0  0  0  0  0
   28.8971  -20.7347   -7.8170 C   0  0  0  0  0  0  0  0  0  0  0  0
   27.6199  -20.6720   -7.2747 C   0  0  0  0  0  0  0  0  0  0  0  0
   25.5043  -20.1521  -11.3663 C   0  0  0  0  0  0  0  0  0  0  0  0
   24.3426  -19.9858  -11.8117 O   0  0  0  0  0  0  0  0  0  0  0  0
   29.4767  -20.3052  -15.6585 C   0  0  0  0  0  0  0  0  0  0  0  0
   28.0942  -19.8418  -15.1623 C   0  0  2  0  0  0  0  0  0  0  0  0
   28.1781  -18.5282  -14.4574 C   0  0  0  0  0  0  0  0  0  0  0  0
   27.5657  -20.9430  -14.3215 C   0  0  0  0  0  0  0  0  0  0  0  0
   26.2395  -20.7045  -13.6661 C   0  0  2  0  0  0  0  0  0  0  0  0
   26.5003  -20.6772  -12.2173 N   0  0  0  0  0  0  0  0  0  0  0  0
   25.3378  -21.8373  -13.9924 C   0  0  0  0  0  0  0  0  0  0  0  0
   25.6733  -23.0189  -13.7758 O   0  0  0  0  0  0  0  0  0  0  0  0
   21.8148  -22.3779  -12.7959 C   0  0  0  0  0  0  0  0  0  0  0  0
   21.7898  -22.2507  -14.3036 C   0  0  1  0  0  0  0  0  0  0  0  0
   21.4976  -20.9233  -14.6036 O   0  0  0  0  0  0  0  0  0  0  0  0
   23.1258  -22.6551  -14.8895 C   0  0  2  0  0  0  0  0  0  0  0  0
   24.0622  -21.5954  -14.5637 N   0  0  0  0  0  0  0  0  0  0  0  0
   23.0794  -22.8174  -16.3437 C   0  0  0  0  0  0  0  0  0  0  0  0
   22.4524  -23.7674  -16.8821 O   0  0  0  0  0  0  0  0  0  0  0  0
   23.7247  -21.9311  -17.1954 O   0  0  0  0  0  0  0  0  0  0  0  0
  2  1  1  1
  2 13  1  0
  2  3  1  0
  3  4  1  0
  4  5  2  0
  6  5  1  0
  7  6  1  0
  8  7  2  0
  9  8  1  0
 10  9  2  0
 10 11  1  0
 11 12  2  0
 12  7  1  0
 12  4  1  0
 13 14  2  0
 16 15  1  1
 17 16  1  0
 19 18  1  6
 18 16  1  0
 20 19  1  0
 20 13  1  0
 21 22  2  0
 21 19  1  0
 24 23  1  1
 24 26  1  0
 25 24  1  0
 26 28  1  0
 26 27  1  6
 27 21  1  0
 28 30  1  0
 29 28  2  0
M  END
$$$$
