WLT.pdb
     RDKit          3D

 30 31  0  0  1  0  0  0  0  0999 V2000
   25.8566  -18.6856  -10.3974 N   0  0  0  0  0  0  0  0  0  0  0  0
   26.4574  -19.9079  -10.7851 C   0  0  1  0  0  0  0  0  0  0  0  0
   26.2209  -21.0871   -9.9117 C   0  0  0  0  0  0  0  0  0  0  0  0
   26.3551  -20.6853   -8.4944 C   0  0  0  0  0  0  0  0  0  0  0  0
   25.3226  -20.4276   -7.5974 C   0  0  0  0  0  0  0  0  0  0  0  0
   25.8611  -20.1230   -6.4308 N   0  0  0  0  0  0  0  0  0  0  0  0
   27.2061  -20.1607   -6.4914 C   0  0  0  0  0  0  0  0  0  0  0  0
   28.1611  -19.9061   -5.5061 C   0  0  0  0  0  0  0  0  0  0  0  0
   29.4978  -20.0076   -5.8289 C   0  0  0  0  0  0  0  0  0  0  0  0
   29.8176  -20.3581   -7.1197 C   0  0  0  0  0  0  0  0  0  0  0  0
   28.8722  -20.6108   -8.0974 C   0  0  0  0  0  0  0  0  0  0  0  0
   27.5230  -20.5123   -7.7827 C   0  0  0  0  0  0  0  0  0  0  0  0
   25.9891  -20.2916  -12.1676 C   0  0  0  0  0  0  0  0  0  0  0  0
   24.8429  -19.9617  -12.5585 O   0  0  0  0  0  0  0  0  0  0  0  0
   26.7052  -18.3605  -15.7638 C   0  0  0  0  0  0  0  0  0  0  0  0
   27.9713  -18.9180  -15.0869 C   0  0  2  0  0  0  0  0  0  0  0  0
   29.2117  -18.4264  -15.7575 C   0  0  0  0  0  0  0  0  0  0  0  0
   27.8286  -20.3939  -15.0936 C   0  0  0  0  0  0  0  0  0  0  0  0
   26.5765  -20.9460  -14.4831 C   0  0  2  0  0  0  0  0  0  0  0  0
   26.8292  -21.0227  -13.0347 N   0  0  0  0  0  0  0  0  0  0  0  0
   26.3444  -22.3081  -15.0249 C   0  0  0  0  0  0  0  0  0  0  0  0
   27.2132  -23.1989  -14.9392 O   0  0  0  0  0  0  0  0  0  0  0  0
   23.2278  -24.5692  -14.3708 C   0  0  0  0  0  0  0  0  0  0  0  0
   23.3656  -24.2286  -15.8388 C   0  0  1  0  0  0  0  0  0  0  0  0
   22.5709  -23.1122  -16.0825 O   0  0  0  0  0  0  0  0  0  0  0  0
   24.8129  -23.9462  -16.1814 C   0  0  2  0  0  0  0  0  0  0  0  0
   25.1158  -22.6270  -15.6581 N   0  0  0  0  0  0  0  0  0  0  0  0
   25.0643  -23.9543  -17.6236 C   0  0  0  0  0  0  0  0  0  0  0  0
   25.2938  -22.8920  -18.2595 O   0  0  0  0  0  0  0  0  0  0  0  0
   25.0612  -25.1338  -18.3558 O   0  0  0  0  0  0  0  0  0  0  0  0
  2  1  1  1
  2 13  1  0
  2  3  1  0
  3  4  1  0
  4  5  2  0
  6  5  1  0
  7  6  1  0
  8  7  2  0
  9  8  1  0
 10  9  2  0
 10 11  1  0
 11 12  2  0
 12  7  1  0
 12  4  1  0
 13 14  2  0
 16 15  1  6
 17 16  1  0
 19 18  1  6
 18 16  1  0
 20 19  1  0
 20 13  1  0
 21 22  2  0
 21 19  1  0
 24 23  1  1
 24 26  1  0
 25 24  1  0
 26 28  1  0
 26 27  1  6
 27 21  1  0
 28 30  1  0
 29 28  2  0
M  END
$$$$
