WLT.pdb
     RDKit          3D

 30 31  0  0  1  0  0  0  0  0999 V2000
   23.5199  -18.8818  -13.9611 N   0  0  0  0  0  0  0  0  0  0  0  0
   24.3969  -19.8945  -13.5023 C   0  0  1  0  0  0  0  0  0  0  0  0
   23.7954  -21.2111  -13.1645 C   0  0  0  0  0  0  0  0  0  0  0  0
   23.3396  -21.1980  -11.7572 C   0  0  0  0  0  0  0  0  0  0  0  0
   22.0321  -21.3375  -11.3010 C   0  0  0  0  0  0  0  0  0  0  0  0
   22.0529  -21.2937   -9.9813 N   0  0  0  0  0  0  0  0  0  0  0  0
   23.3078  -21.1312   -9.5199 C   0  0  0  0  0  0  0  0  0  0  0  0
   23.7817  -21.0292   -8.2111 C   0  0  0  0  0  0  0  0  0  0  0  0
   25.1336  -20.8567   -8.0015 C   0  0  0  0  0  0  0  0  0  0  0  0
   25.9480  -20.7942   -9.1079 C   0  0  0  0  0  0  0  0  0  0  0  0
   25.4798  -20.8953  -10.4056 C   0  0  0  0  0  0  0  0  0  0  0  0
   24.1199  -21.0700  -10.6281 C   0  0  0  0  0  0  0  0  0  0  0  0
   25.4611  -20.1576  -14.5398 C   0  0  0  0  0  0  0  0  0  0  0  0
   25.3647  -19.6497  -15.6836 O   0  0  0  0  0  0  0  0  0  0  0  0
   29.3149  -18.9485  -13.6520 C   0  0  0  0  0  0  0  0  0  0  0  0
   29.2112  -20.3771  -13.0859 C   0  0  2  0  0  0  0  0  0  0  0  0
   30.4377  -20.7530  -12.3216 C   0  0  0  0  0  0  0  0  0  0  0  0
   28.9286  -21.2611  -14.2424 C   0  0  0  0  0  0  0  0  0  0  0  0
   27.7618  -20.8820  -15.1026 C   0  0  2  0  0  0  0  0  0  0  0  0
   26.5725  -20.9738  -14.2394 N   0  0  0  0  0  0  0  0  0  0  0  0
   27.6525  -21.8605  -16.2132 C   0  0  0  0  0  0  0  0  0  0  0  0
   27.5126  -23.0803  -15.9939 O   0  0  0  0  0  0  0  0  0  0  0  0
   25.1635  -22.3492  -18.8400 C   0  0  0  0  0  0  0  0  0  0  0  0
   26.4450  -21.9155  -19.5178 C   0  0  1  0  0  0  0  0  0  0  0  0
   26.3927  -20.5318  -19.6584 O   0  0  0  0  0  0  0  0  0  0  0  0
   27.6447  -22.3293  -18.6925 C   0  0  2  0  0  0  0  0  0  0  0  0
   27.7059  -21.4223  -17.5612 N   0  0  0  0  0  0  0  0  0  0  0  0
   28.9012  -22.2431  -19.4388 C   0  0  0  0  0  0  0  0  0  0  0  0
   29.7892  -21.4015  -19.1412 O   0  0  0  0  0  0  0  0  0  0  0  0
   29.1708  -23.0856  -20.5088 O   0  0  0  0  0  0  0  0  0  0  0  0
  2  1  1  6
  2 13  1  0
  2  3  1  0
  3  4  1  0
  4  5  2  0
  6  5  1  0
  7  6  1  0
  8  7  2  0
  9  8  1  0
 10  9  2  0
 10 11  1  0
 11 12  2  0
 12  7  1  0
 12  4  1  0
 13 14  2  0
 16 15  1  6
 17 16  1  0
 19 18  1  1
 18 16  1  0
 20 19  1  0
 20 13  1  0
 21 22  2  0
 21 19  1  0
 24 23  1  1
 24 26  1  0
 25 24  1  0
 26 28  1  0
 26 27  1  1
 27 21  1  0
 28 30  1  0
 29 28  2  0
M  END
$$$$
