WLT.pdb
     RDKit          3D

 30 31  0  0  1  0  0  0  0  0999 V2000
   26.6298  -23.0346  -13.0983 N   0  0  0  0  0  0  0  0  0  0  0  0
   26.1101  -22.0074  -12.2737 C   0  0  1  0  0  0  0  0  0  0  0  0
   26.8705  -20.7314  -12.2189 C   0  0  0  0  0  0  0  0  0  0  0  0
   27.8976  -20.8153  -11.1576 C   0  0  0  0  0  0  0  0  0  0  0  0
   29.2196  -21.2251  -11.3045 C   0  0  0  0  0  0  0  0  0  0  0  0
   29.8090  -21.1343  -10.1264 N   0  0  0  0  0  0  0  0  0  0  0  0
   28.9538  -20.6842   -9.1882 C   0  0  0  0  0  0  0  0  0  0  0  0
   29.1509  -20.4468   -7.8271 C   0  0  0  0  0  0  0  0  0  0  0  0
   28.0951  -19.9859   -7.0694 C   0  0  0  0  0  0  0  0  0  0  0  0
   26.8930  -19.7841   -7.7061 C   0  0  0  0  0  0  0  0  0  0  0  0
   26.6961  -20.0188   -9.0550 C   0  0  0  0  0  0  0  0  0  0  0  0
   27.7530  -20.4824   -9.8278 C   0  0  0  0  0  0  0  0  0  0  0  0
   24.7092  -21.6584  -12.7137 C   0  0  0  0  0  0  0  0  0  0  0  0
   24.2256  -22.1800  -13.7480 O   0  0  0  0  0  0  0  0  0  0  0  0
   20.2771  -21.8673  -10.9866 C   0  0  0  0  0  0  0  0  0  0  0  0
   21.2691  -21.0114  -10.1771 C   0  0  2  0  0  0  0  0  0  0  0  0
   20.6156  -20.4001   -8.9817 C   0  0  0  0  0  0  0  0  0  0  0  0
   21.8325  -20.0214  -11.1265 C   0  0  0  0  0  0  0  0  0  0  0  0
   22.5135  -20.5745  -12.3413 C   0  0  2  0  0  0  0  0  0  0  0  0
   23.9285  -20.7459  -11.9723 N   0  0  0  0  0  0  0  0  0  0  0  0
   22.3981  -19.5858  -13.4422 C   0  0  0  0  0  0  0  0  0  0  0  0
   22.7312  -18.3943  -13.2838 O   0  0  0  0  0  0  0  0  0  0  0  0
   24.0031  -19.6267  -16.7315 C   0  0  0  0  0  0  0  0  0  0  0  0
   22.5126  -19.6726  -16.9890 C   0  0  1  0  0  0  0  0  0  0  0  0
   22.1623  -21.0081  -17.1644 O   0  0  0  0  0  0  0  0  0  0  0  0
   21.7573  -19.0646  -15.8263 C   0  0  2  0  0  0  0  0  0  0  0  0
   21.9011  -19.9812  -14.7104 N   0  0  0  0  0  0  0  0  0  0  0  0
   20.3329  -18.8825  -16.1109 C   0  0  0  0  0  0  0  0  0  0  0  0
   19.4479  -19.5271  -15.4890 O   0  0  0  0  0  0  0  0  0  0  0  0
   19.8931  -17.9905  -17.0795 O   0  0  0  0  0  0  0  0  0  0  0  0
  2  1  1  6
  2 13  1  0
  2  3  1  0
  3  4  1  0
  4  5  2  0
  6  5  1  0
  7  6  1  0
  8  7  2  0
  9  8  1  0
 10  9  2  0
 10 11  1  0
 11 12  2  0
 12  7  1  0
 12  4  1  0
 13 14  2  0
 16 15  1  6
 17 16  1  0
 19 18  1  1
 18 16  1  0
 20 19  1  0
 20 13  1  0
 21 22  2  0
 21 19  1  0
 24 23  1  1
 24 26  1  0
 25 24  1  0
 26 28  1  0
 26 27  1  1
 27 21  1  0
 28 30  1  0
 29 28  2  0
M  END
$$$$
