WLT.pdb
     RDKit          3D

 30 31  0  0  1  0  0  0  0  0999 V2000
   27.3015  -19.5970  -16.8806 N   0  0  0  0  0  0  0  0  0  0  0  0
   26.4426  -18.8163  -16.0694 C   0  0  1  0  0  0  0  0  0  0  0  0
   25.5684  -17.8314  -16.7587 C   0  0  0  0  0  0  0  0  0  0  0  0
   26.3721  -16.6566  -17.1617 C   0  0  0  0  0  0  0  0  0  0  0  0
   26.7133  -16.2824  -18.4581 C   0  0  0  0  0  0  0  0  0  0  0  0
   27.4154  -15.1661  -18.3900 N   0  0  0  0  0  0  0  0  0  0  0  0
   27.5680  -14.7649  -17.1133 C   0  0  0  0  0  0  0  0  0  0  0  0
   28.2349  -13.6564  -16.5896 C   0  0  0  0  0  0  0  0  0  0  0  0
   28.2514  -13.4704  -15.2234 C   0  0  0  0  0  0  0  0  0  0  0  0
   27.6016  -14.3996  -14.4451 C   0  0  0  0  0  0  0  0  0  0  0  0
   26.9400  -15.4986  -14.9627 C   0  0  0  0  0  0  0  0  0  0  0  0
   26.9166  -15.6951  -16.3375 C   0  0  0  0  0  0  0  0  0  0  0  0
   25.5334  -19.7187  -15.2713 C   0  0  0  0  0  0  0  0  0  0  0  0
   25.1778  -20.8277  -15.7394 O   0  0  0  0  0  0  0  0  0  0  0  0
   26.2001  -21.9877  -11.8345 C   0  0  0  0  0  0  0  0  0  0  0  0
   26.0592  -20.5005  -11.4599 C   0  0  2  0  0  0  0  0  0  0  0  0
   26.4274  -20.2585  -10.0332 C   0  0  0  0  0  0  0  0  0  0  0  0
   24.6656  -20.1196  -11.7943 C   0  0  0  0  0  0  0  0  0  0  0  0
   24.2548  -20.2818  -13.2261 C   0  0  2  0  0  0  0  0  0  0  0  0
   25.0733  -19.3297  -13.9950 N   0  0  0  0  0  0  0  0  0  0  0  0
   22.8195  -19.9257  -13.3519 C   0  0  0  0  0  0  0  0  0  0  0  0
   22.3812  -18.8347  -12.9355 O   0  0  0  0  0  0  0  0  0  0  0  0
   20.7581  -19.8771  -16.4504 C   0  0  0  0  0  0  0  0  0  0  0  0
   20.1060  -20.8657  -15.5084 C   0  0  1  0  0  0  0  0  0  0  0  0
   20.5379  -22.1367  -15.8762 O   0  0  0  0  0  0  0  0  0  0  0  0
   20.4870  -20.5596  -14.0756 C   0  0  2  0  0  0  0  0  0  0  0  0
   21.9078  -20.8295  -13.9550 N   0  0  0  0  0  0  0  0  0  0  0  0
   19.7626  -21.3868  -13.1090 C   0  0  0  0  0  0  0  0  0  0  0  0
   20.3425  -22.2841  -12.4427 O   0  0  0  0  0  0  0  0  0  0  0  0
   18.4031  -21.2194  -12.8831 O   0  0  0  0  0  0  0  0  0  0  0  0
  2  1  1  6
  2 13  1  0
  2  3  1  0
  3  4  1  0
  4  5  2  0
  6  5  1  0
  7  6  1  0
  8  7  2  0
  9  8  1  0
 10  9  2  0
 10 11  1  0
 11 12  2  0
 12  7  1  0
 12  4  1  0
 13 14  2  0
 16 15  1  1
 17 16  1  0
 19 18  1  1
 18 16  1  0
 20 19  1  0
 20 13  1  0
 21 22  2  0
 21 19  1  0
 24 23  1  6
 24 26  1  0
 25 24  1  0
 26 28  1  0
 26 27  1  6
 27 21  1  0
 28 30  1  0
 29 28  2  0
M  END
$$$$
