WLT.pdb
     RDKit          3D

 30 31  0  0  1  0  0  0  0  0999 V2000
   25.6054  -18.5821   -8.9119 N   0  0  0  0  0  0  0  0  0  0  0  0
   26.1764  -19.7805   -9.4048 C   0  0  1  0  0  0  0  0  0  0  0  0
   25.7832  -21.0463   -8.7320 C   0  0  0  0  0  0  0  0  0  0  0  0
   26.0279  -20.9279   -7.2779 C   0  0  0  0  0  0  0  0  0  0  0  0
   25.1504  -21.2675   -6.2524 C   0  0  0  0  0  0  0  0  0  0  0  0
   25.7556  -21.0338   -5.1022 N   0  0  0  0  0  0  0  0  0  0  0  0
   26.9986  -20.5525   -5.2960 C   0  0  0  0  0  0  0  0  0  0  0  0
   27.9724  -20.1705   -4.3720 C   0  0  0  0  0  0  0  0  0  0  0  0
   29.1817  -19.6954   -4.8335 C   0  0  0  0  0  0  0  0  0  0  0  0
   29.3615  -19.6239   -6.1950 C   0  0  0  0  0  0  0  0  0  0  0  0
   28.3975  -20.0023   -7.1121 C   0  0  0  0  0  0  0  0  0  0  0  0
   27.1760  -20.4831   -6.6580 C   0  0  0  0  0  0  0  0  0  0  0  0
   25.8390  -19.9439  -10.8668 C   0  0  0  0  0  0  0  0  0  0  0  0
   24.8979  -19.2857  -11.3733 O   0  0  0  0  0  0  0  0  0  0  0  0
   28.2387  -19.0361  -14.5983 C   0  0  0  0  0  0  0  0  0  0  0  0
   28.7642  -20.2307  -13.7805 C   0  0  2  0  0  0  0  0  0  0  0  0
   30.0437  -20.7575  -14.3418 C   0  0  0  0  0  0  0  0  0  0  0  0
   27.6658  -21.2265  -13.7495 C   0  0  0  0  0  0  0  0  0  0  0  0
   26.3744  -20.7767  -13.1372 C   0  0  2  0  0  0  0  0  0  0  0  0
   26.5731  -20.8342  -11.6794 N   0  0  0  0  0  0  0  0  0  0  0  0
   25.3040  -21.7245  -13.5357 C   0  0  0  0  0  0  0  0  0  0  0  0
   25.4639  -22.9586  -13.4516 O   0  0  0  0  0  0  0  0  0  0  0  0
   21.9148  -21.9642  -12.1360 C   0  0  0  0  0  0  0  0  0  0  0  0
   21.7557  -21.6315  -13.6036 C   0  0  1  0  0  0  0  0  0  0  0  0
   21.6148  -20.2504  -13.7036 O   0  0  0  0  0  0  0  0  0  0  0  0
   22.9600  -22.1093  -14.3866 C   0  0  2  0  0  0  0  0  0  0  0  0
   24.0643  -21.2397  -14.0254 N   0  0  0  0  0  0  0  0  0  0  0  0
   22.7561  -22.0416  -15.8347 C   0  0  0  0  0  0  0  0  0  0  0  0
   23.4207  -21.2545  -16.5587 O   0  0  0  0  0  0  0  0  0  0  0  0
   21.8205  -22.8423  -16.4756 O   0  0  0  0  0  0  0  0  0  0  0  0
  2  1  1  1
  2 13  1  0
  2  3  1  0
  3  4  1  0
  4  5  2  0
  6  5  1  0
  7  6  1  0
  8  7  2  0
  9  8  1  0
 10  9  2  0
 10 11  1  0
 11 12  2  0
 12  7  1  0
 12  4  1  0
 13 14  2  0
 16 15  1  6
 17 16  1  0
 19 18  1  6
 18 16  1  0
 20 19  1  0
 20 13  1  0
 21 22  2  0
 21 19  1  0
 24 23  1  1
 24 26  1  0
 25 24  1  0
 26 28  1  0
 26 27  1  6
 27 21  1  0
 28 30  1  0
 29 28  2  0
M  END
$$$$
