WLT.pdb
     RDKit          3D

 30 31  0  0  1  0  0  0  0  0999 V2000
   26.8813  -19.2520  -17.5899 N   0  0  0  0  0  0  0  0  0  0  0  0
   26.3051  -18.5998  -16.4728 C   0  0  1  0  0  0  0  0  0  0  0  0
   25.2911  -17.5488  -16.7493 C   0  0  0  0  0  0  0  0  0  0  0  0
   25.9696  -16.3214  -17.2198 C   0  0  0  0  0  0  0  0  0  0  0  0
   26.0667  -15.8715  -18.5333 C   0  0  0  0  0  0  0  0  0  0  0  0
   26.7291  -14.7291  -18.5262 N   0  0  0  0  0  0  0  0  0  0  0  0
   27.0863  -14.3821  -17.2748 C   0  0  0  0  0  0  0  0  0  0  0  0
   27.7935  -13.2706  -16.8138 C   0  0  0  0  0  0  0  0  0  0  0  0
   28.0401  -13.1487  -15.4627 C   0  0  0  0  0  0  0  0  0  0  0  0
   27.5694  -14.1418  -14.6360 C   0  0  0  0  0  0  0  0  0  0  0  0
   26.8683  -15.2440  -15.0913 C   0  0  0  0  0  0  0  0  0  0  0  0
   26.6136  -15.3762  -16.4504 C   0  0  0  0  0  0  0  0  0  0  0  0
   25.6428  -19.6153  -15.5738 C   0  0  0  0  0  0  0  0  0  0  0  0
   25.1540  -20.6637  -16.0609 O   0  0  0  0  0  0  0  0  0  0  0  0
   25.4563  -20.7008   -9.5971 C   0  0  0  0  0  0  0  0  0  0  0  0
   24.8073  -21.1195  -10.9296 C   0  0  2  0  0  0  0  0  0  0  0  0
   24.9638  -22.5835  -11.1781 C   0  0  0  0  0  0  0  0  0  0  0  0
   25.4185  -20.2634  -11.9748 C   0  0  0  0  0  0  0  0  0  0  0  0
   24.8584  -20.3965  -13.3582 C   0  0  2  0  0  0  0  0  0  0  0  0
   25.5646  -19.4006  -14.1811 N   0  0  0  0  0  0  0  0  0  0  0  0
   23.4096  -20.0771  -13.3169 C   0  0  0  0  0  0  0  0  0  0  0  0
   22.9957  -18.9911  -12.8642 O   0  0  0  0  0  0  0  0  0  0  0  0
   21.0470  -20.5737  -16.2878 C   0  0  0  0  0  0  0  0  0  0  0  0
   20.4918  -21.3302  -15.1007 C   0  0  1  0  0  0  0  0  0  0  0  0
   20.8698  -22.6621  -15.2434 O   0  0  0  0  0  0  0  0  0  0  0  0
   21.0286  -20.7522  -13.8086 C   0  0  2  0  0  0  0  0  0  0  0  0
   22.4565  -21.0115  -13.7970 N   0  0  0  0  0  0  0  0  0  0  0  0
   20.4254  -21.3627  -12.6226 C   0  0  0  0  0  0  0  0  0  0  0  0
   21.0812  -22.1290  -11.8688 O   0  0  0  0  0  0  0  0  0  0  0  0
   19.1027  -21.1244  -12.2750 O   0  0  0  0  0  0  0  0  0  0  0  0
  2  1  1  6
  2 13  1  0
  2  3  1  0
  3  4  1  0
  4  5  2  0
  6  5  1  0
  7  6  1  0
  8  7  2  0
  9  8  1  0
 10  9  2  0
 10 11  1  0
 11 12  2  0
 12  7  1  0
 12  4  1  0
 13 14  2  0
 16 15  1  1
 17 16  1  0
 19 18  1  1
 18 16  1  0
 20 19  1  0
 20 13  1  0
 21 22  2  0
 21 19  1  0
 24 23  1  6
 24 26  1  0
 25 24  1  0
 26 28  1  0
 26 27  1  1
 27 21  1  0
 28 30  1  0
 29 28  2  0
M  END
$$$$
