WLT.pdb
     RDKit          3D

 30 31  0  0  1  0  0  0  0  0999 V2000
   26.3563  -21.4087  -12.7935 N   0  0  0  0  0  0  0  0  0  0  0  0
   25.8134  -20.4415  -11.9132 C   0  0  1  0  0  0  0  0  0  0  0  0
   24.4977  -19.8542  -12.2785 C   0  0  0  0  0  0  0  0  0  0  0  0
   24.5833  -19.2554  -13.6285 C   0  0  0  0  0  0  0  0  0  0  0  0
   23.7138  -19.4689  -14.6941 C   0  0  0  0  0  0  0  0  0  0  0  0
   24.1248  -18.7331  -15.7107 N   0  0  0  0  0  0  0  0  0  0  0  0
   25.2289  -18.0321  -15.3886 C   0  0  0  0  0  0  0  0  0  0  0  0
   25.9888  -17.1446  -16.1520 C   0  0  0  0  0  0  0  0  0  0  0  0
   27.0964  -16.5525  -15.5829 C   0  0  0  0  0  0  0  0  0  0  0  0
   27.3928  -16.8743  -14.2791 C   0  0  0  0  0  0  0  0  0  0  0  0
   26.6405  -17.7535  -13.5211 C   0  0  0  0  0  0  0  0  0  0  0  0
   25.5223  -18.3550  -14.0843 C   0  0  0  0  0  0  0  0  0  0  0  0
   25.6547  -21.0364  -10.5352 C   0  0  0  0  0  0  0  0  0  0  0  0
   25.3993  -22.2582  -10.4023 O   0  0  0  0  0  0  0  0  0  0  0  0
   28.3977  -20.9287   -7.2376 C   0  0  0  0  0  0  0  0  0  0  0  0
   27.6082  -19.6092   -7.3247 C   0  0  2  0  0  0  0  0  0  0  0  0
   28.1620  -18.5781   -6.3974 C   0  0  0  0  0  0  0  0  0  0  0  0
   26.1910  -19.9565   -7.0607 C   0  0  0  0  0  0  0  0  0  0  0  0
   25.5209  -20.8383   -8.0699 C   0  0  2  0  0  0  0  0  0  0  0  0
   25.7907  -20.2314   -9.3840 N   0  0  0  0  0  0  0  0  0  0  0  0
   24.0602  -20.8369   -7.8068 C   0  0  0  0  0  0  0  0  0  0  0  0
   23.3524  -19.8451   -8.0731 O   0  0  0  0  0  0  0  0  0  0  0  0
   21.6998  -23.6756   -8.8565 C   0  0  0  0  0  0  0  0  0  0  0  0
   21.5783  -23.4611   -7.3634 C   0  0  1  0  0  0  0  0  0  0  0  0
   22.3894  -24.4054   -6.7408 O   0  0  0  0  0  0  0  0  0  0  0  0
   22.0055  -22.0561   -6.9957 C   0  0  2  0  0  0  0  0  0  0  0  0
   23.4336  -21.9766   -7.2407 N   0  0  0  0  0  0  0  0  0  0  0  0
   21.7460  -21.7358   -5.5909 C   0  0  0  0  0  0  0  0  0  0  0  0
   20.5760  -21.7026   -5.1268 O   0  0  0  0  0  0  0  0  0  0  0  0
   22.7784  -21.4541   -4.7066 O   0  0  0  0  0  0  0  0  0  0  0  0
  2  1  1  6
  2 13  1  0
  2  3  1  0
  3  4  1  0
  4  5  2  0
  6  5  1  0
  7  6  1  0
  8  7  2  0
  9  8  1  0
 10  9  2  0
 10 11  1  0
 11 12  2  0
 12  7  1  0
 12  4  1  0
 13 14  2  0
 16 15  1  1
 17 16  1  0
 19 18  1  1
 18 16  1  0
 20 19  1  0
 20 13  1  0
 21 22  2  0
 21 19  1  0
 24 23  1  6
 24 26  1  0
 25 24  1  0
 26 28  1  0
 26 27  1  1
 27 21  1  0
 28 30  1  0
 29 28  2  0
M  END
$$$$
