KFR.pdb
     RDKit          3D

 32 32  0  0  1  0  0  0  0  0999 V2000
    8.8830  -18.0044   21.2321 N   0  0  0  0  0  0  0  0  0  0  0  0
   10.1449  -17.2844   21.1276 C   0  0  1  0  0  0  0  0  0  0  0  0
   10.3427  -16.7304   19.7557 C   0  0  0  0  0  0  0  0  0  0  0  0
   10.0866  -17.7617   18.7047 C   0  0  0  0  0  0  0  0  0  0  0  0
   11.3664  -18.2180   18.0830 C   0  0  0  0  0  0  0  0  0  0  0  0
   11.2684  -17.8586   16.5916 C   0  0  0  0  0  0  0  0  0  0  0  0
   12.4398  -18.4029   15.9352 N   0  0  0  0  0  0  0  0  0  0  0  0
   10.0915  -16.1372   22.1234 C   0  0  0  0  0  0  0  0  0  0  0  0
   11.0755  -15.4012   22.2746 O   0  0  0  0  0  0  0  0  0  0  0  0
    8.9370  -15.9083   22.8689 N   0  0  0  0  0  0  0  0  0  0  0  0
    8.7316  -14.9467   23.9018 C   0  0  1  0  0  0  0  0  0  0  0  0
    7.2498  -14.6351   23.9277 C   0  0  0  0  0  0  0  0  0  0  0  0
    6.8807  -13.6334   24.9440 C   0  0  0  0  0  0  0  0  0  0  0  0
    7.3428  -12.3322   24.8928 C   0  0  0  0  0  0  0  0  0  0  0  0
    6.9823  -11.3828   25.8624 C   0  0  0  0  0  0  0  0  0  0  0  0
    6.1480  -11.7805   26.8770 C   0  0  0  0  0  0  0  0  0  0  0  0
    5.6898  -13.0746   26.9269 C   0  0  0  0  0  0  0  0  0  0  0  0
    6.0366  -14.0198   25.9803 C   0  0  0  0  0  0  0  0  0  0  0  0
    9.1523  -15.3889   25.2406 C   0  0  0  0  0  0  0  0  0  0  0  0
    8.8130  -14.7598   26.2570 O   0  0  0  0  0  0  0  0  0  0  0  0
    9.9147  -22.2745   26.8115 N   0  0  0  0  0  0  0  0  0  0  0  0
   10.1800  -22.2923   25.3826 C   0  0  0  0  0  0  0  0  0  0  0  0
    9.5004  -22.9969   24.6736 N   0  0  0  0  0  0  0  0  0  0  0  0
   11.2654  -21.4811   24.8855 N   0  0  0  0  0  0  0  0  0  0  0  0
   11.8113  -20.3600   25.5882 C   0  0  0  0  0  0  0  0  0  0  0  0
   10.9108  -19.2111   25.8436 C   0  0  0  0  0  0  0  0  0  0  0  0
   11.5083  -18.0519   26.5671 C   0  0  0  0  0  0  0  0  0  0  0  0
   10.4845  -16.9248   26.7402 C   0  0  2  0  0  0  0  0  0  0  0  0
    9.9707  -16.5640   25.4379 N   0  0  0  0  0  0  0  0  0  0  0  0
   11.1851  -15.8054   27.4189 C   0  0  0  0  0  0  0  0  0  0  0  0
   11.0993  -15.6381   28.7703 O   0  0  0  0  0  0  0  0  0  0  0  0
   11.8528  -15.0187   26.7298 O   0  0  0  0  0  0  0  0  0  0  0  0
  2  3  1  0
  2  8  1  0
  2  1  1  6
  4  3  1  0
  5  4  1  0
  6  5  1  0
  7  6  1  0
  8  9  2  0
 10 11  1  0
 10  8  1  0
 11 19  1  0
 12 13  1  0
 11 12  1  1
 13 14  2  0
 14 15  1  0
 16 15  2  0
 17 16  1  0
 18 13  1  0
 18 17  2  0
 19 20  2  0
 21 22  1  0
 22 24  1  0
 22 23  2  0
 24 25  1  0
 26 25  1  0
 27 26  1  0
 28 27  1  6
 28 30  1  0
 29 19  1  0
 29 28  1  0
 30 32  2  0
 30 31  1  0
M  END
$$$$
