KFR.pdb
     RDKit          3D

 32 32  0  0  1  0  0  0  0  0999 V2000
    7.4991  -16.7636   19.8903 N   0  0  0  0  0  0  0  0  0  0  0  0
    8.1883  -15.5274   19.5466 C   0  0  1  0  0  0  0  0  0  0  0  0
    7.3176  -14.6271   18.7346 C   0  0  0  0  0  0  0  0  0  0  0  0
    7.5985  -14.7630   17.2730 C   0  0  0  0  0  0  0  0  0  0  0  0
    7.7753  -13.4222   16.6376 C   0  0  0  0  0  0  0  0  0  0  0  0
    7.8967  -13.6786   15.1267 C   0  0  0  0  0  0  0  0  0  0  0  0
    8.1494  -12.4028   14.4881 N   0  0  0  0  0  0  0  0  0  0  0  0
    8.5415  -14.8322   20.8514 C   0  0  0  0  0  0  0  0  0  0  0  0
    9.4830  -14.0292   20.8909 O   0  0  0  0  0  0  0  0  0  0  0  0
    7.8085  -15.0941   22.0069 N   0  0  0  0  0  0  0  0  0  0  0  0
    8.0647  -14.6405   23.3344 C   0  0  1  0  0  0  0  0  0  0  0  0
    6.7244  -14.3013   23.9523 C   0  0  0  0  0  0  0  0  0  0  0  0
    6.8287  -13.7907   25.3311 C   0  0  0  0  0  0  0  0  0  0  0  0
    6.6589  -14.6095   26.4311 C   0  0  0  0  0  0  0  0  0  0  0  0
    6.7649  -14.1160   27.7412 C   0  0  0  0  0  0  0  0  0  0  0  0
    7.0456  -12.7829   27.9086 C   0  0  0  0  0  0  0  0  0  0  0  0
    7.2137  -11.9701   26.8141 C   0  0  0  0  0  0  0  0  0  0  0  0
    7.1117  -12.4415   25.5191 C   0  0  0  0  0  0  0  0  0  0  0  0
    8.7544  -15.6177   24.1914 C   0  0  0  0  0  0  0  0  0  0  0  0
    8.2145  -16.6952   24.4940 O   0  0  0  0  0  0  0  0  0  0  0  0
   14.6111  -16.3170   20.6394 N   0  0  0  0  0  0  0  0  0  0  0  0
   13.3392  -15.7566   20.2144 C   0  0  0  0  0  0  0  0  0  0  0  0
   13.2773  -15.2017   19.1424 N   0  0  0  0  0  0  0  0  0  0  0  0
   12.2152  -15.8709   21.1127 N   0  0  0  0  0  0  0  0  0  0  0  0
   12.2868  -15.6117   22.5184 C   0  0  0  0  0  0  0  0  0  0  0  0
   12.2125  -16.7768   23.4313 C   0  0  0  0  0  0  0  0  0  0  0  0
   12.2282  -16.4737   24.8914 C   0  0  0  0  0  0  0  0  0  0  0  0
   10.8041  -16.3892   25.4509 C   0  0  2  0  0  0  0  0  0  0  0  0
   10.0792  -15.3762   24.7170 N   0  0  0  0  0  0  0  0  0  0  0  0
   10.9262  -16.0822   26.8985 C   0  0  0  0  0  0  0  0  0  0  0  0
   10.4089  -14.9323   27.4197 O   0  0  0  0  0  0  0  0  0  0  0  0
   11.5128  -16.8950   27.6297 O   0  0  0  0  0  0  0  0  0  0  0  0
  2  3  1  0
  2  8  1  0
  2  1  1  1
  4  3  1  0
  5  4  1  0
  6  5  1  0
  7  6  1  0
  8  9  2  0
 10 11  1  0
 10  8  1  0
 11 19  1  0
 12 13  1  0
 11 12  1  1
 13 14  2  0
 14 15  1  0
 16 15  2  0
 17 16  1  0
 18 13  1  0
 18 17  2  0
 19 20  2  0
 21 22  1  0
 22 24  1  0
 22 23  2  0
 24 25  1  0
 26 25  1  0
 27 26  1  0
 28 27  1  6
 28 30  1  0
 29 19  1  0
 29 28  1  0
 30 32  2  0
 30 31  1  0
M  END
$$$$
