KFR.pdb
     RDKit          3D

 32 32  0  0  1  0  0  0  0  0999 V2000
    8.7703  -14.8758   20.5356 N   0  0  0  0  0  0  0  0  0  0  0  0
    8.2496  -15.8059   21.5283 C   0  0  1  0  0  0  0  0  0  0  0  0
    8.5931  -17.2170   21.1841 C   0  0  0  0  0  0  0  0  0  0  0  0
    7.9754  -17.6323   19.8881 C   0  0  0  0  0  0  0  0  0  0  0  0
    8.2139  -19.0838   19.6252 C   0  0  0  0  0  0  0  0  0  0  0  0
    7.5240  -19.3941   18.2870 C   0  0  0  0  0  0  0  0  0  0  0  0
    7.7363  -20.7990   18.0037 N   0  0  0  0  0  0  0  0  0  0  0  0
    8.8919  -15.4488   22.8589 C   0  0  0  0  0  0  0  0  0  0  0  0
   10.0212  -14.9421   22.8860 O   0  0  0  0  0  0  0  0  0  0  0  0
    8.2141  -15.6889   24.0522 N   0  0  0  0  0  0  0  0  0  0  0  0
    8.6695  -15.4636   25.3847 C   0  0  1  0  0  0  0  0  0  0  0  0
    7.4803  -14.9680   26.1808 C   0  0  0  0  0  0  0  0  0  0  0  0
    7.2078  -13.5319   25.9917 C   0  0  0  0  0  0  0  0  0  0  0  0
    6.2769  -13.0762   25.0778 C   0  0  0  0  0  0  0  0  0  0  0  0
    6.0197  -11.7065   24.9075 C   0  0  0  0  0  0  0  0  0  0  0  0
    6.7228  -10.8163   25.6803 C   0  0  0  0  0  0  0  0  0  0  0  0
    7.6483  -11.2707   26.5880 C   0  0  0  0  0  0  0  0  0  0  0  0
    7.9123  -12.6154   26.7661 C   0  0  0  0  0  0  0  0  0  0  0  0
    9.2292  -16.6518   26.0481 C   0  0  0  0  0  0  0  0  0  0  0  0
    9.5226  -16.6307   27.2553 O   0  0  0  0  0  0  0  0  0  0  0  0
   13.5725  -21.0063   22.3133 N   0  0  0  0  0  0  0  0  0  0  0  0
   13.1694  -19.9524   21.3970 C   0  0  0  0  0  0  0  0  0  0  0  0
   13.9818  -19.5214   20.6128 N   0  0  0  0  0  0  0  0  0  0  0  0
   11.8177  -19.4549   21.4901 N   0  0  0  0  0  0  0  0  0  0  0  0
   10.8824  -19.8668   22.4921 C   0  0  0  0  0  0  0  0  0  0  0  0
   11.2600  -19.6486   23.9084 C   0  0  0  0  0  0  0  0  0  0  0  0
   10.2870  -20.1267   24.9325 C   0  0  0  0  0  0  0  0  0  0  0  0
   10.0269  -19.0482   25.9897 C   0  0  2  0  0  0  0  0  0  0  0  0
    9.4617  -17.8887   25.3369 N   0  0  0  0  0  0  0  0  0  0  0  0
   11.3273  -18.7674   26.6492 C   0  0  0  0  0  0  0  0  0  0  0  0
   11.9348  -19.7041   27.4337 O   0  0  0  0  0  0  0  0  0  0  0  0
   11.8537  -17.6576   26.4743 O   0  0  0  0  0  0  0  0  0  0  0  0
  2  3  1  0
  2  8  1  0
  2  1  1  6
  4  3  1  0
  5  4  1  0
  6  5  1  0
  7  6  1  0
  8  9  2  0
 10 11  1  0
 10  8  1  0
 11 19  1  0
 12 13  1  0
 11 12  1  1
 13 14  2  0
 14 15  1  0
 16 15  2  0
 17 16  1  0
 18 13  1  0
 18 17  2  0
 19 20  2  0
 21 22  1  0
 22 24  1  0
 22 23  2  0
 24 25  1  0
 26 25  1  0
 27 26  1  0
 28 27  1  6
 28 30  1  0
 29 19  1  0
 29 28  1  0
 30 32  2  0
 30 31  1  0
M  END
$$$$
