KFR.pdb
     RDKit          3D

 32 32  0  0  1  0  0  0  0  0999 V2000
    7.5704  -16.0734   19.4981 N   0  0  0  0  0  0  0  0  0  0  0  0
    8.9648  -15.6527   19.5161 C   0  0  1  0  0  0  0  0  0  0  0  0
    9.2267  -14.5947   18.4963 C   0  0  0  0  0  0  0  0  0  0  0  0
    8.1205  -14.5113   17.4948 C   0  0  0  0  0  0  0  0  0  0  0  0
    8.4396  -13.5123   16.4304 C   0  0  0  0  0  0  0  0  0  0  0  0
    7.1887  -13.4213   15.5416 C   0  0  0  0  0  0  0  0  0  0  0  0
    7.4916  -12.5102   14.4565 N   0  0  0  0  0  0  0  0  0  0  0  0
    9.2464  -15.0895   20.8995 C   0  0  0  0  0  0  0  0  0  0  0  0
   10.3762  -14.6674   21.1789 O   0  0  0  0  0  0  0  0  0  0  0  0
    8.2362  -15.0449   21.8580 N   0  0  0  0  0  0  0  0  0  0  0  0
    8.3305  -14.6280   23.2185 C   0  0  1  0  0  0  0  0  0  0  0  0
    6.9987  -14.0066   23.5840 C   0  0  0  0  0  0  0  0  0  0  0  0
    6.9600  -13.4726   24.9573 C   0  0  0  0  0  0  0  0  0  0  0  0
    6.2420  -14.0893   25.9640 C   0  0  0  0  0  0  0  0  0  0  0  0
    6.2145  -13.5767   27.2708 C   0  0  0  0  0  0  0  0  0  0  0  0
    6.9273  -12.4330   27.5311 C   0  0  0  0  0  0  0  0  0  0  0  0
    7.6402  -11.8207   26.5293 C   0  0  0  0  0  0  0  0  0  0  0  0
    7.6761  -12.3133   25.2386 C   0  0  0  0  0  0  0  0  0  0  0  0
    8.6322  -15.7096   24.1694 C   0  0  0  0  0  0  0  0  0  0  0  0
    7.8892  -16.7008   24.2661 O   0  0  0  0  0  0  0  0  0  0  0  0
   14.3583  -21.0147   24.9541 N   0  0  0  0  0  0  0  0  0  0  0  0
   13.9398  -20.7849   23.5812 C   0  0  0  0  0  0  0  0  0  0  0  0
   13.8965  -21.7239   22.8215 N   0  0  0  0  0  0  0  0  0  0  0  0
   13.6201  -19.4333   23.1884 N   0  0  0  0  0  0  0  0  0  0  0  0
   13.3701  -18.3706   24.1139 C   0  0  0  0  0  0  0  0  0  0  0  0
   11.9595  -18.1050   24.4824 C   0  0  0  0  0  0  0  0  0  0  0  0
   11.7327  -17.0421   25.5035 C   0  0  0  0  0  0  0  0  0  0  0  0
   10.2359  -16.8383   25.7621 C   0  0  2  0  0  0  0  0  0  0  0  0
    9.7950  -15.6739   25.0275 N   0  0  0  0  0  0  0  0  0  0  0  0
   10.0665  -16.6976   27.2304 C   0  0  0  0  0  0  0  0  0  0  0  0
    9.6767  -15.5125   27.7830 O   0  0  0  0  0  0  0  0  0  0  0  0
   10.2891  -17.6833   27.9504 O   0  0  0  0  0  0  0  0  0  0  0  0
  2  3  1  0
  2  8  1  0
  2  1  1  1
  4  3  1  0
  5  4  1  0
  6  5  1  0
  7  6  1  0
  8  9  2  0
 10 11  1  0
 10  8  1  0
 11 19  1  0
 12 13  1  0
 11 12  1  1
 13 14  2  0
 14 15  1  0
 16 15  2  0
 17 16  1  0
 18 13  1  0
 18 17  2  0
 19 20  2  0
 21 22  1  0
 22 24  1  0
 22 23  2  0
 24 25  1  0
 26 25  1  0
 27 26  1  0
 28 27  1  1
 28 30  1  0
 29 19  1  0
 29 28  1  0
 30 32  2  0
 30 31  1  0
M  END
$$$$
