KFR.pdb
     RDKit          3D

 32 32  0  0  1  0  0  0  0  0999 V2000
    7.8094  -14.2801   18.6675 N   0  0  0  0  0  0  0  0  0  0  0  0
    7.8065  -15.4519   19.5327 C   0  0  1  0  0  0  0  0  0  0  0  0
    8.6527  -16.5452   18.9699 C   0  0  0  0  0  0  0  0  0  0  0  0
    7.8192  -17.6551   18.4160 C   0  0  0  0  0  0  0  0  0  0  0  0
    8.0174  -17.7852   16.9407 C   0  0  0  0  0  0  0  0  0  0  0  0
    9.1147  -18.8447   16.7493 C   0  0  0  0  0  0  0  0  0  0  0  0
    9.0877  -19.2526   15.3593 N   0  0  0  0  0  0  0  0  0  0  0  0
    8.3784  -15.0216   20.8737 C   0  0  0  0  0  0  0  0  0  0  0  0
    9.5998  -15.0680   21.0704 O   0  0  0  0  0  0  0  0  0  0  0  0
    7.5326  -14.5731   21.8859 N   0  0  0  0  0  0  0  0  0  0  0  0
    7.8747  -14.2013   23.2194 C   0  0  1  0  0  0  0  0  0  0  0  0
    6.7346  -13.3569   23.7494 C   0  0  0  0  0  0  0  0  0  0  0  0
    6.9437  -12.8947   25.1333 C   0  0  0  0  0  0  0  0  0  0  0  0
    6.3160  -13.4930   26.2091 C   0  0  0  0  0  0  0  0  0  0  0  0
    6.5246  -13.0496   27.5248 C   0  0  0  0  0  0  0  0  0  0  0  0
    7.3787  -11.9936   27.7227 C   0  0  0  0  0  0  0  0  0  0  0  0
    8.0017  -11.3994   26.6523 C   0  0  0  0  0  0  0  0  0  0  0  0
    7.8056  -11.8246   25.3521 C   0  0  0  0  0  0  0  0  0  0  0  0
    8.0968  -15.3342   24.1316 C   0  0  0  0  0  0  0  0  0  0  0  0
    7.1623  -16.0867   24.4550 O   0  0  0  0  0  0  0  0  0  0  0  0
   10.8895  -17.8879   20.8207 N   0  0  0  0  0  0  0  0  0  0  0  0
   12.1005  -18.6620   21.0374 C   0  0  0  0  0  0  0  0  0  0  0  0
   12.9293  -18.7036   20.1587 N   0  0  0  0  0  0  0  0  0  0  0  0
   12.2387  -19.3660   22.2899 N   0  0  0  0  0  0  0  0  0  0  0  0
   11.3481  -19.2055   23.3988 C   0  0  0  0  0  0  0  0  0  0  0  0
   10.8973  -17.8304   23.7179 C   0  0  0  0  0  0  0  0  0  0  0  0
   10.9223  -17.4449   25.1584 C   0  0  0  0  0  0  0  0  0  0  0  0
    9.6161  -16.7547   25.5657 C   0  0  2  0  0  0  0  0  0  0  0  0
    9.3981  -15.6255   24.6897 N   0  0  0  0  0  0  0  0  0  0  0  0
    9.7597  -16.3651   26.9912 C   0  0  0  0  0  0  0  0  0  0  0  0
    9.5238  -17.2614   27.9925 O   0  0  0  0  0  0  0  0  0  0  0  0
   10.0985  -15.2014   27.2568 O   0  0  0  0  0  0  0  0  0  0  0  0
  2  3  1  0
  2  8  1  0
  2  1  1  6
  4  3  1  0
  5  4  1  0
  6  5  1  0
  7  6  1  0
  8  9  2  0
 10 11  1  0
 10  8  1  0
 11 19  1  0
 12 13  1  0
 11 12  1  1
 13 14  2  0
 14 15  1  0
 16 15  2  0
 17 16  1  0
 18 13  1  0
 18 17  2  0
 19 20  2  0
 21 22  1  0
 22 24  1  0
 22 23  2  0
 24 25  1  0
 26 25  1  0
 27 26  1  0
 28 27  1  6
 28 30  1  0
 29 19  1  0
 29 28  1  0
 30 32  2  0
 30 31  1  0
M  END
$$$$
