KFR.pdb
     RDKit          3D

 32 32  0  0  1  0  0  0  0  0999 V2000
    7.4038  -15.7416   18.9743 N   0  0  0  0  0  0  0  0  0  0  0  0
    8.7647  -15.2259   19.0356 C   0  0  1  0  0  0  0  0  0  0  0  0
    9.0148  -14.2224   17.9593 C   0  0  0  0  0  0  0  0  0  0  0  0
    8.3286  -14.5997   16.6864 C   0  0  0  0  0  0  0  0  0  0  0  0
    8.6190  -13.6052   15.6096 C   0  0  0  0  0  0  0  0  0  0  0  0
    7.7940  -14.0444   14.3891 C   0  0  0  0  0  0  0  0  0  0  0  0
    7.9825  -13.0473   13.3550 N   0  0  0  0  0  0  0  0  0  0  0  0
    8.9299  -14.5540   20.3890 C   0  0  0  0  0  0  0  0  0  0  0  0
    9.7171  -13.6074   20.5193 O   0  0  0  0  0  0  0  0  0  0  0  0
    8.1972  -14.9987   21.4874 N   0  0  0  0  0  0  0  0  0  0  0  0
    8.3034  -14.5782   22.8460 C   0  0  1  0  0  0  0  0  0  0  0  0
    6.9790  -13.9448   23.2177 C   0  0  0  0  0  0  0  0  0  0  0  0
    6.9568  -13.3964   24.5857 C   0  0  0  0  0  0  0  0  0  0  0  0
    7.5472  -12.1874   24.9007 C   0  0  0  0  0  0  0  0  0  0  0  0
    7.5171  -11.6698   26.2055 C   0  0  0  0  0  0  0  0  0  0  0  0
    6.8787  -12.4009   27.1759 C   0  0  0  0  0  0  0  0  0  0  0  0
    6.2927  -13.6028   26.8614 C   0  0  0  0  0  0  0  0  0  0  0  0
    6.3148  -14.1249   25.5821 C   0  0  0  0  0  0  0  0  0  0  0  0
    8.6022  -15.6592   23.7984 C   0  0  0  0  0  0  0  0  0  0  0  0
    7.7960  -16.5859   23.9864 O   0  0  0  0  0  0  0  0  0  0  0  0
   14.2731  -21.3259   25.4085 N   0  0  0  0  0  0  0  0  0  0  0  0
   14.0293  -20.5727   24.1895 C   0  0  0  0  0  0  0  0  0  0  0  0
   14.9550  -20.3606   23.4420 N   0  0  0  0  0  0  0  0  0  0  0  0
   12.6899  -20.0925   23.9471 N   0  0  0  0  0  0  0  0  0  0  0  0
   11.8084  -19.6311   24.9759 C   0  0  0  0  0  0  0  0  0  0  0  0
   12.1812  -18.3841   25.6847 C   0  0  0  0  0  0  0  0  0  0  0  0
   11.7346  -17.1081   25.0552 C   0  0  0  0  0  0  0  0  0  0  0  0
   10.2392  -16.8716   25.2927 C   0  0  2  0  0  0  0  0  0  0  0  0
    9.8345  -15.6971   24.5533 N   0  0  0  0  0  0  0  0  0  0  0  0
   10.0520  -16.7283   26.7587 C   0  0  0  0  0  0  0  0  0  0  0  0
    9.6621  -15.5405   27.3052 O   0  0  0  0  0  0  0  0  0  0  0  0
   10.2600  -17.7144   27.4824 O   0  0  0  0  0  0  0  0  0  0  0  0
  2  3  1  0
  2  8  1  0
  2  1  1  6
  4  3  1  0
  5  4  1  0
  6  5  1  0
  7  6  1  0
  8  9  2  0
 10 11  1  0
 10  8  1  0
 11 19  1  0
 12 13  1  0
 11 12  1  1
 13 14  2  0
 14 15  1  0
 16 15  2  0
 17 16  1  0
 18 13  1  0
 18 17  2  0
 19 20  2  0
 21 22  1  0
 22 24  1  0
 22 23  2  0
 24 25  1  0
 26 25  1  0
 27 26  1  0
 28 27  1  1
 28 30  1  0
 29 19  1  0
 29 28  1  0
 30 32  2  0
 30 31  1  0
M  END
$$$$
