KFR.pdb
     RDKit          3D

 32 32  0  0  1  0  0  0  0  0999 V2000
    7.4988  -15.6857   19.3438 N   0  0  0  0  0  0  0  0  0  0  0  0
    8.7530  -14.9450   19.3331 C   0  0  1  0  0  0  0  0  0  0  0  0
    8.6743  -13.7558   18.4345 C   0  0  0  0  0  0  0  0  0  0  0  0
    8.1306  -14.1179   17.0904 C   0  0  0  0  0  0  0  0  0  0  0  0
    9.0878  -13.7368   16.0081 C   0  0  0  0  0  0  0  0  0  0  0  0
    8.3942  -14.0877   14.6818 C   0  0  0  0  0  0  0  0  0  0  0  0
    9.3051  -13.7411   13.6097 N   0  0  0  0  0  0  0  0  0  0  0  0
    9.0102  -14.4763   20.7559 C   0  0  0  0  0  0  0  0  0  0  0  0
   10.1139  -14.0078   21.0644 O   0  0  0  0  0  0  0  0  0  0  0  0
    8.0069  -14.5706   21.7180 N   0  0  0  0  0  0  0  0  0  0  0  0
    8.0951  -14.2891   23.1133 C   0  0  1  0  0  0  0  0  0  0  0  0
    6.8073  -13.5962   23.5069 C   0  0  0  0  0  0  0  0  0  0  0  0
    6.8034  -13.1178   24.9011 C   0  0  0  0  0  0  0  0  0  0  0  0
    6.2438  -13.8544   25.9276 C   0  0  0  0  0  0  0  0  0  0  0  0
    6.2488  -13.3935   27.2538 C   0  0  0  0  0  0  0  0  0  0  0  0
    6.8307  -12.1778   27.5130 C   0  0  0  0  0  0  0  0  0  0  0  0
    7.3862  -11.4465   26.4915 C   0  0  0  0  0  0  0  0  0  0  0  0
    7.3882  -11.8869   25.1817 C   0  0  0  0  0  0  0  0  0  0  0  0
    8.2818  -15.4743   23.9650 C   0  0  0  0  0  0  0  0  0  0  0  0
    7.5248  -16.4550   23.8696 O   0  0  0  0  0  0  0  0  0  0  0  0
   13.2465  -22.1882   24.9372 N   0  0  0  0  0  0  0  0  0  0  0  0
   12.4970  -21.5914   23.8442 C   0  0  0  0  0  0  0  0  0  0  0  0
   11.9704  -22.3185   23.0350 N   0  0  0  0  0  0  0  0  0  0  0  0
   12.4422  -20.1511   23.7681 N   0  0  0  0  0  0  0  0  0  0  0  0
   12.5872  -19.2855   24.8987 C   0  0  0  0  0  0  0  0  0  0  0  0
   11.3559  -18.6734   25.4512 C   0  0  0  0  0  0  0  0  0  0  0  0
   10.9426  -17.3695   24.8568 C   0  0  0  0  0  0  0  0  0  0  0  0
    9.7075  -16.8074   25.5690 C   0  0  2  0  0  0  0  0  0  0  0  0
    9.3433  -15.5563   24.9428 N   0  0  0  0  0  0  0  0  0  0  0  0
   10.0661  -16.6572   27.0020 C   0  0  0  0  0  0  0  0  0  0  0  0
   10.2230  -17.7486   27.8058 O   0  0  0  0  0  0  0  0  0  0  0  0
   10.2196  -15.5138   27.4583 O   0  0  0  0  0  0  0  0  0  0  0  0
  2  3  1  0
  2  8  1  0
  2  1  1  1
  4  3  1  0
  5  4  1  0
  6  5  1  0
  7  6  1  0
  8  9  2  0
 10 11  1  0
 10  8  1  0
 11 19  1  0
 12 13  1  0
 11 12  1  1
 13 14  2  0
 14 15  1  0
 16 15  2  0
 17 16  1  0
 18 13  1  0
 18 17  2  0
 19 20  2  0
 21 22  1  0
 22 24  1  0
 22 23  2  0
 24 25  1  0
 26 25  1  0
 27 26  1  0
 28 27  1  6
 28 30  1  0
 29 19  1  0
 29 28  1  0
 30 32  2  0
 30 31  1  0
M  END
$$$$
