KFR.pdb
     RDKit          3D

 32 32  0  0  1  0  0  0  0  0999 V2000
    7.3220  -15.6681   19.1969 N   0  0  0  0  0  0  0  0  0  0  0  0
    8.5238  -14.8509   19.0996 C   0  0  1  0  0  0  0  0  0  0  0  0
    8.3127  -13.6784   18.2004 C   0  0  0  0  0  0  0  0  0  0  0  0
    7.6610  -14.0808   16.9170 C   0  0  0  0  0  0  0  0  0  0  0  0
    8.6074  -13.9338   15.7700 C   0  0  0  0  0  0  0  0  0  0  0  0
    8.0890  -14.8699   14.6663 C   0  0  0  0  0  0  0  0  0  0  0  0
    7.3954  -14.0516   13.6924 N   0  0  0  0  0  0  0  0  0  0  0  0
    8.8423  -14.3519   20.4996 C   0  0  0  0  0  0  0  0  0  0  0  0
    9.9223  -13.7911   20.7272 O   0  0  0  0  0  0  0  0  0  0  0  0
    7.9219  -14.5223   21.5317 N   0  0  0  0  0  0  0  0  0  0  0  0
    8.1019  -14.2684   22.9234 C   0  0  1  0  0  0  0  0  0  0  0  0
    6.8080  -13.6703   23.4348 C   0  0  0  0  0  0  0  0  0  0  0  0
    6.8788  -13.2413   24.8432 C   0  0  0  0  0  0  0  0  0  0  0  0
    6.3479  -14.0002   25.8686 C   0  0  0  0  0  0  0  0  0  0  0  0
    6.4240  -13.5865   27.2081 C   0  0  0  0  0  0  0  0  0  0  0  0
    7.0470  -12.3945   27.4816 C   0  0  0  0  0  0  0  0  0  0  0  0
    7.5739  -11.6408   26.4611 C   0  0  0  0  0  0  0  0  0  0  0  0
    7.5060  -12.0349   25.1384 C   0  0  0  0  0  0  0  0  0  0  0  0
    8.4297  -15.4585   23.7241 C   0  0  0  0  0  0  0  0  0  0  0  0
    7.6581  -16.4314   23.7676 O   0  0  0  0  0  0  0  0  0  0  0  0
   14.7928  -19.6049   22.6171 N   0  0  0  0  0  0  0  0  0  0  0  0
   13.6930  -20.5379   22.4364 C   0  0  0  0  0  0  0  0  0  0  0  0
   13.9452  -21.7046   22.2467 N   0  0  0  0  0  0  0  0  0  0  0  0
   12.3486  -20.0136   22.4680 N   0  0  0  0  0  0  0  0  0  0  0  0
   12.0203  -18.6812   22.8748 C   0  0  0  0  0  0  0  0  0  0  0  0
   11.7830  -18.4480   24.3189 C   0  0  0  0  0  0  0  0  0  0  0  0
   11.5515  -17.0333   24.7301 C   0  0  0  0  0  0  0  0  0  0  0  0
   10.0801  -16.7987   25.0888 C   0  0  2  0  0  0  0  0  0  0  0  0
    9.6519  -15.5545   24.4901 N   0  0  0  0  0  0  0  0  0  0  0  0
    9.9929  -16.7906   26.5710 C   0  0  0  0  0  0  0  0  0  0  0  0
    9.9200  -17.9555   27.2776 O   0  0  0  0  0  0  0  0  0  0  0  0
    9.9854  -15.6979   27.1588 O   0  0  0  0  0  0  0  0  0  0  0  0
  2  3  1  0
  2  8  1  0
  2  1  1  1
  4  3  1  0
  5  4  1  0
  6  5  1  0
  7  6  1  0
  8  9  2  0
 10 11  1  0
 10  8  1  0
 11 19  1  0
 12 13  1  0
 11 12  1  1
 13 14  2  0
 14 15  1  0
 16 15  2  0
 17 16  1  0
 18 13  1  0
 18 17  2  0
 19 20  2  0
 21 22  1  0
 22 24  1  0
 22 23  2  0
 24 25  1  0
 26 25  1  0
 27 26  1  0
 28 27  1  1
 28 30  1  0
 29 19  1  0
 29 28  1  0
 30 32  2  0
 30 31  1  0
M  END
$$$$
