KFR.pdb
     RDKit          3D

 32 32  0  0  1  0  0  0  0  0999 V2000
    7.5656  -16.2283   19.6398 N   0  0  0  0  0  0  0  0  0  0  0  0
    8.8465  -15.5383   19.5710 C   0  0  1  0  0  0  0  0  0  0  0  0
    8.7936  -14.3870   18.6225 C   0  0  0  0  0  0  0  0  0  0  0  0
    8.9885  -14.8307   17.2087 C   0  0  0  0  0  0  0  0  0  0  0  0
    8.1193  -14.0469   16.2797 C   0  0  0  0  0  0  0  0  0  0  0  0
    8.3113  -14.6702   14.8877 C   0  0  0  0  0  0  0  0  0  0  0  0
    7.4254  -13.9767   13.9748 N   0  0  0  0  0  0  0  0  0  0  0  0
    9.1524  -15.0186   20.9662 C   0  0  0  0  0  0  0  0  0  0  0  0
   10.2491  -14.4970   21.2069 O   0  0  0  0  0  0  0  0  0  0  0  0
    8.2017  -15.1256   21.9790 N   0  0  0  0  0  0  0  0  0  0  0  0
    8.2951  -14.6690   23.3268 C   0  0  1  0  0  0  0  0  0  0  0  0
    7.0072  -13.9344   23.6352 C   0  0  0  0  0  0  0  0  0  0  0  0
    6.9597  -13.3866   25.0028 C   0  0  0  0  0  0  0  0  0  0  0  0
    7.6240  -12.2261   25.3514 C   0  0  0  0  0  0  0  0  0  0  0  0
    7.5694  -11.7084   26.6553 C   0  0  0  0  0  0  0  0  0  0  0  0
    6.8305  -12.3894   27.5903 C   0  0  0  0  0  0  0  0  0  0  0  0
    6.1712  -13.5431   27.2424 C   0  0  0  0  0  0  0  0  0  0  0  0
    6.2162  -14.0647   25.9635 C   0  0  0  0  0  0  0  0  0  0  0  0
    8.4885  -15.7361   24.3213 C   0  0  0  0  0  0  0  0  0  0  0  0
    7.5361  -16.4414   24.6948 O   0  0  0  0  0  0  0  0  0  0  0  0
   13.9514  -17.9838   20.9874 N   0  0  0  0  0  0  0  0  0  0  0  0
   12.9517  -18.7144   21.7486 C   0  0  0  0  0  0  0  0  0  0  0  0
   11.8333  -18.8084   21.3003 N   0  0  0  0  0  0  0  0  0  0  0  0
   13.3438  -19.2716   23.0211 N   0  0  0  0  0  0  0  0  0  0  0  0
   13.0590  -18.6591   24.2830 C   0  0  0  0  0  0  0  0  0  0  0  0
   11.7013  -18.0978   24.4775 C   0  0  0  0  0  0  0  0  0  0  0  0
   11.3990  -17.5555   25.8334 C   0  0  0  0  0  0  0  0  0  0  0  0
    9.9583  -17.0388   25.9104 C   0  0  2  0  0  0  0  0  0  0  0  0
    9.7811  -16.0145   24.9056 N   0  0  0  0  0  0  0  0  0  0  0  0
    9.7523  -16.5382   27.2930 C   0  0  0  0  0  0  0  0  0  0  0  0
    9.3897  -17.3840   28.3004 O   0  0  0  0  0  0  0  0  0  0  0  0
    9.9150  -15.3287   27.5163 O   0  0  0  0  0  0  0  0  0  0  0  0
  2  3  1  0
  2  8  1  0
  2  1  1  1
  4  3  1  0
  5  4  1  0
  6  5  1  0
  7  6  1  0
  8  9  2  0
 10 11  1  0
 10  8  1  0
 11 19  1  0
 12 13  1  0
 11 12  1  1
 13 14  2  0
 14 15  1  0
 16 15  2  0
 17 16  1  0
 18 13  1  0
 18 17  2  0
 19 20  2  0
 21 22  1  0
 22 24  1  0
 22 23  2  0
 24 25  1  0
 26 25  1  0
 27 26  1  0
 28 27  1  1
 28 30  1  0
 29 19  1  0
 29 28  1  0
 30 32  2  0
 30 31  1  0
M  END
$$$$
