KFR.pdb
     RDKit          3D

 32 32  0  0  1  0  0  0  0  0999 V2000
    7.7673  -15.3810   18.8917 N   0  0  0  0  0  0  0  0  0  0  0  0
    8.0834  -16.4054   19.8776 C   0  0  1  0  0  0  0  0  0  0  0  0
    9.1355  -17.3373   19.3751 C   0  0  0  0  0  0  0  0  0  0  0  0
    8.5370  -18.5290   18.7002 C   0  0  0  0  0  0  0  0  0  0  0  0
    9.5965  -19.5060   18.3058 C   0  0  0  0  0  0  0  0  0  0  0  0
    8.8689  -20.6654   17.6063 C   0  0  0  0  0  0  0  0  0  0  0  0
    9.8804  -21.5646   17.0888 N   0  0  0  0  0  0  0  0  0  0  0  0
    8.6019  -15.6925   21.1159 C   0  0  0  0  0  0  0  0  0  0  0  0
    9.8194  -15.6325   21.3326 O   0  0  0  0  0  0  0  0  0  0  0  0
    7.7115  -15.1035   22.0110 N   0  0  0  0  0  0  0  0  0  0  0  0
    7.9994  -14.4956   23.2685 C   0  0  1  0  0  0  0  0  0  0  0  0
    6.8329  -13.5879   23.5984 C   0  0  0  0  0  0  0  0  0  0  0  0
    6.9272  -12.9778   24.9369 C   0  0  0  0  0  0  0  0  0  0  0  0
    6.2509  -13.4922   26.0265 C   0  0  0  0  0  0  0  0  0  0  0  0
    6.3501  -12.9078   27.2992 C   0  0  0  0  0  0  0  0  0  0  0  0
    7.1458  -11.7984   27.4404 C   0  0  0  0  0  0  0  0  0  0  0  0
    7.8171  -11.2878   26.3561 C   0  0  0  0  0  0  0  0  0  0  0  0
    7.7286  -11.8519   25.0977 C   0  0  0  0  0  0  0  0  0  0  0  0
    8.1962  -15.4450   24.3752 C   0  0  0  0  0  0  0  0  0  0  0  0
    7.2786  -16.1986   24.7412 O   0  0  0  0  0  0  0  0  0  0  0  0
   12.0308  -17.2168   21.6934 N   0  0  0  0  0  0  0  0  0  0  0  0
   12.6031  -18.5482   21.8041 C   0  0  0  0  0  0  0  0  0  0  0  0
   12.7667  -19.1965   20.7973 N   0  0  0  0  0  0  0  0  0  0  0  0
   12.9244  -19.0393   23.1228 N   0  0  0  0  0  0  0  0  0  0  0  0
   12.7213  -18.2903   24.3254 C   0  0  0  0  0  0  0  0  0  0  0  0
   11.3444  -17.8248   24.6145 C   0  0  0  0  0  0  0  0  0  0  0  0
   11.1568  -17.0664   25.8848 C   0  0  0  0  0  0  0  0  0  0  0  0
    9.7043  -16.6027   26.0390 C   0  0  2  0  0  0  0  0  0  0  0  0
    9.4526  -15.5480   25.0829 N   0  0  0  0  0  0  0  0  0  0  0  0
    9.5388  -16.1619   27.4472 C   0  0  0  0  0  0  0  0  0  0  0  0
    9.2428  -17.0566   28.4340 O   0  0  0  0  0  0  0  0  0  0  0  0
    9.6737  -14.9572   27.7114 O   0  0  0  0  0  0  0  0  0  0  0  0
  2  3  1  0
  2  8  1  0
  2  1  1  6
  4  3  1  0
  5  4  1  0
  6  5  1  0
  7  6  1  0
  8  9  2  0
 10 11  1  0
 10  8  1  0
 11 19  1  0
 12 13  1  0
 11 12  1  1
 13 14  2  0
 14 15  1  0
 16 15  2  0
 17 16  1  0
 18 13  1  0
 18 17  2  0
 19 20  2  0
 21 22  1  0
 22 24  1  0
 22 23  2  0
 24 25  1  0
 26 25  1  0
 27 26  1  0
 28 27  1  1
 28 30  1  0
 29 19  1  0
 29 28  1  0
 30 32  2  0
 30 31  1  0
M  END
$$$$
