KFR.pdb
     RDKit          3D

 32 32  0  0  1  0  0  0  0  0999 V2000
    9.2530  -17.0960   19.2171 N   0  0  0  0  0  0  0  0  0  0  0  0
    8.6291  -17.5075   20.4673 C   0  0  1  0  0  0  0  0  0  0  0  0
    9.1278  -18.8429   20.9100 C   0  0  0  0  0  0  0  0  0  0  0  0
    9.7864  -19.5821   19.7904 C   0  0  0  0  0  0  0  0  0  0  0  0
   10.2219  -20.9413   20.2327 C   0  0  0  0  0  0  0  0  0  0  0  0
   10.8850  -21.5959   19.0101 C   0  0  0  0  0  0  0  0  0  0  0  0
   11.2981  -22.9285   19.4010 N   0  0  0  0  0  0  0  0  0  0  0  0
    8.9944  -16.4687   21.5150 C   0  0  0  0  0  0  0  0  0  0  0  0
   10.1758  -16.1315   21.6681 O   0  0  0  0  0  0  0  0  0  0  0  0
    8.0036  -15.8913   22.3062 N   0  0  0  0  0  0  0  0  0  0  0  0
    8.1649  -15.0237   23.4264 C   0  0  1  0  0  0  0  0  0  0  0  0
    6.8608  -14.2726   23.5956 C   0  0  0  0  0  0  0  0  0  0  0  0
    6.8351  -13.4073   24.7885 C   0  0  0  0  0  0  0  0  0  0  0  0
    6.2790  -13.8221   25.9835 C   0  0  0  0  0  0  0  0  0  0  0  0
    6.2631  -12.9932   27.1166 C   0  0  0  0  0  0  0  0  0  0  0  0
    6.8207  -11.7435   27.0107 C   0  0  0  0  0  0  0  0  0  0  0  0
    7.3727  -11.3323   25.8219 C   0  0  0  0  0  0  0  0  0  0  0  0
    7.3950  -12.1367   24.6985 C   0  0  0  0  0  0  0  0  0  0  0  0
    8.4912  -15.7083   24.6873 C   0  0  0  0  0  0  0  0  0  0  0  0
    7.8101  -16.6670   25.0884 O   0  0  0  0  0  0  0  0  0  0  0  0
   15.3187  -19.7091   23.7983 N   0  0  0  0  0  0  0  0  0  0  0  0
   15.1173  -19.9339   25.2201 C   0  0  0  0  0  0  0  0  0  0  0  0
   15.4878  -20.9785   25.7020 N   0  0  0  0  0  0  0  0  0  0  0  0
   14.4576  -18.9005   25.9819 N   0  0  0  0  0  0  0  0  0  0  0  0
   13.5611  -17.9395   25.4151 C   0  0  0  0  0  0  0  0  0  0  0  0
   12.7903  -17.0898   26.3532 C   0  0  0  0  0  0  0  0  0  0  0  0
   11.8913  -16.0724   25.7361 C   0  0  0  0  0  0  0  0  0  0  0  0
   10.4416  -16.2713   26.1912 C   0  0  2  0  0  0  0  0  0  0  0  0
    9.6079  -15.3050   25.5120 N   0  0  0  0  0  0  0  0  0  0  0  0
   10.4271  -16.1153   27.6677 C   0  0  0  0  0  0  0  0  0  0  0  0
    9.7680  -15.0771   28.2588 O   0  0  0  0  0  0  0  0  0  0  0  0
   11.0309  -16.9506   28.3584 O   0  0  0  0  0  0  0  0  0  0  0  0
  2  3  1  0
  2  8  1  0
  2  1  1  6
  4  3  1  0
  5  4  1  0
  6  5  1  0
  7  6  1  0
  8  9  2  0
 10 11  1  0
 10  8  1  0
 11 19  1  0
 12 13  1  0
 11 12  1  1
 13 14  2  0
 14 15  1  0
 16 15  2  0
 17 16  1  0
 18 13  1  0
 18 17  2  0
 19 20  2  0
 21 22  1  0
 22 24  1  0
 22 23  2  0
 24 25  1  0
 26 25  1  0
 27 26  1  0
 28 27  1  6
 28 30  1  0
 29 19  1  0
 29 28  1  0
 30 32  2  0
 30 31  1  0
M  END
$$$$
