KFR.pdb
     RDKit          3D

 32 32  0  0  1  0  0  0  0  0999 V2000
    7.6672  -17.4193   20.2241 N   0  0  0  0  0  0  0  0  0  0  0  0
    8.4697  -16.3916   19.5749 C   0  0  1  0  0  0  0  0  0  0  0  0
    7.7310  -15.7600   18.4421 C   0  0  0  0  0  0  0  0  0  0  0  0
    8.5922  -14.7927   17.6961 C   0  0  0  0  0  0  0  0  0  0  0  0
    7.8251  -14.1358   16.5949 C   0  0  0  0  0  0  0  0  0  0  0  0
    8.8209  -13.2151   15.8712 C   0  0  0  0  0  0  0  0  0  0  0  0
    8.4975  -11.8511   16.2377 N   0  0  0  0  0  0  0  0  0  0  0  0
    8.7744  -15.3320   20.6212 C   0  0  0  0  0  0  0  0  0  0  0  0
    9.6901  -14.5202   20.4331 O   0  0  0  0  0  0  0  0  0  0  0  0
    8.0259  -15.2686   21.7946 N   0  0  0  0  0  0  0  0  0  0  0  0
    8.2487  -14.4465   22.9384 C   0  0  1  0  0  0  0  0  0  0  0  0
    6.9032  -14.2363   23.6009 C   0  0  0  0  0  0  0  0  0  0  0  0
    6.9921  -13.5395   24.8967 C   0  0  0  0  0  0  0  0  0  0  0  0
    6.7522  -14.1851   26.0945 C   0  0  0  0  0  0  0  0  0  0  0  0
    6.8439  -13.5150   27.3249 C   0  0  0  0  0  0  0  0  0  0  0  0
    7.1828  -12.1850   27.3124 C   0  0  0  0  0  0  0  0  0  0  0  0
    7.4205  -11.5444   26.1208 C   0  0  0  0  0  0  0  0  0  0  0  0
    7.3335  -12.1906   24.9024 C   0  0  0  0  0  0  0  0  0  0  0  0
    9.1852  -15.0107   23.9230 C   0  0  0  0  0  0  0  0  0  0  0  0
    9.7778  -14.2786   24.7335 O   0  0  0  0  0  0  0  0  0  0  0  0
   11.1015  -22.4325   27.9965 N   0  0  0  0  0  0  0  0  0  0  0  0
   11.4139  -21.1500   28.6049 C   0  0  0  0  0  0  0  0  0  0  0  0
   12.4060  -21.0569   29.2888 N   0  0  0  0  0  0  0  0  0  0  0  0
   10.5023  -20.0538   28.3791 N   0  0  0  0  0  0  0  0  0  0  0  0
   10.8424  -18.8693   27.6513 C   0  0  0  0  0  0  0  0  0  0  0  0
   11.0604  -19.0047   26.1917 C   0  0  0  0  0  0  0  0  0  0  0  0
   10.0348  -18.3768   25.3098 C   0  0  0  0  0  0  0  0  0  0  0  0
   10.4604  -16.9659   24.8894 C   0  0  2  0  0  0  0  0  0  0  0  0
    9.4585  -16.4284   23.9965 N   0  0  0  0  0  0  0  0  0  0  0  0
   11.7976  -17.0890   24.2557 C   0  0  0  0  0  0  0  0  0  0  0  0
   12.9360  -17.0784   25.0078 O   0  0  0  0  0  0  0  0  0  0  0  0
   11.8611  -17.2004   23.0216 O   0  0  0  0  0  0  0  0  0  0  0  0
  2  3  1  0
  2  8  1  0
  2  1  1  1
  4  3  1  0
  5  4  1  0
  6  5  1  0
  7  6  1  0
  8  9  2  0
 10 11  1  0
 10  8  1  0
 11 19  1  0
 12 13  1  0
 11 12  1  1
 13 14  2  0
 14 15  1  0
 16 15  2  0
 17 16  1  0
 18 13  1  0
 18 17  2  0
 19 20  2  0
 21 22  1  0
 22 24  1  0
 22 23  2  0
 24 25  1  0
 26 25  1  0
 27 26  1  0
 28 27  1  6
 28 30  1  0
 29 19  1  0
 29 28  1  0
 30 32  2  0
 30 31  1  0
M  END
$$$$
