KFR.pdb
     RDKit          3D

 32 32  0  0  1  0  0  0  0  0999 V2000
    8.1620  -12.8462   18.1333 N   0  0  0  0  0  0  0  0  0  0  0  0
    7.8943  -14.0648   18.8849 C   0  0  1  0  0  0  0  0  0  0  0  0
    8.6052  -15.2360   18.2926 C   0  0  0  0  0  0  0  0  0  0  0  0
    7.9767  -15.6674   17.0071 C   0  0  0  0  0  0  0  0  0  0  0  0
    8.6500  -16.8876   16.4680 C   0  0  0  0  0  0  0  0  0  0  0  0
    7.9631  -17.1973   15.1281 C   0  0  0  0  0  0  0  0  0  0  0  0
    8.6310  -18.3470   14.5524 N   0  0  0  0  0  0  0  0  0  0  0  0
    8.4010  -13.8401   20.3002 C   0  0  0  0  0  0  0  0  0  0  0  0
    9.5777  -13.5063   20.4917 O   0  0  0  0  0  0  0  0  0  0  0  0
    7.5453  -14.0078   21.3869 N   0  0  0  0  0  0  0  0  0  0  0  0
    7.8487  -13.8821   22.7746 C   0  0  1  0  0  0  0  0  0  0  0  0
    6.6016  -13.3563   23.4541 C   0  0  0  0  0  0  0  0  0  0  0  0
    6.7819  -13.1079   24.8958 C   0  0  0  0  0  0  0  0  0  0  0  0
    6.4667  -14.0576   25.8486 C   0  0  0  0  0  0  0  0  0  0  0  0
    6.6462  -13.8146   27.2197 C   0  0  0  0  0  0  0  0  0  0  0  0
    7.1497  -12.5955   27.5992 C   0  0  0  0  0  0  0  0  0  0  0  0
    7.4622  -11.6521   26.6508 C   0  0  0  0  0  0  0  0  0  0  0  0
    7.2904  -11.8769   25.2982 C   0  0  0  0  0  0  0  0  0  0  0  0
    8.2577  -15.1361   23.4266 C   0  0  0  0  0  0  0  0  0  0  0  0
    7.5697  -16.1653   23.3201 O   0  0  0  0  0  0  0  0  0  0  0  0
   15.0383  -20.6407   22.4018 N   0  0  0  0  0  0  0  0  0  0  0  0
   13.6584  -20.2507   22.6396 C   0  0  0  0  0  0  0  0  0  0  0  0
   12.7863  -21.0723   22.4813 N   0  0  0  0  0  0  0  0  0  0  0  0
   13.3987  -18.8858   23.0305 N   0  0  0  0  0  0  0  0  0  0  0  0
   13.2008  -18.4668   24.3847 C   0  0  0  0  0  0  0  0  0  0  0  0
   11.8267  -18.0833   24.7860 C   0  0  0  0  0  0  0  0  0  0  0  0
   11.3177  -16.7898   24.2457 C   0  0  0  0  0  0  0  0  0  0  0  0
    9.9118  -16.4878   24.7755 C   0  0  2  0  0  0  0  0  0  0  0  0
    9.4666  -15.2325   24.2133 N   0  0  0  0  0  0  0  0  0  0  0  0
   10.0051  -16.4603   26.2571 C   0  0  0  0  0  0  0  0  0  0  0  0
   10.0487  -17.6163   26.9806 O   0  0  0  0  0  0  0  0  0  0  0  0
   10.0411  -15.3598   26.8288 O   0  0  0  0  0  0  0  0  0  0  0  0
  2  3  1  0
  2  8  1  0
  2  1  1  6
  4  3  1  0
  5  4  1  0
  6  5  1  0
  7  6  1  0
  8  9  2  0
 10 11  1  0
 10  8  1  0
 11 19  1  0
 12 13  1  0
 11 12  1  1
 13 14  2  0
 14 15  1  0
 16 15  2  0
 17 16  1  0
 18 13  1  0
 18 17  2  0
 19 20  2  0
 21 22  1  0
 22 24  1  0
 22 23  2  0
 24 25  1  0
 26 25  1  0
 27 26  1  0
 28 27  1  6
 28 30  1  0
 29 19  1  0
 29 28  1  0
 30 32  2  0
 30 31  1  0
M  END
$$$$
