KFR.pdb
     RDKit          3D

 32 32  0  0  1  0  0  0  0  0999 V2000
    7.0820  -15.3924   19.3850 N   0  0  0  0  0  0  0  0  0  0  0  0
    8.4214  -14.8224   19.3330 C   0  0  1  0  0  0  0  0  0  0  0  0
    8.4690  -13.6265   18.4411 C   0  0  0  0  0  0  0  0  0  0  0  0
    7.9810  -13.9474   17.0654 C   0  0  0  0  0  0  0  0  0  0  0  0
    8.9603  -13.4915   16.0329 C   0  0  0  0  0  0  0  0  0  0  0  0
    8.3560  -13.8753   14.6726 C   0  0  0  0  0  0  0  0  0  0  0  0
    9.1987  -13.2995   13.6443 N   0  0  0  0  0  0  0  0  0  0  0  0
    8.7859  -14.4018   20.7474 C   0  0  0  0  0  0  0  0  0  0  0  0
    9.9243  -13.9835   20.9959 O   0  0  0  0  0  0  0  0  0  0  0  0
    7.8424  -14.4843   21.7692 N   0  0  0  0  0  0  0  0  0  0  0  0
    8.0082  -14.1649   23.1492 C   0  0  1  0  0  0  0  0  0  0  0  0
    6.7470  -13.4537   23.5931 C   0  0  0  0  0  0  0  0  0  0  0  0
    6.7983  -12.9909   24.9916 C   0  0  0  0  0  0  0  0  0  0  0  0
    7.5584  -11.9030   25.3766 C   0  0  0  0  0  0  0  0  0  0  0  0
    7.5977  -11.4657   26.7102 C   0  0  0  0  0  0  0  0  0  0  0  0
    6.8533  -12.1516   27.6372 C   0  0  0  0  0  0  0  0  0  0  0  0
    6.0986  -13.2331   27.2530 C   0  0  0  0  0  0  0  0  0  0  0  0
    6.0506  -13.6753   25.9447 C   0  0  0  0  0  0  0  0  0  0  0  0
    8.2359  -15.3273   24.0221 C   0  0  0  0  0  0  0  0  0  0  0  0
    7.3451  -16.1745   24.2031 O   0  0  0  0  0  0  0  0  0  0  0  0
   12.9960  -22.5641   22.0176 N   0  0  0  0  0  0  0  0  0  0  0  0
   13.3977  -21.3422   22.6944 C   0  0  0  0  0  0  0  0  0  0  0  0
   14.5610  -21.0158   22.6638 N   0  0  0  0  0  0  0  0  0  0  0  0
   12.3830  -20.5910   23.3940 N   0  0  0  0  0  0  0  0  0  0  0  0
   12.6078  -19.3109   23.9935 C   0  0  0  0  0  0  0  0  0  0  0  0
   11.4881  -18.7081   24.7544 C   0  0  0  0  0  0  0  0  0  0  0  0
   11.0645  -17.3414   24.3342 C   0  0  0  0  0  0  0  0  0  0  0  0
    9.8888  -16.8449   25.1827 C   0  0  2  0  0  0  0  0  0  0  0  0
    9.4928  -15.5396   24.7039 N   0  0  0  0  0  0  0  0  0  0  0  0
   10.3503  -16.8307   26.5939 C   0  0  0  0  0  0  0  0  0  0  0  0
   10.3694  -15.6732   27.3160 O   0  0  0  0  0  0  0  0  0  0  0  0
   10.7225  -17.8973   27.1070 O   0  0  0  0  0  0  0  0  0  0  0  0
  2  3  1  0
  2  8  1  0
  2  1  1  1
  4  3  1  0
  5  4  1  0
  6  5  1  0
  7  6  1  0
  8  9  2  0
 10 11  1  0
 10  8  1  0
 11 19  1  0
 12 13  1  0
 11 12  1  1
 13 14  2  0
 14 15  1  0
 16 15  2  0
 17 16  1  0
 18 13  1  0
 18 17  2  0
 19 20  2  0
 21 22  1  0
 22 24  1  0
 22 23  2  0
 24 25  1  0
 26 25  1  0
 27 26  1  0
 28 27  1  6
 28 30  1  0
 29 19  1  0
 29 28  1  0
 30 32  2  0
 30 31  1  0
M  END
$$$$
