SIT.pdb
     RDKit          3D

 22 21  0  0  1  0  0  0  0  0999 V2000
   19.8551  -22.9735  -14.5562 O   0  0  0  0  0  0  0  0  0  0  0  0
   20.8671  -22.0415  -14.5224 C   0  0  0  0  0  0  0  0  0  0  0  0
   21.0474  -21.4748  -13.1362 C   0  0  2  0  0  0  0  0  0  0  0  0
   20.0631  -20.4407  -12.9262 N   0  0  0  0  0  0  0  0  0  0  0  0
   22.4113  -20.8465  -13.0579 C   0  0  0  0  0  0  0  0  0  0  0  0
   22.5520  -19.6123  -13.3159 O   0  0  0  0  0  0  0  0  0  0  0  0
   25.4078  -20.7130   -8.8799 C   0  0  0  0  0  0  0  0  0  0  0  0
   24.7871  -20.4632  -10.2475 C   0  0  0  0  0  0  0  0  0  0  0  0
   25.4844  -21.2008  -11.3293 C   0  0  2  0  0  0  0  0  0  0  0  0
   26.9715  -20.9329  -11.3777 C   0  0  0  0  0  0  0  0  0  0  0  0
   24.8716  -20.9209  -12.6791 C   0  0  2  0  0  0  0  0  0  0  0  0
   23.5568  -21.5756  -12.7062 N   0  0  0  0  0  0  0  0  0  0  0  0
   25.6776  -21.3664  -13.8263 C   0  0  0  0  0  0  0  0  0  0  0  0
   26.3044  -22.4275  -13.8068 O   0  0  0  0  0  0  0  0  0  0  0  0
   24.4321  -21.9331  -17.3915 C   0  0  0  0  0  0  0  0  0  0  0  0
   25.4814  -20.8499  -17.3789 C   0  0  1  0  0  0  0  0  0  0  0  0
   24.8621  -19.5914  -17.2261 O   0  0  0  0  0  0  0  0  0  0  0  0
   26.4273  -20.9915  -16.2001 C   0  0  2  0  0  0  0  0  0  0  0  0
   25.7439  -20.5541  -15.0032 N   0  0  0  0  0  0  0  0  0  0  0  0
   27.5669  -20.0788  -16.4469 C   0  0  0  0  0  0  0  0  0  0  0  0
   27.7111  -19.0559  -15.7456 O   0  0  0  0  0  0  0  0  0  0  0  0
   28.4882  -20.3401  -17.4528 O   0  0  0  0  0  0  0  0  0  0  0  0
  1  2  1  0
  3  2  1  0
  3  4  1  6
  3  5  1  0
  5 12  1  0
  6  5  2  0
  8  7  1  0
  9  8  1  0
  9 11  1  0
  9 10  1  6
 11 13  1  0
 11 12  1  1
 13 19  1  0
 13 14  2  0
 16 15  1  1
 16 18  1  0
 17 16  1  0
 18 20  1  0
 18 19  1  1
 20 21  2  0
 20 22  1  0
M  END
$$$$
