SIT.pdb
     RDKit          3D

 22 21  0  0  1  0  0  0  0  0999 V2000
   25.9880  -19.0398  -17.2548 O   0  0  0  0  0  0  0  0  0  0  0  0
   25.8190  -18.9593  -15.8913 C   0  0  0  0  0  0  0  0  0  0  0  0
   26.5276  -20.0859  -15.1814 C   0  0  2  0  0  0  0  0  0  0  0  0
   26.9141  -21.0778  -16.1556 N   0  0  0  0  0  0  0  0  0  0  0  0
   25.5590  -20.7222  -14.2234 C   0  0  0  0  0  0  0  0  0  0  0  0
   25.0470  -21.8492  -14.5012 O   0  0  0  0  0  0  0  0  0  0  0  0
   26.4731  -20.5948   -9.0703 C   0  0  0  0  0  0  0  0  0  0  0  0
   25.9419  -21.0416  -10.4253 C   0  0  0  0  0  0  0  0  0  0  0  0
   24.5986  -20.4849  -10.7188 C   0  0  2  0  0  0  0  0  0  0  0  0
   23.5243  -20.9789   -9.7768 C   0  0  0  0  0  0  0  0  0  0  0  0
   24.1860  -20.7481  -12.1458 C   0  0  2  0  0  0  0  0  0  0  0  0
   25.1884  -20.1160  -13.0141 N   0  0  0  0  0  0  0  0  0  0  0  0
   22.8416  -20.2656  -12.4977 C   0  0  0  0  0  0  0  0  0  0  0  0
   22.5707  -19.0637  -12.5302 O   0  0  0  0  0  0  0  0  0  0  0  0
   20.4249  -22.5694  -14.9787 C   0  0  0  0  0  0  0  0  0  0  0  0
   20.3048  -21.0941  -14.6888 C   0  0  1  0  0  0  0  0  0  0  0  0
   19.0061  -20.6508  -15.0165 O   0  0  0  0  0  0  0  0  0  0  0  0
   20.4855  -20.7906  -13.2125 C   0  0  2  0  0  0  0  0  0  0  0  0
   21.8111  -21.2080  -12.8130 N   0  0  0  0  0  0  0  0  0  0  0  0
   19.4964  -21.6112  -12.4771 C   0  0  0  0  0  0  0  0  0  0  0  0
   19.8745  -22.5980  -11.8121 O   0  0  0  0  0  0  0  0  0  0  0  0
   18.1428  -21.3024  -12.5123 O   0  0  0  0  0  0  0  0  0  0  0  0
  1  2  1  0
  3  2  1  0
  3  4  1  6
  3  5  1  0
  5 12  1  0
  6  5  2  0
  8  7  1  0
  9  8  1  0
  9 11  1  0
  9 10  1  1
 11 13  1  0
 11 12  1  6
 13 19  1  0
 13 14  2  0
 16 15  1  1
 16 18  1  0
 17 16  1  0
 18 20  1  0
 18 19  1  1
 20 21  2  0
 20 22  1  0
M  END
$$$$
