SIT.pdb
     RDKit          3D

 22 21  0  0  1  0  0  0  0  0999 V2000
   20.7684  -11.3621  -20.8436 O   0  0  0  0  0  0  0  0  0  0  0  0
   21.2123  -10.8789  -19.6339 C   0  0  0  0  0  0  0  0  0  0  0  0
   22.2398  -11.7958  -19.0185 C   0  0  2  0  0  0  0  0  0  0  0  0
   21.6058  -13.0501  -18.6914 N   0  0  0  0  0  0  0  0  0  0  0  0
   22.7256  -11.1689  -17.7410 C   0  0  0  0  0  0  0  0  0  0  0  0
   22.0005  -11.2157  -16.7010 O   0  0  0  0  0  0  0  0  0  0  0  0
   27.4054  -12.0719  -15.7532 C   0  0  0  0  0  0  0  0  0  0  0  0
   25.9512  -11.6722  -15.9622 C   0  0  0  0  0  0  0  0  0  0  0  0
   25.7823  -10.2058  -16.1093 C   0  0  2  0  0  0  0  0  0  0  0  0
   26.2783   -9.4208  -14.9162 C   0  0  0  0  0  0  0  0  0  0  0  0
   24.3492   -9.8367  -16.4026 C   0  0  2  0  0  0  0  0  0  0  0  0
   23.9667  -10.5227  -17.6441 N   0  0  0  0  0  0  0  0  0  0  0  0
   24.0983   -8.3927  -16.5295 C   0  0  0  0  0  0  0  0  0  0  0  0
   24.7693   -7.6802  -17.2785 O   0  0  0  0  0  0  0  0  0  0  0  0
   21.3781   -6.5308  -17.8633 C   0  0  0  0  0  0  0  0  0  0  0  0
   21.4270   -6.1267  -16.4111 C   0  0  1  0  0  0  0  0  0  0  0  0
   20.5332   -6.9249  -15.6665 O   0  0  0  0  0  0  0  0  0  0  0  0
   22.7978   -6.3632  -15.8034 C   0  0  2  0  0  0  0  0  0  0  0  0
   23.0488   -7.7868  -15.7674 N   0  0  0  0  0  0  0  0  0  0  0  0
   22.7465   -5.8630  -14.4106 C   0  0  0  0  0  0  0  0  0  0  0  0
   22.7368   -6.6693  -13.4573 O   0  0  0  0  0  0  0  0  0  0  0  0
   22.7085   -4.5013  -14.1403 O   0  0  0  0  0  0  0  0  0  0  0  0
  1  2  1  0
  3  2  1  0
  3  4  1  1
  3  5  1  0
  5 12  1  0
  6  5  2  0
  8  7  1  0
  9  8  1  0
  9 11  1  0
  9 10  1  1
 11 13  1  0
 11 12  1  6
 13 19  1  0
 13 14  2  0
 16 15  1  6
 16 18  1  0
 17 16  1  0
 18 20  1  0
 18 19  1  1
 20 21  2  0
 20 22  1  0
M  END
$$$$
