SIT.pdb
     RDKit          3D

 22 21  0  0  1  0  0  0  0  0999 V2000
   18.4803  -10.1799  -19.4793 O   0  0  0  0  0  0  0  0  0  0  0  0
   19.2530   -9.9166  -18.3713 C   0  0  0  0  0  0  0  0  0  0  0  0
   20.1868  -11.0613  -18.0668 C   0  0  2  0  0  0  0  0  0  0  0  0
   19.4088  -12.1829  -17.5991 N   0  0  0  0  0  0  0  0  0  0  0  0
   21.1085  -10.6351  -16.9578 C   0  0  0  0  0  0  0  0  0  0  0  0
   20.7126  -10.6902  -15.7537 O   0  0  0  0  0  0  0  0  0  0  0  0
   26.7796  -10.7344  -15.0606 C   0  0  0  0  0  0  0  0  0  0  0  0
   25.4273  -10.0374  -15.0010 C   0  0  0  0  0  0  0  0  0  0  0  0
   24.5453  -10.4143  -16.1325 C   0  0  2  0  0  0  0  0  0  0  0  0
   25.1922  -10.2294  -17.4864 C   0  0  0  0  0  0  0  0  0  0  0  0
   23.2335   -9.6705  -16.0883 C   0  0  2  0  0  0  0  0  0  0  0  0
   22.4101  -10.1708  -17.1973 N   0  0  0  0  0  0  0  0  0  0  0  0
   23.3518   -8.2066  -16.1718 C   0  0  0  0  0  0  0  0  0  0  0  0
   24.1331   -7.6616  -16.9538 O   0  0  0  0  0  0  0  0  0  0  0  0
   21.1757   -5.8674  -17.4890 C   0  0  0  0  0  0  0  0  0  0  0  0
   21.2778   -5.4601  -16.0404 C   0  0  1  0  0  0  0  0  0  0  0  0
   20.2412   -6.0694  -15.3023 O   0  0  0  0  0  0  0  0  0  0  0  0
   22.5724   -5.9380  -15.4078 C   0  0  2  0  0  0  0  0  0  0  0  0
   22.5427   -7.3815  -15.3268 N   0  0  0  0  0  0  0  0  0  0  0  0
   22.6085   -5.3940  -14.0310 C   0  0  0  0  0  0  0  0  0  0  0  0
   22.4632   -6.1575  -13.0538 O   0  0  0  0  0  0  0  0  0  0  0  0
   22.8027   -4.0380  -13.8023 O   0  0  0  0  0  0  0  0  0  0  0  0
  1  2  1  0
  3  2  1  0
  3  4  1  1
  3  5  1  0
  5 12  1  0
  6  5  2  0
  8  7  1  0
  9  8  1  0
  9 11  1  0
  9 10  1  6
 11 13  1  0
 11 12  1  6
 13 19  1  0
 13 14  2  0
 16 15  1  6
 16 18  1  0
 17 16  1  0
 18 20  1  0
 18 19  1  1
 20 21  2  0
 20 22  1  0
M  END
$$$$
