SIT.pdb
     RDKit          3D

 22 21  0  0  1  0  0  0  0  0999 V2000
   16.7852   -9.9650  -18.7086 O   0  0  0  0  0  0  0  0  0  0  0  0
   17.6898   -9.5680  -17.7505 C   0  0  0  0  0  0  0  0  0  0  0  0
   18.2338  -10.7480  -16.9844 C   0  0  2  0  0  0  0  0  0  0  0  0
   17.1633  -11.3353  -16.2154 N   0  0  0  0  0  0  0  0  0  0  0  0
   19.2788  -10.2467  -16.0266 C   0  0  0  0  0  0  0  0  0  0  0  0
   18.9693  -10.0250  -14.8163 O   0  0  0  0  0  0  0  0  0  0  0  0
   23.5550  -12.8173  -15.1160 C   0  0  0  0  0  0  0  0  0  0  0  0
   22.3671  -11.8659  -15.1577 C   0  0  0  0  0  0  0  0  0  0  0  0
   22.7660  -10.4757  -15.4873 C   0  0  2  0  0  0  0  0  0  0  0  0
   23.8830   -9.9481  -14.6157 C   0  0  0  0  0  0  0  0  0  0  0  0
   21.5903   -9.5317  -15.4366 C   0  0  2  0  0  0  0  0  0  0  0  0
   20.6049  -10.0083  -16.4164 N   0  0  0  0  0  0  0  0  0  0  0  0
   21.9194   -8.1224  -15.7008 C   0  0  0  0  0  0  0  0  0  0  0  0
   22.5664   -7.7815  -16.6928 O   0  0  0  0  0  0  0  0  0  0  0  0
   19.7608   -5.4509  -16.5134 C   0  0  0  0  0  0  0  0  0  0  0  0
   20.4346   -4.9901  -15.2452 C   0  0  1  0  0  0  0  0  0  0  0  0
   19.6225   -5.3054  -14.1353 O   0  0  0  0  0  0  0  0  0  0  0  0
   21.7520   -5.7071  -15.0111 C   0  0  2  0  0  0  0  0  0  0  0  0
   21.4820   -7.1101  -14.7880 N   0  0  0  0  0  0  0  0  0  0  0  0
   22.3389   -5.1423  -13.7745 C   0  0  0  0  0  0  0  0  0  0  0  0
   22.4089   -5.8398  -12.7413 O   0  0  0  0  0  0  0  0  0  0  0  0
   22.8182   -3.8393  -13.7403 O   0  0  0  0  0  0  0  0  0  0  0  0
  1  2  1  0
  3  2  1  0
  3  4  1  1
  3  5  1  0
  5 12  1  0
  6  5  2  0
  8  7  1  0
  9  8  1  0
  9 11  1  0
  9 10  1  1
 11 13  1  0
 11 12  1  6
 13 19  1  0
 13 14  2  0
 16 15  1  6
 16 18  1  0
 17 16  1  0
 18 20  1  0
 18 19  1  1
 20 21  2  0
 20 22  1  0
M  END
$$$$
