SIT.pdb
     RDKit          3D

 22 21  0  0  1  0  0  0  0  0999 V2000
   20.5853  -10.4902  -21.2453 O   0  0  0  0  0  0  0  0  0  0  0  0
   20.9125  -10.0735  -19.9752 C   0  0  0  0  0  0  0  0  0  0  0  0
   21.7876  -11.0819  -19.2733 C   0  0  2  0  0  0  0  0  0  0  0  0
   21.0014  -12.2570  -18.9844 N   0  0  0  0  0  0  0  0  0  0  0  0
   22.2384  -10.4869  -17.9681 C   0  0  0  0  0  0  0  0  0  0  0  0
   21.4744  -10.5359  -16.9563 O   0  0  0  0  0  0  0  0  0  0  0  0
   26.6968  -11.9033  -15.9173 C   0  0  0  0  0  0  0  0  0  0  0  0
   25.3051  -11.3506  -16.1924 C   0  0  0  0  0  0  0  0  0  0  0  0
   25.2798   -9.8676  -16.2202 C   0  0  2  0  0  0  0  0  0  0  0  0
   25.8182   -9.2335  -14.9578 C   0  0  0  0  0  0  0  0  0  0  0  0
   23.8960   -9.3392  -16.5061 C   0  0  2  0  0  0  0  0  0  0  0  0
   23.4879   -9.8686  -17.8143 N   0  0  0  0  0  0  0  0  0  0  0  0
   23.7830   -7.8724  -16.5010 C   0  0  0  0  0  0  0  0  0  0  0  0
   24.5284   -7.1612  -17.1775 O   0  0  0  0  0  0  0  0  0  0  0  0
   20.9578   -5.8282  -17.5590 C   0  0  0  0  0  0  0  0  0  0  0  0
   21.1899   -5.4854  -16.1087 C   0  0  1  0  0  0  0  0  0  0  0  0
   20.3480   -6.2725  -15.2949 O   0  0  0  0  0  0  0  0  0  0  0  0
   22.6074   -5.8070  -15.6707 C   0  0  2  0  0  0  0  0  0  0  0  0
   22.7841   -7.2420  -15.6922 N   0  0  0  0  0  0  0  0  0  0  0  0
   22.7450   -5.3407  -14.2721 C   0  0  0  0  0  0  0  0  0  0  0  0
   22.7984   -6.1695  -13.3398 O   0  0  0  0  0  0  0  0  0  0  0  0
   22.8168   -3.9863  -13.9731 O   0  0  0  0  0  0  0  0  0  0  0  0
  1  2  1  0
  3  2  1  0
  3  4  1  1
  3  5  1  0
  5 12  1  0
  6  5  2  0
  8  7  1  0
  9  8  1  0
  9 11  1  0
  9 10  1  1
 11 13  1  0
 11 12  1  6
 13 19  1  0
 13 14  2  0
 16 15  1  6
 16 18  1  0
 17 16  1  0
 18 20  1  0
 18 19  1  1
 20 21  2  0
 20 22  1  0
M  END
$$$$
