SIT.pdb
     RDKit          3D

 22 21  0  0  1  0  0  0  0  0999 V2000
   17.7171   -9.9671  -19.8594 O   0  0  0  0  0  0  0  0  0  0  0  0
   18.2542   -9.6767  -18.6260 C   0  0  0  0  0  0  0  0  0  0  0  0
   18.7969  -10.9147  -17.9567 C   0  0  2  0  0  0  0  0  0  0  0  0
   17.6890  -11.7261  -17.5135 N   0  0  0  0  0  0  0  0  0  0  0  0
   19.5810  -10.4904  -16.7459 C   0  0  0  0  0  0  0  0  0  0  0  0
   18.9757  -10.2407  -15.6593 O   0  0  0  0  0  0  0  0  0  0  0  0
   23.3485  -13.2837  -14.8247 C   0  0  0  0  0  0  0  0  0  0  0  0
   22.2515  -12.2592  -15.0800 C   0  0  0  0  0  0  0  0  0  0  0  0
   22.7898  -10.8925  -15.2869 C   0  0  2  0  0  0  0  0  0  0  0  0
   23.6461  -10.4037  -14.1408 C   0  0  0  0  0  0  0  0  0  0  0  0
   21.6907   -9.8967  -15.5632 C   0  0  2  0  0  0  0  0  0  0  0  0
   20.9770  -10.3553  -16.7625 N   0  0  0  0  0  0  0  0  0  0  0  0
   22.1474   -8.5108  -15.7503 C   0  0  0  0  0  0  0  0  0  0  0  0
   23.0445   -8.2242  -16.5453 O   0  0  0  0  0  0  0  0  0  0  0  0
   20.3915   -5.7326  -17.1063 C   0  0  0  0  0  0  0  0  0  0  0  0
   20.7473   -5.2980  -15.7066 C   0  0  1  0  0  0  0  0  0  0  0  0
   19.6701   -5.5708  -14.8372 O   0  0  0  0  0  0  0  0  0  0  0  0
   21.9301   -6.0741  -15.1561 C   0  0  2  0  0  0  0  0  0  0  0  0
   21.5410   -7.4573  -14.9939 N   0  0  0  0  0  0  0  0  0  0  0  0
   22.2313   -5.5141  -13.8189 C   0  0  0  0  0  0  0  0  0  0  0  0
   21.9799   -6.1789  -12.7923 O   0  0  0  0  0  0  0  0  0  0  0  0
   22.7935   -4.2516  -13.6818 O   0  0  0  0  0  0  0  0  0  0  0  0
  1  2  1  0
  3  2  1  0
  3  4  1  1
  3  5  1  0
  5 12  1  0
  6  5  2  0
  8  7  1  0
  9  8  1  0
  9 11  1  0
  9 10  1  1
 11 13  1  0
 11 12  1  6
 13 19  1  0
 13 14  2  0
 16 15  1  6
 16 18  1  0
 17 16  1  0
 18 20  1  0
 18 19  1  1
 20 21  2  0
 20 22  1  0
M  END
$$$$
