SIT.pdb
     RDKit          3D

 22 21  0  0  1  0  0  0  0  0999 V2000
   12.3287  -12.2938  -17.7947 O   0  0  0  0  0  0  0  0  0  0  0  0
   13.2446  -11.5657  -17.0703 C   0  0  0  0  0  0  0  0  0  0  0  0
   14.2928  -12.4577  -16.4532 C   0  0  2  0  0  0  0  0  0  0  0  0
   13.6941  -13.1934  -15.3657 N   0  0  0  0  0  0  0  0  0  0  0  0
   15.3795  -11.5860  -15.8873 C   0  0  0  0  0  0  0  0  0  0  0  0
   15.2435  -11.0804  -14.7317 O   0  0  0  0  0  0  0  0  0  0  0  0
   20.2315  -13.3555  -16.1681 C   0  0  0  0  0  0  0  0  0  0  0  0
   18.9170  -12.6477  -15.8695 C   0  0  0  0  0  0  0  0  0  0  0  0
   18.9353  -11.2222  -16.2792 C   0  0  2  0  0  0  0  0  0  0  0  0
   20.0899  -10.4427  -15.6917 C   0  0  0  0  0  0  0  0  0  0  0  0
   17.6347  -10.5315  -15.9518 C   0  0  2  0  0  0  0  0  0  0  0  0
   16.5586  -11.3007  -16.5911 N   0  0  0  0  0  0  0  0  0  0  0  0
   17.5620   -9.1232  -16.3710 C   0  0  0  0  0  0  0  0  0  0  0  0
   17.8455   -8.7713  -17.5176 O   0  0  0  0  0  0  0  0  0  0  0  0
   14.5707   -6.8117  -16.1966 C   0  0  0  0  0  0  0  0  0  0  0  0
   15.6793   -6.2206  -15.3622 C   0  0  1  0  0  0  0  0  0  0  0  0
   15.5256   -6.6202  -14.0178 O   0  0  0  0  0  0  0  0  0  0  0  0
   17.0438   -6.7288  -15.7915 C   0  0  2  0  0  0  0  0  0  0  0  0
   17.1524   -8.1248  -15.4304 N   0  0  0  0  0  0  0  0  0  0  0  0
   18.0523   -5.9672  -15.0198 C   0  0  0  0  0  0  0  0  0  0  0  0
   18.2800   -4.7717  -15.2988 O   0  0  0  0  0  0  0  0  0  0  0  0
   18.7574   -6.5618  -13.9815 O   0  0  0  0  0  0  0  0  0  0  0  0
  1  2  1  0
  3  2  1  0
  3  4  1  1
  3  5  1  0
  5 12  1  0
  6  5  2  0
  8  7  1  0
  9  8  1  0
  9 11  1  0
  9 10  1  1
 11 13  1  0
 11 12  1  6
 13 19  1  0
 13 14  2  0
 16 15  1  6
 16 18  1  0
 17 16  1  0
 18 20  1  0
 18 19  1  1
 20 21  2  0
 20 22  1  0
M  END
$$$$
