SIT.pdb
     RDKit          3D

 22 21  0  0  1  0  0  0  0  0999 V2000
   27.3800  -19.3398  -15.6783 O   0  0  0  0  0  0  0  0  0  0  0  0
   28.3335  -19.3080  -14.6864 C   0  0  0  0  0  0  0  0  0  0  0  0
   28.5568  -20.6768  -14.0934 C   0  0  2  0  0  0  0  0  0  0  0  0
   28.7596  -21.6199  -15.1666 N   0  0  0  0  0  0  0  0  0  0  0  0
   27.3136  -21.0756  -13.3476 C   0  0  0  0  0  0  0  0  0  0  0  0
   26.5472  -21.9640  -13.8304 O   0  0  0  0  0  0  0  0  0  0  0  0
   27.3471  -20.2832   -8.0675 C   0  0  0  0  0  0  0  0  0  0  0  0
   26.9965  -21.0135   -9.3566 C   0  0  0  0  0  0  0  0  0  0  0  0
   25.7969  -20.4471  -10.0203 C   0  0  2  0  0  0  0  0  0  0  0  0
   24.5055  -20.7652   -9.3013 C   0  0  0  0  0  0  0  0  0  0  0  0
   25.6991  -20.8832  -11.4612 C   0  0  2  0  0  0  0  0  0  0  0  0
   26.9552  -20.5002  -12.1197 N   0  0  0  0  0  0  0  0  0  0  0  0
   24.5553  -20.3240  -12.1982 C   0  0  0  0  0  0  0  0  0  0  0  0
   24.4054  -19.1089  -12.3402 O   0  0  0  0  0  0  0  0  0  0  0  0
   23.3739  -21.4750  -15.7471 C   0  0  0  0  0  0  0  0  0  0  0  0
   22.2604  -21.6205  -14.7403 C   0  0  1  0  0  0  0  0  0  0  0  0
   22.2503  -22.9363  -14.2314 O   0  0  0  0  0  0  0  0  0  0  0  0
   22.4608  -20.7138  -13.5394 C   0  0  2  0  0  0  0  0  0  0  0  0
   23.5829  -21.2049  -12.7708 N   0  0  0  0  0  0  0  0  0  0  0  0
   21.2414  -20.8221  -12.7064 C   0  0  0  0  0  0  0  0  0  0  0  0
   21.2953  -21.3777  -11.5895 O   0  0  0  0  0  0  0  0  0  0  0  0
   20.0265  -20.3132  -13.1466 O   0  0  0  0  0  0  0  0  0  0  0  0
  1  2  1  0
  3  2  1  0
  3  4  1  6
  3  5  1  0
  5 12  1  0
  6  5  2  0
  8  7  1  0
  9  8  1  0
  9 11  1  0
  9 10  1  1
 11 13  1  0
 11 12  1  6
 13 19  1  0
 13 14  2  0
 16 15  1  6
 16 18  1  0
 17 16  1  0
 18 20  1  0
 18 19  1  1
 20 21  2  0
 20 22  1  0
M  END
$$$$
