SIT.pdb
     RDKit          3D

 22 21  0  0  1  0  0  0  0  0999 V2000
   28.1122  -19.7335  -17.5766 O   0  0  0  0  0  0  0  0  0  0  0  0
   27.1134  -20.4637  -16.9739 C   0  0  0  0  0  0  0  0  0  0  0  0
   27.6721  -21.4215  -15.9514 C   0  0  2  0  0  0  0  0  0  0  0  0
   28.0305  -22.6516  -16.6152 N   0  0  0  0  0  0  0  0  0  0  0  0
   26.5913  -21.7263  -14.9514 C   0  0  0  0  0  0  0  0  0  0  0  0
   25.8621  -22.7530  -15.1053 O   0  0  0  0  0  0  0  0  0  0  0  0
   25.3248  -21.0454   -9.0486 C   0  0  0  0  0  0  0  0  0  0  0  0
   24.8029  -21.2980  -10.4563 C   0  0  0  0  0  0  0  0  0  0  0  0
   25.8146  -20.9960  -11.4983 C   0  0  2  0  0  0  0  0  0  0  0  0
   26.3578  -19.5874  -11.4184 C   0  0  0  0  0  0  0  0  0  0  0  0
   25.2821  -21.2593  -12.8850 C   0  0  2  0  0  0  0  0  0  0  0  0
   26.3475  -20.9127  -13.8352 N   0  0  0  0  0  0  0  0  0  0  0  0
   24.0514  -20.5272  -13.2220 C   0  0  0  0  0  0  0  0  0  0  0  0
   23.9808  -19.2999  -13.1334 O   0  0  0  0  0  0  0  0  0  0  0  0
   22.3993  -20.3283  -16.4601 C   0  0  0  0  0  0  0  0  0  0  0  0
   21.3892  -20.9329  -15.5172 C   0  0  1  0  0  0  0  0  0  0  0  0
   21.4565  -22.3403  -15.5892 O   0  0  0  0  0  0  0  0  0  0  0  0
   21.6818  -20.5780  -14.0705 C   0  0  2  0  0  0  0  0  0  0  0  0
   22.8974  -21.2486  -13.6662 N   0  0  0  0  0  0  0  0  0  0  0  0
   20.5632  -21.1101  -13.2591 C   0  0  0  0  0  0  0  0  0  0  0  0
   20.7461  -22.0940  -12.5125 O   0  0  0  0  0  0  0  0  0  0  0  0
   19.3020  -20.5311  -13.3122 O   0  0  0  0  0  0  0  0  0  0  0  0
  1  2  1  0
  3  2  1  0
  3  4  1  6
  3  5  1  0
  5 12  1  0
  6  5  2  0
  8  7  1  0
  9  8  1  0
  9 11  1  0
  9 10  1  6
 11 13  1  0
 11 12  1  6
 13 19  1  0
 13 14  2  0
 16 15  1  6
 16 18  1  0
 17 16  1  0
 18 20  1  0
 18 19  1  1
 20 21  2  0
 20 22  1  0
M  END
$$$$
