SIT.pdb
     RDKit          3D

 22 21  0  0  1  0  0  0  0  0999 V2000
   17.6369   -8.9226  -20.0004 O   0  0  0  0  0  0  0  0  0  0  0  0
   18.0897   -8.6895  -18.7219 C   0  0  0  0  0  0  0  0  0  0  0  0
   18.6946   -9.9319  -18.1171 C   0  0  2  0  0  0  0  0  0  0  0  0
   17.6289  -10.8060  -17.6900 N   0  0  0  0  0  0  0  0  0  0  0  0
   19.4847   -9.5283  -16.9031 C   0  0  0  0  0  0  0  0  0  0  0  0
   18.8827   -9.2756  -15.8153 O   0  0  0  0  0  0  0  0  0  0  0  0
   23.6185  -12.3316  -15.5507 C   0  0  0  0  0  0  0  0  0  0  0  0
   22.4240  -11.3973  -15.6852 C   0  0  0  0  0  0  0  0  0  0  0  0
   22.8109   -9.9676  -15.6028 C   0  0  2  0  0  0  0  0  0  0  0  0
   23.6142   -9.6325  -14.3666 C   0  0  0  0  0  0  0  0  0  0  0  0
   21.6098   -9.0592  -15.6924 C   0  0  2  0  0  0  0  0  0  0  0  0
   20.8827   -9.4160  -16.9180 N   0  0  0  0  0  0  0  0  0  0  0  0
   21.9229   -7.6218  -15.6951 C   0  0  0  0  0  0  0  0  0  0  0  0
   22.6485   -7.1168  -16.5539 O   0  0  0  0  0  0  0  0  0  0  0  0
   19.5135   -4.8163  -15.9512 C   0  0  0  0  0  0  0  0  0  0  0  0
   20.2538   -4.6453  -14.6483 C   0  0  1  0  0  0  0  0  0  0  0  0
   19.5198   -5.2457  -13.6036 O   0  0  0  0  0  0  0  0  0  0  0  0
   21.5995   -5.3475  -14.6653 C   0  0  2  0  0  0  0  0  0  0  0  0
   21.3760   -6.7761  -14.6777 N   0  0  0  0  0  0  0  0  0  0  0  0
   22.2888   -4.9939  -13.4033 C   0  0  0  0  0  0  0  0  0  0  0  0
   22.3747   -5.8327  -12.4824 O   0  0  0  0  0  0  0  0  0  0  0  0
   22.8473   -3.7355  -13.2213 O   0  0  0  0  0  0  0  0  0  0  0  0
  1  2  1  0
  3  2  1  0
  3  4  1  1
  3  5  1  0
  5 12  1  0
  6  5  2  0
  8  7  1  0
  9  8  1  0
  9 11  1  0
  9 10  1  1
 11 13  1  0
 11 12  1  6
 13 19  1  0
 13 14  2  0
 16 15  1  6
 16 18  1  0
 17 16  1  0
 18 20  1  0
 18 19  1  1
 20 21  2  0
 20 22  1  0
M  END
$$$$
