SIT.pdb
     RDKit          3D

 22 21  0  0  1  0  0  0  0  0999 V2000
   17.7734   -8.6365  -17.7655 O   0  0  0  0  0  0  0  0  0  0  0  0
   17.2005   -9.7577  -17.2098 C   0  0  0  0  0  0  0  0  0  0  0  0
   18.2167  -10.8548  -17.0125 C   0  0  2  0  0  0  0  0  0  0  0  0
   17.5481  -12.0152  -16.4750 N   0  0  0  0  0  0  0  0  0  0  0  0
   19.2264  -10.3855  -16.0019 C   0  0  0  0  0  0  0  0  0  0  0  0
   18.9207  -10.3608  -14.7709 O   0  0  0  0  0  0  0  0  0  0  0  0
   23.5344  -12.6780  -15.0115 C   0  0  0  0  0  0  0  0  0  0  0  0
   22.3108  -11.7737  -15.0665 C   0  0  0  0  0  0  0  0  0  0  0  0
   22.6609  -10.3646  -15.3706 C   0  0  2  0  0  0  0  0  0  0  0  0
   23.7314   -9.8020  -14.4632 C   0  0  0  0  0  0  0  0  0  0  0  0
   21.4465   -9.4701  -15.3423 C   0  0  2  0  0  0  0  0  0  0  0  0
   20.5148   -9.9660  -16.3641 N   0  0  0  0  0  0  0  0  0  0  0  0
   21.7262   -8.0436  -15.5682 C   0  0  0  0  0  0  0  0  0  0  0  0
   22.4159   -7.6589  -16.5144 O   0  0  0  0  0  0  0  0  0  0  0  0
   19.2901   -5.3320  -16.1822 C   0  0  0  0  0  0  0  0  0  0  0  0
   20.0485   -4.9604  -14.9327 C   0  0  1  0  0  0  0  0  0  0  0  0
   19.3357   -5.3998  -13.7971 O   0  0  0  0  0  0  0  0  0  0  0  0
   21.3999   -5.6485  -14.8648 C   0  0  2  0  0  0  0  0  0  0  0  0
   21.1884   -7.0659  -14.6714 N   0  0  0  0  0  0  0  0  0  0  0  0
   22.0989   -5.1142  -13.6738 C   0  0  0  0  0  0  0  0  0  0  0  0
   22.2869   -5.8456  -12.6794 O   0  0  0  0  0  0  0  0  0  0  0  0
   22.5544   -3.8027  -13.6398 O   0  0  0  0  0  0  0  0  0  0  0  0
  1  2  1  0
  3  2  1  0
  3  4  1  1
  3  5  1  0
  5 12  1  0
  6  5  2  0
  8  7  1  0
  9  8  1  0
  9 11  1  0
  9 10  1  1
 11 13  1  0
 11 12  1  6
 13 19  1  0
 13 14  2  0
 16 15  1  6
 16 18  1  0
 17 16  1  0
 18 20  1  0
 18 19  1  1
 20 21  2  0
 20 22  1  0
M  END
$$$$
