SIT.pdb
     RDKit          3D

 22 21  0  0  1  0  0  0  0  0999 V2000
   17.6752  -10.2623  -18.7373 O   0  0  0  0  0  0  0  0  0  0  0  0
   18.4984   -9.8979  -17.6964 C   0  0  0  0  0  0  0  0  0  0  0  0
   19.5438  -10.9513  -17.4267 C   0  0  2  0  0  0  0  0  0  0  0  0
   18.8977  -12.1130  -16.8653 N   0  0  0  0  0  0  0  0  0  0  0  0
   20.5053  -10.4101  -16.4051 C   0  0  0  0  0  0  0  0  0  0  0  0
   20.1903  -10.4204  -15.1762 O   0  0  0  0  0  0  0  0  0  0  0  0
   26.2720  -10.5349  -14.9729 C   0  0  0  0  0  0  0  0  0  0  0  0
   24.9475   -9.8011  -14.8140 C   0  0  0  0  0  0  0  0  0  0  0  0
   23.9682  -10.1650  -15.8670 C   0  0  2  0  0  0  0  0  0  0  0  0
   24.5014   -9.9885  -17.2707 C   0  0  0  0  0  0  0  0  0  0  0  0
   22.6753   -9.4030  -15.7131 C   0  0  2  0  0  0  0  0  0  0  0  0
   21.7578   -9.8845  -16.7545 N   0  0  0  0  0  0  0  0  0  0  0  0
   22.8079   -7.9404  -15.7983 C   0  0  0  0  0  0  0  0  0  0  0  0
   23.5864   -7.4038  -16.5888 O   0  0  0  0  0  0  0  0  0  0  0  0
   20.3825   -5.3817  -16.7417 C   0  0  0  0  0  0  0  0  0  0  0  0
   20.7725   -5.0784  -15.3167 C   0  0  1  0  0  0  0  0  0  0  0  0
   19.8506   -5.6804  -14.4344 O   0  0  0  0  0  0  0  0  0  0  0  0
   22.1272   -5.6651  -14.9633 C   0  0  2  0  0  0  0  0  0  0  0  0
   22.0166   -7.1068  -14.9448 N   0  0  0  0  0  0  0  0  0  0  0  0
   22.4551   -5.2046  -13.5947 C   0  0  0  0  0  0  0  0  0  0  0  0
   22.4347   -6.0119  -12.6424 O   0  0  0  0  0  0  0  0  0  0  0  0
   22.7884   -3.8795  -13.3462 O   0  0  0  0  0  0  0  0  0  0  0  0
  1  2  1  0
  3  2  1  0
  3  4  1  1
  3  5  1  0
  5 12  1  0
  6  5  2  0
  8  7  1  0
  9  8  1  0
  9 11  1  0
  9 10  1  6
 11 13  1  0
 11 12  1  6
 13 19  1  0
 13 14  2  0
 16 15  1  6
 16 18  1  0
 17 16  1  0
 18 20  1  0
 18 19  1  1
 20 21  2  0
 20 22  1  0
M  END
$$$$
