SIT.pdb
     RDKit          3D

 22 21  0  0  1  0  0  0  0  0999 V2000
   21.1308  -20.6706  -15.4090 O   0  0  0  0  0  0  0  0  0  0  0  0
   21.2672  -21.6866  -14.4908 C   0  0  0  0  0  0  0  0  0  0  0  0
   21.2974  -21.1533  -13.0802 C   0  0  2  0  0  0  0  0  0  0  0  0
   20.2994  -20.1187  -12.9539 N   0  0  0  0  0  0  0  0  0  0  0  0
   22.6467  -20.5350  -12.8390 C   0  0  0  0  0  0  0  0  0  0  0  0
   22.7838  -19.2757  -12.9082 O   0  0  0  0  0  0  0  0  0  0  0  0
   25.1245  -20.9439   -8.5216 C   0  0  0  0  0  0  0  0  0  0  0  0
   24.6423  -20.5766   -9.9182 C   0  0  0  0  0  0  0  0  0  0  0  0
   25.5829  -21.0186  -10.9767 C   0  0  2  0  0  0  0  0  0  0  0  0
   26.9901  -20.5002  -10.7853 C   0  0  0  0  0  0  0  0  0  0  0  0
   25.0864  -20.6499  -12.3528 C   0  0  2  0  0  0  0  0  0  0  0  0
   23.7820  -21.3006  -12.5354 N   0  0  0  0  0  0  0  0  0  0  0  0
   25.9899  -21.0193  -13.4535 C   0  0  0  0  0  0  0  0  0  0  0  0
   27.1949  -21.2027  -13.2710 O   0  0  0  0  0  0  0  0  0  0  0  0
   26.0212  -24.0344  -15.5453 C   0  0  0  0  0  0  0  0  0  0  0  0
   25.7648  -22.8661  -16.4640 C   0  0  1  0  0  0  0  0  0  0  0  0
   24.3747  -22.6759  -16.6126 O   0  0  0  0  0  0  0  0  0  0  0  0
   26.3013  -21.5668  -15.8909 C   0  0  2  0  0  0  0  0  0  0  0  0
   25.4671  -21.1728  -14.7773 N   0  0  0  0  0  0  0  0  0  0  0  0
   26.1779  -20.5415  -16.9521 C   0  0  0  0  0  0  0  0  0  0  0  0
   25.3552  -19.6105  -16.8285 O   0  0  0  0  0  0  0  0  0  0  0  0
   26.9668  -20.5949  -18.0939 O   0  0  0  0  0  0  0  0  0  0  0  0
  1  2  1  0
  3  2  1  0
  3  4  1  6
  3  5  1  0
  5 12  1  0
  6  5  2  0
  8  7  1  0
  9  8  1  0
  9 11  1  0
  9 10  1  1
 11 13  1  0
 11 12  1  6
 13 19  1  0
 13 14  2  0
 16 15  1  1
 16 18  1  0
 17 16  1  0
 18 20  1  0
 18 19  1  1
 20 21  2  0
 20 22  1  0
M  END
$$$$
