SIT.pdb
     RDKit          3D

 22 21  0  0  1  0  0  0  0  0999 V2000
   20.9274  -12.4016  -21.3158 O   0  0  0  0  0  0  0  0  0  0  0  0
   20.9858  -11.8608  -20.0517 C   0  0  0  0  0  0  0  0  0  0  0  0
   21.9887  -12.5853  -19.1888 C   0  0  2  0  0  0  0  0  0  0  0  0
   21.4649  -13.8902  -18.8646 N   0  0  0  0  0  0  0  0  0  0  0  0
   22.1523  -11.8144  -17.9082 C   0  0  0  0  0  0  0  0  0  0  0  0
   21.4028  -12.0724  -16.9177 O   0  0  0  0  0  0  0  0  0  0  0  0
   26.6018  -11.3747  -15.4083 C   0  0  0  0  0  0  0  0  0  0  0  0
   25.1542  -11.3754  -15.8798 C   0  0  0  0  0  0  0  0  0  0  0  0
   24.6191  -10.0047  -16.0684 C   0  0  2  0  0  0  0  0  0  0  0  0
   24.7655   -9.1286  -14.8450 C   0  0  0  0  0  0  0  0  0  0  0  0
   23.1771  -10.0255  -16.5112 C   0  0  2  0  0  0  0  0  0  0  0  0
   23.1133  -10.8043  -17.7552 N   0  0  0  0  0  0  0  0  0  0  0  0
   22.5769   -8.6985  -16.7187 C   0  0  0  0  0  0  0  0  0  0  0  0
   23.0902   -7.8629  -17.4652 O   0  0  0  0  0  0  0  0  0  0  0  0
   19.0690   -7.9868  -17.9206 C   0  0  0  0  0  0  0  0  0  0  0  0
   19.2414   -7.3458  -16.5663 C   0  0  1  0  0  0  0  0  0  0  0  0
   18.7764   -8.2230  -15.5639 O   0  0  0  0  0  0  0  0  0  0  0  0
   20.7021   -7.0867  -16.2443 C   0  0  2  0  0  0  0  0  0  0  0  0
   21.3635   -8.3564  -16.0405 N   0  0  0  0  0  0  0  0  0  0  0  0
   20.7379   -6.3321  -14.9708 C   0  0  0  0  0  0  0  0  0  0  0  0
   21.1452   -6.8854  -13.9282 O   0  0  0  0  0  0  0  0  0  0  0  0
   20.3233   -5.0079  -14.9118 O   0  0  0  0  0  0  0  0  0  0  0  0
  1  2  1  0
  3  2  1  0
  3  4  1  1
  3  5  1  0
  5 12  1  0
  6  5  2  0
  8  7  1  0
  9  8  1  0
  9 11  1  0
  9 10  1  1
 11 13  1  0
 11 12  1  6
 13 19  1  0
 13 14  2  0
 16 15  1  6
 16 18  1  0
 17 16  1  0
 18 20  1  0
 18 19  1  1
 20 21  2  0
 20 22  1  0
M  END
$$$$
