SIT.pdb
     RDKit          3D

 22 21  0  0  1  0  0  0  0  0999 V2000
   21.8165  -21.6869  -10.2198 O   0  0  0  0  0  0  0  0  0  0  0  0
   22.7329  -21.1304  -11.0825 C   0  0  0  0  0  0  0  0  0  0  0  0
   24.1206  -21.1377  -10.4913 C   0  0  2  0  0  0  0  0  0  0  0  0
   24.0907  -20.4391   -9.2290 N   0  0  0  0  0  0  0  0  0  0  0  0
   25.0329  -20.3867  -11.4212 C   0  0  0  0  0  0  0  0  0  0  0  0
   25.0736  -19.1195  -11.3762 O   0  0  0  0  0  0  0  0  0  0  0  0
   29.8330  -21.2732  -11.0944 C   0  0  0  0  0  0  0  0  0  0  0  0
   28.4614  -20.7049  -11.4314 C   0  0  0  0  0  0  0  0  0  0  0  0
   28.1760  -20.7390  -12.8867 C   0  0  2  0  0  0  0  0  0  0  0  0
   29.1760  -19.9633  -13.7137 C   0  0  0  0  0  0  0  0  0  0  0  0
   26.7792  -20.2576  -13.1920 C   0  0  2  0  0  0  0  0  0  0  0  0
   25.8564  -21.0346  -12.3536 N   0  0  0  0  0  0  0  0  0  0  0  0
   26.3851  -20.3658  -14.6052 C   0  0  0  0  0  0  0  0  0  0  0  0
   26.4690  -21.4287  -15.2234 O   0  0  0  0  0  0  0  0  0  0  0  0
   22.9439  -19.2046  -16.0963 C   0  0  0  0  0  0  0  0  0  0  0  0
   24.1031  -18.4791  -16.7324 C   0  0  1  0  0  0  0  0  0  0  0  0
   24.3520  -17.2787  -16.0339 O   0  0  0  0  0  0  0  0  0  0  0  0
   25.3888  -19.2817  -16.6472 C   0  0  2  0  0  0  0  0  0  0  0  0
   25.8891  -19.2119  -15.2922 N   0  0  0  0  0  0  0  0  0  0  0  0
   26.3697  -18.6248  -17.5412 C   0  0  0  0  0  0  0  0  0  0  0  0
   27.3383  -18.0036  -17.0566 O   0  0  0  0  0  0  0  0  0  0  0  0
   26.2327  -18.6863  -18.9218 O   0  0  0  0  0  0  0  0  0  0  0  0
  1  2  1  0
  3  2  1  0
  3  4  1  1
  3  5  1  0
  5 12  1  0
  6  5  2  0
  8  7  1  0
  9  8  1  0
  9 11  1  0
  9 10  1  6
 11 13  1  0
 11 12  1  1
 13 19  1  0
 13 14  2  0
 16 15  1  1
 16 18  1  0
 17 16  1  0
 18 20  1  0
 18 19  1  1
 20 21  2  0
 20 22  1  0
M  END
$$$$
