LMS.pdb
     RDKit          3D

 23 22  0  0  1  0  0  0  0  0999 V2000
   27.5152  -15.9042  -17.1749 C   0  0  0  0  0  0  0  0  0  0  0  0
   28.4601  -16.7983  -16.4011 C   0  0  2  0  0  0  0  0  0  0  0  0
   29.7393  -16.9058  -17.1708 C   0  0  0  0  0  0  0  0  0  0  0  0
   27.7934  -18.1556  -16.2030 C   0  0  0  0  0  0  0  0  0  0  0  0
   26.5507  -17.9149  -15.3886 C   0  0  2  0  0  0  0  0  0  0  0  0
   26.7655  -16.7859  -14.5295 N   0  0  0  0  0  0  0  0  0  0  0  0
   26.1441  -19.0987  -14.5976 C   0  0  0  0  0  0  0  0  0  0  0  0
   25.9524  -20.2102  -15.1825 O   0  0  0  0  0  0  0  0  0  0  0  0
   27.2160  -20.8221   -8.3125 C   0  0  0  0  0  0  0  0  0  0  0  0
   25.4085  -20.7403   -8.4328 S   0  0  0  0  0  0  0  0  0  0  0  0
   24.8717  -21.0266  -10.1631 C   0  0  0  0  0  0  0  0  0  0  0  0
   25.5695  -19.9907  -11.0046 C   0  0  0  0  0  0  0  0  0  0  0  0
   25.2839  -20.1250  -12.4701 C   0  0  2  0  0  0  0  0  0  0  0  0
   25.9513  -19.0711  -13.2042 N   0  0  0  0  0  0  0  0  0  0  0  0
   23.8286  -20.1663  -12.7649 C   0  0  0  0  0  0  0  0  0  0  0  0
   23.1001  -19.1414  -12.7301 O   0  0  0  0  0  0  0  0  0  0  0  0
   22.0000  -23.7853  -13.8637 O   0  0  0  0  0  0  0  0  0  0  0  0
   21.5942  -22.6129  -14.4902 C   0  0  0  0  0  0  0  0  0  0  0  0
   21.8038  -21.4706  -13.5116 C   0  0  2  0  0  0  0  0  0  0  0  0
   23.1926  -21.3916  -13.1043 N   0  0  0  0  0  0  0  0  0  0  0  0
   20.8809  -21.5272  -12.3744 C   0  0  0  0  0  0  0  0  0  0  0  0
   19.5210  -21.4802  -12.5986 O   0  0  0  0  0  0  0  0  0  0  0  0
   21.3081  -21.6166  -11.2170 O   0  0  0  0  0  0  0  0  0  0  0  0
  2  1  1  6
  2  3  1  0
  4  5  1  0
  4  2  1  0
  5  6  1  1
  7  8  2  0
  7  5  1  0
 10  9  1  0
 10 11  1  0
 11 12  1  0
 13 12  1  1
 13 14  1  0
 14  7  1  0
 15 20  1  0
 15 13  1  0
 16 15  2  0
 17 18  1  0
 19 18  1  6
 19 20  1  0
 19 21  1  0
 21 22  1  0
 23 21  2  0
M  END
$$$$
