LMS.pdb
     RDKit          3D

 23 22  0  0  1  0  0  0  0  0999 V2000
   19.1333  -31.5192   -7.3043 C   0  0  0  0  0  0  0  0  0  0  0  0
   18.5983  -32.9351   -7.2936 C   0  0  2  0  0  0  0  0  0  0  0  0
   17.1274  -32.8783   -7.0224 C   0  0  0  0  0  0  0  0  0  0  0  0
   19.3479  -33.7308   -6.2300 C   0  0  0  0  0  0  0  0  0  0  0  0
   20.8089  -33.6629   -6.5855 C   0  0  2  0  0  0  0  0  0  0  0  0
   20.9904  -34.1656   -7.9171 N   0  0  0  0  0  0  0  0  0  0  0  0
   21.6671  -34.4009   -5.6310 C   0  0  0  0  0  0  0  0  0  0  0  0
   21.8936  -35.6374   -5.8152 O   0  0  0  0  0  0  0  0  0  0  0  0
   26.8945  -32.6180   -2.3410 C   0  0  0  0  0  0  0  0  0  0  0  0
   26.7534  -32.7867   -4.1410 S   0  0  0  0  0  0  0  0  0  0  0  0
   25.2839  -33.7957   -4.5730 C   0  0  0  0  0  0  0  0  0  0  0  0
   24.3899  -33.7903   -3.3610 C   0  0  0  0  0  0  0  0  0  0  0  0
   23.1011  -34.5270   -3.5701 C   0  0  2  0  0  0  0  0  0  0  0  0
   22.2633  -33.8055   -4.5042 N   0  0  0  0  0  0  0  0  0  0  0  0
   22.3920  -34.8066   -2.2952 C   0  0  0  0  0  0  0  0  0  0  0  0
   21.5349  -34.0240   -1.8100 O   0  0  0  0  0  0  0  0  0  0  0  0
   21.3104  -38.1693    0.9951 O   0  0  0  0  0  0  0  0  0  0  0  0
   22.2544  -37.7834    0.0508 C   0  0  0  0  0  0  0  0  0  0  0  0
   21.9430  -36.3535   -0.3551 C   0  0  2  0  0  0  0  0  0  0  0  0
   22.6617  -35.9938   -1.5613 N   0  0  0  0  0  0  0  0  0  0  0  0
   22.1544  -35.3997    0.7375 C   0  0  0  0  0  0  0  0  0  0  0  0
   21.0899  -35.0275    1.5315 O   0  0  0  0  0  0  0  0  0  0  0  0
   23.2759  -34.9254    0.9550 O   0  0  0  0  0  0  0  0  0  0  0  0
  2  1  1  1
  2  3  1  0
  4  5  1  0
  4  2  1  0
  5  6  1  6
  7  8  2  0
  7  5  1  0
 10  9  1  0
 10 11  1  0
 11 12  1  0
 13 12  1  1
 13 14  1  0
 14  7  1  0
 15 20  1  0
 15 13  1  0
 16 15  2  0
 17 18  1  0
 19 18  1  1
 19 20  1  0
 19 21  1  0
 21 22  1  0
 23 21  2  0
M  END
$$$$
