LMS.pdb
     RDKit          3D

 23 22  0  0  1  0  0  0  0  0999 V2000
   13.7281   -8.4468  -12.5716 C   0  0  0  0  0  0  0  0  0  0  0  0
   14.1545   -8.2140  -11.1381 C   0  0  2  0  0  0  0  0  0  0  0  0
   13.1876   -7.2592  -10.5107 C   0  0  0  0  0  0  0  0  0  0  0  0
   15.5801   -7.6718  -11.1361 C   0  0  0  0  0  0  0  0  0  0  0  0
   16.4879   -8.8345  -11.4353 C   0  0  2  0  0  0  0  0  0  0  0  0
   16.5070   -9.7168  -10.3040 N   0  0  0  0  0  0  0  0  0  0  0  0
   17.8629   -8.4135  -11.7882 C   0  0  0  0  0  0  0  0  0  0  0  0
   18.5889   -7.8421  -10.9160 O   0  0  0  0  0  0  0  0  0  0  0  0
   23.1917  -11.3730  -13.9695 C   0  0  0  0  0  0  0  0  0  0  0  0
   22.6659  -10.2790  -15.3168 S   0  0  0  0  0  0  0  0  0  0  0  0
   21.8543   -8.7799  -14.6401 C   0  0  0  0  0  0  0  0  0  0  0  0
   20.4774   -9.2012  -14.1985 C   0  0  0  0  0  0  0  0  0  0  0  0
   19.7517   -8.1419  -13.4247 C   0  0  2  0  0  0  0  0  0  0  0  0
   18.4318   -8.6108  -13.0598 N   0  0  0  0  0  0  0  0  0  0  0  0
   19.6962   -6.8458  -14.1483 C   0  0  0  0  0  0  0  0  0  0  0  0
   18.8598   -6.6124  -15.0584 O   0  0  0  0  0  0  0  0  0  0  0  0
   19.6837   -3.3870  -12.6878 O   0  0  0  0  0  0  0  0  0  0  0  0
   19.4710   -3.6461  -14.0366 C   0  0  0  0  0  0  0  0  0  0  0  0
   20.6099   -4.5256  -14.5225 C   0  0  2  0  0  0  0  0  0  0  0  0
   20.6055   -5.7999  -13.8319 N   0  0  0  0  0  0  0  0  0  0  0  0
   21.9090   -3.8500  -14.4594 C   0  0  0  0  0  0  0  0  0  0  0  0
   22.9335   -4.4119  -13.7269 O   0  0  0  0  0  0  0  0  0  0  0  0
   22.0964   -2.7824  -15.0554 O   0  0  0  0  0  0  0  0  0  0  0  0
  2  1  1  6
  2  3  1  0
  4  5  1  0
  4  2  1  0
  5  6  1  1
  7  8  2  0
  7  5  1  0
 10  9  1  0
 10 11  1  0
 11 12  1  0
 13 12  1  6
 13 14  1  0
 14  7  1  0
 15 20  1  0
 15 13  1  0
 16 15  2  0
 17 18  1  0
 19 18  1  1
 19 20  1  0
 19 21  1  0
 21 22  1  0
 23 21  2  0
M  END
$$$$
