LMS.pdb
     RDKit          3D

 23 22  0  0  1  0  0  0  0  0999 V2000
   28.2401  -18.1163  -18.8199 C   0  0  0  0  0  0  0  0  0  0  0  0
   28.7924  -17.5237  -17.5413 C   0  0  2  0  0  0  0  0  0  0  0  0
   30.2481  -17.2423  -17.7457 C   0  0  0  0  0  0  0  0  0  0  0  0
   28.5527  -18.5110  -16.4038 C   0  0  0  0  0  0  0  0  0  0  0  0
   27.0861  -18.8491  -16.4233 C   0  0  2  0  0  0  0  0  0  0  0  0
   26.3250  -17.6384  -16.3061 N   0  0  0  0  0  0  0  0  0  0  0  0
   26.7034  -19.8072  -15.3613 C   0  0  0  0  0  0  0  0  0  0  0  0
   27.1879  -20.9817  -15.3696 O   0  0  0  0  0  0  0  0  0  0  0  0
   25.4770  -21.2036   -7.8786 C   0  0  0  0  0  0  0  0  0  0  0  0
   25.7258  -20.0624   -9.2658 S   0  0  0  0  0  0  0  0  0  0  0  0
   25.2734  -20.8740  -10.8472 C   0  0  0  0  0  0  0  0  0  0  0  0
   25.6787  -19.9266  -11.9456 C   0  0  0  0  0  0  0  0  0  0  0  0
   25.3850  -20.4496  -13.3195 C   0  0  2  0  0  0  0  0  0  0  0  0
   25.8148  -19.4926  -14.3168 N   0  0  0  0  0  0  0  0  0  0  0  0
   23.9581  -20.8240  -13.4931 C   0  0  0  0  0  0  0  0  0  0  0  0
   23.0450  -19.9702  -13.6331 O   0  0  0  0  0  0  0  0  0  0  0  0
   20.7770  -24.4622  -14.0296 O   0  0  0  0  0  0  0  0  0  0  0  0
   22.1083  -24.1279  -13.8113 C   0  0  0  0  0  0  0  0  0  0  0  0
   22.2015  -22.6128  -13.7633 C   0  0  2  0  0  0  0  0  0  0  0  0
   23.5640  -22.1898  -13.5076 N   0  0  0  0  0  0  0  0  0  0  0  0
   21.2383  -22.0189  -12.8317 C   0  0  0  0  0  0  0  0  0  0  0  0
   21.6519  -21.6487  -11.5692 O   0  0  0  0  0  0  0  0  0  0  0  0
   20.0597  -21.8464  -13.1652 O   0  0  0  0  0  0  0  0  0  0  0  0
  2  1  1  6
  2  3  1  0
  4  5  1  0
  4  2  1  0
  5  6  1  1
  7  8  2  0
  7  5  1  0
 10  9  1  0
 10 11  1  0
 11 12  1  0
 13 12  1  1
 13 14  1  0
 14  7  1  0
 15 20  1  0
 15 13  1  0
 16 15  2  0
 17 18  1  0
 19 18  1  1
 19 20  1  0
 19 21  1  0
 21 22  1  0
 23 21  2  0
M  END
$$$$
