LMS.pdb
     RDKit          3D

 23 22  0  0  1  0  0  0  0  0999 V2000
   25.3439  -18.1041  -15.0568 C   0  0  0  0  0  0  0  0  0  0  0  0
   24.6541  -19.4028  -15.4155 C   0  0  2  0  0  0  0  0  0  0  0  0
   23.4390  -19.0793  -16.2274 C   0  0  0  0  0  0  0  0  0  0  0  0
   24.3042  -20.1402  -14.1271 C   0  0  0  0  0  0  0  0  0  0  0  0
   25.6066  -20.4824  -13.4546 C   0  0  2  0  0  0  0  0  0  0  0  0
   26.3093  -21.4426  -14.2565 N   0  0  0  0  0  0  0  0  0  0  0  0
   25.4248  -20.9914  -12.0762 C   0  0  0  0  0  0  0  0  0  0  0  0
   25.1115  -22.2089  -11.8916 O   0  0  0  0  0  0  0  0  0  0  0  0
   27.0269  -19.8161   -4.4226 C   0  0  0  0  0  0  0  0  0  0  0  0
   27.1002  -19.3007   -6.1596 S   0  0  0  0  0  0  0  0  0  0  0  0
   25.9743  -20.3304   -7.1776 C   0  0  0  0  0  0  0  0  0  0  0  0
   26.1653  -19.8902   -8.6052 C   0  0  0  0  0  0  0  0  0  0  0  0
   25.3438  -20.6744   -9.5837 C   0  0  2  0  0  0  0  0  0  0  0  0
   25.5806  -20.1932  -10.9281 N   0  0  0  0  0  0  0  0  0  0  0  0
   23.8978  -20.6720   -9.2436 C   0  0  0  0  0  0  0  0  0  0  0  0
   23.1570  -19.6740   -9.4377 O   0  0  0  0  0  0  0  0  0  0  0  0
   20.0621  -23.2740   -7.8382 O   0  0  0  0  0  0  0  0  0  0  0  0
   21.4249  -23.3006   -8.1098 C   0  0  0  0  0  0  0  0  0  0  0  0
   21.8838  -21.8665   -8.3081 C   0  0  2  0  0  0  0  0  0  0  0  0
   23.2854  -21.8217   -8.6744 N   0  0  0  0  0  0  0  0  0  0  0  0
   21.5693  -21.0112   -7.1602 C   0  0  0  0  0  0  0  0  0  0  0  0
   20.2909  -20.5160   -7.0104 O   0  0  0  0  0  0  0  0  0  0  0  0
   22.4372  -20.7289   -6.3251 O   0  0  0  0  0  0  0  0  0  0  0  0
  2  1  1  1
  2  3  1  0
  4  5  1  0
  4  2  1  0
  5  6  1  6
  7  8  2  0
  7  5  1  0
 10  9  1  0
 10 11  1  0
 11 12  1  0
 13 12  1  1
 13 14  1  0
 14  7  1  0
 15 20  1  0
 15 13  1  0
 16 15  2  0
 17 18  1  0
 19 18  1  1
 19 20  1  0
 19 21  1  0
 21 22  1  0
 23 21  2  0
M  END
$$$$
