LMS.pdb
     RDKit          3D

 23 22  0  0  1  0  0  0  0  0999 V2000
   19.8696  -15.3346  -16.8838 C   0  0  0  0  0  0  0  0  0  0  0  0
   20.5617  -14.2431  -17.6717 C   0  0  2  0  0  0  0  0  0  0  0  0
   21.1668  -14.8593  -18.8941 C   0  0  0  0  0  0  0  0  0  0  0  0
   21.6111  -13.5890  -16.7789 C   0  0  0  0  0  0  0  0  0  0  0  0
   21.6956  -12.1446  -17.1939 C   0  0  2  0  0  0  0  0  0  0  0  0
   22.3123  -12.0644  -18.4870 N   0  0  0  0  0  0  0  0  0  0  0  0
   22.4290  -11.3082  -16.2166 C   0  0  0  0  0  0  0  0  0  0  0  0
   22.0251  -11.2465  -15.0136 O   0  0  0  0  0  0  0  0  0  0  0  0
   28.4964  -13.3794  -15.7250 C   0  0  0  0  0  0  0  0  0  0  0  0
   27.9500  -11.6617  -15.9232 S   0  0  0  0  0  0  0  0  0  0  0  0
   26.1751  -11.5037  -15.4885 C   0  0  0  0  0  0  0  0  0  0  0  0
   25.7985  -10.0679  -15.7428 C   0  0  0  0  0  0  0  0  0  0  0  0
   24.3335   -9.7989  -15.5727 C   0  0  2  0  0  0  0  0  0  0  0  0
   23.5739  -10.5583  -16.5430 N   0  0  0  0  0  0  0  0  0  0  0  0
   24.0103   -8.3503  -15.6305 C   0  0  0  0  0  0  0  0  0  0  0  0
   24.5757   -7.4993  -14.8967 O   0  0  0  0  0  0  0  0  0  0  0  0
   21.2982   -6.8994  -18.4806 O   0  0  0  0  0  0  0  0  0  0  0  0
   22.3252   -6.0720  -18.0419 C   0  0  0  0  0  0  0  0  0  0  0  0
   22.6546   -6.4643  -16.6122 C   0  0  2  0  0  0  0  0  0  0  0  0
   23.0294   -7.8623  -16.5365 N   0  0  0  0  0  0  0  0  0  0  0  0
   21.5876   -6.1108  -15.6715 C   0  0  0  0  0  0  0  0  0  0  0  0
   21.2461   -4.7861  -15.4961 O   0  0  0  0  0  0  0  0  0  0  0  0
   20.9907   -6.9867  -15.0339 O   0  0  0  0  0  0  0  0  0  0  0  0
  2  1  1  1
  2  3  1  0
  4  5  1  0
  4  2  1  0
  5  6  1  6
  7  8  2  0
  7  5  1  0
 10  9  1  0
 10 11  1  0
 11 12  1  0
 13 12  1  6
 13 14  1  0
 14  7  1  0
 15 20  1  0
 15 13  1  0
 16 15  2  0
 17 18  1  0
 19 18  1  6
 19 20  1  0
 19 21  1  0
 21 22  1  0
 23 21  2  0
M  END
$$$$
