LMS.pdb
     RDKit          3D

 23 22  0  0  1  0  0  0  0  0999 V2000
   24.5899  -18.0533  -14.8925 C   0  0  0  0  0  0  0  0  0  0  0  0
   24.2667  -19.4932  -15.2290 C   0  0  2  0  0  0  0  0  0  0  0  0
   22.9748  -19.5193  -15.9843 C   0  0  0  0  0  0  0  0  0  0  0  0
   24.1895  -20.2909  -13.9314 C   0  0  0  0  0  0  0  0  0  0  0  0
   25.5701  -20.2807  -13.3320 C   0  0  2  0  0  0  0  0  0  0  0  0
   26.4516  -21.0377  -14.1739 N   0  0  0  0  0  0  0  0  0  0  0  0
   25.5989  -20.8040  -11.9472 C   0  0  0  0  0  0  0  0  0  0  0  0
   25.5751  -22.0587  -11.7486 O   0  0  0  0  0  0  0  0  0  0  0  0
   29.3459  -19.4422   -6.5758 C   0  0  0  0  0  0  0  0  0  0  0  0
   27.6315  -18.9526   -6.2447 S   0  0  0  0  0  0  0  0  0  0  0  0
   26.4698  -20.0658   -7.1252 C   0  0  0  0  0  0  0  0  0  0  0  0
   26.4137  -19.5844   -8.5511 C   0  0  0  0  0  0  0  0  0  0  0  0
   25.6298  -20.4894   -9.4533 C   0  0  2  0  0  0  0  0  0  0  0  0
   25.6524  -19.9801  -10.8080 N   0  0  0  0  0  0  0  0  0  0  0  0
   24.2428  -20.7120   -8.9706 C   0  0  0  0  0  0  0  0  0  0  0  0
   23.2930  -19.9381   -9.2558 O   0  0  0  0  0  0  0  0  0  0  0  0
   21.1005  -23.8287   -7.0647 O   0  0  0  0  0  0  0  0  0  0  0  0
   22.4377  -23.5966   -7.3641 C   0  0  0  0  0  0  0  0  0  0  0  0
   22.5873  -22.1216   -7.6936 C   0  0  2  0  0  0  0  0  0  0  0  0
   23.9315  -21.8314   -8.1514 N   0  0  0  0  0  0  0  0  0  0  0  0
   22.1628  -21.2531   -6.5920 C   0  0  0  0  0  0  0  0  0  0  0  0
   20.8177  -21.0794   -6.3417 O   0  0  0  0  0  0  0  0  0  0  0  0
   22.9969  -20.6747   -5.8850 O   0  0  0  0  0  0  0  0  0  0  0  0
  2  1  1  1
  2  3  1  0
  4  5  1  0
  4  2  1  0
  5  6  1  6
  7  8  2  0
  7  5  1  0
 10  9  1  0
 10 11  1  0
 11 12  1  0
 13 12  1  1
 13 14  1  0
 14  7  1  0
 15 20  1  0
 15 13  1  0
 16 15  2  0
 17 18  1  0
 19 18  1  1
 19 20  1  0
 19 21  1  0
 21 22  1  0
 23 21  2  0
M  END
$$$$
