LMS.pdb
     RDKit          3D

 23 22  0  0  1  0  0  0  0  0999 V2000
   19.2588  -10.9684  -13.3878 C   0  0  0  0  0  0  0  0  0  0  0  0
   18.2566  -10.4881  -14.4153 C   0  0  2  0  0  0  0  0  0  0  0  0
   19.0016  -10.1192  -15.6599 C   0  0  0  0  0  0  0  0  0  0  0  0
   17.4909   -9.3047  -13.8325 C   0  0  0  0  0  0  0  0  0  0  0  0
   16.7179   -9.8265  -12.6511 C   0  0  2  0  0  0  0  0  0  0  0  0
   15.7805  -10.8138  -13.1042 N   0  0  0  0  0  0  0  0  0  0  0  0
   16.0220   -8.7557  -11.9018 C   0  0  0  0  0  0  0  0  0  0  0  0
   14.9543   -8.2516  -12.3712 O   0  0  0  0  0  0  0  0  0  0  0  0
   12.5771   -5.9773   -6.1486 C   0  0  0  0  0  0  0  0  0  0  0  0
   13.5604   -7.1889   -7.0724 S   0  0  0  0  0  0  0  0  0  0  0  0
   15.1238   -6.4281   -7.6564 C   0  0  0  0  0  0  0  0  0  0  0  0
   15.8281   -7.4749   -8.4789 C   0  0  0  0  0  0  0  0  0  0  0  0
   15.8103   -7.1859   -9.9498 C   0  0  2  0  0  0  0  0  0  0  0  0
   16.4787   -8.2474  -10.6720 N   0  0  0  0  0  0  0  0  0  0  0  0
   16.3806   -5.8534  -10.2749 C   0  0  0  0  0  0  0  0  0  0  0  0
   17.6101   -5.6020  -10.1872 O   0  0  0  0  0  0  0  0  0  0  0  0
   16.2902   -2.0215  -12.9358 O   0  0  0  0  0  0  0  0  0  0  0  0
   15.7783   -3.2701  -12.6028 C   0  0  0  0  0  0  0  0  0  0  0  0
   16.0537   -3.5029  -11.1275 C   0  0  2  0  0  0  0  0  0  0  0  0
   15.5400   -4.7911  -10.7062 N   0  0  0  0  0  0  0  0  0  0  0  0
   15.5806   -2.4002  -10.2858 C   0  0  0  0  0  0  0  0  0  0  0  0
   16.4011   -1.3146  -10.0617 O   0  0  0  0  0  0  0  0  0  0  0  0
   14.4546   -2.4326   -9.7748 O   0  0  0  0  0  0  0  0  0  0  0  0
  2  1  1  1
  2  3  1  0
  4  5  1  0
  4  2  1  0
  5  6  1  6
  7  8  2  0
  7  5  1  0
 10  9  1  0
 10 11  1  0
 11 12  1  0
 13 12  1  1
 13 14  1  0
 14  7  1  0
 15 20  1  0
 15 13  1  0
 16 15  2  0
 17 18  1  0
 19 18  1  6
 19 20  1  0
 19 21  1  0
 21 22  1  0
 23 21  2  0
M  END
$$$$
