LMS.pdb
     RDKit          3D

 23 22  0  0  1  0  0  0  0  0999 V2000
   17.4114  -11.6040  -17.9803 C   0  0  0  0  0  0  0  0  0  0  0  0
   16.6534  -11.0353  -16.8000 C   0  0  2  0  0  0  0  0  0  0  0  0
   15.3039  -10.5974  -17.2767 C   0  0  0  0  0  0  0  0  0  0  0  0
   17.4587   -9.8796  -16.2153 C   0  0  0  0  0  0  0  0  0  0  0  0
   18.7399  -10.4663  -15.6862 C   0  0  2  0  0  0  0  0  0  0  0  0
   18.4324  -11.3805  -14.6239 N   0  0  0  0  0  0  0  0  0  0  0  0
   19.6955   -9.4347  -15.2225 C   0  0  0  0  0  0  0  0  0  0  0  0
   19.4745   -8.8162  -14.1350 O   0  0  0  0  0  0  0  0  0  0  0  0
   26.2914  -10.7710  -14.5119 C   0  0  0  0  0  0  0  0  0  0  0  0
   25.4772   -9.5012  -15.5186 S   0  0  0  0  0  0  0  0  0  0  0  0
   23.7598   -9.2299  -14.9347 C   0  0  0  0  0  0  0  0  0  0  0  0
   23.1298   -8.2567  -15.8960 C   0  0  0  0  0  0  0  0  0  0  0  0
   21.6956   -7.9546  -15.5809 C   0  0  2  0  0  0  0  0  0  0  0  0
   20.8626   -9.0865  -15.9270 N   0  0  0  0  0  0  0  0  0  0  0  0
   21.2223   -6.7034  -16.2267 C   0  0  0  0  0  0  0  0  0  0  0  0
   20.9193   -6.6421  -17.4460 O   0  0  0  0  0  0  0  0  0  0  0  0
   18.7109   -2.8700  -16.2439 O   0  0  0  0  0  0  0  0  0  0  0  0
   19.1105   -4.0985  -15.7311 C   0  0  0  0  0  0  0  0  0  0  0  0
   20.5870   -4.2701  -16.0426 C   0  0  2  0  0  0  0  0  0  0  0  0
   21.0918   -5.5042  -15.4744 N   0  0  0  0  0  0  0  0  0  0  0  0
   21.3828   -3.1008  -15.6583 C   0  0  0  0  0  0  0  0  0  0  0  0
   21.0808   -1.8662  -16.1935 O   0  0  0  0  0  0  0  0  0  0  0  0
   22.3214   -3.2092  -14.8600 O   0  0  0  0  0  0  0  0  0  0  0  0
  2  1  1  6
  2  3  1  0
  4  5  1  0
  4  2  1  0
  5  6  1  1
  7  8  2  0
  7  5  1  0
 10  9  1  0
 10 11  1  0
 11 12  1  0
 13 12  1  6
 13 14  1  0
 14  7  1  0
 15 20  1  0
 15 13  1  0
 16 15  2  0
 17 18  1  0
 19 18  1  1
 19 20  1  0
 19 21  1  0
 21 22  1  0
 23 21  2  0
M  END
$$$$
