LMS.pdb
     RDKit          3D

 23 22  0  0  1  0  0  0  0  0999 V2000
   25.0709  -13.4724  -14.8910 C   0  0  0  0  0  0  0  0  0  0  0  0
   25.7341  -12.8095  -16.0791 C   0  0  2  0  0  0  0  0  0  0  0  0
   27.1609  -12.5298  -15.7237 C   0  0  0  0  0  0  0  0  0  0  0  0
   24.9664  -11.5357  -16.4172 C   0  0  0  0  0  0  0  0  0  0  0  0
   23.5651  -11.9542  -16.7731 C   0  0  2  0  0  0  0  0  0  0  0  0
   23.6005  -12.7308  -17.9791 N   0  0  0  0  0  0  0  0  0  0  0  0
   22.6431  -10.8053  -16.9230 C   0  0  0  0  0  0  0  0  0  0  0  0
   22.7732  -10.0197  -17.9130 O   0  0  0  0  0  0  0  0  0  0  0  0
   15.4008   -8.1669  -16.6525 C   0  0  0  0  0  0  0  0  0  0  0  0
   16.6613   -9.3396  -16.0831 S   0  0  0  0  0  0  0  0  0  0  0  0
   18.3406   -8.6728  -16.3990 C   0  0  0  0  0  0  0  0  0  0  0  0
   19.3042   -9.8017  -16.1437 C   0  0  0  0  0  0  0  0  0  0  0  0
   20.7389   -9.3670  -16.1325 C   0  0  2  0  0  0  0  0  0  0  0  0
   21.6057  -10.5203  -16.0162 N   0  0  0  0  0  0  0  0  0  0  0  0
   21.0196   -8.3576  -15.0795 C   0  0  0  0  0  0  0  0  0  0  0  0
   21.6578   -8.6312  -14.0306 O   0  0  0  0  0  0  0  0  0  0  0  0
   23.2991   -4.8481  -14.2030 O   0  0  0  0  0  0  0  0  0  0  0  0
   22.7283   -5.9436  -14.8401 C   0  0  0  0  0  0  0  0  0  0  0  0
   21.2308   -5.8925  -14.5926 C   0  0  2  0  0  0  0  0  0  0  0  0
   20.5676   -7.0173  -15.2217 N   0  0  0  0  0  0  0  0  0  0  0  0
   20.6421   -4.6038  -14.9679 C   0  0  0  0  0  0  0  0  0  0  0  0
   20.5902   -3.5836  -14.0414 O   0  0  0  0  0  0  0  0  0  0  0  0
   20.1916   -4.4215  -16.1055 O   0  0  0  0  0  0  0  0  0  0  0  0
  2  1  1  1
  2  3  1  0
  4  5  1  0
  4  2  1  0
  5  6  1  6
  7  8  2  0
  7  5  1  0
 10  9  1  0
 10 11  1  0
 11 12  1  0
 13 12  1  1
 13 14  1  0
 14  7  1  0
 15 20  1  0
 15 13  1  0
 16 15  2  0
 17 18  1  0
 19 18  1  6
 19 20  1  0
 19 21  1  0
 21 22  1  0
 23 21  2  0
M  END
$$$$
