LMS.pdb
     RDKit          3D

 23 22  0  0  1  0  0  0  0  0999 V2000
   27.4218  -17.2395  -17.5662 C   0  0  0  0  0  0  0  0  0  0  0  0
   28.5408  -17.4163  -16.5625 C   0  0  2  0  0  0  0  0  0  0  0  0
   29.8203  -17.6057  -17.3156 C   0  0  0  0  0  0  0  0  0  0  0  0
   28.2143  -18.6131  -15.6752 C   0  0  0  0  0  0  0  0  0  0  0  0
   26.8712  -18.3397  -15.0533 C   0  0  2  0  0  0  0  0  0  0  0  0
   26.9568  -17.1472  -14.2598 N   0  0  0  0  0  0  0  0  0  0  0  0
   26.3750  -19.4712  -14.2373 C   0  0  0  0  0  0  0  0  0  0  0  0
   26.2867  -20.6283  -14.7546 O   0  0  0  0  0  0  0  0  0  0  0  0
   26.8696  -19.8318   -8.0224 C   0  0  0  0  0  0  0  0  0  0  0  0
   25.3951  -20.8856   -8.0829 S   0  0  0  0  0  0  0  0  0  0  0  0
   24.9726  -21.2906   -9.8213 C   0  0  0  0  0  0  0  0  0  0  0  0
   25.5963  -20.2175  -10.6743 C   0  0  0  0  0  0  0  0  0  0  0  0
   25.3505  -20.4068  -12.1410 C   0  0  2  0  0  0  0  0  0  0  0  0
   25.9850  -19.3441  -12.8915 N   0  0  0  0  0  0  0  0  0  0  0  0
   23.9057  -20.5246  -12.4654 C   0  0  0  0  0  0  0  0  0  0  0  0
   23.1203  -19.5426  -12.4301 O   0  0  0  0  0  0  0  0  0  0  0  0
   21.3288  -24.0410  -12.2499 O   0  0  0  0  0  0  0  0  0  0  0  0
   21.6327  -23.4073  -13.4491 C   0  0  0  0  0  0  0  0  0  0  0  0
   21.9393  -21.9529  -13.1374 C   0  0  2  0  0  0  0  0  0  0  0  0
   23.3461  -21.7779  -12.8355 N   0  0  0  0  0  0  0  0  0  0  0  0
   21.0631  -21.4030  -12.0991 C   0  0  0  0  0  0  0  0  0  0  0  0
   19.7229  -21.2187  -12.3670 O   0  0  0  0  0  0  0  0  0  0  0  0
   21.5121  -21.1028  -10.9863 O   0  0  0  0  0  0  0  0  0  0  0  0
  2  1  1  6
  2  3  1  0
  4  5  1  0
  4  2  1  0
  5  6  1  1
  7  8  2  0
  7  5  1  0
 10  9  1  0
 10 11  1  0
 11 12  1  0
 13 12  1  1
 13 14  1  0
 14  7  1  0
 15 20  1  0
 15 13  1  0
 16 15  2  0
 17 18  1  0
 19 18  1  1
 19 20  1  0
 19 21  1  0
 21 22  1  0
 23 21  2  0
M  END
$$$$
