LMS.pdb
     RDKit          3D

 23 22  0  0  1  0  0  0  0  0999 V2000
   14.8963  -11.5338  -16.0503 C   0  0  0  0  0  0  0  0  0  0  0  0
   15.9729  -12.5976  -16.0494 C   0  0  2  0  0  0  0  0  0  0  0  0
   15.4050  -13.8386  -15.4350 C   0  0  0  0  0  0  0  0  0  0  0  0
   17.1763  -12.0719  -15.2739 C   0  0  0  0  0  0  0  0  0  0  0  0
   17.6285  -10.8170  -15.9712 C   0  0  2  0  0  0  0  0  0  0  0  0
   17.9699  -11.1329  -17.3286 N   0  0  0  0  0  0  0  0  0  0  0  0
   18.7667  -10.1595  -15.2897 C   0  0  0  0  0  0  0  0  0  0  0  0
   18.6616   -9.8285  -14.0675 O   0  0  0  0  0  0  0  0  0  0  0  0
   26.5554   -9.9408  -14.7255 C   0  0  0  0  0  0  0  0  0  0  0  0
   25.0238  -10.4562  -15.5482 S   0  0  0  0  0  0  0  0  0  0  0  0
   23.6059   -9.4704  -14.9302 C   0  0  0  0  0  0  0  0  0  0  0  0
   22.3841   -9.9826  -15.6464 C   0  0  0  0  0  0  0  0  0  0  0  0
   21.1218   -9.2814  -15.2437 C   0  0  2  0  0  0  0  0  0  0  0  0
   19.9884   -9.8702  -15.9247 N   0  0  0  0  0  0  0  0  0  0  0  0
   21.1928   -7.8134  -15.4585 C   0  0  0  0  0  0  0  0  0  0  0  0
   21.3053   -7.2997  -16.6013 O   0  0  0  0  0  0  0  0  0  0  0  0
   19.9588   -3.4796  -14.2570 O   0  0  0  0  0  0  0  0  0  0  0  0
   19.8458   -4.8566  -14.1057 C   0  0  0  0  0  0  0  0  0  0  0  0
   21.1714   -5.4757  -14.5133 C   0  0  2  0  0  0  0  0  0  0  0  0
   21.1350   -6.9162  -14.3573 N   0  0  0  0  0  0  0  0  0  0  0  0
   22.3134   -4.8594  -13.8321 C   0  0  0  0  0  0  0  0  0  0  0  0
   23.0527   -5.6019  -12.9353 O   0  0  0  0  0  0  0  0  0  0  0  0
   22.6212   -3.6818  -14.0526 O   0  0  0  0  0  0  0  0  0  0  0  0
  2  1  1  1
  2  3  1  0
  4  5  1  0
  4  2  1  0
  5  6  1  6
  7  8  2  0
  7  5  1  0
 10  9  1  0
 10 11  1  0
 11 12  1  0
 13 12  1  6
 13 14  1  0
 14  7  1  0
 15 20  1  0
 15 13  1  0
 16 15  2  0
 17 18  1  0
 19 18  1  1
 19 20  1  0
 19 21  1  0
 21 22  1  0
 23 21  2  0
M  END
$$$$
