GHL.pdb
     RDKit          3D

 23 23  0  0  1  0  0  0  0  0999 V2000
   27.1175  -15.8187  -15.3779 N   0  0  0  0  0  0  0  0  0  0  0  0
   27.2462  -17.1111  -14.7612 C   0  0  0  0  0  0  0  0  0  0  0  0
   26.1857  -18.0530  -15.2079 C   0  0  0  0  0  0  0  0  0  0  0  0
   25.1278  -17.5791  -15.6943 O   0  0  0  0  0  0  0  0  0  0  0  0
   26.2995  -19.4504  -15.1168 N   0  0  0  0  0  0  0  0  0  0  0  0
   25.2212  -20.3093  -15.5863 C   0  0  1  0  0  0  0  0  0  0  0  0
   25.6656  -21.1520  -16.7354 C   0  0  0  0  0  0  0  0  0  0  0  0
   25.9339  -20.3741  -17.9442 C   0  0  0  0  0  0  0  0  0  0  0  0
   27.2406  -20.2497  -18.4431 C   0  0  0  0  0  0  0  0  0  0  0  0
   27.2446  -19.4993  -19.5476 N   0  0  0  0  0  0  0  0  0  0  0  0
   25.9590  -19.1457  -19.7569 C   0  0  0  0  0  0  0  0  0  0  0  0
   25.1875  -19.6753  -18.7916 N   0  0  0  0  0  0  0  0  0  0  0  0
   24.7770  -21.0735  -14.3954 C   0  0  0  0  0  0  0  0  0  0  0  0
   25.2196  -22.2101  -14.1415 O   0  0  0  0  0  0  0  0  0  0  0  0
   25.8098  -22.0900  -10.9762 C   0  0  0  0  0  0  0  0  0  0  0  0
   25.2859  -20.6476  -10.9901 C   0  0  2  0  0  0  0  0  0  0  0  0
   25.7832  -19.9697   -9.7589 C   0  0  0  0  0  0  0  0  0  0  0  0
   23.8041  -20.7319  -11.0922 C   0  0  0  0  0  0  0  0  0  0  0  0
   23.3011  -21.3548  -12.3662 C   0  0  2  0  0  0  0  0  0  0  0  0
   23.8240  -20.5555  -13.4784 N   0  0  0  0  0  0  0  0  0  0  0  0
   21.8362  -21.4481  -12.4102 C   0  0  0  0  0  0  0  0  0  0  0  0
   21.2162  -22.3462  -11.5224 O   0  0  0  0  0  0  0  0  0  0  0  0
   21.0997  -20.7988  -13.1673 O   0  0  0  0  0  0  0  0  0  0  0  0
  2  3  1  0
  2  1  1  0
  3  4  2  0
  5  6  1  0
  5  3  1  0
  6  7  1  6
  8  7  1  0
  8  9  2  0
 10  9  1  0
 11 10  1  0
 12 11  2  0
 12  8  1  0
 13  6  1  0
 13 20  1  0
 14 13  2  0
 16 15  1  1
 16 17  1  0
 18 16  1  0
 19 20  1  0
 19 18  1  1
 21 19  1  0
 22 21  1  0
 23 21  2  0
M  END
$$$$
