GHL.pdb
     RDKit          3D

 23 23  0  0  1  0  0  0  0  0999 V2000
   28.4391  -20.7374  -15.9513 N   0  0  0  0  0  0  0  0  0  0  0  0
   27.7426  -21.6477  -15.0832 C   0  0  0  0  0  0  0  0  0  0  0  0
   26.9806  -20.9372  -14.0221 C   0  0  0  0  0  0  0  0  0  0  0  0
   27.0802  -19.6864  -13.9465 O   0  0  0  0  0  0  0  0  0  0  0  0
   26.1509  -21.5883  -13.0938 N   0  0  0  0  0  0  0  0  0  0  0  0
   25.2835  -20.8175  -12.2138 C   0  0  1  0  0  0  0  0  0  0  0  0
   23.8506  -20.9675  -12.6036 C   0  0  0  0  0  0  0  0  0  0  0  0
   23.5400  -20.3441  -13.8894 C   0  0  0  0  0  0  0  0  0  0  0  0
   23.1993  -18.9838  -13.9644 C   0  0  0  0  0  0  0  0  0  0  0  0
   22.9584  -18.6365  -15.2310 N   0  0  0  0  0  0  0  0  0  0  0  0
   23.1413  -19.7569  -15.9610 C   0  0  0  0  0  0  0  0  0  0  0  0
   23.4883  -20.7687  -15.1465 N   0  0  0  0  0  0  0  0  0  0  0  0
   25.6017  -21.2794  -10.8408 C   0  0  0  0  0  0  0  0  0  0  0  0
   25.7514  -22.4866  -10.5720 O   0  0  0  0  0  0  0  0  0  0  0  0
   28.4828  -20.6009   -7.4680 C   0  0  0  0  0  0  0  0  0  0  0  0
   27.6578  -19.3422   -7.7682 C   0  0  2  0  0  0  0  0  0  0  0  0
   28.1842  -18.2377   -6.9165 C   0  0  0  0  0  0  0  0  0  0  0  0
   26.2347  -19.6930   -7.5137 C   0  0  0  0  0  0  0  0  0  0  0  0
   25.7090  -20.8205   -8.3602 C   0  0  2  0  0  0  0  0  0  0  0  0
   25.7536  -20.3749   -9.7562 N   0  0  0  0  0  0  0  0  0  0  0  0
   24.3565  -21.2381   -7.9696 C   0  0  0  0  0  0  0  0  0  0  0  0
   24.2310  -22.0359   -6.8177 O   0  0  0  0  0  0  0  0  0  0  0  0
   23.3140  -20.9446   -8.5731 O   0  0  0  0  0  0  0  0  0  0  0  0
  2  3  1  0
  2  1  1  0
  3  4  2  0
  5  6  1  0
  5  3  1  0
  6  7  1  6
  8  7  1  0
  8  9  2  0
 10  9  1  0
 11 10  1  0
 12 11  2  0
 12  8  1  0
 13  6  1  0
 13 20  1  0
 14 13  2  0
 16 15  1  1
 16 17  1  0
 18 16  1  0
 19 20  1  0
 19 18  1  1
 21 19  1  0
 22 21  1  0
 23 21  2  0
M  END
$$$$
