GHL.pdb
     RDKit          3D

 23 23  0  0  1  0  0  0  0  0999 V2000
   16.8698  -14.0693  -15.9819 N   0  0  0  0  0  0  0  0  0  0  0  0
   16.4942  -13.2658  -17.1136 C   0  0  0  0  0  0  0  0  0  0  0  0
   17.5625  -12.3054  -17.4977 C   0  0  0  0  0  0  0  0  0  0  0  0
   18.7164  -12.7498  -17.7244 O   0  0  0  0  0  0  0  0  0  0  0  0
   17.3544  -10.9215  -17.6224 N   0  0  0  0  0  0  0  0  0  0  0  0
   18.4396  -10.0490  -18.0492 C   0  0  1  0  0  0  0  0  0  0  0  0
   17.9221   -8.8930  -18.8389 C   0  0  0  0  0  0  0  0  0  0  0  0
   17.6823   -9.2221  -20.2434 C   0  0  0  0  0  0  0  0  0  0  0  0
   17.9811  -10.5001  -20.7428 C   0  0  0  0  0  0  0  0  0  0  0  0
   17.6819  -10.5705  -22.0422 N   0  0  0  0  0  0  0  0  0  0  0  0
   17.1974   -9.3554  -22.3747 C   0  0  0  0  0  0  0  0  0  0  0  0
   17.2036   -8.5605  -21.2905 N   0  0  0  0  0  0  0  0  0  0  0  0
   19.1592   -9.6760  -16.8072 C   0  0  0  0  0  0  0  0  0  0  0  0
   18.5528   -9.3987  -15.7547 O   0  0  0  0  0  0  0  0  0  0  0  0
   24.6787  -10.6223  -14.4631 C   0  0  0  0  0  0  0  0  0  0  0  0
   23.3904   -9.8127  -14.2631 C   0  0  2  0  0  0  0  0  0  0  0  0
   22.8014  -10.2087  -12.9521 C   0  0  0  0  0  0  0  0  0  0  0  0
   22.5229  -10.0923  -15.4389 C   0  0  0  0  0  0  0  0  0  0  0  0
   21.2862   -9.2390  -15.5187 C   0  0  2  0  0  0  0  0  0  0  0  0
   20.5768   -9.6131  -16.7459 N   0  0  0  0  0  0  0  0  0  0  0  0
   21.5873   -7.8021  -15.4858 C   0  0  0  0  0  0  0  0  0  0  0  0
   21.4889   -7.1467  -14.2448 O   0  0  0  0  0  0  0  0  0  0  0  0
   21.9219   -7.1179  -16.4641 O   0  0  0  0  0  0  0  0  0  0  0  0
  2  3  1  0
  2  1  1  0
  3  4  2  0
  5  6  1  0
  5  3  1  0
  6  7  1  1
  8  7  1  0
  8  9  2  0
 10  9  1  0
 11 10  1  0
 12 11  2  0
 12  8  1  0
 13  6  1  0
 13 20  1  0
 14 13  2  0
 16 15  1  6
 16 17  1  0
 18 16  1  0
 19 20  1  0
 19 18  1  6
 21 19  1  0
 22 21  1  0
 23 21  2  0
M  END
$$$$
