GHL.pdb
     RDKit          3D

 23 23  0  0  1  0  0  0  0  0999 V2000
   23.7082  -15.7206  -20.1219 N   0  0  0  0  0  0  0  0  0  0  0  0
   22.9827  -15.9619  -18.9042 C   0  0  0  0  0  0  0  0  0  0  0  0
   23.0611  -17.3843  -18.4781 C   0  0  0  0  0  0  0  0  0  0  0  0
   22.3895  -18.2386  -19.1102 O   0  0  0  0  0  0  0  0  0  0  0  0
   23.8477  -17.8306  -17.4028 N   0  0  0  0  0  0  0  0  0  0  0  0
   23.8189  -19.2298  -17.0001 C   0  0  1  0  0  0  0  0  0  0  0  0
   25.1977  -19.7966  -16.9238 C   0  0  0  0  0  0  0  0  0  0  0  0
   25.8020  -20.0079  -18.2385 C   0  0  0  0  0  0  0  0  0  0  0  0
   26.7106  -19.0780  -18.7692 C   0  0  0  0  0  0  0  0  0  0  0  0
   27.1299  -19.4761  -19.9728 N   0  0  0  0  0  0  0  0  0  0  0  0
   26.5004  -20.6455  -20.2136 C   0  0  0  0  0  0  0  0  0  0  0  0
   25.7107  -20.9506  -19.1692 N   0  0  0  0  0  0  0  0  0  0  0  0
   23.0678  -19.2583  -15.7215 C   0  0  0  0  0  0  0  0  0  0  0  0
   23.4746  -18.6599  -14.7073 O   0  0  0  0  0  0  0  0  0  0  0  0
   18.8976  -16.9136  -13.4610 C   0  0  0  0  0  0  0  0  0  0  0  0
   19.6839  -18.1768  -13.0853 C   0  0  2  0  0  0  0  0  0  0  0  0
   20.3248  -17.9382  -11.7606 C   0  0  0  0  0  0  0  0  0  0  0  0
   20.6399  -18.4317  -14.1962 C   0  0  0  0  0  0  0  0  0  0  0  0
   21.0295  -19.8752  -14.3652 C   0  0  2  0  0  0  0  0  0  0  0  0
   21.8453  -19.9672  -15.5798 N   0  0  0  0  0  0  0  0  0  0  0  0
   19.8677  -20.7713  -14.4258 C   0  0  0  0  0  0  0  0  0  0  0  0
   19.5321  -21.3148  -15.6792 O   0  0  0  0  0  0  0  0  0  0  0  0
   19.1569  -21.0886  -13.4608 O   0  0  0  0  0  0  0  0  0  0  0  0
  2  3  1  0
  2  1  1  0
  3  4  2  0
  5  6  1  0
  5  3  1  0
  6  7  1  1
  8  7  1  0
  8  9  2  0
 10  9  1  0
 11 10  1  0
 12 11  2  0
 12  8  1  0
 13  6  1  0
 13 20  1  0
 14 13  2  0
 16 15  1  6
 16 17  1  0
 18 16  1  0
 19 20  1  0
 19 18  1  6
 21 19  1  0
 22 21  1  0
 23 21  2  0
M  END
$$$$
