GHL.pdb
     RDKit          3D

 23 23  0  0  1  0  0  0  0  0999 V2000
   14.1268  -12.5736  -15.8405 N   0  0  0  0  0  0  0  0  0  0  0  0
   14.5115  -11.1961  -15.6936 C   0  0  0  0  0  0  0  0  0  0  0  0
   15.8270  -10.9115  -16.3259 C   0  0  0  0  0  0  0  0  0  0  0  0
   16.5887  -11.8767  -16.5876 O   0  0  0  0  0  0  0  0  0  0  0  0
   16.2695   -9.6179  -16.6493 N   0  0  0  0  0  0  0  0  0  0  0  0
   17.5262   -9.4254  -17.3597 C   0  0  1  0  0  0  0  0  0  0  0  0
   17.3557   -8.4923  -18.5121 C   0  0  0  0  0  0  0  0  0  0  0  0
   16.6005   -9.0812  -19.6172 C   0  0  0  0  0  0  0  0  0  0  0  0
   15.2537   -8.7436  -19.8271 C   0  0  0  0  0  0  0  0  0  0  0  0
   14.7724   -9.3987  -20.8864 N   0  0  0  0  0  0  0  0  0  0  0  0
   15.7945  -10.1473  -21.3519 C   0  0  0  0  0  0  0  0  0  0  0  0
   16.8798   -9.9475  -20.5841 N   0  0  0  0  0  0  0  0  0  0  0  0
   18.4950   -8.9692  -16.3336 C   0  0  0  0  0  0  0  0  0  0  0  0
   18.1504   -8.2432  -15.3816 O   0  0  0  0  0  0  0  0  0  0  0  0
   24.1081  -10.6355  -14.5410 C   0  0  0  0  0  0  0  0  0  0  0  0
   23.0541   -9.5290  -14.3993 C   0  0  2  0  0  0  0  0  0  0  0  0
   22.6963   -9.4220  -12.9560 C   0  0  0  0  0  0  0  0  0  0  0  0
   21.9218   -9.9006  -15.2897 C   0  0  0  0  0  0  0  0  0  0  0  0
   20.8254   -8.8730  -15.3666 C   0  0  2  0  0  0  0  0  0  0  0  0
   19.8675   -9.3323  -16.3769 N   0  0  0  0  0  0  0  0  0  0  0  0
   21.3306   -7.5286  -15.6731 C   0  0  0  0  0  0  0  0  0  0  0  0
   21.4076   -7.1576  -17.0279 O   0  0  0  0  0  0  0  0  0  0  0  0
   21.6955   -6.6921  -14.8338 O   0  0  0  0  0  0  0  0  0  0  0  0
  2  3  1  0
  2  1  1  0
  3  4  2  0
  5  6  1  0
  5  3  1  0
  6  7  1  6
  8  7  1  0
  8  9  2  0
 10  9  1  0
 11 10  1  0
 12 11  2  0
 12  8  1  0
 13  6  1  0
 13 20  1  0
 14 13  2  0
 16 15  1  1
 16 17  1  0
 18 16  1  0
 19 20  1  0
 19 18  1  6
 21 19  1  0
 22 21  1  0
 23 21  2  0
M  END
$$$$
