GHL.pdb
     RDKit          3D

 23 23  0  0  1  0  0  0  0  0999 V2000
   26.5287  -25.1706  -16.3651 N   0  0  0  0  0  0  0  0  0  0  0  0
   25.2368  -24.6180  -16.6700 C   0  0  0  0  0  0  0  0  0  0  0  0
   25.0017  -23.3259  -15.9725 C   0  0  0  0  0  0  0  0  0  0  0  0
   25.8509  -22.9336  -15.1327 O   0  0  0  0  0  0  0  0  0  0  0  0
   23.8778  -22.5140  -16.1999 N   0  0  0  0  0  0  0  0  0  0  0  0
   23.8122  -21.1726  -15.6367 C   0  0  1  0  0  0  0  0  0  0  0  0
   23.1649  -20.2207  -16.5869 C   0  0  0  0  0  0  0  0  0  0  0  0
   24.0519  -19.8058  -17.6729 C   0  0  0  0  0  0  0  0  0  0  0  0
   24.9369  -18.7284  -17.5056 C   0  0  0  0  0  0  0  0  0  0  0  0
   25.6427  -18.5320  -18.6220 N   0  0  0  0  0  0  0  0  0  0  0  0
   25.2183  -19.4695  -19.4954 C   0  0  0  0  0  0  0  0  0  0  0  0
   24.2683  -20.2230  -18.9149 N   0  0  0  0  0  0  0  0  0  0  0  0
   23.1106  -21.3223  -14.3386 C   0  0  0  0  0  0  0  0  0  0  0  0
   22.1230  -22.0705  -14.2081 O   0  0  0  0  0  0  0  0  0  0  0  0
   25.2842  -22.2338  -11.0458 C   0  0  0  0  0  0  0  0  0  0  0  0
   25.2270  -20.7002  -11.0411 C   0  0  2  0  0  0  0  0  0  0  0  0
   26.1686  -20.2118   -9.9935 C   0  0  0  0  0  0  0  0  0  0  0  0
   23.8050  -20.3261  -10.8154 C   0  0  0  0  0  0  0  0  0  0  0  0
   22.8567  -20.8077  -11.8797 C   0  0  2  0  0  0  0  0  0  0  0  0
   23.5227  -20.6235  -13.1727 N   0  0  0  0  0  0  0  0  0  0  0  0
   21.5608  -20.1184  -11.8367 C   0  0  0  0  0  0  0  0  0  0  0  0
   20.6389  -20.5303  -10.8571 O   0  0  0  0  0  0  0  0  0  0  0  0
   21.2119  -19.2013  -12.5946 O   0  0  0  0  0  0  0  0  0  0  0  0
  2  3  1  0
  2  1  1  0
  3  4  2  0
  5  6  1  0
  5  3  1  0
  6  7  1  6
  8  7  1  0
  8  9  2  0
 10  9  1  0
 11 10  1  0
 12 11  2  0
 12  8  1  0
 13  6  1  0
 13 20  1  0
 14 13  2  0
 16 15  1  1
 16 17  1  0
 18 16  1  0
 19 20  1  0
 19 18  1  1
 21 19  1  0
 22 21  1  0
 23 21  2  0
M  END
$$$$
