GHL.pdb
     RDKit          3D

 23 23  0  0  1  0  0  0  0  0999 V2000
   27.7775  -25.0956  -16.2386 N   0  0  0  0  0  0  0  0  0  0  0  0
   28.1189  -23.8584  -16.8867 C   0  0  0  0  0  0  0  0  0  0  0  0
   27.3486  -22.7093  -16.3414 C   0  0  0  0  0  0  0  0  0  0  0  0
   27.8877  -21.9866  -15.4654 O   0  0  0  0  0  0  0  0  0  0  0  0
   26.0451  -22.3834  -16.7519 N   0  0  0  0  0  0  0  0  0  0  0  0
   25.4120  -21.1565  -16.2886 C   0  0  1  0  0  0  0  0  0  0  0  0
   24.6453  -20.4981  -17.3870 C   0  0  0  0  0  0  0  0  0  0  0  0
   23.8854  -19.3334  -16.9350 C   0  0  0  0  0  0  0  0  0  0  0  0
   24.4742  -18.0589  -16.9058 C   0  0  0  0  0  0  0  0  0  0  0  0
   23.5980  -17.1548  -16.4611 N   0  0  0  0  0  0  0  0  0  0  0  0
   22.4615  -17.8373  -16.2075 C   0  0  0  0  0  0  0  0  0  0  0  0
   22.6479  -19.1372  -16.4952 N   0  0  0  0  0  0  0  0  0  0  0  0
   24.5948  -21.5514  -15.1156 C   0  0  0  0  0  0  0  0  0  0  0  0
   23.9427  -22.6127  -15.0967 O   0  0  0  0  0  0  0  0  0  0  0  0
   25.5793  -22.5134  -11.1598 C   0  0  0  0  0  0  0  0  0  0  0  0
   25.6426  -20.9891  -11.3268 C   0  0  2  0  0  0  0  0  0  0  0  0
   26.2675  -20.4210  -10.0982 C   0  0  0  0  0  0  0  0  0  0  0  0
   24.2510  -20.5287  -11.5806 C   0  0  0  0  0  0  0  0  0  0  0  0
   23.6267  -21.0885  -12.8300 C   0  0  2  0  0  0  0  0  0  0  0  0
   24.5085  -20.7448  -13.9496 N   0  0  0  0  0  0  0  0  0  0  0  0
   22.2602  -20.5974  -13.0485 C   0  0  0  0  0  0  0  0  0  0  0  0
   21.2391  -21.1427  -12.2490 O   0  0  0  0  0  0  0  0  0  0  0  0
   21.9320  -19.7398  -13.8816 O   0  0  0  0  0  0  0  0  0  0  0  0
  2  3  1  0
  2  1  1  0
  3  4  2  0
  5  6  1  0
  5  3  1  0
  6  7  1  6
  8  7  1  0
  8  9  2  0
 10  9  1  0
 11 10  1  0
 12 11  2  0
 12  8  1  0
 13  6  1  0
 13 20  1  0
 14 13  2  0
 16 15  1  1
 16 17  1  0
 18 16  1  0
 19 20  1  0
 19 18  1  1
 21 19  1  0
 22 21  1  0
 23 21  2  0
M  END
$$$$
