GHL.pdb
     RDKit          3D

 23 23  0  0  1  0  0  0  0  0999 V2000
   27.7837  -22.4262  -16.4461 N   0  0  0  0  0  0  0  0  0  0  0  0
   28.5958  -21.8088  -15.4329 C   0  0  0  0  0  0  0  0  0  0  0  0
   27.7829  -21.0302  -14.4612 C   0  0  0  0  0  0  0  0  0  0  0  0
   27.9997  -19.7970  -14.3489 O   0  0  0  0  0  0  0  0  0  0  0  0
   26.7804  -21.5976  -13.6567 N   0  0  0  0  0  0  0  0  0  0  0  0
   25.9044  -20.7476  -12.8623 C   0  0  1  0  0  0  0  0  0  0  0  0
   24.5041  -20.7868  -13.3775 C   0  0  0  0  0  0  0  0  0  0  0  0
   24.3386  -20.0642  -14.6379 C   0  0  0  0  0  0  0  0  0  0  0  0
   23.9443  -18.7165  -14.6468 C   0  0  0  0  0  0  0  0  0  0  0  0
   23.8588  -18.2678  -15.9015 N   0  0  0  0  0  0  0  0  0  0  0  0
   24.1933  -19.3116  -16.6892 C   0  0  0  0  0  0  0  0  0  0  0  0
   24.4773  -20.3776  -15.9209 N   0  0  0  0  0  0  0  0  0  0  0  0
   26.0613  -21.2152  -11.4636 C   0  0  0  0  0  0  0  0  0  0  0  0
   25.9237  -22.4137  -11.1523 O   0  0  0  0  0  0  0  0  0  0  0  0
   25.9954  -19.7677   -6.2779 C   0  0  0  0  0  0  0  0  0  0  0  0
   27.4042  -20.0831   -6.7984 C   0  0  2  0  0  0  0  0  0  0  0  0
   28.3657  -19.2038   -6.0740 C   0  0  0  0  0  0  0  0  0  0  0  0
   27.3712  -19.8793   -8.2717 C   0  0  0  0  0  0  0  0  0  0  0  0
   26.3976  -20.7638   -9.0022 C   0  0  2  0  0  0  0  0  0  0  0  0
   26.3764  -20.3265  -10.4014 N   0  0  0  0  0  0  0  0  0  0  0  0
   25.0549  -20.7387   -8.4082 C   0  0  0  0  0  0  0  0  0  0  0  0
   24.6972  -21.8082   -7.5672 O   0  0  0  0  0  0  0  0  0  0  0  0
   24.2089  -19.8501   -8.5876 O   0  0  0  0  0  0  0  0  0  0  0  0
  2  3  1  0
  2  1  1  0
  3  4  2  0
  5  6  1  0
  5  3  1  0
  6  7  1  6
  8  7  1  0
  8  9  2  0
 10  9  1  0
 11 10  1  0
 12 11  2  0
 12  8  1  0
 13  6  1  0
 13 20  1  0
 14 13  2  0
 16 15  1  1
 16 17  1  0
 18 16  1  0
 19 20  1  0
 19 18  1  1
 21 19  1  0
 22 21  1  0
 23 21  2  0
M  END
$$$$
