GHL.pdb
     RDKit          3D

 23 23  0  0  1  0  0  0  0  0999 V2000
   28.3622  -22.2606  -18.1192 N   0  0  0  0  0  0  0  0  0  0  0  0
   28.8917  -21.8234  -16.8559 C   0  0  0  0  0  0  0  0  0  0  0  0
   27.8817  -21.9035  -15.7675 C   0  0  0  0  0  0  0  0  0  0  0  0
   27.3463  -23.0149  -15.5257 O   0  0  0  0  0  0  0  0  0  0  0  0
   27.4895  -20.8013  -14.9894 N   0  0  0  0  0  0  0  0  0  0  0  0
   26.6703  -20.9931  -13.8007 C   0  0  1  0  0  0  0  0  0  0  0  0
   27.1702  -20.1660  -12.6632 C   0  0  0  0  0  0  0  0  0  0  0  0
   26.4004  -20.3589  -11.4350 C   0  0  0  0  0  0  0  0  0  0  0  0
   25.3696  -21.3106  -11.3754 C   0  0  0  0  0  0  0  0  0  0  0  0
   24.8100  -21.3111  -10.1630 N   0  0  0  0  0  0  0  0  0  0  0  0
   25.4711  -20.3733   -9.4522 C   0  0  0  0  0  0  0  0  0  0  0  0
   26.4180  -19.8129  -10.2246 N   0  0  0  0  0  0  0  0  0  0  0  0
   25.2819  -20.6874  -14.2234 C   0  0  0  0  0  0  0  0  0  0  0  0
   25.0021  -19.6555  -14.8630 O   0  0  0  0  0  0  0  0  0  0  0  0
   19.9665  -23.7555  -14.4724 C   0  0  0  0  0  0  0  0  0  0  0  0
   20.6600  -22.4372  -14.8417 C   0  0  2  0  0  0  0  0  0  0  0  0
   20.5040  -22.2355  -16.3106 C   0  0  0  0  0  0  0  0  0  0  0  0
   22.0698  -22.5521  -14.3810 C   0  0  0  0  0  0  0  0  0  0  0  0
   22.8238  -21.2503  -14.3491 C   0  0  2  0  0  0  0  0  0  0  0  0
   24.1944  -21.5506  -13.9242 N   0  0  0  0  0  0  0  0  0  0  0  0
   22.1936  -20.2529  -13.4747 C   0  0  0  0  0  0  0  0  0  0  0  0
   21.4744  -19.2123  -14.0903 O   0  0  0  0  0  0  0  0  0  0  0  0
   22.2437  -20.2530  -12.2359 O   0  0  0  0  0  0  0  0  0  0  0  0
  2  3  1  0
  2  1  1  0
  3  4  2  0
  5  6  1  0
  5  3  1  0
  6  7  1  1
  8  7  1  0
  8  9  2  0
 10  9  1  0
 11 10  1  0
 12 11  2  0
 12  8  1  0
 13  6  1  0
 13 20  1  0
 14 13  2  0
 16 15  1  6
 16 17  1  0
 18 16  1  0
 19 20  1  0
 19 18  1  1
 21 19  1  0
 22 21  1  0
 23 21  2  0
M  END
$$$$
