GHL.pdb
     RDKit          3D

 23 23  0  0  1  0  0  0  0  0999 V2000
   28.1682  -17.6756  -18.3573 N   0  0  0  0  0  0  0  0  0  0  0  0
   28.2234  -18.1266  -16.9932 C   0  0  0  0  0  0  0  0  0  0  0  0
   26.8968  -18.0543  -16.3254 C   0  0  0  0  0  0  0  0  0  0  0  0
   26.5972  -17.0076  -15.6967 O   0  0  0  0  0  0  0  0  0  0  0  0
   25.9536  -19.0951  -16.3571 N   0  0  0  0  0  0  0  0  0  0  0  0
   24.6564  -18.9334  -15.7152 C   0  0  1  0  0  0  0  0  0  0  0  0
   23.5448  -19.1124  -16.6951 C   0  0  0  0  0  0  0  0  0  0  0  0
   23.3761  -17.9636  -17.5840 C   0  0  0  0  0  0  0  0  0  0  0  0
   23.8588  -17.9985  -18.9022 C   0  0  0  0  0  0  0  0  0  0  0  0
   23.5934  -16.8462  -19.5226 N   0  0  0  0  0  0  0  0  0  0  0  0
   22.9491  -16.0805  -18.6168 C   0  0  0  0  0  0  0  0  0  0  0  0
   22.8265  -16.7608  -17.4638 N   0  0  0  0  0  0  0  0  0  0  0  0
   24.6488  -19.8989  -14.5894 C   0  0  0  0  0  0  0  0  0  0  0  0
   25.1306  -21.0424  -14.7014 O   0  0  0  0  0  0  0  0  0  0  0  0
   26.1524  -21.9256  -10.1688 C   0  0  0  0  0  0  0  0  0  0  0  0
   25.2623  -20.6973   -9.9359 C   0  0  2  0  0  0  0  0  0  0  0  0
   23.9483  -21.1772   -9.4206 C   0  0  0  0  0  0  0  0  0  0  0  0
   25.1887  -19.9707  -11.2319 C   0  0  0  0  0  0  0  0  0  0  0  0
   24.1561  -20.5032  -12.1879 C   0  0  2  0  0  0  0  0  0  0  0  0
   24.0935  -19.5769  -13.3224 N   0  0  0  0  0  0  0  0  0  0  0  0
   22.8402  -20.6776  -11.5598 C   0  0  0  0  0  0  0  0  0  0  0  0
   22.0517  -19.5273  -11.3753 O   0  0  0  0  0  0  0  0  0  0  0  0
   22.3664  -21.7579  -11.1780 O   0  0  0  0  0  0  0  0  0  0  0  0
  2  3  1  0
  2  1  1  0
  3  4  2  0
  5  6  1  0
  5  3  1  0
  6  7  1  6
  8  7  1  0
  8  9  2  0
 10  9  1  0
 11 10  1  0
 12 11  2  0
 12  8  1  0
 13  6  1  0
 13 20  1  0
 14 13  2  0
 16 15  1  6
 16 17  1  0
 18 16  1  0
 19 20  1  0
 19 18  1  1
 21 19  1  0
 22 21  1  0
 23 21  2  0
M  END
$$$$
