GHL.pdb
     RDKit          3D

 23 23  0  0  1  0  0  0  0  0999 V2000
   26.2975  -23.5781  -15.9071 N   0  0  0  0  0  0  0  0  0  0  0  0
   27.3822  -22.6343  -15.9049 C   0  0  0  0  0  0  0  0  0  0  0  0
   27.1996  -21.5736  -14.8789 C   0  0  0  0  0  0  0  0  0  0  0  0
   28.0516  -20.6518  -14.8100 O   0  0  0  0  0  0  0  0  0  0  0  0
   26.1229  -21.5429  -13.9768 N   0  0  0  0  0  0  0  0  0  0  0  0
   25.8930  -20.3706  -13.1439 C   0  0  1  0  0  0  0  0  0  0  0  0
   24.5650  -19.7549  -13.4356 C   0  0  0  0  0  0  0  0  0  0  0  0
   24.5590  -18.9664  -14.6671 C   0  0  0  0  0  0  0  0  0  0  0  0
   23.9652  -19.4664  -15.8373 C   0  0  0  0  0  0  0  0  0  0  0  0
   24.0790  -18.5795  -16.8290 N   0  0  0  0  0  0  0  0  0  0  0  0
   24.7365  -17.5237  -16.3049 C   0  0  0  0  0  0  0  0  0  0  0  0
   25.0167  -17.7688  -15.0131 N   0  0  0  0  0  0  0  0  0  0  0  0
   26.0636  -20.8382  -11.7468 C   0  0  0  0  0  0  0  0  0  0  0  0
   25.7327  -21.9861  -11.3933 O   0  0  0  0  0  0  0  0  0  0  0  0
   28.5261  -21.0681   -7.0820 C   0  0  0  0  0  0  0  0  0  0  0  0
   27.7944  -19.7226   -7.1789 C   0  0  2  0  0  0  0  0  0  0  0  0
   26.5319  -19.8322   -6.3936 C   0  0  0  0  0  0  0  0  0  0  0  0
   27.5980  -19.4460   -8.6273 C   0  0  0  0  0  0  0  0  0  0  0  0
   26.7502  -20.4599   -9.3467 C   0  0  2  0  0  0  0  0  0  0  0  0
   26.6119  -20.0069  -10.7341 N   0  0  0  0  0  0  0  0  0  0  0  0
   25.4417  -20.6569   -8.7100 C   0  0  0  0  0  0  0  0  0  0  0  0
   25.2483  -21.8425   -7.9778 O   0  0  0  0  0  0  0  0  0  0  0  0
   24.4915  -19.8623   -8.7650 O   0  0  0  0  0  0  0  0  0  0  0  0
  2  3  1  0
  2  1  1  0
  3  4  2  0
  5  6  1  0
  5  3  1  0
  6  7  1  1
  8  7  1  0
  8  9  2  0
 10  9  1  0
 11 10  1  0
 12 11  2  0
 12  8  1  0
 13  6  1  0
 13 20  1  0
 14 13  2  0
 16 15  1  6
 16 17  1  0
 18 16  1  0
 19 20  1  0
 19 18  1  1
 21 19  1  0
 22 21  1  0
 23 21  2  0
M  END
$$$$
