GHL.pdb
     RDKit          3D

 23 23  0  0  1  0  0  0  0  0999 V2000
   27.8562  -24.0582  -16.9430 N   0  0  0  0  0  0  0  0  0  0  0  0
   26.6904  -23.2304  -16.7916 C   0  0  0  0  0  0  0  0  0  0  0  0
   26.8726  -22.1931  -15.7419 C   0  0  0  0  0  0  0  0  0  0  0  0
   27.9494  -22.1776  -15.0934 O   0  0  0  0  0  0  0  0  0  0  0  0
   25.9041  -21.2235  -15.4318 N   0  0  0  0  0  0  0  0  0  0  0  0
   26.1602  -20.2314  -14.3970 C   0  0  1  0  0  0  0  0  0  0  0  0
   25.6052  -18.8994  -14.7790 C   0  0  0  0  0  0  0  0  0  0  0  0
   26.4575  -18.1741  -15.7202 C   0  0  0  0  0  0  0  0  0  0  0  0
   27.7112  -18.6844  -16.0942 C   0  0  0  0  0  0  0  0  0  0  0  0
   28.3081  -17.8584  -16.9570 N   0  0  0  0  0  0  0  0  0  0  0  0
   27.4511  -16.8311  -17.1360 C   0  0  0  0  0  0  0  0  0  0  0  0
   26.3503  -17.0332  -16.3911 N   0  0  0  0  0  0  0  0  0  0  0  0
   25.5925  -20.8029  -13.1517 C   0  0  0  0  0  0  0  0  0  0  0  0
   24.6066  -21.5644  -13.1683 O   0  0  0  0  0  0  0  0  0  0  0  0
   26.4130  -19.5695   -7.1742 C   0  0  0  0  0  0  0  0  0  0  0  0
   25.5505  -20.3618   -8.1660 C   0  0  2  0  0  0  0  0  0  0  0  0
   25.4442  -21.7607   -7.6619 C   0  0  0  0  0  0  0  0  0  0  0  0
   26.2025  -20.2334   -9.4970 C   0  0  0  0  0  0  0  0  0  0  0  0
   25.4286  -20.8464  -10.6325 C   0  0  2  0  0  0  0  0  0  0  0  0
   26.1381  -20.5158  -11.8721 N   0  0  0  0  0  0  0  0  0  0  0  0
   24.0316  -20.3957  -10.6731 C   0  0  0  0  0  0  0  0  0  0  0  0
   23.0582  -21.2489  -10.1223 O   0  0  0  0  0  0  0  0  0  0  0  0
   23.6391  -19.3225  -11.1542 O   0  0  0  0  0  0  0  0  0  0  0  0
  2  3  1  0
  2  1  1  0
  3  4  2  0
  5  6  1  0
  5  3  1  0
  6  7  1  6
  8  7  1  0
  8  9  2  0
 10  9  1  0
 11 10  1  0
 12 11  2  0
 12  8  1  0
 13  6  1  0
 13 20  1  0
 14 13  2  0
 16 15  1  1
 16 17  1  0
 18 16  1  0
 19 20  1  0
 19 18  1  1
 21 19  1  0
 22 21  1  0
 23 21  2  0
M  END
$$$$
