GHL.pdb
     RDKit          3D

 23 23  0  0  1  0  0  0  0  0999 V2000
   23.1471  -10.9348  -18.6668 N   0  0  0  0  0  0  0  0  0  0  0  0
   23.2774   -9.7601  -17.8481 C   0  0  0  0  0  0  0  0  0  0  0  0
   21.9729   -9.3236  -17.2833 C   0  0  0  0  0  0  0  0  0  0  0  0
   21.2245   -8.6013  -17.9893 O   0  0  0  0  0  0  0  0  0  0  0  0
   21.5266   -9.6746  -15.9981 N   0  0  0  0  0  0  0  0  0  0  0  0
   20.2387   -9.2006  -15.5107 C   0  0  1  0  0  0  0  0  0  0  0  0
   19.5959  -10.2103  -14.6190 C   0  0  0  0  0  0  0  0  0  0  0  0
   19.0294  -11.3416  -15.3521 C   0  0  0  0  0  0  0  0  0  0  0  0
   18.0932  -11.1362  -16.3783 C   0  0  0  0  0  0  0  0  0  0  0  0
   17.7172  -12.3054  -16.9023 N   0  0  0  0  0  0  0  0  0  0  0  0
   18.4014  -13.2501  -16.2232 C   0  0  0  0  0  0  0  0  0  0  0  0
   19.1810  -12.6598  -15.3006 N   0  0  0  0  0  0  0  0  0  0  0  0
   20.5162   -7.8943  -14.8654 C   0  0  0  0  0  0  0  0  0  0  0  0
   21.2935   -7.7919  -13.8972 O   0  0  0  0  0  0  0  0  0  0  0  0
   22.3150   -2.6104  -16.0487 C   0  0  0  0  0  0  0  0  0  0  0  0
   21.5108   -3.3080  -14.9433 C   0  0  2  0  0  0  0  0  0  0  0  0
   22.3233   -3.2686  -13.6939 C   0  0  0  0  0  0  0  0  0  0  0  0
   21.2043   -4.6775  -15.4370 C   0  0  0  0  0  0  0  0  0  0  0  0
   20.1527   -5.4055  -14.6445 C   0  0  2  0  0  0  0  0  0  0  0  0
   19.9136   -6.6884  -15.3126 N   0  0  0  0  0  0  0  0  0  0  0  0
   18.9133   -4.6308  -14.5035 C   0  0  0  0  0  0  0  0  0  0  0  0
   18.7603   -3.8574  -13.3384 O   0  0  0  0  0  0  0  0  0  0  0  0
   17.9886   -4.6024  -15.3291 O   0  0  0  0  0  0  0  0  0  0  0  0
  2  3  1  0
  2  1  1  0
  3  4  2  0
  5  6  1  0
  5  3  1  0
  6  7  1  1
  8  7  1  0
  8  9  2  0
 10  9  1  0
 11 10  1  0
 12 11  2  0
 12  8  1  0
 13  6  1  0
 13 20  1  0
 14 13  2  0
 16 15  1  6
 16 17  1  0
 18 16  1  0
 19 20  1  0
 19 18  1  6
 21 19  1  0
 22 21  1  0
 23 21  2  0
M  END
$$$$
