GHL.pdb
     RDKit          3D

 23 23  0  0  1  0  0  0  0  0999 V2000
   24.1280  -25.8109  -16.6919 N   0  0  0  0  0  0  0  0  0  0  0  0
   23.6818  -25.4401  -15.3763 C   0  0  0  0  0  0  0  0  0  0  0  0
   24.6032  -24.4719  -14.7246 C   0  0  0  0  0  0  0  0  0  0  0  0
   25.5030  -24.9158  -13.9673 O   0  0  0  0  0  0  0  0  0  0  0  0
   24.5249  -23.0811  -14.9082 N   0  0  0  0  0  0  0  0  0  0  0  0
   25.5096  -22.2006  -14.2950 C   0  0  1  0  0  0  0  0  0  0  0  0
   25.8198  -21.0401  -15.1809 C   0  0  0  0  0  0  0  0  0  0  0  0
   26.7895  -20.1163  -14.5939 C   0  0  0  0  0  0  0  0  0  0  0  0
   28.1575  -20.4322  -14.5675 C   0  0  0  0  0  0  0  0  0  0  0  0
   28.8485  -19.4477  -13.9876 N   0  0  0  0  0  0  0  0  0  0  0  0
   27.9385  -18.5114  -13.6455 C   0  0  0  0  0  0  0  0  0  0  0  0
   26.7132  -18.9243  -14.0137 N   0  0  0  0  0  0  0  0  0  0  0  0
   24.9450  -21.8351  -12.9732 C   0  0  0  0  0  0  0  0  0  0  0  0
   23.7217  -21.6697  -12.8044 O   0  0  0  0  0  0  0  0  0  0  0  0
   27.3930  -19.2868   -7.9727 C   0  0  0  0  0  0  0  0  0  0  0  0
   26.0850  -19.8486   -8.5462 C   0  0  2  0  0  0  0  0  0  0  0  0
   25.5067  -20.7799   -7.5358 C   0  0  0  0  0  0  0  0  0  0  0  0
   26.4268  -20.4845   -9.8470 C   0  0  0  0  0  0  0  0  0  0  0  0
   25.2496  -21.0530  -10.5919 C   0  0  2  0  0  0  0  0  0  0  0  0
   25.7636  -21.6529  -11.8269 N   0  0  0  0  0  0  0  0  0  0  0  0
   24.2164  -20.0471  -10.8694 C   0  0  0  0  0  0  0  0  0  0  0  0
   22.9958  -20.1633  -10.1797 O   0  0  0  0  0  0  0  0  0  0  0  0
   24.3321  -19.1019  -11.6634 O   0  0  0  0  0  0  0  0  0  0  0  0
  2  3  1  0
  2  1  1  0
  3  4  2  0
  5  6  1  0
  5  3  1  0
  6  7  1  6
  8  7  1  0
  8  9  2  0
 10  9  1  0
 11 10  1  0
 12 11  2  0
 12  8  1  0
 13  6  1  0
 13 20  1  0
 14 13  2  0
 16 15  1  1
 16 17  1  0
 18 16  1  0
 19 20  1  0
 19 18  1  6
 21 19  1  0
 22 21  1  0
 23 21  2  0
M  END
$$$$
