GHL.pdb
     RDKit          3D

 23 23  0  0  1  0  0  0  0  0999 V2000
   24.6834  -20.9140   -9.3641 N   0  0  0  0  0  0  0  0  0  0  0  0
   25.9222  -20.6342  -10.0382 C   0  0  0  0  0  0  0  0  0  0  0  0
   25.7521  -20.5575  -11.5134 C   0  0  0  0  0  0  0  0  0  0  0  0
   26.7783  -20.5919  -12.2388 O   0  0  0  0  0  0  0  0  0  0  0  0
   24.5026  -20.4480  -12.1464 N   0  0  0  0  0  0  0  0  0  0  0  0
   24.4085  -20.4711  -13.5995 C   0  0  1  0  0  0  0  0  0  0  0  0
   23.2659  -21.3184  -14.0517 C   0  0  0  0  0  0  0  0  0  0  0  0
   23.6542  -22.7008  -14.3285 C   0  0  0  0  0  0  0  0  0  0  0  0
   24.3251  -23.4659  -13.3608 C   0  0  0  0  0  0  0  0  0  0  0  0
   24.5769  -24.6897  -13.8318 N   0  0  0  0  0  0  0  0  0  0  0  0
   24.0754  -24.7122  -15.0847 C   0  0  0  0  0  0  0  0  0  0  0  0
   23.5275  -23.5177  -15.3677 N   0  0  0  0  0  0  0  0  0  0  0  0
   24.3248  -19.0493  -14.0133 C   0  0  0  0  0  0  0  0  0  0  0  0
   23.6470  -18.2191  -13.3780 O   0  0  0  0  0  0  0  0  0  0  0  0
   27.6232  -15.2878  -17.4073 C   0  0  0  0  0  0  0  0  0  0  0  0
   26.3702  -15.3315  -16.5224 C   0  0  2  0  0  0  0  0  0  0  0  0
   26.4865  -14.2409  -15.5126 C   0  0  0  0  0  0  0  0  0  0  0  0
   26.3014  -16.7013  -15.9460 C   0  0  0  0  0  0  0  0  0  0  0  0
   24.9157  -17.1506  -15.5692 C   0  0  2  0  0  0  0  0  0  0  0  0
   25.0101  -18.5535  -15.1543 N   0  0  0  0  0  0  0  0  0  0  0  0
   23.9477  -16.9739  -16.6592 C   0  0  0  0  0  0  0  0  0  0  0  0
   23.2078  -15.7776  -16.6823 O   0  0  0  0  0  0  0  0  0  0  0  0
   23.7287  -17.7944  -17.5626 O   0  0  0  0  0  0  0  0  0  0  0  0
  2  3  1  0
  2  1  1  0
  3  4  2  0
  5  6  1  0
  5  3  1  0
  6  7  1  1
  8  7  1  0
  8  9  2  0
 10  9  1  0
 11 10  1  0
 12 11  2  0
 12  8  1  0
 13  6  1  0
 13 20  1  0
 14 13  2  0
 16 15  1  6
 16 17  1  0
 18 16  1  0
 19 20  1  0
 19 18  1  6
 21 19  1  0
 22 21  1  0
 23 21  2  0
M  END
$$$$
