SHH.pdb
     RDKit          3D

 27 28  0  0  1  0  0  0  0  0999 V2000
   18.1309  -14.9007   17.4476 O   0  0  0  0  0  0  0  0  0  0  0  0
   16.8801  -14.9326   18.0489 C   0  0  0  0  0  0  0  0  0  0  0  0
   15.7967  -14.4777   17.0627 C   0  0  2  0  0  0  0  0  0  0  0  0
   16.2974  -13.2587   16.4562 N   0  0  0  0  0  0  0  0  0  0  0  0
   14.6089  -14.1251   17.8887 C   0  0  0  0  0  0  0  0  0  0  0  0
   14.2976  -12.9104   18.1150 O   0  0  0  0  0  0  0  0  0  0  0  0
   13.7547  -15.0984   18.4720 N   0  0  0  0  0  0  0  0  0  0  0  0
   12.6047  -14.7609   19.2518 C   0  0  1  0  0  0  0  0  0  0  0  0
   11.3598  -15.5217   18.8478 C   0  0  0  0  0  0  0  0  0  0  0  0
   11.3721  -15.9574   17.4484 C   0  0  0  0  0  0  0  0  0  0  0  0
   10.9782  -15.1823   16.3772 C   0  0  0  0  0  0  0  0  0  0  0  0
   11.1168  -15.8909   15.2357 N   0  0  0  0  0  0  0  0  0  0  0  0
   11.5963  -17.1134   15.5693 C   0  0  0  0  0  0  0  0  0  0  0  0
   11.7440  -17.1337   16.9129 N   0  0  0  0  0  0  0  0  0  0  0  0
   12.9050  -15.0240   20.7042 C   0  0  0  0  0  0  0  0  0  0  0  0
   11.9816  -15.0716   21.5610 O   0  0  0  0  0  0  0  0  0  0  0  0
   14.2344  -15.2280   21.1650 N   0  0  0  0  0  0  0  0  0  0  0  0
   14.4724  -15.6196   22.5754 C   0  0  1  0  0  0  0  0  0  0  0  0
   13.9498  -17.0078   22.6915 C   0  0  0  0  0  0  0  0  0  0  0  0
   12.6102  -17.1534   23.2659 C   0  0  0  0  0  0  0  0  0  0  0  0
   11.8471  -16.0439   23.6044 C   0  0  0  0  0  0  0  0  0  0  0  0
   10.6857  -16.4644   24.0999 N   0  0  0  0  0  0  0  0  0  0  0  0
   10.6887  -17.7897   24.0862 C   0  0  0  0  0  0  0  0  0  0  0  0
   11.8565  -18.2161   23.5800 N   0  0  0  0  0  0  0  0  0  0  0  0
   15.9649  -15.6318   22.7762 C   0  0  0  0  0  0  0  0  0  0  0  0
   16.7601  -15.5284   21.8040 O   0  0  0  0  0  0  0  0  0  0  0  0
   16.5062  -15.7569   24.0387 O   0  0  0  0  0  0  0  0  0  0  0  0
  2  1  1  0
  2  3  1  0
  3  4  1  1
  5  3  1  0
  5  6  2  0
  7  5  1  0
  8  7  1  0
  8  9  1  6
 10  9  1  0
 10 11  2  0
 12 11  1  0
 13 14  2  0
 13 12  1  0
 14 10  1  0
 15  8  1  0
 16 15  2  0
 17 15  1  0
 18 17  1  0
 18 19  1  6
 19 20  1  0
 20 24  1  0
 20 21  2  0
 21 22  1  0
 23 22  1  0
 24 23  2  0
 25 18  1  0
 26 25  2  0
 27 25  1  0
M  END
$$$$
