SHH.pdb
     RDKit          3D

 27 28  0  0  1  0  0  0  0  0999 V2000
   12.8775  -17.9919   15.6910 O   0  0  0  0  0  0  0  0  0  0  0  0
   11.5082  -17.7881   15.5884 C   0  0  0  0  0  0  0  0  0  0  0  0
   11.1996  -16.3003   15.3768 C   0  0  2  0  0  0  0  0  0  0  0  0
   12.0904  -15.8554   14.3218 N   0  0  0  0  0  0  0  0  0  0  0  0
   11.6000  -15.6130   16.6358 C   0  0  0  0  0  0  0  0  0  0  0  0
   12.7107  -14.9953   16.7278 O   0  0  0  0  0  0  0  0  0  0  0  0
   10.7884  -15.5971   17.8012 N   0  0  0  0  0  0  0  0  0  0  0  0
   11.1495  -14.8969   18.9945 C   0  0  1  0  0  0  0  0  0  0  0  0
   10.0333  -14.8327   20.0152 C   0  0  0  0  0  0  0  0  0  0  0  0
    8.8724  -14.0617   19.5610 C   0  0  0  0  0  0  0  0  0  0  0  0
    8.7983  -13.3780   18.3649 C   0  0  0  0  0  0  0  0  0  0  0  0
    7.5919  -12.7790   18.2647 N   0  0  0  0  0  0  0  0  0  0  0  0
    6.8942  -13.0747   19.3879 C   0  0  0  0  0  0  0  0  0  0  0  0
    7.6866  -13.8519   20.1596 N   0  0  0  0  0  0  0  0  0  0  0  0
   12.3529  -15.5642   19.6072 C   0  0  0  0  0  0  0  0  0  0  0  0
   12.4763  -16.8187   19.5972 O   0  0  0  0  0  0  0  0  0  0  0  0
   13.3921  -14.8107   20.2182 N   0  0  0  0  0  0  0  0  0  0  0  0
   14.6107  -15.4999   20.7074 C   0  0  1  0  0  0  0  0  0  0  0  0
   15.7073  -14.5037   20.5705 C   0  0  0  0  0  0  0  0  0  0  0  0
   16.1393  -14.1943   19.2055 C   0  0  0  0  0  0  0  0  0  0  0  0
   16.2923  -15.1941   18.2543 C   0  0  0  0  0  0  0  0  0  0  0  0
   16.6900  -14.6356   17.1136 N   0  0  0  0  0  0  0  0  0  0  0  0
   16.7927  -13.3289   17.3097 C   0  0  0  0  0  0  0  0  0  0  0  0
   16.4592  -13.0528   18.5802 N   0  0  0  0  0  0  0  0  0  0  0  0
   14.3860  -15.7944   22.1671 C   0  0  0  0  0  0  0  0  0  0  0  0
   15.2900  -16.3043   22.8820 O   0  0  0  0  0  0  0  0  0  0  0  0
   13.1761  -15.5116   22.7661 O   0  0  0  0  0  0  0  0  0  0  0  0
  2  1  1  0
  2  3  1  0
  3  4  1  6
  5  3  1  0
  5  6  2  0
  7  5  1  0
  8  7  1  0
  8  9  1  1
 10  9  1  0
 10 11  2  0
 12 11  1  0
 13 14  2  0
 13 12  1  0
 14 10  1  0
 15  8  1  0
 16 15  2  0
 17 15  1  0
 18 17  1  0
 18 19  1  1
 19 20  1  0
 20 24  1  0
 20 21  2  0
 21 22  1  0
 23 22  1  0
 24 23  2  0
 25 18  1  0
 26 25  2  0
 27 25  1  0
M  END
$$$$
