SHH.pdb
     RDKit          3D

 27 28  0  0  1  0  0  0  0  0999 V2000
    8.1626  -23.8805   22.3683 O   0  0  0  0  0  0  0  0  0  0  0  0
    8.0013  -23.1598   23.5437 C   0  0  0  0  0  0  0  0  0  0  0  0
    6.6169  -23.4219   24.1503 C   0  0  2  0  0  0  0  0  0  0  0  0
    5.7151  -22.4891   23.5012 N   0  0  0  0  0  0  0  0  0  0  0  0
    6.7168  -23.0399   25.5862 C   0  0  0  0  0  0  0  0  0  0  0  0
    6.7351  -21.8176   25.9458 O   0  0  0  0  0  0  0  0  0  0  0  0
    6.7971  -23.9920   26.6370 N   0  0  0  0  0  0  0  0  0  0  0  0
    6.9921  -23.6288   28.0062 C   0  0  1  0  0  0  0  0  0  0  0  0
    6.2344  -24.5107   28.9759 C   0  0  0  0  0  0  0  0  0  0  0  0
    4.7820  -24.4763   28.7817 C   0  0  0  0  0  0  0  0  0  0  0  0
    4.0187  -23.3278   28.7392 C   0  0  0  0  0  0  0  0  0  0  0  0
    2.7230  -23.6573   28.5468 N   0  0  0  0  0  0  0  0  0  0  0  0
    2.6525  -25.0079   28.4660 C   0  0  0  0  0  0  0  0  0  0  0  0
    3.9091  -25.4849   28.6105 N   0  0  0  0  0  0  0  0  0  0  0  0
    8.4639  -23.6842   28.3215 C   0  0  0  0  0  0  0  0  0  0  0  0
    9.2842  -24.1915   27.5099 O   0  0  0  0  0  0  0  0  0  0  0  0
    8.9847  -23.1694   29.5401 N   0  0  0  0  0  0  0  0  0  0  0  0
   10.4170  -22.7955   29.6285 C   0  0  1  0  0  0  0  0  0  0  0  0
   10.5621  -21.5891   28.7700 C   0  0  0  0  0  0  0  0  0  0  0  0
   11.6376  -21.6227   27.7761 C   0  0  0  0  0  0  0  0  0  0  0  0
   12.5039  -22.7042   27.6884 C   0  0  0  0  0  0  0  0  0  0  0  0
   13.3739  -22.4711   26.7087 N   0  0  0  0  0  0  0  0  0  0  0  0
   13.0896  -21.2900   26.1790 C   0  0  0  0  0  0  0  0  0  0  0  0
   12.0342  -20.7677   26.8233 N   0  0  0  0  0  0  0  0  0  0  0  0
   10.6792  -22.4193   31.0630 C   0  0  0  0  0  0  0  0  0  0  0  0
   11.7930  -22.6433   31.6087 O   0  0  0  0  0  0  0  0  0  0  0  0
    9.7009  -21.8144   31.8242 O   0  0  0  0  0  0  0  0  0  0  0  0
  2  1  1  0
  2  3  1  0
  3  4  1  6
  5  3  1  0
  5  6  2  0
  7  5  1  0
  8  7  1  0
  8  9  1  1
 10  9  1  0
 10 11  2  0
 12 11  1  0
 13 14  2  0
 13 12  1  0
 14 10  1  0
 15  8  1  0
 16 15  2  0
 17 15  1  0
 18 17  1  0
 18 19  1  6
 19 20  1  0
 20 24  1  0
 20 21  2  0
 21 22  1  0
 23 22  1  0
 24 23  2  0
 25 18  1  0
 26 25  2  0
 27 25  1  0
M  END
$$$$
