SHH.pdb
     RDKit          3D

 27 28  0  0  1  0  0  0  0  0999 V2000
   17.5542  -11.9793   16.1712 O   0  0  0  0  0  0  0  0  0  0  0  0
   17.8373  -13.0502   15.3346 C   0  0  0  0  0  0  0  0  0  0  0  0
   16.8519  -13.0906   14.1595 C   0  0  2  0  0  0  0  0  0  0  0  0
   16.6096  -11.7073   13.7958 N   0  0  0  0  0  0  0  0  0  0  0  0
   15.5841  -13.6512   14.7035 C   0  0  0  0  0  0  0  0  0  0  0  0
   14.6165  -12.8934   15.0400 O   0  0  0  0  0  0  0  0  0  0  0  0
   15.3669  -15.0432   14.8827 N   0  0  0  0  0  0  0  0  0  0  0  0
   14.1245  -15.5875   15.3352 C   0  0  1  0  0  0  0  0  0  0  0  0
   13.8893  -17.0111   14.8770 C   0  0  0  0  0  0  0  0  0  0  0  0
   12.6055  -17.5613   15.3213 C   0  0  0  0  0  0  0  0  0  0  0  0
   11.3900  -17.3149   14.7169 C   0  0  0  0  0  0  0  0  0  0  0  0
   10.4170  -17.9765   15.3801 N   0  0  0  0  0  0  0  0  0  0  0  0
   11.0015  -18.6441   16.4040 C   0  0  0  0  0  0  0  0  0  0  0  0
   12.3262  -18.3799   16.3512 N   0  0  0  0  0  0  0  0  0  0  0  0
   14.0855  -15.5310   16.8399 C   0  0  0  0  0  0  0  0  0  0  0  0
   15.1385  -15.6503   17.5226 O   0  0  0  0  0  0  0  0  0  0  0  0
   12.8668  -15.3421   17.5470 N   0  0  0  0  0  0  0  0  0  0  0  0
   12.8688  -15.3424   19.0300 C   0  0  1  0  0  0  0  0  0  0  0  0
   11.4486  -15.1408   19.4251 C   0  0  0  0  0  0  0  0  0  0  0  0
   11.1649  -15.1501   20.8621 C   0  0  0  0  0  0  0  0  0  0  0  0
   12.1639  -15.4056   21.7920 C   0  0  0  0  0  0  0  0  0  0  0  0
   11.6315  -15.3521   23.0105 N   0  0  0  0  0  0  0  0  0  0  0  0
   10.3419  -15.0739   22.8836 C   0  0  0  0  0  0  0  0  0  0  0  0
   10.0506  -14.9496   21.5793 N   0  0  0  0  0  0  0  0  0  0  0  0
   13.3153  -16.7140   19.4628 C   0  0  0  0  0  0  0  0  0  0  0  0
   13.1766  -17.7178   18.7135 O   0  0  0  0  0  0  0  0  0  0  0  0
   13.8931  -16.9106   20.6998 O   0  0  0  0  0  0  0  0  0  0  0  0
  2  1  1  0
  2  3  1  0
  3  4  1  1
  5  3  1  0
  5  6  2  0
  7  5  1  0
  8  7  1  0
  8  9  1  1
 10  9  1  0
 10 11  2  0
 12 11  1  0
 13 14  2  0
 13 12  1  0
 14 10  1  0
 15  8  1  0
 16 15  2  0
 17 15  1  0
 18 17  1  0
 18 19  1  1
 19 20  1  0
 20 24  1  0
 20 21  2  0
 21 22  1  0
 23 22  1  0
 24 23  2  0
 25 18  1  0
 26 25  2  0
 27 25  1  0
M  END
$$$$
