SHH.pdb
     RDKit          3D

 27 28  0  0  1  0  0  0  0  0999 V2000
    8.4679  -18.2916   21.1020 O   0  0  0  0  0  0  0  0  0  0  0  0
    9.4777  -17.7319   20.3313 C   0  0  0  0  0  0  0  0  0  0  0  0
    9.2274  -16.2329   20.1220 C   0  0  2  0  0  0  0  0  0  0  0  0
   10.3719  -15.7383   19.3803 N   0  0  0  0  0  0  0  0  0  0  0  0
    9.2575  -15.6166   21.4773 C   0  0  0  0  0  0  0  0  0  0  0  0
   10.3583  -15.4020   22.0821 O   0  0  0  0  0  0  0  0  0  0  0  0
    8.0843  -15.2314   22.1790 N   0  0  0  0  0  0  0  0  0  0  0  0
    8.1107  -14.6614   23.4901 C   0  0  1  0  0  0  0  0  0  0  0  0
    6.7982  -14.0252   23.8957 C   0  0  0  0  0  0  0  0  0  0  0  0
    6.8141  -13.4717   25.2528 C   0  0  0  0  0  0  0  0  0  0  0  0
    7.4280  -12.2909   25.6162 C   0  0  0  0  0  0  0  0  0  0  0  0
    7.2491  -12.0806   26.9383 N   0  0  0  0  0  0  0  0  0  0  0  0
    6.5253  -13.1184   27.4229 C   0  0  0  0  0  0  0  0  0  0  0  0
    6.2720  -13.9494   26.3871 N   0  0  0  0  0  0  0  0  0  0  0  0
    8.4766  -15.7344   24.4820 C   0  0  0  0  0  0  0  0  0  0  0  0
    7.8586  -16.8327   24.5094 O   0  0  0  0  0  0  0  0  0  0  0  0
    9.5277  -15.5530   25.4219 N   0  0  0  0  0  0  0  0  0  0  0  0
    9.8688  -16.6459   26.3644 C   0  0  1  0  0  0  0  0  0  0  0  0
   11.3409  -16.8245   26.2429 C   0  0  0  0  0  0  0  0  0  0  0  0
   11.8138  -17.5445   25.0582 C   0  0  0  0  0  0  0  0  0  0  0  0
   10.9757  -18.3951   24.3498 C   0  0  0  0  0  0  0  0  0  0  0  0
   11.6592  -18.9108   23.3309 N   0  0  0  0  0  0  0  0  0  0  0  0
   12.8895  -18.4196   23.3709 C   0  0  0  0  0  0  0  0  0  0  0  0
   12.9912  -17.5875   24.4192 N   0  0  0  0  0  0  0  0  0  0  0  0
    9.5411  -16.1450   27.7463 C   0  0  0  0  0  0  0  0  0  0  0  0
    9.0890  -14.9838   27.9349 O   0  0  0  0  0  0  0  0  0  0  0  0
    9.7276  -16.9492   28.8512 O   0  0  0  0  0  0  0  0  0  0  0  0
  2  1  1  0
  2  3  1  0
  3  4  1  6
  5  3  1  0
  5  6  2  0
  7  5  1  0
  8  7  1  0
  8  9  1  1
 10  9  1  0
 10 11  2  0
 12 11  1  0
 13 14  2  0
 13 12  1  0
 14 10  1  0
 15  8  1  0
 16 15  2  0
 17 15  1  0
 18 17  1  0
 18 19  1  1
 19 20  1  0
 20 24  1  0
 20 21  2  0
 21 22  1  0
 23 22  1  0
 24 23  2  0
 25 18  1  0
 26 25  2  0
 27 25  1  0
M  END
$$$$
