SHH.pdb
     RDKit          3D

 27 28  0  0  1  0  0  0  0  0999 V2000
    7.9834  -14.6419   17.8469 O   0  0  0  0  0  0  0  0  0  0  0  0
    9.0347  -15.3774   18.3767 C   0  0  0  0  0  0  0  0  0  0  0  0
    8.6430  -16.8542   18.5146 C   0  0  2  0  0  0  0  0  0  0  0  0
    7.2894  -16.9562   18.0027 N   0  0  0  0  0  0  0  0  0  0  0  0
    8.6032  -17.1355   19.9764 C   0  0  0  0  0  0  0  0  0  0  0  0
    7.5204  -17.0338   20.6404 O   0  0  0  0  0  0  0  0  0  0  0  0
    9.7469  -17.5296   20.7206 N   0  0  0  0  0  0  0  0  0  0  0  0
    9.7109  -17.7953   22.1251 C   0  0  1  0  0  0  0  0  0  0  0  0
   10.9000  -18.5930   22.6168 C   0  0  0  0  0  0  0  0  0  0  0  0
   10.7563  -20.0374   22.4141 C   0  0  0  0  0  0  0  0  0  0  0  0
    9.6331  -20.6546   21.9034 C   0  0  0  0  0  0  0  0  0  0  0  0
    9.8388  -21.9885   21.8512 N   0  0  0  0  0  0  0  0  0  0  0  0
   11.0853  -22.2286   22.3249 C   0  0  0  0  0  0  0  0  0  0  0  0
   11.6240  -21.0350   22.6603 N   0  0  0  0  0  0  0  0  0  0  0  0
    9.6417  -16.4869   22.8682 C   0  0  0  0  0  0  0  0  0  0  0  0
   10.3915  -15.5223   22.5578 O   0  0  0  0  0  0  0  0  0  0  0  0
    8.7332  -16.2880   23.9434 N   0  0  0  0  0  0  0  0  0  0  0  0
    8.7307  -14.9984   24.6757 C   0  0  1  0  0  0  0  0  0  0  0  0
    7.3235  -14.5182   24.6214 C   0  0  0  0  0  0  0  0  0  0  0  0
    7.0223  -13.2982   25.3742 C   0  0  0  0  0  0  0  0  0  0  0  0
    6.1710  -13.3201   26.4708 C   0  0  0  0  0  0  0  0  0  0  0  0
    6.0775  -12.0854   26.9585 N   0  0  0  0  0  0  0  0  0  0  0  0
    6.8338  -11.2912   26.2143 C   0  0  0  0  0  0  0  0  0  0  0  0
    7.4119  -12.0221   25.2483 N   0  0  0  0  0  0  0  0  0  0  0  0
    9.0951  -15.3097   26.1034 C   0  0  0  0  0  0  0  0  0  0  0  0
    8.9634  -16.4698   26.5778 O   0  0  0  0  0  0  0  0  0  0  0  0
    9.5869  -14.3267   26.9367 O   0  0  0  0  0  0  0  0  0  0  0  0
  2  1  1  0
  2  3  1  0
  3  4  1  1
  5  3  1  0
  5  6  2  0
  7  5  1  0
  8  7  1  0
  8  9  1  1
 10  9  1  0
 10 11  2  0
 12 11  1  0
 13 14  2  0
 13 12  1  0
 14 10  1  0
 15  8  1  0
 16 15  2  0
 17 15  1  0
 18 17  1  0
 18 19  1  1
 19 20  1  0
 20 24  1  0
 20 21  2  0
 21 22  1  0
 23 22  1  0
 24 23  2  0
 25 18  1  0
 26 25  2  0
 27 25  1  0
M  END
$$$$
