SHH.pdb
     RDKit          3D

 27 28  0  0  1  0  0  0  0  0999 V2000
    8.3960  -16.2853   16.5496 O   0  0  0  0  0  0  0  0  0  0  0  0
    9.7148  -16.6475   16.3119 C   0  0  0  0  0  0  0  0  0  0  0  0
    9.9089  -18.1525   16.5371 C   0  0  2  0  0  0  0  0  0  0  0  0
    8.8353  -18.8049   15.8117 N   0  0  0  0  0  0  0  0  0  0  0  0
    9.6872  -18.3839   17.9914 C   0  0  0  0  0  0  0  0  0  0  0  0
    8.5210  -18.6016   18.4563 O   0  0  0  0  0  0  0  0  0  0  0  0
   10.7392  -18.3787   18.9455 N   0  0  0  0  0  0  0  0  0  0  0  0
   10.5295  -18.6157   20.3400 C   0  0  1  0  0  0  0  0  0  0  0  0
   11.5041  -19.6102   20.9341 C   0  0  0  0  0  0  0  0  0  0  0  0
   11.1739  -21.0045   20.6258 C   0  0  0  0  0  0  0  0  0  0  0  0
    9.9607  -21.4373   20.1315 C   0  0  0  0  0  0  0  0  0  0  0  0
    9.9974  -22.7768   19.9622 N   0  0  0  0  0  0  0  0  0  0  0  0
   11.2251  -23.2036   20.3447 C   0  0  0  0  0  0  0  0  0  0  0  0
   11.9221  -22.1159   20.7429 N   0  0  0  0  0  0  0  0  0  0  0  0
   10.6337  -17.3073   21.0790 C   0  0  0  0  0  0  0  0  0  0  0  0
   11.5806  -16.5065   20.8531 O   0  0  0  0  0  0  0  0  0  0  0  0
    9.6739  -16.9247   22.0555 N   0  0  0  0  0  0  0  0  0  0  0  0
    9.8324  -15.6401   22.7793 C   0  0  1  0  0  0  0  0  0  0  0  0
    8.4837  -15.0121   22.7653 C   0  0  0  0  0  0  0  0  0  0  0  0
    8.0745  -14.3764   21.5107 C   0  0  0  0  0  0  0  0  0  0  0  0
    8.9456  -14.2812   20.4338 C   0  0  0  0  0  0  0  0  0  0  0  0
    8.3183  -13.6640   19.4354 N   0  0  0  0  0  0  0  0  0  0  0  0
    7.0916  -13.3686   19.8410 C   0  0  0  0  0  0  0  0  0  0  0  0
    6.9359  -13.7990   21.1027 N   0  0  0  0  0  0  0  0  0  0  0  0
   10.2059  -15.9844   24.1971 C   0  0  0  0  0  0  0  0  0  0  0  0
   10.5081  -15.0910   25.0330 O   0  0  0  0  0  0  0  0  0  0  0  0
   10.2269  -17.2962   24.6227 O   0  0  0  0  0  0  0  0  0  0  0  0
  2  1  1  0
  2  3  1  0
  3  4  1  6
  5  3  1  0
  5  6  2  0
  7  5  1  0
  8  7  1  0
  8  9  1  1
 10  9  1  0
 10 11  2  0
 12 11  1  0
 13 14  2  0
 13 12  1  0
 14 10  1  0
 15  8  1  0
 16 15  2  0
 17 15  1  0
 18 17  1  0
 18 19  1  1
 19 20  1  0
 20 24  1  0
 20 21  2  0
 21 22  1  0
 23 22  1  0
 24 23  2  0
 25 18  1  0
 26 25  2  0
 27 25  1  0
M  END
$$$$
