SHH.pdb
     RDKit          3D

 27 28  0  0  1  0  0  0  0  0999 V2000
    8.2372  -20.0237   22.1983 O   0  0  0  0  0  0  0  0  0  0  0  0
    7.2983  -19.6781   21.2360 C   0  0  0  0  0  0  0  0  0  0  0  0
    7.9196  -18.7463   20.1876 C   0  0  2  0  0  0  0  0  0  0  0  0
    9.1087  -19.4246   19.7074 N   0  0  0  0  0  0  0  0  0  0  0  0
    8.3528  -17.5270   20.9246 C   0  0  0  0  0  0  0  0  0  0  0  0
    9.5562  -17.3847   21.3184 O   0  0  0  0  0  0  0  0  0  0  0  0
    7.4728  -16.4563   21.2351 N   0  0  0  0  0  0  0  0  0  0  0  0
    7.8757  -15.3069   21.9841 C   0  0  1  0  0  0  0  0  0  0  0  0
    7.1534  -14.0403   21.5768 C   0  0  0  0  0  0  0  0  0  0  0  0
    7.4307  -13.6296   20.1974 C   0  0  0  0  0  0  0  0  0  0  0  0
    8.2437  -12.5750   19.8365 C   0  0  0  0  0  0  0  0  0  0  0  0
    8.2785  -12.4759   18.4899 N   0  0  0  0  0  0  0  0  0  0  0  0
    7.4939  -13.4595   17.9873 C   0  0  0  0  0  0  0  0  0  0  0  0
    6.9899  -14.1466   19.0368 N   0  0  0  0  0  0  0  0  0  0  0  0
    7.6404  -15.5708   23.4483 C   0  0  0  0  0  0  0  0  0  0  0  0
    6.4739  -15.7152   23.9037 O   0  0  0  0  0  0  0  0  0  0  0  0
    8.7180  -15.6671   24.3706 N   0  0  0  0  0  0  0  0  0  0  0  0
    8.5457  -16.4379   25.6257 C   0  0  1  0  0  0  0  0  0  0  0  0
    8.2562  -17.8321   25.1942 C   0  0  0  0  0  0  0  0  0  0  0  0
    8.0779  -18.8201   26.2609 C   0  0  0  0  0  0  0  0  0  0  0  0
    6.9560  -18.8027   27.0787 C   0  0  0  0  0  0  0  0  0  0  0  0
    7.0533  -19.8024   27.9518 N   0  0  0  0  0  0  0  0  0  0  0  0
    8.1881  -20.4451   27.7158 C   0  0  0  0  0  0  0  0  0  0  0  0
    8.8170  -19.8531   26.6884 N   0  0  0  0  0  0  0  0  0  0  0  0
    9.8705  -16.4038   26.3410 C   0  0  0  0  0  0  0  0  0  0  0  0
   10.9335  -16.0886   25.7418 O   0  0  0  0  0  0  0  0  0  0  0  0
    9.9574  -16.7184   27.6811 O   0  0  0  0  0  0  0  0  0  0  0  0
  2  1  1  0
  2  3  1  0
  3  4  1  1
  5  3  1  0
  5  6  2  0
  7  5  1  0
  8  7  1  0
  8  9  1  6
 10  9  1  0
 10 11  2  0
 12 11  1  0
 13 14  2  0
 13 12  1  0
 14 10  1  0
 15  8  1  0
 16 15  2  0
 17 15  1  0
 18 17  1  0
 18 19  1  6
 19 20  1  0
 20 24  1  0
 20 21  2  0
 21 22  1  0
 23 22  1  0
 24 23  2  0
 25 18  1  0
 26 25  2  0
 27 25  1  0
M  END
$$$$
