SHH.pdb
     RDKit          3D

 27 28  0  0  1  0  0  0  0  0999 V2000
    9.8895  -20.8126   18.5377 O   0  0  0  0  0  0  0  0  0  0  0  0
    8.7330  -20.2707   17.9939 C   0  0  0  0  0  0  0  0  0  0  0  0
    9.0083  -18.8717   17.4278 C   0  0  2  0  0  0  0  0  0  0  0  0
   10.0025  -19.0525   16.3868 N   0  0  0  0  0  0  0  0  0  0  0  0
    9.6365  -18.0960   18.5328 C   0  0  0  0  0  0  0  0  0  0  0  0
   10.8925  -17.8829   18.5606 O   0  0  0  0  0  0  0  0  0  0  0  0
    8.8953  -17.5488   19.6136 N   0  0  0  0  0  0  0  0  0  0  0  0
    9.4792  -16.7145   20.6175 C   0  0  1  0  0  0  0  0  0  0  0  0
    8.5006  -15.7342   21.2284 C   0  0  0  0  0  0  0  0  0  0  0  0
    8.1413  -14.6334   20.3298 C   0  0  0  0  0  0  0  0  0  0  0  0
    8.6593  -14.4465   19.0648 C   0  0  0  0  0  0  0  0  0  0  0  0
    8.1135  -13.3398   18.5156 N   0  0  0  0  0  0  0  0  0  0  0  0
    7.2504  -12.8178   19.4202 C   0  0  0  0  0  0  0  0  0  0  0  0
    7.2817  -13.6152   20.5114 N   0  0  0  0  0  0  0  0  0  0  0  0
   10.0592  -17.5862   21.7004 C   0  0  0  0  0  0  0  0  0  0  0  0
    9.4498  -18.6128   22.1049 O   0  0  0  0  0  0  0  0  0  0  0  0
   11.3101  -17.2881   22.3065 N   0  0  0  0  0  0  0  0  0  0  0  0
   11.8797  -18.2162   23.3132 C   0  0  1  0  0  0  0  0  0  0  0  0
   13.3450  -18.2250   23.0551 C   0  0  0  0  0  0  0  0  0  0  0  0
   13.7956  -18.9836   21.8859 C   0  0  0  0  0  0  0  0  0  0  0  0
   12.9129  -19.7597   21.1467 C   0  0  0  0  0  0  0  0  0  0  0  0
   13.5849  -20.3328   20.1511 N   0  0  0  0  0  0  0  0  0  0  0  0
   14.8506  -19.9488   20.2351 C   0  0  0  0  0  0  0  0  0  0  0  0
   14.9865  -19.1278   21.2882 N   0  0  0  0  0  0  0  0  0  0  0  0
   11.6166  -17.6052   24.6643 C   0  0  0  0  0  0  0  0  0  0  0  0
   11.9721  -18.1814   25.7273 O   0  0  0  0  0  0  0  0  0  0  0  0
   10.9751  -16.3893   24.7762 O   0  0  0  0  0  0  0  0  0  0  0  0
  2  1  1  0
  2  3  1  0
  3  4  1  6
  5  3  1  0
  5  6  2  0
  7  5  1  0
  8  7  1  0
  8  9  1  1
 10  9  1  0
 10 11  2  0
 12 11  1  0
 13 14  2  0
 13 12  1  0
 14 10  1  0
 15  8  1  0
 16 15  2  0
 17 15  1  0
 18 17  1  0
 18 19  1  6
 19 20  1  0
 20 24  1  0
 20 21  2  0
 21 22  1  0
 23 22  1  0
 24 23  2  0
 25 18  1  0
 26 25  2  0
 27 25  1  0
M  END
$$$$
