SHH.pdb
     RDKit          3D

 27 28  0  0  1  0  0  0  0  0999 V2000
    9.0456  -14.8704   13.2259 O   0  0  0  0  0  0  0  0  0  0  0  0
    8.6563  -15.6130   14.3322 C   0  0  0  0  0  0  0  0  0  0  0  0
    9.3027  -17.0040   14.3015 C   0  0  2  0  0  0  0  0  0  0  0  0
    8.6321  -17.7309   13.2402 N   0  0  0  0  0  0  0  0  0  0  0  0
    8.9498  -17.6513   15.5953 C   0  0  0  0  0  0  0  0  0  0  0  0
    8.2258  -18.6992   15.6349 O   0  0  0  0  0  0  0  0  0  0  0  0
    9.3863  -17.1569   16.8531 N   0  0  0  0  0  0  0  0  0  0  0  0
    9.7805  -18.0081   17.9323 C   0  0  1  0  0  0  0  0  0  0  0  0
   10.8428  -19.0154   17.5466 C   0  0  0  0  0  0  0  0  0  0  0  0
   11.1370  -19.9857   18.6050 C   0  0  0  0  0  0  0  0  0  0  0  0
   10.2279  -20.4304   19.5426 C   0  0  0  0  0  0  0  0  0  0  0  0
   10.8294  -21.3170   20.3652 N   0  0  0  0  0  0  0  0  0  0  0  0
   12.1163  -21.4422   19.9603 C   0  0  0  0  0  0  0  0  0  0  0  0
   12.2825  -20.6284   18.8938 N   0  0  0  0  0  0  0  0  0  0  0  0
   10.2847  -17.1559   19.0675 C   0  0  0  0  0  0  0  0  0  0  0  0
   11.3145  -16.4409   18.9362 O   0  0  0  0  0  0  0  0  0  0  0  0
    9.6234  -17.1236   20.3256 N   0  0  0  0  0  0  0  0  0  0  0  0
   10.0979  -16.1981   21.3827 C   0  0  1  0  0  0  0  0  0  0  0  0
    8.8660  -15.5930   21.9572 C   0  0  0  0  0  0  0  0  0  0  0  0
    8.1865  -14.5917   21.1318 C   0  0  0  0  0  0  0  0  0  0  0  0
    8.7252  -14.1675   19.9245 C   0  0  0  0  0  0  0  0  0  0  0  0
    7.9076  -13.2631   19.3908 N   0  0  0  0  0  0  0  0  0  0  0  0
    6.8799  -13.1027   20.2122 C   0  0  0  0  0  0  0  0  0  0  0  0
    7.0426  -13.9079   21.2738 N   0  0  0  0  0  0  0  0  0  0  0  0
   10.7710  -17.0450   22.4304 C   0  0  0  0  0  0  0  0  0  0  0  0
   10.7402  -18.3038   22.3781 O   0  0  0  0  0  0  0  0  0  0  0  0
   11.4450  -16.4619   23.4832 O   0  0  0  0  0  0  0  0  0  0  0  0
  2  1  1  0
  2  3  1  0
  3  4  1  6
  5  3  1  0
  5  6  2  0
  7  5  1  0
  8  7  1  0
  8  9  1  6
 10  9  1  0
 10 11  2  0
 12 11  1  0
 13 14  2  0
 13 12  1  0
 14 10  1  0
 15  8  1  0
 16 15  2  0
 17 15  1  0
 18 17  1  0
 18 19  1  1
 19 20  1  0
 20 24  1  0
 20 21  2  0
 21 22  1  0
 23 22  1  0
 24 23  2  0
 25 18  1  0
 26 25  2  0
 27 25  1  0
M  END
$$$$
