SHH.pdb
     RDKit          3D

 27 28  0  0  1  0  0  0  0  0999 V2000
    4.8720  -23.7753   18.4944 O   0  0  0  0  0  0  0  0  0  0  0  0
    6.1005  -23.1492   18.3344 C   0  0  0  0  0  0  0  0  0  0  0  0
    6.1933  -22.4908   16.9519 C   0  0  2  0  0  0  0  0  0  0  0  0
    5.6775  -23.4670   16.0109 N   0  0  0  0  0  0  0  0  0  0  0  0
    7.6459  -22.3114   16.6772 C   0  0  0  0  0  0  0  0  0  0  0  0
    8.4341  -23.3102   16.6069 O   0  0  0  0  0  0  0  0  0  0  0  0
    8.2450  -21.0392   16.4779 N   0  0  0  0  0  0  0  0  0  0  0  0
    9.6602  -20.8438   16.4166 C   0  0  1  0  0  0  0  0  0  0  0  0
   10.0681  -19.6693   15.5528 C   0  0  0  0  0  0  0  0  0  0  0  0
    9.5120  -19.7220   14.1977 C   0  0  0  0  0  0  0  0  0  0  0  0
    8.1727  -19.6013   13.8893 C   0  0  0  0  0  0  0  0  0  0  0  0
    8.0102  -19.6955   12.5517 N   0  0  0  0  0  0  0  0  0  0  0  0
    9.2358  -19.8756   12.0028 C   0  0  0  0  0  0  0  0  0  0  0  0
   10.1311  -19.8888   13.0155 N   0  0  0  0  0  0  0  0  0  0  0  0
   10.1872  -20.6469   17.8138 C   0  0  0  0  0  0  0  0  0  0  0  0
    9.6032  -19.8810   18.6271 O   0  0  0  0  0  0  0  0  0  0  0  0
   11.3577  -21.3129   18.2693 N   0  0  0  0  0  0  0  0  0  0  0  0
   11.8735  -21.0440   19.6335 C   0  0  1  0  0  0  0  0  0  0  0  0
   11.8501  -22.3591   20.3288 C   0  0  0  0  0  0  0  0  0  0  0  0
   10.5434  -22.8224   20.8018 C   0  0  0  0  0  0  0  0  0  0  0  0
    9.7026  -21.9885   21.5266 C   0  0  0  0  0  0  0  0  0  0  0  0
    8.5935  -22.6611   21.8245 N   0  0  0  0  0  0  0  0  0  0  0  0
    8.7038  -23.8806   21.3173 C   0  0  0  0  0  0  0  0  0  0  0  0
    9.8876  -23.9862   20.6936 N   0  0  0  0  0  0  0  0  0  0  0  0
   13.3009  -20.5904   19.4758 C   0  0  0  0  0  0  0  0  0  0  0  0
   13.8657  -20.5756   18.3493 O   0  0  0  0  0  0  0  0  0  0  0  0
   14.0343  -20.1752   20.5677 O   0  0  0  0  0  0  0  0  0  0  0  0
  2  1  1  0
  2  3  1  0
  3  4  1  6
  5  3  1  0
  5  6  2  0
  7  5  1  0
  8  7  1  0
  8  9  1  6
 10  9  1  0
 10 11  2  0
 12 11  1  0
 13 14  2  0
 13 12  1  0
 14 10  1  0
 15  8  1  0
 16 15  2  0
 17 15  1  0
 18 17  1  0
 18 19  1  1
 19 20  1  0
 20 24  1  0
 20 21  2  0
 21 22  1  0
 23 22  1  0
 24 23  2  0
 25 18  1  0
 26 25  2  0
 27 25  1  0
M  END
$$$$
