SHH.pdb
     RDKit          3D

 27 28  0  0  1  0  0  0  0  0999 V2000
   11.4980  -18.2544   14.7058 O   0  0  0  0  0  0  0  0  0  0  0  0
   10.2566  -17.9222   15.2309 C   0  0  0  0  0  0  0  0  0  0  0  0
    9.9947  -16.4178   15.0834 C   0  0  2  0  0  0  0  0  0  0  0  0
   10.4978  -16.0531   13.7725 N   0  0  0  0  0  0  0  0  0  0  0  0
   10.8472  -15.7486   16.1047 C   0  0  0  0  0  0  0  0  0  0  0  0
   11.9629  -15.2191   15.7909 O   0  0  0  0  0  0  0  0  0  0  0  0
   10.4849  -15.6547   17.4747 N   0  0  0  0  0  0  0  0  0  0  0  0
   11.1881  -14.8372   18.4139 C   0  0  1  0  0  0  0  0  0  0  0  0
   10.3864  -14.5279   19.6603 C   0  0  0  0  0  0  0  0  0  0  0  0
    9.0928  -13.8986   19.3795 C   0  0  0  0  0  0  0  0  0  0  0  0
    8.8956  -12.8640   18.4883 C   0  0  0  0  0  0  0  0  0  0  0  0
    7.5877  -12.5269   18.4746 N   0  0  0  0  0  0  0  0  0  0  0  0
    6.9474  -13.3385   19.3504 C   0  0  0  0  0  0  0  0  0  0  0  0
    7.8757  -14.1614   19.8876 N   0  0  0  0  0  0  0  0  0  0  0  0
   12.4698  -15.5282   18.7994 C   0  0  0  0  0  0  0  0  0  0  0  0
   12.5400  -16.7856   18.8528 O   0  0  0  0  0  0  0  0  0  0  0  0
   13.6453  -14.7945   19.1169 N   0  0  0  0  0  0  0  0  0  0  0  0
   14.9228  -15.5131   19.3426 C   0  0  1  0  0  0  0  0  0  0  0  0
   15.9836  -14.4772   19.2187 C   0  0  0  0  0  0  0  0  0  0  0  0
   16.3757  -14.1064   17.8569 C   0  0  0  0  0  0  0  0  0  0  0  0
   16.2798  -15.0112   16.8080 C   0  0  0  0  0  0  0  0  0  0  0  0
   16.6987  -14.4143   15.6947 N   0  0  0  0  0  0  0  0  0  0  0  0
   17.0528  -13.1745   16.0014 C   0  0  0  0  0  0  0  0  0  0  0  0
   16.8591  -12.9798   17.3153 N   0  0  0  0  0  0  0  0  0  0  0  0
   14.8891  -16.0232   20.7592 C   0  0  0  0  0  0  0  0  0  0  0  0
   15.8781  -16.6153   21.2687 O   0  0  0  0  0  0  0  0  0  0  0  0
   13.7671  -15.8546   21.5435 O   0  0  0  0  0  0  0  0  0  0  0  0
  2  1  1  0
  2  3  1  0
  3  4  1  6
  5  3  1  0
  5  6  2  0
  7  5  1  0
  8  7  1  0
  8  9  1  1
 10  9  1  0
 10 11  2  0
 12 11  1  0
 13 14  2  0
 13 12  1  0
 14 10  1  0
 15  8  1  0
 16 15  2  0
 17 15  1  0
 18 17  1  0
 18 19  1  1
 19 20  1  0
 20 24  1  0
 20 21  2  0
 21 22  1  0
 23 22  1  0
 24 23  2  0
 25 18  1  0
 26 25  2  0
 27 25  1  0
M  END
$$$$
