YMT.pdb
     RDKit          3D

 28 28  0  0  1  0  0  0  0  0999 V2000
   16.2136  -24.3171  -12.5877 O   0  0  0  0  0  0  0  0  0  0  0  0
   17.4524  -23.8027  -12.9456 C   0  0  0  0  0  0  0  0  0  0  0  0
   17.5981  -23.0726  -14.1184 C   0  0  0  0  0  0  0  0  0  0  0  0
   18.8179  -22.5512  -14.4954 C   0  0  0  0  0  0  0  0  0  0  0  0
   19.9534  -22.7260  -13.7322 C   0  0  0  0  0  0  0  0  0  0  0  0
   21.2527  -22.1494  -14.1691 C   0  0  0  0  0  0  0  0  0  0  0  0
   21.6599  -21.1455  -13.1082 C   0  0  2  0  0  0  0  0  0  0  0  0
   20.7592  -20.0246  -13.2543 N   0  0  0  0  0  0  0  0  0  0  0  0
   23.0411  -20.6766  -13.2686 C   0  0  0  0  0  0  0  0  0  0  0  0
   23.2228  -19.5983  -13.8792 O   0  0  0  0  0  0  0  0  0  0  0  0
   19.8023  -23.4575  -12.5597 C   0  0  0  0  0  0  0  0  0  0  0  0
   18.5831  -23.9794  -12.1812 C   0  0  0  0  0  0  0  0  0  0  0  0
   26.8655  -21.0517   -8.7489 C   0  0  0  0  0  0  0  0  0  0  0  0
   28.2958  -21.0697   -9.8460 S   0  0  0  0  0  0  0  0  0  0  0  0
   27.7263  -21.0184  -11.6029 C   0  0  0  0  0  0  0  0  0  0  0  0
   26.2656  -21.2016  -11.6240 C   0  0  0  0  0  0  0  0  0  0  0  0
   25.5390  -20.9577  -12.9075 C   0  0  2  0  0  0  0  0  0  0  0  0
   24.1279  -21.4090  -12.7563 N   0  0  0  0  0  0  0  0  0  0  0  0
   26.0377  -21.6191  -14.0977 C   0  0  0  0  0  0  0  0  0  0  0  0
   25.8411  -22.8420  -14.3123 O   0  0  0  0  0  0  0  0  0  0  0  0
   28.2080  -19.4100  -16.8752 C   0  0  0  0  0  0  0  0  0  0  0  0
   27.1897  -20.3987  -17.3589 C   0  0  1  0  0  0  0  0  0  0  0  0
   27.5312  -20.8745  -18.6203 O   0  0  0  0  0  0  0  0  0  0  0  0
   27.0275  -21.5404  -16.3646 C   0  0  2  0  0  0  0  0  0  0  0  0
   26.7682  -20.9165  -15.0820 N   0  0  0  0  0  0  0  0  0  0  0  0
   28.2566  -22.3370  -16.2602 C   0  0  0  0  0  0  0  0  0  0  0  0
   28.6250  -23.1951  -17.2616 O   0  0  0  0  0  0  0  0  0  0  0  0
   28.9719  -22.2270  -15.2422 O   0  0  0  0  0  0  0  0  0  0  0  0
  2  1  1  0
  3  2  2  0
  4  3  1  0
  5  4  2  0
  5 11  1  0
  6  7  1  0
  6  5  1  0
  7  9  1  0
  7  8  1  6
  9 18  1  0
 10  9  2  0
 11 12  2  0
 12  2  1  0
 14 15  1  0
 14 13  1  0
 16 15  1  0
 17 16  1  1
 17 19  1  0
 18 17  1  0
 19 20  2  0
 22 21  1  1
 22 24  1  0
 23 22  1  0
 24 26  1  0
 25 19  1  0
 24 25  1  1
 26 28  2  0
 26 27  1  0
M  END
$$$$
