YMT.pdb
     RDKit          3D

 28 28  0  0  1  0  0  0  0  0999 V2000
   16.5292  -23.6737  -11.7482 O   0  0  0  0  0  0  0  0  0  0  0  0
   17.7231  -23.1534  -12.2291 C   0  0  0  0  0  0  0  0  0  0  0  0
   18.9267  -23.7946  -11.9641 C   0  0  0  0  0  0  0  0  0  0  0  0
   20.1255  -23.2977  -12.4309 C   0  0  0  0  0  0  0  0  0  0  0  0
   20.1937  -22.1430  -13.1821 C   0  0  0  0  0  0  0  0  0  0  0  0
   21.5040  -21.6359  -13.6696 C   0  0  0  0  0  0  0  0  0  0  0  0
   22.3341  -21.3270  -12.4389 C   0  0  2  0  0  0  0  0  0  0  0  0
   21.6453  -20.2576  -11.7525 N   0  0  0  0  0  0  0  0  0  0  0  0
   23.6960  -20.8896  -12.7661 C   0  0  0  0  0  0  0  0  0  0  0  0
   23.8241  -19.8675  -13.4785 O   0  0  0  0  0  0  0  0  0  0  0  0
   18.9867  -21.5051  -13.4444 C   0  0  0  0  0  0  0  0  0  0  0  0
   17.7869  -22.0008  -12.9784 C   0  0  0  0  0  0  0  0  0  0  0  0
   28.4405  -21.0452   -9.0408 C   0  0  0  0  0  0  0  0  0  0  0  0
   29.3210  -20.6820  -10.5714 S   0  0  0  0  0  0  0  0  0  0  0  0
   28.6086  -21.6892  -11.9467 C   0  0  0  0  0  0  0  0  0  0  0  0
   27.1643  -21.8464  -11.7085 C   0  0  0  0  0  0  0  0  0  0  0  0
   26.2137  -21.2076  -12.6693 C   0  0  2  0  0  0  0  0  0  0  0  0
   24.8230  -21.5903  -12.2984 N   0  0  0  0  0  0  0  0  0  0  0  0
   26.3519  -21.5420  -14.0734 C   0  0  0  0  0  0  0  0  0  0  0  0
   26.2265  -22.7203  -14.4932 O   0  0  0  0  0  0  0  0  0  0  0  0
   24.3294  -21.0406  -16.7729 C   0  0  0  0  0  0  0  0  0  0  0  0
   25.5983  -20.3479  -17.1706 C   0  0  1  0  0  0  0  0  0  0  0  0
   25.4973  -18.9784  -16.9505 O   0  0  0  0  0  0  0  0  0  0  0  0
   26.7924  -20.9380  -16.4327 C   0  0  2  0  0  0  0  0  0  0  0  0
   26.6308  -20.5541  -15.0441 N   0  0  0  0  0  0  0  0  0  0  0  0
   28.0567  -20.3813  -16.9304 C   0  0  0  0  0  0  0  0  0  0  0  0
   28.4895  -20.6477  -18.2018 O   0  0  0  0  0  0  0  0  0  0  0  0
   28.7429  -19.6560  -16.1799 O   0  0  0  0  0  0  0  0  0  0  0  0
  2  1  1  0
  3  2  2  0
  4  3  1  0
  5  4  2  0
  5 11  1  0
  6  7  1  0
  6  5  1  0
  7  9  1  0
  7  8  1  6
  9 18  1  0
 10  9  2  0
 11 12  2  0
 12  2  1  0
 14 15  1  0
 14 13  1  0
 16 15  1  0
 17 16  1  1
 17 19  1  0
 18 17  1  0
 19 20  2  0
 22 21  1  1
 22 24  1  0
 23 22  1  0
 24 26  1  0
 25 19  1  0
 24 25  1  1
 26 28  2  0
 26 27  1  0
M  END
$$$$
