YMT.pdb
     RDKit          3D

 28 28  0  0  1  0  0  0  0  0999 V2000
   16.7768  -15.3145  -17.3171 O   0  0  0  0  0  0  0  0  0  0  0  0
   17.5850  -14.2602  -16.9137 C   0  0  0  0  0  0  0  0  0  0  0  0
   17.6705  -13.1061  -17.6823 C   0  0  0  0  0  0  0  0  0  0  0  0
   18.4659  -12.0453  -17.3027 C   0  0  0  0  0  0  0  0  0  0  0  0
   19.2157  -12.0731  -16.1454 C   0  0  0  0  0  0  0  0  0  0  0  0
   20.0624  -10.9107  -15.7665 C   0  0  0  0  0  0  0  0  0  0  0  0
   21.2592  -10.9246  -16.6974 C   0  0  2  0  0  0  0  0  0  0  0  0
   22.0700  -12.0483  -16.2863 N   0  0  0  0  0  0  0  0  0  0  0  0
   22.0598   -9.6978  -16.6135 C   0  0  0  0  0  0  0  0  0  0  0  0
   22.8959   -9.6103  -15.6851 O   0  0  0  0  0  0  0  0  0  0  0  0
   19.1267  -13.2301  -15.3800 C   0  0  0  0  0  0  0  0  0  0  0  0
   18.3317  -14.2918  -15.7581 C   0  0  0  0  0  0  0  0  0  0  0  0
   26.1022   -8.8917  -21.6205 C   0  0  0  0  0  0  0  0  0  0  0  0
   24.9608   -7.6554  -20.9737 S   0  0  0  0  0  0  0  0  0  0  0  0
   24.3423   -8.1933  -19.3179 C   0  0  0  0  0  0  0  0  0  0  0  0
   23.3490   -7.2120  -18.8510 C   0  0  0  0  0  0  0  0  0  0  0  0
   22.7284   -7.4163  -17.5064 C   0  0  2  0  0  0  0  0  0  0  0  0
   21.8982   -8.6522  -17.5412 N   0  0  0  0  0  0  0  0  0  0  0  0
   21.8575   -6.3720  -17.0029 C   0  0  0  0  0  0  0  0  0  0  0  0
   20.7118   -6.1722  -17.4801 O   0  0  0  0  0  0  0  0  0  0  0  0
   20.3355   -6.0597  -13.8425 C   0  0  0  0  0  0  0  0  0  0  0  0
   21.1016   -4.7813  -14.0070 C   0  0  1  0  0  0  0  0  0  0  0  0
   22.2923   -4.8293  -13.2902 O   0  0  0  0  0  0  0  0  0  0  0  0
   21.3561   -4.4874  -15.4792 C   0  0  2  0  0  0  0  0  0  0  0  0
   22.2541   -5.5269  -15.9424 N   0  0  0  0  0  0  0  0  0  0  0  0
   22.0112   -3.1855  -15.6589 C   0  0  0  0  0  0  0  0  0  0  0  0
   21.3588   -2.0221  -15.3501 O   0  0  0  0  0  0  0  0  0  0  0  0
   23.1791   -3.1445  -16.0999 O   0  0  0  0  0  0  0  0  0  0  0  0
  2  1  1  0
  3  2  2  0
  4  3  1  0
  5  4  2  0
  5 11  1  0
  6  7  1  0
  6  5  1  0
  7  9  1  0
  7  8  1  1
  9 18  1  0
 10  9  2  0
 11 12  2  0
 12  2  1  0
 14 15  1  0
 14 13  1  0
 16 15  1  0
 17 16  1  6
 17 19  1  0
 18 17  1  0
 19 20  2  0
 22 21  1  6
 22 24  1  0
 23 22  1  0
 24 26  1  0
 25 19  1  0
 24 25  1  1
 26 28  2  0
 26 27  1  0
M  END
$$$$
