YMT.pdb
     RDKit          3D

 28 28  0  0  1  0  0  0  0  0999 V2000
   16.9938  -11.0361    3.4085 O   0  0  0  0  0  0  0  0  0  0  0  0
   17.4391  -12.2965    3.7833 C   0  0  0  0  0  0  0  0  0  0  0  0
   18.7986  -12.5795    3.8203 C   0  0  0  0  0  0  0  0  0  0  0  0
   19.2656  -13.8235    4.1895 C   0  0  0  0  0  0  0  0  0  0  0  0
   18.4121  -14.8487    4.5400 C   0  0  0  0  0  0  0  0  0  0  0  0
   18.9506  -16.1779    4.9334 C   0  0  0  0  0  0  0  0  0  0  0  0
   18.6559  -16.3447    6.4113 C   0  0  2  0  0  0  0  0  0  0  0  0
   19.4365  -15.3346    7.0892 N   0  0  0  0  0  0  0  0  0  0  0  0
   19.0344  -17.6675    6.9214 C   0  0  0  0  0  0  0  0  0  0  0  0
   20.2559  -17.9269    7.0177 O   0  0  0  0  0  0  0  0  0  0  0  0
   17.0527  -14.5605    4.5012 C   0  0  0  0  0  0  0  0  0  0  0  0
   16.5841  -13.3169    4.1323 C   0  0  0  0  0  0  0  0  0  0  0  0
   18.3907  -22.4275   12.7607 C   0  0  0  0  0  0  0  0  0  0  0  0
   18.0739  -20.9159   11.8310 S   0  0  0  0  0  0  0  0  0  0  0  0
   18.2491  -21.2554   10.0233 C   0  0  0  0  0  0  0  0  0  0  0  0
   18.0669  -19.9903    9.2926 C   0  0  0  0  0  0  0  0  0  0  0  0
   18.4191  -19.9536    7.8402 C   0  0  2  0  0  0  0  0  0  0  0  0
   18.0629  -18.6159    7.2912 N   0  0  0  0  0  0  0  0  0  0  0  0
   17.7778  -20.9193    6.9690 C   0  0  0  0  0  0  0  0  0  0  0  0
   16.7011  -20.6660    6.3718 O   0  0  0  0  0  0  0  0  0  0  0  0
   19.9329  -24.1376    5.5426 C   0  0  0  0  0  0  0  0  0  0  0  0
   18.7482  -23.5484    4.8371 C   0  0  1  0  0  0  0  0  0  0  0  0
   18.2345  -24.4482    3.9095 O   0  0  0  0  0  0  0  0  0  0  0  0
   17.6822  -23.1170    5.8351 C   0  0  2  0  0  0  0  0  0  0  0  0
   18.3376  -22.1968    6.7436 N   0  0  0  0  0  0  0  0  0  0  0  0
   17.1781  -24.2603    6.6064 C   0  0  0  0  0  0  0  0  0  0  0  0
   16.2528  -25.1159    6.0712 O   0  0  0  0  0  0  0  0  0  0  0  0
   17.6019  -24.4501    7.7660 O   0  0  0  0  0  0  0  0  0  0  0  0
  2  1  1  0
  3  2  2  0
  4  3  1  0
  5  4  2  0
  5 11  1  0
  6  7  1  0
  6  5  1  0
  7  9  1  0
  7  8  1  1
  9 18  1  0
 10  9  2  0
 11 12  2  0
 12  2  1  0
 14 15  1  0
 14 13  1  0
 16 15  1  0
 17 16  1  1
 17 19  1  0
 18 17  1  0
 19 20  2  0
 22 21  1  1
 22 24  1  0
 23 22  1  0
 24 26  1  0
 25 19  1  0
 24 25  1  1
 26 28  2  0
 26 27  1  0
M  END
$$$$
