YMT.pdb
     RDKit          3D

 28 28  0  0  1  0  0  0  0  0999 V2000
   29.3723  -20.0330   -3.7334 O   0  0  0  0  0  0  0  0  0  0  0  0
   28.5810  -19.9712   -4.8725 C   0  0  0  0  0  0  0  0  0  0  0  0
   27.4635  -20.7870   -4.9972 C   0  0  0  0  0  0  0  0  0  0  0  0
   26.6618  -20.7439   -6.1185 C   0  0  0  0  0  0  0  0  0  0  0  0
   26.9252  -19.8929   -7.1714 C   0  0  0  0  0  0  0  0  0  0  0  0
   26.0389  -19.8726   -8.3654 C   0  0  0  0  0  0  0  0  0  0  0  0
   26.6874  -20.7696   -9.4018 C   0  0  2  0  0  0  0  0  0  0  0  0
   28.0889  -20.4164   -9.4127 N   0  0  0  0  0  0  0  0  0  0  0  0
   26.1329  -20.5785  -10.7468 C   0  0  0  0  0  0  0  0  0  0  0  0
   26.4570  -19.5406  -11.3684 O   0  0  0  0  0  0  0  0  0  0  0  0
   28.0445  -19.0788   -7.0419 C   0  0  0  0  0  0  0  0  0  0  0  0
   28.8473  -19.1206   -5.9211 C   0  0  0  0  0  0  0  0  0  0  0  0
   27.6138  -23.5117  -15.2315 C   0  0  0  0  0  0  0  0  0  0  0  0
   25.9785  -23.4395  -15.9866 S   0  0  0  0  0  0  0  0  0  0  0  0
   24.9127  -22.2650  -15.0388 C   0  0  0  0  0  0  0  0  0  0  0  0
   25.3683  -22.2494  -13.6389 C   0  0  0  0  0  0  0  0  0  0  0  0
   24.6696  -21.3441  -12.6760 C   0  0  2  0  0  0  0  0  0  0  0  0
   25.2664  -21.5253  -11.3237 N   0  0  0  0  0  0  0  0  0  0  0  0
   23.2411  -21.5224  -12.5023 C   0  0  0  0  0  0  0  0  0  0  0  0
   22.7645  -22.4838  -11.8474 O   0  0  0  0  0  0  0  0  0  0  0  0
   20.5512  -18.6596  -11.7265 C   0  0  0  0  0  0  0  0  0  0  0  0
   20.2365  -19.4693  -12.9487 C   0  0  1  0  0  0  0  0  0  0  0  0
   20.6246  -18.7899  -14.0984 O   0  0  0  0  0  0  0  0  0  0  0  0
   20.8906  -20.8422  -12.8727 C   0  0  2  0  0  0  0  0  0  0  0  0
   22.3105  -20.6168  -13.0589 N   0  0  0  0  0  0  0  0  0  0  0  0
   20.4098  -21.7234  -13.9445 C   0  0  0  0  0  0  0  0  0  0  0  0
   21.2372  -22.1008  -14.9680 O   0  0  0  0  0  0  0  0  0  0  0  0
   19.2294  -22.1309  -13.9175 O   0  0  0  0  0  0  0  0  0  0  0  0
  2  1  1  0
  3  2  2  0
  4  3  1  0
  5  4  2  0
  5 11  1  0
  6  7  1  0
  6  5  1  0
  7  9  1  0
  7  8  1  6
  9 18  1  0
 10  9  2  0
 11 12  2  0
 12  2  1  0
 14 15  1  0
 14 13  1  0
 16 15  1  0
 17 16  1  6
 17 19  1  0
 18 17  1  0
 19 20  2  0
 22 21  1  1
 22 24  1  0
 23 22  1  0
 24 26  1  0
 25 19  1  0
 24 25  1  6
 26 28  2  0
 26 27  1  0
M  END
$$$$
