YMT.pdb
     RDKit          3D

 28 28  0  0  1  0  0  0  0  0999 V2000
   26.9056  -14.9783  -22.8041 O   0  0  0  0  0  0  0  0  0  0  0  0
   26.3685  -15.7788  -21.8050 C   0  0  0  0  0  0  0  0  0  0  0  0
   25.9605  -17.0764  -22.0873 C   0  0  0  0  0  0  0  0  0  0  0  0
   25.4243  -17.8910  -21.1122 C   0  0  0  0  0  0  0  0  0  0  0  0
   25.2648  -17.4633  -19.8106 C   0  0  0  0  0  0  0  0  0  0  0  0
   24.6831  -18.3689  -18.7844 C   0  0  0  0  0  0  0  0  0  0  0  0
   25.8497  -19.0542  -18.1000 C   0  0  2  0  0  0  0  0  0  0  0  0
   26.2999  -20.0802  -19.0130 N   0  0  0  0  0  0  0  0  0  0  0  0
   25.4758  -19.6758  -16.8244 C   0  0  0  0  0  0  0  0  0  0  0  0
   24.8436  -20.7562  -16.8663 O   0  0  0  0  0  0  0  0  0  0  0  0
   25.6745  -16.1641  -19.5334 C   0  0  0  0  0  0  0  0  0  0  0  0
   26.2110  -15.3482  -20.5075 C   0  0  0  0  0  0  0  0  0  0  0  0
   25.4675  -21.7037   -9.9757 C   0  0  0  0  0  0  0  0  0  0  0  0
   25.9208  -21.2287  -11.6546 S   0  0  0  0  0  0  0  0  0  0  0  0
   25.8945  -19.3873  -11.8030 C   0  0  0  0  0  0  0  0  0  0  0  0
   26.2016  -19.0285  -13.1975 C   0  0  0  0  0  0  0  0  0  0  0  0
   25.3963  -19.6619  -14.2862 C   0  0  2  0  0  0  0  0  0  0  0  0
   25.8133  -19.0833  -15.5936 N   0  0  0  0  0  0  0  0  0  0  0  0
   23.9553  -19.5099  -14.2310 C   0  0  0  0  0  0  0  0  0  0  0  0
   23.3984  -18.3895  -14.3521 O   0  0  0  0  0  0  0  0  0  0  0  0
   21.2027  -20.6016  -16.2806 C   0  0  0  0  0  0  0  0  0  0  0  0
   20.9848  -21.2179  -14.9312 C   0  0  1  0  0  0  0  0  0  0  0  0
   21.4117  -22.5415  -14.9236 O   0  0  0  0  0  0  0  0  0  0  0  0
   21.6815  -20.4080  -13.8462 C   0  0  2  0  0  0  0  0  0  0  0  0
   23.1021  -20.6201  -14.0425 N   0  0  0  0  0  0  0  0  0  0  0  0
   21.3157  -20.8837  -12.5061 C   0  0  0  0  0  0  0  0  0  0  0  0
   20.0383  -20.7411  -12.0342 O   0  0  0  0  0  0  0  0  0  0  0  0
   22.1853  -21.4245  -11.7908 O   0  0  0  0  0  0  0  0  0  0  0  0
  2  1  1  0
  3  2  2  0
  4  3  1  0
  5  4  2  0
  5 11  1  0
  6  7  1  0
  6  5  1  0
  7  9  1  0
  7  8  1  6
  9 18  1  0
 10  9  2  0
 11 12  2  0
 12  2  1  0
 14 15  1  0
 14 13  1  0
 16 15  1  0
 17 16  1  1
 17 19  1  0
 18 17  1  0
 19 20  2  0
 22 21  1  6
 22 24  1  0
 23 22  1  0
 24 26  1  0
 25 19  1  0
 24 25  1  6
 26 28  2  0
 26 27  1  0
M  END
$$$$
