YMT.pdb
     RDKit          3D

 28 28  0  0  1  0  0  0  0  0999 V2000
   29.0273  -14.3798  -17.7619 O   0  0  0  0  0  0  0  0  0  0  0  0
   28.3150  -15.4518  -17.2413 C   0  0  0  0  0  0  0  0  0  0  0  0
   27.9015  -15.4433  -15.9151 C   0  0  0  0  0  0  0  0  0  0  0  0
   27.1927  -16.4958  -15.3750 C   0  0  0  0  0  0  0  0  0  0  0  0
   26.8579  -17.6080  -16.1187 C   0  0  0  0  0  0  0  0  0  0  0  0
   26.0922  -18.7248  -15.5037 C   0  0  0  0  0  0  0  0  0  0  0  0
   27.0734  -19.5050  -14.6509 C   0  0  2  0  0  0  0  0  0  0  0  0
   27.8898  -20.2606  -15.5738 N   0  0  0  0  0  0  0  0  0  0  0  0
   26.4116  -20.4312  -13.7249 C   0  0  0  0  0  0  0  0  0  0  0  0
   25.9833  -21.5125  -14.1897 O   0  0  0  0  0  0  0  0  0  0  0  0
   27.2740  -17.6117  -17.4451 C   0  0  0  0  0  0  0  0  0  0  0  0
   27.9830  -16.5599  -17.9868 C   0  0  0  0  0  0  0  0  0  0  0  0
   27.3468  -20.6352   -7.3926 C   0  0  0  0  0  0  0  0  0  0  0  0
   25.5449  -20.6114   -7.3449 S   0  0  0  0  0  0  0  0  0  0  0  0
   24.8773  -21.1679   -8.9753 C   0  0  0  0  0  0  0  0  0  0  0  0
   25.6945  -20.5669  -10.0423 C   0  0  0  0  0  0  0  0  0  0  0  0
   25.3520  -20.8854  -11.4622 C   0  0  2  0  0  0  0  0  0  0  0  0
   26.2606  -20.1208  -12.3608 N   0  0  0  0  0  0  0  0  0  0  0  0
   24.0074  -20.5827  -11.9129 C   0  0  0  0  0  0  0  0  0  0  0  0
   23.5988  -19.4011  -12.0438 O   0  0  0  0  0  0  0  0  0  0  0  0
   22.4235  -21.7680  -15.0536 C   0  0  0  0  0  0  0  0  0  0  0  0
   21.5105  -22.1401  -13.9239 C   0  0  1  0  0  0  0  0  0  0  0  0
   21.6504  -23.4866  -13.6056 O   0  0  0  0  0  0  0  0  0  0  0  0
   21.7634  -21.2575  -12.7091 C   0  0  2  0  0  0  0  0  0  0  0  0
   23.0878  -21.6062  -12.2335 N   0  0  0  0  0  0  0  0  0  0  0  0
   20.7935  -21.5284  -11.6404 C   0  0  0  0  0  0  0  0  0  0  0  0
   21.1859  -22.1164  -10.4679 O   0  0  0  0  0  0  0  0  0  0  0  0
   19.5957  -21.2166  -11.8085 O   0  0  0  0  0  0  0  0  0  0  0  0
  2  1  1  0
  3  2  2  0
  4  3  1  0
  5  4  2  0
  5 11  1  0
  6  7  1  0
  6  5  1  0
  7  9  1  0
  7  8  1  6
  9 18  1  0
 10  9  2  0
 11 12  2  0
 12  2  1  0
 14 15  1  0
 14 13  1  0
 16 15  1  0
 17 16  1  1
 17 19  1  0
 18 17  1  0
 19 20  2  0
 22 21  1  6
 22 24  1  0
 23 22  1  0
 24 26  1  0
 25 19  1  0
 24 25  1  1
 26 28  2  0
 26 27  1  0
M  END
$$$$
