YMT.pdb
     RDKit          3D

 28 28  0  0  1  0  0  0  0  0999 V2000
   19.8363  -20.6247  -14.4512 O   0  0  0  0  0  0  0  0  0  0  0  0
   20.2164  -19.3071  -14.6677 C   0  0  0  0  0  0  0  0  0  0  0  0
   21.5608  -18.9693  -14.7592 C   0  0  0  0  0  0  0  0  0  0  0  0
   21.9634  -17.6679  -14.9741 C   0  0  0  0  0  0  0  0  0  0  0  0
   21.0575  -16.6367  -15.1089 C   0  0  0  0  0  0  0  0  0  0  0  0
   21.5271  -15.2448  -15.3403 C   0  0  0  0  0  0  0  0  0  0  0  0
   21.2203  -14.9190  -16.7890 C   0  0  2  0  0  0  0  0  0  0  0  0
   22.1364  -15.7113  -17.5777 N   0  0  0  0  0  0  0  0  0  0  0  0
   21.4153  -13.4998  -17.1068 C   0  0  0  0  0  0  0  0  0  0  0  0
   22.5745  -13.1208  -17.3917 O   0  0  0  0  0  0  0  0  0  0  0  0
   19.7135  -16.9799  -15.0165 C   0  0  0  0  0  0  0  0  0  0  0  0
   19.3092  -18.2809  -14.8017 C   0  0  0  0  0  0  0  0  0  0  0  0
   19.8890  -13.8535  -20.9395 C   0  0  0  0  0  0  0  0  0  0  0  0
   18.7010  -12.5012  -20.8415 S   0  0  0  0  0  0  0  0  0  0  0  0
   18.5869  -11.9057  -19.0962 C   0  0  0  0  0  0  0  0  0  0  0  0
   19.7278  -11.0129  -18.8337 C   0  0  0  0  0  0  0  0  0  0  0  0
   20.4796  -11.1814  -17.5526 C   0  0  2  0  0  0  0  0  0  0  0  0
   20.3408  -12.5914  -17.0937 N   0  0  0  0  0  0  0  0  0  0  0  0
   20.0799  -10.3605  -16.4262 C   0  0  0  0  0  0  0  0  0  0  0  0
   19.0593  -10.6216  -15.7404 O   0  0  0  0  0  0  0  0  0  0  0  0
   22.0870   -9.5628  -13.4264 C   0  0  0  0  0  0  0  0  0  0  0  0
   21.6549   -8.2624  -14.0352 C   0  0  1  0  0  0  0  0  0  0  0  0
   22.6896   -7.7018  -14.7762 O   0  0  0  0  0  0  0  0  0  0  0  0
   20.4066   -8.4506  -14.8865 C   0  0  2  0  0  0  0  0  0  0  0  0
   20.8247   -9.2240  -16.0393 N   0  0  0  0  0  0  0  0  0  0  0  0
   19.8774   -7.1622  -15.3514 C   0  0  0  0  0  0  0  0  0  0  0  0
   19.3297   -6.2686  -14.4705 O   0  0  0  0  0  0  0  0  0  0  0  0
   19.9297   -6.8828  -16.5677 O   0  0  0  0  0  0  0  0  0  0  0  0
  2  1  1  0
  3  2  2  0
  4  3  1  0
  5  4  2  0
  5 11  1  0
  6  7  1  0
  6  5  1  0
  7  9  1  0
  7  8  1  6
  9 18  1  0
 10  9  2  0
 11 12  2  0
 12  2  1  0
 14 15  1  0
 14 13  1  0
 16 15  1  0
 17 16  1  6
 17 19  1  0
 18 17  1  0
 19 20  2  0
 22 21  1  6
 22 24  1  0
 23 22  1  0
 24 26  1  0
 25 19  1  0
 24 25  1  6
 26 28  2  0
 26 27  1  0
M  END
$$$$
