YMT.pdb
     RDKit          3D

 28 28  0  0  1  0  0  0  0  0999 V2000
   22.0598  -15.2093  -19.7605 O   0  0  0  0  0  0  0  0  0  0  0  0
   22.5251  -16.2342  -18.9478 C   0  0  0  0  0  0  0  0  0  0  0  0
   22.2873  -16.2091  -17.5794 C   0  0  0  0  0  0  0  0  0  0  0  0
   22.7389  -17.2153  -16.7513 C   0  0  0  0  0  0  0  0  0  0  0  0
   23.4476  -18.2952  -17.2349 C   0  0  0  0  0  0  0  0  0  0  0  0
   23.9191  -19.3626  -16.3130 C   0  0  0  0  0  0  0  0  0  0  0  0
   25.2781  -18.9249  -15.8023 C   0  0  2  0  0  0  0  0  0  0  0  0
   26.1866  -19.0658  -16.9175 N   0  0  0  0  0  0  0  0  0  0  0  0
   25.7576  -19.7461  -14.6847 C   0  0  0  0  0  0  0  0  0  0  0  0
   26.0106  -20.9511  -14.9141 O   0  0  0  0  0  0  0  0  0  0  0  0
   23.6831  -18.3155  -18.6048 C   0  0  0  0  0  0  0  0  0  0  0  0
   23.2321  -17.3100  -19.4343 C   0  0  0  0  0  0  0  0  0  0  0  0
   29.8193  -19.8408   -9.6831 C   0  0  0  0  0  0  0  0  0  0  0  0
   28.3655  -20.8931   -9.8521 S   0  0  0  0  0  0  0  0  0  0  0  0
   26.8392  -19.8559   -9.7614 C   0  0  0  0  0  0  0  0  0  0  0  0
   26.6297  -19.2208  -11.0730 C   0  0  0  0  0  0  0  0  0  0  0  0
   26.0788  -20.0548  -12.1846 C   0  0  2  0  0  0  0  0  0  0  0  0
   25.9293  -19.2040  -13.3976 N   0  0  0  0  0  0  0  0  0  0  0  0
   24.7854  -20.6776  -11.9796 C   0  0  0  0  0  0  0  0  0  0  0  0
   23.7101  -20.0420  -12.1208 O   0  0  0  0  0  0  0  0  0  0  0  0
   23.4013  -23.5152  -13.7251 C   0  0  0  0  0  0  0  0  0  0  0  0
   23.3094  -23.8673  -12.2705 C   0  0  1  0  0  0  0  0  0  0  0  0
   24.3161  -24.7601  -11.9191 O   0  0  0  0  0  0  0  0  0  0  0  0
   23.3567  -22.6151  -11.4055 C   0  0  2  0  0  0  0  0  0  0  0  0
   24.6699  -22.0374  -11.6142 N   0  0  0  0  0  0  0  0  0  0  0  0
   23.2081  -22.9430   -9.9819 C   0  0  0  0  0  0  0  0  0  0  0  0
   22.0294  -23.4414   -9.4950 O   0  0  0  0  0  0  0  0  0  0  0  0
   24.1725  -22.7625   -9.2090 O   0  0  0  0  0  0  0  0  0  0  0  0
  2  1  1  0
  3  2  2  0
  4  3  1  0
  5  4  2  0
  5 11  1  0
  6  7  1  0
  6  5  1  0
  7  9  1  0
  7  8  1  6
  9 18  1  0
 10  9  2  0
 11 12  2  0
 12  2  1  0
 14 15  1  0
 14 13  1  0
 16 15  1  0
 17 16  1  1
 17 19  1  0
 18 17  1  0
 19 20  2  0
 22 21  1  6
 22 24  1  0
 23 22  1  0
 24 26  1  0
 25 19  1  0
 24 25  1  1
 26 28  2  0
 26 27  1  0
M  END
$$$$
