YMT.pdb
     RDKit          3D

 28 28  0  0  1  0  0  0  0  0999 V2000
   14.4304  -10.8249  -22.2423 O   0  0  0  0  0  0  0  0  0  0  0  0
   15.0792  -10.2970  -21.1342 C   0  0  0  0  0  0  0  0  0  0  0  0
   16.4653  -10.2079  -21.1076 C   0  0  0  0  0  0  0  0  0  0  0  0
   17.1328   -9.6873  -20.0188 C   0  0  0  0  0  0  0  0  0  0  0  0
   16.4634   -9.2294  -18.9032 C   0  0  0  0  0  0  0  0  0  0  0  0
   17.2154   -8.6737  -17.7469 C   0  0  0  0  0  0  0  0  0  0  0  0
   17.9506   -9.8363  -17.1090 C   0  0  2  0  0  0  0  0  0  0  0  0
   16.9299  -10.6963  -16.5541 N   0  0  0  0  0  0  0  0  0  0  0  0
   18.8597   -9.4154  -16.0368 C   0  0  0  0  0  0  0  0  0  0  0  0
   18.3567   -9.1255  -14.9270 O   0  0  0  0  0  0  0  0  0  0  0  0
   15.0766   -9.3209  -18.9348 C   0  0  0  0  0  0  0  0  0  0  0  0
   14.4076   -9.8412  -20.0229 C   0  0  0  0  0  0  0  0  0  0  0  0
   24.7581  -11.6667  -13.6448 C   0  0  0  0  0  0  0  0  0  0  0  0
   23.7383  -12.1534  -15.0493 S   0  0  0  0  0  0  0  0  0  0  0  0
   22.1191  -11.2670  -14.9725 C   0  0  0  0  0  0  0  0  0  0  0  0
   22.3671   -9.8280  -15.1603 C   0  0  0  0  0  0  0  0  0  0  0  0
   21.1932   -8.9025  -15.1760 C   0  0  2  0  0  0  0  0  0  0  0  0
   20.2496   -9.3383  -16.2425 N   0  0  0  0  0  0  0  0  0  0  0  0
   21.4489   -7.4975  -15.4277 C   0  0  0  0  0  0  0  0  0  0  0  0
   21.9079   -7.0900  -16.5247 O   0  0  0  0  0  0  0  0  0  0  0  0
   19.2681   -4.8936  -15.9495 C   0  0  0  0  0  0  0  0  0  0  0  0
   20.0729   -4.4425  -14.7675 C   0  0  1  0  0  0  0  0  0  0  0  0
   19.3804   -4.6805  -13.5852 O   0  0  0  0  0  0  0  0  0  0  0  0
   21.4380   -5.1168  -14.7519 C   0  0  2  0  0  0  0  0  0  0  0  0
   21.1884   -6.5124  -14.4491 N   0  0  0  0  0  0  0  0  0  0  0  0
   22.2997   -4.5550  -13.7039 C   0  0  0  0  0  0  0  0  0  0  0  0
   22.7713   -3.2729  -13.7945 O   0  0  0  0  0  0  0  0  0  0  0  0
   22.6037   -5.2606  -12.7191 O   0  0  0  0  0  0  0  0  0  0  0  0
  2  1  1  0
  3  2  2  0
  4  3  1  0
  5  4  2  0
  5 11  1  0
  6  7  1  0
  6  5  1  0
  7  9  1  0
  7  8  1  1
  9 18  1  0
 10  9  2  0
 11 12  2  0
 12  2  1  0
 14 15  1  0
 14 13  1  0
 16 15  1  0
 17 16  1  6
 17 19  1  0
 18 17  1  0
 19 20  2  0
 22 21  1  6
 22 24  1  0
 23 22  1  0
 24 26  1  0
 25 19  1  0
 24 25  1  1
 26 28  2  0
 26 27  1  0
M  END
$$$$
