YMT.pdb
     RDKit          3D

 28 28  0  0  1  0  0  0  0  0999 V2000
   18.3258  -23.4026  -10.5990 O   0  0  0  0  0  0  0  0  0  0  0  0
   19.4815  -22.7143  -10.9425 C   0  0  0  0  0  0  0  0  0  0  0  0
   19.6563  -21.3936  -10.5487 C   0  0  0  0  0  0  0  0  0  0  0  0
   20.7952  -20.6888  -10.8773 C   0  0  0  0  0  0  0  0  0  0  0  0
   21.8171  -21.2543  -11.6110 C   0  0  0  0  0  0  0  0  0  0  0  0
   23.0316  -20.4648  -11.9470 C   0  0  0  0  0  0  0  0  0  0  0  0
   24.1849  -21.1041  -11.1986 C   0  0  2  0  0  0  0  0  0  0  0  0
   24.0078  -20.7425   -9.8104 N   0  0  0  0  0  0  0  0  0  0  0  0
   25.4948  -20.6270  -11.6564 C   0  0  0  0  0  0  0  0  0  0  0  0
   25.9799  -19.6220  -11.0876 O   0  0  0  0  0  0  0  0  0  0  0  0
   21.6372  -22.5760  -12.0026 C   0  0  0  0  0  0  0  0  0  0  0  0
   20.4988  -23.2823  -11.6749 C   0  0  0  0  0  0  0  0  0  0  0  0
   30.8876  -21.5184   -9.6094 C   0  0  0  0  0  0  0  0  0  0  0  0
   30.9535  -22.2944  -11.2351 S   0  0  0  0  0  0  0  0  0  0  0  0
   29.9821  -21.2855  -12.4401 C   0  0  0  0  0  0  0  0  0  0  0  0
   28.5528  -21.5840  -12.2511 C   0  0  0  0  0  0  0  0  0  0  0  0
   27.5601  -20.8729  -13.1135 C   0  0  2  0  0  0  0  0  0  0  0  0
   26.1868  -21.2721  -12.6980 N   0  0  0  0  0  0  0  0  0  0  0  0
   27.6220  -21.1082  -14.5430 C   0  0  0  0  0  0  0  0  0  0  0  0
   27.5681  -22.2655  -15.0307 O   0  0  0  0  0  0  0  0  0  0  0  0
   25.4751  -19.2910  -17.2134 C   0  0  0  0  0  0  0  0  0  0  0  0
   26.9383  -19.1728  -17.5191 C   0  0  1  0  0  0  0  0  0  0  0  0
   27.4267  -17.9392  -17.1024 O   0  0  0  0  0  0  0  0  0  0  0  0
   27.7186  -20.3168  -16.8859 C   0  0  2  0  0  0  0  0  0  0  0  0
   27.7414  -20.0423  -15.4626 N   0  0  0  0  0  0  0  0  0  0  0  0
   29.1011  -20.3582  -17.3790 C   0  0  0  0  0  0  0  0  0  0  0  0
   29.3731  -20.6793  -18.6819 O   0  0  0  0  0  0  0  0  0  0  0  0
   30.0378  -20.0965  -16.5953 O   0  0  0  0  0  0  0  0  0  0  0  0
  2  1  1  0
  3  2  2  0
  4  3  1  0
  5  4  2  0
  5 11  1  0
  6  7  1  0
  6  5  1  0
  7  9  1  0
  7  8  1  1
  9 18  1  0
 10  9  2  0
 11 12  2  0
 12  2  1  0
 14 15  1  0
 14 13  1  0
 16 15  1  0
 17 16  1  1
 17 19  1  0
 18 17  1  0
 19 20  2  0
 22 21  1  1
 22 24  1  0
 23 22  1  0
 24 26  1  0
 25 19  1  0
 24 25  1  1
 26 28  2  0
 26 27  1  0
M  END
$$$$
