YMT.pdb
     RDKit          3D

 28 28  0  0  1  0  0  0  0  0999 V2000
   15.9771  -24.2027  -14.3195 O   0  0  0  0  0  0  0  0  0  0  0  0
   17.2449  -23.6501  -14.4409 C   0  0  0  0  0  0  0  0  0  0  0  0
   17.4726  -22.6001  -15.3216 C   0  0  0  0  0  0  0  0  0  0  0  0
   18.7227  -22.0343  -15.4599 C   0  0  0  0  0  0  0  0  0  0  0  0
   19.8088  -22.4783  -14.7349 C   0  0  0  0  0  0  0  0  0  0  0  0
   21.1428  -21.8445  -14.9091 C   0  0  0  0  0  0  0  0  0  0  0  0
   21.4697  -21.1555  -13.5986 C   0  0  2  0  0  0  0  0  0  0  0  0
   20.5213  -20.0723  -13.4710 N   0  0  0  0  0  0  0  0  0  0  0  0
   22.8310  -20.6089  -13.5671 C   0  0  0  0  0  0  0  0  0  0  0  0
   23.0074  -19.4581  -14.0288 O   0  0  0  0  0  0  0  0  0  0  0  0
   19.5757  -23.5292  -13.8552 C   0  0  0  0  0  0  0  0  0  0  0  0
   18.3261  -24.0961  -13.7157 C   0  0  0  0  0  0  0  0  0  0  0  0
   27.4593  -21.7132   -9.2688 C   0  0  0  0  0  0  0  0  0  0  0  0
   26.0965  -20.5833   -8.9285 S   0  0  0  0  0  0  0  0  0  0  0  0
   25.1871  -20.2238  -10.4961 C   0  0  0  0  0  0  0  0  0  0  0  0
   25.8176  -20.9878  -11.5854 C   0  0  0  0  0  0  0  0  0  0  0  0
   25.2921  -20.8085  -12.9734 C   0  0  2  0  0  0  0  0  0  0  0  0
   23.9053  -21.3475  -13.0375 N   0  0  0  0  0  0  0  0  0  0  0  0
   26.0143  -21.4525  -14.0533 C   0  0  0  0  0  0  0  0  0  0  0  0
   26.2799  -22.6811  -14.0376 O   0  0  0  0  0  0  0  0  0  0  0  0
   25.2573  -21.1528  -17.8640 C   0  0  0  0  0  0  0  0  0  0  0  0
   26.6692  -20.7599  -17.5470 C   0  0  1  0  0  0  0  0  0  0  0  0
   26.7874  -19.3760  -17.4764 O   0  0  0  0  0  0  0  0  0  0  0  0
   27.1391  -21.4195  -16.2575 C   0  0  2  0  0  0  0  0  0  0  0  0
   26.4524  -20.7280  -15.1843 N   0  0  0  0  0  0  0  0  0  0  0  0
   28.5865  -21.2576  -16.0710 C   0  0  0  0  0  0  0  0  0  0  0  0
   29.0815  -20.4030  -15.1227 O   0  0  0  0  0  0  0  0  0  0  0  0
   29.3724  -21.9103  -16.7897 O   0  0  0  0  0  0  0  0  0  0  0  0
  2  1  1  0
  3  2  2  0
  4  3  1  0
  5  4  2  0
  5 11  1  0
  6  7  1  0
  6  5  1  0
  7  9  1  0
  7  8  1  6
  9 18  1  0
 10  9  2  0
 11 12  2  0
 12  2  1  0
 14 15  1  0
 14 13  1  0
 16 15  1  0
 17 16  1  1
 17 19  1  0
 18 17  1  0
 19 20  2  0
 22 21  1  1
 22 24  1  0
 23 22  1  0
 24 26  1  0
 25 19  1  0
 24 25  1  1
 26 28  2  0
 26 27  1  0
M  END
$$$$
