YMT.pdb
     RDKit          3D

 28 28  0  0  1  0  0  0  0  0999 V2000
   16.1637  -23.8627  -11.6122 O   0  0  0  0  0  0  0  0  0  0  0  0
   17.4250  -23.4777  -12.0462 C   0  0  0  0  0  0  0  0  0  0  0  0
   18.3835  -23.0550  -11.1339 C   0  0  0  0  0  0  0  0  0  0  0  0
   19.6433  -22.6679  -11.5402 C   0  0  0  0  0  0  0  0  0  0  0  0
   20.0175  -22.6795  -12.8677 C   0  0  0  0  0  0  0  0  0  0  0  0
   21.3849  -22.2557  -13.2702 C   0  0  0  0  0  0  0  0  0  0  0  0
   21.6562  -20.9409  -12.5654 C   0  0  2  0  0  0  0  0  0  0  0  0
   20.9772  -19.9268  -13.3397 N   0  0  0  0  0  0  0  0  0  0  0  0
   23.0856  -20.6165  -12.4963 C   0  0  0  0  0  0  0  0  0  0  0  0
   23.5412  -19.8101  -13.3394 O   0  0  0  0  0  0  0  0  0  0  0  0
   19.0546  -23.1032  -13.7765 C   0  0  0  0  0  0  0  0  0  0  0  0
   17.7943  -23.4906  -13.3718 C   0  0  0  0  0  0  0  0  0  0  0  0
   26.7838  -20.0051   -7.0749 C   0  0  0  0  0  0  0  0  0  0  0  0
   27.4920  -19.6917   -8.7027 S   0  0  0  0  0  0  0  0  0  0  0  0
   27.2930  -21.1927   -9.7614 C   0  0  0  0  0  0  0  0  0  0  0  0
   25.8633  -21.3566  -10.0723 C   0  0  0  0  0  0  0  0  0  0  0  0
   25.3502  -20.8021  -11.3623 C   0  0  2  0  0  0  0  0  0  0  0  0
   23.9206  -21.1885  -11.5188 N   0  0  0  0  0  0  0  0  0  0  0  0
   26.0075  -21.2248  -12.5837 C   0  0  0  0  0  0  0  0  0  0  0  0
   25.9409  -22.4087  -13.0008 O   0  0  0  0  0  0  0  0  0  0  0  0
   25.9679  -19.0073  -15.9449 C   0  0  0  0  0  0  0  0  0  0  0  0
   27.3285  -19.4606  -15.5072 C   0  0  1  0  0  0  0  0  0  0  0  0
   27.9792  -18.4496  -14.8083 O   0  0  0  0  0  0  0  0  0  0  0  0
   27.2346  -20.7329  -14.6758 C   0  0  2  0  0  0  0  0  0  0  0  0
   26.7545  -20.3207  -13.3715 N   0  0  0  0  0  0  0  0  0  0  0  0
   28.5505  -21.3643  -14.5147 C   0  0  0  0  0  0  0  0  0  0  0  0
   29.1730  -21.9711  -15.5725 O   0  0  0  0  0  0  0  0  0  0  0  0
   29.1048  -21.3453  -13.3955 O   0  0  0  0  0  0  0  0  0  0  0  0
  2  1  1  0
  3  2  2  0
  4  3  1  0
  5  4  2  0
  5 11  1  0
  6  7  1  0
  6  5  1  0
  7  9  1  0
  7  8  1  6
  9 18  1  0
 10  9  2  0
 11 12  2  0
 12  2  1  0
 14 15  1  0
 14 13  1  0
 16 15  1  0
 17 16  1  1
 17 19  1  0
 18 17  1  0
 19 20  2  0
 22 21  1  1
 22 24  1  0
 23 22  1  0
 24 26  1  0
 25 19  1  0
 24 25  1  1
 26 28  2  0
 26 27  1  0
M  END
$$$$
