YMT.pdb
     RDKit          3D

 28 28  0  0  1  0  0  0  0  0999 V2000
   29.8808  -15.2679  -18.1927 O   0  0  0  0  0  0  0  0  0  0  0  0
   29.0980  -16.2207  -17.5548 C   0  0  0  0  0  0  0  0  0  0  0  0
   28.9279  -17.4804  -18.1153 C   0  0  0  0  0  0  0  0  0  0  0  0
   28.1556  -18.4437  -17.5009 C   0  0  0  0  0  0  0  0  0  0  0  0
   27.5134  -18.2094  -16.3030 C   0  0  0  0  0  0  0  0  0  0  0  0
   26.6885  -19.2717  -15.6684 C   0  0  0  0  0  0  0  0  0  0  0  0
   27.6061  -20.0298  -14.7292 C   0  0  2  0  0  0  0  0  0  0  0  0
   28.4051  -20.8958  -15.5663 N   0  0  0  0  0  0  0  0  0  0  0  0
   26.8740  -20.8456  -13.7537 C   0  0  0  0  0  0  0  0  0  0  0  0
   26.4126  -21.9433  -14.1420 O   0  0  0  0  0  0  0  0  0  0  0  0
   27.6866  -16.9473  -15.7465 C   0  0  0  0  0  0  0  0  0  0  0  0
   28.4587  -15.9829  -16.3595 C   0  0  0  0  0  0  0  0  0  0  0  0
   27.2382  -19.4892   -7.7067 C   0  0  0  0  0  0  0  0  0  0  0  0
   25.8038  -20.5416   -7.4157 S   0  0  0  0  0  0  0  0  0  0  0  0
   25.1202  -21.1140   -9.0339 C   0  0  0  0  0  0  0  0  0  0  0  0
   26.0206  -20.6592  -10.1063 C   0  0  0  0  0  0  0  0  0  0  0  0
   25.6869  -21.0281  -11.5161 C   0  0  2  0  0  0  0  0  0  0  0  0
   26.6935  -20.4149  -12.4263 N   0  0  0  0  0  0  0  0  0  0  0  0
   24.3934  -20.6202  -12.0289 C   0  0  0  0  0  0  0  0  0  0  0  0
   24.1292  -19.4195  -12.2913 O   0  0  0  0  0  0  0  0  0  0  0  0
   22.7410  -21.7956  -15.0942 C   0  0  0  0  0  0  0  0  0  0  0  0
   21.7781  -22.0243  -13.9678 C   0  0  1  0  0  0  0  0  0  0  0  0
   21.7875  -23.3598  -13.5802 O   0  0  0  0  0  0  0  0  0  0  0  0
   22.0904  -21.1073  -12.7930 C   0  0  2  0  0  0  0  0  0  0  0  0
   23.3632  -21.5577  -12.2648 N   0  0  0  0  0  0  0  0  0  0  0  0
   21.0755  -21.2251  -11.7384 C   0  0  0  0  0  0  0  0  0  0  0  0
   19.7800  -20.8439  -11.9643 O   0  0  0  0  0  0  0  0  0  0  0  0
   21.4035  -21.6795  -10.6221 O   0  0  0  0  0  0  0  0  0  0  0  0
  2  1  1  0
  3  2  2  0
  4  3  1  0
  5  4  2  0
  5 11  1  0
  6  7  1  0
  6  5  1  0
  7  9  1  0
  7  8  1  6
  9 18  1  0
 10  9  2  0
 11 12  2  0
 12  2  1  0
 14 15  1  0
 14 13  1  0
 16 15  1  0
 17 16  1  1
 17 19  1  0
 18 17  1  0
 19 20  2  0
 22 21  1  6
 22 24  1  0
 23 22  1  0
 24 26  1  0
 25 19  1  0
 24 25  1  1
 26 28  2  0
 26 27  1  0
M  END
$$$$
