CTN.pdb
     RDKit          3D

 22 21  0  0  1  0  0  0  0  0999 V2000
   18.2075  -13.9343  -16.9663 N   0  0  0  0  0  0  0  0  0  0  0  0
   19.1523  -13.0456  -17.5761 C   0  0  1  0  0  0  0  0  0  0  0  0
   18.4148  -12.1769  -18.5786 C   0  0  0  0  0  0  0  0  0  0  0  0
   17.6455  -13.1796  -19.8768 S   0  0  0  0  0  0  0  0  0  0  0  0
   19.8268  -12.1570  -16.6054 C   0  0  0  0  0  0  0  0  0  0  0  0
   19.1422  -11.7984  -15.6005 O   0  0  0  0  0  0  0  0  0  0  0  0
   23.8894  -10.1440  -14.5959 C   0  0  0  0  0  0  0  0  0  0  0  0
   23.2091  -11.0956  -15.5513 C   0  0  1  0  0  0  0  0  0  0  0  0
   23.3471  -12.4249  -15.1275 O   0  0  0  0  0  0  0  0  0  0  0  0
   21.7639  -10.7887  -15.7548 C   0  0  2  0  0  0  0  0  0  0  0  0
   21.1411  -11.6827  -16.6991 N   0  0  0  0  0  0  0  0  0  0  0  0
   21.5034   -9.3653  -16.0797 C   0  0  0  0  0  0  0  0  0  0  0  0
   21.6933   -8.9346  -17.2448 O   0  0  0  0  0  0  0  0  0  0  0  0
   18.6585   -4.8339  -16.6957 N   0  0  0  0  0  0  0  0  0  0  0  0
   19.0024   -5.4003  -15.4185 C   0  0  0  0  0  0  0  0  0  0  0  0
   19.0152   -4.6048  -14.4673 O   0  0  0  0  0  0  0  0  0  0  0  0
   19.3161   -6.8232  -15.2551 C   0  0  0  0  0  0  0  0  0  0  0  0
   20.7704   -7.1111  -15.3909 C   0  0  2  0  0  0  0  0  0  0  0  0
   21.0405   -8.5239  -15.0441 N   0  0  0  0  0  0  0  0  0  0  0  0
   21.5243   -6.2925  -14.3755 C   0  0  0  0  0  0  0  0  0  0  0  0
   21.7770   -6.7887  -13.2180 O   0  0  0  0  0  0  0  0  0  0  0  0
   21.9324   -5.0270  -14.7012 O   0  0  0  0  0  0  0  0  0  0  0  0
  2  1  1  1
  2  5  1  0
  3  2  1  0
  4  3  1  0
  5  6  2  0
  8  7  1  1
  8  9  1  0
  8 10  1  0
 10 12  1  0
 11  5  1  0
 10 11  1  6
 12 19  1  0
 13 12  2  0
 15 14  1  0
 16 15  2  0
 17 15  1  0
 18 17  1  1
 19 18  1  0
 20 18  1  0
 20 22  1  0
 21 20  2  0
M  END
$$$$
