CTN.pdb
     RDKit          3D

 22 21  0  0  1  0  0  0  0  0999 V2000
   15.6690  -14.4661  -15.1906 N   0  0  0  0  0  0  0  0  0  0  0  0
   15.4001  -13.0732  -15.3953 C   0  0  1  0  0  0  0  0  0  0  0  0
   13.9137  -12.8383  -15.1979 C   0  0  0  0  0  0  0  0  0  0  0  0
   12.9339  -13.7890  -16.3891 S   0  0  0  0  0  0  0  0  0  0  0  0
   16.1334  -12.1945  -14.4588 C   0  0  0  0  0  0  0  0  0  0  0  0
   16.3317  -12.6541  -13.2941 O   0  0  0  0  0  0  0  0  0  0  0  0
   19.5785  -10.5789  -15.0302 C   0  0  0  0  0  0  0  0  0  0  0  0
   18.6175   -9.5334  -14.5158 C   0  0  1  0  0  0  0  0  0  0  0  0
   18.2025   -8.6759  -15.5446 O   0  0  0  0  0  0  0  0  0  0  0  0
   17.4201  -10.1171  -13.8451 C   0  0  2  0  0  0  0  0  0  0  0  0
   16.6219  -10.9135  -14.7439 N   0  0  0  0  0  0  0  0  0  0  0  0
   16.6057   -9.1150  -13.1158 C   0  0  0  0  0  0  0  0  0  0  0  0
   15.6704   -8.5109  -13.6984 O   0  0  0  0  0  0  0  0  0  0  0  0
   16.2858   -6.3172   -7.8003 N   0  0  0  0  0  0  0  0  0  0  0  0
   15.5379   -6.9987   -8.8233 C   0  0  0  0  0  0  0  0  0  0  0  0
   14.3820   -6.5873   -9.0038 O   0  0  0  0  0  0  0  0  0  0  0  0
   16.1065   -8.1051   -9.5993 C   0  0  0  0  0  0  0  0  0  0  0  0
   16.1250   -7.8318  -11.0626 C   0  0  2  0  0  0  0  0  0  0  0  0
   16.9170   -8.8686  -11.7605 N   0  0  0  0  0  0  0  0  0  0  0  0
   16.8513   -6.5344  -11.3051 C   0  0  0  0  0  0  0  0  0  0  0  0
   18.1245   -6.5391  -11.4746 O   0  0  0  0  0  0  0  0  0  0  0  0
   16.1424   -5.3639  -11.3428 O   0  0  0  0  0  0  0  0  0  0  0  0
  2  1  1  1
  2  5  1  0
  3  2  1  0
  4  3  1  0
  5  6  2  0
  8  7  1  6
  8  9  1  0
  8 10  1  0
 10 12  1  0
 11  5  1  0
 10 11  1  6
 12 19  1  0
 13 12  2  0
 15 14  1  0
 16 15  2  0
 17 15  1  0
 18 17  1  1
 19 18  1  0
 20 18  1  0
 20 22  1  0
 21 20  2  0
M  END
$$$$
