CTN.pdb
     RDKit          3D

 22 21  0  0  1  0  0  0  0  0999 V2000
   27.0572  -21.0391  -10.9934 N   0  0  0  0  0  0  0  0  0  0  0  0
   25.9766  -20.6331  -11.8429 C   0  0  1  0  0  0  0  0  0  0  0  0
   24.8124  -20.2080  -10.9669 C   0  0  0  0  0  0  0  0  0  0  0  0
   24.1122  -21.6200  -10.0731 S   0  0  0  0  0  0  0  0  0  0  0  0
   26.3249  -19.5003  -12.7274 C   0  0  0  0  0  0  0  0  0  0  0  0
   26.9704  -18.5481  -12.1947 O   0  0  0  0  0  0  0  0  0  0  0  0
   27.7073  -17.5404  -16.9190 C   0  0  0  0  0  0  0  0  0  0  0  0
   27.2174  -18.7016  -16.0867 C   0  0  1  0  0  0  0  0  0  0  0  0
   28.2872  -19.4797  -15.6222 O   0  0  0  0  0  0  0  0  0  0  0  0
   26.3739  -18.2801  -14.9311 C   0  0  2  0  0  0  0  0  0  0  0  0
   26.0069  -19.3896  -14.0867 N   0  0  0  0  0  0  0  0  0  0  0  0
   25.1981  -17.4667  -15.3251 C   0  0  0  0  0  0  0  0  0  0  0  0
   24.1860  -18.0154  -15.8287 O   0  0  0  0  0  0  0  0  0  0  0  0
   21.6861  -13.8189  -15.0796 N   0  0  0  0  0  0  0  0  0  0  0  0
   22.9511  -13.1683  -14.8629 C   0  0  0  0  0  0  0  0  0  0  0  0
   22.8883  -11.9750  -14.5314 O   0  0  0  0  0  0  0  0  0  0  0  0
   24.2276  -13.8713  -15.0238 C   0  0  0  0  0  0  0  0  0  0  0  0
   24.0555  -15.2830  -15.4640 C   0  0  2  0  0  0  0  0  0  0  0  0
   25.2583  -16.0713  -15.1159 N   0  0  0  0  0  0  0  0  0  0  0  0
   23.9700  -15.3157  -16.9678 C   0  0  0  0  0  0  0  0  0  0  0  0
   25.0214  -15.0913  -17.6707 O   0  0  0  0  0  0  0  0  0  0  0  0
   22.7693  -15.5860  -17.5673 O   0  0  0  0  0  0  0  0  0  0  0  0
  2  1  1  1
  2  5  1  0
  3  2  1  0
  4  3  1  0
  5  6  2  0
  8  7  1  1
  8  9  1  0
  8 10  1  0
 10 12  1  0
 11  5  1  0
 10 11  1  6
 12 19  1  0
 13 12  2  0
 15 14  1  0
 16 15  2  0
 17 15  1  0
 18 17  1  6
 19 18  1  0
 20 18  1  0
 20 22  1  0
 21 20  2  0
M  END
$$$$
