CTN.pdb
     RDKit          3D

 22 21  0  0  1  0  0  0  0  0999 V2000
   16.8821  -10.0455  -12.3124 N   0  0  0  0  0  0  0  0  0  0  0  0
   17.6012   -9.0608  -11.5591 C   0  0  1  0  0  0  0  0  0  0  0  0
   18.6972   -8.4900  -12.4401 C   0  0  0  0  0  0  0  0  0  0  0  0
   20.0002   -9.7119  -12.7434 S   0  0  0  0  0  0  0  0  0  0  0  0
   16.7498   -7.9421  -11.1003 C   0  0  0  0  0  0  0  0  0  0  0  0
   16.0964   -7.3280  -11.9963 O   0  0  0  0  0  0  0  0  0  0  0  0
   13.6628   -8.0278   -9.2716 C   0  0  0  0  0  0  0  0  0  0  0  0
   14.5700   -7.0993   -8.4996 C   0  0  1  0  0  0  0  0  0  0  0  0
   15.1326   -7.7462   -7.3903 O   0  0  0  0  0  0  0  0  0  0  0  0
   15.6579   -6.5138   -9.3352 C   0  0  2  0  0  0  0  0  0  0  0  0
   16.6048   -7.5073   -9.7771 N   0  0  0  0  0  0  0  0  0  0  0  0
   16.3252   -5.3500   -8.7033 C   0  0  0  0  0  0  0  0  0  0  0  0
   17.3307   -5.5162   -7.9681 O   0  0  0  0  0  0  0  0  0  0  0  0
   17.7414   -0.5868   -7.3862 N   0  0  0  0  0  0  0  0  0  0  0  0
   17.9804   -1.0248   -8.7358 C   0  0  0  0  0  0  0  0  0  0  0  0
   18.7440   -0.3102   -9.4022 O   0  0  0  0  0  0  0  0  0  0  0  0
   17.3616   -2.2356   -9.2841 C   0  0  0  0  0  0  0  0  0  0  0  0
   16.4678   -2.9175   -8.3082 C   0  0  2  0  0  0  0  0  0  0  0  0
   15.7950   -4.0654   -8.9554 N   0  0  0  0  0  0  0  0  0  0  0  0
   15.3649   -1.9694   -7.9153 C   0  0  0  0  0  0  0  0  0  0  0  0
   14.2356   -2.0179   -8.5256 O   0  0  0  0  0  0  0  0  0  0  0  0
   15.5809   -1.0666   -6.9091 O   0  0  0  0  0  0  0  0  0  0  0  0
  2  1  1  6
  2  5  1  0
  3  2  1  0
  4  3  1  0
  5  6  2  0
  8  7  1  6
  8  9  1  0
  8 10  1  0
 10 12  1  0
 11  5  1  0
 10 11  1  1
 12 19  1  0
 13 12  2  0
 15 14  1  0
 16 15  2  0
 17 15  1  0
 18 17  1  6
 19 18  1  0
 20 18  1  0
 20 22  1  0
 21 20  2  0
M  END
$$$$
