CTN.pdb
     RDKit          3D

 22 21  0  0  1  0  0  0  0  0999 V2000
   16.8842  -12.7058  -14.0080 N   0  0  0  0  0  0  0  0  0  0  0  0
   17.1497  -12.6176  -15.4137 C   0  0  1  0  0  0  0  0  0  0  0  0
   16.0057  -13.2798  -16.1596 C   0  0  0  0  0  0  0  0  0  0  0  0
   15.5767  -14.8776  -15.4209 S   0  0  0  0  0  0  0  0  0  0  0  0
   17.2702  -11.2255  -15.8976 C   0  0  0  0  0  0  0  0  0  0  0  0
   17.5857  -11.0786  -17.1165 O   0  0  0  0  0  0  0  0  0  0  0  0
   14.9733   -8.7262  -16.7986 C   0  0  0  0  0  0  0  0  0  0  0  0
   15.8673   -8.0508  -15.7857 C   0  0  1  0  0  0  0  0  0  0  0  0
   15.2417   -7.9655  -14.5339 O   0  0  0  0  0  0  0  0  0  0  0  0
   17.1908   -8.7212  -15.6327 C   0  0  2  0  0  0  0  0  0  0  0  0
   17.0685  -10.0687  -15.1345 N   0  0  0  0  0  0  0  0  0  0  0  0
   18.1683   -7.9249  -14.8518 C   0  0  0  0  0  0  0  0  0  0  0  0
   18.5402   -8.3124  -13.7158 O   0  0  0  0  0  0  0  0  0  0  0  0
   22.3293   -5.6103  -12.9234 N   0  0  0  0  0  0  0  0  0  0  0  0
   22.0655   -5.6122  -14.3379 C   0  0  0  0  0  0  0  0  0  0  0  0
   22.7784   -4.8567  -15.0153 O   0  0  0  0  0  0  0  0  0  0  0  0
   21.0232   -6.4521  -14.9360 C   0  0  0  0  0  0  0  0  0  0  0  0
   19.6490   -5.9612  -14.6411 C   0  0  2  0  0  0  0  0  0  0  0  0
   18.6582   -6.7309  -15.4253 N   0  0  0  0  0  0  0  0  0  0  0  0
   19.5288   -4.5379  -15.1201 C   0  0  0  0  0  0  0  0  0  0  0  0
   19.9966   -3.5820  -14.4008 O   0  0  0  0  0  0  0  0  0  0  0  0
   18.9216   -4.2812  -16.3199 O   0  0  0  0  0  0  0  0  0  0  0  0
  2  1  1  1
  2  5  1  0
  3  2  1  0
  4  3  1  0
  5  6  2  0
  8  7  1  6
  8  9  1  0
  8 10  1  0
 10 12  1  0
 11  5  1  0
 10 11  1  1
 12 19  1  0
 13 12  2  0
 15 14  1  0
 16 15  2  0
 17 15  1  0
 18 17  1  6
 19 18  1  0
 20 18  1  0
 20 22  1  0
 21 20  2  0
M  END
$$$$
