CTN.pdb
     RDKit          3D

 22 21  0  0  1  0  0  0  0  0999 V2000
   16.6027  -12.6061  -16.8940 N   0  0  0  0  0  0  0  0  0  0  0  0
   16.8840  -11.7204  -15.8029 C   0  0  1  0  0  0  0  0  0  0  0  0
   17.9136  -12.3800  -14.9039 C   0  0  0  0  0  0  0  0  0  0  0  0
   17.2467  -13.8746  -14.1266 S   0  0  0  0  0  0  0  0  0  0  0  0
   17.4221  -10.4133  -16.2374 C   0  0  0  0  0  0  0  0  0  0  0  0
   18.3006  -10.4418  -17.1509 O   0  0  0  0  0  0  0  0  0  0  0  0
   15.6982   -7.5565  -17.8999 C   0  0  0  0  0  0  0  0  0  0  0  0
   16.4276   -7.0106  -16.6953 C   0  0  1  0  0  0  0  0  0  0  0  0
   15.5441   -6.7697  -15.6336 O   0  0  0  0  0  0  0  0  0  0  0  0
   17.5328   -7.8962  -16.2280 C   0  0  2  0  0  0  0  0  0  0  0  0
   17.0497   -9.1612  -15.7327 N   0  0  0  0  0  0  0  0  0  0  0  0
   18.4517   -7.2365  -15.2690 C   0  0  0  0  0  0  0  0  0  0  0  0
   18.3854   -7.4997  -14.0420 O   0  0  0  0  0  0  0  0  0  0  0  0
   22.1739   -4.3951  -13.1441 N   0  0  0  0  0  0  0  0  0  0  0  0
   22.5963   -4.9193  -14.4159 C   0  0  0  0  0  0  0  0  0  0  0  0
   23.7932   -4.7498  -14.6927 O   0  0  0  0  0  0  0  0  0  0  0  0
   21.6718   -5.6076  -15.3219 C   0  0  0  0  0  0  0  0  0  0  0  0
   20.2763   -5.6401  -14.8043 C   0  0  2  0  0  0  0  0  0  0  0  0
   19.3909   -6.3137  -15.7798 N   0  0  0  0  0  0  0  0  0  0  0  0
   19.7643   -4.2271  -14.6995 C   0  0  0  0  0  0  0  0  0  0  0  0
   19.1674   -3.6899  -15.7019 O   0  0  0  0  0  0  0  0  0  0  0  0
   19.9416   -3.5326  -13.5332 O   0  0  0  0  0  0  0  0  0  0  0  0
  2  1  1  6
  2  5  1  0
  3  2  1  0
  4  3  1  0
  5  6  2  0
  8  7  1  6
  8  9  1  0
  8 10  1  0
 10 12  1  0
 11  5  1  0
 10 11  1  1
 12 19  1  0
 13 12  2  0
 15 14  1  0
 16 15  2  0
 17 15  1  0
 18 17  1  6
 19 18  1  0
 20 18  1  0
 20 22  1  0
 21 20  2  0
M  END
$$$$
