CTN.pdb
     RDKit          3D

 22 21  0  0  1  0  0  0  0  0999 V2000
   24.4784  -12.2381  -18.1448 N   0  0  0  0  0  0  0  0  0  0  0  0
   23.9994  -12.0160  -16.8123 C   0  0  1  0  0  0  0  0  0  0  0  0
   25.1819  -11.6542  -15.9324 C   0  0  0  0  0  0  0  0  0  0  0  0
   26.3911  -13.0020  -15.8690 S   0  0  0  0  0  0  0  0  0  0  0  0
   23.0082  -10.9222  -16.7243 C   0  0  0  0  0  0  0  0  0  0  0  0
   23.1624   -9.9567  -17.5312 O   0  0  0  0  0  0  0  0  0  0  0  0
   18.7365   -9.0207  -14.9529 C   0  0  0  0  0  0  0  0  0  0  0  0
   19.7396  -10.1470  -15.0334 C   0  0  1  0  0  0  0  0  0  0  0  0
   19.1803  -11.2821  -15.6373 O   0  0  0  0  0  0  0  0  0  0  0  0
   20.9895   -9.7686  -15.7538 C   0  0  2  0  0  0  0  0  0  0  0  0
   21.9267  -10.8611  -15.8368 N   0  0  0  0  0  0  0  0  0  0  0  0
   21.6198   -8.5321  -15.2312 C   0  0  0  0  0  0  0  0  0  0  0  0
   22.6475   -8.5984  -14.5111 O   0  0  0  0  0  0  0  0  0  0  0  0
   23.2958   -3.7660  -14.6843 N   0  0  0  0  0  0  0  0  0  0  0  0
   23.7344   -4.6975  -15.6894 C   0  0  0  0  0  0  0  0  0  0  0  0
   24.7732   -4.3852  -16.2904 O   0  0  0  0  0  0  0  0  0  0  0  0
   23.0008   -5.9329  -15.9815 C   0  0  0  0  0  0  0  0  0  0  0  0
   21.7572   -6.0681  -15.1742 C   0  0  2  0  0  0  0  0  0  0  0  0
   21.0293   -7.2943  -15.5688 N   0  0  0  0  0  0  0  0  0  0  0  0
   20.8354   -4.9239  -15.5071 C   0  0  0  0  0  0  0  0  0  0  0  0
   20.1244   -4.9690  -16.5759 O   0  0  0  0  0  0  0  0  0  0  0  0
   20.7666   -3.8484  -14.6629 O   0  0  0  0  0  0  0  0  0  0  0  0
  2  1  1  6
  2  5  1  0
  3  2  1  0
  4  3  1  0
  5  6  2  0
  8  7  1  6
  8  9  1  0
  8 10  1  0
 10 12  1  0
 11  5  1  0
 10 11  1  1
 12 19  1  0
 13 12  2  0
 15 14  1  0
 16 15  2  0
 17 15  1  0
 18 17  1  6
 19 18  1  0
 20 18  1  0
 20 22  1  0
 21 20  2  0
M  END
$$$$
