WIV.pdb
     RDKit          3D

 30 31  0  0  1  0  0  0  0  0999 V2000
   26.8186  -20.6563  -17.0706 N   0  0  0  0  0  0  0  0  0  0  0  0
   27.0639  -19.8421  -15.8820 C   0  0  1  0  0  0  0  0  0  0  0  0
   26.2265  -18.5674  -15.9232 C   0  0  0  0  0  0  0  0  0  0  0  0
   26.6320  -17.7227  -17.0760 C   0  0  0  0  0  0  0  0  0  0  0  0
   25.7680  -17.1338  -18.0047 C   0  0  0  0  0  0  0  0  0  0  0  0
   26.5042  -16.4507  -18.8920 N   0  0  0  0  0  0  0  0  0  0  0  0
   27.8168  -16.5411  -18.6205 C   0  0  0  0  0  0  0  0  0  0  0  0
   28.9412  -16.0216  -19.2341 C   0  0  0  0  0  0  0  0  0  0  0  0
   30.1792  -16.3030  -18.7005 C   0  0  0  0  0  0  0  0  0  0  0  0
   30.2662  -17.0890  -17.5776 C   0  0  0  0  0  0  0  0  0  0  0  0
   29.1402  -17.6009  -16.9750 C   0  0  0  0  0  0  0  0  0  0  0  0
   27.8929  -17.3392  -17.4817 C   0  0  0  0  0  0  0  0  0  0  0  0
   26.7442  -20.5966  -14.6450 C   0  0  0  0  0  0  0  0  0  0  0  0
   25.8726  -21.4681  -14.6752 O   0  0  0  0  0  0  0  0  0  0  0  0
   30.6590  -21.1404  -10.7603 C   0  0  0  0  0  0  0  0  0  0  0  0
   29.5213  -21.3162  -11.7145 C   0  0  0  0  0  0  0  0  0  0  0  0
   28.2138  -20.7949  -11.1591 C   0  0  2  0  0  0  0  0  0  0  0  0
   27.8642  -21.4539   -9.8447 C   0  0  0  0  0  0  0  0  0  0  0  0
   27.0967  -20.8881  -12.1667 C   0  0  2  0  0  0  0  0  0  0  0  0
   27.4340  -20.3191  -13.4379 N   0  0  0  0  0  0  0  0  0  0  0  0
   25.8515  -20.3414  -11.5871 C   0  0  0  0  0  0  0  0  0  0  0  0
   25.8329  -19.1392  -11.2434 O   0  0  0  0  0  0  0  0  0  0  0  0
   22.7502  -20.0594  -13.1577 C   0  0  0  0  0  0  0  0  0  0  0  0
   22.3312  -20.7098  -11.8534 C   0  0  1  0  0  0  0  0  0  0  0  0
   22.1543  -22.1976  -12.1186 C   0  0  0  0  0  0  0  0  0  0  0  0
   23.4497  -20.5407  -10.8525 C   0  0  2  0  0  0  0  0  0  0  0  0
   24.6743  -21.0977  -11.3963 N   0  0  0  0  0  0  0  0  0  0  0  0
   23.1365  -21.1762   -9.5615 C   0  0  0  0  0  0  0  0  0  0  0  0
   22.0763  -20.7417   -8.7998 O   0  0  0  0  0  0  0  0  0  0  0  0
   23.8365  -22.1190   -9.1492 O   0  0  0  0  0  0  0  0  0  0  0  0
  2 13  1  0
  2  1  1  6
  3  2  1  0
  4  5  2  0
  4  3  1  0
  6  5  1  0
  7 12  2  0
  7  6  1  0
  8  7  1  0
  9 10  1  0
  9  8  2  0
 10 11  2  0
 11 12  1  0
 12  4  1  0
 13 14  2  0
 16 15  1  0
 16 17  1  0
 17 18  1  1
 19 17  1  0
 19 20  1  6
 20 13  1  0
 21 19  1  0
 22 21  2  0
 24 23  1  6
 24 26  1  0
 24 25  1  0
 26 27  1  6
 27 21  1  0
 28 26  1  0
 28 29  1  0
 30 28  2  0
M  END
$$$$
