WIV.pdb
     RDKit          3D

 30 31  0  0  1  0  0  0  0  0999 V2000
   24.8540  -19.7735  -17.3042 N   0  0  0  0  0  0  0  0  0  0  0  0
   25.3623  -19.1745  -16.0719 C   0  0  1  0  0  0  0  0  0  0  0  0
   24.2634  -18.3857  -15.3661 C   0  0  0  0  0  0  0  0  0  0  0  0
   23.8917  -17.1916  -16.1678 C   0  0  0  0  0  0  0  0  0  0  0  0
   22.7894  -17.0887  -17.0224 C   0  0  0  0  0  0  0  0  0  0  0  0
   22.7889  -15.8634  -17.5649 N   0  0  0  0  0  0  0  0  0  0  0  0
   23.8257  -15.1284  -17.1292 C   0  0  0  0  0  0  0  0  0  0  0  0
   24.2403  -13.8372  -17.3965 C   0  0  0  0  0  0  0  0  0  0  0  0
   25.3736  -13.3612  -16.7755 C   0  0  0  0  0  0  0  0  0  0  0  0
   26.0609  -14.1768  -15.9102 C   0  0  0  0  0  0  0  0  0  0  0  0
   25.6390  -15.4606  -15.6514 C   0  0  0  0  0  0  0  0  0  0  0  0
   24.5145  -15.9643  -16.2537 C   0  0  0  0  0  0  0  0  0  0  0  0
   25.8854  -20.2140  -15.1514 C   0  0  0  0  0  0  0  0  0  0  0  0
   25.2870  -21.2869  -15.0464 O   0  0  0  0  0  0  0  0  0  0  0  0
   30.5968  -21.2025  -11.1471 C   0  0  0  0  0  0  0  0  0  0  0  0
   29.1548  -21.3014  -11.5300 C   0  0  0  0  0  0  0  0  0  0  0  0
   28.8406  -20.5467  -12.8033 C   0  0  2  0  0  0  0  0  0  0  0  0
   29.3303  -19.1183  -12.7400 C   0  0  0  0  0  0  0  0  0  0  0  0
   27.3812  -20.6409  -13.1685 C   0  0  2  0  0  0  0  0  0  0  0  0
   27.0630  -19.9774  -14.3982 N   0  0  0  0  0  0  0  0  0  0  0  0
   26.5494  -20.2013  -12.0282 C   0  0  0  0  0  0  0  0  0  0  0  0
   26.5307  -18.9848  -11.7394 O   0  0  0  0  0  0  0  0  0  0  0  0
   23.1637  -20.0643  -11.6439 C   0  0  0  0  0  0  0  0  0  0  0  0
   23.5183  -20.8385  -10.3891 C   0  0  1  0  0  0  0  0  0  0  0  0
   23.2924  -22.3146  -10.6812 C   0  0  0  0  0  0  0  0  0  0  0  0
   24.9869  -20.6361  -10.1001 C   0  0  2  0  0  0  0  0  0  0  0  0
   25.7698  -21.0760  -11.2400 N   0  0  0  0  0  0  0  0  0  0  0  0
   25.4152  -21.3533   -8.8874 C   0  0  0  0  0  0  0  0  0  0  0  0
   24.9937  -20.9482   -7.6419 O   0  0  0  0  0  0  0  0  0  0  0  0
   26.1683  -22.3394   -8.9843 O   0  0  0  0  0  0  0  0  0  0  0  0
  2 13  1  0
  2  1  1  6
  3  2  1  0
  4  5  2  0
  4  3  1  0
  6  5  1  0
  7 12  2  0
  7  6  1  0
  8  7  1  0
  9 10  1  0
  9  8  2  0
 10 11  2  0
 11 12  1  0
 12  4  1  0
 13 14  2  0
 16 15  1  0
 16 17  1  0
 17 18  1  1
 19 17  1  0
 19 20  1  6
 20 13  1  0
 21 19  1  0
 22 21  2  0
 24 23  1  6
 24 26  1  0
 24 25  1  0
 26 27  1  6
 27 21  1  0
 28 26  1  0
 28 29  1  0
 30 28  2  0
M  END
$$$$
