WIV.pdb
     RDKit          3D

 30 31  0  0  1  0  0  0  0  0999 V2000
   28.2843  -20.6711  -16.4165 N   0  0  0  0  0  0  0  0  0  0  0  0
   27.3192  -19.9898  -15.5561 C   0  0  1  0  0  0  0  0  0  0  0  0
   26.1692  -19.4236  -16.3836 C   0  0  0  0  0  0  0  0  0  0  0  0
   26.6092  -18.2039  -17.1086 C   0  0  0  0  0  0  0  0  0  0  0  0
   26.9447  -18.1326  -18.4645 C   0  0  0  0  0  0  0  0  0  0  0  0
   27.2898  -16.8691  -18.7479 N   0  0  0  0  0  0  0  0  0  0  0  0
   27.2084  -16.0786  -17.6647 C   0  0  0  0  0  0  0  0  0  0  0  0
   27.4569  -14.7340  -17.4619 C   0  0  0  0  0  0  0  0  0  0  0  0
   27.2759  -14.2076  -16.2022 C   0  0  0  0  0  0  0  0  0  0  0  0
   26.8552  -15.0268  -15.1834 C   0  0  0  0  0  0  0  0  0  0  0  0
   26.6108  -16.3640  -15.3967 C   0  0  0  0  0  0  0  0  0  0  0  0
   26.7815  -16.9188  -16.6393 C   0  0  0  0  0  0  0  0  0  0  0  0
   26.7746  -20.9144  -14.5313 C   0  0  0  0  0  0  0  0  0  0  0  0
   26.5060  -22.0761  -14.8450 O   0  0  0  0  0  0  0  0  0  0  0  0
   28.4649  -21.4063   -9.5415 C   0  0  0  0  0  0  0  0  0  0  0  0
   27.7638  -21.6806  -10.8334 C   0  0  0  0  0  0  0  0  0  0  0  0
   26.3502  -21.1410  -10.8512 C   0  0  2  0  0  0  0  0  0  0  0  0
   25.4729  -21.8426   -9.8401 C   0  0  0  0  0  0  0  0  0  0  0  0
   25.7588  -21.1561  -12.2376 C   0  0  2  0  0  0  0  0  0  0  0  0
   26.5641  -20.4675  -13.2024 N   0  0  0  0  0  0  0  0  0  0  0  0
   24.3592  -20.6824  -12.1911 C   0  0  0  0  0  0  0  0  0  0  0  0
   24.1198  -19.5871  -11.6374 O   0  0  0  0  0  0  0  0  0  0  0  0
   21.7304  -22.0312  -15.0227 C   0  0  0  0  0  0  0  0  0  0  0  0
   21.6326  -20.6692  -14.3630 C   0  0  1  0  0  0  0  0  0  0  0  0
   20.1918  -20.1980  -14.4945 C   0  0  0  0  0  0  0  0  0  0  0  0
   21.9437  -20.8253  -12.8932 C   0  0  2  0  0  0  0  0  0  0  0  0
   23.2690  -21.3952  -12.7367 N   0  0  0  0  0  0  0  0  0  0  0  0
   20.9493  -21.6650  -12.2042 C   0  0  0  0  0  0  0  0  0  0  0  0
   19.7282  -21.1515  -11.8324 O   0  0  0  0  0  0  0  0  0  0  0  0
   21.2114  -22.8552  -11.9524 O   0  0  0  0  0  0  0  0  0  0  0  0
  2 13  1  0
  2  1  1  6
  3  2  1  0
  4  5  2  0
  4  3  1  0
  6  5  1  0
  7 12  2  0
  7  6  1  0
  8  7  1  0
  9 10  1  0
  9  8  2  0
 10 11  2  0
 11 12  1  0
 12  4  1  0
 13 14  2  0
 16 15  1  0
 16 17  1  0
 17 18  1  1
 19 17  1  0
 19 20  1  6
 20 13  1  0
 21 19  1  0
 22 21  2  0
 24 23  1  6
 24 26  1  0
 24 25  1  0
 26 27  1  6
 27 21  1  0
 28 26  1  0
 28 29  1  0
 30 28  2  0
M  END
$$$$
