WIV.pdb
     RDKit          3D

 30 31  0  0  1  0  0  0  0  0999 V2000
   27.7363  -19.5721  -16.4910 N   0  0  0  0  0  0  0  0  0  0  0  0
   26.7137  -19.2187  -15.5086 C   0  0  1  0  0  0  0  0  0  0  0  0
   25.4188  -18.8116  -16.2053 C   0  0  0  0  0  0  0  0  0  0  0  0
   25.6016  -17.5204  -16.9168 C   0  0  0  0  0  0  0  0  0  0  0  0
   25.2734  -17.2669  -18.2525 C   0  0  0  0  0  0  0  0  0  0  0  0
   25.5831  -15.9926  -18.5285 N   0  0  0  0  0  0  0  0  0  0  0  0
   26.1021  -15.3662  -17.4593 C   0  0  0  0  0  0  0  0  0  0  0  0
   26.5620  -14.0786  -17.2562 C   0  0  0  0  0  0  0  0  0  0  0  0
   27.0466  -13.7344  -16.0139 C   0  0  0  0  0  0  0  0  0  0  0  0
   27.0612  -14.6738  -15.0122 C   0  0  0  0  0  0  0  0  0  0  0  0
   26.6008  -15.9528  -15.2256 C   0  0  0  0  0  0  0  0  0  0  0  0
   26.1120  -16.3270  -16.4512 C   0  0  0  0  0  0  0  0  0  0  0  0
   26.4398  -20.3543  -14.5938 C   0  0  0  0  0  0  0  0  0  0  0  0
   26.6052  -21.5085  -14.9945 O   0  0  0  0  0  0  0  0  0  0  0  0
   25.9022  -21.4358   -8.5036 C   0  0  0  0  0  0  0  0  0  0  0  0
   25.6792  -21.8520   -9.9223 C   0  0  0  0  0  0  0  0  0  0  0  0
   25.8075  -20.6972  -10.8917 C   0  0  2  0  0  0  0  0  0  0  0  0
   24.8523  -19.5761  -10.5528 C   0  0  0  0  0  0  0  0  0  0  0  0
   25.6831  -21.1480  -12.3247 C   0  0  2  0  0  0  0  0  0  0  0  0
   25.9918  -20.1162  -13.2699 N   0  0  0  0  0  0  0  0  0  0  0  0
   24.3600  -21.7707  -12.5416 C   0  0  0  0  0  0  0  0  0  0  0  0
   24.0783  -22.8076  -11.9020 O   0  0  0  0  0  0  0  0  0  0  0  0
   21.6303  -20.0503  -15.3159 C   0  0  0  0  0  0  0  0  0  0  0  0
   21.7842  -19.5165  -13.9048 C   0  0  1  0  0  0  0  0  0  0  0  0
   20.4321  -18.9701  -13.4708 C   0  0  0  0  0  0  0  0  0  0  0  0
   22.1406  -20.6670  -12.9934 C   0  0  2  0  0  0  0  0  0  0  0  0
   23.3886  -21.2636  -13.4323 N   0  0  0  0  0  0  0  0  0  0  0  0
   21.0805  -21.6883  -12.9527 C   0  0  0  0  0  0  0  0  0  0  0  0
   21.3053  -22.9583  -13.4319 O   0  0  0  0  0  0  0  0  0  0  0  0
   19.9649  -21.4047  -12.4798 O   0  0  0  0  0  0  0  0  0  0  0  0
  2 13  1  0
  2  1  1  6
  3  2  1  0
  4  5  2  0
  4  3  1  0
  6  5  1  0
  7 12  2  0
  7  6  1  0
  8  7  1  0
  9 10  1  0
  9  8  2  0
 10 11  2  0
 11 12  1  0
 12  4  1  0
 13 14  2  0
 16 15  1  0
 16 17  1  0
 17 18  1  1
 19 17  1  0
 19 20  1  6
 20 13  1  0
 21 19  1  0
 22 21  2  0
 24 23  1  6
 24 26  1  0
 24 25  1  0
 26 27  1  6
 27 21  1  0
 28 26  1  0
 28 29  1  0
 30 28  2  0
M  END
$$$$
