WIV.pdb
     RDKit          3D

 30 31  0  0  1  0  0  0  0  0999 V2000
   22.9769  -21.0123  -16.4093 N   0  0  0  0  0  0  0  0  0  0  0  0
   23.5346  -19.9993  -15.5156 C   0  0  1  0  0  0  0  0  0  0  0  0
   22.4272  -19.3276  -14.7091 C   0  0  0  0  0  0  0  0  0  0  0  0
   21.5870  -18.4813  -15.5948 C   0  0  0  0  0  0  0  0  0  0  0  0
   20.4733  -18.9109  -16.3237 C   0  0  0  0  0  0  0  0  0  0  0  0
   19.9818  -17.8635  -16.9998 N   0  0  0  0  0  0  0  0  0  0  0  0
   20.6958  -16.7484  -16.7730 C   0  0  0  0  0  0  0  0  0  0  0  0
   20.5816  -15.4498  -17.2326 C   0  0  0  0  0  0  0  0  0  0  0  0
   21.4934  -14.5107  -16.8043 C   0  0  0  0  0  0  0  0  0  0  0  0
   22.4889  -14.8853  -15.9354 C   0  0  0  0  0  0  0  0  0  0  0  0
   22.5931  -16.1809  -15.4843 C   0  0  0  0  0  0  0  0  0  0  0  0
   21.7010  -17.1395  -15.8919 C   0  0  0  0  0  0  0  0  0  0  0  0
   24.5229  -20.5974  -14.5844 C   0  0  0  0  0  0  0  0  0  0  0  0
   24.2324  -21.6276  -13.9725 O   0  0  0  0  0  0  0  0  0  0  0  0
   28.3540  -19.8535  -16.2502 C   0  0  0  0  0  0  0  0  0  0  0  0
   28.6155  -20.6970  -15.0436 C   0  0  0  0  0  0  0  0  0  0  0  0
   28.1617  -20.0317  -13.7625 C   0  0  2  0  0  0  0  0  0  0  0  0
   29.1264  -20.2900  -12.6282 C   0  0  0  0  0  0  0  0  0  0  0  0
   26.7433  -20.3990  -13.4088 C   0  0  2  0  0  0  0  0  0  0  0  0
   25.7908  -19.9908  -14.3986 N   0  0  0  0  0  0  0  0  0  0  0  0
   26.4245  -19.9162  -12.0484 C   0  0  0  0  0  0  0  0  0  0  0  0
   26.1876  -18.6987  -11.8894 O   0  0  0  0  0  0  0  0  0  0  0  0
   25.3554  -22.5233   -8.8977 C   0  0  0  0  0  0  0  0  0  0  0  0
   24.9005  -21.0817   -9.0186 C   0  0  1  0  0  0  0  0  0  0  0  0
   24.6050  -20.5745   -7.6148 C   0  0  0  0  0  0  0  0  0  0  0  0
   26.0391  -20.2656   -9.5831 C   0  0  2  0  0  0  0  0  0  0  0  0
   26.3706  -20.7503  -10.9102 N   0  0  0  0  0  0  0  0  0  0  0  0
   27.2307  -20.3078   -8.7188 C   0  0  0  0  0  0  0  0  0  0  0  0
   27.3843  -19.4135   -7.6846 O   0  0  0  0  0  0  0  0  0  0  0  0
   28.1133  -21.1613   -8.9218 O   0  0  0  0  0  0  0  0  0  0  0  0
  2 13  1  0
  2  1  1  1
  3  2  1  0
  4  5  2  0
  4  3  1  0
  6  5  1  0
  7 12  2  0
  7  6  1  0
  8  7  1  0
  9 10  1  0
  9  8  2  0
 10 11  2  0
 11 12  1  0
 12  4  1  0
 13 14  2  0
 16 15  1  0
 16 17  1  0
 17 18  1  1
 19 17  1  0
 19 20  1  6
 20 13  1  0
 21 19  1  0
 22 21  2  0
 24 23  1  1
 24 26  1  0
 24 25  1  0
 26 27  1  6
 27 21  1  0
 28 26  1  0
 28 29  1  0
 30 28  2  0
M  END
$$$$
