WIV.pdb
     RDKit          3D

 30 31  0  0  1  0  0  0  0  0999 V2000
   27.1689  -20.4363  -16.2444 N   0  0  0  0  0  0  0  0  0  0  0  0
   26.9033  -19.7550  -14.9790 C   0  0  1  0  0  0  0  0  0  0  0  0
   26.1861  -18.4307  -15.2233 C   0  0  0  0  0  0  0  0  0  0  0  0
   26.9339  -17.6161  -16.2152 C   0  0  0  0  0  0  0  0  0  0  0  0
   26.3676  -16.8167  -17.2134 C   0  0  0  0  0  0  0  0  0  0  0  0
   27.3596  -16.2404  -17.9059 N   0  0  0  0  0  0  0  0  0  0  0  0
   28.5657  -16.6012  -17.4369 C   0  0  0  0  0  0  0  0  0  0  0  0
   29.8556  -16.2766  -17.8130 C   0  0  0  0  0  0  0  0  0  0  0  0
   30.9089  -16.8251  -17.1155 C   0  0  0  0  0  0  0  0  0  0  0  0
   30.6536  -17.6767  -16.0688 C   0  0  0  0  0  0  0  0  0  0  0  0
   29.3654  -17.9928  -15.7031 C   0  0  0  0  0  0  0  0  0  0  0  0
   28.2948  -17.4634  -16.3773 C   0  0  0  0  0  0  0  0  0  0  0  0
   26.0762  -20.6003  -14.0830 C   0  0  0  0  0  0  0  0  0  0  0  0
   25.4868  -21.5788  -14.5470 O   0  0  0  0  0  0  0  0  0  0  0  0
   27.0243  -20.6844   -8.5934 C   0  0  0  0  0  0  0  0  0  0  0  0
   26.6456  -21.0862   -9.9830 C   0  0  0  0  0  0  0  0  0  0  0  0
   25.2668  -20.5987  -10.3714 C   0  0  2  0  0  0  0  0  0  0  0  0
   24.1991  -21.1651   -9.4640 C   0  0  0  0  0  0  0  0  0  0  0  0
   24.9734  -20.8417  -11.8298 C   0  0  2  0  0  0  0  0  0  0  0  0
   25.9634  -20.2871  -12.7049 N   0  0  0  0  0  0  0  0  0  0  0  0
   23.5965  -20.4047  -12.1440 C   0  0  0  0  0  0  0  0  0  0  0  0
   23.3223  -19.1883  -12.0501 O   0  0  0  0  0  0  0  0  0  0  0  0
   21.1857  -22.6922  -14.5421 C   0  0  0  0  0  0  0  0  0  0  0  0
   20.9986  -21.1954  -14.3866 C   0  0  1  0  0  0  0  0  0  0  0  0
   19.5472  -20.8777  -14.7148 C   0  0  0  0  0  0  0  0  0  0  0  0
   21.2447  -20.8291  -12.9421 C   0  0  2  0  0  0  0  0  0  0  0  0
   22.5654  -21.2817  -12.5462 N   0  0  0  0  0  0  0  0  0  0  0  0
   20.2261  -21.4014  -12.0458 C   0  0  0  0  0  0  0  0  0  0  0  0
   19.0168  -20.7722  -11.8590 O   0  0  0  0  0  0  0  0  0  0  0  0
   20.4564  -22.4678  -11.4470 O   0  0  0  0  0  0  0  0  0  0  0  0
  2 13  1  0
  2  1  1  6
  3  2  1  0
  4  5  2  0
  4  3  1  0
  6  5  1  0
  7 12  2  0
  7  6  1  0
  8  7  1  0
  9 10  1  0
  9  8  2  0
 10 11  2  0
 11 12  1  0
 12  4  1  0
 13 14  2  0
 16 15  1  0
 16 17  1  0
 17 18  1  1
 19 17  1  0
 19 20  1  6
 20 13  1  0
 21 19  1  0
 22 21  2  0
 24 23  1  1
 24 26  1  0
 24 25  1  0
 26 27  1  1
 27 21  1  0
 28 26  1  0
 28 29  1  0
 30 28  2  0
M  END
$$$$
