WIV.pdb
     RDKit          3D

 30 31  0  0  1  0  0  0  0  0999 V2000
   26.8354  -20.9829  -16.8143 N   0  0  0  0  0  0  0  0  0  0  0  0
   25.7235  -20.2367  -16.2288 C   0  0  1  0  0  0  0  0  0  0  0  0
   24.6539  -19.9557  -17.2799 C   0  0  0  0  0  0  0  0  0  0  0  0
   25.0405  -18.7834  -18.1064 C   0  0  0  0  0  0  0  0  0  0  0  0
   26.1553  -18.7052  -18.9473 C   0  0  0  0  0  0  0  0  0  0  0  0
   26.1666  -17.4944  -19.5215 N   0  0  0  0  0  0  0  0  0  0  0  0
   25.1256  -16.7461  -19.1200 C   0  0  0  0  0  0  0  0  0  0  0  0
   24.7184  -15.4612  -19.4265 C   0  0  0  0  0  0  0  0  0  0  0  0
   23.5777  -14.9667  -18.8342 C   0  0  0  0  0  0  0  0  0  0  0  0
   22.8760  -15.7579  -17.9580 C   0  0  0  0  0  0  0  0  0  0  0  0
   23.2905  -17.0356  -17.6602 C   0  0  0  0  0  0  0  0  0  0  0  0
   24.4221  -17.5574  -18.2332 C   0  0  0  0  0  0  0  0  0  0  0  0
   25.1155  -20.9855  -15.1013 C   0  0  0  0  0  0  0  0  0  0  0  0
   24.7603  -22.1538  -15.2715 O   0  0  0  0  0  0  0  0  0  0  0  0
   26.9622  -20.7632  -10.0654 C   0  0  0  0  0  0  0  0  0  0  0  0
   26.3129  -21.0639  -11.3783 C   0  0  0  0  0  0  0  0  0  0  0  0
   24.8513  -20.6730  -11.4046 C   0  0  2  0  0  0  0  0  0  0  0  0
   24.0847  -21.3047  -10.2656 C   0  0  0  0  0  0  0  0  0  0  0  0
   24.2197  -20.9441  -12.7461 C   0  0  2  0  0  0  0  0  0  0  0  0
   24.9436  -20.3644  -13.8385 N   0  0  0  0  0  0  0  0  0  0  0  0
   22.7921  -20.5616  -12.7148 C   0  0  0  0  0  0  0  0  0  0  0  0
   22.5009  -19.3677  -12.4831 O   0  0  0  0  0  0  0  0  0  0  0  0
   20.2694  -20.9739  -15.3063 C   0  0  0  0  0  0  0  0  0  0  0  0
   19.6064  -21.5781  -14.0835 C   0  0  1  0  0  0  0  0  0  0  0  0
   19.7812  -23.0874  -14.1653 C   0  0  0  0  0  0  0  0  0  0  0  0
   20.3318  -21.0870  -12.8531 C   0  0  2  0  0  0  0  0  0  0  0  0
   21.7302  -21.4668  -12.9318 N   0  0  0  0  0  0  0  0  0  0  0  0
   19.7356  -21.6129  -11.6136 C   0  0  0  0  0  0  0  0  0  0  0  0
   18.5339  -21.1304  -11.1485 O   0  0  0  0  0  0  0  0  0  0  0  0
   20.3217  -22.5054  -10.9743 O   0  0  0  0  0  0  0  0  0  0  0  0
  2 13  1  0
  2  1  1  6
  3  2  1  0
  4  5  2  0
  4  3  1  0
  6  5  1  0
  7 12  2  0
  7  6  1  0
  8  7  1  0
  9 10  1  0
  9  8  2  0
 10 11  2  0
 11 12  1  0
 12  4  1  0
 13 14  2  0
 16 15  1  0
 16 17  1  0
 17 18  1  1
 19 17  1  0
 19 20  1  6
 20 13  1  0
 21 19  1  0
 22 21  2  0
 24 23  1  6
 24 26  1  0
 24 25  1  0
 26 27  1  6
 27 21  1  0
 28 26  1  0
 28 29  1  0
 30 28  2  0
M  END
$$$$
