WIV.pdb
     RDKit          3D

 30 31  0  0  1  0  0  0  0  0999 V2000
   28.2587  -19.5521   -9.4051 N   0  0  0  0  0  0  0  0  0  0  0  0
   27.0680  -20.3912   -9.2861 C   0  0  1  0  0  0  0  0  0  0  0  0
   26.2971  -20.0507   -8.0142 C   0  0  0  0  0  0  0  0  0  0  0  0
   27.2236  -19.5348   -6.9739 C   0  0  0  0  0  0  0  0  0  0  0  0
   27.6764  -18.2165   -6.8604 C   0  0  0  0  0  0  0  0  0  0  0  0
   28.4939  -18.1408   -5.8012 N   0  0  0  0  0  0  0  0  0  0  0  0
   28.6228  -19.3297   -5.1891 C   0  0  0  0  0  0  0  0  0  0  0  0
   29.3398  -19.7438   -4.0822 C   0  0  0  0  0  0  0  0  0  0  0  0
   29.2625  -21.0635   -3.6962 C   0  0  0  0  0  0  0  0  0  0  0  0
   28.4790  -21.9316   -4.4164 C   0  0  0  0  0  0  0  0  0  0  0  0
   27.7694  -21.5084   -5.5166 C   0  0  0  0  0  0  0  0  0  0  0  0
   27.8251  -20.2009   -5.9269 C   0  0  0  0  0  0  0  0  0  0  0  0
   26.1759  -20.2181  -10.4590 C   0  0  0  0  0  0  0  0  0  0  0  0
   25.6507  -19.1216  -10.6641 O   0  0  0  0  0  0  0  0  0  0  0  0
   28.0577  -22.2526  -14.8776 C   0  0  0  0  0  0  0  0  0  0  0  0
   27.3398  -21.5061  -13.7991 C   0  0  0  0  0  0  0  0  0  0  0  0
   25.8709  -21.8623  -13.7272 C   0  0  2  0  0  0  0  0  0  0  0  0
   25.1676  -21.5948  -15.0379 C   0  0  0  0  0  0  0  0  0  0  0  0
   25.1869  -21.1991  -12.5592 C   0  0  2  0  0  0  0  0  0  0  0  0
   25.9283  -21.3031  -11.3373 N   0  0  0  0  0  0  0  0  0  0  0  0
   23.7960  -21.6877  -12.4491 C   0  0  0  0  0  0  0  0  0  0  0  0
   23.6087  -22.8996  -12.2045 O   0  0  0  0  0  0  0  0  0  0  0  0
   21.1721  -19.7368  -10.5002 C   0  0  0  0  0  0  0  0  0  0  0  0
   20.4864  -20.2075  -11.7682 C   0  0  1  0  0  0  0  0  0  0  0  0
   20.4866  -19.0442  -12.7490 C   0  0  0  0  0  0  0  0  0  0  0  0
   21.3037  -21.3275  -12.3675 C   0  0  2  0  0  0  0  0  0  0  0  0
   22.6587  -20.8650  -12.6040 N   0  0  0  0  0  0  0  0  0  0  0  0
   20.7166  -21.8301  -13.6210 C   0  0  0  0  0  0  0  0  0  0  0  0
   19.6070  -22.6435  -13.6042 O   0  0  0  0  0  0  0  0  0  0  0  0
   21.2265  -21.5184  -14.7126 O   0  0  0  0  0  0  0  0  0  0  0  0
  2 13  1  0
  2  1  1  6
  3  2  1  0
  4  5  2  0
  4  3  1  0
  6  5  1  0
  7 12  2  0
  7  6  1  0
  8  7  1  0
  9 10  1  0
  9  8  2  0
 10 11  2  0
 11 12  1  0
 12  4  1  0
 13 14  2  0
 16 15  1  0
 16 17  1  0
 17 18  1  6
 19 17  1  0
 19 20  1  1
 20 13  1  0
 21 19  1  0
 22 21  2  0
 24 23  1  1
 24 26  1  0
 24 25  1  0
 26 27  1  6
 27 21  1  0
 28 26  1  0
 28 29  1  0
 30 28  2  0
M  END
$$$$
