WIV.pdb
     RDKit          3D

 30 31  0  0  1  0  0  0  0  0999 V2000
   24.1835  -20.6320  -13.6595 N   0  0  0  0  0  0  0  0  0  0  0  0
   23.0698  -20.2006  -12.8172 C   0  0  1  0  0  0  0  0  0  0  0  0
   21.7612  -20.2321  -13.6010 C   0  0  0  0  0  0  0  0  0  0  0  0
   21.8189  -19.2763  -14.7368 C   0  0  0  0  0  0  0  0  0  0  0  0
   22.8507  -19.1808  -15.6761 C   0  0  0  0  0  0  0  0  0  0  0  0
   22.5441  -18.2051  -16.5420 N   0  0  0  0  0  0  0  0  0  0  0  0
   21.3653  -17.6327  -16.2461 C   0  0  0  0  0  0  0  0  0  0  0  0
   20.6441  -16.6095  -16.8323 C   0  0  0  0  0  0  0  0  0  0  0  0
   19.4376  -16.2444  -16.2776 C   0  0  0  0  0  0  0  0  0  0  0  0
   18.9826  -16.9022  -15.1612 C   0  0  0  0  0  0  0  0  0  0  0  0
   19.7088  -17.9195  -14.5859 C   0  0  0  0  0  0  0  0  0  0  0  0
   20.9138  -18.3068  -15.1141 C   0  0  0  0  0  0  0  0  0  0  0  0
   22.9424  -21.0666  -11.6191 C   0  0  0  0  0  0  0  0  0  0  0  0
   22.6490  -22.2558  -11.7596 O   0  0  0  0  0  0  0  0  0  0  0  0
   26.1540  -19.7240   -7.5697 C   0  0  0  0  0  0  0  0  0  0  0  0
   25.3609  -20.6168   -8.4696 C   0  0  0  0  0  0  0  0  0  0  0  0
   23.9299  -20.7823   -8.0066 C   0  0  2  0  0  0  0  0  0  0  0  0
   23.8422  -21.6294   -6.7581 C   0  0  0  0  0  0  0  0  0  0  0  0
   23.0354  -21.2864   -9.1102 C   0  0  2  0  0  0  0  0  0  0  0  0
   23.1558  -20.5328  -10.3231 N   0  0  0  0  0  0  0  0  0  0  0  0
   21.6455  -21.3959   -8.6188 C   0  0  0  0  0  0  0  0  0  0  0  0
   20.9682  -20.3503   -8.5115 O   0  0  0  0  0  0  0  0  0  0  0  0
   19.5858  -25.0093   -8.7453 C   0  0  0  0  0  0  0  0  0  0  0  0
   18.9123  -23.6515   -8.7957 C   0  0  1  0  0  0  0  0  0  0  0  0
   17.4910  -23.8248   -8.2810 C   0  0  0  0  0  0  0  0  0  0  0  0
   19.6416  -22.7197   -7.8571 C   0  0  2  0  0  0  0  0  0  0  0  0
   21.0317  -22.6162   -8.2608 N   0  0  0  0  0  0  0  0  0  0  0  0
   19.5554  -23.1673   -6.4568 C   0  0  0  0  0  0  0  0  0  0  0  0
   20.6419  -23.7301   -5.8277 O   0  0  0  0  0  0  0  0  0  0  0  0
   18.4885  -23.0374   -5.8294 O   0  0  0  0  0  0  0  0  0  0  0  0
  2 13  1  0
  2  1  1  6
  3  2  1  0
  4  5  2  0
  4  3  1  0
  6  5  1  0
  7 12  2  0
  7  6  1  0
  8  7  1  0
  9 10  1  0
  9  8  2  0
 10 11  2  0
 11 12  1  0
 12  4  1  0
 13 14  2  0
 16 15  1  0
 16 17  1  0
 17 18  1  1
 19 17  1  0
 19 20  1  6
 20 13  1  0
 21 19  1  0
 22 21  2  0
 24 23  1  1
 24 26  1  0
 24 25  1  0
 26 27  1  6
 27 21  1  0
 28 26  1  0
 28 29  1  0
 30 28  2  0
M  END
$$$$
