WIV.pdb
     RDKit          3D

 30 31  0  0  1  0  0  0  0  0999 V2000
   24.5111  -19.5712  -14.4051 N   0  0  0  0  0  0  0  0  0  0  0  0
   23.3765  -20.0171  -13.5991 C   0  0  1  0  0  0  0  0  0  0  0  0
   22.4161  -20.8521  -14.4407 C   0  0  0  0  0  0  0  0  0  0  0  0
   21.8366  -20.0263  -15.5310 C   0  0  0  0  0  0  0  0  0  0  0  0
   22.0486  -20.2116  -16.9009 C   0  0  0  0  0  0  0  0  0  0  0  0
   21.3605  -19.2731  -17.5653 N   0  0  0  0  0  0  0  0  0  0  0  0
   20.6939  -18.4616  -16.7274 C   0  0  0  0  0  0  0  0  0  0  0  0
   19.8672  -17.3730  -16.9329 C   0  0  0  0  0  0  0  0  0  0  0  0
   19.3226  -16.7366  -15.8397 C   0  0  0  0  0  0  0  0  0  0  0  0
   19.6125  -17.1966  -14.5785 C   0  0  0  0  0  0  0  0  0  0  0  0
   20.4367  -18.2813  -14.3857 C   0  0  0  0  0  0  0  0  0  0  0  0
   20.9948  -18.9368  -15.4534 C   0  0  0  0  0  0  0  0  0  0  0  0
   23.8321  -20.8198  -12.4373 C   0  0  0  0  0  0  0  0  0  0  0  0
   24.5633  -21.7948  -12.6239 O   0  0  0  0  0  0  0  0  0  0  0  0
   25.1897  -19.2571   -7.3031 C   0  0  0  0  0  0  0  0  0  0  0  0
   24.1921  -19.6365   -8.3504 C   0  0  0  0  0  0  0  0  0  0  0  0
   24.4847  -20.9871   -8.9667 C   0  0  2  0  0  0  0  0  0  0  0  0
   25.8991  -21.0649   -9.4936 C   0  0  0  0  0  0  0  0  0  0  0  0
   23.4602  -21.3663  -10.0053 C   0  0  2  0  0  0  0  0  0  0  0  0
   23.4311  -20.4701  -11.1231 N   0  0  0  0  0  0  0  0  0  0  0  0
   22.1413  -21.5531   -9.3641 C   0  0  0  0  0  0  0  0  0  0  0  0
   21.3225  -20.6088   -9.4014 O   0  0  0  0  0  0  0  0  0  0  0  0
   18.4977  -24.3453   -7.7765 C   0  0  0  0  0  0  0  0  0  0  0  0
   19.8550  -24.2230   -8.4417 C   0  0  1  0  0  0  0  0  0  0  0  0
   19.6296  -24.2153   -9.9465 C   0  0  0  0  0  0  0  0  0  0  0  0
   20.4625  -22.8965   -8.0508 C   0  0  2  0  0  0  0  0  0  0  0  0
   21.7468  -22.7397   -8.7080 N   0  0  0  0  0  0  0  0  0  0  0  0
   20.6239  -22.7712   -6.5924 C   0  0  0  0  0  0  0  0  0  0  0  0
   19.5882  -22.3262   -5.8035 O   0  0  0  0  0  0  0  0  0  0  0  0
   21.7088  -23.0703   -6.0612 O   0  0  0  0  0  0  0  0  0  0  0  0
  2 13  1  0
  2  1  1  6
  3  2  1  0
  4  5  2  0
  4  3  1  0
  6  5  1  0
  7 12  2  0
  7  6  1  0
  8  7  1  0
  9 10  1  0
  9  8  2  0
 10 11  2  0
 11 12  1  0
 12  4  1  0
 13 14  2  0
 16 15  1  0
 16 17  1  0
 17 18  1  6
 19 17  1  0
 19 20  1  6
 20 13  1  0
 21 19  1  0
 22 21  2  0
 24 23  1  1
 24 26  1  0
 24 25  1  0
 26 27  1  6
 27 21  1  0
 28 26  1  0
 28 29  1  0
 30 28  2  0
M  END
$$$$
