WIV.pdb
     RDKit          3D

 30 31  0  0  1  0  0  0  0  0999 V2000
   27.0430  -21.0212  -18.0191 N   0  0  0  0  0  0  0  0  0  0  0  0
   25.8728  -20.5423  -17.2863 C   0  0  1  0  0  0  0  0  0  0  0  0
   24.6047  -20.7435  -18.1106 C   0  0  0  0  0  0  0  0  0  0  0  0
   24.2492  -19.4886  -18.8217 C   0  0  0  0  0  0  0  0  0  0  0  0
   24.7114  -19.1026  -20.0840 C   0  0  0  0  0  0  0  0  0  0  0  0
   24.1709  -17.9141  -20.3861 N   0  0  0  0  0  0  0  0  0  0  0  0
   23.3691  -17.4706  -19.4036 C   0  0  0  0  0  0  0  0  0  0  0  0
   22.6085  -16.3258  -19.2562 C   0  0  0  0  0  0  0  0  0  0  0  0
   21.8767  -16.1584  -18.1016 C   0  0  0  0  0  0  0  0  0  0  0  0
   21.9202  -17.1278  -17.1297 C   0  0  0  0  0  0  0  0  0  0  0  0
   22.6808  -18.2635  -17.2870 C   0  0  0  0  0  0  0  0  0  0  0  0
   23.4208  -18.4601  -18.4249 C   0  0  0  0  0  0  0  0  0  0  0  0
   25.7302  -21.2505  -15.9902 C   0  0  0  0  0  0  0  0  0  0  0  0
   25.8404  -22.4780  -15.9552 O   0  0  0  0  0  0  0  0  0  0  0  0
   28.7313  -20.2386  -11.9582 C   0  0  0  0  0  0  0  0  0  0  0  0
   27.7432  -20.7275  -12.9684 C   0  0  0  0  0  0  0  0  0  0  0  0
   26.3128  -20.5831  -12.4965 C   0  0  2  0  0  0  0  0  0  0  0  0
   26.1161  -21.1811  -11.1225 C   0  0  0  0  0  0  0  0  0  0  0  0
   25.3298  -21.1193  -13.5055 C   0  0  2  0  0  0  0  0  0  0  0  0
   25.4694  -20.5235  -14.8013 N   0  0  0  0  0  0  0  0  0  0  0  0
   23.9575  -21.0358  -12.9622 C   0  0  0  0  0  0  0  0  0  0  0  0
   23.6823  -21.6967  -11.9369 O   0  0  0  0  0  0  0  0  0  0  0  0
   21.2079  -21.0392  -15.3073 C   0  0  0  0  0  0  0  0  0  0  0  0
   20.6902  -21.0893  -13.8828 C   0  0  1  0  0  0  0  0  0  0  0  0
   20.8206  -22.5255  -13.3973 C   0  0  0  0  0  0  0  0  0  0  0  0
   21.5745  -20.2198  -13.0207 C   0  0  2  0  0  0  0  0  0  0  0  0
   22.9318  -20.2510  -13.5332 N   0  0  0  0  0  0  0  0  0  0  0  0
   21.5585  -20.6425  -11.6102 C   0  0  0  0  0  0  0  0  0  0  0  0
   22.6042  -21.3600  -11.0766 O   0  0  0  0  0  0  0  0  0  0  0  0
   20.5891  -20.3498  -10.8866 O   0  0  0  0  0  0  0  0  0  0  0  0
  2 13  1  0
  2  1  1  6
  3  2  1  0
  4  5  2  0
  4  3  1  0
  6  5  1  0
  7 12  2  0
  7  6  1  0
  8  7  1  0
  9 10  1  0
  9  8  2  0
 10 11  2  0
 11 12  1  0
 12  4  1  0
 13 14  2  0
 16 15  1  0
 16 17  1  0
 17 18  1  1
 19 17  1  0
 19 20  1  6
 20 13  1  0
 21 19  1  0
 22 21  2  0
 24 23  1  6
 24 26  1  0
 24 25  1  0
 26 27  1  6
 27 21  1  0
 28 26  1  0
 28 29  1  0
 30 28  2  0
M  END
$$$$
