WIV.pdb
     RDKit          3D

 30 31  0  0  1  0  0  0  0  0999 V2000
   26.5465  -22.0563  -11.9508 N   0  0  0  0  0  0  0  0  0  0  0  0
   26.7246  -20.8826  -11.0984 C   0  0  1  0  0  0  0  0  0  0  0  0
   25.6196  -19.8620  -11.3535 C   0  0  0  0  0  0  0  0  0  0  0  0
   25.6133  -19.4574  -12.7828 C   0  0  0  0  0  0  0  0  0  0  0  0
   24.4849  -19.3665  -13.6040 C   0  0  0  0  0  0  0  0  0  0  0  0
   24.8800  -18.9709  -14.8219 N   0  0  0  0  0  0  0  0  0  0  0  0
   26.2098  -18.7879  -14.8760 C   0  0  0  0  0  0  0  0  0  0  0  0
   27.0636  -18.3930  -15.8889 C   0  0  0  0  0  0  0  0  0  0  0  0
   28.4115  -18.2989  -15.6227 C   0  0  0  0  0  0  0  0  0  0  0  0
   28.8725  -18.5981  -14.3641 C   0  0  0  0  0  0  0  0  0  0  0  0
   28.0135  -18.9902  -13.3633 C   0  0  0  0  0  0  0  0  0  0  0  0
   26.6659  -19.0938  -13.5961 C   0  0  0  0  0  0  0  0  0  0  0  0
   26.7181  -21.2612   -9.6637 C   0  0  0  0  0  0  0  0  0  0  0  0
   26.1708  -22.3100   -9.3164 O   0  0  0  0  0  0  0  0  0  0  0  0
   29.5289  -19.6567   -4.3266 C   0  0  0  0  0  0  0  0  0  0  0  0
   28.4145  -20.3198   -5.0711 C   0  0  0  0  0  0  0  0  0  0  0  0
   28.3912  -19.9418   -6.5361 C   0  0  2  0  0  0  0  0  0  0  0  0
   28.3334  -18.4433   -6.7243 C   0  0  0  0  0  0  0  0  0  0  0  0
   27.2988  -20.6603   -7.2860 C   0  0  2  0  0  0  0  0  0  0  0  0
   27.3354  -20.4252   -8.6992 N   0  0  0  0  0  0  0  0  0  0  0  0
   25.9880  -20.3611   -6.6716 C   0  0  0  0  0  0  0  0  0  0  0  0
   25.5527  -19.1907   -6.7387 O   0  0  0  0  0  0  0  0  0  0  0  0
   22.8332  -21.9098   -7.4557 C   0  0  0  0  0  0  0  0  0  0  0  0
   22.8721  -22.0015   -5.9424 C   0  0  1  0  0  0  0  0  0  0  0  0
   23.3379  -23.4038   -5.5795 C   0  0  0  0  0  0  0  0  0  0  0  0
   23.8971  -21.0182   -5.4289 C   0  0  2  0  0  0  0  0  0  0  0  0
   25.1921  -21.3214   -6.0094 N   0  0  0  0  0  0  0  0  0  0  0  0
   23.9878  -21.0319   -3.9592 C   0  0  0  0  0  0  0  0  0  0  0  0
   25.1331  -21.4581   -3.3268 O   0  0  0  0  0  0  0  0  0  0  0  0
   23.0193  -20.6542   -3.2751 O   0  0  0  0  0  0  0  0  0  0  0  0
  2 13  1  0
  2  1  1  6
  3  2  1  0
  4  5  2  0
  4  3  1  0
  6  5  1  0
  7 12  2  0
  7  6  1  0
  8  7  1  0
  9 10  1  0
  9  8  2  0
 10 11  2  0
 11 12  1  0
 12  4  1  0
 13 14  2  0
 16 15  1  0
 16 17  1  0
 17 18  1  1
 19 17  1  0
 19 20  1  6
 20 13  1  0
 21 19  1  0
 22 21  2  0
 24 23  1  6
 24 26  1  0
 24 25  1  0
 26 27  1  6
 27 21  1  0
 28 26  1  0
 28 29  1  0
 30 28  2  0
M  END
$$$$
