WIV.pdb
     RDKit          3D

 30 31  0  0  1  0  0  0  0  0999 V2000
   24.5424  -19.9383  -17.3011 N   0  0  0  0  0  0  0  0  0  0  0  0
   25.2007  -19.2122  -16.2171 C   0  0  1  0  0  0  0  0  0  0  0  0
   24.2573  -18.1745  -15.6163 C   0  0  0  0  0  0  0  0  0  0  0  0
   24.2735  -16.9322  -16.4307 C   0  0  0  0  0  0  0  0  0  0  0  0
   23.3188  -16.5647  -17.3843 C   0  0  0  0  0  0  0  0  0  0  0  0
   23.6758  -15.3826  -17.9051 N   0  0  0  0  0  0  0  0  0  0  0  0
   24.8163  -14.9261  -17.3614 C   0  0  0  0  0  0  0  0  0  0  0  0
   25.5634  -13.7815  -17.5678 C   0  0  0  0  0  0  0  0  0  0  0  0
   26.7147  -13.5983  -16.8347 C   0  0  0  0  0  0  0  0  0  0  0  0
   27.0908  -14.5523  -15.9210 C   0  0  0  0  0  0  0  0  0  0  0  0
   26.3395  -15.6879  -15.7237 C   0  0  0  0  0  0  0  0  0  0  0  0
   25.1879  -15.9000  -16.4378 C   0  0  0  0  0  0  0  0  0  0  0  0
   25.6487  -20.1408  -15.1499 C   0  0  0  0  0  0  0  0  0  0  0  0
   24.9846  -21.1511  -14.9079 O   0  0  0  0  0  0  0  0  0  0  0  0
   30.4954  -21.1053  -11.3164 C   0  0  0  0  0  0  0  0  0  0  0  0
   29.0528  -21.2573  -11.6790 C   0  0  0  0  0  0  0  0  0  0  0  0
   28.6710  -20.4371  -12.8919 C   0  0  2  0  0  0  0  0  0  0  0  0
   29.1289  -19.0027  -12.7616 C   0  0  0  0  0  0  0  0  0  0  0  0
   27.2010  -20.5473  -13.2066 C   0  0  2  0  0  0  0  0  0  0  0  0
   26.8298  -19.8703  -14.4138 N   0  0  0  0  0  0  0  0  0  0  0  0
   26.4042  -20.1371  -12.0309 C   0  0  0  0  0  0  0  0  0  0  0  0
   26.3679  -18.9238  -11.7307 O   0  0  0  0  0  0  0  0  0  0  0  0
   23.2086  -22.3904  -10.5958 C   0  0  0  0  0  0  0  0  0  0  0  0
   23.3885  -20.8915  -10.4520 C   0  0  1  0  0  0  0  0  0  0  0  0
   22.5351  -20.4374   -9.2770 C   0  0  0  0  0  0  0  0  0  0  0  0
   24.8348  -20.6123  -10.1180 C   0  0  2  0  0  0  0  0  0  0  0  0
   25.6770  -21.0367  -11.2209 N   0  0  0  0  0  0  0  0  0  0  0  0
   25.2544  -21.2833   -8.8761 C   0  0  0  0  0  0  0  0  0  0  0  0
   24.8199  -20.8346   -7.6501 O   0  0  0  0  0  0  0  0  0  0  0  0
   26.0116  -22.2694   -8.9301 O   0  0  0  0  0  0  0  0  0  0  0  0
  2 13  1  0
  2  1  1  6
  3  2  1  0
  4  5  2  0
  4  3  1  0
  6  5  1  0
  7 12  2  0
  7  6  1  0
  8  7  1  0
  9 10  1  0
  9  8  2  0
 10 11  2  0
 11 12  1  0
 12  4  1  0
 13 14  2  0
 16 15  1  0
 16 17  1  0
 17 18  1  1
 19 17  1  0
 19 20  1  6
 20 13  1  0
 21 19  1  0
 22 21  2  0
 24 23  1  1
 24 26  1  0
 24 25  1  0
 26 27  1  6
 27 21  1  0
 28 26  1  0
 28 29  1  0
 30 28  2  0
M  END
$$$$
