PQR.pdb
     RDKit          3D

 28 28  0  0  1  0  0  0  0  0999 V2000
   20.9880  -20.9291  -13.0045 N   0  0  0  0  0  0  0  0  0  0  0  0
   20.0215  -21.9502  -13.3324 C   0  0  0  0  0  0  0  0  0  0  0  0
   19.7831  -21.8657  -14.8206 C   0  0  0  0  0  0  0  0  0  0  0  0
   20.7436  -20.7666  -15.2878 C   0  0  0  0  0  0  0  0  0  0  0  0
   21.7907  -20.8404  -14.1912 C   0  0  1  0  0  0  0  0  0  0  0  0
   22.6680  -19.6395  -14.1739 C   0  0  0  0  0  0  0  0  0  0  0  0
   23.4389  -19.4967  -13.1922 O   0  0  0  0  0  0  0  0  0  0  0  0
   27.5963  -19.0150  -16.0629 N   0  0  0  0  0  0  0  0  0  0  0  0
   27.3431  -17.6029  -15.9377 C   0  0  0  0  0  0  0  0  0  0  0  0
   28.3184  -16.8324  -16.0800 O   0  0  0  0  0  0  0  0  0  0  0  0
   25.9941  -17.1023  -15.6559 C   0  0  0  0  0  0  0  0  0  0  0  0
   24.9371  -18.1344  -15.4974 C   0  0  0  0  0  0  0  0  0  0  0  0
   23.5516  -17.6221  -15.2755 C   0  0  2  0  0  0  0  0  0  0  0  0
   22.5997  -18.7181  -15.2513 N   0  0  0  0  0  0  0  0  0  0  0  0
   23.2038  -16.7758  -16.4748 C   0  0  0  0  0  0  0  0  0  0  0  0
   23.1500  -17.2858  -17.6207 O   0  0  0  0  0  0  0  0  0  0  0  0
   19.3142   -8.6135  -17.1465 N   0  0  0  0  0  0  0  0  0  0  0  0
   19.3868   -9.1891  -18.4428 C   0  0  0  0  0  0  0  0  0  0  0  0
   18.8757   -8.6204  -19.4871 N   0  0  0  0  0  0  0  0  0  0  0  0
   20.0257  -10.4324  -18.6976 N   0  0  0  0  0  0  0  0  0  0  0  0
   20.5869  -11.2409  -17.6963 C   0  0  0  0  0  0  0  0  0  0  0  0
   21.3450  -12.4397  -18.1042 C   0  0  0  0  0  0  0  0  0  0  0  0
   21.7885  -13.2732  -16.9272 C   0  0  0  0  0  0  0  0  0  0  0  0
   22.4434  -14.5431  -17.3920 C   0  0  2  0  0  0  0  0  0  0  0  0
   22.9304  -15.3877  -16.3393 N   0  0  0  0  0  0  0  0  0  0  0  0
   23.5518  -14.2712  -18.3439 C   0  0  0  0  0  0  0  0  0  0  0  0
   23.3639  -14.2885  -19.7234 O   0  0  0  0  0  0  0  0  0  0  0  0
   24.6837  -14.0204  -17.8833 O   0  0  0  0  0  0  0  0  0  0  0  0
  1  2  1  0
  3  2  1  0
  4  5  1  0
  4  3  1  0
  5  1  1  0
  6  7  2  0
  5  6  1  1
  9  8  1  0
 10  9  2  0
 11  9  1  0
 13 12  1  6
 12 11  1  0
 13 14  1  0
 14  6  1  0
 15 25  1  0
 15 13  1  0
 16 15  2  0
 18 19  2  0
 18 17  1  0
 20 18  1  0
 21 20  1  0
 22 21  1  0
 24 23  1  1
 23 22  1  0
 24 25  1  0
 26 24  1  0
 27 26  1  0
 28 26  2  0
M  END
$$$$
