PQR.pdb
     RDKit          3D

 28 28  0  0  1  0  0  0  0  0999 V2000
   29.2390  -18.9252  -17.8012 N   0  0  0  0  0  0  0  0  0  0  0  0
   30.3245  -18.2308  -18.4520 C   0  0  0  0  0  0  0  0  0  0  0  0
   30.2808  -18.6188  -19.9101 C   0  0  0  0  0  0  0  0  0  0  0  0
   29.0482  -19.5234  -20.0160 C   0  0  0  0  0  0  0  0  0  0  0  0
   28.2435  -19.0214  -18.8308 C   0  0  1  0  0  0  0  0  0  0  0  0
   27.1532  -19.9612  -18.4565 C   0  0  0  0  0  0  0  0  0  0  0  0
   26.0551  -19.8461  -19.0557 O   0  0  0  0  0  0  0  0  0  0  0  0
   25.9028  -25.6427  -15.6193 N   0  0  0  0  0  0  0  0  0  0  0  0
   26.2861  -25.5532  -17.0044 C   0  0  0  0  0  0  0  0  0  0  0  0
   26.1651  -26.5865  -17.6991 O   0  0  0  0  0  0  0  0  0  0  0  0
   26.7949  -24.2973  -17.5648 C   0  0  0  0  0  0  0  0  0  0  0  0
   26.8766  -23.1507  -16.6233 C   0  0  0  0  0  0  0  0  0  0  0  0
   26.3224  -21.8559  -17.1209 C   0  0  2  0  0  0  0  0  0  0  0  0
   27.3949  -20.9354  -17.4529 N   0  0  0  0  0  0  0  0  0  0  0  0
   25.5642  -21.2377  -15.9725 C   0  0  0  0  0  0  0  0  0  0  0  0
   26.1183  -20.3980  -15.2215 O   0  0  0  0  0  0  0  0  0  0  0  0
   18.8519  -19.2856  -15.5709 N   0  0  0  0  0  0  0  0  0  0  0  0
   19.0178  -18.3172  -14.5453 C   0  0  0  0  0  0  0  0  0  0  0  0
   18.1491  -18.1467  -13.6011 N   0  0  0  0  0  0  0  0  0  0  0  0
   20.1485  -17.4598  -14.4727 N   0  0  0  0  0  0  0  0  0  0  0  0
   21.3965  -17.7645  -15.0394 C   0  0  0  0  0  0  0  0  0  0  0  0
   22.3147  -18.6409  -14.2865 C   0  0  0  0  0  0  0  0  0  0  0  0
   23.3020  -19.3502  -15.1802 C   0  0  0  0  0  0  0  0  0  0  0  0
   23.3110  -20.8257  -14.8966 C   0  0  2  0  0  0  0  0  0  0  0  0
   24.2118  -21.5885  -15.7123 N   0  0  0  0  0  0  0  0  0  0  0  0
   21.9496  -21.4122  -15.0031 C   0  0  0  0  0  0  0  0  0  0  0  0
   21.0948  -21.5029  -13.9078 O   0  0  0  0  0  0  0  0  0  0  0  0
   21.5688  -21.8345  -16.1135 O   0  0  0  0  0  0  0  0  0  0  0  0
  1  2  1  0
  3  2  1  0
  4  5  1  0
  4  3  1  0
  5  1  1  0
  6  7  2  0
  5  6  1  1
  9  8  1  0
 10  9  2  0
 11  9  1  0
 13 12  1  1
 12 11  1  0
 13 14  1  0
 14  6  1  0
 15 25  1  0
 15 13  1  0
 16 15  2  0
 18 19  2  0
 18 17  1  0
 20 18  1  0
 21 20  1  0
 22 21  1  0
 24 23  1  6
 23 22  1  0
 24 25  1  0
 26 24  1  0
 27 26  1  0
 28 26  2  0
M  END
$$$$
