PQR.pdb
     RDKit          3D

 28 28  0  0  1  0  0  0  0  0999 V2000
   25.4489  -17.7748  -17.9401 N   0  0  0  0  0  0  0  0  0  0  0  0
   26.2428  -16.9474  -18.8173 C   0  0  0  0  0  0  0  0  0  0  0  0
   27.2648  -17.8502  -19.4647 C   0  0  0  0  0  0  0  0  0  0  0  0
   26.9231  -19.2433  -18.9249 C   0  0  0  0  0  0  0  0  0  0  0  0
   25.4536  -19.0516  -18.5961 C   0  0  1  0  0  0  0  0  0  0  0  0
   24.9335  -20.1274  -17.7106 C   0  0  0  0  0  0  0  0  0  0  0  0
   24.8608  -21.2878  -18.1865 O   0  0  0  0  0  0  0  0  0  0  0  0
   27.7992  -20.0655  -13.5862 N   0  0  0  0  0  0  0  0  0  0  0  0
   27.7594  -21.2313  -14.4307 C   0  0  0  0  0  0  0  0  0  0  0  0
   28.8558  -21.7301  -14.7688 O   0  0  0  0  0  0  0  0  0  0  0  0
   26.4808  -21.8001  -14.8684 C   0  0  0  0  0  0  0  0  0  0  0  0
   25.2619  -21.0642  -14.4435 C   0  0  0  0  0  0  0  0  0  0  0  0
   24.2058  -20.8925  -15.4859 C   0  0  2  0  0  0  0  0  0  0  0  0
   24.5469  -19.8037  -16.3838 N   0  0  0  0  0  0  0  0  0  0  0  0
   22.9470  -20.4781  -14.7651 C   0  0  0  0  0  0  0  0  0  0  0  0
   22.7691  -19.2814  -14.4300 O   0  0  0  0  0  0  0  0  0  0  0  0
   19.1386  -26.2428  -10.5310 N   0  0  0  0  0  0  0  0  0  0  0  0
   18.9891  -26.2145  -11.9431 C   0  0  0  0  0  0  0  0  0  0  0  0
   18.3054  -27.1035  -12.5892 N   0  0  0  0  0  0  0  0  0  0  0  0
   19.5763  -25.2099  -12.7587 N   0  0  0  0  0  0  0  0  0  0  0  0
   20.1086  -24.0110  -12.2582 C   0  0  0  0  0  0  0  0  0  0  0  0
   19.3807  -22.7547  -12.5231 C   0  0  0  0  0  0  0  0  0  0  0  0
   19.6535  -22.2066  -13.9022 C   0  0  0  0  0  0  0  0  0  0  0  0
   20.6751  -21.1064  -13.8444 C   0  0  2  0  0  0  0  0  0  0  0  0
   21.9368  -21.4261  -14.4482 N   0  0  0  0  0  0  0  0  0  0  0  0
   20.9098  -20.6495  -12.4498 C   0  0  0  0  0  0  0  0  0  0  0  0
   19.9687  -19.9013  -11.7476 O   0  0  0  0  0  0  0  0  0  0  0  0
   21.9876  -20.9507  -11.8985 O   0  0  0  0  0  0  0  0  0  0  0  0
  1  2  1  0
  3  2  1  0
  4  5  1  0
  4  3  1  0
  5  1  1  0
  6  7  2  0
  5  6  1  1
  9  8  1  0
 10  9  2  0
 11  9  1  0
 13 12  1  1
 12 11  1  0
 13 14  1  0
 14  6  1  0
 15 25  1  0
 15 13  1  0
 16 15  2  0
 18 19  2  0
 18 17  1  0
 20 18  1  0
 21 20  1  0
 22 21  1  0
 24 23  1  1
 23 22  1  0
 24 25  1  0
 26 24  1  0
 27 26  1  0
 28 26  2  0
M  END
$$$$
