PQR.pdb
     RDKit          3D

 28 28  0  0  1  0  0  0  0  0999 V2000
   18.4229  -15.2825    3.1111 N   0  0  0  0  0  0  0  0  0  0  0  0
   18.9130  -13.9867    2.7048 C   0  0  0  0  0  0  0  0  0  0  0  0
   17.7060  -13.1564    2.3409 C   0  0  0  0  0  0  0  0  0  0  0  0
   16.5184  -14.0763    2.6447 C   0  0  0  0  0  0  0  0  0  0  0  0
   17.1424  -14.9857    3.6878 C   0  0  1  0  0  0  0  0  0  0  0  0
   16.3390  -16.2178    3.9082 C   0  0  0  0  0  0  0  0  0  0  0  0
   15.2220  -16.0910    4.4689 O   0  0  0  0  0  0  0  0  0  0  0  0
   16.4358  -21.6258    0.5986 N   0  0  0  0  0  0  0  0  0  0  0  0
   15.5893  -21.8918    1.7328 C   0  0  0  0  0  0  0  0  0  0  0  0
   14.9463  -22.9649    1.7272 O   0  0  0  0  0  0  0  0  0  0  0  0
   15.4944  -20.9367    2.8414 C   0  0  0  0  0  0  0  0  0  0  0  0
   16.2223  -19.6543    2.6594 C   0  0  0  0  0  0  0  0  0  0  0  0
   16.0880  -18.6635    3.7691 C   0  0  2  0  0  0  0  0  0  0  0  0
   16.8595  -17.4676    3.4820 N   0  0  0  0  0  0  0  0  0  0  0  0
   16.7084  -19.2933    4.9915 C   0  0  0  0  0  0  0  0  0  0  0  0
   17.7359  -18.7950    5.5133 O   0  0  0  0  0  0  0  0  0  0  0  0
   16.4461  -17.8109   12.8433 N   0  0  0  0  0  0  0  0  0  0  0  0
   17.5469  -17.8843   11.9488 C   0  0  0  0  0  0  0  0  0  0  0  0
   18.5835  -17.1166   12.0553 N   0  0  0  0  0  0  0  0  0  0  0  0
   17.5992  -18.8049   10.8677 N   0  0  0  0  0  0  0  0  0  0  0  0
   16.5020  -19.5693   10.4400 C   0  0  0  0  0  0  0  0  0  0  0  0
   16.6970  -20.5146    9.3234 C   0  0  0  0  0  0  0  0  0  0  0  0
   16.2861  -19.9329    7.9932 C   0  0  0  0  0  0  0  0  0  0  0  0
   16.4611  -20.9429    6.8946 C   0  0  2  0  0  0  0  0  0  0  0  0
   16.1497  -20.4601    5.5799 N   0  0  0  0  0  0  0  0  0  0  0  0
   15.6742  -22.1765    7.1543 C   0  0  0  0  0  0  0  0  0  0  0  0
   16.0705  -23.1232    8.0952 O   0  0  0  0  0  0  0  0  0  0  0  0
   14.6261  -22.3618    6.5035 O   0  0  0  0  0  0  0  0  0  0  0  0
  1  2  1  0
  3  2  1  0
  4  5  1  0
  4  3  1  0
  5  1  1  0
  6  7  2  0
  5  6  1  6
  9  8  1  0
 10  9  2  0
 11  9  1  0
 13 12  1  6
 12 11  1  0
 13 14  1  0
 14  6  1  0
 15 25  1  0
 15 13  1  0
 16 15  2  0
 18 19  2  0
 18 17  1  0
 20 18  1  0
 21 20  1  0
 22 21  1  0
 24 23  1  1
 23 22  1  0
 24 25  1  0
 26 24  1  0
 27 26  1  0
 28 26  2  0
M  END
$$$$
