PQR.pdb
     RDKit          3D

 28 28  0  0  1  0  0  0  0  0999 V2000
   23.9613  -12.2373  -16.7577 N   0  0  0  0  0  0  0  0  0  0  0  0
   24.3822  -13.6159  -16.8366 C   0  0  0  0  0  0  0  0  0  0  0  0
   25.6110  -13.7489  -15.9699 C   0  0  0  0  0  0  0  0  0  0  0  0
   25.7868  -12.3539  -15.3600 C   0  0  0  0  0  0  0  0  0  0  0  0
   24.3584  -11.8455  -15.4351 C   0  0  1  0  0  0  0  0  0  0  0  0
   24.2788  -10.3719  -15.2502 C   0  0  0  0  0  0  0  0  0  0  0  0
   24.6481   -9.9038  -14.1444 O   0  0  0  0  0  0  0  0  0  0  0  0
   25.5471   -5.8724  -19.3102 N   0  0  0  0  0  0  0  0  0  0  0  0
   24.8849   -5.1712  -18.2408 C   0  0  0  0  0  0  0  0  0  0  0  0
   24.9033   -3.9209  -18.2794 O   0  0  0  0  0  0  0  0  0  0  0  0
   24.2201   -5.9039  -17.1586 C   0  0  0  0  0  0  0  0  0  0  0  0
   24.2362   -7.3854  -17.2703 C   0  0  0  0  0  0  0  0  0  0  0  0
   23.6936   -8.1350  -16.0977 C   0  0  2  0  0  0  0  0  0  0  0  0
   23.7964   -9.5668  -16.3151 N   0  0  0  0  0  0  0  0  0  0  0  0
   22.2213   -7.8156  -16.0211 C   0  0  0  0  0  0  0  0  0  0  0  0
   21.3878   -8.4909  -16.6734 O   0  0  0  0  0  0  0  0  0  0  0  0
   16.8331  -10.5661  -10.5683 N   0  0  0  0  0  0  0  0  0  0  0  0
   16.0738   -9.6928  -11.3917 C   0  0  0  0  0  0  0  0  0  0  0  0
   14.7831   -9.7536  -11.4675 N   0  0  0  0  0  0  0  0  0  0  0  0
   16.6682   -8.6838  -12.1964 N   0  0  0  0  0  0  0  0  0  0  0  0
   18.0009   -8.7211  -12.6366 C   0  0  0  0  0  0  0  0  0  0  0  0
   18.4957   -7.6105  -13.4732 C   0  0  0  0  0  0  0  0  0  0  0  0
   19.9272   -7.8059  -13.9083 C   0  0  0  0  0  0  0  0  0  0  0  0
   20.4005   -6.6336  -14.7204 C   0  0  2  0  0  0  0  0  0  0  0  0
   21.7428   -6.7481  -15.2142 N   0  0  0  0  0  0  0  0  0  0  0  0
   20.2702   -5.3582  -13.9687 C   0  0  0  0  0  0  0  0  0  0  0  0
   19.0404   -4.7342  -13.7769 O   0  0  0  0  0  0  0  0  0  0  0  0
   21.3013   -4.8370  -13.4979 O   0  0  0  0  0  0  0  0  0  0  0  0
  1  2  1  0
  3  2  1  0
  4  5  1  0
  4  3  1  0
  5  1  1  0
  6  7  2  0
  5  6  1  6
  9  8  1  0
 10  9  2  0
 11  9  1  0
 13 12  1  6
 12 11  1  0
 13 14  1  0
 14  6  1  0
 15 25  1  0
 15 13  1  0
 16 15  2  0
 18 19  2  0
 18 17  1  0
 20 18  1  0
 21 20  1  0
 22 21  1  0
 24 23  1  1
 23 22  1  0
 24 25  1  0
 26 24  1  0
 27 26  1  0
 28 26  2  0
M  END
$$$$
