PQR.pdb
     RDKit          3D

 28 28  0  0  1  0  0  0  0  0999 V2000
   29.5261  -22.0904  -11.8348 N   0  0  0  0  0  0  0  0  0  0  0  0
   30.8046  -22.4264  -11.2545 C   0  0  0  0  0  0  0  0  0  0  0  0
   31.3582  -21.1586  -10.6507 C   0  0  0  0  0  0  0  0  0  0  0  0
   30.2536  -20.1228  -10.8868 C   0  0  0  0  0  0  0  0  0  0  0  0
   29.0454  -21.0361  -10.9876 C   0  0  1  0  0  0  0  0  0  0  0  0
   27.8699  -20.3452  -11.5816 C   0  0  0  0  0  0  0  0  0  0  0  0
   27.4300  -19.3302  -10.9863 O   0  0  0  0  0  0  0  0  0  0  0  0
   27.5948  -18.3434  -17.1803 N   0  0  0  0  0  0  0  0  0  0  0  0
   26.3298  -17.9423  -16.6212 C   0  0  0  0  0  0  0  0  0  0  0  0
   25.6874  -17.0611  -17.2344 O   0  0  0  0  0  0  0  0  0  0  0  0
   25.8269  -18.5495  -15.3849 C   0  0  0  0  0  0  0  0  0  0  0  0
   26.7384  -19.5136  -14.7161 C   0  0  0  0  0  0  0  0  0  0  0  0
   26.2546  -20.0799  -13.4213 C   0  0  2  0  0  0  0  0  0  0  0  0
   27.3020  -20.8534  -12.7791 N   0  0  0  0  0  0  0  0  0  0  0  0
   25.1480  -21.0486  -13.7571 C   0  0  0  0  0  0  0  0  0  0  0  0
   25.2508  -22.2630  -13.4555 O   0  0  0  0  0  0  0  0  0  0  0  0
   20.3473  -23.1733   -8.6098 N   0  0  0  0  0  0  0  0  0  0  0  0
   19.4324  -23.0154   -9.6846 C   0  0  0  0  0  0  0  0  0  0  0  0
   18.3292  -23.6875   -9.7648 N   0  0  0  0  0  0  0  0  0  0  0  0
   19.6535  -22.1084  -10.7558 N   0  0  0  0  0  0  0  0  0  0  0  0
   20.8860  -21.4856  -11.0092 C   0  0  0  0  0  0  0  0  0  0  0  0
   20.9673  -20.5137  -12.1169 C   0  0  0  0  0  0  0  0  0  0  0  0
   22.3875  -20.2488  -12.5523 C   0  0  0  0  0  0  0  0  0  0  0  0
   22.6348  -20.8050  -13.9260 C   0  0  2  0  0  0  0  0  0  0  0  0
   23.9683  -20.6143  -14.4200 N   0  0  0  0  0  0  0  0  0  0  0  0
   21.6707  -20.2625  -14.9183 C   0  0  0  0  0  0  0  0  0  0  0  0
   20.5632  -20.9887  -15.3481 O   0  0  0  0  0  0  0  0  0  0  0  0
   21.8678  -19.1187  -15.3758 O   0  0  0  0  0  0  0  0  0  0  0  0
  1  2  1  0
  3  2  1  0
  4  5  1  0
  4  3  1  0
  5  1  1  0
  6  7  2  0
  5  6  1  6
  9  8  1  0
 10  9  2  0
 11  9  1  0
 13 12  1  6
 12 11  1  0
 13 14  1  0
 14  6  1  0
 15 25  1  0
 15 13  1  0
 16 15  2  0
 18 19  2  0
 18 17  1  0
 20 18  1  0
 21 20  1  0
 22 21  1  0
 24 23  1  1
 23 22  1  0
 24 25  1  0
 26 24  1  0
 27 26  1  0
 28 26  2  0
M  END
$$$$
