PQR.pdb
     RDKit          3D

 28 28  0  0  1  0  0  0  0  0999 V2000
   30.5265  -22.0709  -11.8751 N   0  0  0  0  0  0  0  0  0  0  0  0
   31.4702  -22.6163  -10.9285 C   0  0  0  0  0  0  0  0  0  0  0  0
   31.2591  -21.8817   -9.6268 C   0  0  0  0  0  0  0  0  0  0  0  0
   30.0833  -20.9427   -9.9179 C   0  0  0  0  0  0  0  0  0  0  0  0
   29.4118  -21.6960  -11.0520 C   0  0  1  0  0  0  0  0  0  0  0  0
   28.4425  -20.8448  -11.7922 C   0  0  0  0  0  0  0  0  0  0  0  0
   27.4287  -20.4418  -11.1694 O   0  0  0  0  0  0  0  0  0  0  0  0
   29.7334  -17.6003  -17.1702 N   0  0  0  0  0  0  0  0  0  0  0  0
   28.3971  -17.2240  -16.7874 C   0  0  0  0  0  0  0  0  0  0  0  0
   27.8715  -16.2725  -17.4067 O   0  0  0  0  0  0  0  0  0  0  0  0
   27.6930  -17.9349  -15.7155 C   0  0  0  0  0  0  0  0  0  0  0  0
   28.4868  -18.9518  -14.9785 C   0  0  0  0  0  0  0  0  0  0  0  0
   27.8042  -19.5981  -13.8176 C   0  0  2  0  0  0  0  0  0  0  0  0
   28.6992  -20.5271  -13.1516 N   0  0  0  0  0  0  0  0  0  0  0  0
   26.6719  -20.4200  -14.3816 C   0  0  0  0  0  0  0  0  0  0  0  0
   26.7220  -21.6742  -14.3589 O   0  0  0  0  0  0  0  0  0  0  0  0
   21.2918  -24.0933  -13.4896 N   0  0  0  0  0  0  0  0  0  0  0  0
   20.2428  -23.3450  -12.8922 C   0  0  0  0  0  0  0  0  0  0  0  0
   19.0340  -23.7968  -12.7927 N   0  0  0  0  0  0  0  0  0  0  0  0
   20.4354  -22.0432  -12.3561 N   0  0  0  0  0  0  0  0  0  0  0  0
   21.3619  -21.1191  -12.8649 C   0  0  0  0  0  0  0  0  0  0  0  0
   22.4758  -21.6236  -13.6913 C   0  0  0  0  0  0  0  0  0  0  0  0
   23.7163  -20.7727  -13.5736 C   0  0  0  0  0  0  0  0  0  0  0  0
   24.2027  -20.3516  -14.9314 C   0  0  2  0  0  0  0  0  0  0  0  0
   25.5268  -19.7995  -14.9504 N   0  0  0  0  0  0  0  0  0  0  0  0
   23.2696  -19.3894  -15.5734 C   0  0  0  0  0  0  0  0  0  0  0  0
   22.1708  -19.8086  -16.3187 O   0  0  0  0  0  0  0  0  0  0  0  0
   23.4856  -18.1685  -15.4349 O   0  0  0  0  0  0  0  0  0  0  0  0
  1  2  1  0
  3  2  1  0
  4  5  1  0
  4  3  1  0
  5  1  1  0
  6  7  2  0
  5  6  1  6
  9  8  1  0
 10  9  2  0
 11  9  1  0
 13 12  1  6
 12 11  1  0
 13 14  1  0
 14  6  1  0
 15 25  1  0
 15 13  1  0
 16 15  2  0
 18 19  2  0
 18 17  1  0
 20 18  1  0
 21 20  1  0
 22 21  1  0
 24 23  1  1
 23 22  1  0
 24 25  1  0
 26 24  1  0
 27 26  1  0
 28 26  2  0
M  END
$$$$
