PQR.pdb
     RDKit          3D

 28 28  0  0  1  0  0  0  0  0999 V2000
   16.7207  -13.7302    4.5694 N   0  0  0  0  0  0  0  0  0  0  0  0
   15.8307  -13.4185    3.4763 C   0  0  0  0  0  0  0  0  0  0  0  0
   16.6938  -13.2009    2.2572 C   0  0  0  0  0  0  0  0  0  0  0  0
   18.1154  -13.4845    2.7544 C   0  0  0  0  0  0  0  0  0  0  0  0
   17.8130  -14.4025    3.9249 C   0  0  1  0  0  0  0  0  0  0  0  0
   18.9804  -14.5529    4.8341 C   0  0  0  0  0  0  0  0  0  0  0  0
   19.9693  -15.2003    4.4084 O   0  0  0  0  0  0  0  0  0  0  0  0
   20.4765  -10.7935    9.7697 N   0  0  0  0  0  0  0  0  0  0  0  0
   21.4452  -11.8588    9.7957 C   0  0  0  0  0  0  0  0  0  0  0  0
   22.3831  -11.7588   10.6176 O   0  0  0  0  0  0  0  0  0  0  0  0
   21.3254  -13.0071    8.8918 C   0  0  0  0  0  0  0  0  0  0  0  0
   20.1666  -12.9852    7.9622 C   0  0  0  0  0  0  0  0  0  0  0  0
   20.0870  -14.1168    6.9903 C   0  0  2  0  0  0  0  0  0  0  0  0
   18.9301  -13.9671    6.1260 N   0  0  0  0  0  0  0  0  0  0  0  0
   19.8609  -15.3696    7.7996 C   0  0  0  0  0  0  0  0  0  0  0  0
   18.7544  -15.5788    8.3547 O   0  0  0  0  0  0  0  0  0  0  0  0
   19.9587  -23.3161    4.7604 N   0  0  0  0  0  0  0  0  0  0  0  0
   19.0252  -22.2654    4.9649 C   0  0  0  0  0  0  0  0  0  0  0  0
   17.9643  -22.1247    4.2371 N   0  0  0  0  0  0  0  0  0  0  0  0
   19.1800  -21.2866    5.9832 N   0  0  0  0  0  0  0  0  0  0  0  0
   20.3615  -21.1076    6.7204 C   0  0  0  0  0  0  0  0  0  0  0  0
   20.3775  -20.0845    7.7840 C   0  0  0  0  0  0  0  0  0  0  0  0
   20.6556  -18.7001    7.2524 C   0  0  0  0  0  0  0  0  0  0  0  0
   20.6775  -17.6960    8.3699 C   0  0  2  0  0  0  0  0  0  0  0  0
   20.8885  -16.3391    7.9541 N   0  0  0  0  0  0  0  0  0  0  0  0
   21.6878  -18.0469    9.4019 C   0  0  0  0  0  0  0  0  0  0  0  0
   21.5589  -19.1721   10.2117 O   0  0  0  0  0  0  0  0  0  0  0  0
   22.6801  -17.3036    9.5400 O   0  0  0  0  0  0  0  0  0  0  0  0
  1  2  1  0
  3  2  1  0
  4  5  1  0
  4  3  1  0
  5  1  1  0
  6  7  2  0
  5  6  1  1
  9  8  1  0
 10  9  2  0
 11  9  1  0
 13 12  1  1
 12 11  1  0
 13 14  1  0
 14  6  1  0
 15 25  1  0
 15 13  1  0
 16 15  2  0
 18 19  2  0
 18 17  1  0
 20 18  1  0
 21 20  1  0
 22 21  1  0
 24 23  1  6
 23 22  1  0
 24 25  1  0
 26 24  1  0
 27 26  1  0
 28 26  2  0
M  END
$$$$
