PQR.pdb
     RDKit          3D

 28 28  0  0  1  0  0  0  0  0999 V2000
   28.2813  -19.3230  -17.3093 N   0  0  0  0  0  0  0  0  0  0  0  0
   29.2162  -18.8878  -18.3196 C   0  0  0  0  0  0  0  0  0  0  0  0
   28.4049  -18.2515  -19.4221 C   0  0  0  0  0  0  0  0  0  0  0  0
   26.9639  -18.3125  -18.9039 C   0  0  0  0  0  0  0  0  0  0  0  0
   27.2177  -18.3642  -17.4082 C   0  0  1  0  0  0  0  0  0  0  0  0
   26.0132  -18.7980  -16.6511 C   0  0  0  0  0  0  0  0  0  0  0  0
   25.0152  -18.0350  -16.6595 O   0  0  0  0  0  0  0  0  0  0  0  0
   24.0234  -24.5968  -16.3578 N   0  0  0  0  0  0  0  0  0  0  0  0
   25.2414  -24.2713  -15.6619 C   0  0  0  0  0  0  0  0  0  0  0  0
   26.0177  -25.2155  -15.3958 O   0  0  0  0  0  0  0  0  0  0  0  0
   25.5470  -22.8870  -15.2871 C   0  0  0  0  0  0  0  0  0  0  0  0
   24.5058  -21.8792  -15.6152 C   0  0  0  0  0  0  0  0  0  0  0  0
   24.8356  -20.4634  -15.2714 C   0  0  2  0  0  0  0  0  0  0  0  0
   26.0403  -20.0379  -15.9608 N   0  0  0  0  0  0  0  0  0  0  0  0
   25.1510  -20.4364  -13.7964 C   0  0  0  0  0  0  0  0  0  0  0  0
   26.3419  -20.4341  -13.3993 O   0  0  0  0  0  0  0  0  0  0  0  0
   19.8477  -22.1696   -6.7562 N   0  0  0  0  0  0  0  0  0  0  0  0
   20.3054  -22.7894   -7.9493 C   0  0  0  0  0  0  0  0  0  0  0  0
   19.6907  -23.7891   -8.4952 N   0  0  0  0  0  0  0  0  0  0  0  0
   21.4722  -22.3626   -8.6389 N   0  0  0  0  0  0  0  0  0  0  0  0
   22.1702  -21.1828   -8.3354 C   0  0  0  0  0  0  0  0  0  0  0  0
   23.3585  -20.8425   -9.1420 C   0  0  0  0  0  0  0  0  0  0  0  0
   23.0504  -20.7468  -10.6159 C   0  0  0  0  0  0  0  0  0  0  0  0
   24.3127  -20.5761  -11.4127 C   0  0  2  0  0  0  0  0  0  0  0  0
   24.1144  -20.4137  -12.8245 N   0  0  0  0  0  0  0  0  0  0  0  0
   25.2604  -21.6979  -11.1847 C   0  0  0  0  0  0  0  0  0  0  0  0
   25.0454  -22.9678  -11.7135 O   0  0  0  0  0  0  0  0  0  0  0  0
   26.2788  -21.4859  -10.4961 O   0  0  0  0  0  0  0  0  0  0  0  0
  1  2  1  0
  3  2  1  0
  4  5  1  0
  4  3  1  0
  5  1  1  0
  6  7  2  0
  5  6  1  1
  9  8  1  0
 10  9  2  0
 11  9  1  0
 13 12  1  6
 12 11  1  0
 13 14  1  0
 14  6  1  0
 15 25  1  0
 15 13  1  0
 16 15  2  0
 18 19  2  0
 18 17  1  0
 20 18  1  0
 21 20  1  0
 22 21  1  0
 24 23  1  1
 23 22  1  0
 24 25  1  0
 26 24  1  0
 27 26  1  0
 28 26  2  0
M  END
$$$$
