PQR.pdb
     RDKit          3D

 28 28  0  0  1  0  0  0  0  0999 V2000
   27.6785  -20.0705  -15.5319 N   0  0  0  0  0  0  0  0  0  0  0  0
   28.9093  -20.1574  -16.2814 C   0  0  0  0  0  0  0  0  0  0  0  0
   29.2238  -21.6255  -16.4381 C   0  0  0  0  0  0  0  0  0  0  0  0
   28.0355  -22.3316  -15.7760 C   0  0  0  0  0  0  0  0  0  0  0  0
   26.9714  -21.2584  -15.9184 C   0  0  1  0  0  0  0  0  0  0  0  0
   25.7995  -21.5124  -15.0385 C   0  0  0  0  0  0  0  0  0  0  0  0
   25.0346  -22.4598  -15.3479 O   0  0  0  0  0  0  0  0  0  0  0  0
   25.5454  -20.5360   -8.8294 N   0  0  0  0  0  0  0  0  0  0  0  0
   24.2039  -20.9202   -9.1849 C   0  0  0  0  0  0  0  0  0  0  0  0
   23.3915  -21.0925   -8.2492 O   0  0  0  0  0  0  0  0  0  0  0  0
   23.8189  -21.0981  -10.5886 C   0  0  0  0  0  0  0  0  0  0  0  0
   24.8797  -20.8280  -11.5933 C   0  0  0  0  0  0  0  0  0  0  0  0
   24.4823  -20.9935  -13.0237 C   0  0  2  0  0  0  0  0  0  0  0  0
   25.5968  -20.6866  -13.9020 N   0  0  0  0  0  0  0  0  0  0  0  0
   23.4180  -19.9610  -13.3013 C   0  0  0  0  0  0  0  0  0  0  0  0
   23.6820  -18.7363  -13.2215 O   0  0  0  0  0  0  0  0  0  0  0  0
   19.0411  -17.8374  -20.2861 N   0  0  0  0  0  0  0  0  0  0  0  0
   18.4164  -17.0926  -19.2507 C   0  0  0  0  0  0  0  0  0  0  0  0
   17.5582  -16.1534  -19.4886 N   0  0  0  0  0  0  0  0  0  0  0  0
   18.6818  -17.3184  -17.8732 N   0  0  0  0  0  0  0  0  0  0  0  0
   19.6469  -18.2230  -17.4025 C   0  0  0  0  0  0  0  0  0  0  0  0
   19.8207  -18.3690  -15.9442 C   0  0  0  0  0  0  0  0  0  0  0  0
   20.9479  -19.3059  -15.5858 C   0  0  0  0  0  0  0  0  0  0  0  0
   21.0715  -19.4428  -14.0947 C   0  0  2  0  0  0  0  0  0  0  0  0
   22.0971  -20.3459  -13.6576 N   0  0  0  0  0  0  0  0  0  0  0  0
   19.7817  -19.8401  -13.4724 C   0  0  0  0  0  0  0  0  0  0  0  0
   18.8799  -18.9031  -12.9752 O   0  0  0  0  0  0  0  0  0  0  0  0
   19.5065  -21.0546  -13.3972 O   0  0  0  0  0  0  0  0  0  0  0  0
  1  2  1  0
  3  2  1  0
  4  5  1  0
  4  3  1  0
  5  1  1  0
  6  7  2  0
  5  6  1  1
  9  8  1  0
 10  9  2  0
 11  9  1  0
 13 12  1  1
 12 11  1  0
 13 14  1  0
 14  6  1  0
 15 25  1  0
 15 13  1  0
 16 15  2  0
 18 19  2  0
 18 17  1  0
 20 18  1  0
 21 20  1  0
 22 21  1  0
 24 23  1  6
 23 22  1  0
 24 25  1  0
 26 24  1  0
 27 26  1  0
 28 26  2  0
M  END
$$$$
