PQR.pdb
     RDKit          3D

 28 28  0  0  1  0  0  0  0  0999 V2000
   28.7432  -22.8609  -18.0883 N   0  0  0  0  0  0  0  0  0  0  0  0
   29.6539  -23.8278  -18.6541 C   0  0  0  0  0  0  0  0  0  0  0  0
   30.7101  -24.0978  -17.6100 C   0  0  0  0  0  0  0  0  0  0  0  0
   30.2669  -23.2559  -16.4085 C   0  0  0  0  0  0  0  0  0  0  0  0
   28.7775  -23.1567  -16.6841 C   0  0  1  0  0  0  0  0  0  0  0  0
   28.1299  -22.0862  -15.8800 C   0  0  0  0  0  0  0  0  0  0  0  0
   28.0763  -22.2459  -14.6350 O   0  0  0  0  0  0  0  0  0  0  0  0
   27.7936  -15.9471  -17.3902 N   0  0  0  0  0  0  0  0  0  0  0  0
   27.0669  -16.0670  -16.1528 C   0  0  0  0  0  0  0  0  0  0  0  0
   26.6791  -15.0074  -15.6124 O   0  0  0  0  0  0  0  0  0  0  0  0
   26.7988  -17.3820  -15.5618 C   0  0  0  0  0  0  0  0  0  0  0  0
   27.3620  -18.5489  -16.2888 C   0  0  0  0  0  0  0  0  0  0  0  0
   27.0210  -19.8924  -15.7319 C   0  0  2  0  0  0  0  0  0  0  0  0
   27.6071  -20.9448  -16.5423 N   0  0  0  0  0  0  0  0  0  0  0  0
   25.5244  -20.0433  -15.8466 C   0  0  0  0  0  0  0  0  0  0  0  0
   24.9944  -20.3186  -16.9508 O   0  0  0  0  0  0  0  0  0  0  0  0
   22.0714  -21.7917   -8.4048 N   0  0  0  0  0  0  0  0  0  0  0  0
   23.3028  -21.1590   -8.7220 C   0  0  0  0  0  0  0  0  0  0  0  0
   24.3222  -21.1795   -7.9248 N   0  0  0  0  0  0  0  0  0  0  0  0
   23.5148  -20.4547   -9.9378 N   0  0  0  0  0  0  0  0  0  0  0  0
   22.5442  -20.3251  -10.9439 C   0  0  0  0  0  0  0  0  0  0  0  0
   22.9593  -19.7912  -12.2558 C   0  0  0  0  0  0  0  0  0  0  0  0
   22.8299  -20.8084  -13.3627 C   0  0  0  0  0  0  0  0  0  0  0  0
   23.2913  -20.2317  -14.6711 C   0  0  2  0  0  0  0  0  0  0  0  0
   24.6811  -19.8781  -14.7146 N   0  0  0  0  0  0  0  0  0  0  0  0
   22.4805  -19.0503  -15.0653 C   0  0  0  0  0  0  0  0  0  0  0  0
   21.1598  -19.1672  -15.4904 O   0  0  0  0  0  0  0  0  0  0  0  0
   23.0083  -17.9212  -15.0105 O   0  0  0  0  0  0  0  0  0  0  0  0
  1  2  1  0
  3  2  1  0
  4  5  1  0
  4  3  1  0
  5  1  1  0
  6  7  2  0
  5  6  1  1
  9  8  1  0
 10  9  2  0
 11  9  1  0
 13 12  1  6
 12 11  1  0
 13 14  1  0
 14  6  1  0
 15 25  1  0
 15 13  1  0
 16 15  2  0
 18 19  2  0
 18 17  1  0
 20 18  1  0
 21 20  1  0
 22 21  1  0
 24 23  1  1
 23 22  1  0
 24 25  1  0
 26 24  1  0
 27 26  1  0
 28 26  2  0
M  END
$$$$
