PQR.pdb
     RDKit          3D

 28 28  0  0  1  0  0  0  0  0999 V2000
   26.4877  -21.1253  -15.2452 N   0  0  0  0  0  0  0  0  0  0  0  0
   27.9035  -21.1370  -15.5273 C   0  0  0  0  0  0  0  0  0  0  0  0
   28.4181  -19.7467  -15.2430 C   0  0  0  0  0  0  0  0  0  0  0  0
   27.1884  -18.9963  -14.7201 C   0  0  0  0  0  0  0  0  0  0  0  0
   26.3687  -20.1590  -14.1905 C   0  0  1  0  0  0  0  0  0  0  0  0
   24.9510  -19.7797  -13.9486 C   0  0  0  0  0  0  0  0  0  0  0  0
   24.7235  -18.9092  -13.0719 O   0  0  0  0  0  0  0  0  0  0  0  0
   20.6208  -18.7899  -18.2045 N   0  0  0  0  0  0  0  0  0  0  0  0
   19.9462  -18.5758  -16.9504 C   0  0  0  0  0  0  0  0  0  0  0  0
   18.8172  -18.0385  -16.9930 O   0  0  0  0  0  0  0  0  0  0  0  0
   20.5672  -18.9759  -15.6838 C   0  0  0  0  0  0  0  0  0  0  0  0
   21.9447  -19.5247  -15.7795 C   0  0  0  0  0  0  0  0  0  0  0  0
   22.5581  -19.9780  -14.4951 C   0  0  2  0  0  0  0  0  0  0  0  0
   23.9287  -20.4072  -14.7074 N   0  0  0  0  0  0  0  0  0  0  0  0
   21.7884  -21.1976  -14.0525 C   0  0  0  0  0  0  0  0  0  0  0  0
   22.1439  -22.3439  -14.4209 O   0  0  0  0  0  0  0  0  0  0  0  0
   17.4751  -24.5876   -8.8543 N   0  0  0  0  0  0  0  0  0  0  0  0
   18.4658  -24.6575   -7.8390 C   0  0  0  0  0  0  0  0  0  0  0  0
   18.4854  -25.5963   -6.9483 N   0  0  0  0  0  0  0  0  0  0  0  0
   19.5134  -23.7050   -7.7199 N   0  0  0  0  0  0  0  0  0  0  0  0
   19.7110  -22.6457   -8.6200 C   0  0  0  0  0  0  0  0  0  0  0  0
   19.6749  -22.9369  -10.0664 C   0  0  0  0  0  0  0  0  0  0  0  0
   20.0308  -21.7365  -10.9084 C   0  0  0  0  0  0  0  0  0  0  0  0
   20.1528  -22.1199  -12.3560 C   0  0  2  0  0  0  0  0  0  0  0  0
   20.6478  -21.0810  -13.2128 N   0  0  0  0  0  0  0  0  0  0  0  0
   18.8639  -22.6209  -12.9005 C   0  0  0  0  0  0  0  0  0  0  0  0
   17.9900  -21.7997  -13.6079 O   0  0  0  0  0  0  0  0  0  0  0  0
   18.5634  -23.8171  -12.7128 O   0  0  0  0  0  0  0  0  0  0  0  0
  1  2  1  0
  3  2  1  0
  4  5  1  0
  4  3  1  0
  5  1  1  0
  6  7  2  0
  5  6  1  6
  9  8  1  0
 10  9  2  0
 11  9  1  0
 13 12  1  6
 12 11  1  0
 13 14  1  0
 14  6  1  0
 15 25  1  0
 15 13  1  0
 16 15  2  0
 18 19  2  0
 18 17  1  0
 20 18  1  0
 21 20  1  0
 22 21  1  0
 24 23  1  1
 23 22  1  0
 24 25  1  0
 26 24  1  0
 27 26  1  0
 28 26  2  0
M  END
$$$$
