PQR.pdb
     RDKit          3D

 28 28  0  0  1  0  0  0  0  0999 V2000
   29.9059  -21.3449  -19.5998 N   0  0  0  0  0  0  0  0  0  0  0  0
   30.3354  -22.5520  -20.2651 C   0  0  0  0  0  0  0  0  0  0  0  0
   30.0591  -23.6955  -19.3193 C   0  0  0  0  0  0  0  0  0  0  0  0
   29.3844  -23.0266  -18.1166 C   0  0  0  0  0  0  0  0  0  0  0  0
   28.8119  -21.7889  -18.7833 C   0  0  1  0  0  0  0  0  0  0  0  0
   28.4095  -20.7553  -17.7925 C   0  0  0  0  0  0  0  0  0  0  0  0
   28.9538  -19.6261  -17.8766 O   0  0  0  0  0  0  0  0  0  0  0  0
   27.8365  -16.5099  -16.2449 N   0  0  0  0  0  0  0  0  0  0  0  0
   26.7136  -16.8148  -15.3965 C   0  0  0  0  0  0  0  0  0  0  0  0
   26.5966  -16.1513  -14.3424 O   0  0  0  0  0  0  0  0  0  0  0  0
   25.7547  -17.8613  -15.7645 C   0  0  0  0  0  0  0  0  0  0  0  0
   26.2860  -18.9631  -16.6079 C   0  0  0  0  0  0  0  0  0  0  0  0
   27.0257  -20.0408  -15.8849 C   0  0  2  0  0  0  0  0  0  0  0  0
   27.4413  -21.0821  -16.8074 N   0  0  0  0  0  0  0  0  0  0  0  0
   26.0451  -20.6766  -14.9311 C   0  0  0  0  0  0  0  0  0  0  0  0
   24.8277  -20.7556  -15.2275 O   0  0  0  0  0  0  0  0  0  0  0  0
   23.0875  -19.9745   -8.1594 N   0  0  0  0  0  0  0  0  0  0  0  0
   23.5478  -21.3071   -7.9872 C   0  0  0  0  0  0  0  0  0  0  0  0
   22.8896  -22.1888   -7.3055 N   0  0  0  0  0  0  0  0  0  0  0  0
   24.7647  -21.7791   -8.5487 N   0  0  0  0  0  0  0  0  0  0  0  0
   25.7412  -20.9415   -9.1110 C   0  0  0  0  0  0  0  0  0  0  0  0
   25.3575  -20.0778  -10.2447 C   0  0  0  0  0  0  0  0  0  0  0  0
   26.2964  -20.2110  -11.4183 C   0  0  0  0  0  0  0  0  0  0  0  0
   25.7166  -21.1232  -12.4619 C   0  0  2  0  0  0  0  0  0  0  0  0
   26.4713  -21.1986  -13.6799 N   0  0  0  0  0  0  0  0  0  0  0  0
   24.3121  -20.7617  -12.7864 C   0  0  0  0  0  0  0  0  0  0  0  0
   23.2460  -21.6142  -12.5125 O   0  0  0  0  0  0  0  0  0  0  0  0
   24.0906  -19.6566  -13.3214 O   0  0  0  0  0  0  0  0  0  0  0  0
  1  2  1  0
  3  2  1  0
  4  5  1  0
  4  3  1  0
  5  1  1  0
  6  7  2  0
  5  6  1  1
  9  8  1  0
 10  9  2  0
 11  9  1  0
 13 12  1  6
 12 11  1  0
 13 14  1  0
 14  6  1  0
 15 25  1  0
 15 13  1  0
 16 15  2  0
 18 19  2  0
 18 17  1  0
 20 18  1  0
 21 20  1  0
 22 21  1  0
 24 23  1  1
 23 22  1  0
 24 25  1  0
 26 24  1  0
 27 26  1  0
 28 26  2  0
M  END
$$$$
