PQR.pdb
     RDKit          3D

 28 28  0  0  1  0  0  0  0  0999 V2000
   31.1086  -22.3190  -11.3783 N   0  0  0  0  0  0  0  0  0  0  0  0
   32.1842  -22.8177  -10.5545 C   0  0  0  0  0  0  0  0  0  0  0  0
   32.0883  -22.1021   -9.2288 C   0  0  0  0  0  0  0  0  0  0  0  0
   30.8386  -21.2263   -9.3702 C   0  0  0  0  0  0  0  0  0  0  0  0
   30.0797  -22.0088  -10.4267 C   0  0  1  0  0  0  0  0  0  0  0  0
   28.9869  -21.2072  -11.0391 C   0  0  0  0  0  0  0  0  0  0  0  0
   28.0338  -20.8612  -10.2974 O   0  0  0  0  0  0  0  0  0  0  0  0
   28.7828  -19.0500  -16.9628 N   0  0  0  0  0  0  0  0  0  0  0  0
   27.8393  -18.2109  -16.2705 C   0  0  0  0  0  0  0  0  0  0  0  0
   27.1635  -17.4180  -16.9632 O   0  0  0  0  0  0  0  0  0  0  0  0
   27.6864  -18.2926  -14.8145 C   0  0  0  0  0  0  0  0  0  0  0  0
   28.6335  -19.1954  -14.1106 C   0  0  0  0  0  0  0  0  0  0  0  0
   28.0734  -19.9563  -12.9536 C   0  0  2  0  0  0  0  0  0  0  0  0
   29.0647  -20.8707  -12.4158 N   0  0  0  0  0  0  0  0  0  0  0  0
   26.9515  -20.8071  -13.4950 C   0  0  0  0  0  0  0  0  0  0  0  0
   27.1947  -21.9138  -14.0356 O   0  0  0  0  0  0  0  0  0  0  0  0
   18.7808  -18.8045  -12.1476 N   0  0  0  0  0  0  0  0  0  0  0  0
   19.2703  -20.0343  -11.6327 C   0  0  0  0  0  0  0  0  0  0  0  0
   18.6118  -20.7397  -10.7701 N   0  0  0  0  0  0  0  0  0  0  0  0
   20.5191  -20.5887  -12.0225 N   0  0  0  0  0  0  0  0  0  0  0  0
   20.7472  -21.2010  -13.2653 C   0  0  0  0  0  0  0  0  0  0  0  0
   22.0820  -21.7711  -13.5330 C   0  0  0  0  0  0  0  0  0  0  0  0
   23.2003  -20.8758  -13.0592 C   0  0  0  0  0  0  0  0  0  0  0  0
   24.4664  -21.1610  -13.8162 C   0  0  2  0  0  0  0  0  0  0  0  0
   25.5988  -20.3800  -13.4083 N   0  0  0  0  0  0  0  0  0  0  0  0
   24.2754  -21.0048  -15.2817 C   0  0  0  0  0  0  0  0  0  0  0  0
   23.7643  -22.0285  -16.0750 O   0  0  0  0  0  0  0  0  0  0  0  0
   24.5858  -19.9179  -15.8097 O   0  0  0  0  0  0  0  0  0  0  0  0
  1  2  1  0
  3  2  1  0
  4  5  1  0
  4  3  1  0
  5  1  1  0
  6  7  2  0
  5  6  1  6
  9  8  1  0
 10  9  2  0
 11  9  1  0
 13 12  1  6
 12 11  1  0
 13 14  1  0
 14  6  1  0
 15 25  1  0
 15 13  1  0
 16 15  2  0
 18 19  2  0
 18 17  1  0
 20 18  1  0
 21 20  1  0
 22 21  1  0
 24 23  1  1
 23 22  1  0
 24 25  1  0
 26 24  1  0
 27 26  1  0
 28 26  2  0
M  END
$$$$
