PQR.pdb
     RDKit          3D

 28 28  0  0  1  0  0  0  0  0999 V2000
   29.3813  -17.9664  -19.2314 N   0  0  0  0  0  0  0  0  0  0  0  0
   30.6698  -17.8195  -19.8658 C   0  0  0  0  0  0  0  0  0  0  0  0
   31.3116  -16.5882  -19.2738 C   0  0  0  0  0  0  0  0  0  0  0  0
   30.3037  -16.1151  -18.2206 C   0  0  0  0  0  0  0  0  0  0  0  0
   29.5947  -17.4233  -17.9199 C   0  0  1  0  0  0  0  0  0  0  0  0
   28.3126  -17.2113  -17.1965 C   0  0  0  0  0  0  0  0  0  0  0  0
   28.3683  -16.6879  -16.0558 O   0  0  0  0  0  0  0  0  0  0  0  0
   22.8975  -15.4803  -19.5973 N   0  0  0  0  0  0  0  0  0  0  0  0
   23.4081  -16.7748  -19.9677 C   0  0  0  0  0  0  0  0  0  0  0  0
   22.9529  -17.2915  -21.0122 O   0  0  0  0  0  0  0  0  0  0  0  0
   24.4194  -17.4479  -19.1466 C   0  0  0  0  0  0  0  0  0  0  0  0
   24.8398  -16.7311  -17.9149 C   0  0  0  0  0  0  0  0  0  0  0  0
   25.8623  -17.4223  -17.0734 C   0  0  2  0  0  0  0  0  0  0  0  0
   27.0969  -17.6029  -17.8156 N   0  0  0  0  0  0  0  0  0  0  0  0
   25.3269  -18.8030  -16.7854 C   0  0  0  0  0  0  0  0  0  0  0  0
   25.8115  -19.8075  -17.3619 O   0  0  0  0  0  0  0  0  0  0  0  0
   26.2480  -20.6954   -8.8432 N   0  0  0  0  0  0  0  0  0  0  0  0
   25.0170  -20.9956   -9.4847 C   0  0  0  0  0  0  0  0  0  0  0  0
   23.8733  -20.6237   -9.0064 N   0  0  0  0  0  0  0  0  0  0  0  0
   24.9418  -21.7263  -10.7011 N   0  0  0  0  0  0  0  0  0  0  0  0
   25.4331  -21.2521  -11.9279 C   0  0  0  0  0  0  0  0  0  0  0  0
   25.0588  -19.8898  -12.3550 C   0  0  0  0  0  0  0  0  0  0  0  0
   25.4631  -19.5973  -13.7790 C   0  0  0  0  0  0  0  0  0  0  0  0
   24.3256  -19.8715  -14.7215 C   0  0  2  0  0  0  0  0  0  0  0  0
   24.2663  -19.0008  -15.8604 N   0  0  0  0  0  0  0  0  0  0  0  0
   23.0148  -19.8403  -14.0218 C   0  0  0  0  0  0  0  0  0  0  0  0
   22.3384  -21.0036  -13.6647 O   0  0  0  0  0  0  0  0  0  0  0  0
   22.5119  -18.7315  -13.7496 O   0  0  0  0  0  0  0  0  0  0  0  0
  1  2  1  0
  3  2  1  0
  4  5  1  0
  4  3  1  0
  5  1  1  0
  6  7  2  0
  5  6  1  6
  9  8  1  0
 10  9  2  0
 11  9  1  0
 13 12  1  6
 12 11  1  0
 13 14  1  0
 14  6  1  0
 15 25  1  0
 15 13  1  0
 16 15  2  0
 18 19  2  0
 18 17  1  0
 20 18  1  0
 21 20  1  0
 22 21  1  0
 24 23  1  1
 23 22  1  0
 24 25  1  0
 26 24  1  0
 27 26  1  0
 28 26  2  0
M  END
$$$$
