PQR.pdb
     RDKit          3D

 28 28  0  0  1  0  0  0  0  0999 V2000
   30.9973  -22.1752  -11.6696 N   0  0  0  0  0  0  0  0  0  0  0  0
   32.1425  -22.5148  -10.8588 C   0  0  0  0  0  0  0  0  0  0  0  0
   32.1412  -21.5701   -9.6815 C   0  0  0  0  0  0  0  0  0  0  0  0
   30.8707  -20.7357   -9.8776 C   0  0  0  0  0  0  0  0  0  0  0  0
   30.0426  -21.6979  -10.7099 C   0  0  1  0  0  0  0  0  0  0  0  0
   28.8922  -21.0219  -11.3670 C   0  0  0  0  0  0  0  0  0  0  0  0
   28.0204  -20.5049  -10.6248 O   0  0  0  0  0  0  0  0  0  0  0  0
   29.4904  -18.4689  -17.1420 N   0  0  0  0  0  0  0  0  0  0  0  0
   28.1990  -18.0362  -16.6744 C   0  0  0  0  0  0  0  0  0  0  0  0
   27.6046  -17.1714  -17.3555 O   0  0  0  0  0  0  0  0  0  0  0  0
   27.6161  -18.5944  -15.4502 C   0  0  0  0  0  0  0  0  0  0  0  0
   28.4746  -19.5431  -14.6948 C   0  0  0  0  0  0  0  0  0  0  0  0
   27.9132  -20.0481  -13.4059 C   0  0  2  0  0  0  0  0  0  0  0  0
   28.8279  -20.9889  -12.7845 N   0  0  0  0  0  0  0  0  0  0  0  0
   26.6654  -20.8232  -13.7493 C   0  0  0  0  0  0  0  0  0  0  0  0
   26.7462  -21.9692  -14.2555 O   0  0  0  0  0  0  0  0  0  0  0  0
   17.9688  -21.9027  -13.2268 N   0  0  0  0  0  0  0  0  0  0  0  0
   18.8570  -22.9824  -12.9767 C   0  0  0  0  0  0  0  0  0  0  0  0
   18.4998  -24.2205  -13.0971 N   0  0  0  0  0  0  0  0  0  0  0  0
   20.2066  -22.7908  -12.5757 N   0  0  0  0  0  0  0  0  0  0  0  0
   20.8124  -21.5303  -12.4518 C   0  0  0  0  0  0  0  0  0  0  0  0
   21.6750  -21.0544  -13.5507 C   0  0  0  0  0  0  0  0  0  0  0  0
   22.9468  -20.4130  -13.0530 C   0  0  0  0  0  0  0  0  0  0  0  0
   24.1384  -20.9506  -13.7937 C   0  0  2  0  0  0  0  0  0  0  0  0
   25.3744  -20.2791  -13.5108 N   0  0  0  0  0  0  0  0  0  0  0  0
   23.9153  -20.9515  -15.2630 C   0  0  0  0  0  0  0  0  0  0  0  0
   23.4266  -22.0676  -15.9369 O   0  0  0  0  0  0  0  0  0  0  0  0
   24.1772  -19.9146  -15.9053 O   0  0  0  0  0  0  0  0  0  0  0  0
  1  2  1  0
  3  2  1  0
  4  5  1  0
  4  3  1  0
  5  1  1  0
  6  7  2  0
  5  6  1  6
  9  8  1  0
 10  9  2  0
 11  9  1  0
 13 12  1  6
 12 11  1  0
 13 14  1  0
 14  6  1  0
 15 25  1  0
 15 13  1  0
 16 15  2  0
 18 19  2  0
 18 17  1  0
 20 18  1  0
 21 20  1  0
 22 21  1  0
 24 23  1  1
 23 22  1  0
 24 25  1  0
 26 24  1  0
 27 26  1  0
 28 26  2  0
M  END
$$$$
