PQR.pdb
     RDKit          3D

 28 28  0  0  1  0  0  0  0  0999 V2000
   28.0886  -21.1340  -17.4252 N   0  0  0  0  0  0  0  0  0  0  0  0
   28.8574  -21.3443  -18.6290 C   0  0  0  0  0  0  0  0  0  0  0  0
   29.0174  -19.9955  -19.2876 C   0  0  0  0  0  0  0  0  0  0  0  0
   28.3357  -19.0257  -18.3162 C   0  0  0  0  0  0  0  0  0  0  0  0
   28.4625  -19.8082  -17.0216 C   0  0  1  0  0  0  0  0  0  0  0  0
   27.5639  -19.2820  -15.9597 C   0  0  0  0  0  0  0  0  0  0  0  0
   27.7774  -18.1165  -15.5421 O   0  0  0  0  0  0  0  0  0  0  0  0
   21.6163  -19.3519  -16.5519 N   0  0  0  0  0  0  0  0  0  0  0  0
   21.7825  -18.7732  -15.2438 C   0  0  0  0  0  0  0  0  0  0  0  0
   20.7806  -18.2308  -14.7270 O   0  0  0  0  0  0  0  0  0  0  0  0
   23.0769  -18.8251  -14.5569 C   0  0  0  0  0  0  0  0  0  0  0  0
   24.1983  -19.4229  -15.3267 C   0  0  0  0  0  0  0  0  0  0  0  0
   25.5108  -19.4984  -14.6173 C   0  0  2  0  0  0  0  0  0  0  0  0
   26.5173  -20.1059  -15.4692 N   0  0  0  0  0  0  0  0  0  0  0  0
   25.3188  -20.4295  -13.4460 C   0  0  0  0  0  0  0  0  0  0  0  0
   25.1385  -21.6581  -13.6314 O   0  0  0  0  0  0  0  0  0  0  0  0
   26.8933  -19.4732   -4.7479 N   0  0  0  0  0  0  0  0  0  0  0  0
   27.6860  -19.5665   -5.9226 C   0  0  0  0  0  0  0  0  0  0  0  0
   28.8749  -19.0612   -6.0027 N   0  0  0  0  0  0  0  0  0  0  0  0
   27.2392  -20.2212   -7.1019 N   0  0  0  0  0  0  0  0  0  0  0  0
   25.9295  -20.6933   -7.2838 C   0  0  0  0  0  0  0  0  0  0  0  0
   25.5736  -21.2939   -8.5841 C   0  0  0  0  0  0  0  0  0  0  0  0
   25.9155  -20.3982   -9.7492 C   0  0  0  0  0  0  0  0  0  0  0  0
   25.0739  -20.7388  -10.9463 C   0  0  2  0  0  0  0  0  0  0  0  0
   25.3362  -19.9428  -12.1109 N   0  0  0  0  0  0  0  0  0  0  0  0
   23.6228  -20.6712  -10.6328 C   0  0  0  0  0  0  0  0  0  0  0  0
   22.7584  -19.8140  -11.3086 O   0  0  0  0  0  0  0  0  0  0  0  0
   23.1732  -21.4099   -9.7336 O   0  0  0  0  0  0  0  0  0  0  0  0
  1  2  1  0
  3  2  1  0
  4  5  1  0
  4  3  1  0
  5  1  1  0
  6  7  2  0
  5  6  1  1
  9  8  1  0
 10  9  2  0
 11  9  1  0
 13 12  1  6
 12 11  1  0
 13 14  1  0
 14  6  1  0
 15 25  1  0
 15 13  1  0
 16 15  2  0
 18 19  2  0
 18 17  1  0
 20 18  1  0
 21 20  1  0
 22 21  1  0
 24 23  1  1
 23 22  1  0
 24 25  1  0
 26 24  1  0
 27 26  1  0
 28 26  2  0
M  END
$$$$
