ENE.pdb
     RDKit          3D

 27 26  0  0  1  0  0  0  0  0999 V2000
   12.7200  -19.0345   18.7757 N   0  0  0  0  0  0  0  0  0  0  0  0
   12.7408  -17.6694   18.3498 C   0  0  1  0  0  0  0  0  0  0  0  0
   12.5148  -17.5663   16.8654 C   0  0  0  0  0  0  0  0  0  0  0  0
   12.3557  -18.8545   16.1442 C   0  0  0  0  0  0  0  0  0  0  0  0
   12.7232  -18.7068   14.7213 C   0  0  0  0  0  0  0  0  0  0  0  0
   12.7796  -19.6775   13.9331 O   0  0  0  0  0  0  0  0  0  0  0  0
   11.5655  -16.9576   19.0246 C   0  0  0  0  0  0  0  0  0  0  0  0
   11.0681  -15.9572   18.5020 O   0  0  0  0  0  0  0  0  0  0  0  0
   13.0135  -17.4274   14.2591 O   0  0  0  0  0  0  0  0  0  0  0  0
    7.1665  -18.9744   20.1648 N   0  0  0  0  0  0  0  0  0  0  0  0
    8.2361  -18.1882   19.6485 C   0  0  0  0  0  0  0  0  0  0  0  0
    8.8268  -18.6219   18.6172 O   0  0  0  0  0  0  0  0  0  0  0  0
    8.6306  -16.9207   20.3041 C   0  0  0  0  0  0  0  0  0  0  0  0
    9.9816  -17.0255   21.0241 C   0  0  2  0  0  0  0  0  0  0  0  0
   11.0723  -17.4636   20.2380 N   0  0  0  0  0  0  0  0  0  0  0  0
    9.7990  -17.7185   22.3005 C   0  0  0  0  0  0  0  0  0  0  0  0
    8.8935  -17.4271   23.1135 O   0  0  0  0  0  0  0  0  0  0  0  0
   10.6555  -18.7984   22.7137 N   0  0  0  0  0  0  0  0  0  0  0  0
   11.6349  -18.6490   23.8074 C   0  0  1  0  0  0  0  0  0  0  0  0
   12.8479  -17.9672   23.3062 C   0  0  0  0  0  0  0  0  0  0  0  0
   13.6035  -17.1947   24.3255 C   0  0  0  0  0  0  0  0  0  0  0  0
   14.8685  -16.5899   23.8327 C   0  0  0  0  0  0  0  0  0  0  0  0
   15.9465  -17.1847   24.1476 O   0  0  0  0  0  0  0  0  0  0  0  0
   10.9610  -18.1467   24.9762 C   0  0  0  0  0  0  0  0  0  0  0  0
   11.4282  -18.3912   26.1419 O   0  0  0  0  0  0  0  0  0  0  0  0
   14.9591  -15.4529   23.0726 O   0  0  0  0  0  0  0  0  0  0  0  0
    9.7881  -17.3653   25.0014 O   0  0  0  0  0  0  0  0  0  0  0  0
  2  1  1  1
  2  3  1  0
  3  4  1  0
  5  4  1  0
  5  9  1  0
  6  5  2  0
  7  2  1  0
  7  8  2  0
 10 11  1  0
 11 13  1  0
 12 11  2  0
 14 13  1  6
 14 15  1  0
 15  7  1  0
 16 14  1  0
 17 16  2  0
 18 16  1  0
 19 18  1  0
 19 24  1  0
 19 20  1  6
 21 22  1  0
 21 20  1  0
 22 23  2  0
 24 27  1  0
 25 24  2  0
 26 22  1  0
M  END
$$$$
