ENE.pdb
     RDKit          3D

 27 26  0  0  1  0  0  0  0  0999 V2000
    7.1993  -13.1554   18.0384 N   0  0  0  0  0  0  0  0  0  0  0  0
    7.8046  -14.2793   18.6835 C   0  0  1  0  0  0  0  0  0  0  0  0
    8.9615  -14.8032   17.8761 C   0  0  0  0  0  0  0  0  0  0  0  0
    9.0268  -16.2785   17.7210 C   0  0  0  0  0  0  0  0  0  0  0  0
   10.2638  -16.6771   17.0193 C   0  0  0  0  0  0  0  0  0  0  0  0
   11.1350  -15.8521   16.6628 O   0  0  0  0  0  0  0  0  0  0  0  0
    8.3819  -13.7913   20.0147 C   0  0  0  0  0  0  0  0  0  0  0  0
    8.4660  -12.5823   20.2442 O   0  0  0  0  0  0  0  0  0  0  0  0
   10.4483  -18.0301   16.7548 O   0  0  0  0  0  0  0  0  0  0  0  0
    7.8659  -13.3293   25.1839 N   0  0  0  0  0  0  0  0  0  0  0  0
    7.3170  -14.4039   24.4271 C   0  0  0  0  0  0  0  0  0  0  0  0
    6.8221  -15.3723   25.0734 O   0  0  0  0  0  0  0  0  0  0  0  0
    7.3353  -14.3758   22.9470 C   0  0  0  0  0  0  0  0  0  0  0  0
    8.7144  -14.7193   22.3683 C   0  0  2  0  0  0  0  0  0  0  0  0
    8.8085  -14.7402   20.9575 N   0  0  0  0  0  0  0  0  0  0  0  0
    9.2520  -15.8927   23.0589 C   0  0  0  0  0  0  0  0  0  0  0  0
    8.6544  -16.9910   23.1078 O   0  0  0  0  0  0  0  0  0  0  0  0
   10.5219  -15.8669   23.7351 N   0  0  0  0  0  0  0  0  0  0  0  0
   11.0617  -17.0477   24.4366 C   0  0  1  0  0  0  0  0  0  0  0  0
   12.5351  -16.9514   24.5224 C   0  0  0  0  0  0  0  0  0  0  0  0
   13.2567  -17.1695   23.2424 C   0  0  0  0  0  0  0  0  0  0  0  0
   14.5003  -16.3705   23.0881 C   0  0  0  0  0  0  0  0  0  0  0  0
   15.3203  -16.3971   24.0586 O   0  0  0  0  0  0  0  0  0  0  0  0
   10.2876  -17.2811   25.6278 C   0  0  0  0  0  0  0  0  0  0  0  0
    9.5913  -16.3360   26.1368 O   0  0  0  0  0  0  0  0  0  0  0  0
   14.8262  -15.6167   21.9907 O   0  0  0  0  0  0  0  0  0  0  0  0
   10.1850  -18.4920   26.3417 O   0  0  0  0  0  0  0  0  0  0  0  0
  2  1  1  6
  2  3  1  0
  3  4  1  0
  5  4  1  0
  5  9  1  0
  6  5  2  0
  7  2  1  0
  7  8  2  0
 10 11  1  0
 11 13  1  0
 12 11  2  0
 14 13  1  6
 14 15  1  0
 15  7  1  0
 16 14  1  0
 17 16  2  0
 18 16  1  0
 19 18  1  0
 19 24  1  0
 19 20  1  1
 21 22  1  0
 21 20  1  0
 22 23  2  0
 24 27  1  0
 25 24  2  0
 26 22  1  0
M  END
$$$$
