ENE.pdb
     RDKit          3D

 27 26  0  0  1  0  0  0  0  0999 V2000
    8.9025  -17.0634   16.0177 N   0  0  0  0  0  0  0  0  0  0  0  0
   10.2458  -17.4699   16.2933 C   0  0  1  0  0  0  0  0  0  0  0  0
   11.1427  -17.1940   15.1167 C   0  0  0  0  0  0  0  0  0  0  0  0
   10.9879  -15.8597   14.4840 C   0  0  0  0  0  0  0  0  0  0  0  0
   11.9037  -15.7159   13.3342 C   0  0  0  0  0  0  0  0  0  0  0  0
   12.9886  -15.0958   13.4071 O   0  0  0  0  0  0  0  0  0  0  0  0
   10.7599  -16.6093   17.4502 C   0  0  0  0  0  0  0  0  0  0  0  0
   11.9715  -16.5266   17.6663 O   0  0  0  0  0  0  0  0  0  0  0  0
   11.5259  -16.3023   12.1309 O   0  0  0  0  0  0  0  0  0  0  0  0
    7.0406  -13.1145   18.4325 N   0  0  0  0  0  0  0  0  0  0  0  0
    8.4291  -13.3512   18.6446 C   0  0  0  0  0  0  0  0  0  0  0  0
    9.2367  -12.8268   17.8241 O   0  0  0  0  0  0  0  0  0  0  0  0
    8.8920  -14.1809   19.7800 C   0  0  0  0  0  0  0  0  0  0  0  0
   10.0434  -15.1188   19.3934 C   0  0  2  0  0  0  0  0  0  0  0  0
    9.8318  -15.9241   18.2506 N   0  0  0  0  0  0  0  0  0  0  0  0
   10.5191  -15.8207   20.5867 C   0  0  0  0  0  0  0  0  0  0  0  0
    9.9660  -16.8461   21.0431 O   0  0  0  0  0  0  0  0  0  0  0  0
   11.6717  -15.3780   21.3257 N   0  0  0  0  0  0  0  0  0  0  0  0
   12.3424  -16.2357   22.3218 C   0  0  1  0  0  0  0  0  0  0  0  0
   13.8055  -16.2053   22.1075 C   0  0  0  0  0  0  0  0  0  0  0  0
   14.4710  -14.9307   22.4805 C   0  0  0  0  0  0  0  0  0  0  0  0
   15.9435  -14.9186   22.2804 C   0  0  0  0  0  0  0  0  0  0  0  0
   16.3626  -14.5286   21.1458 O   0  0  0  0  0  0  0  0  0  0  0  0
   11.8025  -15.9519   23.6258 C   0  0  0  0  0  0  0  0  0  0  0  0
   11.0026  -14.9668   23.7893 O   0  0  0  0  0  0  0  0  0  0  0  0
   16.8729  -15.2912   23.2164 O   0  0  0  0  0  0  0  0  0  0  0  0
   12.0493  -16.6691   24.8138 O   0  0  0  0  0  0  0  0  0  0  0  0
  2  1  1  6
  2  3  1  0
  3  4  1  0
  5  4  1  0
  5  9  1  0
  6  5  2  0
  7  2  1  0
  7  8  2  0
 10 11  1  0
 11 13  1  0
 12 11  2  0
 14 13  1  1
 14 15  1  0
 15  7  1  0
 16 14  1  0
 17 16  2  0
 18 16  1  0
 19 18  1  0
 19 24  1  0
 19 20  1  1
 21 22  1  0
 21 20  1  0
 22 23  2  0
 24 27  1  0
 25 24  2  0
 26 22  1  0
M  END
$$$$
