ENE.pdb
     RDKit          3D

 27 26  0  0  1  0  0  0  0  0999 V2000
    9.8747  -19.2562   20.0794 N   0  0  0  0  0  0  0  0  0  0  0  0
   10.5902  -20.0151   21.0580 C   0  0  1  0  0  0  0  0  0  0  0  0
   12.0743  -19.9328   20.8218 C   0  0  0  0  0  0  0  0  0  0  0  0
   12.7256  -18.6637   21.2340 C   0  0  0  0  0  0  0  0  0  0  0  0
   14.1305  -18.6245   20.7797 C   0  0  0  0  0  0  0  0  0  0  0  0
   14.5226  -17.8734   19.8584 O   0  0  0  0  0  0  0  0  0  0  0  0
   10.3254  -19.3743   22.4228 C   0  0  0  0  0  0  0  0  0  0  0  0
   10.1497  -18.1564   22.5086 O   0  0  0  0  0  0  0  0  0  0  0  0
   15.0383  -19.4641   21.4163 O   0  0  0  0  0  0  0  0  0  0  0  0
    7.6647  -18.1609   23.8261 N   0  0  0  0  0  0  0  0  0  0  0  0
    7.1721  -19.4773   24.0564 C   0  0  0  0  0  0  0  0  0  0  0  0
    5.9642  -19.7033   23.7556 O   0  0  0  0  0  0  0  0  0  0  0  0
    8.0480  -20.5255   24.6274 C   0  0  0  0  0  0  0  0  0  0  0  0
    9.5109  -20.0754   24.7371 C   0  0  2  0  0  0  0  0  0  0  0  0
   10.2875  -20.1948   23.5615 N   0  0  0  0  0  0  0  0  0  0  0  0
   10.1030  -20.6409   25.9506 C   0  0  0  0  0  0  0  0  0  0  0  0
    9.4214  -21.0852   26.9012 O   0  0  0  0  0  0  0  0  0  0  0  0
   11.5271  -20.7300   26.1366 N   0  0  0  0  0  0  0  0  0  0  0  0
   12.1253  -21.2184   27.3941 C   0  0  1  0  0  0  0  0  0  0  0  0
   11.5193  -20.5151   28.5455 C   0  0  0  0  0  0  0  0  0  0  0  0
   12.4716  -19.7448   29.3860 C   0  0  0  0  0  0  0  0  0  0  0  0
   11.8443  -18.9970   30.5067 C   0  0  0  0  0  0  0  0  0  0  0  0
   12.1036  -19.4055   31.6818 O   0  0  0  0  0  0  0  0  0  0  0  0
   12.1599  -22.6574   27.3701 C   0  0  0  0  0  0  0  0  0  0  0  0
   12.7039  -23.3031   28.3315 O   0  0  0  0  0  0  0  0  0  0  0  0
   11.0176  -17.9122   30.3703 O   0  0  0  0  0  0  0  0  0  0  0  0
   11.6311  -23.4959   26.3681 O   0  0  0  0  0  0  0  0  0  0  0  0
  2  1  1  6
  2  3  1  0
  3  4  1  0
  5  4  1  0
  5  9  1  0
  6  5  2  0
  7  2  1  0
  7  8  2  0
 10 11  1  0
 11 13  1  0
 12 11  2  0
 14 13  1  6
 14 15  1  0
 15  7  1  0
 16 14  1  0
 17 16  2  0
 18 16  1  0
 19 18  1  0
 19 24  1  0
 19 20  1  1
 21 22  1  0
 21 20  1  0
 22 23  2  0
 24 27  1  0
 25 24  2  0
 26 22  1  0
M  END
$$$$
