ENE.pdb
     RDKit          3D

 27 26  0  0  1  0  0  0  0  0999 V2000
    9.0026  -15.6203   16.0040 N   0  0  0  0  0  0  0  0  0  0  0  0
    9.7778  -16.6595   16.6078 C   0  0  1  0  0  0  0  0  0  0  0  0
   11.2209  -16.5641   16.1916 C   0  0  0  0  0  0  0  0  0  0  0  0
   12.1238  -17.6054   16.7441 C   0  0  0  0  0  0  0  0  0  0  0  0
   13.5066  -17.4077   16.2644 C   0  0  0  0  0  0  0  0  0  0  0  0
   13.8325  -17.5466   15.0639 O   0  0  0  0  0  0  0  0  0  0  0  0
    9.7411  -16.4415   18.1226 C   0  0  0  0  0  0  0  0  0  0  0  0
    9.8696  -15.3054   18.5854 O   0  0  0  0  0  0  0  0  0  0  0  0
   14.4703  -17.0518   17.2021 O   0  0  0  0  0  0  0  0  0  0  0  0
    6.5095  -19.3945   19.4168 N   0  0  0  0  0  0  0  0  0  0  0  0
    7.0525  -18.3900   20.2682 C   0  0  0  0  0  0  0  0  0  0  0  0
    6.3620  -17.3442   20.4416 O   0  0  0  0  0  0  0  0  0  0  0  0
    8.3722  -18.5750   20.9133 C   0  0  0  0  0  0  0  0  0  0  0  0
    9.4338  -17.6090   20.3706 C   0  0  2  0  0  0  0  0  0  0  0  0
    9.5600  -17.5513   18.9634 N   0  0  0  0  0  0  0  0  0  0  0  0
   10.6816  -17.7917   21.1139 C   0  0  0  0  0  0  0  0  0  0  0  0
   11.3942  -18.8153   21.0131 O   0  0  0  0  0  0  0  0  0  0  0  0
   11.1845  -16.7942   22.0209 N   0  0  0  0  0  0  0  0  0  0  0  0
   12.3728  -17.0277   22.8642 C   0  0  1  0  0  0  0  0  0  0  0  0
   13.4002  -16.0025   22.5801 C   0  0  0  0  0  0  0  0  0  0  0  0
   13.9384  -16.0160   21.1956 C   0  0  0  0  0  0  0  0  0  0  0  0
   14.9368  -14.9533   20.9083 C   0  0  0  0  0  0  0  0  0  0  0  0
   15.3015  -14.2322   21.8891 O   0  0  0  0  0  0  0  0  0  0  0  0
   11.9482  -17.2613   24.2198 C   0  0  0  0  0  0  0  0  0  0  0  0
   12.8054  -17.5752   25.1164 O   0  0  0  0  0  0  0  0  0  0  0  0
   15.4882  -14.6959   19.6801 O   0  0  0  0  0  0  0  0  0  0  0  0
   10.6324  -17.1735   24.7172 O   0  0  0  0  0  0  0  0  0  0  0  0
  2  1  1  6
  2  3  1  0
  3  4  1  0
  5  4  1  0
  5  9  1  0
  6  5  2  0
  7  2  1  0
  7  8  2  0
 10 11  1  0
 11 13  1  0
 12 11  2  0
 14 13  1  6
 14 15  1  0
 15  7  1  0
 16 14  1  0
 17 16  2  0
 18 16  1  0
 19 18  1  0
 19 24  1  0
 19 20  1  1
 21 22  1  0
 21 20  1  0
 22 23  2  0
 24 27  1  0
 25 24  2  0
 26 22  1  0
M  END
$$$$
