ENE.pdb
     RDKit          3D

 27 26  0  0  1  0  0  0  0  0999 V2000
   11.3329  -17.9213   19.9324 N   0  0  0  0  0  0  0  0  0  0  0  0
   10.2865  -16.9466   19.9519 C   0  0  1  0  0  0  0  0  0  0  0  0
    9.2634  -17.2353   18.8866 C   0  0  0  0  0  0  0  0  0  0  0  0
    8.9807  -18.6708   18.6332 C   0  0  0  0  0  0  0  0  0  0  0  0
    7.8812  -18.8240   17.6589 C   0  0  0  0  0  0  0  0  0  0  0  0
    6.7215  -18.4065   17.8767 O   0  0  0  0  0  0  0  0  0  0  0  0
    9.5673  -17.0690   21.2978 C   0  0  0  0  0  0  0  0  0  0  0  0
    8.6384  -16.3052   21.5723 O   0  0  0  0  0  0  0  0  0  0  0  0
    8.1688  -19.4604   16.4561 O   0  0  0  0  0  0  0  0  0  0  0  0
    9.4360  -21.3185   21.7692 N   0  0  0  0  0  0  0  0  0  0  0  0
    9.4205  -20.8863   23.1263 C   0  0  0  0  0  0  0  0  0  0  0  0
   10.0953  -21.5624   23.9558 O   0  0  0  0  0  0  0  0  0  0  0  0
    8.6402  -19.6961   23.5341 C   0  0  0  0  0  0  0  0  0  0  0  0
    9.4629  -18.4023   23.4709 C   0  0  2  0  0  0  0  0  0  0  0  0
    9.9842  -18.0588   22.2021 N   0  0  0  0  0  0  0  0  0  0  0  0
   10.4199  -18.3810   24.5784 C   0  0  0  0  0  0  0  0  0  0  0  0
   11.4272  -19.1218   24.6263 O   0  0  0  0  0  0  0  0  0  0  0  0
   10.2700  -17.4941   25.7016 N   0  0  0  0  0  0  0  0  0  0  0  0
   11.2332  -17.4735   26.8194 C   0  0  1  0  0  0  0  0  0  0  0  0
   11.2112  -16.1492   27.4776 C   0  0  0  0  0  0  0  0  0  0  0  0
    9.8778  -15.7075   27.9611 C   0  0  0  0  0  0  0  0  0  0  0  0
    9.8664  -14.3729   28.6147 C   0  0  0  0  0  0  0  0  0  0  0  0
    9.7687  -14.3583   29.8817 O   0  0  0  0  0  0  0  0  0  0  0  0
   11.0662  -18.6680   27.6055 C   0  0  0  0  0  0  0  0  0  0  0  0
   11.9117  -18.9579   28.5210 O   0  0  0  0  0  0  0  0  0  0  0  0
    9.9531  -13.1707   27.9620 O   0  0  0  0  0  0  0  0  0  0  0  0
   10.0233  -19.6096   27.4954 O   0  0  0  0  0  0  0  0  0  0  0  0
  2  1  1  1
  2  3  1  0
  3  4  1  0
  5  4  1  0
  5  9  1  0
  6  5  2  0
  7  2  1  0
  7  8  2  0
 10 11  1  0
 11 13  1  0
 12 11  2  0
 14 13  1  6
 14 15  1  0
 15  7  1  0
 16 14  1  0
 17 16  2  0
 18 16  1  0
 19 18  1  0
 19 24  1  0
 19 20  1  1
 21 22  1  0
 21 20  1  0
 22 23  2  0
 24 27  1  0
 25 24  2  0
 26 22  1  0
M  END
$$$$
