ENE.pdb
     RDKit          3D

 27 26  0  0  1  0  0  0  0  0999 V2000
   12.0094  -17.2924   17.5642 N   0  0  0  0  0  0  0  0  0  0  0  0
   12.8497  -16.1984   17.9420 C   0  0  1  0  0  0  0  0  0  0  0  0
   13.2879  -15.4155   16.7337 C   0  0  0  0  0  0  0  0  0  0  0  0
   12.9318  -16.0036   15.4176 C   0  0  0  0  0  0  0  0  0  0  0  0
   13.5511  -15.2377   14.3170 C   0  0  0  0  0  0  0  0  0  0  0  0
   12.8882  -14.5141   13.5400 O   0  0  0  0  0  0  0  0  0  0  0  0
   12.0119  -15.2487   18.8019 C   0  0  0  0  0  0  0  0  0  0  0  0
   12.5047  -14.1978   19.2193 O   0  0  0  0  0  0  0  0  0  0  0  0
   14.9289  -15.3384   14.1561 O   0  0  0  0  0  0  0  0  0  0  0  0
    8.2395  -14.2403   16.9361 N   0  0  0  0  0  0  0  0  0  0  0  0
    8.6038  -13.7260   18.2134 C   0  0  0  0  0  0  0  0  0  0  0  0
    9.0714  -12.5511   18.2515 O   0  0  0  0  0  0  0  0  0  0  0  0
    8.4394  -14.5452   19.4356 C   0  0  0  0  0  0  0  0  0  0  0  0
    9.7807  -15.0114   20.0172 C   0  0  2  0  0  0  0  0  0  0  0  0
   10.6851  -15.5971   19.1014 N   0  0  0  0  0  0  0  0  0  0  0  0
    9.5397  -15.7698   21.2459 C   0  0  0  0  0  0  0  0  0  0  0  0
    8.6772  -16.6719   21.3347 O   0  0  0  0  0  0  0  0  0  0  0  0
   10.2886  -15.5310   22.4512 N   0  0  0  0  0  0  0  0  0  0  0  0
   10.5923  -16.6084   23.4129 C   0  0  1  0  0  0  0  0  0  0  0  0
   11.0888  -17.8005   22.6920 C   0  0  0  0  0  0  0  0  0  0  0  0
   11.4238  -18.9638   23.5530 C   0  0  0  0  0  0  0  0  0  0  0  0
   11.9185  -20.1569   22.8178 C   0  0  0  0  0  0  0  0  0  0  0  0
   12.0528  -20.0375   21.5598 O   0  0  0  0  0  0  0  0  0  0  0  0
   11.3541  -16.0619   24.5054 C   0  0  0  0  0  0  0  0  0  0  0  0
   11.6275  -16.7867   25.5238 O   0  0  0  0  0  0  0  0  0  0  0  0
   12.2378  -21.3620   23.3876 O   0  0  0  0  0  0  0  0  0  0  0  0
   11.8766  -14.7561   24.5976 O   0  0  0  0  0  0  0  0  0  0  0  0
  2  1  1  6
  2  3  1  0
  3  4  1  0
  5  4  1  0
  5  9  1  0
  6  5  2  0
  7  2  1  0
  7  8  2  0
 10 11  1  0
 11 13  1  0
 12 11  2  0
 14 13  1  6
 14 15  1  0
 15  7  1  0
 16 14  1  0
 17 16  2  0
 18 16  1  0
 19 18  1  0
 19 24  1  0
 19 20  1  6
 21 22  1  0
 21 20  1  0
 22 23  2  0
 24 27  1  0
 25 24  2  0
 26 22  1  0
M  END
$$$$
