ENE.pdb
     RDKit          3D

 27 26  0  0  1  0  0  0  0  0999 V2000
   15.1430  -18.2004   17.3239 N   0  0  0  0  0  0  0  0  0  0  0  0
   14.9671  -19.0411   18.4675 C   0  0  1  0  0  0  0  0  0  0  0  0
   16.0526  -20.0809   18.5420 C   0  0  0  0  0  0  0  0  0  0  0  0
   16.0601  -21.0876   17.4505 C   0  0  0  0  0  0  0  0  0  0  0  0
   17.1472  -22.0675   17.6494 C   0  0  0  0  0  0  0  0  0  0  0  0
   18.3281  -21.8484   17.2967 O   0  0  0  0  0  0  0  0  0  0  0  0
   15.1129  -18.1625   19.7127 C   0  0  0  0  0  0  0  0  0  0  0  0
   16.0824  -17.4083   19.8252 O   0  0  0  0  0  0  0  0  0  0  0  0
   16.8234  -23.2763   18.2564 O   0  0  0  0  0  0  0  0  0  0  0  0
   13.6469  -15.8475   24.1590 N   0  0  0  0  0  0  0  0  0  0  0  0
   12.5060  -16.5667   23.7009 C   0  0  0  0  0  0  0  0  0  0  0  0
   11.4145  -16.3667   24.3084 O   0  0  0  0  0  0  0  0  0  0  0  0
   12.6097  -17.5078   22.5627 C   0  0  0  0  0  0  0  0  0  0  0  0
   13.9960  -17.4864   21.9050 C   0  0  2  0  0  0  0  0  0  0  0  0
   14.1293  -18.2339   20.7121 N   0  0  0  0  0  0  0  0  0  0  0  0
   15.0200  -17.7261   22.9233 C   0  0  0  0  0  0  0  0  0  0  0  0
   15.1752  -18.8305   23.4905 O   0  0  0  0  0  0  0  0  0  0  0  0
   15.9331  -16.6976   23.3463 N   0  0  0  0  0  0  0  0  0  0  0  0
   17.1096  -16.9901   24.1878 C   0  0  1  0  0  0  0  0  0  0  0  0
   18.1946  -16.0314   23.8858 C   0  0  0  0  0  0  0  0  0  0  0  0
   19.4411  -16.2221   24.6711 C   0  0  0  0  0  0  0  0  0  0  0  0
   20.4994  -15.2123   24.4088 C   0  0  0  0  0  0  0  0  0  0  0  0
   20.7956  -14.4331   25.3680 O   0  0  0  0  0  0  0  0  0  0  0  0
   16.6785  -17.1802   25.5482 C   0  0  0  0  0  0  0  0  0  0  0  0
   17.2218  -18.0832   26.2739 O   0  0  0  0  0  0  0  0  0  0  0  0
   21.1728  -15.0601   23.2247 O   0  0  0  0  0  0  0  0  0  0  0  0
   15.6823  -16.4490   26.2259 O   0  0  0  0  0  0  0  0  0  0  0  0
  2  1  1  6
  2  3  1  0
  3  4  1  0
  5  4  1  0
  5  9  1  0
  6  5  2  0
  7  2  1  0
  7  8  2  0
 10 11  1  0
 11 13  1  0
 12 11  2  0
 14 13  1  1
 14 15  1  0
 15  7  1  0
 16 14  1  0
 17 16  2  0
 18 16  1  0
 19 18  1  0
 19 24  1  0
 19 20  1  1
 21 22  1  0
 21 20  1  0
 22 23  2  0
 24 27  1  0
 25 24  2  0
 26 22  1  0
M  END
$$$$
