ENE.pdb
     RDKit          3D

 27 26  0  0  1  0  0  0  0  0999 V2000
   11.1157  -21.2366   17.8295 N   0  0  0  0  0  0  0  0  0  0  0  0
   12.2106  -20.3168   17.8032 C   0  0  1  0  0  0  0  0  0  0  0  0
   12.3469  -19.6824   16.4453 C   0  0  0  0  0  0  0  0  0  0  0  0
   13.5268  -18.8005   16.2587 C   0  0  0  0  0  0  0  0  0  0  0  0
   13.5877  -18.2936   14.8728 C   0  0  0  0  0  0  0  0  0  0  0  0
   12.6843  -17.5876   14.3706 O   0  0  0  0  0  0  0  0  0  0  0  0
   11.8886  -19.1882   18.7861 C   0  0  0  0  0  0  0  0  0  0  0  0
   12.7041  -18.2819   18.9731 O   0  0  0  0  0  0  0  0  0  0  0  0
   14.7042  -18.6255   14.1126 O   0  0  0  0  0  0  0  0  0  0  0  0
    8.5408  -18.7672   18.2277 N   0  0  0  0  0  0  0  0  0  0  0  0
    7.8812  -18.6192   19.4815 C   0  0  0  0  0  0  0  0  0  0  0  0
    6.6177  -18.6830   19.4808 O   0  0  0  0  0  0  0  0  0  0  0  0
    8.6552  -18.3974   20.7239 C   0  0  0  0  0  0  0  0  0  0  0  0
   10.1686  -18.3510   20.4748 C   0  0  2  0  0  0  0  0  0  0  0  0
   10.6582  -19.2080   19.4622 N   0  0  0  0  0  0  0  0  0  0  0  0
   10.8735  -18.4133   21.7563 C   0  0  0  0  0  0  0  0  0  0  0  0
   11.6613  -19.3370   22.0594 O   0  0  0  0  0  0  0  0  0  0  0  0
   10.7111  -17.4033   22.7682 N   0  0  0  0  0  0  0  0  0  0  0  0
   11.6049  -17.3146   23.9392 C   0  0  1  0  0  0  0  0  0  0  0  0
   13.0159  -17.3196   23.4961 C   0  0  0  0  0  0  0  0  0  0  0  0
   13.5348  -16.0084   23.0290 C   0  0  0  0  0  0  0  0  0  0  0  0
   15.0026  -15.9687   22.7998 C   0  0  0  0  0  0  0  0  0  0  0  0
   15.3903  -15.9009   21.5914 O   0  0  0  0  0  0  0  0  0  0  0  0
   11.1315  -16.2736   24.8137 C   0  0  0  0  0  0  0  0  0  0  0  0
   10.2138  -15.4730   24.4214 O   0  0  0  0  0  0  0  0  0  0  0  0
   15.9585  -15.9986   23.7816 O   0  0  0  0  0  0  0  0  0  0  0  0
   11.5689  -16.0144   26.1283 O   0  0  0  0  0  0  0  0  0  0  0  0
  2  1  1  6
  2  3  1  0
  3  4  1  0
  5  4  1  0
  5  9  1  0
  6  5  2  0
  7  2  1  0
  7  8  2  0
 10 11  1  0
 11 13  1  0
 12 11  2  0
 14 13  1  1
 14 15  1  0
 15  7  1  0
 16 14  1  0
 17 16  2  0
 18 16  1  0
 19 18  1  0
 19 24  1  0
 19 20  1  6
 21 22  1  0
 21 20  1  0
 22 23  2  0
 24 27  1  0
 25 24  2  0
 26 22  1  0
M  END
$$$$
