ENE.pdb
     RDKit          3D

 27 26  0  0  1  0  0  0  0  0999 V2000
    8.9024  -16.9852   16.0436 N   0  0  0  0  0  0  0  0  0  0  0  0
   10.2714  -16.7211   15.7248 C   0  0  1  0  0  0  0  0  0  0  0  0
   10.3939  -16.0879   14.3650 C   0  0  0  0  0  0  0  0  0  0  0  0
    9.1333  -15.9733   13.5888 C   0  0  0  0  0  0  0  0  0  0  0  0
    9.3847  -15.3591   12.2693 C   0  0  0  0  0  0  0  0  0  0  0  0
   10.5354  -15.2172   11.7976 O   0  0  0  0  0  0  0  0  0  0  0  0
   10.7912  -15.6963   16.7362 C   0  0  0  0  0  0  0  0  0  0  0  0
   11.8519  -15.1035   16.5239 O   0  0  0  0  0  0  0  0  0  0  0  0
    8.2831  -14.9286   11.5374 O   0  0  0  0  0  0  0  0  0  0  0  0
    8.8089  -12.8132   17.9054 N   0  0  0  0  0  0  0  0  0  0  0  0
    8.4496  -13.2334   19.2181 C   0  0  0  0  0  0  0  0  0  0  0  0
    7.4160  -12.7127   19.7291 O   0  0  0  0  0  0  0  0  0  0  0  0
    9.2634  -14.2357   19.9427 C   0  0  0  0  0  0  0  0  0  0  0  0
   10.4141  -14.7876   19.0906 C   0  0  2  0  0  0  0  0  0  0  0  0
   10.0419  -15.4493   17.8976 N   0  0  0  0  0  0  0  0  0  0  0  0
   11.3528  -15.5091   19.9515 C   0  0  0  0  0  0  0  0  0  0  0  0
   11.3277  -16.7511   20.1010 O   0  0  0  0  0  0  0  0  0  0  0  0
   12.3849  -14.8335   20.6924 N   0  0  0  0  0  0  0  0  0  0  0  0
   13.3867  -15.5670   21.4900 C   0  0  1  0  0  0  0  0  0  0  0  0
   14.7246  -14.9694   21.2893 C   0  0  0  0  0  0  0  0  0  0  0  0
   15.8392  -15.6747   21.9727 C   0  0  0  0  0  0  0  0  0  0  0  0
   17.1802  -15.0724   21.7544 C   0  0  0  0  0  0  0  0  0  0  0  0
   17.5804  -14.2384   22.6258 O   0  0  0  0  0  0  0  0  0  0  0  0
   12.8785  -15.7563   22.8236 C   0  0  0  0  0  0  0  0  0  0  0  0
   11.9925  -16.6506   23.0525 O   0  0  0  0  0  0  0  0  0  0  0  0
   18.0085  -15.3459   20.6971 O   0  0  0  0  0  0  0  0  0  0  0  0
   13.2620  -15.0469   23.9796 O   0  0  0  0  0  0  0  0  0  0  0  0
  2  1  1  1
  2  3  1  0
  3  4  1  0
  5  4  1  0
  5  9  1  0
  6  5  2  0
  7  2  1  0
  7  8  2  0
 10 11  1  0
 11 13  1  0
 12 11  2  0
 14 13  1  1
 14 15  1  0
 15  7  1  0
 16 14  1  0
 17 16  2  0
 18 16  1  0
 19 18  1  0
 19 24  1  0
 19 20  1  1
 21 22  1  0
 21 20  1  0
 22 23  2  0
 24 27  1  0
 25 24  2  0
 26 22  1  0
M  END
$$$$
