ENE.pdb
     RDKit          3D

 27 26  0  0  1  0  0  0  0  0999 V2000
    9.7935  -14.7745   15.1578 N   0  0  0  0  0  0  0  0  0  0  0  0
    8.7208  -15.1346   16.0325 C   0  0  1  0  0  0  0  0  0  0  0  0
    8.4226  -16.6068   15.9391 C   0  0  0  0  0  0  0  0  0  0  0  0
    9.5349  -17.5171   16.3116 C   0  0  0  0  0  0  0  0  0  0  0  0
    9.1358  -18.9288   16.1408 C   0  0  0  0  0  0  0  0  0  0  0  0
    9.8886  -19.8847   16.4347 O   0  0  0  0  0  0  0  0  0  0  0  0
    9.1861  -14.8697   17.4666 C   0  0  0  0  0  0  0  0  0  0  0  0
   10.3733  -15.0175   17.7670 O   0  0  0  0  0  0  0  0  0  0  0  0
    7.8667  -19.1837   15.6320 O   0  0  0  0  0  0  0  0  0  0  0  0
    8.1467  -12.0719   22.3269 N   0  0  0  0  0  0  0  0  0  0  0  0
    7.4549  -13.2513   21.9279 C   0  0  0  0  0  0  0  0  0  0  0  0
    7.0789  -14.0387   22.8439 O   0  0  0  0  0  0  0  0  0  0  0  0
    7.1972  -13.5317   20.4972 C   0  0  0  0  0  0  0  0  0  0  0  0
    8.4196  -14.1243   19.7835 C   0  0  2  0  0  0  0  0  0  0  0  0
    8.2418  -14.4595   18.4213 N   0  0  0  0  0  0  0  0  0  0  0  0
    9.0134  -15.1667   20.6224 C   0  0  0  0  0  0  0  0  0  0  0  0
    8.5672  -16.3342   20.6810 O   0  0  0  0  0  0  0  0  0  0  0  0
   10.1674  -14.9204   21.4459 N   0  0  0  0  0  0  0  0  0  0  0  0
   10.6965  -15.9338   22.3791 C   0  0  1  0  0  0  0  0  0  0  0  0
   12.1670  -15.8086   22.4764 C   0  0  0  0  0  0  0  0  0  0  0  0
   12.9304  -16.4935   21.4019 C   0  0  0  0  0  0  0  0  0  0  0  0
   14.4070  -16.3663   21.5131 C   0  0  0  0  0  0  0  0  0  0  0  0
   15.0953  -16.8524   20.5618 O   0  0  0  0  0  0  0  0  0  0  0  0
    9.8960  -15.9339   23.5757 C   0  0  0  0  0  0  0  0  0  0  0  0
   10.1323  -16.7793   24.5066 O   0  0  0  0  0  0  0  0  0  0  0  0
   15.0745  -15.7708   22.5516 O   0  0  0  0  0  0  0  0  0  0  0  0
    8.8282  -15.0638   23.8746 O   0  0  0  0  0  0  0  0  0  0  0  0
  2  1  1  6
  2  3  1  0
  3  4  1  0
  5  4  1  0
  5  9  1  0
  6  5  2  0
  7  2  1  0
  7  8  2  0
 10 11  1  0
 11 13  1  0
 12 11  2  0
 14 13  1  1
 14 15  1  0
 15  7  1  0
 16 14  1  0
 17 16  2  0
 18 16  1  0
 19 18  1  0
 19 24  1  0
 19 20  1  1
 21 22  1  0
 21 20  1  0
 22 23  2  0
 24 27  1  0
 25 24  2  0
 26 22  1  0
M  END
$$$$
