ENE.pdb
     RDKit          3D

 27 26  0  0  1  0  0  0  0  0999 V2000
    7.4928  -17.5485   17.0268 N   0  0  0  0  0  0  0  0  0  0  0  0
    8.8800  -17.8824   17.1255 C   0  0  1  0  0  0  0  0  0  0  0  0
    9.5917  -17.6101   15.8277 C   0  0  0  0  0  0  0  0  0  0  0  0
    9.2810  -16.3108   15.1797 C   0  0  0  0  0  0  0  0  0  0  0  0
    9.1215  -16.4780   13.7209 C   0  0  0  0  0  0  0  0  0  0  0  0
    8.7182  -15.5576   12.9747 O   0  0  0  0  0  0  0  0  0  0  0  0
    9.5040  -16.9564   18.1727 C   0  0  0  0  0  0  0  0  0  0  0  0
   10.7277  -16.9351   18.3261 O   0  0  0  0  0  0  0  0  0  0  0  0
    9.4391  -17.7172   13.1749 O   0  0  0  0  0  0  0  0  0  0  0  0
    6.6864  -12.8070   18.4295 N   0  0  0  0  0  0  0  0  0  0  0  0
    7.9518  -13.2222   18.9345 C   0  0  0  0  0  0  0  0  0  0  0  0
    8.9783  -12.8616   18.2889 O   0  0  0  0  0  0  0  0  0  0  0  0
    8.0455  -14.0436   20.1627 C   0  0  0  0  0  0  0  0  0  0  0  0
    8.9802  -15.2491   19.9953 C   0  0  2  0  0  0  0  0  0  0  0  0
    8.6615  -16.1413   18.9455 N   0  0  0  0  0  0  0  0  0  0  0  0
    9.2180  -15.8640   21.3022 C   0  0  0  0  0  0  0  0  0  0  0  0
    8.3769  -16.5873   21.8810 O   0  0  0  0  0  0  0  0  0  0  0  0
   10.4514  -15.6809   22.0204 N   0  0  0  0  0  0  0  0  0  0  0  0
   10.9611  -16.6855   22.9737 C   0  0  1  0  0  0  0  0  0  0  0  0
   10.8801  -18.0348   22.3735 C   0  0  0  0  0  0  0  0  0  0  0  0
   11.3644  -19.1402   23.2395 C   0  0  0  0  0  0  0  0  0  0  0  0
   11.2853  -20.4904   22.6235 C   0  0  0  0  0  0  0  0  0  0  0  0
   12.2678  -20.8467   21.9004 O   0  0  0  0  0  0  0  0  0  0  0  0
   12.2064  -16.2198   23.5259 C   0  0  0  0  0  0  0  0  0  0  0  0
   12.7228  -16.8121   24.5356 O   0  0  0  0  0  0  0  0  0  0  0  0
   10.2453  -21.3703   22.7751 O   0  0  0  0  0  0  0  0  0  0  0  0
   12.9802  -15.1365   23.0628 O   0  0  0  0  0  0  0  0  0  0  0  0
  2  1  1  6
  2  3  1  0
  3  4  1  0
  5  4  1  0
  5  9  1  0
  6  5  2  0
  7  2  1  0
  7  8  2  0
 10 11  1  0
 11 13  1  0
 12 11  2  0
 14 13  1  1
 14 15  1  0
 15  7  1  0
 16 14  1  0
 17 16  2  0
 18 16  1  0
 19 18  1  0
 19 24  1  0
 19 20  1  6
 21 22  1  0
 21 20  1  0
 22 23  2  0
 24 27  1  0
 25 24  2  0
 26 22  1  0
M  END
$$$$
