RHV.pdb
     RDKit          3D

 29 29  0  0  1  0  0  0  0  0999 V2000
    8.9860  -15.2320   15.2759 N   0  0  0  0  0  0  0  0  0  0  0  0
    8.3552  -13.9636   15.1829 C   0  0  0  0  0  0  0  0  0  0  0  0
    8.1712  -13.4487   14.0235 N   0  0  0  0  0  0  0  0  0  0  0  0
    7.9461  -13.2990   16.3642 N   0  0  0  0  0  0  0  0  0  0  0  0
    8.1974  -13.8389   17.6548 C   0  0  0  0  0  0  0  0  0  0  0  0
    7.4552  -15.0496   18.0648 C   0  0  0  0  0  0  0  0  0  0  0  0
    7.0940  -15.1762   19.4982 C   0  0  0  0  0  0  0  0  0  0  0  0
    8.2525  -15.3096   20.4455 C   0  0  2  0  0  0  0  0  0  0  0  0
    9.0226  -16.5080   20.1092 N   0  0  0  0  0  0  0  0  0  0  0  0
    7.7584  -15.4199   21.8620 C   0  0  0  0  0  0  0  0  0  0  0  0
    6.8799  -14.6190   22.2520 O   0  0  0  0  0  0  0  0  0  0  0  0
    7.7233  -12.5536   13.8094 N   0  0  0  0  0  0  0  0  0  0  0  0
    8.3067  -16.4348   22.7176 C   0  0  1  0  0  0  0  0  0  0  0  0
    7.8648  -16.5729   24.0899 C   0  0  0  0  0  0  0  0  0  0  0  0
    8.0492  -17.9274   24.6613 C   0  0  0  0  0  0  0  0  0  0  0  0
    7.2067  -18.9826   24.0780 C   0  0  0  0  0  0  0  0  0  0  0  0
    6.0429  -19.5357   24.5395 N   0  0  0  0  0  0  0  0  0  0  0  0
    5.6684  -20.4751   23.6400 C   0  0  0  0  0  0  0  0  0  0  0  0
    6.5792  -20.4930   22.6590 N   0  0  0  0  0  0  0  0  0  0  0  0
    7.5333  -19.5829   22.9092 C   0  0  0  0  0  0  0  0  0  0  0  0
    8.5210  -15.5465   24.9560 O   0  0  0  0  0  0  0  0  0  0  0  0
    9.7320  -15.2899   24.7600 C   0  0  0  0  0  0  0  0  0  0  0  0
    6.9776  -12.1677   25.5683 C   0  0  2  0  0  0  0  0  0  0  0  0
    7.4479  -12.7224   26.8896 C   0  0  0  0  0  0  0  0  0  0  0  0
    6.2286  -13.2379   27.6342 C   0  0  2  0  0  0  0  0  0  0  0  0
    8.4000  -13.8659   26.7452 N   0  0  0  0  0  0  0  0  0  0  0  0
    7.7572  -14.9005   25.9637 C   0  0  0  0  0  0  0  0  0  0  0  0
    8.8855  -14.4409   27.9991 O   0  0  0  0  0  0  0  0  0  0  0  0
    8.5871  -15.5921   28.4160 O   0  0  0  0  0  0  0  0  0  0  0  0
  1  2  1  0
  2  3  2  0
  4  5  1  0
  4  2  1  0
  6  5  1  0
  7  6  1  0
  8 10  1  0
  8  7  1  0
  8  9  1  6
 10 11  2  0
 12 13  1  0
 12 10  1  0
 13 14  1  1
 14 15  1  0
 15 16  2  0
 16 17  1  0
 18 17  1  0
 19 15  1  0
 19 18  2  0
 20 13  1  0
 21 20  2  0
 23 22  1  1
 23 24  1  0
 23 25  1  0
 25 27  1  0
 25 26  1  1
 26 20  1  0
 27 29  1  0
 28 27  2  0
M  END
$$$$
