RHV.pdb
     RDKit          3D

 29 29  0  0  1  0  0  0  0  0999 V2000
    9.3693  -15.1361   16.1323 N   0  0  0  0  0  0  0  0  0  0  0  0
    8.5177  -14.0161   16.3216 C   0  0  0  0  0  0  0  0  0  0  0  0
    7.6960  -13.7003   15.3897 N   0  0  0  0  0  0  0  0  0  0  0  0
    8.5936  -13.2770   17.5267 N   0  0  0  0  0  0  0  0  0  0  0  0
    8.3783  -13.8832   18.7941 C   0  0  0  0  0  0  0  0  0  0  0  0
    6.9885  -14.1735   19.2054 C   0  0  0  0  0  0  0  0  0  0  0  0
    6.7769  -14.6887   20.5804 C   0  0  0  0  0  0  0  0  0  0  0  0
    7.1774  -16.1198   20.8013 C   0  0  2  0  0  0  0  0  0  0  0  0
    6.1033  -17.0033   20.3450 N   0  0  0  0  0  0  0  0  0  0  0  0
    7.4373  -16.3696   22.2618 C   0  0  0  0  0  0  0  0  0  0  0  0
    6.4696  -16.3390   23.0541 O   0  0  0  0  0  0  0  0  0  0  0  0
    7.0567  -12.9012   15.3748 N   0  0  0  0  0  0  0  0  0  0  0  0
    8.7797  -16.6339   22.6986 C   0  0  2  0  0  0  0  0  0  0  0  0
    9.0761  -16.8749   24.0956 C   0  0  0  0  0  0  0  0  0  0  0  0
   10.2722  -17.7163   24.3335 C   0  0  0  0  0  0  0  0  0  0  0  0
   10.5370  -18.0606   25.7388 C   0  0  0  0  0  0  0  0  0  0  0  0
    9.8346  -17.7443   26.8701 N   0  0  0  0  0  0  0  0  0  0  0  0
   10.4996  -18.2924   27.9138 C   0  0  0  0  0  0  0  0  0  0  0  0
   11.5763  -18.9242   27.4306 N   0  0  0  0  0  0  0  0  0  0  0  0
   11.6179  -18.7938   26.0955 C   0  0  0  0  0  0  0  0  0  0  0  0
    9.1911  -15.5817   24.8361 O   0  0  0  0  0  0  0  0  0  0  0  0
   10.0269  -14.7388   24.4338 C   0  0  0  0  0  0  0  0  0  0  0  0
    6.9485  -12.2616   27.5629 C   0  0  2  0  0  0  0  0  0  0  0  0
    7.0169  -13.5729   26.8210 C   0  0  0  0  0  0  0  0  0  0  0  0
    6.3840  -13.3648   25.4561 C   0  0  1  0  0  0  0  0  0  0  0  0
    8.4150  -14.0529   26.5970 N   0  0  0  0  0  0  0  0  0  0  0  0
    8.3563  -15.3518   25.9615 C   0  0  0  0  0  0  0  0  0  0  0  0
    9.2484  -14.1403   27.7955 O   0  0  0  0  0  0  0  0  0  0  0  0
    9.5518  -15.2182   28.3736 O   0  0  0  0  0  0  0  0  0  0  0  0
  1  2  1  0
  2  3  2  0
  4  5  1  0
  4  2  1  0
  6  5  1  0
  7  6  1  0
  8 10  1  0
  8  7  1  0
  8  9  1  1
 10 11  2  0
 12 13  1  0
 12 10  1  0
 13 14  1  6
 14 15  1  0
 15 16  2  0
 16 17  1  0
 18 17  1  0
 19 15  1  0
 19 18  2  0
 20 13  1  0
 21 20  2  0
 23 22  1  1
 23 24  1  0
 23 25  1  0
 25 27  1  0
 25 26  1  1
 26 20  1  0
 27 29  1  0
 28 27  2  0
M  END
$$$$
