RHV.pdb
     RDKit          3D

 29 29  0  0  1  0  0  0  0  0999 V2000
    8.2774  -12.5459   16.5901 N   0  0  0  0  0  0  0  0  0  0  0  0
    8.5961  -13.9258   16.6884 C   0  0  0  0  0  0  0  0  0  0  0  0
    8.5826  -14.6402   15.6240 N   0  0  0  0  0  0  0  0  0  0  0  0
    8.9191  -14.4797   17.9506 N   0  0  0  0  0  0  0  0  0  0  0  0
    8.9402  -13.6914   19.1332 C   0  0  0  0  0  0  0  0  0  0  0  0
    7.6775  -13.5154   19.8811 C   0  0  0  0  0  0  0  0  0  0  0  0
    7.5894  -14.1330   21.2270 C   0  0  0  0  0  0  0  0  0  0  0  0
    7.3391  -15.6144   21.2415 C   0  0  2  0  0  0  0  0  0  0  0  0
    5.9470  -15.8778   20.8740 N   0  0  0  0  0  0  0  0  0  0  0  0
    7.6041  -16.1753   22.6119 C   0  0  0  0  0  0  0  0  0  0  0  0
    6.6910  -16.1226   23.4654 O   0  0  0  0  0  0  0  0  0  0  0  0
    8.8470  -15.6253   15.5382 N   0  0  0  0  0  0  0  0  0  0  0  0
    8.8891  -16.7504   22.8962 C   0  0  2  0  0  0  0  0  0  0  0  0
    9.1514  -17.4016   24.1630 C   0  0  0  0  0  0  0  0  0  0  0  0
    9.9343  -18.6552   24.0587 C   0  0  0  0  0  0  0  0  0  0  0  0
   10.3186  -19.2720   25.3375 C   0  0  0  0  0  0  0  0  0  0  0  0
   11.5496  -19.3870   25.9246 N   0  0  0  0  0  0  0  0  0  0  0  0
   11.3696  -20.0460   27.0931 C   0  0  0  0  0  0  0  0  0  0  0  0
   10.0656  -20.3241   27.2130 N   0  0  0  0  0  0  0  0  0  0  0  0
    9.4019  -19.8568   26.1442 C   0  0  0  0  0  0  0  0  0  0  0  0
    9.8085  -16.4524   25.1124 O   0  0  0  0  0  0  0  0  0  0  0  0
   10.7912  -15.7896   24.7051 C   0  0  0  0  0  0  0  0  0  0  0  0
    9.6624  -13.6147   28.9994 C   0  0  2  0  0  0  0  0  0  0  0  0
    9.0345  -14.5456   27.9924 C   0  0  0  0  0  0  0  0  0  0  0  0
    8.4397  -13.6939   26.8843 C   0  0  1  0  0  0  0  0  0  0  0  0
   10.0150  -15.4805   27.3603 N   0  0  0  0  0  0  0  0  0  0  0  0
    9.3019  -16.3332   26.4335 C   0  0  0  0  0  0  0  0  0  0  0  0
   10.7788  -16.3120   28.2897 O   0  0  0  0  0  0  0  0  0  0  0  0
   10.3002  -17.2858   28.9307 O   0  0  0  0  0  0  0  0  0  0  0  0
  1  2  1  0
  2  3  2  0
  4  5  1  0
  4  2  1  0
  6  5  1  0
  7  6  1  0
  8 10  1  0
  8  7  1  0
  8  9  1  1
 10 11  2  0
 12 13  1  0
 12 10  1  0
 13 14  1  6
 14 15  1  0
 15 16  2  0
 16 17  1  0
 18 17  1  0
 19 15  1  0
 19 18  2  0
 20 13  1  0
 21 20  2  0
 23 22  1  1
 23 24  1  0
 23 25  1  0
 25 27  1  0
 25 26  1  1
 26 20  1  0
 27 29  1  0
 28 27  2  0
M  END
$$$$
