RHV.pdb
     RDKit          3D

 29 29  0  0  1  0  0  0  0  0999 V2000
    7.1792  -12.9890   15.0681 N   0  0  0  0  0  0  0  0  0  0  0  0
    7.7825  -14.2654   14.9186 C   0  0  0  0  0  0  0  0  0  0  0  0
    7.4277  -15.0048   13.9333 N   0  0  0  0  0  0  0  0  0  0  0  0
    8.7558  -14.6916   15.8543 N   0  0  0  0  0  0  0  0  0  0  0  0
    8.4578  -14.8297   17.2371 C   0  0  0  0  0  0  0  0  0  0  0  0
    7.8642  -13.6759   17.9451 C   0  0  0  0  0  0  0  0  0  0  0  0
    7.5726  -13.8382   19.3906 C   0  0  0  0  0  0  0  0  0  0  0  0
    8.6748  -14.4534   20.2055 C   0  0  2  0  0  0  0  0  0  0  0  0
    9.1397  -15.6780   19.5523 N   0  0  0  0  0  0  0  0  0  0  0  0
    8.1797  -14.7860   21.5865 C   0  0  0  0  0  0  0  0  0  0  0  0
    7.5668  -13.9049   22.2292 O   0  0  0  0  0  0  0  0  0  0  0  0
    7.7969  -15.9278   13.6896 N   0  0  0  0  0  0  0  0  0  0  0  0
    8.4243  -16.0964   22.1209 C   0  0  1  0  0  0  0  0  0  0  0  0
    7.9372  -16.4703   23.4326 C   0  0  0  0  0  0  0  0  0  0  0  0
    8.2022  -17.8790   23.8077 C   0  0  0  0  0  0  0  0  0  0  0  0
    7.7472  -18.2752   25.1491 C   0  0  0  0  0  0  0  0  0  0  0  0
    7.0871  -17.5507   26.1045 N   0  0  0  0  0  0  0  0  0  0  0  0
    6.9063  -18.3702   27.1665 C   0  0  0  0  0  0  0  0  0  0  0  0
    7.4416  -19.5596   26.8653 N   0  0  0  0  0  0  0  0  0  0  0  0
    7.9638  -19.5224   25.6296 C   0  0  0  0  0  0  0  0  0  0  0  0
    8.4744  -15.5422   24.4737 O   0  0  0  0  0  0  0  0  0  0  0  0
    9.7141  -15.3663   24.5303 C   0  0  0  0  0  0  0  0  0  0  0  0
    5.8386  -13.1640   27.0544 C   0  0  2  0  0  0  0  0  0  0  0  0
    7.1245  -12.7787   26.3668 C   0  0  0  0  0  0  0  0  0  0  0  0
    7.7769  -11.6810   27.1891 C   0  0  1  0  0  0  0  0  0  0  0  0
    8.1026  -13.9052   26.2687 N   0  0  0  0  0  0  0  0  0  0  0  0
    7.5704  -14.8950   25.3570 C   0  0  0  0  0  0  0  0  0  0  0  0
    8.4450  -14.5514   27.5351 O   0  0  0  0  0  0  0  0  0  0  0  0
    8.0343  -15.6899   27.8863 O   0  0  0  0  0  0  0  0  0  0  0  0
  1  2  1  0
  2  3  2  0
  4  5  1  0
  4  2  1  0
  6  5  1  0
  7  6  1  0
  8 10  1  0
  8  7  1  0
  8  9  1  6
 10 11  2  0
 12 13  1  0
 12 10  1  0
 13 14  1  1
 14 15  1  0
 15 16  2  0
 16 17  1  0
 18 17  1  0
 19 15  1  0
 19 18  2  0
 20 13  1  0
 21 20  2  0
 23 22  1  6
 23 24  1  0
 23 25  1  0
 25 27  1  0
 25 26  1  6
 26 20  1  0
 27 29  1  0
 28 27  2  0
M  END
$$$$
