RHV.pdb
     RDKit          3D

 29 29  0  0  1  0  0  0  0  0999 V2000
   13.6595  -20.6257   24.2066 N   0  0  0  0  0  0  0  0  0  0  0  0
   14.6909  -20.0439   23.4235 C   0  0  0  0  0  0  0  0  0  0  0  0
   15.8640  -19.9361   23.9289 N   0  0  0  0  0  0  0  0  0  0  0  0
   14.4039  -19.5980   22.1108 N   0  0  0  0  0  0  0  0  0  0  0  0
   13.0775  -19.5694   21.6009 C   0  0  0  0  0  0  0  0  0  0  0  0
   12.4956  -18.2611   21.2338 C   0  0  0  0  0  0  0  0  0  0  0  0
   11.1053  -18.2535   20.7159 C   0  0  0  0  0  0  0  0  0  0  0  0
   10.5820  -16.9100   20.2937 C   0  0  2  0  0  0  0  0  0  0  0  0
   11.5547  -16.2623   19.4122 N   0  0  0  0  0  0  0  0  0  0  0  0
   10.3479  -16.0390   21.4976 C   0  0  0  0  0  0  0  0  0  0  0  0
   11.1297  -15.0846   21.7052 O   0  0  0  0  0  0  0  0  0  0  0  0
   16.6840  -19.4998   23.4988 N   0  0  0  0  0  0  0  0  0  0  0  0
    9.2412  -16.3282   22.3660 C   0  0  2  0  0  0  0  0  0  0  0  0
    8.8741  -15.4217   23.4343 C   0  0  0  0  0  0  0  0  0  0  0  0
    7.4163  -15.1992   23.5774 C   0  0  0  0  0  0  0  0  0  0  0  0
    7.0169  -14.2801   24.6541 C   0  0  0  0  0  0  0  0  0  0  0  0
    7.2316  -12.9351   24.7882 N   0  0  0  0  0  0  0  0  0  0  0  0
    6.6717  -12.5611   25.9623 C   0  0  0  0  0  0  0  0  0  0  0  0
    6.1319  -13.6485   26.5265 N   0  0  0  0  0  0  0  0  0  0  0  0
    6.3330  -14.7159   25.7383 C   0  0  0  0  0  0  0  0  0  0  0  0
    9.4632  -15.8758   24.7307 O   0  0  0  0  0  0  0  0  0  0  0  0
    9.8721  -17.0575   24.8160 C   0  0  0  0  0  0  0  0  0  0  0  0
   10.7512  -14.6399   29.3533 C   0  0  2  0  0  0  0  0  0  0  0  0
   10.0736  -14.3085   28.0472 C   0  0  0  0  0  0  0  0  0  0  0  0
   10.7965  -13.1182   27.4410 C   0  0  1  0  0  0  0  0  0  0  0  0
   10.1328  -15.4221   27.0515 N   0  0  0  0  0  0  0  0  0  0  0  0
    9.5404  -14.9613   25.8141 C   0  0  0  0  0  0  0  0  0  0  0  0
    9.4839  -16.6666   27.4621 O   0  0  0  0  0  0  0  0  0  0  0  0
    8.2636  -16.9251   27.2826 O   0  0  0  0  0  0  0  0  0  0  0  0
  1  2  1  0
  2  3  2  0
  4  5  1  0
  4  2  1  0
  6  5  1  0
  7  6  1  0
  8 10  1  0
  8  7  1  0
  8  9  1  6
 10 11  2  0
 12 13  1  0
 12 10  1  0
 13 14  1  1
 14 15  1  0
 15 16  2  0
 16 17  1  0
 18 17  1  0
 19 15  1  0
 19 18  2  0
 20 13  1  0
 21 20  2  0
 23 22  1  1
 23 24  1  0
 23 25  1  0
 25 27  1  0
 25 26  1  1
 26 20  1  0
 27 29  1  0
 28 27  2  0
M  END
$$$$
