RHV.pdb
     RDKit          3D

 29 29  0  0  1  0  0  0  0  0999 V2000
    7.8938  -13.2502   15.4592 N   0  0  0  0  0  0  0  0  0  0  0  0
    8.5390  -14.4753   15.7731 C   0  0  0  0  0  0  0  0  0  0  0  0
    8.4805  -15.4382   14.9289 N   0  0  0  0  0  0  0  0  0  0  0  0
    9.2279  -14.6066   17.0029 N   0  0  0  0  0  0  0  0  0  0  0  0
    8.7863  -13.9514   18.1844 C   0  0  0  0  0  0  0  0  0  0  0  0
    7.3318  -13.8458   18.4257 C   0  0  0  0  0  0  0  0  0  0  0  0
    6.8176  -14.3425   19.7256 C   0  0  0  0  0  0  0  0  0  0  0  0
    7.1421  -15.7748   20.0425 C   0  0  2  0  0  0  0  0  0  0  0  0
    6.2951  -16.6567   19.2380 N   0  0  0  0  0  0  0  0  0  0  0  0
    6.9029  -16.0538   21.5012 C   0  0  0  0  0  0  0  0  0  0  0  0
    5.7735  -15.8062   21.9790 O   0  0  0  0  0  0  0  0  0  0  0  0
    8.9256  -16.3565   15.0079 N   0  0  0  0  0  0  0  0  0  0  0  0
    7.9716  -16.5925   22.2952 C   0  0  1  0  0  0  0  0  0  0  0  0
    7.7990  -16.8356   23.7125 C   0  0  0  0  0  0  0  0  0  0  0  0
    8.2802  -18.1596   24.1716 C   0  0  0  0  0  0  0  0  0  0  0  0
    8.0473  -18.4621   25.5921 C   0  0  0  0  0  0  0  0  0  0  0  0
    6.8754  -18.5413   26.2947 N   0  0  0  0  0  0  0  0  0  0  0  0
    7.2014  -18.8400   27.5739 C   0  0  0  0  0  0  0  0  0  0  0  0
    8.5344  -18.9395   27.6471 N   0  0  0  0  0  0  0  0  0  0  0  0
    9.0735  -18.7108   26.4396 C   0  0  0  0  0  0  0  0  0  0  0  0
    8.4333  -15.7431   24.5112 O   0  0  0  0  0  0  0  0  0  0  0  0
    9.6347  -15.4645   24.2880 C   0  0  0  0  0  0  0  0  0  0  0  0
    7.6191  -11.7094   27.1799 C   0  0  2  0  0  0  0  0  0  0  0  0
    7.1320  -12.9888   26.5470 C   0  0  0  0  0  0  0  0  0  0  0  0
    6.3470  -12.6179   25.3008 C   0  0  1  0  0  0  0  0  0  0  0  0
    8.2407  -13.8977   26.1230 N   0  0  0  0  0  0  0  0  0  0  0  0
    7.6605  -15.0617   25.4883 C   0  0  0  0  0  0  0  0  0  0  0  0
    9.1414  -14.3301   27.1909 O   0  0  0  0  0  0  0  0  0  0  0  0
    8.9900  -15.3836   27.8658 O   0  0  0  0  0  0  0  0  0  0  0  0
  1  2  1  0
  2  3  2  0
  4  5  1  0
  4  2  1  0
  6  5  1  0
  7  6  1  0
  8 10  1  0
  8  7  1  0
  8  9  1  6
 10 11  2  0
 12 13  1  0
 12 10  1  0
 13 14  1  6
 14 15  1  0
 15 16  2  0
 16 17  1  0
 18 17  1  0
 19 15  1  0
 19 18  2  0
 20 13  1  0
 21 20  2  0
 23 22  1  1
 23 24  1  0
 23 25  1  0
 25 27  1  0
 25 26  1  1
 26 20  1  0
 27 29  1  0
 28 27  2  0
M  END
$$$$
