RHV.pdb
     RDKit          3D

 29 29  0  0  1  0  0  0  0  0999 V2000
    8.2784  -13.7175   14.6602 N   0  0  0  0  0  0  0  0  0  0  0  0
    8.7010  -15.0609   14.8395 C   0  0  0  0  0  0  0  0  0  0  0  0
    8.2034  -15.9708   14.0859 N   0  0  0  0  0  0  0  0  0  0  0  0
    9.6557  -15.3650   15.8398 N   0  0  0  0  0  0  0  0  0  0  0  0
    9.2726  -15.8406   17.1233 C   0  0  0  0  0  0  0  0  0  0  0  0
    8.4458  -14.9628   17.9781 C   0  0  0  0  0  0  0  0  0  0  0  0
    9.1306  -14.2380   19.0766 C   0  0  0  0  0  0  0  0  0  0  0  0
    9.7604  -15.1070   20.1280 C   0  0  2  0  0  0  0  0  0  0  0  0
    9.2159  -16.4622   20.0316 N   0  0  0  0  0  0  0  0  0  0  0  0
    9.4775  -14.5560   21.4988 C   0  0  0  0  0  0  0  0  0  0  0  0
    9.8013  -13.3729   21.7453 O   0  0  0  0  0  0  0  0  0  0  0  0
    8.4416  -16.9662   14.0801 N   0  0  0  0  0  0  0  0  0  0  0  0
    8.8483  -15.3997   22.4761 C   0  0  2  0  0  0  0  0  0  0  0  0
    8.4488  -14.8774   23.7666 C   0  0  0  0  0  0  0  0  0  0  0  0
    7.0144  -15.0639   24.0874 C   0  0  0  0  0  0  0  0  0  0  0  0
    6.5406  -14.3789   25.2998 C   0  0  0  0  0  0  0  0  0  0  0  0
    6.1108  -14.8958   26.4919 N   0  0  0  0  0  0  0  0  0  0  0  0
    5.7751  -13.8470   27.2789 C   0  0  0  0  0  0  0  0  0  0  0  0
    5.9945  -12.7237   26.5845 N   0  0  0  0  0  0  0  0  0  0  0  0
    6.4653  -13.0286   25.3652 C   0  0  0  0  0  0  0  0  0  0  0  0
    9.3054  -15.4493   24.8497 O   0  0  0  0  0  0  0  0  0  0  0  0
    9.9071  -16.5256   24.6255 C   0  0  0  0  0  0  0  0  0  0  0  0
   10.9307  -12.8734   27.5743 C   0  0  2  0  0  0  0  0  0  0  0  0
   10.5285  -14.2189   28.1243 C   0  0  0  0  0  0  0  0  0  0  0  0
    9.1921  -14.0501   28.8261 C   0  0  2  0  0  0  0  0  0  0  0  0
   10.3495  -15.2601   27.0665 N   0  0  0  0  0  0  0  0  0  0  0  0
    9.4091  -14.7600   26.0868 C   0  0  0  0  0  0  0  0  0  0  0  0
    9.8997  -16.5677   27.5424 O   0  0  0  0  0  0  0  0  0  0  0  0
    8.7360  -17.0225   27.3779 O   0  0  0  0  0  0  0  0  0  0  0  0
  1  2  1  0
  2  3  2  0
  4  5  1  0
  4  2  1  0
  6  5  1  0
  7  6  1  0
  8 10  1  0
  8  7  1  0
  8  9  1  1
 10 11  2  0
 12 13  1  0
 12 10  1  0
 13 14  1  6
 14 15  1  0
 15 16  2  0
 16 17  1  0
 18 17  1  0
 19 15  1  0
 19 18  2  0
 20 13  1  0
 21 20  2  0
 23 22  1  1
 23 24  1  0
 23 25  1  0
 25 27  1  0
 25 26  1  1
 26 20  1  0
 27 29  1  0
 28 27  2  0
M  END
$$$$
