RHV.pdb
     RDKit          3D

 29 29  0  0  1  0  0  0  0  0999 V2000
    8.2864  -12.6147   16.9671 N   0  0  0  0  0  0  0  0  0  0  0  0
    9.2225  -13.3995   17.6904 C   0  0  0  0  0  0  0  0  0  0  0  0
   10.3351  -12.8674   18.0402 N   0  0  0  0  0  0  0  0  0  0  0  0
    8.9100  -14.7435   18.0072 N   0  0  0  0  0  0  0  0  0  0  0  0
    7.5708  -15.2194   18.0219 C   0  0  0  0  0  0  0  0  0  0  0  0
    6.6288  -14.6324   18.9981 C   0  0  0  0  0  0  0  0  0  0  0  0
    6.9039  -14.8651   20.4372 C   0  0  0  0  0  0  0  0  0  0  0  0
    7.2418  -16.2812   20.8082 C   0  0  2  0  0  0  0  0  0  0  0  0
    6.3888  -17.2004   20.0532 N   0  0  0  0  0  0  0  0  0  0  0  0
    7.0253  -16.5010   22.2805 C   0  0  0  0  0  0  0  0  0  0  0  0
    5.9864  -16.0430   22.8060 O   0  0  0  0  0  0  0  0  0  0  0  0
   11.1219  -13.3296   18.5038 N   0  0  0  0  0  0  0  0  0  0  0  0
    8.0114  -17.2253   23.0325 C   0  0  2  0  0  0  0  0  0  0  0  0
    7.8796  -17.3980   24.4644 C   0  0  0  0  0  0  0  0  0  0  0  0
    8.3807  -18.6952   24.9754 C   0  0  0  0  0  0  0  0  0  0  0  0
    8.3261  -18.8664   26.4353 C   0  0  0  0  0  0  0  0  0  0  0  0
    9.3375  -18.8923   27.3571 N   0  0  0  0  0  0  0  0  0  0  0  0
    8.7636  -19.0852   28.5676 C   0  0  0  0  0  0  0  0  0  0  0  0
    7.4401  -19.1743   28.3868 N   0  0  0  0  0  0  0  0  0  0  0  0
    7.1503  -19.0424   27.0831 C   0  0  0  0  0  0  0  0  0  0  0  0
    8.5297  -16.2641   25.1896 O   0  0  0  0  0  0  0  0  0  0  0  0
    9.6159  -15.8213   24.7482 C   0  0  0  0  0  0  0  0  0  0  0  0
    7.9942  -12.4035   28.0852 C   0  0  2  0  0  0  0  0  0  0  0  0
    7.4640  -13.6107   27.3529 C   0  0  0  0  0  0  0  0  0  0  0  0
    6.8431  -13.1271   26.0539 C   0  0  1  0  0  0  0  0  0  0  0  0
    8.5267  -14.6010   26.9990 N   0  0  0  0  0  0  0  0  0  0  0  0
    7.9005  -15.7298   26.3450 C   0  0  0  0  0  0  0  0  0  0  0  0
    9.3356  -15.0810   28.1188 O   0  0  0  0  0  0  0  0  0  0  0  0
    9.0981  -16.1352   28.7671 O   0  0  0  0  0  0  0  0  0  0  0  0
  1  2  1  0
  2  3  2  0
  4  5  1  0
  4  2  1  0
  6  5  1  0
  7  6  1  0
  8 10  1  0
  8  7  1  0
  8  9  1  6
 10 11  2  0
 12 13  1  0
 12 10  1  0
 13 14  1  6
 14 15  1  0
 15 16  2  0
 16 17  1  0
 18 17  1  0
 19 15  1  0
 19 18  2  0
 20 13  1  0
 21 20  2  0
 23 22  1  1
 23 24  1  0
 23 25  1  0
 25 27  1  0
 25 26  1  1
 26 20  1  0
 27 29  1  0
 28 27  2  0
M  END
$$$$
