RHV.pdb
     RDKit          3D

 29 29  0  0  1  0  0  0  0  0999 V2000
    9.1753  -12.4523   17.6206 N   0  0  0  0  0  0  0  0  0  0  0  0
    9.5203  -13.3673   18.6498 C   0  0  0  0  0  0  0  0  0  0  0  0
   10.7347  -13.4082   19.0584 N   0  0  0  0  0  0  0  0  0  0  0  0
    8.5233  -14.2094   19.1986 N   0  0  0  0  0  0  0  0  0  0  0  0
    7.2143  -14.2797   18.6492 C   0  0  0  0  0  0  0  0  0  0  0  0
    6.1927  -15.0678   19.3704 C   0  0  0  0  0  0  0  0  0  0  0  0
    6.4450  -15.3655   20.8017 C   0  0  0  0  0  0  0  0  0  0  0  0
    6.4074  -16.8206   21.1739 C   0  0  2  0  0  0  0  0  0  0  0  0
    5.1917  -17.4314   20.6339 N   0  0  0  0  0  0  0  0  0  0  0  0
    6.4177  -16.9772   22.6699 C   0  0  0  0  0  0  0  0  0  0  0  0
    5.3823  -16.6843   23.3081 O   0  0  0  0  0  0  0  0  0  0  0  0
   11.1356  -14.0593   19.7388 N   0  0  0  0  0  0  0  0  0  0  0  0
    7.6084  -17.4552   23.3154 C   0  0  2  0  0  0  0  0  0  0  0  0
    7.7298  -17.4462   24.7586 C   0  0  0  0  0  0  0  0  0  0  0  0
    8.4695  -18.6007   25.3199 C   0  0  0  0  0  0  0  0  0  0  0  0
    8.5648  -18.6412   26.7872 C   0  0  0  0  0  0  0  0  0  0  0  0
    7.6492  -18.2821   27.7390 N   0  0  0  0  0  0  0  0  0  0  0  0
    8.2254  -18.5017   28.9439 C   0  0  0  0  0  0  0  0  0  0  0  0
    9.4572  -18.9807   28.7305 N   0  0  0  0  0  0  0  0  0  0  0  0
    9.6856  -19.0741   27.4113 C   0  0  0  0  0  0  0  0  0  0  0  0
    8.3350  -16.1613   25.2242 O   0  0  0  0  0  0  0  0  0  0  0  0
    9.3682  -15.7478   24.6478 C   0  0  0  0  0  0  0  0  0  0  0  0
    7.7652  -11.9215   27.5597 C   0  0  2  0  0  0  0  0  0  0  0  0
    7.2508  -13.2313   27.0169 C   0  0  0  0  0  0  0  0  0  0  0  0
    6.5426  -12.9412   25.7049 C   0  0  1  0  0  0  0  0  0  0  0  0
    8.3358  -14.2192   26.7303 N   0  0  0  0  0  0  0  0  0  0  0  0
    7.7244  -15.4566   26.2951 C   0  0  0  0  0  0  0  0  0  0  0  0
    9.2432  -14.4956   27.8433 O   0  0  0  0  0  0  0  0  0  0  0  0
    9.1971  -15.5328   28.5576 O   0  0  0  0  0  0  0  0  0  0  0  0
  1  2  1  0
  2  3  2  0
  4  5  1  0
  4  2  1  0
  6  5  1  0
  7  6  1  0
  8 10  1  0
  8  7  1  0
  8  9  1  1
 10 11  2  0
 12 13  1  0
 12 10  1  0
 13 14  1  6
 14 15  1  0
 15 16  2  0
 16 17  1  0
 18 17  1  0
 19 15  1  0
 19 18  2  0
 20 13  1  0
 21 20  2  0
 23 22  1  1
 23 24  1  0
 23 25  1  0
 25 27  1  0
 25 26  1  1
 26 20  1  0
 27 29  1  0
 28 27  2  0
M  END
$$$$
