RHV.pdb
     RDKit          3D

 29 29  0  0  1  0  0  0  0  0999 V2000
    7.0366  -14.2578   15.5640 N   0  0  0  0  0  0  0  0  0  0  0  0
    8.4395  -14.0726   15.4505 C   0  0  0  0  0  0  0  0  0  0  0  0
    9.0150  -14.3746   14.3454 N   0  0  0  0  0  0  0  0  0  0  0  0
    9.1680  -13.5626   16.5521 N   0  0  0  0  0  0  0  0  0  0  0  0
    8.7602  -13.7945   17.8938 C   0  0  0  0  0  0  0  0  0  0  0  0
    7.5576  -14.6213   18.1281 C   0  0  0  0  0  0  0  0  0  0  0  0
    7.0789  -14.7493   19.5265 C   0  0  0  0  0  0  0  0  0  0  0  0
    7.7869  -15.7807   20.3584 C   0  0  2  0  0  0  0  0  0  0  0  0
    7.8178  -17.0533   19.6360 N   0  0  0  0  0  0  0  0  0  0  0  0
    7.0746  -15.9726   21.6694 C   0  0  0  0  0  0  0  0  0  0  0  0
    5.9284  -16.4738   21.6583 O   0  0  0  0  0  0  0  0  0  0  0  0
   10.0191  -14.3580   14.1475 N   0  0  0  0  0  0  0  0  0  0  0  0
    7.7283  -15.5771   22.8855 C   0  0  1  0  0  0  0  0  0  0  0  0
    7.5016  -16.2958   24.1224 C   0  0  0  0  0  0  0  0  0  0  0  0
    7.8368  -17.7379   24.0652 C   0  0  0  0  0  0  0  0  0  0  0  0
    7.5945  -18.4956   25.3024 C   0  0  0  0  0  0  0  0  0  0  0  0
    7.1131  -18.0747   26.5125 N   0  0  0  0  0  0  0  0  0  0  0  0
    7.0868  -19.1569   27.3249 C   0  0  0  0  0  0  0  0  0  0  0  0
    7.5398  -20.2065   26.6283 N   0  0  0  0  0  0  0  0  0  0  0  0
    7.8574  -19.8214   25.3825 C   0  0  0  0  0  0  0  0  0  0  0  0
    8.2256  -15.6352   25.2509 O   0  0  0  0  0  0  0  0  0  0  0  0
    9.4621  -15.8149   25.3499 C   0  0  0  0  0  0  0  0  0  0  0  0
    5.7328  -12.6722   27.1003 C   0  0  2  0  0  0  0  0  0  0  0  0
    6.9376  -12.5114   26.2074 C   0  0  0  0  0  0  0  0  0  0  0  0
    7.5264  -11.1361   26.4694 C   0  0  1  0  0  0  0  0  0  0  0  0
    8.0114  -13.5161   26.4772 N   0  0  0  0  0  0  0  0  0  0  0  0
    7.4953  -14.8319   26.1660 C   0  0  0  0  0  0  0  0  0  0  0  0
    8.5425  -13.5169   27.8398 O   0  0  0  0  0  0  0  0  0  0  0  0
    8.3694  -14.4491   28.6699 O   0  0  0  0  0  0  0  0  0  0  0  0
  1  2  1  0
  2  3  2  0
  4  5  1  0
  4  2  1  0
  6  5  1  0
  7  6  1  0
  8 10  1  0
  8  7  1  0
  8  9  1  6
 10 11  2  0
 12 13  1  0
 12 10  1  0
 13 14  1  6
 14 15  1  0
 15 16  2  0
 16 17  1  0
 18 17  1  0
 19 15  1  0
 19 18  2  0
 20 13  1  0
 21 20  2  0
 23 22  1  6
 23 24  1  0
 23 25  1  0
 25 27  1  0
 25 26  1  6
 26 20  1  0
 27 29  1  0
 28 27  2  0
M  END
$$$$
