RHV.pdb
     RDKit          3D

 29 29  0  0  1  0  0  0  0  0999 V2000
    8.3291  -13.2130   17.2060 N   0  0  0  0  0  0  0  0  0  0  0  0
    7.9345  -14.1875   16.2519 C   0  0  0  0  0  0  0  0  0  0  0  0
    7.8434  -13.8445   15.0201 N   0  0  0  0  0  0  0  0  0  0  0  0
    7.6516  -15.5076   16.6782 N   0  0  0  0  0  0  0  0  0  0  0  0
    8.2822  -16.0804   17.8159 C   0  0  0  0  0  0  0  0  0  0  0  0
    8.3587  -15.2766   19.0541 C   0  0  0  0  0  0  0  0  0  0  0  0
    9.0698  -15.8723   20.2119 C   0  0  0  0  0  0  0  0  0  0  0  0
    8.4416  -17.1100   20.7870 C   0  0  2  0  0  0  0  0  0  0  0  0
    7.4276  -17.6179   19.8616 N   0  0  0  0  0  0  0  0  0  0  0  0
    7.7948  -16.8009   22.1094 C   0  0  0  0  0  0  0  0  0  0  0  0
    6.6440  -16.3100   22.1109 O   0  0  0  0  0  0  0  0  0  0  0  0
    7.5398  -14.4296   14.2371 N   0  0  0  0  0  0  0  0  0  0  0  0
    8.5135  -17.0773   23.3217 C   0  0  1  0  0  0  0  0  0  0  0  0
    7.9007  -16.8672   24.6171 C   0  0  0  0  0  0  0  0  0  0  0  0
    8.0452  -18.0037   25.5565 C   0  0  0  0  0  0  0  0  0  0  0  0
    7.2985  -19.2202   25.2011 C   0  0  0  0  0  0  0  0  0  0  0  0
    6.3983  -19.4376   24.1933 N   0  0  0  0  0  0  0  0  0  0  0  0
    5.9888  -20.7232   24.3003 C   0  0  0  0  0  0  0  0  0  0  0  0
    6.6221  -21.2720   25.3442 N   0  0  0  0  0  0  0  0  0  0  0  0
    7.4320  -20.3648   25.9118 C   0  0  0  0  0  0  0  0  0  0  0  0
    8.4111  -15.6073   25.2385 O   0  0  0  0  0  0  0  0  0  0  0  0
    9.6315  -15.3431   25.1300 C   0  0  0  0  0  0  0  0  0  0  0  0
    7.3159  -11.2703   27.3066 C   0  0  2  0  0  0  0  0  0  0  0  0
    6.8966  -12.5749   26.6764 C   0  0  0  0  0  0  0  0  0  0  0  0
    6.3596  -12.2662   25.2896 C   0  0  1  0  0  0  0  0  0  0  0  0
    8.0249  -13.5422   26.5139 N   0  0  0  0  0  0  0  0  0  0  0  0
    7.5042  -14.7575   25.9253 C   0  0  0  0  0  0  0  0  0  0  0  0
    8.7498  -13.8730   27.7401 O   0  0  0  0  0  0  0  0  0  0  0  0
    8.4130  -14.7859   28.5410 O   0  0  0  0  0  0  0  0  0  0  0  0
  1  2  1  0
  2  3  2  0
  4  5  1  0
  4  2  1  0
  6  5  1  0
  7  6  1  0
  8 10  1  0
  8  7  1  0
  8  9  1  6
 10 11  2  0
 12 13  1  0
 12 10  1  0
 13 14  1  1
 14 15  1  0
 15 16  2  0
 16 17  1  0
 18 17  1  0
 19 15  1  0
 19 18  2  0
 20 13  1  0
 21 20  2  0
 23 22  1  1
 23 24  1  0
 23 25  1  0
 25 27  1  0
 25 26  1  1
 26 20  1  0
 27 29  1  0
 28 27  2  0
M  END
$$$$
