PLV.pdb
     RDKit          3D

 23 23  0  0  1  0  0  0  0  0999 V2000
   26.9643  -17.7755  -14.3848 N   0  0  0  0  0  0  0  0  0  0  0  0
   28.0778  -17.1257  -15.0280 C   0  0  0  0  0  0  0  0  0  0  0  0
   29.0470  -18.2080  -15.4139 C   0  0  0  0  0  0  0  0  0  0  0  0
   28.3341  -19.5201  -15.2315 C   0  0  0  0  0  0  0  0  0  0  0  0
   26.9278  -19.1087  -14.8848 C   0  0  1  0  0  0  0  0  0  0  0  0
   26.3523  -20.0031  -13.8125 C   0  0  0  0  0  0  0  0  0  0  0  0
   26.2017  -21.2032  -14.1119 O   0  0  0  0  0  0  0  0  0  0  0  0
   24.7867  -21.2902   -8.5419 C   0  0  0  0  0  0  0  0  0  0  0  0
   26.1005  -20.8496   -9.0935 C   0  0  2  0  0  0  0  0  0  0  0  0
   26.8730  -20.2225   -7.9144 C   0  0  0  0  0  0  0  0  0  0  0  0
   26.0297  -19.9063  -10.2326 C   0  0  0  0  0  0  0  0  0  0  0  0
   25.3993  -20.2491  -11.5104 C   0  0  2  0  0  0  0  0  0  0  0  0
   26.0230  -19.4672  -12.5702 N   0  0  0  0  0  0  0  0  0  0  0  0
   23.9515  -20.2216  -11.5925 C   0  0  0  0  0  0  0  0  0  0  0  0
   23.1998  -19.2564  -11.3163 O   0  0  0  0  0  0  0  0  0  0  0  0
   22.0210  -23.4198  -13.8824 C   0  0  0  0  0  0  0  0  0  0  0  0
   21.7811  -21.9495  -13.9551 C   0  0  1  0  0  0  0  0  0  0  0  0
   20.3850  -21.7097  -14.4801 C   0  0  0  0  0  0  0  0  0  0  0  0
   21.8945  -21.2333  -12.6300 C   0  0  2  0  0  0  0  0  0  0  0  0
   23.1947  -21.3900  -12.0307 N   0  0  0  0  0  0  0  0  0  0  0  0
   20.8896  -21.8106  -11.7149 C   0  0  0  0  0  0  0  0  0  0  0  0
   19.5448  -21.6381  -11.9452 O   0  0  0  0  0  0  0  0  0  0  0  0
   21.2679  -22.4622  -10.7218 O   0  0  0  0  0  0  0  0  0  0  0  0
  1  2  1  0
  3  2  1  0
  4  3  1  0
  5  4  1  0
  5  1  1  0
  5  6  1  1
  6  7  2  0
  9  8  1  1
  9 11  1  0
  9 10  1  0
 12 11  1  1
 12 14  1  0
 12 13  1  0
 13  6  1  0
 14 20  1  0
 15 14  2  0
 17 16  1  1
 17 19  1  0
 18 17  1  0
 19 21  1  0
 19 20  1  1
 21 23  2  0
 21 22  1  0
M  END
$$$$
