PLV.pdb
     RDKit          3D

 23 23  0  0  1  0  0  0  0  0999 V2000
   29.1992  -21.9275  -13.0185 N   0  0  0  0  0  0  0  0  0  0  0  0
   29.5288  -21.5192  -14.3602 C   0  0  0  0  0  0  0  0  0  0  0  0
   28.8496  -20.1981  -14.5903 C   0  0  0  0  0  0  0  0  0  0  0  0
   28.3549  -19.7208  -13.2523 C   0  0  0  0  0  0  0  0  0  0  0  0
   28.9112  -20.7373  -12.2908 C   0  0  1  0  0  0  0  0  0  0  0  0
   27.9055  -21.0697  -11.2143 C   0  0  0  0  0  0  0  0  0  0  0  0
   27.2756  -22.1359  -11.3528 O   0  0  0  0  0  0  0  0  0  0  0  0
   27.8311  -21.2277   -6.4029 C   0  0  0  0  0  0  0  0  0  0  0  0
   28.0105  -19.9547   -7.1590 C   0  0  2  0  0  0  0  0  0  0  0  0
   28.3026  -18.8665   -6.1050 C   0  0  0  0  0  0  0  0  0  0  0  0
   26.8719  -19.5577   -8.0183 C   0  0  0  0  0  0  0  0  0  0  0  0
   26.5545  -20.2334   -9.2794 C   0  0  2  0  0  0  0  0  0  0  0  0
   27.7278  -20.1982  -10.1430 N   0  0  0  0  0  0  0  0  0  0  0  0
   25.3474  -19.8449   -9.9834 C   0  0  0  0  0  0  0  0  0  0  0  0
   24.8735  -18.6880  -10.0838 O   0  0  0  0  0  0  0  0  0  0  0  0
   24.6591  -20.6782  -13.7179 C   0  0  0  0  0  0  0  0  0  0  0  0
   23.4810  -21.0599  -12.8867 C   0  0  1  0  0  0  0  0  0  0  0  0
   23.5031  -22.5546  -12.6685 C   0  0  0  0  0  0  0  0  0  0  0  0
   23.4402  -20.4054  -11.5259 C   0  0  2  0  0  0  0  0  0  0  0  0
   24.5258  -20.8297  -10.6799 N   0  0  0  0  0  0  0  0  0  0  0  0
   22.1701  -20.7873  -10.8768 C   0  0  0  0  0  0  0  0  0  0  0  0
   20.9637  -20.3681  -11.3869 O   0  0  0  0  0  0  0  0  0  0  0  0
   22.1945  -21.4988   -9.8536 O   0  0  0  0  0  0  0  0  0  0  0  0
  1  2  1  0
  3  2  1  0
  4  3  1  0
  5  4  1  0
  5  1  1  0
  5  6  1  1
  6  7  2  0
  9  8  1  1
  9 11  1  0
  9 10  1  0
 12 11  1  1
 12 14  1  0
 12 13  1  0
 13  6  1  0
 14 20  1  0
 15 14  2  0
 17 16  1  1
 17 19  1  0
 18 17  1  0
 19 21  1  0
 19 20  1  1
 21 23  2  0
 21 22  1  0
M  END
$$$$
