PLV.pdb
     RDKit          3D

 23 23  0  0  1  0  0  0  0  0999 V2000
   18.5017  -12.7197  -18.0451 N   0  0  0  0  0  0  0  0  0  0  0  0
   17.8038  -13.2355  -19.1952 C   0  0  0  0  0  0  0  0  0  0  0  0
   17.8107  -12.1459  -20.2308 C   0  0  0  0  0  0  0  0  0  0  0  0
   18.7750  -11.0944  -19.7541 C   0  0  0  0  0  0  0  0  0  0  0  0
   19.3872  -11.7126  -18.5251 C   0  0  1  0  0  0  0  0  0  0  0  0
   19.5705  -10.6823  -17.4363 C   0  0  0  0  0  0  0  0  0  0  0  0
   18.6197  -10.5359  -16.6443 O   0  0  0  0  0  0  0  0  0  0  0  0
   21.5895  -10.0187  -13.4665 C   0  0  0  0  0  0  0  0  0  0  0  0
   22.4536  -10.1654  -14.6733 C   0  0  2  0  0  0  0  0  0  0  0  0
   23.9092  -10.1654  -14.1619 C   0  0  0  0  0  0  0  0  0  0  0  0
   22.2674   -9.1348  -15.7200 C   0  0  0  0  0  0  0  0  0  0  0  0
   20.9831   -8.9017  -16.3861 C   0  0  2  0  0  0  0  0  0  0  0  0
   20.7583   -9.9592  -17.3632 N   0  0  0  0  0  0  0  0  0  0  0  0
   20.7229   -7.5857  -16.9375 C   0  0  0  0  0  0  0  0  0  0  0  0
   21.3685   -7.0081  -17.8445 O   0  0  0  0  0  0  0  0  0  0  0  0
   17.4016   -6.2488  -18.4525 C   0  0  0  0  0  0  0  0  0  0  0  0
   17.8932   -5.3052  -17.4072 C   0  0  1  0  0  0  0  0  0  0  0  0
   17.0861   -5.5117  -16.1470 C   0  0  0  0  0  0  0  0  0  0  0  0
   19.3492   -5.4803  -17.0448 C   0  0  2  0  0  0  0  0  0  0  0  0
   19.6169   -6.7659  -16.4532 N   0  0  0  0  0  0  0  0  0  0  0  0
   19.7009   -4.4356  -16.0624 C   0  0  0  0  0  0  0  0  0  0  0  0
   19.8746   -4.7466  -14.7341 O   0  0  0  0  0  0  0  0  0  0  0  0
   19.8415   -3.2574  -16.4446 O   0  0  0  0  0  0  0  0  0  0  0  0
  1  2  1  0
  3  2  1  0
  4  3  1  0
  5  4  1  0
  5  1  1  0
  5  6  1  1
  6  7  2  0
  9  8  1  1
  9 11  1  0
  9 10  1  0
 12 11  1  6
 12 14  1  0
 12 13  1  0
 13  6  1  0
 14 20  1  0
 15 14  2  0
 17 16  1  6
 17 19  1  0
 18 17  1  0
 19 21  1  0
 19 20  1  1
 21 23  2  0
 21 22  1  0
M  END
$$$$
