PLV.pdb
     RDKit          3D

 23 23  0  0  1  0  0  0  0  0999 V2000
   28.0284  -19.9462  -15.8724 N   0  0  0  0  0  0  0  0  0  0  0  0
   29.3588  -19.9818  -16.4243 C   0  0  0  0  0  0  0  0  0  0  0  0
   29.8196  -21.4108  -16.3521 C   0  0  0  0  0  0  0  0  0  0  0  0
   28.6148  -22.2429  -16.0071 C   0  0  0  0  0  0  0  0  0  0  0  0
   27.4827  -21.2508  -16.0429 C   0  0  1  0  0  0  0  0  0  0  0  0
   26.5041  -21.5072  -14.9215 C   0  0  0  0  0  0  0  0  0  0  0  0
   25.7807  -22.5154  -15.0352 O   0  0  0  0  0  0  0  0  0  0  0  0
   26.1504  -19.6031   -9.1055 C   0  0  0  0  0  0  0  0  0  0  0  0
   25.4451  -20.3390  -10.1943 C   0  0  2  0  0  0  0  0  0  0  0  0
   25.1800  -21.7587   -9.6516 C   0  0  0  0  0  0  0  0  0  0  0  0
   26.1599  -20.3997  -11.4896 C   0  0  0  0  0  0  0  0  0  0  0  0
   25.5045  -20.7884  -12.7415 C   0  0  2  0  0  0  0  0  0  0  0  0
   26.4510  -20.6334  -13.8386 N   0  0  0  0  0  0  0  0  0  0  0  0
   24.2118  -20.2078  -13.0505 C   0  0  0  0  0  0  0  0  0  0  0  0
   23.9155  -18.9891  -13.0555 O   0  0  0  0  0  0  0  0  0  0  0  0
   22.3032  -20.0721  -16.1705 C   0  0  0  0  0  0  0  0  0  0  0  0
   21.3962  -20.6917  -15.1616 C   0  0  1  0  0  0  0  0  0  0  0  0
   21.3784  -22.1869  -15.3766 C   0  0  0  0  0  0  0  0  0  0  0  0
   21.8000  -20.4466  -13.7268 C   0  0  2  0  0  0  0  0  0  0  0  0
   23.0698  -21.0448  -13.4040 N   0  0  0  0  0  0  0  0  0  0  0  0
   20.7696  -21.0476  -12.8565 C   0  0  0  0  0  0  0  0  0  0  0  0
   21.0416  -22.1744  -12.1166 O   0  0  0  0  0  0  0  0  0  0  0  0
   19.6397  -20.5249  -12.7937 O   0  0  0  0  0  0  0  0  0  0  0  0
  1  2  1  0
  3  2  1  0
  4  3  1  0
  5  4  1  0
  5  1  1  0
  5  6  1  1
  6  7  2  0
  9  8  1  1
  9 11  1  0
  9 10  1  0
 12 11  1  1
 12 14  1  0
 12 13  1  0
 13  6  1  0
 14 20  1  0
 15 14  2  0
 17 16  1  6
 17 19  1  0
 18 17  1  0
 19 21  1  0
 19 20  1  1
 21 23  2  0
 21 22  1  0
M  END
$$$$
