PLV.pdb
     RDKit          3D

 23 23  0  0  1  0  0  0  0  0999 V2000
   28.0379  -20.1367  -15.7066 N   0  0  0  0  0  0  0  0  0  0  0  0
   29.3903  -20.2049  -16.1986 C   0  0  0  0  0  0  0  0  0  0  0  0
   29.8384  -21.6308  -16.0379 C   0  0  0  0  0  0  0  0  0  0  0  0
   28.6146  -22.4398  -15.7051 C   0  0  0  0  0  0  0  0  0  0  0  0
   27.4915  -21.4456  -15.8373 C   0  0  1  0  0  0  0  0  0  0  0  0
   26.4644  -21.6431  -14.7478 C   0  0  0  0  0  0  0  0  0  0  0  0
   25.6722  -22.5932  -14.8970 O   0  0  0  0  0  0  0  0  0  0  0  0
   26.2218  -19.7927   -8.9089 C   0  0  0  0  0  0  0  0  0  0  0  0
   25.4459  -20.4219  -10.0164 C   0  0  2  0  0  0  0  0  0  0  0  0
   24.9940  -21.8017   -9.4944 C   0  0  0  0  0  0  0  0  0  0  0  0
   26.1675  -20.5603  -11.3020 C   0  0  0  0  0  0  0  0  0  0  0  0
   25.4973  -20.9190  -12.5549 C   0  0  2  0  0  0  0  0  0  0  0  0
   26.4444  -20.7818  -13.6539 N   0  0  0  0  0  0  0  0  0  0  0  0
   24.2209  -20.2989  -12.8545 C   0  0  0  0  0  0  0  0  0  0  0  0
   23.9514  -19.0745  -12.8171 O   0  0  0  0  0  0  0  0  0  0  0  0
   22.3780  -20.0648  -16.0192 C   0  0  0  0  0  0  0  0  0  0  0  0
   21.4372  -20.6741  -15.0353 C   0  0  1  0  0  0  0  0  0  0  0  0
   21.3866  -22.1657  -15.2698 C   0  0  0  0  0  0  0  0  0  0  0  0
   21.8199  -20.4570  -13.5902 C   0  0  2  0  0  0  0  0  0  0  0  0
   23.0646  -21.0967  -13.2498 N   0  0  0  0  0  0  0  0  0  0  0  0
   20.7551  -21.0363  -12.7470 C   0  0  0  0  0  0  0  0  0  0  0  0
   19.5171  -20.4427  -12.6678 O   0  0  0  0  0  0  0  0  0  0  0  0
   20.9840  -22.0767  -12.0997 O   0  0  0  0  0  0  0  0  0  0  0  0
  1  2  1  0
  3  2  1  0
  4  3  1  0
  5  4  1  0
  5  1  1  0
  5  6  1  1
  6  7  2  0
  9  8  1  1
  9 11  1  0
  9 10  1  0
 12 11  1  1
 12 14  1  0
 12 13  1  0
 13  6  1  0
 14 20  1  0
 15 14  2  0
 17 16  1  6
 17 19  1  0
 18 17  1  0
 19 21  1  0
 19 20  1  1
 21 23  2  0
 21 22  1  0
M  END
$$$$
