PLV.pdb
     RDKit          3D

 23 23  0  0  1  0  0  0  0  0999 V2000
   30.7408  -20.8335   -9.9526 N   0  0  0  0  0  0  0  0  0  0  0  0
   32.1404  -21.1507   -9.8256 C   0  0  0  0  0  0  0  0  0  0  0  0
   32.2207  -22.5037   -9.1754 C   0  0  0  0  0  0  0  0  0  0  0  0
   30.8313  -23.0801   -9.1902 C   0  0  0  0  0  0  0  0  0  0  0  0
   30.0443  -22.0755   -9.9893 C   0  0  1  0  0  0  0  0  0  0  0  0
   28.6715  -21.8685   -9.3949 C   0  0  0  0  0  0  0  0  0  0  0  0
   27.8631  -22.8080   -9.5234 O   0  0  0  0  0  0  0  0  0  0  0  0
   28.1966  -20.9124   -5.0523 C   0  0  0  0  0  0  0  0  0  0  0  0
   28.3565  -19.8011   -6.0341 C   0  0  2  0  0  0  0  0  0  0  0  0
   28.6097  -18.5264   -5.2026 C   0  0  0  0  0  0  0  0  0  0  0  0
   27.2205  -19.6023   -6.9627 C   0  0  0  0  0  0  0  0  0  0  0  0
   27.0568  -20.3775   -8.1956 C   0  0  2  0  0  0  0  0  0  0  0  0
   28.3731  -20.6727   -8.7468 N   0  0  0  0  0  0  0  0  0  0  0  0
   26.1422  -19.8796   -9.2051 C   0  0  0  0  0  0  0  0  0  0  0  0
   25.9894  -18.6863   -9.5601 O   0  0  0  0  0  0  0  0  0  0  0  0
   26.2078  -20.6743  -12.8285 C   0  0  0  0  0  0  0  0  0  0  0  0
   24.8240  -20.9563  -12.3489 C   0  0  1  0  0  0  0  0  0  0  0  0
   24.6711  -22.4464  -12.1531 C   0  0  0  0  0  0  0  0  0  0  0  0
   24.4702  -20.2902  -11.0401 C   0  0  2  0  0  0  0  0  0  0  0  0
   25.2628  -20.7813   -9.9424 N   0  0  0  0  0  0  0  0  0  0  0  0
   23.0510  -20.5794  -10.7530 C   0  0  0  0  0  0  0  0  0  0  0  0
   22.0529  -20.0776  -11.5550 O   0  0  0  0  0  0  0  0  0  0  0  0
   22.7565  -21.2878   -9.7705 O   0  0  0  0  0  0  0  0  0  0  0  0
  1  2  1  0
  3  2  1  0
  4  3  1  0
  5  4  1  0
  5  1  1  0
  5  6  1  1
  6  7  2  0
  9  8  1  1
  9 11  1  0
  9 10  1  0
 12 11  1  1
 12 14  1  0
 12 13  1  0
 13  6  1  0
 14 20  1  0
 15 14  2  0
 17 16  1  1
 17 19  1  0
 18 17  1  0
 19 21  1  0
 19 20  1  1
 21 23  2  0
 21 22  1  0
M  END
$$$$
