PLV.pdb
     RDKit          3D

 23 23  0  0  1  0  0  0  0  0999 V2000
   39.0503  -25.7327    4.1540 N   0  0  0  0  0  0  0  0  0  0  0  0
   39.9178  -26.7336    3.5872 C   0  0  0  0  0  0  0  0  0  0  0  0
   39.0843  -27.9693    3.3923 C   0  0  0  0  0  0  0  0  0  0  0  0
   37.6493  -27.5666    3.5964 C   0  0  0  0  0  0  0  0  0  0  0  0
   37.7251  -26.0713    3.7565 C   0  0  1  0  0  0  0  0  0  0  0  0
   36.7712  -25.5936    4.8255 C   0  0  0  0  0  0  0  0  0  0  0  0
   35.5965  -26.0010    4.7441 O   0  0  0  0  0  0  0  0  0  0  0  0
   36.6047  -26.7496    8.9790 C   0  0  0  0  0  0  0  0  0  0  0  0
   37.6440  -25.7222    8.6809 C   0  0  2  0  0  0  0  0  0  0  0  0
   38.4437  -25.5289    9.9860 C   0  0  0  0  0  0  0  0  0  0  0  0
   37.1335  -24.4244    8.1836 C   0  0  0  0  0  0  0  0  0  0  0  0
   36.3871  -24.2918    6.9294 C   0  0  2  0  0  0  0  0  0  0  0  0
   37.2287  -24.7429    5.8285 N   0  0  0  0  0  0  0  0  0  0  0  0
   35.7458  -23.0233    6.6411 C   0  0  0  0  0  0  0  0  0  0  0  0
   36.2960  -21.9825    6.2083 O   0  0  0  0  0  0  0  0  0  0  0  0
   32.8072  -22.1233    4.3155 C   0  0  0  0  0  0  0  0  0  0  0  0
   32.5017  -21.6454    5.6949 C   0  0  1  0  0  0  0  0  0  0  0  0
   31.5257  -22.6034    6.3367 C   0  0  0  0  0  0  0  0  0  0  0  0
   33.7054  -21.5514    6.6027 C   0  0  2  0  0  0  0  0  0  0  0  0
   34.3129  -22.8349    6.8436 N   0  0  0  0  0  0  0  0  0  0  0  0
   33.2556  -21.0011    7.8970 C   0  0  0  0  0  0  0  0  0  0  0  0
   32.9108  -19.6753    8.0177 O   0  0  0  0  0  0  0  0  0  0  0  0
   33.1884  -21.7500    8.8912 O   0  0  0  0  0  0  0  0  0  0  0  0
  1  2  1  0
  3  2  1  0
  4  3  1  0
  5  4  1  0
  5  1  1  0
  5  6  1  1
  6  7  2  0
  9  8  1  1
  9 11  1  0
  9 10  1  0
 12 11  1  1
 12 14  1  0
 12 13  1  0
 13  6  1  0
 14 20  1  0
 15 14  2  0
 17 16  1  6
 17 19  1  0
 18 17  1  0
 19 21  1  0
 19 20  1  1
 21 23  2  0
 21 22  1  0
M  END
$$$$
