PLV.pdb
     RDKit          3D

 23 23  0  0  1  0  0  0  0  0999 V2000
   27.2660  -18.2426  -16.2504 N   0  0  0  0  0  0  0  0  0  0  0  0
   28.5203  -17.6300  -16.6069 C   0  0  0  0  0  0  0  0  0  0  0  0
   29.5829  -18.6762  -16.4167 C   0  0  0  0  0  0  0  0  0  0  0  0
   28.8750  -19.9880  -16.2145 C   0  0  0  0  0  0  0  0  0  0  0  0
   27.4277  -19.6440  -16.4472 C   0  0  1  0  0  0  0  0  0  0  0  0
   26.5359  -20.3680  -15.4667 C   0  0  0  0  0  0  0  0  0  0  0  0
   26.0141  -21.4263  -15.8671 O   0  0  0  0  0  0  0  0  0  0  0  0
   25.8538  -19.8350   -9.3984 C   0  0  0  0  0  0  0  0  0  0  0  0
   25.4236  -20.6078  -10.5992 C   0  0  2  0  0  0  0  0  0  0  0  0
   25.6430  -22.0955  -10.2540 C   0  0  0  0  0  0  0  0  0  0  0  0
   26.1113  -20.2577  -11.8629 C   0  0  0  0  0  0  0  0  0  0  0  0
   25.5194  -20.4958  -13.1822 C   0  0  2  0  0  0  0  0  0  0  0  0
   26.3387  -19.8401  -14.1934 N   0  0  0  0  0  0  0  0  0  0  0  0
   24.1068  -20.2204  -13.3624 C   0  0  0  0  0  0  0  0  0  0  0  0
   23.5473  -19.0986  -13.3228 O   0  0  0  0  0  0  0  0  0  0  0  0
   21.6081  -23.0254  -15.4570 C   0  0  0  0  0  0  0  0  0  0  0  0
   21.4119  -21.5523  -15.3296 C   0  0  1  0  0  0  0  0  0  0  0  0
   19.9528  -21.2343  -15.5578 C   0  0  0  0  0  0  0  0  0  0  0  0
   21.7917  -20.9874  -13.9811 C   0  0  2  0  0  0  0  0  0  0  0  0
   23.1522  -21.2935  -13.6210 N   0  0  0  0  0  0  0  0  0  0  0  0
   20.8983  -21.5874  -12.9700 C   0  0  0  0  0  0  0  0  0  0  0  0
   19.5732  -21.2268  -12.8972 O   0  0  0  0  0  0  0  0  0  0  0  0
   21.3536  -22.4313  -12.1736 O   0  0  0  0  0  0  0  0  0  0  0  0
  1  2  1  0
  3  2  1  0
  4  3  1  0
  5  4  1  0
  5  1  1  0
  5  6  1  1
  6  7  2  0
  9  8  1  1
  9 11  1  0
  9 10  1  0
 12 11  1  1
 12 14  1  0
 12 13  1  0
 13  6  1  0
 14 20  1  0
 15 14  2  0
 17 16  1  1
 17 19  1  0
 18 17  1  0
 19 21  1  0
 19 20  1  1
 21 23  2  0
 21 22  1  0
M  END
$$$$
