PLV.pdb
     RDKit          3D

 23 23  0  0  1  0  0  0  0  0999 V2000
   31.1502  -21.1969  -10.2864 N   0  0  0  0  0  0  0  0  0  0  0  0
   32.5406  -21.3999  -10.6044 C   0  0  0  0  0  0  0  0  0  0  0  0
   33.0383  -22.4891   -9.6958 C   0  0  0  0  0  0  0  0  0  0  0  0
   31.8293  -23.1031   -9.0446 C   0  0  0  0  0  0  0  0  0  0  0  0
   30.6769  -22.4212   -9.7333 C   0  0  1  0  0  0  0  0  0  0  0  0
   29.5725  -22.1047   -8.7530 C   0  0  0  0  0  0  0  0  0  0  0  0
   28.9174  -23.0733   -8.3225 O   0  0  0  0  0  0  0  0  0  0  0  0
   28.5490  -18.1322   -4.3593 C   0  0  0  0  0  0  0  0  0  0  0  0
   28.1250  -19.3526   -5.1046 C   0  0  2  0  0  0  0  0  0  0  0  0
   28.3063  -20.5354   -4.1307 C   0  0  0  0  0  0  0  0  0  0  0  0
   28.8435  -19.6061   -6.3742 C   0  0  0  0  0  0  0  0  0  0  0  0
   28.2703  -20.3956   -7.4678 C   0  0  2  0  0  0  0  0  0  0  0  0
   29.3378  -20.7836   -8.3808 N   0  0  0  0  0  0  0  0  0  0  0  0
   27.1185  -19.8634   -8.1704 C   0  0  0  0  0  0  0  0  0  0  0  0
   26.7214  -18.6737   -8.1725 O   0  0  0  0  0  0  0  0  0  0  0  0
   27.0641  -19.9586  -11.8006 C   0  0  0  0  0  0  0  0  0  0  0  0
   25.7376  -20.4880  -11.3709 C   0  0  1  0  0  0  0  0  0  0  0  0
   25.7554  -21.9944  -11.4831 C   0  0  0  0  0  0  0  0  0  0  0  0
   25.3610  -20.1455   -9.9487 C   0  0  2  0  0  0  0  0  0  0  0  0
   26.2660  -20.7210   -8.9874 N   0  0  0  0  0  0  0  0  0  0  0  0
   24.0102  -20.6851   -9.6947 C   0  0  0  0  0  0  0  0  0  0  0  0
   22.9228  -20.2240  -10.3991 O   0  0  0  0  0  0  0  0  0  0  0  0
   23.8563  -21.5698   -8.8301 O   0  0  0  0  0  0  0  0  0  0  0  0
  1  2  1  0
  3  2  1  0
  4  3  1  0
  5  4  1  0
  5  1  1  0
  5  6  1  1
  6  7  2  0
  9  8  1  1
  9 11  1  0
  9 10  1  0
 12 11  1  1
 12 14  1  0
 12 13  1  0
 13  6  1  0
 14 20  1  0
 15 14  2  0
 17 16  1  1
 17 19  1  0
 18 17  1  0
 19 21  1  0
 19 20  1  1
 21 23  2  0
 21 22  1  0
M  END
$$$$
