PLV.pdb
     RDKit          3D

 23 23  0  0  1  0  0  0  0  0999 V2000
   22.0364  -14.8897  -19.4033 N   0  0  0  0  0  0  0  0  0  0  0  0
   21.5235  -16.0880  -20.0171 C   0  0  0  0  0  0  0  0  0  0  0  0
   20.2497  -16.4325  -19.2969 C   0  0  0  0  0  0  0  0  0  0  0  0
   19.8947  -15.2463  -18.4427 C   0  0  0  0  0  0  0  0  0  0  0  0
   20.9190  -14.2143  -18.8341 C   0  0  1  0  0  0  0  0  0  0  0  0
   21.3949  -13.4408  -17.6274 C   0  0  0  0  0  0  0  0  0  0  0  0
   20.5245  -13.1162  -16.7970 O   0  0  0  0  0  0  0  0  0  0  0  0
   24.2954  -14.7503  -14.5331 C   0  0  0  0  0  0  0  0  0  0  0  0
   24.9429  -14.2080  -15.7624 C   0  0  2  0  0  0  0  0  0  0  0  0
   26.4617  -14.3960  -15.5666 C   0  0  0  0  0  0  0  0  0  0  0  0
   24.6276  -12.7964  -16.0793 C   0  0  0  0  0  0  0  0  0  0  0  0
   23.2722  -12.3359  -16.3931 C   0  0  2  0  0  0  0  0  0  0  0  0
   22.7460  -13.1310  -17.4952 N   0  0  0  0  0  0  0  0  0  0  0  0
   23.0572  -10.9158  -16.5940 C   0  0  0  0  0  0  0  0  0  0  0  0
   23.6905  -10.1606  -17.3698 O   0  0  0  0  0  0  0  0  0  0  0  0
   19.9516   -9.2366  -17.8343 C   0  0  0  0  0  0  0  0  0  0  0  0
   20.3425   -8.5506  -16.5690 C   0  0  1  0  0  0  0  0  0  0  0  0
   19.4414   -9.0321  -15.4561 C   0  0  0  0  0  0  0  0  0  0  0  0
   21.7678   -8.8039  -16.1375 C   0  0  2  0  0  0  0  0  0  0  0  0
   22.0195  -10.1952  -15.8634 N   0  0  0  0  0  0  0  0  0  0  0  0
   22.0102   -8.0362  -14.8996 C   0  0  0  0  0  0  0  0  0  0  0  0
   22.1003   -6.6642  -14.9270 O   0  0  0  0  0  0  0  0  0  0  0  0
   22.1342   -8.6421  -13.8173 O   0  0  0  0  0  0  0  0  0  0  0  0
  1  2  1  0
  3  2  1  0
  4  3  1  0
  5  4  1  0
  5  1  1  0
  5  6  1  1
  6  7  2  0
  9  8  1  1
  9 11  1  0
  9 10  1  0
 12 11  1  6
 12 14  1  0
 12 13  1  0
 13  6  1  0
 14 20  1  0
 15 14  2  0
 17 16  1  6
 17 19  1  0
 18 17  1  0
 19 21  1  0
 19 20  1  1
 21 23  2  0
 21 22  1  0
M  END
$$$$
