PLV.pdb
     RDKit          3D

 23 23  0  0  1  0  0  0  0  0999 V2000
   22.4395  -13.0779  -19.7244 N   0  0  0  0  0  0  0  0  0  0  0  0
   22.4150  -14.3905  -20.3180 C   0  0  0  0  0  0  0  0  0  0  0  0
   21.6011  -15.2639  -19.4046 C   0  0  0  0  0  0  0  0  0  0  0  0
   20.9217  -14.3536  -18.4183 C   0  0  0  0  0  0  0  0  0  0  0  0
   21.2716  -12.9760  -18.9154 C   0  0  1  0  0  0  0  0  0  0  0  0
   21.5707  -12.0460  -17.7636 C   0  0  0  0  0  0  0  0  0  0  0  0
   20.6708  -11.9081  -16.9129 O   0  0  0  0  0  0  0  0  0  0  0  0
   25.0551  -12.3104  -14.8362 C   0  0  0  0  0  0  0  0  0  0  0  0
   25.3899  -11.6715  -16.1417 C   0  0  2  0  0  0  0  0  0  0  0  0
   26.8986  -11.3531  -16.0897 C   0  0  0  0  0  0  0  0  0  0  0  0
   24.6108  -10.4576  -16.4758 C   0  0  0  0  0  0  0  0  0  0  0  0
   23.1542  -10.4674  -16.6370 C   0  0  2  0  0  0  0  0  0  0  0  0
   22.8025  -11.3998  -17.7004 N   0  0  0  0  0  0  0  0  0  0  0  0
   22.4688   -9.1970  -16.7771 C   0  0  0  0  0  0  0  0  0  0  0  0
   22.6331   -8.3489  -17.6864 O   0  0  0  0  0  0  0  0  0  0  0  0
   18.8109   -8.6529  -17.2342 C   0  0  0  0  0  0  0  0  0  0  0  0
   19.2361   -7.7843  -16.0987 C   0  0  1  0  0  0  0  0  0  0  0  0
   18.8121   -8.4351  -14.8030 C   0  0  0  0  0  0  0  0  0  0  0  0
   20.7260   -7.5480  -16.0189 C   0  0  2  0  0  0  0  0  0  0  0  0
   21.4647   -8.7666  -15.8094 N   0  0  0  0  0  0  0  0  0  0  0  0
   20.9820   -6.6484  -14.8764 C   0  0  0  0  0  0  0  0  0  0  0  0
   21.6635   -7.0930  -13.7678 O   0  0  0  0  0  0  0  0  0  0  0  0
   20.5741   -5.4712  -14.9200 O   0  0  0  0  0  0  0  0  0  0  0  0
  1  2  1  0
  3  2  1  0
  4  3  1  0
  5  4  1  0
  5  1  1  0
  5  6  1  1
  6  7  2  0
  9  8  1  1
  9 11  1  0
  9 10  1  0
 12 11  1  6
 12 14  1  0
 12 13  1  0
 13  6  1  0
 14 20  1  0
 15 14  2  0
 17 16  1  6
 17 19  1  0
 18 17  1  0
 19 21  1  0
 19 20  1  1
 21 23  2  0
 21 22  1  0
M  END
$$$$
