PLV.pdb
     RDKit          3D

 23 23  0  0  1  0  0  0  0  0999 V2000
   20.2726   -9.8160  -19.8077 N   0  0  0  0  0  0  0  0  0  0  0  0
   19.8198  -10.8256  -20.7303 C   0  0  0  0  0  0  0  0  0  0  0  0
   18.7854  -11.6415  -20.0064 C   0  0  0  0  0  0  0  0  0  0  0  0
   18.4496  -10.9004  -18.7411 C   0  0  0  0  0  0  0  0  0  0  0  0
   19.2127   -9.6096  -18.8788 C   0  0  1  0  0  0  0  0  0  0  0  0
   19.8131   -9.1935  -17.5570 C   0  0  0  0  0  0  0  0  0  0  0  0
   19.0140   -8.9960  -16.6215 O   0  0  0  0  0  0  0  0  0  0  0  0
   24.1476  -11.5523  -14.8418 C   0  0  0  0  0  0  0  0  0  0  0  0
   22.9587  -10.6527  -14.8830 C   0  0  2  0  0  0  0  0  0  0  0  0
   21.7269  -11.5739  -15.0044 C   0  0  0  0  0  0  0  0  0  0  0  0
   22.9624   -9.6400  -15.9632 C   0  0  0  0  0  0  0  0  0  0  0  0
   21.8512   -8.7108  -16.1852 C   0  0  2  0  0  0  0  0  0  0  0  0
   21.1933   -9.0515  -17.4401 N   0  0  0  0  0  0  0  0  0  0  0  0
   22.1113   -7.2882  -16.0747 C   0  0  0  0  0  0  0  0  0  0  0  0
   22.9210   -6.6156  -16.7567 O   0  0  0  0  0  0  0  0  0  0  0  0
   19.6929   -4.5048  -16.6682 C   0  0  0  0  0  0  0  0  0  0  0  0
   20.2924   -4.2909  -15.3193 C   0  0  1  0  0  0  0  0  0  0  0  0
   19.3103   -4.7579  -14.2707 C   0  0  0  0  0  0  0  0  0  0  0  0
   21.5873   -5.0337  -15.0880 C   0  0  2  0  0  0  0  0  0  0  0  0
   21.4094   -6.4629  -15.0969 N   0  0  0  0  0  0  0  0  0  0  0  0
   22.1060   -4.6392  -13.7630 C   0  0  0  0  0  0  0  0  0  0  0  0
   22.6469   -3.3911  -13.5606 O   0  0  0  0  0  0  0  0  0  0  0  0
   22.0517   -5.4498  -12.8176 O   0  0  0  0  0  0  0  0  0  0  0  0
  1  2  1  0
  3  2  1  0
  4  3  1  0
  5  4  1  0
  5  1  1  0
  5  6  1  1
  6  7  2  0
  9  8  1  6
  9 11  1  0
  9 10  1  0
 12 11  1  6
 12 14  1  0
 12 13  1  0
 13  6  1  0
 14 20  1  0
 15 14  2  0
 17 16  1  6
 17 19  1  0
 18 17  1  0
 19 21  1  0
 19 20  1  1
 21 23  2  0
 21 22  1  0
M  END
$$$$
