PLV.pdb
     RDKit          3D

 23 23  0  0  1  0  0  0  0  0999 V2000
   30.9885  -20.9496   -9.9275 N   0  0  0  0  0  0  0  0  0  0  0  0
   32.3848  -21.3040   -9.9431 C   0  0  0  0  0  0  0  0  0  0  0  0
   32.5083  -22.6111   -9.2111 C   0  0  0  0  0  0  0  0  0  0  0  0
   31.1130  -23.1405   -9.0213 C   0  0  0  0  0  0  0  0  0  0  0  0
   30.2617  -22.1672   -9.7928 C   0  0  1  0  0  0  0  0  0  0  0  0
   28.9753  -21.8742   -9.0578 C   0  0  0  0  0  0  0  0  0  0  0  0
   28.1758  -22.8225   -8.9378 O   0  0  0  0  0  0  0  0  0  0  0  0
   28.0945  -20.9336   -4.7343 C   0  0  0  0  0  0  0  0  0  0  0  0
   28.6999  -19.8785   -5.5972 C   0  0  2  0  0  0  0  0  0  0  0  0
   29.0740  -18.7154   -4.6550 C   0  0  0  0  0  0  0  0  0  0  0  0
   27.8481  -19.3973   -6.7086 C   0  0  0  0  0  0  0  0  0  0  0  0
   27.5118  -20.2272   -7.8688 C   0  0  2  0  0  0  0  0  0  0  0  0
   28.7412  -20.5954   -8.5591 N   0  0  0  0  0  0  0  0  0  0  0  0
   26.4943  -19.7489   -8.7851 C   0  0  0  0  0  0  0  0  0  0  0  0
   26.2394  -18.5545   -9.0705 O   0  0  0  0  0  0  0  0  0  0  0  0
   26.6163  -20.4221  -12.3417 C   0  0  0  0  0  0  0  0  0  0  0  0
   25.2369  -20.7999  -11.9186 C   0  0  1  0  0  0  0  0  0  0  0  0
   25.1617  -22.3033  -11.7911 C   0  0  0  0  0  0  0  0  0  0  0  0
   24.8084  -20.2124  -10.5945 C   0  0  2  0  0  0  0  0  0  0  0  0
   25.6218  -20.6751   -9.4997 N   0  0  0  0  0  0  0  0  0  0  0  0
   23.4138  -20.6279  -10.3440 C   0  0  0  0  0  0  0  0  0  0  0  0
   22.3948  -20.2097  -11.1674 O   0  0  0  0  0  0  0  0  0  0  0  0
   23.1597  -21.3673   -9.3731 O   0  0  0  0  0  0  0  0  0  0  0  0
  1  2  1  0
  3  2  1  0
  4  3  1  0
  5  4  1  0
  5  1  1  0
  5  6  1  1
  6  7  2  0
  9  8  1  1
  9 11  1  0
  9 10  1  0
 12 11  1  1
 12 14  1  0
 12 13  1  0
 13  6  1  0
 14 20  1  0
 15 14  2  0
 17 16  1  1
 17 19  1  0
 18 17  1  0
 19 21  1  0
 19 20  1  1
 21 23  2  0
 21 22  1  0
M  END
$$$$
