PLV.pdb
     RDKit          3D

 23 23  0  0  1  0  0  0  0  0999 V2000
   28.9519  -19.8117  -12.5501 N   0  0  0  0  0  0  0  0  0  0  0  0
   30.1297  -19.8141  -13.3798 C   0  0  0  0  0  0  0  0  0  0  0  0
   30.7266  -21.1901  -13.2807 C   0  0  0  0  0  0  0  0  0  0  0  0
   29.7074  -22.0619  -12.5995 C   0  0  0  0  0  0  0  0  0  0  0  0
   28.5065  -21.1624  -12.4728 C   0  0  1  0  0  0  0  0  0  0  0  0
   27.8205  -21.3615  -11.1422 C   0  0  0  0  0  0  0  0  0  0  0  0
   27.2158  -22.4395  -10.9848 O   0  0  0  0  0  0  0  0  0  0  0  0
   27.9971  -18.4844   -5.7492 C   0  0  0  0  0  0  0  0  0  0  0  0
   27.3608  -19.6063   -6.4982 C   0  0  2  0  0  0  0  0  0  0  0  0
   27.5041  -20.8555   -5.6042 C   0  0  0  0  0  0  0  0  0  0  0  0
   27.9107  -19.8642   -7.8486 C   0  0  0  0  0  0  0  0  0  0  0  0
   27.0996  -20.3913   -8.9495 C   0  0  2  0  0  0  0  0  0  0  0  0
   27.8891  -20.3629  -10.1741 N   0  0  0  0  0  0  0  0  0  0  0  0
   25.7694  -19.8476   -9.1457 C   0  0  0  0  0  0  0  0  0  0  0  0
   25.4610  -18.6382   -9.2703 O   0  0  0  0  0  0  0  0  0  0  0  0
   22.6895  -21.9669  -11.7525 C   0  0  0  0  0  0  0  0  0  0  0  0
   23.5396  -20.7847  -11.4299 C   0  0  1  0  0  0  0  0  0  0  0  0
   23.1140  -19.6268  -12.3019 C   0  0  0  0  0  0  0  0  0  0  0  0
   23.4491  -20.3254   -9.9936 C   0  0  2  0  0  0  0  0  0  0  0  0
   24.5987  -20.7159   -9.2189 N   0  0  0  0  0  0  0  0  0  0  0  0
   22.2521  -20.9475   -9.3930 C   0  0  0  0  0  0  0  0  0  0  0  0
   22.3703  -21.8732   -8.3829 O   0  0  0  0  0  0  0  0  0  0  0  0
   21.1213  -20.6277   -9.8089 O   0  0  0  0  0  0  0  0  0  0  0  0
  1  2  1  0
  3  2  1  0
  4  3  1  0
  5  4  1  0
  5  1  1  0
  5  6  1  1
  6  7  2  0
  9  8  1  1
  9 11  1  0
  9 10  1  0
 12 11  1  1
 12 14  1  0
 12 13  1  0
 13  6  1  0
 14 20  1  0
 15 14  2  0
 17 16  1  1
 17 19  1  0
 18 17  1  0
 19 21  1  0
 19 20  1  1
 21 23  2  0
 21 22  1  0
M  END
$$$$
