SYK.pdb
     RDKit          3D

 28 28  0  0  1  0  0  0  0  0999 V2000
    7.5827  -15.2582   15.2640 O   0  0  0  0  0  0  0  0  0  0  0  0
    7.9653  -15.3393   16.5976 C   0  0  0  0  0  0  0  0  0  0  0  0
    7.6454  -14.0320   17.3264 C   0  0  2  0  0  0  0  0  0  0  0  0
    8.2418  -12.9583   16.5729 N   0  0  0  0  0  0  0  0  0  0  0  0
    8.1415  -14.0917   18.7311 C   0  0  0  0  0  0  0  0  0  0  0  0
    9.3352  -13.8551   18.9377 O   0  0  0  0  0  0  0  0  0  0  0  0
    8.3088  -14.0775   27.6152 O   0  0  0  0  0  0  0  0  0  0  0  0
    7.8895  -14.1386   26.2900 C   0  0  0  0  0  0  0  0  0  0  0  0
    7.4259  -15.2992   25.7135 C   0  0  0  0  0  0  0  0  0  0  0  0
    7.0031  -15.3643   24.3803 C   0  0  0  0  0  0  0  0  0  0  0  0
    7.0405  -14.2562   23.6023 C   0  0  0  0  0  0  0  0  0  0  0  0
    6.6348  -14.1142   22.2009 C   0  0  0  0  0  0  0  0  0  0  0  0
    7.6884  -14.4131   21.1731 C   0  0  2  0  0  0  0  0  0  0  0  0
    7.2997  -14.4064   19.8202 N   0  0  0  0  0  0  0  0  0  0  0  0
    8.4153  -15.6205   21.5859 C   0  0  0  0  0  0  0  0  0  0  0  0
    7.9086  -16.7457   21.2679 O   0  0  0  0  0  0  0  0  0  0  0  0
    7.5174  -13.0782   24.2074 C   0  0  0  0  0  0  0  0  0  0  0  0
    7.9296  -13.0224   25.5136 C   0  0  0  0  0  0  0  0  0  0  0  0
    9.6051  -15.6114   22.2913 N   0  0  0  0  0  0  0  0  0  0  0  0
   10.3435  -16.9112   22.6182 C   0  0  1  0  0  0  0  0  0  0  0  0
   11.6552  -16.7823   21.9616 C   0  0  0  0  0  0  0  0  0  0  0  0
   11.7691  -16.6937   20.5174 C   0  0  0  0  0  0  0  0  0  0  0  0
   13.0335  -16.9973   19.8041 C   0  0  0  0  0  0  0  0  0  0  0  0
   12.9492  -16.8985   18.3054 C   0  0  0  0  0  0  0  0  0  0  0  0
   14.2749  -17.1473   17.7773 N   0  0  0  0  0  0  0  0  0  0  0  0
   10.4046  -16.8311   24.0904 C   0  0  0  0  0  0  0  0  0  0  0  0
   10.1032  -15.7236   24.6774 O   0  0  0  0  0  0  0  0  0  0  0  0
   10.7532  -17.8373   24.9576 O   0  0  0  0  0  0  0  0  0  0  0  0
  2  1  1  0
  3  2  1  0
  3  4  1  6
  5 14  1  0
  5  3  1  0
  6  5  2  0
  8  7  1  0
  8 18  2  0
  9  8  1  0
 10  9  2  0
 10 11  1  0
 11 17  2  0
 12 11  1  0
 13 12  1  1
 13 14  1  0
 15 16  2  0
 15 13  1  0
 17 18  1  0
 19 15  1  0
 20 26  1  0
 20 19  1  0
 20 21  1  6
 22 23  1  0
 22 21  1  0
 24 25  1  0
 24 23  1  0
 26 28  1  0
 27 26  2  0
M  END
$$$$
