SYK.pdb
     RDKit          3D

 28 28  0  0  1  0  0  0  0  0999 V2000
    8.4059  -20.9584   20.6661 O   0  0  0  0  0  0  0  0  0  0  0  0
    7.3566  -20.1688   20.2111 C   0  0  0  0  0  0  0  0  0  0  0  0
    7.8886  -18.8615   19.6189 C   0  0  2  0  0  0  0  0  0  0  0  0
    8.6041  -19.1915   18.4125 N   0  0  0  0  0  0  0  0  0  0  0  0
    8.7417  -18.1546   20.6167 C   0  0  0  0  0  0  0  0  0  0  0  0
    9.9674  -18.2399   20.4994 O   0  0  0  0  0  0  0  0  0  0  0  0
    7.1180  -11.8551   18.5529 O   0  0  0  0  0  0  0  0  0  0  0  0
    7.4833  -12.6712   19.6187 C   0  0  0  0  0  0  0  0  0  0  0  0
    8.7593  -12.6876   20.1345 C   0  0  0  0  0  0  0  0  0  0  0  0
    9.1304  -13.5076   21.2070 C   0  0  0  0  0  0  0  0  0  0  0  0
    8.2181  -14.3282   21.7804 C   0  0  0  0  0  0  0  0  0  0  0  0
    8.4016  -15.2451   22.9092 C   0  0  0  0  0  0  0  0  0  0  0  0
    8.9405  -16.6067   22.5753 C   0  0  2  0  0  0  0  0  0  0  0  0
    8.1989  -17.3995   21.6792 N   0  0  0  0  0  0  0  0  0  0  0  0
    9.3010  -17.2866   23.8260 C   0  0  0  0  0  0  0  0  0  0  0  0
    8.3706  -17.8917   24.4521 O   0  0  0  0  0  0  0  0  0  0  0  0
    6.9184  -14.2991   21.2408 C   0  0  0  0  0  0  0  0  0  0  0  0
    6.5627  -13.4934   20.1903 C   0  0  0  0  0  0  0  0  0  0  0  0
   10.5765  -17.3108   24.3606 N   0  0  0  0  0  0  0  0  0  0  0  0
   10.9391  -18.2599   25.5050 C   0  0  1  0  0  0  0  0  0  0  0  0
   12.1083  -19.0136   25.0218 C   0  0  0  0  0  0  0  0  0  0  0  0
   12.7503  -20.0192   25.8483 C   0  0  0  0  0  0  0  0  0  0  0  0
   13.8889  -20.8344   25.3601 C   0  0  0  0  0  0  0  0  0  0  0  0
   14.4383  -21.8116   26.3633 C   0  0  0  0  0  0  0  0  0  0  0  0
   15.3686  -22.6753   25.6655 N   0  0  0  0  0  0  0  0  0  0  0  0
   11.2546  -17.2940   26.5750 C   0  0  0  0  0  0  0  0  0  0  0  0
   11.5618  -16.0815   26.2632 O   0  0  0  0  0  0  0  0  0  0  0  0
   11.2572  -17.5327   27.9274 O   0  0  0  0  0  0  0  0  0  0  0  0
  2  1  1  0
  3  2  1  0
  3  4  1  6
  5 14  1  0
  5  3  1  0
  6  5  2  0
  8  7  1  0
  8 18  2  0
  9  8  1  0
 10  9  2  0
 10 11  1  0
 11 17  2  0
 12 11  1  0
 13 12  1  1
 13 14  1  0
 15 16  2  0
 15 13  1  0
 17 18  1  0
 19 15  1  0
 20 26  1  0
 20 19  1  0
 20 21  1  6
 22 23  1  0
 22 21  1  0
 24 25  1  0
 24 23  1  0
 26 28  1  0
 27 26  2  0
M  END
$$$$
