SYK.pdb
     RDKit          3D

 28 28  0  0  1  0  0  0  0  0999 V2000
   10.1144  -19.3997   19.3418 O   0  0  0  0  0  0  0  0  0  0  0  0
    9.2269  -18.5683   20.0144 C   0  0  0  0  0  0  0  0  0  0  0  0
    9.5542  -17.0993   19.7359 C   0  0  2  0  0  0  0  0  0  0  0  0
   10.8056  -17.0617   19.0225 N   0  0  0  0  0  0  0  0  0  0  0  0
    9.5985  -16.3313   21.0131 C   0  0  0  0  0  0  0  0  0  0  0  0
   10.6610  -16.3061   21.6409 O   0  0  0  0  0  0  0  0  0  0  0  0
    6.7989  -11.8442   28.2319 O   0  0  0  0  0  0  0  0  0  0  0  0
    6.9305  -12.3888   26.9585 C   0  0  0  0  0  0  0  0  0  0  0  0
    7.8530  -11.9263   26.0477 C   0  0  0  0  0  0  0  0  0  0  0  0
    7.9883  -12.4720   24.7654 C   0  0  0  0  0  0  0  0  0  0  0  0
    7.1930  -13.4975   24.3777 C   0  0  0  0  0  0  0  0  0  0  0  0
    7.1856  -14.2089   23.0961 C   0  0  0  0  0  0  0  0  0  0  0  0
    8.4013  -15.0365   22.7912 C   0  0  2  0  0  0  0  0  0  0  0  0
    8.4774  -15.6399   21.5217 N   0  0  0  0  0  0  0  0  0  0  0  0
    8.6332  -15.9571   23.9116 C   0  0  0  0  0  0  0  0  0  0  0  0
    7.8442  -16.9515   24.0246 O   0  0  0  0  0  0  0  0  0  0  0  0
    6.2552  -13.9582   25.3209 C   0  0  0  0  0  0  0  0  0  0  0  0
    6.1287  -13.4185   26.5747 C   0  0  0  0  0  0  0  0  0  0  0  0
    9.6463  -15.8130   24.8423 N   0  0  0  0  0  0  0  0  0  0  0  0
    9.9390  -16.9063   25.8721 C   0  0  1  0  0  0  0  0  0  0  0  0
   11.2167  -17.5017   25.4463 C   0  0  0  0  0  0  0  0  0  0  0  0
   11.2624  -18.7907   24.7808 C   0  0  0  0  0  0  0  0  0  0  0  0
   12.4967  -19.3063   24.1403 C   0  0  0  0  0  0  0  0  0  0  0  0
   12.3655  -20.6775   23.5355 C   0  0  0  0  0  0  0  0  0  0  0  0
   12.5638  -20.5440   22.1068 N   0  0  0  0  0  0  0  0  0  0  0  0
   10.0386  -16.1035   27.1062 C   0  0  0  0  0  0  0  0  0  0  0  0
   10.0927  -16.7007   28.2474 O   0  0  0  0  0  0  0  0  0  0  0  0
   10.0893  -14.7343   27.1978 O   0  0  0  0  0  0  0  0  0  0  0  0
  2  1  1  0
  3  2  1  0
  3  4  1  1
  5 14  1  0
  5  3  1  0
  6  5  2  0
  8  7  1  0
  8 18  2  0
  9  8  1  0
 10  9  2  0
 10 11  1  0
 11 17  2  0
 12 11  1  0
 13 12  1  1
 13 14  1  0
 15 16  2  0
 15 13  1  0
 17 18  1  0
 19 15  1  0
 20 26  1  0
 20 19  1  0
 20 21  1  6
 22 23  1  0
 22 21  1  0
 24 25  1  0
 24 23  1  0
 26 28  1  0
 27 26  2  0
M  END
$$$$
