SYK.pdb
     RDKit          3D

 28 28  0  0  1  0  0  0  0  0999 V2000
   10.0199  -19.0696   20.2755 O   0  0  0  0  0  0  0  0  0  0  0  0
    9.2030  -18.2853   19.4699 C   0  0  0  0  0  0  0  0  0  0  0  0
    9.7074  -16.8405   19.4421 C   0  0  2  0  0  0  0  0  0  0  0  0
   11.0338  -16.8550   18.8794 N   0  0  0  0  0  0  0  0  0  0  0  0
    9.6724  -16.2572   20.8137 C   0  0  0  0  0  0  0  0  0  0  0  0
   10.7141  -16.2632   21.4758 O   0  0  0  0  0  0  0  0  0  0  0  0
    7.0044  -11.9418   28.1051 O   0  0  0  0  0  0  0  0  0  0  0  0
    7.0133  -12.5989   26.8789 C   0  0  0  0  0  0  0  0  0  0  0  0
    6.4952  -13.8632   26.7133 C   0  0  0  0  0  0  0  0  0  0  0  0
    6.5024  -14.5276   25.4809 C   0  0  0  0  0  0  0  0  0  0  0  0
    7.0339  -13.9263   24.3898 C   0  0  0  0  0  0  0  0  0  0  0  0
    7.1258  -14.4423   23.0208 C   0  0  0  0  0  0  0  0  0  0  0  0
    8.3909  -15.1729   22.6722 C   0  0  2  0  0  0  0  0  0  0  0  0
    8.4998  -15.7045   21.3733 N   0  0  0  0  0  0  0  0  0  0  0  0
    8.6870  -16.1326   23.7435 C   0  0  0  0  0  0  0  0  0  0  0  0
    8.0283  -17.2235   23.7502 O   0  0  0  0  0  0  0  0  0  0  0  0
    7.5593  -12.6340   24.5765 C   0  0  0  0  0  0  0  0  0  0  0  0
    7.5487  -11.9901   25.7867 C   0  0  0  0  0  0  0  0  0  0  0  0
    9.6286  -15.9274   24.7358 N   0  0  0  0  0  0  0  0  0  0  0  0
   10.0300  -17.0516   25.6933 C   0  0  1  0  0  0  0  0  0  0  0  0
   11.4499  -17.3132   25.4033 C   0  0  0  0  0  0  0  0  0  0  0  0
   12.2225  -18.2460   26.2030 C   0  0  0  0  0  0  0  0  0  0  0  0
   13.6402  -18.5601   25.9014 C   0  0  0  0  0  0  0  0  0  0  0  0
   14.3198  -19.4369   26.9175 C   0  0  0  0  0  0  0  0  0  0  0  0
   15.6233  -19.7849   26.3902 N   0  0  0  0  0  0  0  0  0  0  0  0
    9.7992  -16.3995   26.9967 C   0  0  0  0  0  0  0  0  0  0  0  0
    9.8609  -17.1020   28.0759 O   0  0  0  0  0  0  0  0  0  0  0  0
    9.5191  -15.0734   27.2176 O   0  0  0  0  0  0  0  0  0  0  0  0
  2  1  1  0
  3  2  1  0
  3  4  1  1
  5 14  1  0
  5  3  1  0
  6  5  2  0
  8  7  1  0
  8 18  2  0
  9  8  1  0
 10  9  2  0
 10 11  1  0
 11 17  2  0
 12 11  1  0
 13 12  1  1
 13 14  1  0
 15 16  2  0
 15 13  1  0
 17 18  1  0
 19 15  1  0
 20 26  1  0
 20 19  1  0
 20 21  1  6
 22 23  1  0
 22 21  1  0
 24 25  1  0
 24 23  1  0
 26 28  1  0
 27 26  2  0
M  END
$$$$
