SYK.pdb
     RDKit          3D

 28 28  0  0  1  0  0  0  0  0999 V2000
    7.2591  -17.0636   20.4948 O   0  0  0  0  0  0  0  0  0  0  0  0
    6.5762  -15.8570   20.3989 C   0  0  0  0  0  0  0  0  0  0  0  0
    7.5384  -14.6814   20.5855 C   0  0  2  0  0  0  0  0  0  0  0  0
    8.3298  -14.5743   19.3861 N   0  0  0  0  0  0  0  0  0  0  0  0
    8.3705  -14.8866   21.8055 C   0  0  0  0  0  0  0  0  0  0  0  0
    9.5367  -15.2631   21.6584 O   0  0  0  0  0  0  0  0  0  0  0  0
   11.1360  -14.6396   30.2735 O   0  0  0  0  0  0  0  0  0  0  0  0
   10.3486  -14.6237   29.1267 C   0  0  0  0  0  0  0  0  0  0  0  0
    9.6333  -15.7214   28.7051 C   0  0  0  0  0  0  0  0  0  0  0  0
    8.8398  -15.7090   27.5516 C   0  0  0  0  0  0  0  0  0  0  0  0
    8.7533  -14.5853   26.8003 C   0  0  0  0  0  0  0  0  0  0  0  0
    7.9755  -14.3662   25.5773 C   0  0  0  0  0  0  0  0  0  0  0  0
    8.6061  -14.8376   24.2983 C   0  0  2  0  0  0  0  0  0  0  0  0
    7.8732  -14.6666   23.1086 N   0  0  0  0  0  0  0  0  0  0  0  0
    9.1157  -16.1996   24.5024 C   0  0  0  0  0  0  0  0  0  0  0  0
    8.2719  -17.1533   24.4539 O   0  0  0  0  0  0  0  0  0  0  0  0
    9.4909  -13.4723   27.2454 C   0  0  0  0  0  0  0  0  0  0  0  0
   10.2658  -13.4923   28.3761 C   0  0  0  0  0  0  0  0  0  0  0  0
   10.4428  -16.5080   24.7409 N   0  0  0  0  0  0  0  0  0  0  0  0
   10.9096  -17.9597   24.8677 C   0  0  1  0  0  0  0  0  0  0  0  0
   12.2389  -17.9915   24.2348 C   0  0  0  0  0  0  0  0  0  0  0  0
   13.0723  -19.1784   24.2922 C   0  0  0  0  0  0  0  0  0  0  0  0
   13.7155  -19.7517   23.0851 C   0  0  0  0  0  0  0  0  0  0  0  0
   14.5309  -20.9908   23.3357 C   0  0  0  0  0  0  0  0  0  0  0  0
   15.2326  -21.3059   22.1082 N   0  0  0  0  0  0  0  0  0  0  0  0
   10.9455  -18.1109   26.3351 C   0  0  0  0  0  0  0  0  0  0  0  0
   11.0589  -17.0629   27.0771 O   0  0  0  0  0  0  0  0  0  0  0  0
   10.8637  -19.2830   27.0460 O   0  0  0  0  0  0  0  0  0  0  0  0
  2  1  1  0
  3  2  1  0
  3  4  1  6
  5 14  1  0
  5  3  1  0
  6  5  2  0
  8  7  1  0
  8 18  2  0
  9  8  1  0
 10  9  2  0
 10 11  1  0
 11 17  2  0
 12 11  1  0
 13 12  1  1
 13 14  1  0
 15 16  2  0
 15 13  1  0
 17 18  1  0
 19 15  1  0
 20 26  1  0
 20 19  1  0
 20 21  1  1
 22 23  1  0
 22 21  1  0
 24 25  1  0
 24 23  1  0
 26 28  1  0
 27 26  2  0
M  END
$$$$
