SYK.pdb
     RDKit          3D

 28 28  0  0  1  0  0  0  0  0999 V2000
   10.9003  -22.7621   19.9403 O   0  0  0  0  0  0  0  0  0  0  0  0
   10.9275  -21.3740   19.8762 C   0  0  0  0  0  0  0  0  0  0  0  0
   10.4317  -20.7679   21.1912 C   0  0  2  0  0  0  0  0  0  0  0  0
    9.1205  -21.3066   21.4499 N   0  0  0  0  0  0  0  0  0  0  0  0
   10.4335  -19.2795   21.1044 C   0  0  0  0  0  0  0  0  0  0  0  0
   11.5131  -18.7077   20.9283 O   0  0  0  0  0  0  0  0  0  0  0  0
    7.9778  -10.9990   19.3260 O   0  0  0  0  0  0  0  0  0  0  0  0
    7.9711  -12.3638   19.5960 C   0  0  0  0  0  0  0  0  0  0  0  0
    8.3576  -13.3035   18.6677 C   0  0  0  0  0  0  0  0  0  0  0  0
    8.3522  -14.6777   18.9359 C   0  0  0  0  0  0  0  0  0  0  0  0
    7.9556  -15.1300   20.1495 C   0  0  0  0  0  0  0  0  0  0  0  0
    7.8904  -16.5140   20.6278 C   0  0  0  0  0  0  0  0  0  0  0  0
    9.1825  -17.1100   21.1085 C   0  0  2  0  0  0  0  0  0  0  0  0
    9.2537  -18.5118   21.2158 N   0  0  0  0  0  0  0  0  0  0  0  0
    9.6091  -16.3902   22.3154 C   0  0  0  0  0  0  0  0  0  0  0  0
   10.7342  -15.7933   22.2735 O   0  0  0  0  0  0  0  0  0  0  0  0
    7.5635  -14.1559   21.0869 C   0  0  0  0  0  0  0  0  0  0  0  0
    7.5715  -12.8120   20.8166 C   0  0  0  0  0  0  0  0  0  0  0  0
    8.8712  -16.3204   23.4833 N   0  0  0  0  0  0  0  0  0  0  0  0
    9.1687  -15.2619   24.5475 C   0  0  1  0  0  0  0  0  0  0  0  0
    7.8900  -14.5634   24.7611 C   0  0  0  0  0  0  0  0  0  0  0  0
    7.7441  -13.5601   25.7997 C   0  0  0  0  0  0  0  0  0  0  0  0
    6.4592  -12.8632   26.0506 C   0  0  0  0  0  0  0  0  0  0  0  0
    6.4806  -11.9025   27.2080 C   0  0  0  0  0  0  0  0  0  0  0  0
    5.1486  -11.3486   27.3388 N   0  0  0  0  0  0  0  0  0  0  0  0
    9.5765  -16.1158   25.6797 C   0  0  0  0  0  0  0  0  0  0  0  0
   10.2765  -15.6081   26.6358 O   0  0  0  0  0  0  0  0  0  0  0  0
    9.2862  -17.4464   25.8560 O   0  0  0  0  0  0  0  0  0  0  0  0
  2  1  1  0
  3  2  1  0
  3  4  1  6
  5 14  1  0
  5  3  1  0
  6  5  2  0
  8  7  1  0
  8 18  2  0
  9  8  1  0
 10  9  2  0
 10 11  1  0
 11 17  2  0
 12 11  1  0
 13 12  1  1
 13 14  1  0
 15 16  2  0
 15 13  1  0
 17 18  1  0
 19 15  1  0
 20 26  1  0
 20 19  1  0
 20 21  1  1
 22 23  1  0
 22 21  1  0
 24 25  1  0
 24 23  1  0
 26 28  1  0
 27 26  2  0
M  END
$$$$
