SYK.pdb
     RDKit          3D

 28 28  0  0  1  0  0  0  0  0999 V2000
    8.6886  -17.5902   18.1586 O   0  0  0  0  0  0  0  0  0  0  0  0
    9.2199  -18.7793   18.6439 C   0  0  0  0  0  0  0  0  0  0  0  0
    8.8024  -18.9966   20.1003 C   0  0  2  0  0  0  0  0  0  0  0  0
    7.3622  -18.9861   20.1448 N   0  0  0  0  0  0  0  0  0  0  0  0
    9.4109  -17.9506   20.9712 C   0  0  0  0  0  0  0  0  0  0  0  0
   10.6412  -17.8526   20.9908 O   0  0  0  0  0  0  0  0  0  0  0  0
    7.4807  -12.1324   17.8362 O   0  0  0  0  0  0  0  0  0  0  0  0
    7.6480  -12.8013   19.0445 C   0  0  0  0  0  0  0  0  0  0  0  0
    6.6190  -13.4677   19.6700 C   0  0  0  0  0  0  0  0  0  0  0  0
    6.7837  -14.1420   20.8860 C   0  0  0  0  0  0  0  0  0  0  0  0
    7.9936  -14.1562   21.4947 C   0  0  0  0  0  0  0  0  0  0  0  0
    8.3721  -14.8086   22.7516 C   0  0  0  0  0  0  0  0  0  0  0  0
    9.1463  -16.0894   22.6258 C   0  0  2  0  0  0  0  0  0  0  0  0
    8.6343  -17.0787   21.7651 N   0  0  0  0  0  0  0  0  0  0  0  0
    9.4730  -16.5726   23.9735 C   0  0  0  0  0  0  0  0  0  0  0  0
    8.5010  -16.7909   24.7683 O   0  0  0  0  0  0  0  0  0  0  0  0
    9.0348  -13.4700   20.8419 C   0  0  0  0  0  0  0  0  0  0  0  0
    8.8655  -12.8119   19.6512 C   0  0  0  0  0  0  0  0  0  0  0  0
   10.7586  -16.8040   24.4285 N   0  0  0  0  0  0  0  0  0  0  0  0
   11.0152  -17.5973   25.7117 C   0  0  1  0  0  0  0  0  0  0  0  0
   11.0857  -19.0048   25.2844 C   0  0  0  0  0  0  0  0  0  0  0  0
   11.3729  -20.0661   26.2318 C   0  0  0  0  0  0  0  0  0  0  0  0
   11.3743  -21.4965   25.8399 C   0  0  0  0  0  0  0  0  0  0  0  0
   11.8296  -22.4430   26.9170 C   0  0  0  0  0  0  0  0  0  0  0  0
   11.7498  -23.7856   26.3791 N   0  0  0  0  0  0  0  0  0  0  0  0
   12.3149  -17.0361   26.1279 C   0  0  0  0  0  0  0  0  0  0  0  0
   13.0248  -16.3816   25.2737 O   0  0  0  0  0  0  0  0  0  0  0  0
   12.8900  -17.1214   27.3720 O   0  0  0  0  0  0  0  0  0  0  0  0
  2  1  1  0
  3  2  1  0
  3  4  1  6
  5 14  1  0
  5  3  1  0
  6  5  2  0
  8  7  1  0
  8 18  2  0
  9  8  1  0
 10  9  2  0
 10 11  1  0
 11 17  2  0
 12 11  1  0
 13 12  1  1
 13 14  1  0
 15 16  2  0
 15 13  1  0
 17 18  1  0
 19 15  1  0
 20 26  1  0
 20 19  1  0
 20 21  1  6
 22 23  1  0
 22 21  1  0
 24 25  1  0
 24 23  1  0
 26 28  1  0
 27 26  2  0
M  END
$$$$
