SYK.pdb
     RDKit          3D

 28 28  0  0  1  0  0  0  0  0999 V2000
    7.7886  -20.7476   20.7432 O   0  0  0  0  0  0  0  0  0  0  0  0
    6.8031  -19.9570   20.1643 C   0  0  0  0  0  0  0  0  0  0  0  0
    7.4336  -18.7914   19.3985 C   0  0  2  0  0  0  0  0  0  0  0  0
    8.0659  -19.3358   18.2237 N   0  0  0  0  0  0  0  0  0  0  0  0
    8.3891  -18.0566   20.2760 C   0  0  0  0  0  0  0  0  0  0  0  0
    9.5938  -18.2960   20.1541 O   0  0  0  0  0  0  0  0  0  0  0  0
    6.9002  -11.6102   17.9640 O   0  0  0  0  0  0  0  0  0  0  0  0
    7.3034  -12.4023   19.0343 C   0  0  0  0  0  0  0  0  0  0  0  0
    8.5818  -12.3640   19.5427 C   0  0  0  0  0  0  0  0  0  0  0  0
    8.9911  -13.1597   20.6196 C   0  0  0  0  0  0  0  0  0  0  0  0
    8.1151  -14.0109   21.2051 C   0  0  0  0  0  0  0  0  0  0  0  0
    8.3409  -14.9104   22.3402 C   0  0  0  0  0  0  0  0  0  0  0  0
    8.8168  -16.2946   22.0035 C   0  0  2  0  0  0  0  0  0  0  0  0
    7.9653  -17.1067   21.2309 N   0  0  0  0  0  0  0  0  0  0  0  0
    9.3074  -16.9322   23.2321 C   0  0  0  0  0  0  0  0  0  0  0  0
    8.4488  -17.5152   23.9715 O   0  0  0  0  0  0  0  0  0  0  0  0
    6.8123  -14.0377   20.6729 C   0  0  0  0  0  0  0  0  0  0  0  0
    6.4191  -13.2555   19.6180 C   0  0  0  0  0  0  0  0  0  0  0  0
   10.6316  -16.9393   23.6316 N   0  0  0  0  0  0  0  0  0  0  0  0
   11.1383  -17.9308   24.6813 C   0  0  1  0  0  0  0  0  0  0  0  0
   11.6324  -19.0848   23.9114 C   0  0  0  0  0  0  0  0  0  0  0  0
   12.1508  -20.2668   24.5751 C   0  0  0  0  0  0  0  0  0  0  0  0
   12.7073  -21.4165   23.8214 C   0  0  0  0  0  0  0  0  0  0  0  0
   13.1085  -22.5908   24.6719 C   0  0  0  0  0  0  0  0  0  0  0  0
   13.7406  -23.5621   23.8027 N   0  0  0  0  0  0  0  0  0  0  0  0
   12.2079  -17.1374   25.3167 C   0  0  0  0  0  0  0  0  0  0  0  0
   12.7750  -16.1906   24.6505 O   0  0  0  0  0  0  0  0  0  0  0  0
   12.6962  -17.2827   26.5920 O   0  0  0  0  0  0  0  0  0  0  0  0
  2  1  1  0
  3  2  1  0
  3  4  1  6
  5 14  1  0
  5  3  1  0
  6  5  2  0
  8  7  1  0
  8 18  2  0
  9  8  1  0
 10  9  2  0
 10 11  1  0
 11 17  2  0
 12 11  1  0
 13 12  1  1
 13 14  1  0
 15 16  2  0
 15 13  1  0
 17 18  1  0
 19 15  1  0
 20 26  1  0
 20 19  1  0
 20 21  1  6
 22 23  1  0
 22 21  1  0
 24 25  1  0
 24 23  1  0
 26 28  1  0
 27 26  2  0
M  END
$$$$
