SYK.pdb
     RDKit          3D

 28 28  0  0  1  0  0  0  0  0999 V2000
    7.4795  -17.1113   20.2021 O   0  0  0  0  0  0  0  0  0  0  0  0
    6.5121  -16.1534   20.4813 C   0  0  0  0  0  0  0  0  0  0  0  0
    7.1522  -14.7695   20.6143 C   0  0  2  0  0  0  0  0  0  0  0  0
    7.8073  -14.4729   19.3655 N   0  0  0  0  0  0  0  0  0  0  0  0
    8.0894  -14.7457   21.7736 C   0  0  0  0  0  0  0  0  0  0  0  0
    9.2991  -14.8382   21.5465 O   0  0  0  0  0  0  0  0  0  0  0  0
   11.0746  -15.3121   30.1458 O   0  0  0  0  0  0  0  0  0  0  0  0
   10.2982  -15.0459   29.0225 C   0  0  0  0  0  0  0  0  0  0  0  0
   10.3693  -13.8529   28.3398 C   0  0  0  0  0  0  0  0  0  0  0  0
    9.5895  -13.5816   27.2090 C   0  0  0  0  0  0  0  0  0  0  0  0
    8.7213  -14.5119   26.7451 C   0  0  0  0  0  0  0  0  0  0  0  0
    7.8337  -14.4280   25.5815 C   0  0  0  0  0  0  0  0  0  0  0  0
    8.4540  -14.7465   24.2513 C   0  0  2  0  0  0  0  0  0  0  0  0
    7.6430  -14.6222   23.1074 N   0  0  0  0  0  0  0  0  0  0  0  0
    9.1537  -16.0332   24.3577 C   0  0  0  0  0  0  0  0  0  0  0  0
    8.4464  -17.0911   24.2906 O   0  0  0  0  0  0  0  0  0  0  0  0
    8.6610  -15.7259   27.4548 C   0  0  0  0  0  0  0  0  0  0  0  0
    9.4278  -15.9841   28.5614 C   0  0  0  0  0  0  0  0  0  0  0  0
   10.5205  -16.1660   24.5238 N   0  0  0  0  0  0  0  0  0  0  0  0
   11.1846  -17.5441   24.5636 C   0  0  1  0  0  0  0  0  0  0  0  0
   12.3770  -17.4197   23.7086 C   0  0  0  0  0  0  0  0  0  0  0  0
   12.9967  -18.5856   23.1059 C   0  0  0  0  0  0  0  0  0  0  0  0
   13.6554  -18.5332   21.7782 C   0  0  0  0  0  0  0  0  0  0  0  0
   14.1635  -19.8570   21.2758 C   0  0  0  0  0  0  0  0  0  0  0  0
   14.8512  -19.6129   20.0245 N   0  0  0  0  0  0  0  0  0  0  0  0
   11.4932  -17.6601   26.0019 C   0  0  0  0  0  0  0  0  0  0  0  0
   11.2943  -16.6486   26.7759 O   0  0  0  0  0  0  0  0  0  0  0  0
   11.9841  -18.7646   26.6539 O   0  0  0  0  0  0  0  0  0  0  0  0
  2  1  1  0
  3  2  1  0
  3  4  1  6
  5 14  1  0
  5  3  1  0
  6  5  2  0
  8  7  1  0
  8 18  2  0
  9  8  1  0
 10  9  2  0
 10 11  1  0
 11 17  2  0
 12 11  1  0
 13 12  1  1
 13 14  1  0
 15 16  2  0
 15 13  1  0
 17 18  1  0
 19 15  1  0
 20 26  1  0
 20 19  1  0
 20 21  1  6
 22 23  1  0
 22 21  1  0
 24 25  1  0
 24 23  1  0
 26 28  1  0
 27 26  2  0
M  END
$$$$
