SYK.pdb
     RDKit          3D

 28 28  0  0  1  0  0  0  0  0999 V2000
    7.2197  -14.9164   16.9901 O   0  0  0  0  0  0  0  0  0  0  0  0
    7.6979  -15.0152   18.2913 C   0  0  0  0  0  0  0  0  0  0  0  0
    7.6037  -13.6619   19.0001 C   0  0  2  0  0  0  0  0  0  0  0  0
    8.3487  -12.7093   18.2167 N   0  0  0  0  0  0  0  0  0  0  0  0
    8.1105  -13.7769   20.3975 C   0  0  0  0  0  0  0  0  0  0  0  0
    9.3313  -13.7517   20.5781 O   0  0  0  0  0  0  0  0  0  0  0  0
    8.6090  -13.6861   29.2514 O   0  0  0  0  0  0  0  0  0  0  0  0
    8.1269  -13.7219   27.9469 C   0  0  0  0  0  0  0  0  0  0  0  0
    7.5456  -14.8449   27.4035 C   0  0  0  0  0  0  0  0  0  0  0  0
    7.0593  -14.8845   26.0912 C   0  0  0  0  0  0  0  0  0  0  0  0
    7.1509  -13.7883   25.3009 C   0  0  0  0  0  0  0  0  0  0  0  0
    6.6952  -13.6234   23.9175 C   0  0  0  0  0  0  0  0  0  0  0  0
    7.6630  -14.0406   22.8474 C   0  0  2  0  0  0  0  0  0  0  0  0
    7.2491  -13.9121   21.5081 N   0  0  0  0  0  0  0  0  0  0  0  0
    8.1958  -15.3656   23.1896 C   0  0  0  0  0  0  0  0  0  0  0  0
    7.4689  -16.3764   22.9180 O   0  0  0  0  0  0  0  0  0  0  0  0
    7.7480  -12.6488   25.8719 C   0  0  0  0  0  0  0  0  0  0  0  0
    8.2219  -12.6178   27.1579 C   0  0  0  0  0  0  0  0  0  0  0  0
    9.4269  -15.5816   23.7822 N   0  0  0  0  0  0  0  0  0  0  0  0
    9.9677  -16.9972   23.9945 C   0  0  1  0  0  0  0  0  0  0  0  0
   11.2050  -17.0581   23.1983 C   0  0  0  0  0  0  0  0  0  0  0  0
   12.0216  -18.2576   23.1660 C   0  0  0  0  0  0  0  0  0  0  0  0
   13.2366  -18.3641   22.3222 C   0  0  0  0  0  0  0  0  0  0  0  0
   13.9683  -19.6736   22.4361 C   0  0  0  0  0  0  0  0  0  0  0  0
   15.1757  -19.5682   21.6427 N   0  0  0  0  0  0  0  0  0  0  0  0
   10.1978  -16.9891   25.4520 C   0  0  0  0  0  0  0  0  0  0  0  0
   10.4084  -15.8686   26.0536 O   0  0  0  0  0  0  0  0  0  0  0  0
   10.2110  -18.0761   26.2912 O   0  0  0  0  0  0  0  0  0  0  0  0
  2  1  1  0
  3  2  1  0
  3  4  1  6
  5 14  1  0
  5  3  1  0
  6  5  2  0
  8  7  1  0
  8 18  2  0
  9  8  1  0
 10  9  2  0
 10 11  1  0
 11 17  2  0
 12 11  1  0
 13 12  1  1
 13 14  1  0
 15 16  2  0
 15 13  1  0
 17 18  1  0
 19 15  1  0
 20 26  1  0
 20 19  1  0
 20 21  1  6
 22 23  1  0
 22 21  1  0
 24 25  1  0
 24 23  1  0
 26 28  1  0
 27 26  2  0
M  END
$$$$
