SYK.pdb
     RDKit          3D

 28 28  0  0  1  0  0  0  0  0999 V2000
    8.0484  -19.1790   18.2697 O   0  0  0  0  0  0  0  0  0  0  0  0
    8.1721  -18.4632   19.4546 C   0  0  0  0  0  0  0  0  0  0  0  0
    8.3902  -16.9769   19.1614 C   0  0  2  0  0  0  0  0  0  0  0  0
    9.4365  -16.8784   18.1756 N   0  0  0  0  0  0  0  0  0  0  0  0
    8.7170  -16.2472   20.4198 C   0  0  0  0  0  0  0  0  0  0  0  0
    9.8849  -16.2685   20.8188 O   0  0  0  0  0  0  0  0  0  0  0  0
    7.4711  -12.4275   28.3730 O   0  0  0  0  0  0  0  0  0  0  0  0
    7.3402  -12.8065   27.0408 C   0  0  0  0  0  0  0  0  0  0  0  0
    7.8987  -12.0874   26.0087 C   0  0  0  0  0  0  0  0  0  0  0  0
    7.7689  -12.4657   24.6670 C   0  0  0  0  0  0  0  0  0  0  0  0
    7.0713  -13.5801   24.3413 C   0  0  0  0  0  0  0  0  0  0  0  0
    6.8324  -14.1476   23.0110 C   0  0  0  0  0  0  0  0  0  0  0  0
    7.9477  -14.9703   22.4321 C   0  0  2  0  0  0  0  0  0  0  0  0
    7.7450  -15.5406   21.1612 N   0  0  0  0  0  0  0  0  0  0  0  0
    8.4067  -15.9204   23.4535 C   0  0  0  0  0  0  0  0  0  0  0  0
    7.7378  -16.9959   23.5947 O   0  0  0  0  0  0  0  0  0  0  0  0
    6.5067  -14.3036   25.4085 C   0  0  0  0  0  0  0  0  0  0  0  0
    6.6381  -13.9265   26.7199 C   0  0  0  0  0  0  0  0  0  0  0  0
    9.5104  -15.7218   24.2632 N   0  0  0  0  0  0  0  0  0  0  0  0
   10.1411  -16.8781   25.0422 C   0  0  1  0  0  0  0  0  0  0  0  0
   11.5190  -16.9772   24.5322 C   0  0  0  0  0  0  0  0  0  0  0  0
   12.0594  -18.2398   24.0627 C   0  0  0  0  0  0  0  0  0  0  0  0
   13.4417  -18.3623   23.5395 C   0  0  0  0  0  0  0  0  0  0  0  0
   13.8058  -19.7339   23.0403 C   0  0  0  0  0  0  0  0  0  0  0  0
   14.1732  -19.6061   21.6449 N   0  0  0  0  0  0  0  0  0  0  0  0
   10.0530  -16.3619   26.4218 C   0  0  0  0  0  0  0  0  0  0  0  0
    9.9700  -17.1922   27.4044 O   0  0  0  0  0  0  0  0  0  0  0  0
   10.0540  -15.0452   26.8116 O   0  0  0  0  0  0  0  0  0  0  0  0
  2  1  1  0
  3  2  1  0
  3  4  1  6
  5 14  1  0
  5  3  1  0
  6  5  2  0
  8  7  1  0
  8 18  2  0
  9  8  1  0
 10  9  2  0
 10 11  1  0
 11 17  2  0
 12 11  1  0
 13 12  1  1
 13 14  1  0
 15 16  2  0
 15 13  1  0
 17 18  1  0
 19 15  1  0
 20 26  1  0
 20 19  1  0
 20 21  1  6
 22 23  1  0
 22 21  1  0
 24 25  1  0
 24 23  1  0
 26 28  1  0
 27 26  2  0
M  END
$$$$
