IHN.pdb
     RDKit          3D

 27 27  0  0  1  0  0  0  0  0999 V2000
   30.3279  -21.6663  -10.7692 C   0  0  0  0  0  0  0  0  0  0  0  0
   28.8503  -21.7889  -10.5213 C   0  0  0  0  0  0  0  0  0  0  0  0
   28.0748  -20.8672  -11.4367 C   0  0  2  0  0  0  0  0  0  0  0  0
   28.4483  -19.4326  -11.0617 C   0  0  0  0  0  0  0  0  0  0  0  0
   26.6111  -21.0942  -11.1927 C   0  0  2  0  0  0  0  0  0  0  0  0
   26.2711  -22.4733  -11.4226 N   0  0  0  0  0  0  0  0  0  0  0  0
   25.7928  -20.1648  -12.0017 C   0  0  0  0  0  0  0  0  0  0  0  0
   25.7684  -18.9254  -11.7624 O   0  0  0  0  0  0  0  0  0  0  0  0
   25.0165  -20.6383  -13.0610 N   0  0  0  0  0  0  0  0  0  0  0  0
   24.2249  -19.7024  -13.9519 C   0  0  1  0  0  0  0  0  0  0  0  0
   24.8535  -19.9257  -15.2777 C   0  0  0  0  0  0  0  0  0  0  0  0
   26.0329  -19.1619  -15.6520 C   0  0  0  0  0  0  0  0  0  0  0  0
   26.7999  -18.2009  -15.0892 C   0  0  0  0  0  0  0  0  0  0  0  0
   27.8445  -17.8908  -15.9008 N   0  0  0  0  0  0  0  0  0  0  0  0
   27.7229  -18.6674  -16.9734 C   0  0  0  0  0  0  0  0  0  0  0  0
   26.6535  -19.4338  -16.8514 N   0  0  0  0  0  0  0  0  0  0  0  0
   22.8818  -20.3839  -13.9358 C   0  0  0  0  0  0  0  0  0  0  0  0
   22.8559  -21.6326  -13.6268 O   0  0  0  0  0  0  0  0  0  0  0  0
   18.0099  -21.8445  -13.2027 N   0  0  0  0  0  0  0  0  0  0  0  0
   18.6780  -20.9686  -12.2999 C   0  0  0  0  0  0  0  0  0  0  0  0
   18.1743  -20.8167  -11.1596 O   0  0  0  0  0  0  0  0  0  0  0  0
   19.9070  -20.2564  -12.6505 C   0  0  0  0  0  0  0  0  0  0  0  0
   20.3893  -20.5331  -14.0598 C   0  0  2  0  0  0  0  0  0  0  0  0
   21.6506  -19.7911  -14.2210 N   0  0  0  0  0  0  0  0  0  0  0  0
   19.4206  -20.0845  -15.0690 C   0  0  0  0  0  0  0  0  0  0  0  0
   19.2506  -18.8663  -15.2652 O   0  0  0  0  0  0  0  0  0  0  0  0
   18.6969  -20.9961  -15.8010 O   0  0  0  0  0  0  0  0  0  0  0  0
  2  1  1  0
  3  2  1  0
  3  4  1  1
  5  6  1  6
  5  3  1  0
  7  5  1  0
  8  7  2  0
  9  7  1  0
 10  9  1  0
 11 12  1  0
 10 11  1  6
 12 16  1  0
 13 14  1  0
 13 12  2  0
 14 15  1  0
 15 16  2  0
 17 10  1  0
 17 18  2  0
 20 22  1  0
 20 19  1  0
 21 20  2  0
 23 22  1  1
 23 24  1  0
 24 17  1  0
 25 23  1  0
 26 25  2  0
 27 25  1  0
M  END
$$$$
