IHN.pdb
     RDKit          3D

 27 27  0  0  1  0  0  0  0  0999 V2000
   21.3009  -17.3562  -22.4872 C   0  0  0  0  0  0  0  0  0  0  0  0
   22.2808  -17.1300  -21.3699 C   0  0  0  0  0  0  0  0  0  0  0  0
   22.2489  -18.2803  -20.3876 C   0  0  2  0  0  0  0  0  0  0  0  0
   20.8446  -18.3252  -19.7841 C   0  0  0  0  0  0  0  0  0  0  0  0
   23.2581  -18.0007  -19.3122 C   0  0  2  0  0  0  0  0  0  0  0  0
   24.5538  -17.7584  -19.8893 N   0  0  0  0  0  0  0  0  0  0  0  0
   23.2765  -19.0904  -18.3121 C   0  0  0  0  0  0  0  0  0  0  0  0
   23.3216  -20.3040  -18.6572 O   0  0  0  0  0  0  0  0  0  0  0  0
   23.2424  -18.8032  -16.9465 N   0  0  0  0  0  0  0  0  0  0  0  0
   23.1694  -19.8981  -15.9015 C   0  0  1  0  0  0  0  0  0  0  0  0
   24.3491  -19.5994  -15.0519 C   0  0  0  0  0  0  0  0  0  0  0  0
   25.6804  -19.9476  -15.5220 C   0  0  0  0  0  0  0  0  0  0  0  0
   26.2197  -20.4656  -16.6487 C   0  0  0  0  0  0  0  0  0  0  0  0
   27.5735  -20.5178  -16.5469 N   0  0  0  0  0  0  0  0  0  0  0  0
   27.8736  -20.0268  -15.3480 C   0  0  0  0  0  0  0  0  0  0  0  0
   26.7657  -19.6796  -14.7171 N   0  0  0  0  0  0  0  0  0  0  0  0
   21.9257  -19.4833  -15.1601 C   0  0  0  0  0  0  0  0  0  0  0  0
   21.5842  -18.2444  -15.2248 O   0  0  0  0  0  0  0  0  0  0  0  0
   18.8156  -17.1950  -16.3213 N   0  0  0  0  0  0  0  0  0  0  0  0
   18.6549  -18.0117  -15.1655 C   0  0  0  0  0  0  0  0  0  0  0  0
   18.1955  -17.4683  -14.1308 O   0  0  0  0  0  0  0  0  0  0  0  0
   18.9991  -19.4336  -15.1461 C   0  0  0  0  0  0  0  0  0  0  0  0
   19.7859  -19.8521  -13.9209 C   0  0  2  0  0  0  0  0  0  0  0  0
   21.0963  -20.3154  -14.4063 N   0  0  0  0  0  0  0  0  0  0  0  0
   19.1207  -20.9361  -13.1857 C   0  0  0  0  0  0  0  0  0  0  0  0
   19.3612  -22.1221  -13.4802 O   0  0  0  0  0  0  0  0  0  0  0  0
   18.2327  -20.6558  -12.1740 O   0  0  0  0  0  0  0  0  0  0  0  0
  2  1  1  0
  3  2  1  0
  3  4  1  1
  5  6  1  6
  5  3  1  0
  7  5  1  0
  8  7  2  0
  9  7  1  0
 10  9  1  0
 11 12  1  0
 10 11  1  1
 12 16  1  0
 13 14  1  0
 13 12  2  0
 14 15  1  0
 15 16  2  0
 17 10  1  0
 17 18  2  0
 20 22  1  0
 20 19  1  0
 21 20  2  0
 23 22  1  6
 23 24  1  0
 24 17  1  0
 25 23  1  0
 26 25  2  0
 27 25  1  0
M  END
$$$$
