IHN.pdb
     RDKit          3D

 27 27  0  0  1  0  0  0  0  0999 V2000
   28.5451  -20.3208   -5.9293 C   0  0  0  0  0  0  0  0  0  0  0  0
   27.1787  -20.4859   -6.5339 C   0  0  0  0  0  0  0  0  0  0  0  0
   27.1748  -20.0406   -7.9798 C   0  0  2  0  0  0  0  0  0  0  0  0
   27.5551  -18.5597   -8.0015 C   0  0  0  0  0  0  0  0  0  0  0  0
   25.7843  -20.2186   -8.5168 C   0  0  2  0  0  0  0  0  0  0  0  0
   25.3234  -21.5616   -8.2833 N   0  0  0  0  0  0  0  0  0  0  0  0
   25.7186  -19.8355   -9.9439 C   0  0  0  0  0  0  0  0  0  0  0  0
   26.1314  -18.7123  -10.3468 O   0  0  0  0  0  0  0  0  0  0  0  0
   25.1919  -20.7136  -10.8927 N   0  0  0  0  0  0  0  0  0  0  0  0
   25.1848  -20.3817  -12.3712 C   0  0  1  0  0  0  0  0  0  0  0  0
   25.8879  -21.5498  -12.9577 C   0  0  0  0  0  0  0  0  0  0  0  0
   27.1047  -21.3446  -13.7270 C   0  0  0  0  0  0  0  0  0  0  0  0
   27.8866  -20.2949  -14.0665 C   0  0  0  0  0  0  0  0  0  0  0  0
   28.9668  -20.7164  -14.7746 N   0  0  0  0  0  0  0  0  0  0  0  0
   28.8522  -22.0376  -14.8726 C   0  0  0  0  0  0  0  0  0  0  0  0
   27.7533  -22.4378  -14.2578 N   0  0  0  0  0  0  0  0  0  0  0  0
   23.7139  -20.5062  -12.6702 C   0  0  0  0  0  0  0  0  0  0  0  0
   23.0413  -21.3620  -11.9840 O   0  0  0  0  0  0  0  0  0  0  0  0
   18.9305  -17.5033  -12.8785 N   0  0  0  0  0  0  0  0  0  0  0  0
   19.7284  -18.0178  -13.9402 C   0  0  0  0  0  0  0  0  0  0  0  0
   19.1528  -18.2741  -15.0265 O   0  0  0  0  0  0  0  0  0  0  0  0
   21.1669  -18.2509  -13.8092 C   0  0  0  0  0  0  0  0  0  0  0  0
   21.5293  -19.7046  -13.5844 C   0  0  2  0  0  0  0  0  0  0  0  0
   22.9992  -19.7774  -13.6224 N   0  0  0  0  0  0  0  0  0  0  0  0
   20.9651  -20.5774  -14.6225 C   0  0  0  0  0  0  0  0  0  0  0  0
   19.9143  -21.2072  -14.3976 O   0  0  0  0  0  0  0  0  0  0  0  0
   21.5854  -20.7082  -15.8426 O   0  0  0  0  0  0  0  0  0  0  0  0
  2  1  1  0
  3  2  1  0
  3  4  1  1
  5  6  1  6
  5  3  1  0
  7  5  1  0
  8  7  2  0
  9  7  1  0
 10  9  1  0
 11 12  1  0
 10 11  1  6
 12 16  1  0
 13 14  1  0
 13 12  2  0
 14 15  1  0
 15 16  2  0
 17 10  1  0
 17 18  2  0
 20 22  1  0
 20 19  1  0
 21 20  2  0
 23 22  1  6
 23 24  1  0
 24 17  1  0
 25 23  1  0
 26 25  2  0
 27 25  1  0
M  END
$$$$
