IHN.pdb
     RDKit          3D

 27 27  0  0  1  0  0  0  0  0999 V2000
   27.8778  -11.7168  -15.4770 C   0  0  0  0  0  0  0  0  0  0  0  0
   26.5126  -12.3130  -15.6788 C   0  0  0  0  0  0  0  0  0  0  0  0
   25.5374  -11.2655  -16.1696 C   0  0  2  0  0  0  0  0  0  0  0  0
   25.3870  -10.2265  -15.0578 C   0  0  0  0  0  0  0  0  0  0  0  0
   24.2196  -11.9392  -16.4205 C   0  0  2  0  0  0  0  0  0  0  0  0
   24.3985  -13.0993  -17.2529 N   0  0  0  0  0  0  0  0  0  0  0  0
   23.2388  -10.9841  -16.9804 C   0  0  0  0  0  0  0  0  0  0  0  0
   23.2758  -10.6326  -18.1925 O   0  0  0  0  0  0  0  0  0  0  0  0
   22.2371  -10.4391  -16.1753 N   0  0  0  0  0  0  0  0  0  0  0  0
   21.1392   -9.5655  -16.7476 C   0  0  1  0  0  0  0  0  0  0  0  0
   19.9175  -10.3403  -16.4157 C   0  0  0  0  0  0  0  0  0  0  0  0
   18.6081   -9.7498  -16.6419 C   0  0  0  0  0  0  0  0  0  0  0  0
   18.1268   -8.5980  -17.1619 C   0  0  0  0  0  0  0  0  0  0  0  0
   16.7682   -8.6129  -17.1731 N   0  0  0  0  0  0  0  0  0  0  0  0
   16.4069   -9.7840  -16.6570 C   0  0  0  0  0  0  0  0  0  0  0  0
   17.4820  -10.4804  -16.3326 N   0  0  0  0  0  0  0  0  0  0  0  0
   21.2239   -8.3812  -15.8209 C   0  0  0  0  0  0  0  0  0  0  0  0
   21.8954   -8.5282  -14.7332 O   0  0  0  0  0  0  0  0  0  0  0  0
   21.6933   -3.7338  -13.6090 N   0  0  0  0  0  0  0  0  0  0  0  0
   22.6570   -4.4849  -14.3409 C   0  0  0  0  0  0  0  0  0  0  0  0
   23.8434   -4.0734  -14.3297 O   0  0  0  0  0  0  0  0  0  0  0  0
   22.3166   -5.6959  -15.0882 C   0  0  0  0  0  0  0  0  0  0  0  0
   20.8389   -6.0293  -15.0654 C   0  0  2  0  0  0  0  0  0  0  0  0
   20.6455   -7.1276  -16.0266 N   0  0  0  0  0  0  0  0  0  0  0  0
   20.0113   -4.8802  -15.4560 C   0  0  0  0  0  0  0  0  0  0  0  0
   19.8672   -4.6027  -16.6616 O   0  0  0  0  0  0  0  0  0  0  0  0
   19.3928   -4.1050  -14.5036 O   0  0  0  0  0  0  0  0  0  0  0  0
  2  1  1  0
  3  2  1  0
  3  4  1  1
  5  6  1  6
  5  3  1  0
  7  5  1  0
  8  7  2  0
  9  7  1  0
 10  9  1  0
 11 12  1  0
 10 11  1  1
 12 16  1  0
 13 14  1  0
 13 12  2  0
 14 15  1  0
 15 16  2  0
 17 10  1  0
 17 18  2  0
 20 22  1  0
 20 19  1  0
 21 20  2  0
 23 22  1  6
 23 24  1  0
 24 17  1  0
 25 23  1  0
 26 25  2  0
 27 25  1  0
M  END
$$$$
