IHN.pdb
     RDKit          3D

 27 27  0  0  1  0  0  0  0  0999 V2000
   27.4029  -19.9056  -15.0627 C   0  0  0  0  0  0  0  0  0  0  0  0
   26.8306  -20.6786  -13.9073 C   0  0  0  0  0  0  0  0  0  0  0  0
   26.4437  -19.7480  -12.7789 C   0  0  2  0  0  0  0  0  0  0  0  0
   27.7162  -19.0358  -12.3190 C   0  0  0  0  0  0  0  0  0  0  0  0
   25.8914  -20.5808  -11.6588 C   0  0  2  0  0  0  0  0  0  0  0  0
   26.8562  -21.5626  -11.2393 N   0  0  0  0  0  0  0  0  0  0  0  0
   24.5963  -21.1844  -12.0412 C   0  0  0  0  0  0  0  0  0  0  0  0
   24.4760  -22.4269  -12.2305 O   0  0  0  0  0  0  0  0  0  0  0  0
   23.4616  -20.3883  -12.2062 N   0  0  0  0  0  0  0  0  0  0  0  0
   22.1034  -20.9867  -12.5117 C   0  0  1  0  0  0  0  0  0  0  0  0
   21.2595  -20.4152  -11.4328 C   0  0  0  0  0  0  0  0  0  0  0  0
   20.7931  -21.2721  -10.3546 C   0  0  0  0  0  0  0  0  0  0  0  0
   20.9083  -22.5764  -10.0170 C   0  0  0  0  0  0  0  0  0  0  0  0
   20.2936  -22.8159   -8.8293 N   0  0  0  0  0  0  0  0  0  0  0  0
   19.7954  -21.6498   -8.4288 C   0  0  0  0  0  0  0  0  0  0  0  0
   20.0783  -20.7140   -9.3177 N   0  0  0  0  0  0  0  0  0  0  0  0
   21.7791  -20.2795  -13.8014 C   0  0  0  0  0  0  0  0  0  0  0  0
   22.0192  -19.0168  -13.8600 O   0  0  0  0  0  0  0  0  0  0  0  0
   20.5771  -19.1054  -18.8188 N   0  0  0  0  0  0  0  0  0  0  0  0
   21.0855  -20.4253  -18.6510 C   0  0  0  0  0  0  0  0  0  0  0  0
   21.3159  -21.0942  -19.6886 O   0  0  0  0  0  0  0  0  0  0  0  0
   21.3439  -21.0137  -17.3366 C   0  0  0  0  0  0  0  0  0  0  0  0
   21.0435  -20.0794  -16.1824 C   0  0  2  0  0  0  0  0  0  0  0  0
   21.2431  -20.8617  -14.9513 N   0  0  0  0  0  0  0  0  0  0  0  0
   19.6642  -19.5761  -16.2290 C   0  0  0  0  0  0  0  0  0  0  0  0
   18.7483  -20.2303  -15.6956 O   0  0  0  0  0  0  0  0  0  0  0  0
   19.3716  -18.3883  -16.8567 O   0  0  0  0  0  0  0  0  0  0  0  0
  2  1  1  0
  3  2  1  0
  3  4  1  1
  5  6  1  6
  5  3  1  0
  7  5  1  0
  8  7  2  0
  9  7  1  0
 10  9  1  0
 11 12  1  0
 10 11  1  1
 12 16  1  0
 13 14  1  0
 13 12  2  0
 14 15  1  0
 15 16  2  0
 17 10  1  0
 17 18  2  0
 20 22  1  0
 20 19  1  0
 21 20  2  0
 23 22  1  6
 23 24  1  0
 24 17  1  0
 25 23  1  0
 26 25  2  0
 27 25  1  0
M  END
$$$$
