IHN.pdb
     RDKit          3D

 27 27  0  0  1  0  0  0  0  0999 V2000
   24.9645  -21.2391   -7.7828 C   0  0  0  0  0  0  0  0  0  0  0  0
   26.0258  -20.3150   -8.3118 C   0  0  0  0  0  0  0  0  0  0  0  0
   25.7193  -19.9059   -9.7357 C   0  0  2  0  0  0  0  0  0  0  0  0
   24.2050  -20.0067   -9.9228 C   0  0  0  0  0  0  0  0  0  0  0  0
   26.4126  -20.8689  -10.6551 C   0  0  2  0  0  0  0  0  0  0  0  0
   27.7887  -21.0322  -10.2672 N   0  0  0  0  0  0  0  0  0  0  0  0
   26.2660  -20.4479  -12.0654 C   0  0  0  0  0  0  0  0  0  0  0  0
   26.7610  -19.3658  -12.4874 O   0  0  0  0  0  0  0  0  0  0  0  0
   25.5681  -21.2429  -12.9762 N   0  0  0  0  0  0  0  0  0  0  0  0
   25.4210  -20.8487  -14.4319 C   0  0  1  0  0  0  0  0  0  0  0  0
   25.7659  -22.1098  -15.1344 C   0  0  0  0  0  0  0  0  0  0  0  0
   25.6452  -22.1829  -16.5816 C   0  0  0  0  0  0  0  0  0  0  0  0
   25.1928  -21.3798  -17.5711 C   0  0  0  0  0  0  0  0  0  0  0  0
   25.3874  -21.9630  -18.7827 N   0  0  0  0  0  0  0  0  0  0  0  0
   25.9661  -23.1355  -18.5403 C   0  0  0  0  0  0  0  0  0  0  0  0
   26.1314  -23.2917  -17.2386 N   0  0  0  0  0  0  0  0  0  0  0  0
   23.9304  -20.6475  -14.5093 C   0  0  0  0  0  0  0  0  0  0  0  0
   23.1990  -21.3268  -13.6974 O   0  0  0  0  0  0  0  0  0  0  0  0
   19.0261  -19.0185  -15.5359 N   0  0  0  0  0  0  0  0  0  0  0  0
   19.9972  -17.9779  -15.4827 C   0  0  0  0  0  0  0  0  0  0  0  0
   19.5813  -16.7938  -15.5268 O   0  0  0  0  0  0  0  0  0  0  0  0
   21.4331  -18.2387  -15.3787 C   0  0  0  0  0  0  0  0  0  0  0  0
   21.7860  -19.7120  -15.3908 C   0  0  2  0  0  0  0  0  0  0  0  0
   23.2562  -19.7876  -15.3781 N   0  0  0  0  0  0  0  0  0  0  0  0
   21.2674  -20.3904  -16.5861 C   0  0  0  0  0  0  0  0  0  0  0  0
   21.8590  -20.2644  -17.6749 O   0  0  0  0  0  0  0  0  0  0  0  0
   20.1330  -21.1644  -16.5170 O   0  0  0  0  0  0  0  0  0  0  0  0
  2  1  1  0
  3  2  1  0
  3  4  1  1
  5  6  1  1
  5  3  1  0
  7  5  1  0
  8  7  2  0
  9  7  1  0
 10  9  1  0
 11 12  1  0
 10 11  1  6
 12 16  1  0
 13 14  1  0
 13 12  2  0
 14 15  1  0
 15 16  2  0
 17 10  1  0
 17 18  2  0
 20 22  1  0
 20 19  1  0
 21 20  2  0
 23 22  1  6
 23 24  1  0
 24 17  1  0
 25 23  1  0
 26 25  2  0
 27 25  1  0
M  END
$$$$
