IHN.pdb
     RDKit          3D

 27 27  0  0  1  0  0  0  0  0999 V2000
   21.2940  -14.0076  -18.9050 C   0  0  0  0  0  0  0  0  0  0  0  0
   20.6457  -13.8297  -17.5604 C   0  0  0  0  0  0  0  0  0  0  0  0
   19.8268  -12.5581  -17.5241 C   0  0  2  0  0  0  0  0  0  0  0  0
   20.7951  -11.3874  -17.6969 C   0  0  0  0  0  0  0  0  0  0  0  0
   19.1585  -12.4743  -16.1826 C   0  0  2  0  0  0  0  0  0  0  0  0
   18.4867  -13.7097  -15.8775 N   0  0  0  0  0  0  0  0  0  0  0  0
   18.2548  -11.3051  -16.1173 C   0  0  0  0  0  0  0  0  0  0  0  0
   17.3476  -11.1217  -16.9760 O   0  0  0  0  0  0  0  0  0  0  0  0
   18.3832  -10.3630  -15.0952 N   0  0  0  0  0  0  0  0  0  0  0  0
   17.5167   -9.1211  -15.0400 C   0  0  1  0  0  0  0  0  0  0  0  0
   16.5219   -9.4794  -13.9984 C   0  0  0  0  0  0  0  0  0  0  0  0
   15.3674  -10.2885  -14.3547 C   0  0  0  0  0  0  0  0  0  0  0  0
   14.9374  -11.5471  -14.1107 C   0  0  0  0  0  0  0  0  0  0  0  0
   13.7150  -11.7481  -14.6687 N   0  0  0  0  0  0  0  0  0  0  0  0
   13.3863  -10.6040  -15.2614 C   0  0  0  0  0  0  0  0  0  0  0  0
   14.3517   -9.7182  -15.0899 N   0  0  0  0  0  0  0  0  0  0  0  0
   18.4926   -8.1350  -14.4538 C   0  0  0  0  0  0  0  0  0  0  0  0
   19.5079   -8.6115  -13.8233 O   0  0  0  0  0  0  0  0  0  0  0  0
   22.5206   -5.4656  -13.0271 N   0  0  0  0  0  0  0  0  0  0  0  0
   21.9148   -5.4984  -14.3157 C   0  0  0  0  0  0  0  0  0  0  0  0
   22.4048   -4.7604  -15.2058 O   0  0  0  0  0  0  0  0  0  0  0  0
   20.7653   -6.3475  -14.6295 C   0  0  0  0  0  0  0  0  0  0  0  0
   19.4732   -5.8827  -13.9895 C   0  0  2  0  0  0  0  0  0  0  0  0
   18.4083   -6.7438  -14.5297 N   0  0  0  0  0  0  0  0  0  0  0  0
   19.1794   -4.4782  -14.3045 C   0  0  0  0  0  0  0  0  0  0  0  0
   19.8716   -3.5732  -13.8012 O   0  0  0  0  0  0  0  0  0  0  0  0
   18.1460   -4.1501  -15.1501 O   0  0  0  0  0  0  0  0  0  0  0  0
  2  1  1  0
  3  2  1  0
  3  4  1  1
  5  6  1  6
  5  3  1  0
  7  5  1  0
  8  7  2  0
  9  7  1  0
 10  9  1  0
 11 12  1  0
 10 11  1  1
 12 16  1  0
 13 14  1  0
 13 12  2  0
 14 15  1  0
 15 16  2  0
 17 10  1  0
 17 18  2  0
 20 22  1  0
 20 19  1  0
 21 20  2  0
 23 22  1  6
 23 24  1  0
 24 17  1  0
 25 23  1  0
 26 25  2  0
 27 25  1  0
M  END
$$$$
