IHN.pdb
     RDKit          3D

 27 27  0  0  1  0  0  0  0  0999 V2000
   23.9609  -14.8607  -20.7716 C   0  0  0  0  0  0  0  0  0  0  0  0
   25.1938  -14.8213  -19.9123 C   0  0  0  0  0  0  0  0  0  0  0  0
   25.5018  -13.4041  -19.4813 C   0  0  2  0  0  0  0  0  0  0  0  0
   25.7550  -12.5872  -20.7488 C   0  0  0  0  0  0  0  0  0  0  0  0
   26.7427  -13.4348  -18.6372 C   0  0  2  0  0  0  0  0  0  0  0  0
   26.5850  -14.3582  -17.5449 N   0  0  0  0  0  0  0  0  0  0  0  0
   27.1037  -12.0741  -18.1832 C   0  0  0  0  0  0  0  0  0  0  0  0
   26.3153  -11.3796  -17.4831 O   0  0  0  0  0  0  0  0  0  0  0  0
   28.3375  -11.5154  -18.5214 N   0  0  0  0  0  0  0  0  0  0  0  0
   28.7679  -10.1575  -18.0047 C   0  0  1  0  0  0  0  0  0  0  0  0
   30.2472  -10.2787  -18.0000 C   0  0  0  0  0  0  0  0  0  0  0  0
   31.0638   -9.1068  -17.7276 C   0  0  0  0  0  0  0  0  0  0  0  0
   30.8462   -7.8121  -17.4034 C   0  0  0  0  0  0  0  0  0  0  0  0
   32.0255   -7.1677  -17.2036 N   0  0  0  0  0  0  0  0  0  0  0  0
   32.9798   -8.0718  -17.4047 C   0  0  0  0  0  0  0  0  0  0  0  0
   32.4353   -9.2343  -17.7177 N   0  0  0  0  0  0  0  0  0  0  0  0
   28.3607   -9.2849  -19.1628 C   0  0  0  0  0  0  0  0  0  0  0  0
   28.4878   -9.7748  -20.3457 O   0  0  0  0  0  0  0  0  0  0  0  0
   24.1654   -6.4517  -21.8148 N   0  0  0  0  0  0  0  0  0  0  0  0
   25.5132   -6.9110  -21.7800 C   0  0  0  0  0  0  0  0  0  0  0  0
   26.2355   -6.6656  -22.7776 O   0  0  0  0  0  0  0  0  0  0  0  0
   26.0717   -7.6429  -20.6428 C   0  0  0  0  0  0  0  0  0  0  0  0
   27.4870   -7.2322  -20.2913 C   0  0  2  0  0  0  0  0  0  0  0  0
   27.8510   -7.9879  -19.0814 N   0  0  0  0  0  0  0  0  0  0  0  0
   27.5894   -5.7917  -20.0227 C   0  0  0  0  0  0  0  0  0  0  0  0
   27.5527   -5.3768  -18.8489 O   0  0  0  0  0  0  0  0  0  0  0  0
   27.7251   -4.8934  -21.0548 O   0  0  0  0  0  0  0  0  0  0  0  0
  2  1  1  0
  3  2  1  0
  3  4  1  6
  5  6  1  1
  5  3  1  0
  7  5  1  0
  8  7  2  0
  9  7  1  0
 10  9  1  0
 11 12  1  0
 10 11  1  6
 12 16  1  0
 13 14  1  0
 13 12  2  0
 14 15  1  0
 15 16  2  0
 17 10  1  0
 17 18  2  0
 20 22  1  0
 20 19  1  0
 21 20  2  0
 23 22  1  1
 23 24  1  0
 24 17  1  0
 25 23  1  0
 26 25  2  0
 27 25  1  0
M  END
$$$$
