IHN.pdb
     RDKit          3D

 27 27  0  0  1  0  0  0  0  0999 V2000
   14.6967  -12.9686  -18.4042 C   0  0  0  0  0  0  0  0  0  0  0  0
   16.1917  -13.0119  -18.2530 C   0  0  0  0  0  0  0  0  0  0  0  0
   16.6625  -11.9572  -17.2759 C   0  0  2  0  0  0  0  0  0  0  0  0
   16.3146  -10.5938  -17.8743 C   0  0  0  0  0  0  0  0  0  0  0  0
   18.1512  -12.0874  -17.1335 C   0  0  2  0  0  0  0  0  0  0  0  0
   18.4999  -13.4113  -16.6905 N   0  0  0  0  0  0  0  0  0  0  0  0
   18.6892  -11.0319  -16.2479 C   0  0  0  0  0  0  0  0  0  0  0  0
   18.5912  -11.1093  -14.9916 O   0  0  0  0  0  0  0  0  0  0  0  0
   19.3246   -9.9100  -16.7830 N   0  0  0  0  0  0  0  0  0  0  0  0
   19.9743   -8.8633  -15.9008 C   0  0  1  0  0  0  0  0  0  0  0  0
   21.3065   -8.7024  -16.5350 C   0  0  0  0  0  0  0  0  0  0  0  0
   22.1572   -7.5883  -16.1481 C   0  0  0  0  0  0  0  0  0  0  0  0
   22.1150   -6.5913  -15.2355 C   0  0  0  0  0  0  0  0  0  0  0  0
   23.2533   -5.8514  -15.2872 N   0  0  0  0  0  0  0  0  0  0  0  0
   24.0058   -6.3962  -16.2386 C   0  0  0  0  0  0  0  0  0  0  0  0
   23.3777   -7.4316  -16.7672 N   0  0  0  0  0  0  0  0  0  0  0  0
   19.1321   -7.6616  -16.2401 C   0  0  0  0  0  0  0  0  0  0  0  0
   18.6949   -7.5675  -17.4466 O   0  0  0  0  0  0  0  0  0  0  0  0
   15.9499   -5.3157  -17.7968 N   0  0  0  0  0  0  0  0  0  0  0  0
   15.5995   -5.5713  -16.4401 C   0  0  0  0  0  0  0  0  0  0  0  0
   14.3828   -5.7361  -16.1765 O   0  0  0  0  0  0  0  0  0  0  0  0
   16.5909   -5.6482  -15.3668 C   0  0  0  0  0  0  0  0  0  0  0  0
   18.0172   -5.4596  -15.8417 C   0  0  2  0  0  0  0  0  0  0  0  0
   18.7713   -6.6323  -15.3690 N   0  0  0  0  0  0  0  0  0  0  0  0
   18.6186   -4.2344  -15.2986 C   0  0  0  0  0  0  0  0  0  0  0  0
   18.9619   -4.1913  -14.1021 O   0  0  0  0  0  0  0  0  0  0  0  0
   18.8070   -3.1314  -16.0977 O   0  0  0  0  0  0  0  0  0  0  0  0
  2  1  1  0
  3  2  1  0
  3  4  1  6
  5  6  1  1
  5  3  1  0
  7  5  1  0
  8  7  2  0
  9  7  1  0
 10  9  1  0
 11 12  1  0
 10 11  1  6
 12 16  1  0
 13 14  1  0
 13 12  2  0
 14 15  1  0
 15 16  2  0
 17 10  1  0
 17 18  2  0
 20 22  1  0
 20 19  1  0
 21 20  2  0
 23 22  1  1
 23 24  1  0
 24 17  1  0
 25 23  1  0
 26 25  2  0
 27 25  1  0
M  END
$$$$
