IHN.pdb
     RDKit          3D

 27 27  0  0  1  0  0  0  0  0999 V2000
   25.6693  -20.9238   -8.0080 C   0  0  0  0  0  0  0  0  0  0  0  0
   26.3678  -21.3084   -9.2823 C   0  0  0  0  0  0  0  0  0  0  0  0
   25.9400  -20.4085  -10.4208 C   0  0  2  0  0  0  0  0  0  0  0  0
   24.4551  -20.6705  -10.6754 C   0  0  0  0  0  0  0  0  0  0  0  0
   26.7400  -20.7830  -11.6346 C   0  0  2  0  0  0  0  0  0  0  0  0
   28.1052  -21.0573  -11.2719 N   0  0  0  0  0  0  0  0  0  0  0  0
   26.6280  -19.7424  -12.6799 C   0  0  0  0  0  0  0  0  0  0  0  0
   26.9480  -18.5420  -12.4549 O   0  0  0  0  0  0  0  0  0  0  0  0
   26.1594  -20.0628  -13.9552 N   0  0  0  0  0  0  0  0  0  0  0  0
   25.9617  -19.0055  -15.0225 C   0  0  1  0  0  0  0  0  0  0  0  0
   26.9727  -19.3925  -16.0378 C   0  0  0  0  0  0  0  0  0  0  0  0
   27.0396  -18.6694  -17.2977 C   0  0  0  0  0  0  0  0  0  0  0  0
   26.3912  -17.6291  -17.8685 C   0  0  0  0  0  0  0  0  0  0  0  0
   26.9345  -17.3372  -19.0792 N   0  0  0  0  0  0  0  0  0  0  0  0
   27.9277  -18.2034  -19.2575 C   0  0  0  0  0  0  0  0  0  0  0  0
   28.0125  -19.0075  -18.2124 N   0  0  0  0  0  0  0  0  0  0  0  0
   24.5971  -19.3872  -15.5330 C   0  0  0  0  0  0  0  0  0  0  0  0
   24.0690  -20.4621  -15.0626 O   0  0  0  0  0  0  0  0  0  0  0  0
   19.5556  -18.9359  -16.1375 N   0  0  0  0  0  0  0  0  0  0  0  0
   20.3908  -18.5383  -15.0545 C   0  0  0  0  0  0  0  0  0  0  0  0
   19.8309  -18.2259  -13.9747 O   0  0  0  0  0  0  0  0  0  0  0  0
   21.8494  -18.4850  -15.1569 C   0  0  0  0  0  0  0  0  0  0  0  0
   22.3752  -18.8305  -16.5351 C   0  0  2  0  0  0  0  0  0  0  0  0
   23.8387  -18.6841  -16.4706 N   0  0  0  0  0  0  0  0  0  0  0  0
   21.8349  -17.9368  -17.5682 C   0  0  0  0  0  0  0  0  0  0  0  0
   22.1336  -16.7277  -17.5584 O   0  0  0  0  0  0  0  0  0  0  0  0
   21.0006  -18.4208  -18.5481 O   0  0  0  0  0  0  0  0  0  0  0  0
  2  1  1  0
  3  2  1  0
  3  4  1  6
  5  6  1  1
  5  3  1  0
  7  5  1  0
  8  7  2  0
  9  7  1  0
 10  9  1  0
 11 12  1  0
 10 11  1  6
 12 16  1  0
 13 14  1  0
 13 12  2  0
 14 15  1  0
 15 16  2  0
 17 10  1  0
 17 18  2  0
 20 22  1  0
 20 19  1  0
 21 20  2  0
 23 22  1  1
 23 24  1  0
 24 17  1  0
 25 23  1  0
 26 25  2  0
 27 25  1  0
M  END
$$$$
