FPM.pdb
     RDKit          3D

 27 28  0  0  1  0  0  0  0  0999 V2000
    5.7902  -18.1969   24.6839 N   0  0  0  0  0  0  0  0  0  0  0  0
    6.3263  -16.8295   24.6850 C   0  0  1  0  0  0  0  0  0  0  0  0
    6.4242  -16.3196   26.1077 C   0  0  0  0  0  0  0  0  0  0  0  0
    6.5408  -14.8540   26.2003 C   0  0  0  0  0  0  0  0  0  0  0  0
    7.7650  -14.2694   26.4566 C   0  0  0  0  0  0  0  0  0  0  0  0
    7.9106  -12.8910   26.5465 C   0  0  0  0  0  0  0  0  0  0  0  0
    6.8220  -12.0872   26.3786 C   0  0  0  0  0  0  0  0  0  0  0  0
    5.5979  -12.6475   26.1234 C   0  0  0  0  0  0  0  0  0  0  0  0
    5.4634  -14.0020   26.0368 C   0  0  0  0  0  0  0  0  0  0  0  0
    7.5698  -16.7580   23.9242 C   0  0  0  0  0  0  0  0  0  0  0  0
    8.4833  -17.6113   24.2044 O   0  0  0  0  0  0  0  0  0  0  0  0
    7.8789  -15.8259   22.8851 N   0  0  0  0  0  0  0  0  0  0  0  0
    6.9378  -14.7971   22.4673 C   0  0  0  0  0  0  0  0  0  0  0  0
    7.4222  -14.3858   21.0799 C   0  0  0  0  0  0  0  0  0  0  0  0
    8.9352  -14.4346   21.3452 C   0  0  0  0  0  0  0  0  0  0  0  0
    9.0635  -15.7254   22.0973 C   0  0  1  0  0  0  0  0  0  0  0  0
   10.3032  -15.6436   22.9131 C   0  0  0  0  0  0  0  0  0  0  0  0
   11.2130  -14.8189   22.6990 O   0  0  0  0  0  0  0  0  0  0  0  0
   11.2304  -13.6355   28.6835 C   0  0  0  0  0  0  0  0  0  0  0  0
    9.6636  -14.2163   27.9872 S   0  0  0  0  0  0  0  0  0  0  0  0
    9.9496  -15.6361   26.8636 C   0  0  0  0  0  0  0  0  0  0  0  0
   11.0638  -15.3165   25.9294 C   0  0  0  0  0  0  0  0  0  0  0  0
   11.4890  -16.4094   25.0117 C   0  0  2  0  0  0  0  0  0  0  0  0
   10.4366  -16.5569   23.9820 N   0  0  0  0  0  0  0  0  0  0  0  0
   11.6111  -17.7035   25.6944 C   0  0  0  0  0  0  0  0  0  0  0  0
   12.5211  -17.8937   26.5274 O   0  0  0  0  0  0  0  0  0  0  0  0
   10.7267  -18.7230   25.4280 O   0  0  0  0  0  0  0  0  0  0  0  0
  2  1  1  1
  3  4  1  0
  3  2  1  0
  4  9  2  0
  5  6  2  0
  5  4  1  0
  6  7  1  0
  7  8  2  0
  9  8  1  0
 10  2  1  0
 10 11  2  0
 12 10  1  0
 13 12  1  0
 14 15  1  0
 14 13  1  0
 15 16  1  0
 16 12  1  0
 16 17  1  1
 18 17  2  0
 20 19  1  0
 21 20  1  0
 22 21  1  0
 23 22  1  1
 23 24  1  0
 24 17  1  0
 25 23  1  0
 26 25  2  0
 27 25  1  0
M  END
$$$$
