FPM.pdb
     RDKit          3D

 27 28  0  0  1  0  0  0  0  0999 V2000
    5.6744  -17.9218   24.9398 N   0  0  0  0  0  0  0  0  0  0  0  0
    6.2989  -16.5927   24.9138 C   0  0  1  0  0  0  0  0  0  0  0  0
    6.5092  -16.0985   26.3298 C   0  0  0  0  0  0  0  0  0  0  0  0
    6.9833  -14.7057   26.4022 C   0  0  0  0  0  0  0  0  0  0  0  0
    8.3360  -14.4305   26.3839 C   0  0  0  0  0  0  0  0  0  0  0  0
    8.8166  -13.1288   26.4467 C   0  0  0  0  0  0  0  0  0  0  0  0
    7.9369  -12.0902   26.5287 C   0  0  0  0  0  0  0  0  0  0  0  0
    6.5901  -12.3418   26.5483 C   0  0  0  0  0  0  0  0  0  0  0  0
    6.1265  -13.6230   26.4863 C   0  0  0  0  0  0  0  0  0  0  0  0
    7.5003  -16.5990   24.0850 C   0  0  0  0  0  0  0  0  0  0  0  0
    8.4516  -17.3847   24.4299 O   0  0  0  0  0  0  0  0  0  0  0  0
    7.7294  -15.8125   22.9132 N   0  0  0  0  0  0  0  0  0  0  0  0
    6.6499  -15.1159   22.2291 C   0  0  0  0  0  0  0  0  0  0  0  0
    7.2021  -14.8474   20.8320 C   0  0  0  0  0  0  0  0  0  0  0  0
    8.6469  -14.4992   21.2232 C   0  0  0  0  0  0  0  0  0  0  0  0
    8.9531  -15.5773   22.2193 C   0  0  1  0  0  0  0  0  0  0  0  0
   10.0379  -15.0730   23.1013 C   0  0  0  0  0  0  0  0  0  0  0  0
   10.1527  -13.8771   23.4336 O   0  0  0  0  0  0  0  0  0  0  0  0
    9.2157  -14.1357   28.0795 C   0  0  0  0  0  0  0  0  0  0  0  0
   10.5400  -15.2617   28.5847 S   0  0  0  0  0  0  0  0  0  0  0  0
   11.7509  -15.4768   27.2255 C   0  0  0  0  0  0  0  0  0  0  0  0
   11.0314  -15.5584   25.9247 C   0  0  0  0  0  0  0  0  0  0  0  0
   11.8793  -15.7174   24.7109 C   0  0  2  0  0  0  0  0  0  0  0  0
   10.9766  -16.0149   23.5767 N   0  0  0  0  0  0  0  0  0  0  0  0
   12.8188  -16.8401   24.8225 C   0  0  0  0  0  0  0  0  0  0  0  0
   12.5808  -17.9214   24.2462 O   0  0  0  0  0  0  0  0  0  0  0  0
   13.9730  -16.7177   25.5612 O   0  0  0  0  0  0  0  0  0  0  0  0
  2  1  1  1
  3  4  1  0
  3  2  1  0
  4  9  2  0
  5  6  2  0
  5  4  1  0
  6  7  1  0
  7  8  2  0
  9  8  1  0
 10  2  1  0
 10 11  2  0
 12 10  1  0
 13 12  1  0
 14 15  1  0
 14 13  1  0
 15 16  1  0
 16 12  1  0
 16 17  1  1
 18 17  2  0
 20 19  1  0
 21 20  1  0
 22 21  1  0
 23 22  1  1
 23 24  1  0
 24 17  1  0
 25 23  1  0
 26 25  2  0
 27 25  1  0
M  END
$$$$
