FPM.pdb
     RDKit          3D

 27 28  0  0  1  0  0  0  0  0999 V2000
    6.0353  -17.2111   25.5928 N   0  0  0  0  0  0  0  0  0  0  0  0
    6.7110  -16.0020   25.1042 C   0  0  1  0  0  0  0  0  0  0  0  0
    7.2098  -15.1852   26.2779 C   0  0  0  0  0  0  0  0  0  0  0  0
    6.6287  -13.8330   26.3425 C   0  0  0  0  0  0  0  0  0  0  0  0
    6.6145  -13.1393   27.5361 C   0  0  0  0  0  0  0  0  0  0  0  0
    6.0780  -11.8617   27.6309 C   0  0  0  0  0  0  0  0  0  0  0  0
    5.5499  -11.2698   26.5219 C   0  0  0  0  0  0  0  0  0  0  0  0
    5.5541  -11.9413   25.3275 C   0  0  0  0  0  0  0  0  0  0  0  0
    6.0828  -13.1958   25.2429 C   0  0  0  0  0  0  0  0  0  0  0  0
    7.7325  -16.3400   24.1179 C   0  0  0  0  0  0  0  0  0  0  0  0
    8.4849  -17.3462   24.3681 O   0  0  0  0  0  0  0  0  0  0  0  0
    7.9835  -15.6594   22.8860 N   0  0  0  0  0  0  0  0  0  0  0  0
    7.0694  -14.6566   22.3590 C   0  0  0  0  0  0  0  0  0  0  0  0
    7.4228  -14.5680   20.8771 C   0  0  0  0  0  0  0  0  0  0  0  0
    8.9496  -14.6915   21.0011 C   0  0  0  0  0  0  0  0  0  0  0  0
    9.0779  -15.8158   21.9848 C   0  0  1  0  0  0  0  0  0  0  0  0
   10.4028  -15.6807   22.6447 C   0  0  0  0  0  0  0  0  0  0  0  0
   11.1201  -14.6664   22.5433 O   0  0  0  0  0  0  0  0  0  0  0  0
    9.7375  -14.9948   28.9352 C   0  0  0  0  0  0  0  0  0  0  0  0
   10.9943  -14.6819   27.6705 S   0  0  0  0  0  0  0  0  0  0  0  0
   11.0154  -16.0394   26.4391 C   0  0  0  0  0  0  0  0  0  0  0  0
   11.8624  -15.6477   25.2791 C   0  0  0  0  0  0  0  0  0  0  0  0
   12.0833  -16.6924   24.2412 C   0  0  2  0  0  0  0  0  0  0  0  0
   10.8529  -16.7699   23.4228 N   0  0  0  0  0  0  0  0  0  0  0  0
   12.3034  -18.0240   24.8193 C   0  0  0  0  0  0  0  0  0  0  0  0
   11.4280  -18.9081   24.7177 O   0  0  0  0  0  0  0  0  0  0  0  0
   13.4744  -18.3172   25.4790 O   0  0  0  0  0  0  0  0  0  0  0  0
  2  1  1  1
  3  4  1  0
  3  2  1  0
  4  9  2  0
  5  6  2  0
  5  4  1  0
  6  7  1  0
  7  8  2  0
  9  8  1  0
 10  2  1  0
 10 11  2  0
 12 10  1  0
 13 12  1  0
 14 15  1  0
 14 13  1  0
 15 16  1  0
 16 12  1  0
 16 17  1  1
 18 17  2  0
 20 19  1  0
 21 20  1  0
 22 21  1  0
 23 22  1  1
 23 24  1  0
 24 17  1  0
 25 23  1  0
 26 25  2  0
 27 25  1  0
M  END
$$$$
