FPM.pdb
     RDKit          3D

 27 28  0  0  1  0  0  0  0  0999 V2000
    5.8822  -17.9859   24.9176 N   0  0  0  0  0  0  0  0  0  0  0  0
    6.4527  -16.6364   24.8147 C   0  0  1  0  0  0  0  0  0  0  0  0
    6.7270  -16.0900   26.2002 C   0  0  0  0  0  0  0  0  0  0  0  0
    7.0814  -14.6601   26.2088 C   0  0  0  0  0  0  0  0  0  0  0  0
    8.3617  -14.2597   25.8824 C   0  0  0  0  0  0  0  0  0  0  0  0
    8.7280  -12.9199   25.8769 C   0  0  0  0  0  0  0  0  0  0  0  0
    7.8058  -11.9692   26.2007 C   0  0  0  0  0  0  0  0  0  0  0  0
    6.5295  -12.3455   26.5277 C   0  0  0  0  0  0  0  0  0  0  0  0
    6.1780  -13.6633   26.5308 C   0  0  0  0  0  0  0  0  0  0  0  0
    7.6024  -16.6253   23.9156 C   0  0  0  0  0  0  0  0  0  0  0  0
    8.5826  -17.3992   24.2009 O   0  0  0  0  0  0  0  0  0  0  0  0
    7.7510  -15.8336   22.7345 N   0  0  0  0  0  0  0  0  0  0  0  0
    6.6318  -15.1166   22.1411 C   0  0  0  0  0  0  0  0  0  0  0  0
    7.0772  -14.8456   20.7069 C   0  0  0  0  0  0  0  0  0  0  0  0
    8.5531  -14.5209   20.9862 C   0  0  0  0  0  0  0  0  0  0  0  0
    8.9201  -15.6106   21.9486 C   0  0  1  0  0  0  0  0  0  0  0  0
   10.0778  -15.1284   22.7463 C   0  0  0  0  0  0  0  0  0  0  0  0
   10.3842  -13.9249   22.8534 O   0  0  0  0  0  0  0  0  0  0  0  0
   10.6651  -14.2994   29.8323 C   0  0  0  0  0  0  0  0  0  0  0  0
    9.9632  -14.7009   28.2127 S   0  0  0  0  0  0  0  0  0  0  0  0
   11.2902  -15.1689   27.0380 C   0  0  0  0  0  0  0  0  0  0  0  0
   10.7089  -15.3674   25.6819 C   0  0  0  0  0  0  0  0  0  0  0  0
   11.6586  -15.7773   24.6108 C   0  0  2  0  0  0  0  0  0  0  0  0
   10.8576  -16.1012   23.4095 N   0  0  0  0  0  0  0  0  0  0  0  0
   12.4188  -16.9831   24.9624 C   0  0  0  0  0  0  0  0  0  0  0  0
   11.8848  -18.1090   24.8891 O   0  0  0  0  0  0  0  0  0  0  0  0
   13.7277  -16.8911   25.3760 O   0  0  0  0  0  0  0  0  0  0  0  0
  2  1  1  1
  3  4  1  0
  3  2  1  0
  4  9  2  0
  5  6  2  0
  5  4  1  0
  6  7  1  0
  7  8  2  0
  9  8  1  0
 10  2  1  0
 10 11  2  0
 12 10  1  0
 13 12  1  0
 14 15  1  0
 14 13  1  0
 15 16  1  0
 16 12  1  0
 16 17  1  1
 18 17  2  0
 20 19  1  0
 21 20  1  0
 22 21  1  0
 23 22  1  1
 23 24  1  0
 24 17  1  0
 25 23  1  0
 26 25  2  0
 27 25  1  0
M  END
$$$$
