FPM.pdb
     RDKit          3D

 27 28  0  0  1  0  0  0  0  0999 V2000
    6.7317  -17.6136   25.7379 N   0  0  0  0  0  0  0  0  0  0  0  0
    6.4236  -16.9542   24.4622 C   0  0  1  0  0  0  0  0  0  0  0  0
    5.6962  -15.6516   24.7222 C   0  0  0  0  0  0  0  0  0  0  0  0
    6.4554  -14.7125   25.5660 C   0  0  0  0  0  0  0  0  0  0  0  0
    6.5881  -13.3911   25.1888 C   0  0  0  0  0  0  0  0  0  0  0  0
    7.2936  -12.4788   25.9629 C   0  0  0  0  0  0  0  0  0  0  0  0
    7.8733  -12.8903   27.1265 C   0  0  0  0  0  0  0  0  0  0  0  0
    7.7535  -14.1977   27.5188 C   0  0  0  0  0  0  0  0  0  0  0  0
    7.0590  -15.0872   26.7529 C   0  0  0  0  0  0  0  0  0  0  0  0
    7.6220  -16.8301   23.6384 C   0  0  0  0  0  0  0  0  0  0  0  0
    8.5498  -17.6963   23.8113 O   0  0  0  0  0  0  0  0  0  0  0  0
    7.8718  -15.8325   22.6451 N   0  0  0  0  0  0  0  0  0  0  0  0
    6.9047  -14.7881   22.3412 C   0  0  0  0  0  0  0  0  0  0  0  0
    7.3147  -14.2871   20.9592 C   0  0  0  0  0  0  0  0  0  0  0  0
    8.8395  -14.3390   21.1432 C   0  0  0  0  0  0  0  0  0  0  0  0
    9.0137  -15.6729   21.8056 C   0  0  1  0  0  0  0  0  0  0  0  0
   10.2933  -15.6310   22.5605 C   0  0  0  0  0  0  0  0  0  0  0  0
   11.3477  -15.1526   22.0988 O   0  0  0  0  0  0  0  0  0  0  0  0
   10.0180  -12.9280   28.5021 C   0  0  0  0  0  0  0  0  0  0  0  0
    9.2441  -14.3739   27.7358 S   0  0  0  0  0  0  0  0  0  0  0  0
    9.8826  -14.6157   26.0347 C   0  0  0  0  0  0  0  0  0  0  0  0
   11.0296  -15.5644   26.0625 C   0  0  0  0  0  0  0  0  0  0  0  0
   11.4810  -16.0921   24.7453 C   0  0  2  0  0  0  0  0  0  0  0  0
   10.2921  -16.1661   23.8674 N   0  0  0  0  0  0  0  0  0  0  0  0
   12.0337  -17.4490   24.8409 C   0  0  0  0  0  0  0  0  0  0  0  0
   11.4188  -18.4166   24.3473 O   0  0  0  0  0  0  0  0  0  0  0  0
   13.2346  -17.6740   25.4732 O   0  0  0  0  0  0  0  0  0  0  0  0
  2  1  1  1
  3  4  1  0
  3  2  1  0
  4  9  2  0
  5  6  2  0
  5  4  1  0
  6  7  1  0
  7  8  2  0
  9  8  1  0
 10  2  1  0
 10 11  2  0
 12 10  1  0
 13 12  1  0
 14 15  1  0
 14 13  1  0
 15 16  1  0
 16 12  1  0
 16 17  1  1
 18 17  2  0
 20 19  1  0
 21 20  1  0
 22 21  1  0
 23 22  1  1
 23 24  1  0
 24 17  1  0
 25 23  1  0
 26 25  2  0
 27 25  1  0
M  END
$$$$
