FPM.pdb
     RDKit          3D

 27 28  0  0  1  0  0  0  0  0999 V2000
    6.4078  -17.2044   25.7405 N   0  0  0  0  0  0  0  0  0  0  0  0
    6.3298  -16.6483   24.3833 C   0  0  1  0  0  0  0  0  0  0  0  0
    5.5484  -15.3512   24.4062 C   0  0  0  0  0  0  0  0  0  0  0  0
    6.1489  -14.3180   25.2676 C   0  0  0  0  0  0  0  0  0  0  0  0
    5.6050  -14.0445   26.5067 C   0  0  0  0  0  0  0  0  0  0  0  0
    6.1486  -13.0797   27.3451 C   0  0  0  0  0  0  0  0  0  0  0  0
    7.2475  -12.3802   26.9421 C   0  0  0  0  0  0  0  0  0  0  0  0
    7.8026  -12.6364   25.7159 C   0  0  0  0  0  0  0  0  0  0  0  0
    7.2627  -13.5854   24.8985 C   0  0  0  0  0  0  0  0  0  0  0  0
    7.6573  -16.5505   23.7846 C   0  0  0  0  0  0  0  0  0  0  0  0
    8.6253  -17.1230   24.3979 O   0  0  0  0  0  0  0  0  0  0  0  0
    7.9950  -15.8765   22.5698 N   0  0  0  0  0  0  0  0  0  0  0  0
    7.0042  -15.1475   21.7915 C   0  0  0  0  0  0  0  0  0  0  0  0
    7.6277  -15.0318   20.4035 C   0  0  0  0  0  0  0  0  0  0  0  0
    9.0817  -14.7746   20.8297 C   0  0  0  0  0  0  0  0  0  0  0  0
    9.2587  -15.7957   21.9135 C   0  0  1  0  0  0  0  0  0  0  0  0
   10.3495  -15.3167   22.8021 C   0  0  0  0  0  0  0  0  0  0  0  0
   10.6654  -14.1163   22.9158 O   0  0  0  0  0  0  0  0  0  0  0  0
   11.3802  -13.3333   29.5218 C   0  0  0  0  0  0  0  0  0  0  0  0
   10.5772  -13.8553   27.9857 S   0  0  0  0  0  0  0  0  0  0  0  0
   11.7359  -14.8367   26.9590 C   0  0  0  0  0  0  0  0  0  0  0  0
   11.1049  -15.1386   25.6448 C   0  0  0  0  0  0  0  0  0  0  0  0
   11.9272  -15.9239   24.6833 C   0  0  2  0  0  0  0  0  0  0  0  0
   11.0516  -16.2891   23.5477 N   0  0  0  0  0  0  0  0  0  0  0  0
   12.4299  -17.1759   25.2625 C   0  0  0  0  0  0  0  0  0  0  0  0
   13.4590  -17.1755   25.9688 O   0  0  0  0  0  0  0  0  0  0  0  0
   11.7759  -18.3651   25.0370 O   0  0  0  0  0  0  0  0  0  0  0  0
  2  1  1  1
  3  4  1  0
  3  2  1  0
  4  9  2  0
  5  6  2  0
  5  4  1  0
  6  7  1  0
  7  8  2  0
  9  8  1  0
 10  2  1  0
 10 11  2  0
 12 10  1  0
 13 12  1  0
 14 15  1  0
 14 13  1  0
 15 16  1  0
 16 12  1  0
 16 17  1  1
 18 17  2  0
 20 19  1  0
 21 20  1  0
 22 21  1  0
 23 22  1  1
 23 24  1  0
 24 17  1  0
 25 23  1  0
 26 25  2  0
 27 25  1  0
M  END
$$$$
