FPM.pdb
     RDKit          3D

 27 28  0  0  1  0  0  0  0  0999 V2000
    6.1402  -18.0951   25.5305 N   0  0  0  0  0  0  0  0  0  0  0  0
    6.0612  -16.9249   24.6465 C   0  0  1  0  0  0  0  0  0  0  0  0
    5.4315  -15.7647   25.3888 C   0  0  0  0  0  0  0  0  0  0  0  0
    6.4152  -14.8297   25.9615 C   0  0  0  0  0  0  0  0  0  0  0  0
    6.4729  -13.5237   25.5174 C   0  0  0  0  0  0  0  0  0  0  0  0
    7.3854  -12.6155   26.0387 C   0  0  0  0  0  0  0  0  0  0  0  0
    8.2500  -13.0154   27.0143 C   0  0  0  0  0  0  0  0  0  0  0  0
    8.2092  -14.3073   27.4690 C   0  0  0  0  0  0  0  0  0  0  0  0
    7.3101  -15.1930   26.9518 C   0  0  0  0  0  0  0  0  0  0  0  0
    7.3617  -16.6345   24.0509 C   0  0  0  0  0  0  0  0  0  0  0  0
    8.3852  -17.2177   24.5543 O   0  0  0  0  0  0  0  0  0  0  0  0
    7.6165  -15.7587   22.9499 N   0  0  0  0  0  0  0  0  0  0  0  0
    6.5495  -15.0242   22.2861 C   0  0  0  0  0  0  0  0  0  0  0  0
    7.1414  -14.6440   20.9318 C   0  0  0  0  0  0  0  0  0  0  0  0
    8.5684  -14.3105   21.3945 C   0  0  0  0  0  0  0  0  0  0  0  0
    8.8580  -15.4577   22.3156 C   0  0  1  0  0  0  0  0  0  0  0  0
    9.9077  -15.0099   23.2676 C   0  0  0  0  0  0  0  0  0  0  0  0
    9.8007  -13.9918   23.9788 O   0  0  0  0  0  0  0  0  0  0  0  0
   10.2970  -13.7514   27.9954 C   0  0  0  0  0  0  0  0  0  0  0  0
   11.5685  -14.9870   28.3607 S   0  0  0  0  0  0  0  0  0  0  0  0
   12.4731  -15.4456   26.8338 C   0  0  0  0  0  0  0  0  0  0  0  0
   11.5348  -15.4426   25.6781 C   0  0  0  0  0  0  0  0  0  0  0  0
   12.1549  -15.4884   24.3250 C   0  0  2  0  0  0  0  0  0  0  0  0
   11.0793  -15.7935   23.3556 N   0  0  0  0  0  0  0  0  0  0  0  0
   13.1623  -16.5494   24.2020 C   0  0  0  0  0  0  0  0  0  0  0  0
   14.3006  -16.3980   24.6914 O   0  0  0  0  0  0  0  0  0  0  0  0
   12.8678  -17.7235   23.5483 O   0  0  0  0  0  0  0  0  0  0  0  0
  2  1  1  1
  3  4  1  0
  3  2  1  0
  4  9  2  0
  5  6  2  0
  5  4  1  0
  6  7  1  0
  7  8  2  0
  9  8  1  0
 10  2  1  0
 10 11  2  0
 12 10  1  0
 13 12  1  0
 14 15  1  0
 14 13  1  0
 15 16  1  0
 16 12  1  0
 16 17  1  1
 18 17  2  0
 20 19  1  0
 21 20  1  0
 22 21  1  0
 23 22  1  1
 23 24  1  0
 24 17  1  0
 25 23  1  0
 26 25  2  0
 27 25  1  0
M  END
$$$$
