FPM.pdb
     RDKit          3D

 27 28  0  0  1  0  0  0  0  0999 V2000
    5.8736  -18.1291   24.9210 N   0  0  0  0  0  0  0  0  0  0  0  0
    6.3383  -16.7384   24.8354 C   0  0  1  0  0  0  0  0  0  0  0  0
    6.4705  -16.1567   26.2274 C   0  0  0  0  0  0  0  0  0  0  0  0
    6.6674  -14.6968   26.2383 C   0  0  0  0  0  0  0  0  0  0  0  0
    5.5962  -13.8529   26.4535 C   0  0  0  0  0  0  0  0  0  0  0  0
    5.7477  -12.4724   26.4739 C   0  0  0  0  0  0  0  0  0  0  0  0
    6.9823  -11.9281   26.2773 C   0  0  0  0  0  0  0  0  0  0  0  0
    8.0587  -12.7482   26.0620 C   0  0  0  0  0  0  0  0  0  0  0  0
    7.9014  -14.1029   26.0434 C   0  0  0  0  0  0  0  0  0  0  0  0
    7.5429  -16.6423   24.0169 C   0  0  0  0  0  0  0  0  0  0  0  0
    8.5412  -17.3739   24.3473 O   0  0  0  0  0  0  0  0  0  0  0  0
    7.7277  -15.8090   22.8699 N   0  0  0  0  0  0  0  0  0  0  0  0
    6.6263  -15.0744   22.2652 C   0  0  0  0  0  0  0  0  0  0  0  0
    7.1180  -14.7518   20.8571 C   0  0  0  0  0  0  0  0  0  0  0  0
    8.5827  -14.4336   21.1966 C   0  0  0  0  0  0  0  0  0  0  0  0
    8.9215  -15.5557   22.1317 C   0  0  1  0  0  0  0  0  0  0  0  0
   10.0503  -15.0990   22.9840 C   0  0  0  0  0  0  0  0  0  0  0  0
   10.1741  -13.9269   23.3894 O   0  0  0  0  0  0  0  0  0  0  0  0
   11.4972  -14.0849   29.3745 C   0  0  0  0  0  0  0  0  0  0  0  0
   11.0291  -14.2615   27.6348 S   0  0  0  0  0  0  0  0  0  0  0  0
   11.1543  -16.0141   27.1128 C   0  0  0  0  0  0  0  0  0  0  0  0
   10.6809  -16.1514   25.7080 C   0  0  0  0  0  0  0  0  0  0  0  0
   11.7176  -16.0216   24.6470 C   0  0  2  0  0  0  0  0  0  0  0  0
   11.0217  -16.0597   23.3416 N   0  0  0  0  0  0  0  0  0  0  0  0
   12.6780  -17.1321   24.6582 C   0  0  0  0  0  0  0  0  0  0  0  0
   13.7753  -17.0110   25.2405 O   0  0  0  0  0  0  0  0  0  0  0  0
   12.3837  -18.3199   24.0295 O   0  0  0  0  0  0  0  0  0  0  0  0
  2  1  1  1
  3  4  1  0
  3  2  1  0
  4  9  2  0
  5  6  2  0
  5  4  1  0
  6  7  1  0
  7  8  2  0
  9  8  1  0
 10  2  1  0
 10 11  2  0
 12 10  1  0
 13 12  1  0
 14 15  1  0
 14 13  1  0
 15 16  1  0
 16 12  1  0
 16 17  1  1
 18 17  2  0
 20 19  1  0
 21 20  1  0
 22 21  1  0
 23 22  1  1
 23 24  1  0
 24 17  1  0
 25 23  1  0
 26 25  2  0
 27 25  1  0
M  END
$$$$
