FPM.pdb
     RDKit          3D

 27 28  0  0  1  0  0  0  0  0999 V2000
    6.0030  -17.6248   25.2117 N   0  0  0  0  0  0  0  0  0  0  0  0
    6.6062  -16.3084   24.9662 C   0  0  1  0  0  0  0  0  0  0  0  0
    6.9867  -15.6662   26.2839 C   0  0  0  0  0  0  0  0  0  0  0  0
    6.5069  -14.2804   26.4229 C   0  0  0  0  0  0  0  0  0  0  0  0
    7.3703  -13.2841   26.8328 C   0  0  0  0  0  0  0  0  0  0  0  0
    6.9516  -11.9669   26.9704 C   0  0  0  0  0  0  0  0  0  0  0  0
    5.6565  -11.6406   26.6958 C   0  0  0  0  0  0  0  0  0  0  0  0
    4.7835  -12.6146   26.2876 C   0  0  0  0  0  0  0  0  0  0  0  0
    5.2026  -13.9057   26.1550 C   0  0  0  0  0  0  0  0  0  0  0  0
    7.6947  -16.4076   23.9989 C   0  0  0  0  0  0  0  0  0  0  0  0
    8.5023  -17.3948   24.1180 O   0  0  0  0  0  0  0  0  0  0  0  0
    7.9566  -15.5093   22.9179 N   0  0  0  0  0  0  0  0  0  0  0  0
    7.0492  -14.4217   22.5823 C   0  0  0  0  0  0  0  0  0  0  0  0
    7.4135  -14.0584   21.1456 C   0  0  0  0  0  0  0  0  0  0  0  0
    8.9390  -14.2094   21.2542 C   0  0  0  0  0  0  0  0  0  0  0  0
    9.0569  -15.4988   22.0105 C   0  0  1  0  0  0  0  0  0  0  0  0
   10.3774  -15.4953   22.6926 C   0  0  0  0  0  0  0  0  0  0  0  0
   11.1991  -14.5633   22.5933 O   0  0  0  0  0  0  0  0  0  0  0  0
   12.8934  -14.6842   28.9450 C   0  0  0  0  0  0  0  0  0  0  0  0
   11.8565  -14.2363   27.5304 S   0  0  0  0  0  0  0  0  0  0  0  0
   11.4888  -15.7154   26.5121 C   0  0  0  0  0  0  0  0  0  0  0  0
   12.0431  -15.5289   25.1430 C   0  0  0  0  0  0  0  0  0  0  0  0
   11.9718  -16.7081   24.2364 C   0  0  2  0  0  0  0  0  0  0  0  0
   10.6974  -16.6159   23.4902 N   0  0  0  0  0  0  0  0  0  0  0  0
   11.9544  -17.9812   24.9675 C   0  0  0  0  0  0  0  0  0  0  0  0
   12.9575  -18.3529   25.6108 O   0  0  0  0  0  0  0  0  0  0  0  0
   10.8354  -18.7813   24.9555 O   0  0  0  0  0  0  0  0  0  0  0  0
  2  1  1  1
  3  4  1  0
  3  2  1  0
  4  9  2  0
  5  6  2  0
  5  4  1  0
  6  7  1  0
  7  8  2  0
  9  8  1  0
 10  2  1  0
 10 11  2  0
 12 10  1  0
 13 12  1  0
 14 15  1  0
 14 13  1  0
 15 16  1  0
 16 12  1  0
 16 17  1  1
 18 17  2  0
 20 19  1  0
 21 20  1  0
 22 21  1  0
 23 22  1  1
 23 24  1  0
 24 17  1  0
 25 23  1  0
 26 25  2  0
 27 25  1  0
M  END
$$$$
