FPM.pdb
     RDKit          3D

 27 28  0  0  1  0  0  0  0  0999 V2000
    5.9408  -18.1390   24.8926 N   0  0  0  0  0  0  0  0  0  0  0  0
    6.3163  -16.7196   24.8572 C   0  0  1  0  0  0  0  0  0  0  0  0
    6.2693  -16.1430   26.2568 C   0  0  0  0  0  0  0  0  0  0  0  0
    6.2639  -14.6701   26.2861 C   0  0  0  0  0  0  0  0  0  0  0  0
    7.4369  -13.9753   26.5033 C   0  0  0  0  0  0  0  0  0  0  0  0
    7.4676  -12.5870   26.5332 C   0  0  0  0  0  0  0  0  0  0  0  0
    6.3144  -11.8844   26.3440 C   0  0  0  0  0  0  0  0  0  0  0  0
    5.1394  -12.5550   26.1269 C   0  0  0  0  0  0  0  0  0  0  0  0
    5.1178  -13.9184   26.0992 C   0  0  0  0  0  0  0  0  0  0  0  0
    7.5873  -16.5352   24.1637 C   0  0  0  0  0  0  0  0  0  0  0  0
    8.5739  -17.2628   24.5356 O   0  0  0  0  0  0  0  0  0  0  0  0
    7.8499  -15.6184   23.0985 N   0  0  0  0  0  0  0  0  0  0  0  0
    6.8125  -14.7584   22.5483 C   0  0  0  0  0  0  0  0  0  0  0  0
    7.3515  -14.3473   21.1811 C   0  0  0  0  0  0  0  0  0  0  0  0
    8.8277  -14.1628   21.5663 C   0  0  0  0  0  0  0  0  0  0  0  0
    9.0718  -15.3841   22.4013 C   0  0  1  0  0  0  0  0  0  0  0  0
   10.2128  -15.0842   23.3053 C   0  0  0  0  0  0  0  0  0  0  0  0
   10.3360  -14.0078   23.9217 O   0  0  0  0  0  0  0  0  0  0  0  0
   10.9487  -13.5527   27.9939 C   0  0  0  0  0  0  0  0  0  0  0  0
   12.6401  -14.1722   27.8142 S   0  0  0  0  0  0  0  0  0  0  0  0
   12.6439  -15.7748   26.9246 C   0  0  0  0  0  0  0  0  0  0  0  0
   11.7131  -15.7038   25.7648 C   0  0  0  0  0  0  0  0  0  0  0  0
   12.3118  -15.9453   24.4230 C   0  0  2  0  0  0  0  0  0  0  0  0
   11.1971  -16.0850   23.4599 N   0  0  0  0  0  0  0  0  0  0  0  0
   13.0898  -17.1893   24.3681 C   0  0  0  0  0  0  0  0  0  0  0  0
   12.5521  -18.2535   23.9989 O   0  0  0  0  0  0  0  0  0  0  0  0
   14.4194  -17.2008   24.7211 O   0  0  0  0  0  0  0  0  0  0  0  0
  2  1  1  1
  3  4  1  0
  3  2  1  0
  4  9  2  0
  5  6  2  0
  5  4  1  0
  6  7  1  0
  7  8  2  0
  9  8  1  0
 10  2  1  0
 10 11  2  0
 12 10  1  0
 13 12  1  0
 14 15  1  0
 14 13  1  0
 15 16  1  0
 16 12  1  0
 16 17  1  1
 18 17  2  0
 20 19  1  0
 21 20  1  0
 22 21  1  0
 23 22  1  1
 23 24  1  0
 24 17  1  0
 25 23  1  0
 26 25  2  0
 27 25  1  0
M  END
$$$$
