FPM.pdb
     RDKit          3D

 27 28  0  0  1  0  0  0  0  0999 V2000
    6.1497  -17.9601   25.2568 N   0  0  0  0  0  0  0  0  0  0  0  0
    6.5182  -16.5563   25.0314 C   0  0  1  0  0  0  0  0  0  0  0  0
    6.5471  -15.8166   26.3525 C   0  0  0  0  0  0  0  0  0  0  0  0
    6.4579  -14.3531   26.2091 C   0  0  0  0  0  0  0  0  0  0  0  0
    5.2313  -13.7226   26.2709 C   0  0  0  0  0  0  0  0  0  0  0  0
    5.1122  -12.3446   26.1434 C   0  0  0  0  0  0  0  0  0  0  0  0
    6.2301  -11.5876   25.9522 C   0  0  0  0  0  0  0  0  0  0  0  0
    7.4571  -12.1940   25.8880 C   0  0  0  0  0  0  0  0  0  0  0  0
    7.5654  -13.5477   26.0140 C   0  0  0  0  0  0  0  0  0  0  0  0
    7.7481  -16.4606   24.2513 C   0  0  0  0  0  0  0  0  0  0  0  0
    8.7702  -17.1035   24.6791 O   0  0  0  0  0  0  0  0  0  0  0  0
    7.9341  -15.7173   23.0442 N   0  0  0  0  0  0  0  0  0  0  0  0
    6.8841  -14.8777   22.4864 C   0  0  0  0  0  0  0  0  0  0  0  0
    7.2868  -14.6933   21.0260 C   0  0  0  0  0  0  0  0  0  0  0  0
    8.8038  -14.5507   21.2262 C   0  0  0  0  0  0  0  0  0  0  0  0
    9.0807  -15.6584   22.1981 C   0  0  1  0  0  0  0  0  0  0  0  0
   10.3280  -15.3093   22.9269 C   0  0  0  0  0  0  0  0  0  0  0  0
   10.7342  -14.1398   23.0720 O   0  0  0  0  0  0  0  0  0  0  0  0
   11.0433  -15.6289   29.6453 C   0  0  0  0  0  0  0  0  0  0  0  0
   11.2694  -14.7914   28.0565 S   0  0  0  0  0  0  0  0  0  0  0  0
   11.6548  -16.0079   26.7406 C   0  0  0  0  0  0  0  0  0  0  0  0
   11.8835  -15.2952   25.4537 C   0  0  0  0  0  0  0  0  0  0  0  0
   12.2867  -16.1391   24.2950 C   0  0  2  0  0  0  0  0  0  0  0  0
   11.0767  -16.3734   23.4761 N   0  0  0  0  0  0  0  0  0  0  0  0
   12.7936  -17.4547   24.7049 C   0  0  0  0  0  0  0  0  0  0  0  0
   13.8879  -17.5524   25.2973 O   0  0  0  0  0  0  0  0  0  0  0  0
   12.0719  -18.5965   24.4439 O   0  0  0  0  0  0  0  0  0  0  0  0
  2  1  1  1
  3  4  1  0
  3  2  1  0
  4  9  2  0
  5  6  2  0
  5  4  1  0
  6  7  1  0
  7  8  2  0
  9  8  1  0
 10  2  1  0
 10 11  2  0
 12 10  1  0
 13 12  1  0
 14 15  1  0
 14 13  1  0
 15 16  1  0
 16 12  1  0
 16 17  1  1
 18 17  2  0
 20 19  1  0
 21 20  1  0
 22 21  1  0
 23 22  1  1
 23 24  1  0
 24 17  1  0
 25 23  1  0
 26 25  2  0
 27 25  1  0
M  END
$$$$
