FPM.pdb
     RDKit          3D

 27 28  0  0  1  0  0  0  0  0999 V2000
    6.2306  -18.1900   24.9380 N   0  0  0  0  0  0  0  0  0  0  0  0
    6.5603  -16.7680   24.7752 C   0  0  1  0  0  0  0  0  0  0  0  0
    6.6064  -16.0951   26.1311 C   0  0  0  0  0  0  0  0  0  0  0  0
    6.6662  -14.6251   26.0563 C   0  0  0  0  0  0  0  0  0  0  0  0
    5.5198  -13.8739   26.2215 C   0  0  0  0  0  0  0  0  0  0  0  0
    5.5418  -12.4864   26.1608 C   0  0  0  0  0  0  0  0  0  0  0  0
    6.7214  -11.8416   25.9327 C   0  0  0  0  0  0  0  0  0  0  0  0
    7.8707  -12.5688   25.7661 C   0  0  0  0  0  0  0  0  0  0  0  0
    7.8405  -13.9310   25.8270 C   0  0  0  0  0  0  0  0  0  0  0  0
    7.7669  -16.6030   23.9707 C   0  0  0  0  0  0  0  0  0  0  0  0
    8.7999  -17.2805   24.3098 O   0  0  0  0  0  0  0  0  0  0  0  0
    7.9188  -15.7560   22.8290 N   0  0  0  0  0  0  0  0  0  0  0  0
    6.8178  -14.9587   22.3087 C   0  0  0  0  0  0  0  0  0  0  0  0
    7.2348  -14.6308   20.8778 C   0  0  0  0  0  0  0  0  0  0  0  0
    8.7314  -14.3880   21.1287 C   0  0  0  0  0  0  0  0  0  0  0  0
    9.0745  -15.5434   22.0207 C   0  0  1  0  0  0  0  0  0  0  0  0
   10.2752  -15.1573   22.8070 C   0  0  0  0  0  0  0  0  0  0  0  0
   10.6631  -13.9796   22.9341 O   0  0  0  0  0  0  0  0  0  0  0  0
   11.3107  -14.2397   29.8072 C   0  0  0  0  0  0  0  0  0  0  0  0
   10.4993  -14.5404   28.2172 S   0  0  0  0  0  0  0  0  0  0  0  0
   11.6752  -15.2951   27.0308 C   0  0  0  0  0  0  0  0  0  0  0  0
   11.0347  -15.3984   25.6909 C   0  0  0  0  0  0  0  0  0  0  0  0
   11.8832  -15.9419   24.5945 C   0  0  2  0  0  0  0  0  0  0  0  0
   10.9993  -16.1945   23.4349 N   0  0  0  0  0  0  0  0  0  0  0  0
   12.5098  -17.2218   24.9480 C   0  0  0  0  0  0  0  0  0  0  0  0
   13.4657  -17.2557   25.7500 O   0  0  0  0  0  0  0  0  0  0  0  0
   12.0539  -18.3999   24.4031 O   0  0  0  0  0  0  0  0  0  0  0  0
  2  1  1  1
  3  4  1  0
  3  2  1  0
  4  9  2  0
  5  6  2  0
  5  4  1  0
  6  7  1  0
  7  8  2  0
  9  8  1  0
 10  2  1  0
 10 11  2  0
 12 10  1  0
 13 12  1  0
 14 15  1  0
 14 13  1  0
 15 16  1  0
 16 12  1  0
 16 17  1  1
 18 17  2  0
 20 19  1  0
 21 20  1  0
 22 21  1  0
 23 22  1  1
 23 24  1  0
 24 17  1  0
 25 23  1  0
 26 25  2  0
 27 25  1  0
M  END
$$$$
