FPM.pdb
     RDKit          3D

 27 28  0  0  1  0  0  0  0  0999 V2000
    6.3400  -17.0699   21.6939 N   0  0  0  0  0  0  0  0  0  0  0  0
    7.5532  -16.3434   22.0911 C   0  0  1  0  0  0  0  0  0  0  0  0
    7.2337  -14.8740   22.2709 C   0  0  0  0  0  0  0  0  0  0  0  0
    7.4927  -14.0644   21.0677 C   0  0  0  0  0  0  0  0  0  0  0  0
    8.7878  -13.7492   20.7081 C   0  0  0  0  0  0  0  0  0  0  0  0
    9.0673  -12.9914   19.5781 C   0  0  0  0  0  0  0  0  0  0  0  0
    8.0424  -12.5432   18.7984 C   0  0  0  0  0  0  0  0  0  0  0  0
    6.7497  -12.8450   19.1378 C   0  0  0  0  0  0  0  0  0  0  0  0
    6.4838  -13.5897   20.2491 C   0  0  0  0  0  0  0  0  0  0  0  0
    8.1838  -16.9765   23.2451 C   0  0  0  0  0  0  0  0  0  0  0  0
    7.4945  -17.0622   24.3215 O   0  0  0  0  0  0  0  0  0  0  0  0
    9.5052  -17.5195   23.3010 N   0  0  0  0  0  0  0  0  0  0  0  0
   10.1599  -18.0767   22.1265 C   0  0  0  0  0  0  0  0  0  0  0  0
   11.2686  -18.9568   22.6965 C   0  0  0  0  0  0  0  0  0  0  0  0
   11.7035  -18.0487   23.8575 C   0  0  0  0  0  0  0  0  0  0  0  0
   10.3782  -17.6339   24.4230 C   0  0  1  0  0  0  0  0  0  0  0  0
   10.5828  -16.3473   25.1384 C   0  0  0  0  0  0  0  0  0  0  0  0
   11.3838  -15.4707   24.7595 O   0  0  0  0  0  0  0  0  0  0  0  0
    7.0448  -11.6832   25.5136 C   0  0  0  0  0  0  0  0  0  0  0  0
    6.9839  -12.0264   27.2900 S   0  0  0  0  0  0  0  0  0  0  0  0
    8.4853  -12.9356   27.8182 C   0  0  0  0  0  0  0  0  0  0  0  0
    8.6152  -14.1883   27.0242 C   0  0  0  0  0  0  0  0  0  0  0  0
    9.9329  -14.8784   27.0921 C   0  0  2  0  0  0  0  0  0  0  0  0
    9.8193  -16.1269   26.3059 N   0  0  0  0  0  0  0  0  0  0  0  0
   10.2993  -15.2610   28.4614 C   0  0  0  0  0  0  0  0  0  0  0  0
   10.6977  -14.3991   29.2717 O   0  0  0  0  0  0  0  0  0  0  0  0
   10.2087  -16.5710   28.8715 O   0  0  0  0  0  0  0  0  0  0  0  0
  2  1  1  1
  3  4  1  0
  3  2  1  0
  4  9  2  0
  5  6  2  0
  5  4  1  0
  6  7  1  0
  7  8  2  0
  9  8  1  0
 10  2  1  0
 10 11  2  0
 12 10  1  0
 13 12  1  0
 14 15  1  0
 14 13  1  0
 15 16  1  0
 16 12  1  0
 16 17  1  6
 18 17  2  0
 20 19  1  0
 21 20  1  0
 22 21  1  0
 23 22  1  1
 23 24  1  0
 24 17  1  0
 25 23  1  0
 26 25  2  0
 27 25  1  0
M  END
$$$$
