ERP.pdb
     RDKit          3D

 28 28  0  0  1  0  0  0  0  0999 V2000
   20.1876  -21.3764  -13.7030 N   0  0  0  0  0  0  0  0  0  0  0  0
   20.6806  -21.1120  -14.9951 C   0  0  1  0  0  0  0  0  0  0  0  0
   19.8459  -20.2916  -15.9110 C   0  0  0  0  0  0  0  0  0  0  0  0
   18.5756  -19.7430  -15.3884 C   0  0  0  0  0  0  0  0  0  0  0  0
   18.6043  -18.4069  -14.8115 C   0  0  0  0  0  0  0  0  0  0  0  0
   17.6384  -17.8921  -14.2358 O   0  0  0  0  0  0  0  0  0  0  0  0
   22.0718  -20.5767  -15.0594 C   0  0  0  0  0  0  0  0  0  0  0  0
   22.4313  -19.9001  -14.0669 O   0  0  0  0  0  0  0  0  0  0  0  0
   19.7722  -17.6626  -14.9065 O   0  0  0  0  0  0  0  0  0  0  0  0
   29.2340  -24.5019  -17.9943 N   0  0  0  0  0  0  0  0  0  0  0  0
   28.2749  -24.6777  -16.9699 C   0  0  0  0  0  0  0  0  0  0  0  0
   28.1116  -25.8123  -16.3758 N   0  0  0  0  0  0  0  0  0  0  0  0
   27.4794  -23.5696  -16.5961 N   0  0  0  0  0  0  0  0  0  0  0  0
   27.5046  -22.2937  -17.3060 C   0  0  0  0  0  0  0  0  0  0  0  0
   26.6255  -21.2978  -16.5928 C   0  0  0  0  0  0  0  0  0  0  0  0
   25.1684  -21.5595  -16.7027 C   0  0  0  0  0  0  0  0  0  0  0  0
   24.3749  -20.4204  -16.0832 C   0  0  2  0  0  0  0  0  0  0  0  0
   22.9790  -20.7701  -16.1193 N   0  0  0  0  0  0  0  0  0  0  0  0
   24.6774  -19.1437  -16.7313 C   0  0  0  0  0  0  0  0  0  0  0  0
   24.1050  -18.9692  -17.8713 O   0  0  0  0  0  0  0  0  0  0  0  0
   27.3820  -25.9241  -15.6449 N   0  0  0  0  0  0  0  0  0  0  0  0
   25.5036  -18.1104  -16.2572 C   0  0  0  0  0  0  0  0  0  0  0  0
   26.3050  -18.0675  -15.0564 C   0  0  0  0  0  0  0  0  0  0  0  0
   27.2255  -16.8450  -15.1986 C   0  0  0  0  0  0  0  0  0  0  0  0
   26.3188  -15.9208  -15.9912 C   0  0  1  0  0  0  0  0  0  0  0  0
   25.6600  -16.8412  -16.9861 C   0  0  0  0  0  0  0  0  0  0  0  0
   26.5283  -17.0321  -18.1649 O   0  0  0  0  0  0  0  0  0  0  0  0
   27.1644  -18.1031  -18.3121 O   0  0  0  0  0  0  0  0  0  0  0  0
  2  3  1  0
  2  1  1  1
  4  3  1  0
  5  9  1  0
  5  4  1  0
  6  5  2  0
  7  8  2  0
  7  2  1  0
 11 10  1  0
 11 12  2  0
 13 14  1  0
 13 11  1  0
 15 16  1  0
 15 14  1  0
 17 16  1  6
 17 18  1  0
 18  7  1  0
 19 17  1  0
 20 19  2  0
 21 19  1  0
 22 21  1  0
 23 24  1  0
 23 22  1  0
 24 25  1  0
 25 21  1  0
 26 28  1  0
 25 26  1  6
 27 26  2  0
M  END
$$$$
