ERP.pdb
     RDKit          3D

 28 28  0  0  1  0  0  0  0  0999 V2000
   19.0675  -12.9389  -15.9385 N   0  0  0  0  0  0  0  0  0  0  0  0
   20.1507  -12.1836  -16.4272 C   0  0  1  0  0  0  0  0  0  0  0  0
   20.7423  -12.5688  -17.7350 C   0  0  0  0  0  0  0  0  0  0  0  0
   20.8695  -14.0101  -18.0418 C   0  0  0  0  0  0  0  0  0  0  0  0
   22.0630  -14.4458  -18.7523 C   0  0  0  0  0  0  0  0  0  0  0  0
   22.9895  -13.6860  -19.0584 O   0  0  0  0  0  0  0  0  0  0  0  0
   19.9520  -10.7050  -16.4456 C   0  0  0  0  0  0  0  0  0  0  0  0
   20.1978  -10.1455  -17.5405 O   0  0  0  0  0  0  0  0  0  0  0  0
   22.1777  -15.7821  -19.1097 O   0  0  0  0  0  0  0  0  0  0  0  0
   12.7778   -8.2209  -13.8080 N   0  0  0  0  0  0  0  0  0  0  0  0
   13.0776   -8.7838  -15.0702 C   0  0  0  0  0  0  0  0  0  0  0  0
   12.1558   -9.2440  -15.8482 N   0  0  0  0  0  0  0  0  0  0  0  0
   14.4308   -8.8369  -15.4786 N   0  0  0  0  0  0  0  0  0  0  0  0
   15.5385   -8.4141  -14.6261 C   0  0  0  0  0  0  0  0  0  0  0  0
   16.8480   -8.6832  -15.3235 C   0  0  0  0  0  0  0  0  0  0  0  0
   18.0495   -8.1786  -14.6127 C   0  0  0  0  0  0  0  0  0  0  0  0
   19.3083   -8.4967  -15.4034 C   0  0  2  0  0  0  0  0  0  0  0  0
   19.5231   -9.9193  -15.3581 N   0  0  0  0  0  0  0  0  0  0  0  0
   20.4503   -7.7149  -14.9277 C   0  0  0  0  0  0  0  0  0  0  0  0
   20.9850   -8.1494  -13.8401 O   0  0  0  0  0  0  0  0  0  0  0  0
   12.3994   -9.6387  -16.7777 N   0  0  0  0  0  0  0  0  0  0  0  0
   21.0155   -6.5695  -15.5142 C   0  0  0  0  0  0  0  0  0  0  0  0
   20.6631   -5.9160  -16.7530 C   0  0  0  0  0  0  0  0  0  0  0  0
   21.3864   -4.5600  -16.7434 C   0  0  0  0  0  0  0  0  0  0  0  0
   22.6409   -4.9338  -15.9746 C   0  0  1  0  0  0  0  0  0  0  0  0
   22.1298   -5.8415  -14.8857 C   0  0  0  0  0  0  0  0  0  0  0  0
   21.6410   -5.0479  -13.7406 O   0  0  0  0  0  0  0  0  0  0  0  0
   22.4558   -4.4988  -12.9609 O   0  0  0  0  0  0  0  0  0  0  0  0
  2  3  1  0
  2  1  1  6
  4  3  1  0
  5  9  1  0
  5  4  1  0
  6  5  2  0
  7  8  2  0
  7  2  1  0
 11 10  1  0
 11 12  2  0
 13 14  1  0
 13 11  1  0
 15 16  1  0
 15 14  1  0
 17 16  1  1
 17 18  1  0
 18  7  1  0
 19 17  1  0
 20 19  2  0
 21 19  1  0
 22 21  1  0
 23 24  1  0
 23 22  1  0
 24 25  1  0
 25 21  1  0
 26 28  1  0
 25 26  1  1
 27 26  2  0
M  END
$$$$
