ERP.pdb
     RDKit          3D

 28 28  0  0  1  0  0  0  0  0999 V2000
   19.5658  -21.1591  -17.8951 N   0  0  0  0  0  0  0  0  0  0  0  0
   20.8780  -21.6563  -18.0105 C   0  0  1  0  0  0  0  0  0  0  0  0
   21.2699  -22.3154  -19.2835 C   0  0  0  0  0  0  0  0  0  0  0  0
   20.7118  -21.7786  -20.5437 C   0  0  0  0  0  0  0  0  0  0  0  0
   21.3834  -22.1355  -21.7850 C   0  0  0  0  0  0  0  0  0  0  0  0
   22.1914  -21.3964  -22.3597 O   0  0  0  0  0  0  0  0  0  0  0  0
   21.9657  -20.7009  -17.6496 C   0  0  0  0  0  0  0  0  0  0  0  0
   22.1792  -19.7920  -18.4865 O   0  0  0  0  0  0  0  0  0  0  0  0
   21.1101  -23.3677  -22.3626 O   0  0  0  0  0  0  0  0  0  0  0  0
   23.5572  -20.9094   -9.8445 N   0  0  0  0  0  0  0  0  0  0  0  0
   24.7926  -21.1099  -10.5030 C   0  0  0  0  0  0  0  0  0  0  0  0
   25.7760  -21.7248   -9.9357 N   0  0  0  0  0  0  0  0  0  0  0  0
   24.9401  -20.6174  -11.8207 N   0  0  0  0  0  0  0  0  0  0  0  0
   24.0316  -19.6397  -12.4132 C   0  0  0  0  0  0  0  0  0  0  0  0
   23.5107  -20.1616  -13.7284 C   0  0  0  0  0  0  0  0  0  0  0  0
   23.4807  -19.1651  -14.8282 C   0  0  0  0  0  0  0  0  0  0  0  0
   23.8062  -19.8286  -16.1566 C   0  0  2  0  0  0  0  0  0  0  0  0
   22.7435  -20.7456  -16.4762 N   0  0  0  0  0  0  0  0  0  0  0  0
   25.1309  -20.4501  -16.1335 C   0  0  0  0  0  0  0  0  0  0  0  0
   25.1491  -21.6639  -15.7045 O   0  0  0  0  0  0  0  0  0  0  0  0
   26.6928  -21.8088  -10.4170 N   0  0  0  0  0  0  0  0  0  0  0  0
   26.3568  -19.8819  -16.5201 C   0  0  0  0  0  0  0  0  0  0  0  0
   26.6411  -18.5247  -16.9240 C   0  0  0  0  0  0  0  0  0  0  0  0
   28.1722  -18.3920  -16.9341 C   0  0  0  0  0  0  0  0  0  0  0  0
   28.5581  -19.8020  -17.3432 C   0  0  2  0  0  0  0  0  0  0  0  0
   27.5998  -20.6689  -16.5678 C   0  0  0  0  0  0  0  0  0  0  0  0
   28.1083  -20.9051  -15.2020 O   0  0  0  0  0  0  0  0  0  0  0  0
   27.6071  -20.2933  -14.2284 O   0  0  0  0  0  0  0  0  0  0  0  0
  2  3  1  0
  2  1  1  6
  4  3  1  0
  5  9  1  0
  5  4  1  0
  6  5  2  0
  7  8  2  0
  7  2  1  0
 11 10  1  0
 11 12  2  0
 13 14  1  0
 13 11  1  0
 15 16  1  0
 15 14  1  0
 17 16  1  1
 17 18  1  0
 18  7  1  0
 19 17  1  0
 20 19  2  0
 21 19  1  0
 22 21  1  0
 23 24  1  0
 23 22  1  0
 24 25  1  0
 25 21  1  0
 26 28  1  0
 25 26  1  1
 27 26  2  0
M  END
$$$$
