ERP.pdb
     RDKit          3D

 28 28  0  0  1  0  0  0  0  0999 V2000
   17.3183  -20.3953    4.3186 N   0  0  0  0  0  0  0  0  0  0  0  0
   17.3104  -20.0353    5.6798 C   0  0  1  0  0  0  0  0  0  0  0  0
   17.1468  -21.1128    6.6902 C   0  0  0  0  0  0  0  0  0  0  0  0
   15.8328  -21.2465    7.3560 C   0  0  0  0  0  0  0  0  0  0  0  0
   15.5873  -20.4280    8.5346 C   0  0  0  0  0  0  0  0  0  0  0  0
   14.5546  -19.7686    8.7034 O   0  0  0  0  0  0  0  0  0  0  0  0
   18.4423  -19.1723    6.1271 C   0  0  0  0  0  0  0  0  0  0  0  0
   19.5758  -19.5241    5.7227 O   0  0  0  0  0  0  0  0  0  0  0  0
   16.5561  -20.3777    9.5273 O   0  0  0  0  0  0  0  0  0  0  0  0
   19.8439  -10.6827    6.3604 N   0  0  0  0  0  0  0  0  0  0  0  0
   18.9740  -11.7400    6.0061 C   0  0  0  0  0  0  0  0  0  0  0  0
   17.8802  -11.5333    5.3522 N   0  0  0  0  0  0  0  0  0  0  0  0
   19.3260  -13.0563    6.3858 N   0  0  0  0  0  0  0  0  0  0  0  0
   19.8039  -13.4003    7.7221 C   0  0  0  0  0  0  0  0  0  0  0  0
   20.1045  -14.8763    7.7901 C   0  0  0  0  0  0  0  0  0  0  0  0
   19.0318  -15.7571    7.2638 C   0  0  0  0  0  0  0  0  0  0  0  0
   19.4388  -17.2174    7.3770 C   0  0  2  0  0  0  0  0  0  0  0  0
   18.3324  -18.0299    6.9436 N   0  0  0  0  0  0  0  0  0  0  0  0
   19.9104  -17.5380    8.7247 C   0  0  0  0  0  0  0  0  0  0  0  0
   18.9771  -17.7309    9.5904 O   0  0  0  0  0  0  0  0  0  0  0  0
   17.2593  -12.3270    5.0998 N   0  0  0  0  0  0  0  0  0  0  0  0
   21.2388  -17.6571    9.1679 C   0  0  0  0  0  0  0  0  0  0  0  0
   22.4636  -17.4444    8.4326 C   0  0  0  0  0  0  0  0  0  0  0  0
   23.5907  -17.4128    9.4769 C   0  0  0  0  0  0  0  0  0  0  0  0
   23.0348  -18.3899   10.4971 C   0  0  1  0  0  0  0  0  0  0  0  0
   21.5676  -18.0500   10.5478 C   0  0  0  0  0  0  0  0  0  0  0  0
   21.3316  -16.9220   11.4707 O   0  0  0  0  0  0  0  0  0  0  0  0
   21.0659  -15.7827   11.0184 O   0  0  0  0  0  0  0  0  0  0  0  0
  2  3  1  0
  2  1  1  6
  4  3  1  0
  5  9  1  0
  5  4  1  0
  6  5  2  0
  7  8  2  0
  7  2  1  0
 11 10  1  0
 11 12  2  0
 13 14  1  0
 13 11  1  0
 15 16  1  0
 15 14  1  0
 17 16  1  1
 17 18  1  0
 18  7  1  0
 19 17  1  0
 20 19  2  0
 21 19  1  0
 22 21  1  0
 23 24  1  0
 23 22  1  0
 24 25  1  0
 25 21  1  0
 26 28  1  0
 25 26  1  1
 27 26  2  0
M  END
$$$$
