ERP.pdb
     RDKit          3D

 28 28  0  0  1  0  0  0  0  0999 V2000
   17.9891  -24.4435  -10.2707 N   0  0  0  0  0  0  0  0  0  0  0  0
   17.6607  -23.8581  -11.5084 C   0  0  1  0  0  0  0  0  0  0  0  0
   16.2601  -23.4105  -11.7240 C   0  0  0  0  0  0  0  0  0  0  0  0
   15.1748  -24.3874  -11.4877 C   0  0  0  0  0  0  0  0  0  0  0  0
   14.7389  -24.5922  -10.1140 C   0  0  0  0  0  0  0  0  0  0  0  0
   14.3841  -23.6724   -9.3672 O   0  0  0  0  0  0  0  0  0  0  0  0
   18.5565  -22.7535  -11.9594 C   0  0  0  0  0  0  0  0  0  0  0  0
   18.6934  -21.8094  -11.1457 O   0  0  0  0  0  0  0  0  0  0  0  0
   14.7161  -25.8834   -9.6053 O   0  0  0  0  0  0  0  0  0  0  0  0
   25.3896  -24.4620  -14.1780 N   0  0  0  0  0  0  0  0  0  0  0  0
   24.6121  -23.8362  -15.1799 C   0  0  0  0  0  0  0  0  0  0  0  0
   24.1399  -24.4928  -16.1863 N   0  0  0  0  0  0  0  0  0  0  0  0
   24.3524  -22.4508  -15.0624 N   0  0  0  0  0  0  0  0  0  0  0  0
   23.2983  -21.7705  -15.8097 C   0  0  0  0  0  0  0  0  0  0  0  0
   22.2383  -21.2765  -14.8579 C   0  0  0  0  0  0  0  0  0  0  0  0
   21.2167  -22.2858  -14.4821 C   0  0  0  0  0  0  0  0  0  0  0  0
   20.1666  -21.6674  -13.5734 C   0  0  2  0  0  0  0  0  0  0  0  0
   19.2359  -22.6971  -13.1920 N   0  0  0  0  0  0  0  0  0  0  0  0
   19.5335  -20.5066  -14.2006 C   0  0  0  0  0  0  0  0  0  0  0  0
   18.7644  -20.7842  -15.1951 O   0  0  0  0  0  0  0  0  0  0  0  0
   23.6378  -23.9980  -16.9493 N   0  0  0  0  0  0  0  0  0  0  0  0
   19.6682  -19.1537  -13.8446 C   0  0  0  0  0  0  0  0  0  0  0  0
   20.5165  -18.5601  -12.8376 C   0  0  0  0  0  0  0  0  0  0  0  0
   20.4866  -17.0445  -13.0908 C   0  0  0  0  0  0  0  0  0  0  0  0
   19.0705  -16.8910  -13.6158 C   0  0  2  0  0  0  0  0  0  0  0  0
   18.8929  -18.0926  -14.5077 C   0  0  0  0  0  0  0  0  0  0  0  0
   19.4413  -17.8223  -15.8516 O   0  0  0  0  0  0  0  0  0  0  0  0
   20.5045  -18.3756  -16.2213 O   0  0  0  0  0  0  0  0  0  0  0  0
  2  3  1  0
  2  1  1  1
  4  3  1  0
  5  9  1  0
  5  4  1  0
  6  5  2  0
  7  8  2  0
  7  2  1  0
 11 10  1  0
 11 12  2  0
 13 14  1  0
 13 11  1  0
 15 16  1  0
 15 14  1  0
 17 16  1  6
 17 18  1  0
 18  7  1  0
 19 17  1  0
 20 19  2  0
 21 19  1  0
 22 21  1  0
 23 24  1  0
 23 22  1  0
 24 25  1  0
 25 21  1  0
 26 28  1  0
 25 26  1  6
 27 26  2  0
M  END
$$$$
