ERP.pdb
     RDKit          3D

 28 28  0  0  1  0  0  0  0  0999 V2000
   18.3270  -15.9636  -19.2872 N   0  0  0  0  0  0  0  0  0  0  0  0
   18.6586  -15.3508  -18.0636 C   0  0  1  0  0  0  0  0  0  0  0  0
   19.1329  -16.2147  -16.9513 C   0  0  0  0  0  0  0  0  0  0  0  0
   20.2052  -17.1918  -17.2399 C   0  0  0  0  0  0  0  0  0  0  0  0
   20.5916  -18.1040  -16.1732 C   0  0  0  0  0  0  0  0  0  0  0  0
   21.4308  -19.0014  -16.3145 O   0  0  0  0  0  0  0  0  0  0  0  0
   19.5895  -14.1883  -18.1539 C   0  0  0  0  0  0  0  0  0  0  0  0
   20.2944  -14.1463  -19.1899 O   0  0  0  0  0  0  0  0  0  0  0  0
   19.9933  -17.9684  -14.9281 O   0  0  0  0  0  0  0  0  0  0  0  0
   20.9073   -6.5436  -13.3945 N   0  0  0  0  0  0  0  0  0  0  0  0
   21.3939   -6.3801  -14.7123 C   0  0  0  0  0  0  0  0  0  0  0  0
   21.8295   -5.2434  -15.1424 N   0  0  0  0  0  0  0  0  0  0  0  0
   21.3974   -7.5032  -15.5721 N   0  0  0  0  0  0  0  0  0  0  0  0
   20.6773   -8.7381  -15.2743 C   0  0  0  0  0  0  0  0  0  0  0  0
   20.8835   -9.7290  -16.3920 C   0  0  0  0  0  0  0  0  0  0  0  0
   20.1515  -11.0107  -16.2335 C   0  0  0  0  0  0  0  0  0  0  0  0
   20.4781  -11.9551  -17.3790 C   0  0  2  0  0  0  0  0  0  0  0  0
   19.7286  -13.1697  -17.1911 N   0  0  0  0  0  0  0  0  0  0  0  0
   21.9208  -12.1684  -17.5014 C   0  0  0  0  0  0  0  0  0  0  0  0
   22.4273  -12.9492  -16.6119 O   0  0  0  0  0  0  0  0  0  0  0  0
   22.2270   -5.1591  -16.0985 N   0  0  0  0  0  0  0  0  0  0  0  0
   22.7938  -11.6285  -18.4614 C   0  0  0  0  0  0  0  0  0  0  0  0
   22.5093  -10.6891  -19.5208 C   0  0  0  0  0  0  0  0  0  0  0  0
   23.8718  -10.2214  -20.0566 C   0  0  0  0  0  0  0  0  0  0  0  0
   24.6865  -11.4854  -19.8494 C   0  0  2  0  0  0  0  0  0  0  0  0
   24.2200  -11.9897  -18.5082 C   0  0  0  0  0  0  0  0  0  0  0  0
   24.9546  -11.3146  -17.4199 O   0  0  0  0  0  0  0  0  0  0  0  0
   26.1672  -11.5696  -17.2253 O   0  0  0  0  0  0  0  0  0  0  0  0
  2  3  1  0
  2  1  1  6
  4  3  1  0
  5  9  1  0
  5  4  1  0
  6  5  2  0
  7  8  2  0
  7  2  1  0
 11 10  1  0
 11 12  2  0
 13 14  1  0
 13 11  1  0
 15 16  1  0
 15 14  1  0
 17 16  1  1
 17 18  1  0
 18  7  1  0
 19 17  1  0
 20 19  2  0
 21 19  1  0
 22 21  1  0
 23 24  1  0
 23 22  1  0
 24 25  1  0
 25 21  1  0
 26 28  1  0
 25 26  1  6
 27 26  2  0
M  END
$$$$
