ERP.pdb
     RDKit          3D

 28 28  0  0  1  0  0  0  0  0999 V2000
   28.7056  -22.8231  -17.7667 N   0  0  0  0  0  0  0  0  0  0  0  0
   28.4985  -21.7335  -16.8992 C   0  0  1  0  0  0  0  0  0  0  0  0
   28.6275  -20.3605  -17.4530 C   0  0  0  0  0  0  0  0  0  0  0  0
   28.1510  -20.1207  -18.8325 C   0  0  0  0  0  0  0  0  0  0  0  0
   27.0169  -19.2251  -19.0084 C   0  0  0  0  0  0  0  0  0  0  0  0
   25.8590  -19.6194  -19.1915 O   0  0  0  0  0  0  0  0  0  0  0  0
   27.2407  -21.7750  -16.0978 C   0  0  0  0  0  0  0  0  0  0  0  0
   26.2814  -22.3752  -16.6379 O   0  0  0  0  0  0  0  0  0  0  0  0
   27.2349  -17.8548  -18.9705 O   0  0  0  0  0  0  0  0  0  0  0  0
   25.2265  -20.8062   -7.3604 N   0  0  0  0  0  0  0  0  0  0  0  0
   24.0343  -21.0975   -8.0631 C   0  0  0  0  0  0  0  0  0  0  0  0
   22.9076  -21.2643   -7.4552 N   0  0  0  0  0  0  0  0  0  0  0  0
   24.0935  -21.2059   -9.4722 N   0  0  0  0  0  0  0  0  0  0  0  0
   25.2736  -20.8416  -10.2514 C   0  0  0  0  0  0  0  0  0  0  0  0
   25.0285  -21.1314  -11.7106 C   0  0  0  0  0  0  0  0  0  0  0  0
   26.2327  -21.0490  -12.5747 C   0  0  0  0  0  0  0  0  0  0  0  0
   25.8698  -21.3390  -14.0222 C   0  0  2  0  0  0  0  0  0  0  0  0
   27.0597  -21.2072  -14.8216 N   0  0  0  0  0  0  0  0  0  0  0  0
   24.7621  -20.4966  -14.4748 C   0  0  0  0  0  0  0  0  0  0  0  0
   25.0244  -19.2367  -14.5135 O   0  0  0  0  0  0  0  0  0  0  0  0
   22.0401  -21.4511   -7.9953 N   0  0  0  0  0  0  0  0  0  0  0  0
   23.4739  -20.9017  -14.8642 C   0  0  0  0  0  0  0  0  0  0  0  0
   22.9035  -22.2286  -14.8732 C   0  0  0  0  0  0  0  0  0  0  0  0
   21.3936  -22.0448  -15.0932 C   0  0  0  0  0  0  0  0  0  0  0  0
   21.4022  -20.8075  -15.9726 C   0  0  2  0  0  0  0  0  0  0  0  0
   22.4704  -19.9428  -15.3544 C   0  0  0  0  0  0  0  0  0  0  0  0
   21.9156  -19.1635  -14.2299 O   0  0  0  0  0  0  0  0  0  0  0  0
   22.1484  -19.5105  -13.0472 O   0  0  0  0  0  0  0  0  0  0  0  0
  2  3  1  0
  2  1  1  6
  4  3  1  0
  5  9  1  0
  5  4  1  0
  6  5  2  0
  7  8  2  0
  7  2  1  0
 11 10  1  0
 11 12  2  0
 13 14  1  0
 13 11  1  0
 15 16  1  0
 15 14  1  0
 17 16  1  1
 17 18  1  0
 18  7  1  0
 19 17  1  0
 20 19  2  0
 21 19  1  0
 22 21  1  0
 23 24  1  0
 23 22  1  0
 24 25  1  0
 25 21  1  0
 26 28  1  0
 25 26  1  1
 27 26  2  0
M  END
$$$$
