ERP.pdb
     RDKit          3D

 28 28  0  0  1  0  0  0  0  0999 V2000
   14.9248   -7.3895   -7.6481 N   0  0  0  0  0  0  0  0  0  0  0  0
   15.2263   -6.6851   -8.8294 C   0  0  1  0  0  0  0  0  0  0  0  0
   15.6986   -5.2812   -8.7089 C   0  0  0  0  0  0  0  0  0  0  0  0
   14.7856   -4.2916   -8.0965 C   0  0  0  0  0  0  0  0  0  0  0  0
   13.9077   -3.5437   -8.9847 C   0  0  0  0  0  0  0  0  0  0  0  0
   13.9644   -3.6151  -10.2180 O   0  0  0  0  0  0  0  0  0  0  0  0
   16.1376   -7.3821   -9.7833 C   0  0  0  0  0  0  0  0  0  0  0  0
   17.1548   -7.9033   -9.2677 O   0  0  0  0  0  0  0  0  0  0  0  0
   12.9530   -2.7032   -8.4289 O   0  0  0  0  0  0  0  0  0  0  0  0
   17.6044  -12.4431  -14.7536 N   0  0  0  0  0  0  0  0  0  0  0  0
   16.2001  -12.4016  -14.9160 C   0  0  0  0  0  0  0  0  0  0  0  0
   15.4848  -13.4760  -14.9449 N   0  0  0  0  0  0  0  0  0  0  0  0
   15.5754  -11.1396  -15.0491 N   0  0  0  0  0  0  0  0  0  0  0  0
   16.2964   -9.9291  -15.4331 C   0  0  0  0  0  0  0  0  0  0  0  0
   16.9820   -9.3413  -14.2257 C   0  0  0  0  0  0  0  0  0  0  0  0
   16.0711   -8.7275  -13.2272 C   0  0  0  0  0  0  0  0  0  0  0  0
   16.8674   -8.1116  -12.0881 C   0  0  2  0  0  0  0  0  0  0  0  0
   15.9438   -7.4924  -11.1740 N   0  0  0  0  0  0  0  0  0  0  0  0
   17.8985   -7.2012  -12.5876 C   0  0  0  0  0  0  0  0  0  0  0  0
   17.4535   -6.0856  -13.0513 O   0  0  0  0  0  0  0  0  0  0  0  0
   14.4623  -13.4236  -15.1204 N   0  0  0  0  0  0  0  0  0  0  0  0
   19.2888   -7.4050  -12.6153 C   0  0  0  0  0  0  0  0  0  0  0  0
   20.0461   -8.5576  -12.1864 C   0  0  0  0  0  0  0  0  0  0  0  0
   21.4716   -8.3590  -12.7255 C   0  0  0  0  0  0  0  0  0  0  0  0
   21.5725   -6.8458  -12.6579 C   0  0  1  0  0  0  0  0  0  0  0  0
   20.2165   -6.3809  -13.1227 C   0  0  0  0  0  0  0  0  0  0  0  0
   20.1665   -6.3311  -14.5974 O   0  0  0  0  0  0  0  0  0  0  0  0
   20.7096   -5.3840  -15.2147 O   0  0  0  0  0  0  0  0  0  0  0  0
  2  3  1  0
  2  1  1  1
  4  3  1  0
  5  9  1  0
  5  4  1  0
  6  5  2  0
  7  8  2  0
  7  2  1  0
 11 10  1  0
 11 12  2  0
 13 14  1  0
 13 11  1  0
 15 16  1  0
 15 14  1  0
 17 16  1  6
 17 18  1  0
 18  7  1  0
 19 17  1  0
 20 19  2  0
 21 19  1  0
 22 21  1  0
 23 24  1  0
 23 22  1  0
 24 25  1  0
 25 21  1  0
 26 28  1  0
 25 26  1  6
 27 26  2  0
M  END
$$$$
