ERP.pdb
     RDKit          3D

 28 28  0  0  1  0  0  0  0  0999 V2000
   19.5659   -6.6506  -13.8615 N   0  0  0  0  0  0  0  0  0  0  0  0
   20.6055   -6.6472  -14.8112 C   0  0  1  0  0  0  0  0  0  0  0  0
   21.5522   -5.5017  -14.8121 C   0  0  0  0  0  0  0  0  0  0  0  0
   20.9906   -4.1369  -14.9101 C   0  0  0  0  0  0  0  0  0  0  0  0
   21.9158   -3.0177  -14.8081 C   0  0  0  0  0  0  0  0  0  0  0  0
   23.1293   -3.1523  -14.6111 O   0  0  0  0  0  0  0  0  0  0  0  0
   21.4171   -7.8969  -14.8861 C   0  0  0  0  0  0  0  0  0  0  0  0
   21.2756   -8.6856  -13.9216 O   0  0  0  0  0  0  0  0  0  0  0  0
   21.4209   -1.7273  -14.9371 O   0  0  0  0  0  0  0  0  0  0  0  0
   19.1074  -14.9000  -16.4836 N   0  0  0  0  0  0  0  0  0  0  0  0
   18.6144  -13.9219  -15.5890 C   0  0  0  0  0  0  0  0  0  0  0  0
   17.5508  -14.1169  -14.8837 N   0  0  0  0  0  0  0  0  0  0  0  0
   19.3176  -12.7000  -15.4742 N   0  0  0  0  0  0  0  0  0  0  0  0
   20.4028  -12.3167  -16.3730 C   0  0  0  0  0  0  0  0  0  0  0  0
   20.8495  -10.9109  -16.0599 C   0  0  0  0  0  0  0  0  0  0  0  0
   21.9488  -10.3995  -16.9163 C   0  0  0  0  0  0  0  0  0  0  0  0
   22.9013   -9.5388  -16.1021 C   0  0  2  0  0  0  0  0  0  0  0  0
   22.3011   -8.2421  -15.9268 N   0  0  0  0  0  0  0  0  0  0  0  0
   24.2320   -9.4927  -16.7092 C   0  0  0  0  0  0  0  0  0  0  0  0
   24.3064   -8.8002  -17.7921 O   0  0  0  0  0  0  0  0  0  0  0  0
   17.2261  -13.3962  -14.2097 N   0  0  0  0  0  0  0  0  0  0  0  0
   25.4107  -10.1056  -16.2507 C   0  0  0  0  0  0  0  0  0  0  0  0
   25.6107  -10.9258  -15.0789 C   0  0  0  0  0  0  0  0  0  0  0  0
   26.9977  -11.5687  -15.2371 C   0  0  0  0  0  0  0  0  0  0  0  0
   27.7197  -10.4617  -15.9840 C   0  0  1  0  0  0  0  0  0  0  0  0
   26.6893   -9.9695  -16.9672 C   0  0  0  0  0  0  0  0  0  0  0  0
   26.6889  -10.8132  -18.1788 O   0  0  0  0  0  0  0  0  0  0  0  0
   25.8024  -11.6861  -18.3385 O   0  0  0  0  0  0  0  0  0  0  0  0
  2  3  1  0
  2  1  1  1
  4  3  1  0
  5  9  1  0
  5  4  1  0
  6  5  2  0
  7  8  2  0
  7  2  1  0
 11 10  1  0
 11 12  2  0
 13 14  1  0
 13 11  1  0
 15 16  1  0
 15 14  1  0
 17 16  1  6
 17 18  1  0
 18  7  1  0
 19 17  1  0
 20 19  2  0
 21 19  1  0
 22 21  1  0
 23 24  1  0
 23 22  1  0
 24 25  1  0
 25 21  1  0
 26 28  1  0
 25 26  1  6
 27 26  2  0
M  END
$$$$
