ERP.pdb
     RDKit          3D

 28 28  0  0  1  0  0  0  0  0999 V2000
   20.3346  -19.7772  -16.3847 N   0  0  0  0  0  0  0  0  0  0  0  0
   21.2287  -18.8116  -16.8854 C   0  0  1  0  0  0  0  0  0  0  0  0
   20.7021  -17.4542  -17.1831 C   0  0  0  0  0  0  0  0  0  0  0  0
   20.6336  -16.4775  -16.0744 C   0  0  0  0  0  0  0  0  0  0  0  0
   20.0995  -15.1563  -16.3714 C   0  0  0  0  0  0  0  0  0  0  0  0
   19.6749  -14.8273  -17.4854 O   0  0  0  0  0  0  0  0  0  0  0  0
   22.4939  -18.6399  -16.1134 C   0  0  0  0  0  0  0  0  0  0  0  0
   23.0141  -17.5013  -16.1847 O   0  0  0  0  0  0  0  0  0  0  0  0
   20.0597  -14.2081  -15.3584 O   0  0  0  0  0  0  0  0  0  0  0  0
   24.8044  -21.0628   -8.4276 N   0  0  0  0  0  0  0  0  0  0  0  0
   23.7733  -21.0093   -9.3941 C   0  0  0  0  0  0  0  0  0  0  0  0
   22.5299  -21.1421   -9.0729 N   0  0  0  0  0  0  0  0  0  0  0  0
   24.1299  -20.8035  -10.7472 N   0  0  0  0  0  0  0  0  0  0  0  0
   25.5144  -20.7073  -11.2016 C   0  0  0  0  0  0  0  0  0  0  0  0
   25.5456  -20.3174  -12.6578 C   0  0  0  0  0  0  0  0  0  0  0  0
   24.2311  -19.9309  -13.2292 C   0  0  0  0  0  0  0  0  0  0  0  0
   24.3908  -19.4751  -14.6706 C   0  0  2  0  0  0  0  0  0  0  0  0
   23.1245  -19.6317  -15.3370 N   0  0  0  0  0  0  0  0  0  0  0  0
   25.4933  -20.1732  -15.3331 C   0  0  0  0  0  0  0  0  0  0  0  0
   25.2291  -21.3819  -15.6891 O   0  0  0  0  0  0  0  0  0  0  0  0
   21.7923  -21.1256   -9.8042 N   0  0  0  0  0  0  0  0  0  0  0  0
   26.7783  -19.6808  -15.6182 C   0  0  0  0  0  0  0  0  0  0  0  0
   27.4064  -18.4636  -15.1599 C   0  0  0  0  0  0  0  0  0  0  0  0
   28.8944  -18.5853  -15.5246 C   0  0  0  0  0  0  0  0  0  0  0  0
   28.7888  -19.3955  -16.8040 C   0  0  1  0  0  0  0  0  0  0  0  0
   27.7136  -20.4049  -16.4944 C   0  0  0  0  0  0  0  0  0  0  0  0
   28.2858  -21.5656  -15.7836 O   0  0  0  0  0  0  0  0  0  0  0  0
   28.0625  -21.7279  -14.5601 O   0  0  0  0  0  0  0  0  0  0  0  0
  2  3  1  0
  2  1  1  1
  4  3  1  0
  5  9  1  0
  5  4  1  0
  6  5  2  0
  7  8  2  0
  7  2  1  0
 11 10  1  0
 11 12  2  0
 13 14  1  0
 13 11  1  0
 15 16  1  0
 15 14  1  0
 17 16  1  1
 17 18  1  0
 18  7  1  0
 19 17  1  0
 20 19  2  0
 21 19  1  0
 22 21  1  0
 23 24  1  0
 23 22  1  0
 24 25  1  0
 25 21  1  0
 26 28  1  0
 25 26  1  1
 27 26  2  0
M  END
$$$$
