ERP.pdb
     RDKit          3D

 28 28  0  0  1  0  0  0  0  0999 V2000
   19.5884  -20.1699  -13.1429 N   0  0  0  0  0  0  0  0  0  0  0  0
   20.1352  -19.7589  -14.3737 C   0  0  1  0  0  0  0  0  0  0  0  0
   19.3684  -18.7840  -15.1923 C   0  0  0  0  0  0  0  0  0  0  0  0
   19.2945  -19.0097  -16.6522 C   0  0  0  0  0  0  0  0  0  0  0  0
   18.3060  -19.9612  -17.1386 C   0  0  0  0  0  0  0  0  0  0  0  0
   17.2510  -20.2119  -16.5439 O   0  0  0  0  0  0  0  0  0  0  0  0
   21.5500  -19.2875  -14.3276 C   0  0  0  0  0  0  0  0  0  0  0  0
   21.7112  -18.1190  -13.9025 O   0  0  0  0  0  0  0  0  0  0  0  0
   18.5500  -20.6277  -18.3315 O   0  0  0  0  0  0  0  0  0  0  0  0
   28.5119  -20.7244  -11.3008 N   0  0  0  0  0  0  0  0  0  0  0  0
   27.4365  -21.6409  -11.3597 C   0  0  0  0  0  0  0  0  0  0  0  0
   26.9288  -22.1661  -10.2951 N   0  0  0  0  0  0  0  0  0  0  0  0
   26.9124  -21.9822  -12.6284 N   0  0  0  0  0  0  0  0  0  0  0  0
   27.3445  -21.3431  -13.8682 C   0  0  0  0  0  0  0  0  0  0  0  0
   26.3586  -20.2708  -14.2578 C   0  0  0  0  0  0  0  0  0  0  0  0
   24.9347  -20.6890  -14.2228 C   0  0  0  0  0  0  0  0  0  0  0  0
   24.0354  -19.5545  -14.6865 C   0  0  2  0  0  0  0  0  0  0  0  0
   22.6789  -20.0356  -14.7147 N   0  0  0  0  0  0  0  0  0  0  0  0
   24.4886  -19.0005  -15.9630 C   0  0  0  0  0  0  0  0  0  0  0  0
   24.2316  -19.7334  -16.9899 O   0  0  0  0  0  0  0  0  0  0  0  0
   26.0983  -22.7869  -10.3585 N   0  0  0  0  0  0  0  0  0  0  0  0
   25.1566  -17.7845  -16.1868 C   0  0  0  0  0  0  0  0  0  0  0  0
   25.6447  -16.8261  -15.2227 C   0  0  0  0  0  0  0  0  0  0  0  0
   26.5490  -15.8574  -16.0011 C   0  0  0  0  0  0  0  0  0  0  0  0
   25.8422  -15.8560  -17.3446 C   0  0  1  0  0  0  0  0  0  0  0  0
   25.4597  -17.3000  -17.5433 C   0  0  0  0  0  0  0  0  0  0  0  0
   26.5895  -18.0581  -18.1165 O   0  0  0  0  0  0  0  0  0  0  0  0
   27.2042  -18.8983  -17.4169 O   0  0  0  0  0  0  0  0  0  0  0  0
  2  3  1  0
  2  1  1  1
  4  3  1  0
  5  9  1  0
  5  4  1  0
  6  5  2  0
  7  8  2  0
  7  2  1  0
 11 10  1  0
 11 12  2  0
 13 14  1  0
 13 11  1  0
 15 16  1  0
 15 14  1  0
 17 16  1  6
 17 18  1  0
 18  7  1  0
 19 17  1  0
 20 19  2  0
 21 19  1  0
 22 21  1  0
 23 24  1  0
 23 22  1  0
 24 25  1  0
 25 21  1  0
 26 28  1  0
 25 26  1  6
 27 26  2  0
M  END
$$$$
