ERP.pdb
     RDKit          3D

 28 28  0  0  1  0  0  0  0  0999 V2000
   25.4318  -19.2796  -16.8048 N   0  0  0  0  0  0  0  0  0  0  0  0
   26.2133  -19.6579  -15.6963 C   0  0  1  0  0  0  0  0  0  0  0  0
   27.6800  -19.4268  -15.7594 C   0  0  0  0  0  0  0  0  0  0  0  0
   28.4141  -19.9422  -16.9356 C   0  0  0  0  0  0  0  0  0  0  0  0
   28.4934  -21.3862  -17.1017 C   0  0  0  0  0  0  0  0  0  0  0  0
   28.3802  -22.1872  -16.1662 O   0  0  0  0  0  0  0  0  0  0  0  0
   25.7399  -19.1611  -14.3715 C   0  0  0  0  0  0  0  0  0  0  0  0
   25.3617  -17.9658  -14.3522 O   0  0  0  0  0  0  0  0  0  0  0  0
   28.7070  -21.9022  -18.3725 O   0  0  0  0  0  0  0  0  0  0  0  0
   20.4981  -19.3639  -15.7055 N   0  0  0  0  0  0  0  0  0  0  0  0
   20.2140  -20.6568  -15.2079 C   0  0  0  0  0  0  0  0  0  0  0  0
   19.1344  -21.2887  -15.5274 N   0  0  0  0  0  0  0  0  0  0  0  0
   21.1491  -21.2624  -14.3363 N   0  0  0  0  0  0  0  0  0  0  0  0
   21.4688  -20.7299  -13.0147 C   0  0  0  0  0  0  0  0  0  0  0  0
   22.9648  -20.6916  -12.8304 C   0  0  0  0  0  0  0  0  0  0  0  0
   23.5013  -19.3957  -12.3443 C   0  0  0  0  0  0  0  0  0  0  0  0
   24.9744  -19.5277  -11.9931 C   0  0  2  0  0  0  0  0  0  0  0  0
   25.6896  -19.9129  -13.1815 N   0  0  0  0  0  0  0  0  0  0  0  0
   25.1757  -20.4384  -10.8655 C   0  0  0  0  0  0  0  0  0  0  0  0
   24.9304  -21.6760  -11.1221 O   0  0  0  0  0  0  0  0  0  0  0  0
   18.9585  -22.2468  -15.1666 N   0  0  0  0  0  0  0  0  0  0  0  0
   25.5988  -20.1189   -9.5639 C   0  0  0  0  0  0  0  0  0  0  0  0
   25.9135  -18.8255   -9.0035 C   0  0  0  0  0  0  0  0  0  0  0  0
   26.0168  -19.0303   -7.4838 C   0  0  0  0  0  0  0  0  0  0  0  0
   26.5603  -20.4471   -7.4432 C   0  0  2  0  0  0  0  0  0  0  0  0
   25.7921  -21.1508   -8.5320 C   0  0  0  0  0  0  0  0  0  0  0  0
   24.4865  -21.6162   -8.0233 O   0  0  0  0  0  0  0  0  0  0  0  0
   23.4306  -21.0384   -8.3759 O   0  0  0  0  0  0  0  0  0  0  0  0
  2  3  1  0
  2  1  1  6
  4  3  1  0
  5  9  1  0
  5  4  1  0
  6  5  2  0
  7  8  2  0
  7  2  1  0
 11 10  1  0
 11 12  2  0
 13 14  1  0
 13 11  1  0
 15 16  1  0
 15 14  1  0
 17 16  1  6
 17 18  1  0
 18  7  1  0
 19 17  1  0
 20 19  2  0
 21 19  1  0
 22 21  1  0
 23 24  1  0
 23 22  1  0
 24 25  1  0
 25 21  1  0
 26 28  1  0
 25 26  1  1
 27 26  2  0
M  END
$$$$
