ERP.pdb
     RDKit          3D

 28 28  0  0  1  0  0  0  0  0999 V2000
   20.4383  -20.5058  -11.4327 N   0  0  0  0  0  0  0  0  0  0  0  0
   21.0248  -20.5682  -12.7112 C   0  0  1  0  0  0  0  0  0  0  0  0
   20.3884  -19.8018  -13.8140 C   0  0  0  0  0  0  0  0  0  0  0  0
   19.1561  -20.3510  -14.4202 C   0  0  0  0  0  0  0  0  0  0  0  0
   17.9030  -19.6649  -14.1404 C   0  0  0  0  0  0  0  0  0  0  0  0
   17.8296  -18.6225  -13.4790 O   0  0  0  0  0  0  0  0  0  0  0  0
   22.4903  -20.2933  -12.7646 C   0  0  0  0  0  0  0  0  0  0  0  0
   22.8394  -19.1672  -12.3378 O   0  0  0  0  0  0  0  0  0  0  0  0
   16.7225  -20.1998  -14.6374 O   0  0  0  0  0  0  0  0  0  0  0  0
   30.5592  -20.4119  -10.0967 N   0  0  0  0  0  0  0  0  0  0  0  0
   30.2794  -21.5697  -10.8592 C   0  0  0  0  0  0  0  0  0  0  0  0
   30.9299  -22.6719  -10.6894 N   0  0  0  0  0  0  0  0  0  0  0  0
   29.2547  -21.5030  -11.8319 N   0  0  0  0  0  0  0  0  0  0  0  0
   27.8394  -21.6677  -11.5122 C   0  0  0  0  0  0  0  0  0  0  0  0
   27.0668  -21.9763  -12.7697 C   0  0  0  0  0  0  0  0  0  0  0  0
   25.5976  -22.0869  -12.5890 C   0  0  0  0  0  0  0  0  0  0  0  0
   24.8907  -20.9124  -13.2460 C   0  0  2  0  0  0  0  0  0  0  0  0
   23.4759  -21.1778  -13.2441 N   0  0  0  0  0  0  0  0  0  0  0  0
   25.4347  -20.6372  -14.5764 C   0  0  0  0  0  0  0  0  0  0  0  0
   25.0622  -21.4622  -15.4920 O   0  0  0  0  0  0  0  0  0  0  0  0
   30.7500  -23.4898  -11.3040 N   0  0  0  0  0  0  0  0  0  0  0  0
   26.2979  -19.5952  -14.9565 C   0  0  0  0  0  0  0  0  0  0  0  0
   26.9069  -18.5756  -14.1347 C   0  0  0  0  0  0  0  0  0  0  0  0
   27.9790  -17.9047  -15.0079 C   0  0  0  0  0  0  0  0  0  0  0  0
   27.3214  -18.0203  -16.3712 C   0  0  2  0  0  0  0  0  0  0  0  0
   26.7151  -19.3998  -16.3545 C   0  0  0  0  0  0  0  0  0  0  0  0
   27.7229  -20.4101  -16.7334 O   0  0  0  0  0  0  0  0  0  0  0  0
   28.2094  -21.1719  -15.8637 O   0  0  0  0  0  0  0  0  0  0  0  0
  2  3  1  0
  2  1  1  1
  4  3  1  0
  5  9  1  0
  5  4  1  0
  6  5  2  0
  7  8  2  0
  7  2  1  0
 11 10  1  0
 11 12  2  0
 13 14  1  0
 13 11  1  0
 15 16  1  0
 15 14  1  0
 17 16  1  6
 17 18  1  0
 18  7  1  0
 19 17  1  0
 20 19  2  0
 21 19  1  0
 22 21  1  0
 23 24  1  0
 23 22  1  0
 24 25  1  0
 25 21  1  0
 26 28  1  0
 25 26  1  6
 27 26  2  0
M  END
$$$$
