ERP.pdb
     RDKit          3D

 28 28  0  0  1  0  0  0  0  0999 V2000
   16.2807  -24.7139   -4.3740 N   0  0  0  0  0  0  0  0  0  0  0  0
   15.2074  -24.7132   -3.4626 C   0  0  1  0  0  0  0  0  0  0  0  0
   14.7520  -26.0167   -2.9129 C   0  0  0  0  0  0  0  0  0  0  0  0
   15.7306  -27.1241   -2.8512 C   0  0  0  0  0  0  0  0  0  0  0  0
   16.2592  -27.4851   -1.5437 C   0  0  0  0  0  0  0  0  0  0  0  0
   15.9659  -26.8878   -0.5013 O   0  0  0  0  0  0  0  0  0  0  0  0
   15.3321  -23.7652   -2.3173 C   0  0  0  0  0  0  0  0  0  0  0  0
   16.4652  -23.2484   -2.1712 O   0  0  0  0  0  0  0  0  0  0  0  0
   17.1395  -28.5543   -1.4505 O   0  0  0  0  0  0  0  0  0  0  0  0
    9.5588  -18.5218    2.2379 N   0  0  0  0  0  0  0  0  0  0  0  0
   10.8605  -17.9690    2.2301 C   0  0  0  0  0  0  0  0  0  0  0  0
   11.0935  -16.7670    2.6398 N   0  0  0  0  0  0  0  0  0  0  0  0
   11.9276  -18.7679    1.7574 N   0  0  0  0  0  0  0  0  0  0  0  0
   11.7270  -19.9960    0.9931 C   0  0  0  0  0  0  0  0  0  0  0  0
   13.0616  -20.6265    0.6849 C   0  0  0  0  0  0  0  0  0  0  0  0
   13.0005  -21.8174   -0.1992 C   0  0  0  0  0  0  0  0  0  0  0  0
   14.3922  -22.3873   -0.4212 C   0  0  2  0  0  0  0  0  0  0  0  0
   14.3034  -23.4212   -1.4188 N   0  0  0  0  0  0  0  0  0  0  0  0
   14.9937  -22.8343    0.8358 C   0  0  0  0  0  0  0  0  0  0  0  0
   14.5862  -23.9835    1.2493 O   0  0  0  0  0  0  0  0  0  0  0  0
   12.0527  -16.3710    2.5926 N   0  0  0  0  0  0  0  0  0  0  0  0
   15.9458  -22.1637    1.6225 C   0  0  0  0  0  0  0  0  0  0  0  0
   16.5701  -20.8813    1.3956 C   0  0  0  0  0  0  0  0  0  0  0  0
   17.2811  -20.5123    2.7072 C   0  0  0  0  0  0  0  0  0  0  0  0
   17.6743  -21.8954    3.1941 C   0  0  2  0  0  0  0  0  0  0  0  0
   16.4672  -22.7385    2.8734 C   0  0  0  0  0  0  0  0  0  0  0  0
   15.4599  -22.6257    3.9469 O   0  0  0  0  0  0  0  0  0  0  0  0
   14.3935  -21.9964    3.7467 O   0  0  0  0  0  0  0  0  0  0  0  0
  2  3  1  0
  2  1  1  1
  4  3  1  0
  5  9  1  0
  5  4  1  0
  6  5  2  0
  7  8  2  0
  7  2  1  0
 11 10  1  0
 11 12  2  0
 13 14  1  0
 13 11  1  0
 15 16  1  0
 15 14  1  0
 17 16  1  1
 17 18  1  0
 18  7  1  0
 19 17  1  0
 20 19  2  0
 21 19  1  0
 22 21  1  0
 23 24  1  0
 23 22  1  0
 24 25  1  0
 25 21  1  0
 26 28  1  0
 25 26  1  1
 27 26  2  0
M  END
$$$$
