ERP.pdb
     RDKit          3D

 28 28  0  0  1  0  0  0  0  0999 V2000
   29.5627  -19.9195  -18.9900 N   0  0  0  0  0  0  0  0  0  0  0  0
   28.8224  -19.0385  -18.1786 C   0  0  1  0  0  0  0  0  0  0  0  0
   28.2611  -17.8124  -18.8033 C   0  0  0  0  0  0  0  0  0  0  0  0
   29.1748  -16.9505  -19.5844 C   0  0  0  0  0  0  0  0  0  0  0  0
   29.1197  -17.0498  -21.0357 C   0  0  0  0  0  0  0  0  0  0  0  0
   28.1801  -16.6168  -21.7134 O   0  0  0  0  0  0  0  0  0  0  0  0
   27.7366  -19.6635  -17.3684 C   0  0  0  0  0  0  0  0  0  0  0  0
   27.1432  -20.6219  -17.9174 O   0  0  0  0  0  0  0  0  0  0  0  0
   30.1717  -17.6603  -21.7045 O   0  0  0  0  0  0  0  0  0  0  0  0
   25.8569  -20.4976   -8.5894 N   0  0  0  0  0  0  0  0  0  0  0  0
   24.7007  -20.8388   -9.3290 C   0  0  0  0  0  0  0  0  0  0  0  0
   23.5868  -21.1430   -8.7515 N   0  0  0  0  0  0  0  0  0  0  0  0
   24.7822  -20.8421  -10.7411 N   0  0  0  0  0  0  0  0  0  0  0  0
   25.8855  -20.2319  -11.4778 C   0  0  0  0  0  0  0  0  0  0  0  0
   25.6289  -20.3408  -12.9597 C   0  0  0  0  0  0  0  0  0  0  0  0
   26.7020  -19.7855  -13.8219 C   0  0  0  0  0  0  0  0  0  0  0  0
   26.3254  -19.9133  -15.2892 C   0  0  2  0  0  0  0  0  0  0  0  0
   27.3437  -19.2672  -16.0752 N   0  0  0  0  0  0  0  0  0  0  0  0
   24.9771  -19.4034  -15.5414 C   0  0  0  0  0  0  0  0  0  0  0  0
   24.8382  -18.1360  -15.3624 O   0  0  0  0  0  0  0  0  0  0  0  0
   22.7605  -21.4235   -9.3152 N   0  0  0  0  0  0  0  0  0  0  0  0
   23.8436  -20.1274  -15.9493 C   0  0  0  0  0  0  0  0  0  0  0  0
   23.7213  -21.5384  -16.2327 C   0  0  0  0  0  0  0  0  0  0  0  0
   22.2149  -21.8270  -16.3307 C   0  0  0  0  0  0  0  0  0  0  0  0
   21.7287  -20.5082  -16.9041 C   0  0  2  0  0  0  0  0  0  0  0  0
   22.5386  -19.4794  -16.1580 C   0  0  0  0  0  0  0  0  0  0  0  0
   21.9078  -19.1697  -14.8595 O   0  0  0  0  0  0  0  0  0  0  0  0
   22.3905  -19.6323  -13.7983 O   0  0  0  0  0  0  0  0  0  0  0  0
  2  3  1  0
  2  1  1  6
  4  3  1  0
  5  9  1  0
  5  4  1  0
  6  5  2  0
  7  8  2  0
  7  2  1  0
 11 10  1  0
 11 12  2  0
 13 14  1  0
 13 11  1  0
 15 16  1  0
 15 14  1  0
 17 16  1  1
 17 18  1  0
 18  7  1  0
 19 17  1  0
 20 19  2  0
 21 19  1  0
 22 21  1  0
 23 24  1  0
 23 22  1  0
 24 25  1  0
 25 21  1  0
 26 28  1  0
 25 26  1  1
 27 26  2  0
M  END
$$$$
