LFA.pdb
     RDKit          3D

 25 25  0  0  1  0  0  0  0  0999 V2000
   27.7055  -17.1714  -14.2064 C   0  0  0  0  0  0  0  0  0  0  0  0
   28.7824  -18.2249  -13.9137 C   0  0  2  0  0  0  0  0  0  0  0  0
   29.5041  -18.5348  -15.1764 C   0  0  0  0  0  0  0  0  0  0  0  0
   28.0748  -19.3969  -13.2967 C   0  0  0  0  0  0  0  0  0  0  0  0
   28.7801  -19.9725  -12.1093 C   0  0  2  0  0  0  0  0  0  0  0  0
   29.7732  -20.9654  -12.4761 N   0  0  0  0  0  0  0  0  0  0  0  0
   27.7669  -20.6727  -11.2743 C   0  0  0  0  0  0  0  0  0  0  0  0
   27.5340  -21.8921  -11.3593 O   0  0  0  0  0  0  0  0  0  0  0  0
   27.0153  -19.9347  -10.3256 N   0  0  0  0  0  0  0  0  0  0  0  0
   25.8875  -20.4167   -9.6107 C   0  0  1  0  0  0  0  0  0  0  0  0
   25.5807  -19.7287   -8.3254 C   0  0  0  0  0  0  0  0  0  0  0  0
   26.6141  -19.9064   -7.2940 C   0  0  0  0  0  0  0  0  0  0  0  0
   26.8453  -21.1445   -6.7434 C   0  0  0  0  0  0  0  0  0  0  0  0
   27.8056  -21.3548   -5.7728 C   0  0  0  0  0  0  0  0  0  0  0  0
   28.5620  -20.3078   -5.3320 C   0  0  0  0  0  0  0  0  0  0  0  0
   28.3568  -19.0565   -5.8613 C   0  0  0  0  0  0  0  0  0  0  0  0
   27.3920  -18.8713   -6.8295 C   0  0  0  0  0  0  0  0  0  0  0  0
   24.7019  -20.3831  -10.4975 C   0  0  0  0  0  0  0  0  0  0  0  0
   24.3177  -19.2998  -10.9885 O   0  0  0  0  0  0  0  0  0  0  0  0
   22.7604  -22.7679  -12.5680 C   0  0  0  0  0  0  0  0  0  0  0  0
   22.8228  -21.5062  -11.7371 C   0  0  2  0  0  0  0  0  0  0  0  0
   23.9547  -21.5583  -10.8297 N   0  0  0  0  0  0  0  0  0  0  0  0
   21.5705  -21.2822  -10.9660 C   0  0  0  0  0  0  0  0  0  0  0  0
   20.3411  -21.1071  -11.5726 O   0  0  0  0  0  0  0  0  0  0  0  0
   21.6123  -21.2479   -9.7211 O   0  0  0  0  0  0  0  0  0  0  0  0
  2  1  1  6
  2  3  1  0
  4  2  1  0
  5  7  1  0
  5  4  1  0
  5  6  1  6
  7  8  2  0
  9 10  1  0
  9  7  1  0
 10 11  1  1
 12 13  2  0
 12 11  1  0
 14 13  1  0
 15 14  2  0
 16 17  2  0
 16 15  1  0
 17 12  1  0
 18 10  1  0
 19 18  2  0
 21 20  1  1
 21 22  1  0
 22 18  1  0
 23 21  1  0
 23 24  1  0
 25 23  2  0
M  END
$$$$
