LFA.pdb
     RDKit          3D

 25 25  0  0  1  0  0  0  0  0999 V2000
   30.5779  -23.2058  -19.4116 C   0  0  0  0  0  0  0  0  0  0  0  0
   29.6702  -22.0139  -19.0788 C   0  0  2  0  0  0  0  0  0  0  0  0
   30.5106  -20.7938  -18.9504 C   0  0  0  0  0  0  0  0  0  0  0  0
   28.9180  -22.3862  -17.8336 C   0  0  0  0  0  0  0  0  0  0  0  0
   27.7670  -21.4802  -17.5286 C   0  0  2  0  0  0  0  0  0  0  0  0
   28.1553  -20.0828  -17.4721 N   0  0  0  0  0  0  0  0  0  0  0  0
   27.2555  -21.8345  -16.1771 C   0  0  0  0  0  0  0  0  0  0  0  0
   27.0007  -23.0006  -15.8253 O   0  0  0  0  0  0  0  0  0  0  0  0
   27.0389  -20.8087  -15.2229 N   0  0  0  0  0  0  0  0  0  0  0  0
   26.4554  -20.9838  -13.9406 C   0  0  1  0  0  0  0  0  0  0  0  0
   27.0437  -20.1768  -12.8350 C   0  0  0  0  0  0  0  0  0  0  0  0
   26.3984  -20.3941  -11.5313 C   0  0  0  0  0  0  0  0  0  0  0  0
   25.3784  -19.5737  -11.1118 C   0  0  0  0  0  0  0  0  0  0  0  0
   24.7458  -19.7428   -9.8954 C   0  0  0  0  0  0  0  0  0  0  0  0
   25.1336  -20.7555   -9.0667 C   0  0  0  0  0  0  0  0  0  0  0  0
   26.1502  -21.5942   -9.4552 C   0  0  0  0  0  0  0  0  0  0  0  0
   26.7668  -21.4053  -10.6746 C   0  0  0  0  0  0  0  0  0  0  0  0
   24.9995  -20.7295  -14.0327 C   0  0  0  0  0  0  0  0  0  0  0  0
   24.5813  -19.6332  -14.4634 O   0  0  0  0  0  0  0  0  0  0  0  0
   21.9392  -22.6066  -14.5114 C   0  0  0  0  0  0  0  0  0  0  0  0
   22.6003  -21.4491  -13.7977 C   0  0  2  0  0  0  0  0  0  0  0  0
   24.0217  -21.7004  -13.6436 N   0  0  0  0  0  0  0  0  0  0  0  0
   21.9886  -21.1902  -12.4666 C   0  0  0  0  0  0  0  0  0  0  0  0
   20.8047  -20.4943  -12.3113 O   0  0  0  0  0  0  0  0  0  0  0  0
   22.5526  -21.6105  -11.4380 O   0  0  0  0  0  0  0  0  0  0  0  0
  2  1  1  1
  2  3  1  0
  4  2  1  0
  5  7  1  0
  5  4  1  0
  5  6  1  1
  7  8  2  0
  9 10  1  0
  9  7  1  0
 10 11  1  1
 12 13  2  0
 12 11  1  0
 14 13  1  0
 15 14  2  0
 16 17  2  0
 16 15  1  0
 17 12  1  0
 18 10  1  0
 19 18  2  0
 21 20  1  1
 21 22  1  0
 22 18  1  0
 23 21  1  0
 23 24  1  0
 25 23  2  0
M  END
$$$$
