LFA.pdb
     RDKit          3D

 25 25  0  0  1  0  0  0  0  0999 V2000
   19.9674  -24.2697  -10.7737 C   0  0  0  0  0  0  0  0  0  0  0  0
   19.2321  -22.9326  -10.6104 C   0  0  2  0  0  0  0  0  0  0  0  0
   18.0999  -22.8886  -11.5734 C   0  0  0  0  0  0  0  0  0  0  0  0
   20.2593  -21.8550  -10.8067 C   0  0  0  0  0  0  0  0  0  0  0  0
   21.4778  -22.0184   -9.9541 C   0  0  2  0  0  0  0  0  0  0  0  0
   21.2289  -21.7092   -8.5580 N   0  0  0  0  0  0  0  0  0  0  0  0
   22.4989  -21.0462  -10.4295 C   0  0  0  0  0  0  0  0  0  0  0  0
   22.3346  -19.8129  -10.4035 O   0  0  0  0  0  0  0  0  0  0  0  0
   23.7308  -21.5243  -10.9429 N   0  0  0  0  0  0  0  0  0  0  0  0
   24.7613  -20.7209  -11.4979 C   0  0  1  0  0  0  0  0  0  0  0  0
   26.1488  -21.0327  -11.0541 C   0  0  0  0  0  0  0  0  0  0  0  0
   26.4536  -20.5771   -9.6893 C   0  0  0  0  0  0  0  0  0  0  0  0
   27.0439  -21.4273   -8.7848 C   0  0  0  0  0  0  0  0  0  0  0  0
   27.3468  -21.0397   -7.4939 C   0  0  0  0  0  0  0  0  0  0  0  0
   27.0570  -19.7708   -7.0834 C   0  0  0  0  0  0  0  0  0  0  0  0
   26.4666  -18.8950   -7.9623 C   0  0  0  0  0  0  0  0  0  0  0  0
   26.1737  -19.3052   -9.2462 C   0  0  0  0  0  0  0  0  0  0  0  0
   24.6779  -20.7795  -12.9753 C   0  0  0  0  0  0  0  0  0  0  0  0
   24.7694  -21.8780  -13.5645 O   0  0  0  0  0  0  0  0  0  0  0  0
   22.9811  -20.5394  -15.4464 C   0  0  0  0  0  0  0  0  0  0  0  0
   24.2222  -19.7098  -15.2062 C   0  0  2  0  0  0  0  0  0  0  0  0
   24.4929  -19.6122  -13.7834 N   0  0  0  0  0  0  0  0  0  0  0  0
   24.1051  -18.3466  -15.7901 C   0  0  0  0  0  0  0  0  0  0  0  0
   23.9484  -18.1255  -17.1454 O   0  0  0  0  0  0  0  0  0  0  0  0
   24.1480  -17.3510  -15.0420 O   0  0  0  0  0  0  0  0  0  0  0  0
  2  1  1  6
  2  3  1  0
  4  2  1  0
  5  7  1  0
  5  4  1  0
  5  6  1  1
  7  8  2  0
  9 10  1  0
  9  7  1  0
 10 11  1  6
 12 13  2  0
 12 11  1  0
 14 13  1  0
 15 14  2  0
 16 17  2  0
 16 15  1  0
 17 12  1  0
 18 10  1  0
 19 18  2  0
 21 20  1  1
 21 22  1  0
 22 18  1  0
 23 21  1  0
 23 24  1  0
 25 23  2  0
M  END
$$$$
