LFA.pdb
     RDKit          3D

 25 25  0  0  1  0  0  0  0  0999 V2000
   28.5282  -17.9190  -15.0070 C   0  0  0  0  0  0  0  0  0  0  0  0
   27.9091  -18.8766  -16.0340 C   0  0  2  0  0  0  0  0  0  0  0  0
   27.4624  -18.0890  -17.2137 C   0  0  0  0  0  0  0  0  0  0  0  0
   26.8095  -19.6110  -15.3226 C   0  0  0  0  0  0  0  0  0  0  0  0
   27.2639  -20.3428  -14.0992 C   0  0  2  0  0  0  0  0  0  0  0  0
   28.1877  -21.4202  -14.4030 N   0  0  0  0  0  0  0  0  0  0  0  0
   26.0682  -20.9711  -13.4750 C   0  0  0  0  0  0  0  0  0  0  0  0
   25.7529  -22.1627  -13.6463 O   0  0  0  0  0  0  0  0  0  0  0  0
   25.2292  -20.1934  -12.6379 N   0  0  0  0  0  0  0  0  0  0  0  0
   24.1106  -20.6784  -11.9106 C   0  0  1  0  0  0  0  0  0  0  0  0
   23.7744  -19.9469  -10.6570 C   0  0  0  0  0  0  0  0  0  0  0  0
   24.7292  -20.1736   -9.5615 C   0  0  0  0  0  0  0  0  0  0  0  0
   25.9585  -19.5586   -9.5683 C   0  0  0  0  0  0  0  0  0  0  0  0
   26.8841  -19.7441   -8.5598 C   0  0  0  0  0  0  0  0  0  0  0  0
   26.5853  -20.5640   -7.5104 C   0  0  0  0  0  0  0  0  0  0  0  0
   25.3651  -21.1945   -7.4722 C   0  0  0  0  0  0  0  0  0  0  0  0
   24.4573  -20.9936   -8.4910 C   0  0  0  0  0  0  0  0  0  0  0  0
   22.9312  -20.7165  -12.8054 C   0  0  0  0  0  0  0  0  0  0  0  0
   22.6507  -19.7260  -13.5142 O   0  0  0  0  0  0  0  0  0  0  0  0
   20.6757  -23.3256  -14.2459 C   0  0  0  0  0  0  0  0  0  0  0  0
   20.9653  -21.8988  -13.8381 C   0  0  2  0  0  0  0  0  0  0  0  0
   22.0744  -21.8595  -12.9024 N   0  0  0  0  0  0  0  0  0  0  0  0
   19.7765  -21.2370  -13.2364 C   0  0  0  0  0  0  0  0  0  0  0  0
   18.7297  -20.7485  -13.9951 O   0  0  0  0  0  0  0  0  0  0  0  0
   19.7042  -21.1089  -11.9990 O   0  0  0  0  0  0  0  0  0  0  0  0
  2  1  1  1
  2  3  1  0
  4  2  1  0
  5  7  1  0
  5  4  1  0
  5  6  1  6
  7  8  2  0
  9 10  1  0
  9  7  1  0
 10 11  1  1
 12 13  2  0
 12 11  1  0
 14 13  1  0
 15 14  2  0
 16 17  2  0
 16 15  1  0
 17 12  1  0
 18 10  1  0
 19 18  2  0
 21 20  1  1
 21 22  1  0
 22 18  1  0
 23 21  1  0
 23 24  1  0
 25 23  2  0
M  END
$$$$
