LFA.pdb
     RDKit          3D

 25 25  0  0  1  0  0  0  0  0999 V2000
   27.9431  -19.9622  -17.3248 C   0  0  0  0  0  0  0  0  0  0  0  0
   28.8697  -20.3022  -16.1496 C   0  0  2  0  0  0  0  0  0  0  0  0
   29.9208  -21.2406  -16.6252 C   0  0  0  0  0  0  0  0  0  0  0  0
   27.9927  -20.8491  -15.0603 C   0  0  0  0  0  0  0  0  0  0  0  0
   26.8434  -19.9595  -14.7053 C   0  0  2  0  0  0  0  0  0  0  0  0
   27.2431  -18.8291  -13.8873 N   0  0  0  0  0  0  0  0  0  0  0  0
   25.8865  -20.7564  -13.8909 C   0  0  0  0  0  0  0  0  0  0  0  0
   25.6106  -21.9465  -14.1284 O   0  0  0  0  0  0  0  0  0  0  0  0
   25.2427  -20.1517  -12.7821 N   0  0  0  0  0  0  0  0  0  0  0  0
   24.3282  -20.7945  -11.9071 C   0  0  1  0  0  0  0  0  0  0  0  0
   24.3242  -20.3187  -10.4953 C   0  0  0  0  0  0  0  0  0  0  0  0
   25.6149  -20.4811   -9.8090 C   0  0  0  0  0  0  0  0  0  0  0  0
   26.0345  -19.5561   -8.8829 C   0  0  0  0  0  0  0  0  0  0  0  0
   27.2389  -19.6709   -8.2160 C   0  0  0  0  0  0  0  0  0  0  0  0
   28.0551  -20.7341   -8.4726 C   0  0  0  0  0  0  0  0  0  0  0  0
   27.6661  -21.6774   -9.3928 C   0  0  0  0  0  0  0  0  0  0  0  0
   26.4589  -21.5412  -10.0460 C   0  0  0  0  0  0  0  0  0  0  0  0
   22.9646  -20.6984  -12.4767 C   0  0  0  0  0  0  0  0  0  0  0  0
   22.5458  -19.6065  -12.9179 O   0  0  0  0  0  0  0  0  0  0  0  0
   20.6456  -22.7790  -14.2639 C   0  0  0  0  0  0  0  0  0  0  0  0
   20.7804  -21.7225  -13.1906 C   0  0  2  0  0  0  0  0  0  0  0  0
   22.0792  -21.8212  -12.5498 N   0  0  0  0  0  0  0  0  0  0  0  0
   19.7059  -21.8252  -12.1670 C   0  0  0  0  0  0  0  0  0  0  0  0
   19.9515  -22.2100  -10.8624 O   0  0  0  0  0  0  0  0  0  0  0  0
   18.5300  -21.5572  -12.4802 O   0  0  0  0  0  0  0  0  0  0  0  0
  2  1  1  6
  2  3  1  0
  4  2  1  0
  5  7  1  0
  5  4  1  0
  5  6  1  1
  7  8  2  0
  9 10  1  0
  9  7  1  0
 10 11  1  1
 12 13  2  0
 12 11  1  0
 14 13  1  0
 15 14  2  0
 16 17  2  0
 16 15  1  0
 17 12  1  0
 18 10  1  0
 19 18  2  0
 21 20  1  6
 21 22  1  0
 22 18  1  0
 23 21  1  0
 23 24  1  0
 25 23  2  0
M  END
$$$$
