LFA.pdb
     RDKit          3D

 25 25  0  0  1  0  0  0  0  0999 V2000
   26.8247  -19.6796  -20.5361 C   0  0  0  0  0  0  0  0  0  0  0  0
   27.9482  -20.2076  -19.6338 C   0  0  2  0  0  0  0  0  0  0  0  0
   28.8061  -21.1276  -20.4268 C   0  0  0  0  0  0  0  0  0  0  0  0
   27.2795  -20.8446  -18.4498 C   0  0  0  0  0  0  0  0  0  0  0  0
   26.3377  -19.9353  -17.7254 C   0  0  2  0  0  0  0  0  0  0  0  0
   26.9406  -18.6583  -17.3898 N   0  0  0  0  0  0  0  0  0  0  0  0
   25.9772  -20.5869  -16.4372 C   0  0  0  0  0  0  0  0  0  0  0  0
   25.5314  -21.7460  -16.3574 O   0  0  0  0  0  0  0  0  0  0  0  0
   26.1409  -19.8715  -15.2244 N   0  0  0  0  0  0  0  0  0  0  0  0
   25.7610  -20.3322  -13.9365 C   0  0  1  0  0  0  0  0  0  0  0  0
   26.5106  -19.7564  -12.7849 C   0  0  0  0  0  0  0  0  0  0  0  0
   26.0937  -20.2874  -11.4782 C   0  0  0  0  0  0  0  0  0  0  0  0
   25.1156  -19.6558  -10.7477 C   0  0  0  0  0  0  0  0  0  0  0  0
   24.6948  -20.1210   -9.5169 C   0  0  0  0  0  0  0  0  0  0  0  0
   25.2588  -21.2469   -8.9908 C   0  0  0  0  0  0  0  0  0  0  0  0
   26.2395  -21.9031   -9.6949 C   0  0  0  0  0  0  0  0  0  0  0  0
   26.6430  -21.4193  -10.9219 C   0  0  0  0  0  0  0  0  0  0  0  0
   24.3078  -20.1138  -13.7537 C   0  0  0  0  0  0  0  0  0  0  0  0
   23.8213  -18.9733  -13.9111 O   0  0  0  0  0  0  0  0  0  0  0  0
   21.2345  -21.9915  -14.1089 C   0  0  0  0  0  0  0  0  0  0  0  0
   21.9772  -20.9482  -13.3052 C   0  0  2  0  0  0  0  0  0  0  0  0
   23.4089  -21.1695  -13.3969 N   0  0  0  0  0  0  0  0  0  0  0  0
   21.5603  -20.9412  -11.8772 C   0  0  0  0  0  0  0  0  0  0  0  0
   20.3968  -20.3354  -11.4418 O   0  0  0  0  0  0  0  0  0  0  0  0
   22.2769  -21.4994  -11.0242 O   0  0  0  0  0  0  0  0  0  0  0  0
  2  1  1  6
  2  3  1  0
  4  2  1  0
  5  7  1  0
  5  4  1  0
  5  6  1  1
  7  8  2  0
  9 10  1  0
  9  7  1  0
 10 11  1  1
 12 13  2  0
 12 11  1  0
 14 13  1  0
 15 14  2  0
 16 17  2  0
 16 15  1  0
 17 12  1  0
 18 10  1  0
 19 18  2  0
 21 20  1  6
 21 22  1  0
 22 18  1  0
 23 21  1  0
 23 24  1  0
 25 23  2  0
M  END
$$$$
