LFA.pdb
     RDKit          3D

 25 25  0  0  1  0  0  0  0  0999 V2000
   17.4673  -10.9282  -21.8112 C   0  0  0  0  0  0  0  0  0  0  0  0
   18.7938  -11.2403  -21.1053 C   0  0  2  0  0  0  0  0  0  0  0  0
   19.4554  -12.3712  -21.8087 C   0  0  0  0  0  0  0  0  0  0  0  0
   18.4573  -11.5121  -19.6674 C   0  0  0  0  0  0  0  0  0  0  0  0
   19.6479  -11.8197  -18.8153 C   0  0  2  0  0  0  0  0  0  0  0  0
   19.6362  -13.1796  -18.3080 N   0  0  0  0  0  0  0  0  0  0  0  0
   19.6017  -10.9229  -17.6288 C   0  0  0  0  0  0  0  0  0  0  0  0
   18.8339  -11.1006  -16.6657 O   0  0  0  0  0  0  0  0  0  0  0  0
   20.4667   -9.8015  -17.5686 N   0  0  0  0  0  0  0  0  0  0  0  0
   20.5435   -8.8747  -16.4960 C   0  0  1  0  0  0  0  0  0  0  0  0
   21.8657   -8.7611  -15.8189 C   0  0  0  0  0  0  0  0  0  0  0  0
   21.8884   -7.7865  -14.7175 C   0  0  0  0  0  0  0  0  0  0  0  0
   21.5129   -8.1581  -13.4485 C   0  0  0  0  0  0  0  0  0  0  0  0
   21.5197   -7.2747  -12.3865 C   0  0  0  0  0  0  0  0  0  0  0  0
   21.9101   -5.9821  -12.5849 C   0  0  0  0  0  0  0  0  0  0  0  0
   22.2918   -5.5772  -13.8412 C   0  0  0  0  0  0  0  0  0  0  0  0
   22.2767   -6.4777  -14.8860 C   0  0  0  0  0  0  0  0  0  0  0  0
   20.1045   -7.5437  -16.9742 C   0  0  0  0  0  0  0  0  0  0  0  0
   20.6956   -6.9951  -17.9291 O   0  0  0  0  0  0  0  0  0  0  0  0
   17.1502   -5.4390  -17.0934 C   0  0  0  0  0  0  0  0  0  0  0  0
   18.6375   -5.5050  -16.8293 C   0  0  2  0  0  0  0  0  0  0  0  0
   19.0094   -6.8355  -16.3833 N   0  0  0  0  0  0  0  0  0  0  0  0
   19.0720   -4.4984  -15.8239 C   0  0  0  0  0  0  0  0  0  0  0  0
   19.4586   -3.2170  -16.1688 O   0  0  0  0  0  0  0  0  0  0  0  0
   19.0949   -4.8049  -14.6163 O   0  0  0  0  0  0  0  0  0  0  0  0
  2  1  1  6
  2  3  1  0
  4  2  1  0
  5  7  1  0
  5  4  1  0
  5  6  1  1
  7  8  2  0
  9 10  1  0
  9  7  1  0
 10 11  1  6
 12 13  2  0
 12 11  1  0
 14 13  1  0
 15 14  2  0
 16 17  2  0
 16 15  1  0
 17 12  1  0
 18 10  1  0
 19 18  2  0
 21 20  1  1
 21 22  1  0
 22 18  1  0
 23 21  1  0
 23 24  1  0
 25 23  2  0
M  END
$$$$
