LFA.pdb
     RDKit          3D

 25 25  0  0  1  0  0  0  0  0999 V2000
   28.8134  -20.6456  -19.9329 C   0  0  0  0  0  0  0  0  0  0  0  0
   29.6863  -20.6830  -18.6712 C   0  0  2  0  0  0  0  0  0  0  0  0
   30.9640  -21.3721  -18.9938 C   0  0  0  0  0  0  0  0  0  0  0  0
   28.8675  -21.3549  -17.6068 C   0  0  0  0  0  0  0  0  0  0  0  0
   27.5362  -20.7135  -17.3728 C   0  0  2  0  0  0  0  0  0  0  0  0
   27.6228  -19.2686  -17.2658 N   0  0  0  0  0  0  0  0  0  0  0  0
   27.0173  -21.2063  -16.0682 C   0  0  0  0  0  0  0  0  0  0  0  0
   26.9093  -22.4135  -15.7862 O   0  0  0  0  0  0  0  0  0  0  0  0
   26.6189  -20.2723  -15.0790 N   0  0  0  0  0  0  0  0  0  0  0  0
   26.0546  -20.5963  -13.8173 C   0  0  1  0  0  0  0  0  0  0  0  0
   26.4405  -19.7160  -12.6791 C   0  0  0  0  0  0  0  0  0  0  0  0
   25.9385  -20.1752  -11.3750 C   0  0  0  0  0  0  0  0  0  0  0  0
   24.6668  -19.8542  -10.9640 C   0  0  0  0  0  0  0  0  0  0  0  0
   24.1566  -20.2649   -9.7477 C   0  0  0  0  0  0  0  0  0  0  0  0
   24.9282  -21.0173   -8.9103 C   0  0  0  0  0  0  0  0  0  0  0  0
   26.2045  -21.3562   -9.2902 C   0  0  0  0  0  0  0  0  0  0  0  0
   26.6918  -20.9343  -10.5097 C   0  0  0  0  0  0  0  0  0  0  0  0
   24.5798  -20.6414  -13.9441 C   0  0  0  0  0  0  0  0  0  0  0  0
   23.9478  -19.6139  -14.2713 O   0  0  0  0  0  0  0  0  0  0  0  0
   21.9366  -23.2903  -14.1855 C   0  0  0  0  0  0  0  0  0  0  0  0
   22.3860  -21.8724  -13.9138 C   0  0  2  0  0  0  0  0  0  0  0  0
   23.8220  -21.8323  -13.7050 N   0  0  0  0  0  0  0  0  0  0  0  0
   21.6907  -21.2809  -12.7391 C   0  0  0  0  0  0  0  0  0  0  0  0
   22.3280  -21.0424  -11.5362 O   0  0  0  0  0  0  0  0  0  0  0  0
   20.4841  -20.9819  -12.8246 O   0  0  0  0  0  0  0  0  0  0  0  0
  2  1  1  6
  2  3  1  0
  4  2  1  0
  5  7  1  0
  5  4  1  0
  5  6  1  1
  7  8  2  0
  9 10  1  0
  9  7  1  0
 10 11  1  1
 12 13  2  0
 12 11  1  0
 14 13  1  0
 15 14  2  0
 16 17  2  0
 16 15  1  0
 17 12  1  0
 18 10  1  0
 19 18  2  0
 21 20  1  1
 21 22  1  0
 22 18  1  0
 23 21  1  0
 23 24  1  0
 25 23  2  0
M  END
$$$$
