LFA.pdb
     RDKit          3D

 25 25  0  0  1  0  0  0  0  0999 V2000
   29.6426  -25.8378  -20.0457 C   0  0  0  0  0  0  0  0  0  0  0  0
   30.2102  -25.2352  -18.7535 C   0  0  2  0  0  0  0  0  0  0  0  0
   31.4374  -24.4632  -19.0845 C   0  0  0  0  0  0  0  0  0  0  0  0
   30.4313  -26.3823  -17.8100 C   0  0  0  0  0  0  0  0  0  0  0  0
   29.1874  -27.1485  -17.4875 C   0  0  2  0  0  0  0  0  0  0  0  0
   28.3626  -26.4836  -16.4953 N   0  0  0  0  0  0  0  0  0  0  0  0
   29.5965  -28.4513  -16.8965 C   0  0  0  0  0  0  0  0  0  0  0  0
   29.6997  -28.6453  -15.6716 O   0  0  0  0  0  0  0  0  0  0  0  0
   29.8891  -29.5434  -17.7517 N   0  0  0  0  0  0  0  0  0  0  0  0
   30.1549  -30.8730  -17.3312 C   0  0  1  0  0  0  0  0  0  0  0  0
   29.1514  -31.9006  -17.7270 C   0  0  0  0  0  0  0  0  0  0  0  0
   27.8819  -31.8074  -16.9902 C   0  0  0  0  0  0  0  0  0  0  0  0
   26.8304  -31.0835  -17.4998 C   0  0  0  0  0  0  0  0  0  0  0  0
   25.6217  -30.9704  -16.8405 C   0  0  0  0  0  0  0  0  0  0  0  0
   25.4463  -31.5928  -15.6387 C   0  0  0  0  0  0  0  0  0  0  0  0
   26.4772  -32.3247  -15.1005 C   0  0  0  0  0  0  0  0  0  0  0  0
   27.6749  -32.4231  -15.7776 C   0  0  0  0  0  0  0  0  0  0  0  0
   31.5000  -31.2708  -17.8060 C   0  0  0  0  0  0  0  0  0  0  0  0
   31.9318  -30.8399  -18.8969 O   0  0  0  0  0  0  0  0  0  0  0  0
   34.3806  -33.3768  -16.5268 C   0  0  0  0  0  0  0  0  0  0  0  0
   33.6577  -32.5406  -17.5585 C   0  0  2  0  0  0  0  0  0  0  0  0
   32.3528  -32.1461  -17.0598 N   0  0  0  0  0  0  0  0  0  0  0  0
   33.5052  -33.2582  -18.8526 C   0  0  0  0  0  0  0  0  0  0  0  0
   32.4034  -34.0383  -19.1487 O   0  0  0  0  0  0  0  0  0  0  0  0
   34.3973  -33.1638  -19.7175 O   0  0  0  0  0  0  0  0  0  0  0  0
  2  1  1  6
  2  3  1  0
  4  2  1  0
  5  7  1  0
  5  4  1  0
  5  6  1  1
  7  8  2  0
  9 10  1  0
  9  7  1  0
 10 11  1  6
 12 13  2  0
 12 11  1  0
 14 13  1  0
 15 14  2  0
 16 17  2  0
 16 15  1  0
 17 12  1  0
 18 10  1  0
 19 18  2  0
 21 20  1  1
 21 22  1  0
 22 18  1  0
 23 21  1  0
 23 24  1  0
 25 23  2  0
M  END
$$$$
