LFA.pdb
     RDKit          3D

 25 25  0  0  1  0  0  0  0  0999 V2000
   14.3071   -9.3984  -17.9090 C   0  0  0  0  0  0  0  0  0  0  0  0
   13.6293  -10.2520  -16.8286 C   0  0  2  0  0  0  0  0  0  0  0  0
   12.2654   -9.7142  -16.5799 C   0  0  0  0  0  0  0  0  0  0  0  0
   14.5373  -10.2251  -15.6330 C   0  0  0  0  0  0  0  0  0  0  0  0
   15.9264  -10.7024  -15.9175 C   0  0  2  0  0  0  0  0  0  0  0  0
   16.0190  -12.1497  -15.9780 N   0  0  0  0  0  0  0  0  0  0  0  0
   16.7962  -10.2674  -14.7913 C   0  0  0  0  0  0  0  0  0  0  0  0
   16.8604  -10.8690  -13.7039 O   0  0  0  0  0  0  0  0  0  0  0  0
   17.6027   -9.1112  -14.9400 N   0  0  0  0  0  0  0  0  0  0  0  0
   18.4844   -8.5879  -13.9581 C   0  0  1  0  0  0  0  0  0  0  0  0
   19.8376   -8.1878  -14.4360 C   0  0  0  0  0  0  0  0  0  0  0  0
   20.7354   -7.7293  -13.3650 C   0  0  0  0  0  0  0  0  0  0  0  0
   21.3177   -8.6322  -12.5077 C   0  0  0  0  0  0  0  0  0  0  0  0
   22.1664   -8.2439  -11.4892 C   0  0  0  0  0  0  0  0  0  0  0  0
   22.4488   -6.9205  -11.3121 C   0  0  0  0  0  0  0  0  0  0  0  0
   21.8835   -5.9911  -12.1515 C   0  0  0  0  0  0  0  0  0  0  0  0
   21.0391   -6.4031  -13.1614 C   0  0  0  0  0  0  0  0  0  0  0  0
   17.8299   -7.4458  -13.2795 C   0  0  0  0  0  0  0  0  0  0  0  0
   17.2269   -6.5807  -13.9506 O   0  0  0  0  0  0  0  0  0  0  0  0
   17.2506   -6.2980   -9.7160 C   0  0  0  0  0  0  0  0  0  0  0  0
   17.2309   -6.1328  -11.2188 C   0  0  2  0  0  0  0  0  0  0  0  0
   17.8532   -7.2781  -11.8578 N   0  0  0  0  0  0  0  0  0  0  0  0
   17.9121   -4.8836  -11.6530 C   0  0  0  0  0  0  0  0  0  0  0  0
   17.3447   -3.6324  -11.5022 O   0  0  0  0  0  0  0  0  0  0  0  0
   19.0412   -4.9483  -12.1761 O   0  0  0  0  0  0  0  0  0  0  0  0
  2  1  1  6
  2  3  1  0
  4  2  1  0
  5  7  1  0
  5  4  1  0
  5  6  1  1
  7  8  2  0
  9 10  1  0
  9  7  1  0
 10 11  1  6
 12 13  2  0
 12 11  1  0
 14 13  1  0
 15 14  2  0
 16 17  2  0
 16 15  1  0
 17 12  1  0
 18 10  1  0
 19 18  2  0
 21 20  1  1
 21 22  1  0
 22 18  1  0
 23 21  1  0
 23 24  1  0
 25 23  2  0
M  END
$$$$
