LFA.pdb
     RDKit          3D

 25 25  0  0  1  0  0  0  0  0999 V2000
   20.8417  -19.9238  -16.0375 C   0  0  0  0  0  0  0  0  0  0  0  0
   21.2788  -20.8430  -14.8889 C   0  0  2  0  0  0  0  0  0  0  0  0
   20.4959  -22.1052  -14.9621 C   0  0  0  0  0  0  0  0  0  0  0  0
   21.0847  -20.0621  -13.6212 C   0  0  0  0  0  0  0  0  0  0  0  0
   21.6432  -20.7329  -12.4061 C   0  0  2  0  0  0  0  0  0  0  0  0
   20.9375  -20.3674  -11.1915 N   0  0  0  0  0  0  0  0  0  0  0  0
   23.0476  -20.2714  -12.2371 C   0  0  0  0  0  0  0  0  0  0  0  0
   23.3536  -19.0999  -11.9494 O   0  0  0  0  0  0  0  0  0  0  0  0
   24.1099  -21.1945  -12.4073 N   0  0  0  0  0  0  0  0  0  0  0  0
   25.4897  -20.9051  -12.2411 C   0  0  1  0  0  0  0  0  0  0  0  0
   26.2224  -21.7428  -11.2507 C   0  0  0  0  0  0  0  0  0  0  0  0
   26.5081  -21.0531   -9.9835 C   0  0  0  0  0  0  0  0  0  0  0  0
   27.8051  -20.8296   -9.5871 C   0  0  0  0  0  0  0  0  0  0  0  0
   28.1171  -20.1859   -8.4052 C   0  0  0  0  0  0  0  0  0  0  0  0
   27.1148  -19.7489   -7.5885 C   0  0  0  0  0  0  0  0  0  0  0  0
   25.8067  -19.9561   -7.9545 C   0  0  0  0  0  0  0  0  0  0  0  0
   25.5202  -20.6012   -9.1396 C   0  0  0  0  0  0  0  0  0  0  0  0
   26.1613  -20.9768  -13.5590 C   0  0  0  0  0  0  0  0  0  0  0  0
   25.9166  -21.9250  -14.3357 O   0  0  0  0  0  0  0  0  0  0  0  0
   28.4303  -18.7435  -15.6087 C   0  0  0  0  0  0  0  0  0  0  0  0
   27.6428  -20.0073  -15.3463 C   0  0  2  0  0  0  0  0  0  0  0  0
   27.1005  -19.9901  -13.9999 N   0  0  0  0  0  0  0  0  0  0  0  0
   28.4672  -21.2303  -15.5404 C   0  0  0  0  0  0  0  0  0  0  0  0
   28.7575  -21.7447  -16.7898 O   0  0  0  0  0  0  0  0  0  0  0  0
   28.9233  -21.8289  -14.5472 O   0  0  0  0  0  0  0  0  0  0  0  0
  2  1  1  6
  2  3  1  0
  4  2  1  0
  5  7  1  0
  5  4  1  0
  5  6  1  1
  7  8  2  0
  9 10  1  0
  9  7  1  0
 10 11  1  1
 12 13  2  0
 12 11  1  0
 14 13  1  0
 15 14  2  0
 16 17  2  0
 16 15  1  0
 17 12  1  0
 18 10  1  0
 19 18  2  0
 21 20  1  1
 21 22  1  0
 22 18  1  0
 23 21  1  0
 23 24  1  0
 25 23  2  0
M  END
$$$$
