EAM.pdb
     RDKit          3D

 23 22  0  0  1  0  0  0  0  0999 V2000
    8.2603  -17.7412   19.1515 N   0  0  0  0  0  0  0  0  0  0  0  0
    8.8166  -16.6514   19.9300 C   0  0  1  0  0  0  0  0  0  0  0  0
    7.6833  -15.7919   20.3890 C   0  0  0  0  0  0  0  0  0  0  0  0
    6.6248  -16.5078   21.1551 C   0  0  0  0  0  0  0  0  0  0  0  0
    6.2650  -15.9022   22.4494 C   0  0  0  0  0  0  0  0  0  0  0  0
    6.1800  -14.6718   22.6690 O   0  0  0  0  0  0  0  0  0  0  0  0
    9.6342  -17.1542   21.0651 C   0  0  0  0  0  0  0  0  0  0  0  0
    9.1968  -18.1279   21.7208 O   0  0  0  0  0  0  0  0  0  0  0  0
    6.0004  -16.7617   23.5048 O   0  0  0  0  0  0  0  0  0  0  0  0
   13.0894  -16.6545   22.3470 C   0  0  0  0  0  0  0  0  0  0  0  0
   11.6571  -17.0447   22.5686 C   0  0  2  0  0  0  0  0  0  0  0  0
   10.8765  -16.6028   21.4531 N   0  0  0  0  0  0  0  0  0  0  0  0
   11.1195  -16.5977   23.8679 C   0  0  0  0  0  0  0  0  0  0  0  0
   11.6690  -16.9945   24.9143 O   0  0  0  0  0  0  0  0  0  0  0  0
    6.7678  -11.2430   26.5649 C   0  0  0  0  0  0  0  0  0  0  0  0
    6.2135  -12.9458   26.2848 S   0  0  0  0  0  0  0  0  0  0  0  0
    7.6434  -14.0384   26.4575 C   0  0  0  0  0  0  0  0  0  0  0  0
    8.2005  -14.4576   25.1172 C   0  0  0  0  0  0  0  0  0  0  0  0
    9.4199  -15.3295   25.2503 C   0  0  2  0  0  0  0  0  0  0  0  0
   10.0021  -15.7333   24.0119 N   0  0  0  0  0  0  0  0  0  0  0  0
    9.1736  -16.5109   26.1163 C   0  0  0  0  0  0  0  0  0  0  0  0
    9.2216  -16.4567   27.3727 O   0  0  0  0  0  0  0  0  0  0  0  0
    8.8727  -17.7558   25.5728 O   0  0  0  0  0  0  0  0  0  0  0  0
  2  7  1  0
  2  1  1  1
  3  2  1  0
  3  4  1  0
  4  5  1  0
  5  9  1  0
  5  6  2  0
  7  8  2  0
 11 10  1  6
 12 11  1  0
 12  7  1  0
 13 14  2  0
 13 11  1  0
 16 15  1  0
 17 16  1  0
 18 17  1  0
 19 20  1  0
 19 18  1  6
 20 13  1  0
 21 19  1  0
 22 21  2  0
 23 21  1  0
M  END
$$$$
