EAM.pdb
     RDKit          3D

 23 22  0  0  1  0  0  0  0  0999 V2000
    6.2937  -19.7696   20.8885 N   0  0  0  0  0  0  0  0  0  0  0  0
    6.3591  -18.7870   21.9531 C   0  0  1  0  0  0  0  0  0  0  0  0
    6.7547  -19.4971   23.2075 C   0  0  0  0  0  0  0  0  0  0  0  0
    6.9406  -18.6155   24.3941 C   0  0  0  0  0  0  0  0  0  0  0  0
    7.3053  -19.3080   25.6426 C   0  0  0  0  0  0  0  0  0  0  0  0
    7.5342  -20.5355   25.7439 O   0  0  0  0  0  0  0  0  0  0  0  0
    7.2932  -17.6805   21.6172 C   0  0  0  0  0  0  0  0  0  0  0  0
    8.4681  -17.9769   21.2991 O   0  0  0  0  0  0  0  0  0  0  0  0
    7.4023  -18.5406   26.7933 O   0  0  0  0  0  0  0  0  0  0  0  0
    7.1198  -14.0672   20.8414 C   0  0  0  0  0  0  0  0  0  0  0  0
    7.8549  -15.2269   21.4479 C   0  0  2  0  0  0  0  0  0  0  0  0
    6.9399  -16.3120   21.6335 N   0  0  0  0  0  0  0  0  0  0  0  0
    8.5979  -14.8767   22.6736 C   0  0  0  0  0  0  0  0  0  0  0  0
    9.5742  -14.1064   22.5853 O   0  0  0  0  0  0  0  0  0  0  0  0
    6.1152  -10.5796   26.2288 C   0  0  0  0  0  0  0  0  0  0  0  0
    6.6388  -12.1692   26.9247 S   0  0  0  0  0  0  0  0  0  0  0  0
    7.6512  -13.0174   25.6902 C   0  0  0  0  0  0  0  0  0  0  0  0
    8.1937  -14.3291   26.2076 C   0  0  0  0  0  0  0  0  0  0  0  0
    8.9881  -15.0716   25.1671 C   0  0  2  0  0  0  0  0  0  0  0  0
    8.2733  -15.3637   23.9674 N   0  0  0  0  0  0  0  0  0  0  0  0
    9.6121  -16.3048   25.7114 C   0  0  0  0  0  0  0  0  0  0  0  0
   10.3190  -16.3083   26.7527 O   0  0  0  0  0  0  0  0  0  0  0  0
    9.4434  -17.5367   25.0874 O   0  0  0  0  0  0  0  0  0  0  0  0
  2  7  1  0
  2  1  1  6
  3  2  1  0
  3  4  1  0
  4  5  1  0
  5  9  1  0
  5  6  2  0
  7  8  2  0
 11 10  1  1
 12 11  1  0
 12  7  1  0
 13 14  2  0
 13 11  1  0
 16 15  1  0
 17 16  1  0
 18 17  1  0
 19 20  1  0
 19 18  1  1
 20 13  1  0
 21 19  1  0
 22 21  2  0
 23 21  1  0
M  END
$$$$
