EAM.pdb
     RDKit          3D

 23 22  0  0  1  0  0  0  0  0999 V2000
    9.7937  -13.5109   18.9898 N   0  0  0  0  0  0  0  0  0  0  0  0
    8.3590  -13.6647   19.1350 C   0  0  1  0  0  0  0  0  0  0  0  0
    7.7922  -13.9659   17.7852 C   0  0  0  0  0  0  0  0  0  0  0  0
    8.6444  -13.5416   16.6392 C   0  0  0  0  0  0  0  0  0  0  0  0
    8.1011  -13.8450   15.3035 C   0  0  0  0  0  0  0  0  0  0  0  0
    7.0306  -14.4579   15.0847 O   0  0  0  0  0  0  0  0  0  0  0  0
    8.0213  -14.7145   20.1317 C   0  0  0  0  0  0  0  0  0  0  0  0
    6.8110  -14.9347   20.3689 O   0  0  0  0  0  0  0  0  0  0  0  0
    8.8318  -13.4186   14.2051 O   0  0  0  0  0  0  0  0  0  0  0  0
    9.2996  -17.7796   21.3960 C   0  0  0  0  0  0  0  0  0  0  0  0
    8.6755  -16.4793   21.8117 C   0  0  2  0  0  0  0  0  0  0  0  0
    8.9803  -15.4823   20.8307 N   0  0  0  0  0  0  0  0  0  0  0  0
    9.0267  -16.0702   23.1851 C   0  0  0  0  0  0  0  0  0  0  0  0
   10.2159  -15.8034   23.4472 O   0  0  0  0  0  0  0  0  0  0  0  0
    6.3419  -10.5317   25.9516 C   0  0  0  0  0  0  0  0  0  0  0  0
    6.0873  -12.2481   26.4758 S   0  0  0  0  0  0  0  0  0  0  0  0
    7.3900  -13.2608   25.7372 C   0  0  0  0  0  0  0  0  0  0  0  0
    7.3435  -14.6889   26.2282 C   0  0  0  0  0  0  0  0  0  0  0  0
    8.3919  -15.5526   25.5802 C   0  0  2  0  0  0  0  0  0  0  0  0
    8.0895  -15.9574   24.2460 N   0  0  0  0  0  0  0  0  0  0  0  0
    8.7407  -16.7321   26.4129 C   0  0  0  0  0  0  0  0  0  0  0  0
    8.2211  -17.8654   26.2408 O   0  0  0  0  0  0  0  0  0  0  0  0
    9.6739  -16.6413   27.4408 O   0  0  0  0  0  0  0  0  0  0  0  0
  2  7  1  0
  2  1  1  6
  3  2  1  0
  3  4  1  0
  4  5  1  0
  5  9  1  0
  5  6  2  0
  7  8  2  0
 11 10  1  6
 12 11  1  0
 12  7  1  0
 13 14  2  0
 13 11  1  0
 16 15  1  0
 17 16  1  0
 18 17  1  0
 19 20  1  0
 19 18  1  1
 20 13  1  0
 21 19  1  0
 22 21  2  0
 23 21  1  0
M  END
$$$$
