EAM.pdb
     RDKit          3D

 23 22  0  0  1  0  0  0  0  0999 V2000
    8.1209  -17.9113   25.4794 N   0  0  0  0  0  0  0  0  0  0  0  0
    8.2991  -19.2849   25.0499 C   0  0  1  0  0  0  0  0  0  0  0  0
    8.2160  -20.1574   26.2607 C   0  0  0  0  0  0  0  0  0  0  0  0
    8.2449  -19.4293   27.5602 C   0  0  0  0  0  0  0  0  0  0  0  0
    8.9911  -20.0981   28.6407 C   0  0  0  0  0  0  0  0  0  0  0  0
   10.0083  -19.6345   29.2063 O   0  0  0  0  0  0  0  0  0  0  0  0
    7.3025  -19.6662   24.0150 C   0  0  0  0  0  0  0  0  0  0  0  0
    6.3882  -20.4584   24.3405 O   0  0  0  0  0  0  0  0  0  0  0  0
    8.5308  -21.3360   29.0630 O   0  0  0  0  0  0  0  0  0  0  0  0
    5.0555  -18.4364   22.6607 C   0  0  0  0  0  0  0  0  0  0  0  0
    6.4482  -18.1831   22.1615 C   0  0  2  0  0  0  0  0  0  0  0  0
    7.3201  -19.1911   22.6839 N   0  0  0  0  0  0  0  0  0  0  0  0
    6.9255  -16.8110   22.4191 C   0  0  0  0  0  0  0  0  0  0  0  0
    6.1839  -15.8521   22.1278 O   0  0  0  0  0  0  0  0  0  0  0  0
    6.7371  -11.6599   27.3899 C   0  0  0  0  0  0  0  0  0  0  0  0
    6.2089  -13.0903   26.4100 S   0  0  0  0  0  0  0  0  0  0  0  0
    7.6316  -13.6793   25.4628 C   0  0  0  0  0  0  0  0  0  0  0  0
    7.2821  -14.8662   24.5958 C   0  0  0  0  0  0  0  0  0  0  0  0
    8.4699  -15.3898   23.8342 C   0  0  2  0  0  0  0  0  0  0  0  0
    8.1907  -16.5016   22.9848 N   0  0  0  0  0  0  0  0  0  0  0  0
    9.6183  -15.6947   24.7256 C   0  0  0  0  0  0  0  0  0  0  0  0
    9.8785  -16.8585   25.1279 O   0  0  0  0  0  0  0  0  0  0  0  0
   10.4770  -14.6930   25.1670 O   0  0  0  0  0  0  0  0  0  0  0  0
  2  7  1  0
  2  1  1  1
  3  2  1  0
  3  4  1  0
  4  5  1  0
  5  9  1  0
  5  6  2  0
  7  8  2  0
 11 10  1  1
 12 11  1  0
 12  7  1  0
 13 14  2  0
 13 11  1  0
 16 15  1  0
 17 16  1  0
 18 17  1  0
 19 20  1  0
 19 18  1  1
 20 13  1  0
 21 19  1  0
 22 21  2  0
 23 21  1  0
M  END
$$$$
