EAM.pdb
     RDKit          3D

 23 22  0  0  1  0  0  0  0  0999 V2000
    8.0939  -19.9192   21.3051 N   0  0  0  0  0  0  0  0  0  0  0  0
    7.2535  -18.8496   21.8078 C   0  0  1  0  0  0  0  0  0  0  0  0
    6.9548  -19.1387   23.2435 C   0  0  0  0  0  0  0  0  0  0  0  0
    6.7629  -20.5808   23.5651 C   0  0  0  0  0  0  0  0  0  0  0  0
    6.2378  -20.8613   24.9130 C   0  0  0  0  0  0  0  0  0  0  0  0
    5.8981  -19.9914   25.7480 O   0  0  0  0  0  0  0  0  0  0  0  0
    7.8946  -17.5209   21.6253 C   0  0  0  0  0  0  0  0  0  0  0  0
    9.1404  -17.4474   21.7357 O   0  0  0  0  0  0  0  0  0  0  0  0
    6.1102  -22.1911   25.2844 O   0  0  0  0  0  0  0  0  0  0  0  0
    6.7467  -14.0629   20.7389 C   0  0  0  0  0  0  0  0  0  0  0  0
    7.7720  -15.0278   21.2594 C   0  0  2  0  0  0  0  0  0  0  0  0
    7.1873  -16.3323   21.3345 N   0  0  0  0  0  0  0  0  0  0  0  0
    8.3968  -14.5970   22.5247 C   0  0  0  0  0  0  0  0  0  0  0  0
    9.0509  -13.5358   22.5413 O   0  0  0  0  0  0  0  0  0  0  0  0
    6.3428  -10.3639   26.8405 C   0  0  0  0  0  0  0  0  0  0  0  0
    6.3080  -12.1739   26.9300 S   0  0  0  0  0  0  0  0  0  0  0  0
    7.6257  -12.8147   25.8710 C   0  0  0  0  0  0  0  0  0  0  0  0
    7.7118  -14.3221   25.9243 C   0  0  0  0  0  0  0  0  0  0  0  0
    8.7774  -14.8683   25.0125 C   0  0  2  0  0  0  0  0  0  0  0  0
    8.3036  -15.3184   23.7443 N   0  0  0  0  0  0  0  0  0  0  0  0
    9.5885  -15.9264   25.6676 C   0  0  0  0  0  0  0  0  0  0  0  0
    9.4228  -17.1525   25.4375 O   0  0  0  0  0  0  0  0  0  0  0  0
   10.5875  -15.6094   26.5825 O   0  0  0  0  0  0  0  0  0  0  0  0
  2  7  1  0
  2  1  1  1
  3  2  1  0
  3  4  1  0
  4  5  1  0
  5  9  1  0
  5  6  2  0
  7  8  2  0
 11 10  1  1
 12 11  1  0
 12  7  1  0
 13 14  2  0
 13 11  1  0
 16 15  1  0
 17 16  1  0
 18 17  1  0
 19 20  1  0
 19 18  1  1
 20 13  1  0
 21 19  1  0
 22 21  2  0
 23 21  1  0
M  END
$$$$
