EAM.pdb
     RDKit          3D

 23 22  0  0  1  0  0  0  0  0999 V2000
    6.3194  -19.7374   18.8370 N   0  0  0  0  0  0  0  0  0  0  0  0
    7.5257  -19.3946   19.5654 C   0  0  1  0  0  0  0  0  0  0  0  0
    8.2105  -18.2923   18.8237 C   0  0  0  0  0  0  0  0  0  0  0  0
    8.4516  -18.5652   17.3790 C   0  0  0  0  0  0  0  0  0  0  0  0
    9.1631  -17.5024   16.6472 C   0  0  0  0  0  0  0  0  0  0  0  0
    9.0953  -17.3108   15.4110 O   0  0  0  0  0  0  0  0  0  0  0  0
    7.2254  -19.0211   20.9725 C   0  0  0  0  0  0  0  0  0  0  0  0
    6.3227  -18.1772   21.1786 O   0  0  0  0  0  0  0  0  0  0  0  0
    9.9695  -16.6492   17.3849 O   0  0  0  0  0  0  0  0  0  0  0  0
    8.2314  -20.2095   24.3676 C   0  0  0  0  0  0  0  0  0  0  0  0
    7.6671  -19.1621   23.4524 C   0  0  2  0  0  0  0  0  0  0  0  0
    7.8944  -19.5584   22.0957 N   0  0  0  0  0  0  0  0  0  0  0  0
    8.1496  -17.7996   23.7487 C   0  0  0  0  0  0  0  0  0  0  0  0
    9.0799  -17.3294   23.0648 O   0  0  0  0  0  0  0  0  0  0  0  0
    6.8242  -10.5710   26.5842 C   0  0  0  0  0  0  0  0  0  0  0  0
    6.1118  -12.1101   25.9447 S   0  0  0  0  0  0  0  0  0  0  0  0
    7.4525  -13.3038   25.7301 C   0  0  0  0  0  0  0  0  0  0  0  0
    6.9399  -14.6605   25.3070 C   0  0  0  0  0  0  0  0  0  0  0  0
    8.0523  -15.6484   25.0793 C   0  0  2  0  0  0  0  0  0  0  0  0
    7.6198  -16.9735   24.7750 N   0  0  0  0  0  0  0  0  0  0  0  0
    9.0258  -15.6661   26.2010 C   0  0  0  0  0  0  0  0  0  0  0  0
    8.9656  -16.4992   27.1425 O   0  0  0  0  0  0  0  0  0  0  0  0
   10.0690  -14.7481   26.2678 O   0  0  0  0  0  0  0  0  0  0  0  0
  2  7  1  0
  2  1  1  6
  3  2  1  0
  3  4  1  0
  4  5  1  0
  5  9  1  0
  5  6  2  0
  7  8  2  0
 11 10  1  1
 12 11  1  0
 12  7  1  0
 13 14  2  0
 13 11  1  0
 16 15  1  0
 17 16  1  0
 18 17  1  0
 19 20  1  0
 19 18  1  1
 20 13  1  0
 21 19  1  0
 22 21  2  0
 23 21  1  0
M  END
$$$$
