EAM.pdb
     RDKit          3D

 23 22  0  0  1  0  0  0  0  0999 V2000
    9.8001  -17.0803   17.3392 N   0  0  0  0  0  0  0  0  0  0  0  0
    9.8573  -17.6016   18.6912 C   0  0  1  0  0  0  0  0  0  0  0  0
   11.2912  -17.8675   19.0188 C   0  0  0  0  0  0  0  0  0  0  0  0
   11.9125  -18.9829   18.2510 C   0  0  0  0  0  0  0  0  0  0  0  0
   13.0077  -19.6884   18.9395 C   0  0  0  0  0  0  0  0  0  0  0  0
   13.5963  -20.7041   18.5020 O   0  0  0  0  0  0  0  0  0  0  0  0
    9.2239  -16.6707   19.6617 C   0  0  0  0  0  0  0  0  0  0  0  0
    9.8021  -15.5852   19.9007 O   0  0  0  0  0  0  0  0  0  0  0  0
   13.4175  -19.1886   20.1662 O   0  0  0  0  0  0  0  0  0  0  0  0
    6.1177  -16.6831   21.7701 C   0  0  0  0  0  0  0  0  0  0  0  0
    7.3877  -16.0525   21.2775 C   0  0  2  0  0  0  0  0  0  0  0  0
    8.0083  -16.9321   20.3339 N   0  0  0  0  0  0  0  0  0  0  0  0
    8.2943  -15.6301   22.3621 C   0  0  0  0  0  0  0  0  0  0  0  0
    9.2095  -14.8247   22.1010 O   0  0  0  0  0  0  0  0  0  0  0  0
    6.5028  -10.8154   27.2016 C   0  0  0  0  0  0  0  0  0  0  0  0
    5.8742  -12.4042   26.5966 S   0  0  0  0  0  0  0  0  0  0  0  0
    7.2845  -13.5053   26.3382 C   0  0  0  0  0  0  0  0  0  0  0  0
    7.1264  -14.3444   25.0918 C   0  0  0  0  0  0  0  0  0  0  0  0
    8.2968  -15.2635   24.8668 C   0  0  2  0  0  0  0  0  0  0  0  0
    8.1955  -16.0840   23.7040 N   0  0  0  0  0  0  0  0  0  0  0  0
    8.5968  -16.0933   26.0616 C   0  0  0  0  0  0  0  0  0  0  0  0
    8.8012  -15.5988   27.2008 O   0  0  0  0  0  0  0  0  0  0  0  0
    8.6680  -17.4803   25.9796 O   0  0  0  0  0  0  0  0  0  0  0  0
  2  7  1  0
  2  1  1  6
  3  2  1  0
  3  4  1  0
  4  5  1  0
  5  9  1  0
  5  6  2  0
  7  8  2  0
 11 10  1  1
 12 11  1  0
 12  7  1  0
 13 14  2  0
 13 11  1  0
 16 15  1  0
 17 16  1  0
 18 17  1  0
 19 20  1  0
 19 18  1  1
 20 13  1  0
 21 19  1  0
 22 21  2  0
 23 21  1  0
M  END
$$$$
