EAM.pdb
     RDKit          3D

 23 22  0  0  1  0  0  0  0  0999 V2000
    9.0087  -17.3164   20.7646 N   0  0  0  0  0  0  0  0  0  0  0  0
    9.6579  -17.3995   22.0588 C   0  0  1  0  0  0  0  0  0  0  0  0
   11.0076  -16.7695   21.9350 C   0  0  0  0  0  0  0  0  0  0  0  0
   12.1351  -17.7306   21.7774 C   0  0  0  0  0  0  0  0  0  0  0  0
   13.4675  -17.1195   21.6262 C   0  0  0  0  0  0  0  0  0  0  0  0
   13.7053  -15.8906   21.6783 O   0  0  0  0  0  0  0  0  0  0  0  0
    8.8374  -16.7625   23.1222 C   0  0  0  0  0  0  0  0  0  0  0  0
    9.1954  -15.6410   23.5506 O   0  0  0  0  0  0  0  0  0  0  0  0
   14.5397  -17.9714   21.4095 O   0  0  0  0  0  0  0  0  0  0  0  0
    8.2010  -19.3303   24.8955 C   0  0  0  0  0  0  0  0  0  0  0  0
    7.6074  -17.9539   24.9748 C   0  0  2  0  0  0  0  0  0  0  0  0
    7.6765  -17.3423   23.6824 N   0  0  0  0  0  0  0  0  0  0  0  0
    8.1916  -17.1216   26.0439 C   0  0  0  0  0  0  0  0  0  0  0  0
    8.1117  -17.5159   27.2239 O   0  0  0  0  0  0  0  0  0  0  0  0
    5.9317  -10.9903   25.8943 C   0  0  0  0  0  0  0  0  0  0  0  0
    6.6729  -11.9976   27.2063 S   0  0  0  0  0  0  0  0  0  0  0  0
    7.8028  -13.1805   26.4367 C   0  0  0  0  0  0  0  0  0  0  0  0
    8.4652  -14.0765   27.4570 C   0  0  0  0  0  0  0  0  0  0  0  0
    9.4220  -15.0530   26.8277 C   0  0  2  0  0  0  0  0  0  0  0  0
    8.8489  -15.8832   25.8188 N   0  0  0  0  0  0  0  0  0  0  0  0
   10.1270  -15.8800   27.8402 C   0  0  0  0  0  0  0  0  0  0  0  0
   11.2798  -15.6038   28.2629 O   0  0  0  0  0  0  0  0  0  0  0  0
    9.5386  -17.0193   28.3801 O   0  0  0  0  0  0  0  0  0  0  0  0
  2  7  1  0
  2  1  1  6
  3  2  1  0
  3  4  1  0
  4  5  1  0
  5  9  1  0
  5  6  2  0
  7  8  2  0
 11 10  1  6
 12 11  1  0
 12  7  1  0
 13 14  2  0
 13 11  1  0
 16 15  1  0
 17 16  1  0
 18 17  1  0
 19 20  1  0
 19 18  1  1
 20 13  1  0
 21 19  1  0
 22 21  2  0
 23 21  1  0
M  END
$$$$
