EAM.pdb
     RDKit          3D

 23 22  0  0  1  0  0  0  0  0999 V2000
    8.7158  -13.3868   17.9833 N   0  0  0  0  0  0  0  0  0  0  0  0
    9.0512  -14.7531   18.3355 C   0  0  1  0  0  0  0  0  0  0  0  0
   10.5388  -14.8875   18.2813 C   0  0  0  0  0  0  0  0  0  0  0  0
   11.2806  -14.0315   19.2493 C   0  0  0  0  0  0  0  0  0  0  0  0
   12.7492  -14.1303   19.1811 C   0  0  0  0  0  0  0  0  0  0  0  0
   13.4851  -13.4198   18.4577 O   0  0  0  0  0  0  0  0  0  0  0  0
    8.5031  -15.1232   19.6667 C   0  0  0  0  0  0  0  0  0  0  0  0
    8.2244  -14.2002   20.4668 O   0  0  0  0  0  0  0  0  0  0  0  0
   13.3628  -15.0834   19.9795 O   0  0  0  0  0  0  0  0  0  0  0  0
    7.5912  -18.3235   21.4046 C   0  0  0  0  0  0  0  0  0  0  0  0
    7.6503  -16.8259   21.3214 C   0  0  2  0  0  0  0  0  0  0  0  0
    8.2756  -16.4528   20.0890 N   0  0  0  0  0  0  0  0  0  0  0  0
    8.2701  -16.1948   22.5023 C   0  0  0  0  0  0  0  0  0  0  0  0
    9.4861  -15.9219   22.4692 O   0  0  0  0  0  0  0  0  0  0  0  0
    7.2469  -10.9494   28.2346 C   0  0  0  0  0  0  0  0  0  0  0  0
    6.4665  -11.8998   26.9030 S   0  0  0  0  0  0  0  0  0  0  0  0
    7.6518  -13.1368   26.3258 C   0  0  0  0  0  0  0  0  0  0  0  0
    7.0942  -13.9711   25.1963 C   0  0  0  0  0  0  0  0  0  0  0  0
    8.0540  -15.0384   24.7436 C   0  0  2  0  0  0  0  0  0  0  0  0
    7.5668  -15.8714   23.6928 N   0  0  0  0  0  0  0  0  0  0  0  0
    8.5472  -15.8660   25.8742 C   0  0  0  0  0  0  0  0  0  0  0  0
    8.1037  -17.0178   26.1198 O   0  0  0  0  0  0  0  0  0  0  0  0
    9.5399  -15.4015   26.7313 O   0  0  0  0  0  0  0  0  0  0  0  0
  2  7  1  0
  2  1  1  1
  3  2  1  0
  3  4  1  0
  4  5  1  0
  5  9  1  0
  5  6  2  0
  7  8  2  0
 11 10  1  1
 12 11  1  0
 12  7  1  0
 13 14  2  0
 13 11  1  0
 16 15  1  0
 17 16  1  0
 18 17  1  0
 19 20  1  0
 19 18  1  1
 20 13  1  0
 21 19  1  0
 22 21  2  0
 23 21  1  0
M  END
$$$$
