EAM.pdb
     RDKit          3D

 23 22  0  0  1  0  0  0  0  0999 V2000
    8.1847  -19.1175   20.9818 N   0  0  0  0  0  0  0  0  0  0  0  0
    9.4338  -18.4503   20.6694 C   0  0  1  0  0  0  0  0  0  0  0  0
    9.7943  -18.7908   19.2594 C   0  0  0  0  0  0  0  0  0  0  0  0
    8.8268  -18.3120   18.2326 C   0  0  0  0  0  0  0  0  0  0  0  0
    9.1021  -18.7524   16.8536 C   0  0  0  0  0  0  0  0  0  0  0  0
   10.1166  -19.3923   16.4918 O   0  0  0  0  0  0  0  0  0  0  0  0
    9.3365  -16.9826   20.8841 C   0  0  0  0  0  0  0  0  0  0  0  0
   10.3978  -16.3170   20.8965 O   0  0  0  0  0  0  0  0  0  0  0  0
    8.1654  -18.4332   15.8824 O   0  0  0  0  0  0  0  0  0  0  0  0
    6.5648  -14.4830   20.9310 C   0  0  0  0  0  0  0  0  0  0  0  0
    7.9957  -14.8655   21.1749 C   0  0  2  0  0  0  0  0  0  0  0  0
    8.1204  -16.2880   21.0756 N   0  0  0  0  0  0  0  0  0  0  0  0
    8.5449  -14.3199   22.4309 C   0  0  0  0  0  0  0  0  0  0  0  0
    8.8108  -13.1034   22.4923 O   0  0  0  0  0  0  0  0  0  0  0  0
    6.4343  -10.7729   26.3838 C   0  0  0  0  0  0  0  0  0  0  0  0
    6.1708  -12.3757   27.1883 S   0  0  0  0  0  0  0  0  0  0  0  0
    7.5725  -13.4441   26.7859 C   0  0  0  0  0  0  0  0  0  0  0  0
    7.5177  -13.9359   25.3584 C   0  0  0  0  0  0  0  0  0  0  0  0
    8.7962  -14.6067   24.9334 C   0  0  2  0  0  0  0  0  0  0  0  0
    8.7957  -15.0961   23.5933 N   0  0  0  0  0  0  0  0  0  0  0  0
    9.2082  -15.6782   25.8759 C   0  0  0  0  0  0  0  0  0  0  0  0
    9.3402  -16.8799   25.5260 O   0  0  0  0  0  0  0  0  0  0  0  0
    9.4728  -15.4023   27.2136 O   0  0  0  0  0  0  0  0  0  0  0  0
  2  7  1  0
  2  1  1  6
  3  2  1  0
  3  4  1  0
  4  5  1  0
  5  9  1  0
  5  6  2  0
  7  8  2  0
 11 10  1  1
 12 11  1  0
 12  7  1  0
 13 14  2  0
 13 11  1  0
 16 15  1  0
 17 16  1  0
 18 17  1  0
 19 20  1  0
 19 18  1  1
 20 13  1  0
 21 19  1  0
 22 21  2  0
 23 21  1  0
M  END
$$$$
