EAM.pdb
     RDKit          3D

 23 22  0  0  1  0  0  0  0  0999 V2000
    7.2632  -19.1848   20.5550 N   0  0  0  0  0  0  0  0  0  0  0  0
    8.3777  -18.2880   20.7930 C   0  0  1  0  0  0  0  0  0  0  0  0
    8.1060  -17.0153   20.0580 C   0  0  0  0  0  0  0  0  0  0  0  0
    9.1702  -15.9801   20.1837 C   0  0  0  0  0  0  0  0  0  0  0  0
    8.9204  -14.7273   19.4493 C   0  0  0  0  0  0  0  0  0  0  0  0
    7.8621  -14.4501   18.8388 O   0  0  0  0  0  0  0  0  0  0  0  0
    8.5940  -18.0609   22.2461 C   0  0  0  0  0  0  0  0  0  0  0  0
    7.6488  -17.5828   22.9151 O   0  0  0  0  0  0  0  0  0  0  0  0
    9.9357  -13.7832   19.4336 O   0  0  0  0  0  0  0  0  0  0  0  0
   11.2237  -18.9903   24.7297 C   0  0  0  0  0  0  0  0  0  0  0  0
   10.0027  -18.2123   24.3334 C   0  0  2  0  0  0  0  0  0  0  0  0
    9.8006  -18.3503   22.9230 N   0  0  0  0  0  0  0  0  0  0  0  0
   10.0289  -16.8070   24.7823 C   0  0  0  0  0  0  0  0  0  0  0  0
   10.0106  -15.9019   23.9251 O   0  0  0  0  0  0  0  0  0  0  0  0
    6.5567  -10.7300   26.7373 C   0  0  0  0  0  0  0  0  0  0  0  0
    6.7339  -12.3915   26.0348 S   0  0  0  0  0  0  0  0  0  0  0  0
    8.2595  -13.1153   26.6805 C   0  0  0  0  0  0  0  0  0  0  0  0
    8.5098  -14.4975   26.1244 C   0  0  0  0  0  0  0  0  0  0  0  0
    9.7927  -15.0972   26.6339 C   0  0  2  0  0  0  0  0  0  0  0  0
   10.0742  -16.4073   26.1441 N   0  0  0  0  0  0  0  0  0  0  0  0
    9.8753  -15.0698   28.1167 C   0  0  0  0  0  0  0  0  0  0  0  0
    9.8134  -16.1102   28.8220 O   0  0  0  0  0  0  0  0  0  0  0  0
   10.0275  -13.8735   28.8105 O   0  0  0  0  0  0  0  0  0  0  0  0
  2  7  1  0
  2  1  1  1
  3  2  1  0
  3  4  1  0
  4  5  1  0
  5  9  1  0
  5  6  2  0
  7  8  2  0
 11 10  1  6
 12 11  1  0
 12  7  1  0
 13 14  2  0
 13 11  1  0
 16 15  1  0
 17 16  1  0
 18 17  1  0
 19 20  1  0
 19 18  1  1
 20 13  1  0
 21 19  1  0
 22 21  2  0
 23 21  1  0
M  END
$$$$
