EAM.pdb
     RDKit          3D

 23 22  0  0  1  0  0  0  0  0999 V2000
    7.6945  -18.1382   19.2144 N   0  0  0  0  0  0  0  0  0  0  0  0
    8.1397  -18.8468   20.3988 C   0  0  1  0  0  0  0  0  0  0  0  0
    9.6264  -18.9798   20.3206 C   0  0  0  0  0  0  0  0  0  0  0  0
   10.3260  -17.8262   19.6886 C   0  0  0  0  0  0  0  0  0  0  0  0
   11.7824  -17.9831   19.5289 C   0  0  0  0  0  0  0  0  0  0  0  0
   12.3376  -18.7493   18.7078 O   0  0  0  0  0  0  0  0  0  0  0  0
    7.7033  -18.1587   21.6421 C   0  0  0  0  0  0  0  0  0  0  0  0
    7.5963  -16.9107   21.6187 O   0  0  0  0  0  0  0  0  0  0  0  0
   12.6003  -17.2235   20.3514 O   0  0  0  0  0  0  0  0  0  0  0  0
    6.2445  -19.1996   24.9066 C   0  0  0  0  0  0  0  0  0  0  0  0
    6.9370  -18.1836   24.0456 C   0  0  2  0  0  0  0  0  0  0  0  0
    7.4004  -18.8237   22.8520 N   0  0  0  0  0  0  0  0  0  0  0  0
    7.9944  -17.4357   24.7523 C   0  0  0  0  0  0  0  0  0  0  0  0
    9.1851  -17.7498   24.5579 O   0  0  0  0  0  0  0  0  0  0  0  0
    5.7599  -11.1236   25.8167 C   0  0  0  0  0  0  0  0  0  0  0  0
    6.4249  -12.3153   27.0098 S   0  0  0  0  0  0  0  0  0  0  0  0
    7.5457  -13.4270   26.1289 C   0  0  0  0  0  0  0  0  0  0  0  0
    8.2294  -14.3980   27.0629 C   0  0  0  0  0  0  0  0  0  0  0  0
    8.7434  -15.6177   26.3465 C   0  0  2  0  0  0  0  0  0  0  0  0
    7.7463  -16.3660   25.6527 N   0  0  0  0  0  0  0  0  0  0  0  0
    9.5277  -16.5060   27.2422 C   0  0  0  0  0  0  0  0  0  0  0  0
    9.1038  -17.6240   27.6348 O   0  0  0  0  0  0  0  0  0  0  0  0
   10.7901  -16.1403   27.6987 O   0  0  0  0  0  0  0  0  0  0  0  0
  2  7  1  0
  2  1  1  6
  3  2  1  0
  3  4  1  0
  4  5  1  0
  5  9  1  0
  5  6  2  0
  7  8  2  0
 11 10  1  1
 12 11  1  0
 12  7  1  0
 13 14  2  0
 13 11  1  0
 16 15  1  0
 17 16  1  0
 18 17  1  0
 19 20  1  0
 19 18  1  1
 20 13  1  0
 21 19  1  0
 22 21  2  0
 23 21  1  0
M  END
$$$$
