DVA.pdb
     RDKit          3D

 21 20  0  0  1  0  0  0  0  0999 V2000
   18.5673  -12.4907  -17.0995 N   0  0  0  0  0  0  0  0  0  0  0  0
   19.2797  -11.3147  -17.5006 C   0  0  1  0  0  0  0  0  0  0  0  0
   18.4589  -10.5524  -18.4837 C   0  0  0  0  0  0  0  0  0  0  0  0
   18.3209  -11.3830  -19.7079 C   0  0  0  0  0  0  0  0  0  0  0  0
   17.2595  -11.4436  -20.3786 O   0  0  0  0  0  0  0  0  0  0  0  0
   19.7619  -10.5102  -16.3630 C   0  0  0  0  0  0  0  0  0  0  0  0
   18.9601  -10.3275  -15.4110 O   0  0  0  0  0  0  0  0  0  0  0  0
   19.3995  -12.1402  -20.1575 O   0  0  0  0  0  0  0  0  0  0  0  0
   22.7252  -11.2945  -14.3182 C   0  0  0  0  0  0  0  0  0  0  0  0
   22.8633   -9.8422  -14.6588 C   0  0  1  0  0  0  0  0  0  0  0  0
   23.9160   -9.7427  -15.7454 C   0  0  0  0  0  0  0  0  0  0  0  0
   21.5541   -9.2596  -15.0608 C   0  0  2  0  0  0  0  0  0  0  0  0
   21.0435   -9.9366  -16.2659 N   0  0  0  0  0  0  0  0  0  0  0  0
   21.6572   -7.8187  -15.2937 C   0  0  0  0  0  0  0  0  0  0  0  0
   22.2959   -7.3990  -16.3345 O   0  0  0  0  0  0  0  0  0  0  0  0
   20.0036   -4.6481  -14.7612 C   0  0  0  0  0  0  0  0  0  0  0  0
   21.3227   -5.3842  -14.8337 C   0  0  2  0  0  0  0  0  0  0  0  0
   21.1215   -6.7893  -14.4945 N   0  0  0  0  0  0  0  0  0  0  0  0
   22.3409   -4.7546  -13.9593 C   0  0  0  0  0  0  0  0  0  0  0  0
   22.5865   -5.3580  -12.8744 O   0  0  0  0  0  0  0  0  0  0  0  0
   23.0138   -3.5971  -14.2393 O   0  0  0  0  0  0  0  0  0  0  0  0
  2  1  1  1
  2  6  1  0
  3  4  1  0
  3  2  1  0
  4  5  2  0
  6 13  1  0
  6  7  2  0
  8  4  1  0
 10  9  1  6
 10 12  1  0
 11 10  1  0
 12 14  1  0
 12 13  1  6
 14 18  1  0
 15 14  2  0
 17 16  1  1
 18 17  1  0
 19 17  1  0
 19 21  1  0
 20 19  2  0
M  END
$$$$
