DVA.pdb
     RDKit          3D

 21 20  0  0  1  0  0  0  0  0999 V2000
   17.3557  -11.9752  -17.0477 N   0  0  0  0  0  0  0  0  0  0  0  0
   18.4452  -11.1742  -17.5196 C   0  0  1  0  0  0  0  0  0  0  0  0
   17.9273  -10.1458  -18.4659 C   0  0  0  0  0  0  0  0  0  0  0  0
   17.3584  -10.8510  -19.6434 C   0  0  0  0  0  0  0  0  0  0  0  0
   17.9339  -11.8150  -20.2088 O   0  0  0  0  0  0  0  0  0  0  0  0
   19.2804  -10.6300  -16.4333 C   0  0  0  0  0  0  0  0  0  0  0  0
   18.7099  -10.3916  -15.3378 O   0  0  0  0  0  0  0  0  0  0  0  0
   16.1328  -10.4483  -20.1676 O   0  0  0  0  0  0  0  0  0  0  0  0
   23.5233  -10.4381  -16.6480 C   0  0  0  0  0  0  0  0  0  0  0  0
   22.7753  -10.5399  -15.3539 C   0  0  1  0  0  0  0  0  0  0  0  0
   23.6900   -9.9983  -14.2728 C   0  0  0  0  0  0  0  0  0  0  0  0
   21.4739   -9.8218  -15.4297 C   0  0  2  0  0  0  0  0  0  0  0  0
   20.6582  -10.3601  -16.5325 N   0  0  0  0  0  0  0  0  0  0  0  0
   21.6654   -8.3809  -15.5969 C   0  0  0  0  0  0  0  0  0  0  0  0
   22.3040   -7.9526  -16.6342 O   0  0  0  0  0  0  0  0  0  0  0  0
   20.3730   -5.1373  -15.2372 C   0  0  0  0  0  0  0  0  0  0  0  0
   21.6031   -5.9678  -14.9465 C   0  0  2  0  0  0  0  0  0  0  0  0
   21.2185   -7.3596  -14.7351 N   0  0  0  0  0  0  0  0  0  0  0  0
   22.3557   -5.4302  -13.7879 C   0  0  0  0  0  0  0  0  0  0  0  0
   22.2148   -6.0580  -12.6982 O   0  0  0  0  0  0  0  0  0  0  0  0
   23.1698   -4.3313  -13.8175 O   0  0  0  0  0  0  0  0  0  0  0  0
  2  1  1  1
  2  6  1  0
  3  4  1  0
  3  2  1  0
  4  5  2  0
  6 13  1  0
  6  7  2  0
  8  4  1  0
 10  9  1  6
 10 12  1  0
 11 10  1  0
 12 14  1  0
 12 13  1  6
 14 18  1  0
 15 14  2  0
 17 16  1  1
 18 17  1  0
 19 17  1  0
 19 21  1  0
 20 19  2  0
M  END
$$$$
