DVA.pdb
     RDKit          3D

 21 20  0  0  1  0  0  0  0  0999 V2000
   17.7734  -11.6620  -16.3233 N   0  0  0  0  0  0  0  0  0  0  0  0
   18.7442  -10.7221  -16.7978 C   0  0  1  0  0  0  0  0  0  0  0  0
   18.1317   -9.8740  -17.8592 C   0  0  0  0  0  0  0  0  0  0  0  0
   17.8883  -10.7314  -19.0480 C   0  0  0  0  0  0  0  0  0  0  0  0
   18.2800  -11.9233  -19.1249 O   0  0  0  0  0  0  0  0  0  0  0  0
   19.3941   -9.9604  -15.7155 C   0  0  0  0  0  0  0  0  0  0  0  0
   18.6867   -9.6685  -14.7171 O   0  0  0  0  0  0  0  0  0  0  0  0
   17.1974  -10.2189  -20.1430 O   0  0  0  0  0  0  0  0  0  0  0  0
   22.5400  -10.8641  -13.8263 C   0  0  0  0  0  0  0  0  0  0  0  0
   22.7012   -9.4489  -14.2908 C   0  0  1  0  0  0  0  0  0  0  0  0
   23.6338   -9.4811  -15.4857 C   0  0  0  0  0  0  0  0  0  0  0  0
   21.3818   -8.8326  -14.5980 C   0  0  2  0  0  0  0  0  0  0  0  0
   20.7373   -9.5399  -15.7186 N   0  0  0  0  0  0  0  0  0  0  0  0
   21.5139   -7.4083  -14.9060 C   0  0  0  0  0  0  0  0  0  0  0  0
   22.2440   -7.0522  -15.9097 O   0  0  0  0  0  0  0  0  0  0  0  0
   19.9627   -4.1006  -14.3391 C   0  0  0  0  0  0  0  0  0  0  0  0
   21.1879   -4.9490  -14.5966 C   0  0  2  0  0  0  0  0  0  0  0  0
   20.9166   -6.3325  -14.2195 N   0  0  0  0  0  0  0  0  0  0  0  0
   22.3737   -4.4145  -13.8853 C   0  0  0  0  0  0  0  0  0  0  0  0
   22.8679   -3.3497  -14.3579 O   0  0  0  0  0  0  0  0  0  0  0  0
   22.9532   -4.9800  -12.7828 O   0  0  0  0  0  0  0  0  0  0  0  0
  2  1  1  1
  2  6  1  0
  3  4  1  0
  3  2  1  0
  4  5  2  0
  6 13  1  0
  6  7  2  0
  8  4  1  0
 10  9  1  6
 10 12  1  0
 11 10  1  0
 12 14  1  0
 12 13  1  6
 14 18  1  0
 15 14  2  0
 17 16  1  1
 18 17  1  0
 19 17  1  0
 19 21  1  0
 20 19  2  0
M  END
$$$$
