DVA.pdb
     RDKit          3D

 21 20  0  0  1  0  0  0  0  0999 V2000
   12.9244  -10.5912  -13.3184 N   0  0  0  0  0  0  0  0  0  0  0  0
   14.2004  -10.5262  -12.6711 C   0  0  1  0  0  0  0  0  0  0  0  0
   15.2445  -11.0725  -13.5836 C   0  0  0  0  0  0  0  0  0  0  0  0
   14.9663  -12.5179  -13.7857 C   0  0  0  0  0  0  0  0  0  0  0  0
   13.9693  -13.0999  -13.2883 O   0  0  0  0  0  0  0  0  0  0  0  0
   14.5103   -9.1905  -12.1289 C   0  0  0  0  0  0  0  0  0  0  0  0
   13.9779   -8.2039  -12.6996 O   0  0  0  0  0  0  0  0  0  0  0  0
   15.8318  -13.2897  -14.5566 O   0  0  0  0  0  0  0  0  0  0  0  0
   16.3300   -6.2951   -8.5418 C   0  0  0  0  0  0  0  0  0  0  0  0
   15.8487   -7.6191   -9.0517 C   0  0  1  0  0  0  0  0  0  0  0  0
   14.5631   -7.9347   -8.3125 C   0  0  0  0  0  0  0  0  0  0  0  0
   15.6797   -7.5942  -10.5301 C   0  0  2  0  0  0  0  0  0  0  0  0
   15.3516   -8.9416  -11.0283 N   0  0  0  0  0  0  0  0  0  0  0  0
   16.8772   -7.0840  -11.1984 C   0  0  0  0  0  0  0  0  0  0  0  0
   17.2395   -5.8634  -10.9832 O   0  0  0  0  0  0  0  0  0  0  0  0
   19.8377   -8.1915  -13.2049 C   0  0  0  0  0  0  0  0  0  0  0  0
   18.8716   -7.1409  -12.7048 C   0  0  2  0  0  0  0  0  0  0  0  0
   17.7219   -7.7872  -12.0800 N   0  0  0  0  0  0  0  0  0  0  0  0
   18.4549   -6.2277  -13.7959 C   0  0  0  0  0  0  0  0  0  0  0  0
   17.2711   -6.3755  -14.2179 O   0  0  0  0  0  0  0  0  0  0  0  0
   19.2430   -5.2630  -14.3609 O   0  0  0  0  0  0  0  0  0  0  0  0
  2  1  1  6
  2  6  1  0
  3  4  1  0
  3  2  1  0
  4  5  2  0
  6 13  1  0
  6  7  2  0
  8  4  1  0
 10  9  1  1
 10 12  1  0
 11 10  1  0
 12 14  1  0
 12 13  1  6
 14 18  1  0
 15 14  2  0
 17 16  1  6
 18 17  1  0
 19 17  1  0
 19 21  1  0
 20 19  2  0
M  END
$$$$
