DVA.pdb
     RDKit          3D

 21 20  0  0  1  0  0  0  0  0999 V2000
   19.9087  -11.0554  -17.7827 N   0  0  0  0  0  0  0  0  0  0  0  0
   20.8052   -9.9848  -17.4641 C   0  0  1  0  0  0  0  0  0  0  0  0
   21.3756   -9.4281  -18.7234 C   0  0  0  0  0  0  0  0  0  0  0  0
   22.0880  -10.5249  -19.4284 C   0  0  0  0  0  0  0  0  0  0  0  0
   22.9062  -11.2890  -18.8569 O   0  0  0  0  0  0  0  0  0  0  0  0
   20.2098   -8.9736  -16.5713 C   0  0  0  0  0  0  0  0  0  0  0  0
   19.0269   -8.6214  -16.8146 O   0  0  0  0  0  0  0  0  0  0  0  0
   21.8596  -10.7407  -20.7850 O   0  0  0  0  0  0  0  0  0  0  0  0
   19.6280   -9.1857  -12.9177 C   0  0  0  0  0  0  0  0  0  0  0  0
   20.3764   -7.9076  -13.1427 C   0  0  1  0  0  0  0  0  0  0  0  0
   21.8205   -8.1700  -12.7625 C   0  0  0  0  0  0  0  0  0  0  0  0
   20.2199   -7.4351  -14.5453 C   0  0  2  0  0  0  0  0  0  0  0  0
   20.8637   -8.3790  -15.4759 N   0  0  0  0  0  0  0  0  0  0  0  0
   20.7714   -6.0916  -14.7234 C   0  0  0  0  0  0  0  0  0  0  0  0
   22.0376   -5.9606  -14.9399 O   0  0  0  0  0  0  0  0  0  0  0  0
   19.7476   -2.5177  -15.1989 C   0  0  0  0  0  0  0  0  0  0  0  0
   20.7508   -3.5950  -14.8522 C   0  0  2  0  0  0  0  0  0  0  0  0
   20.0648   -4.8730  -14.6912 N   0  0  0  0  0  0  0  0  0  0  0  0
   21.5280   -3.2391  -13.6409 C   0  0  0  0  0  0  0  0  0  0  0  0
   21.1707   -3.8080  -12.5686 O   0  0  0  0  0  0  0  0  0  0  0  0
   22.5764   -2.3612  -13.6063 O   0  0  0  0  0  0  0  0  0  0  0  0
  2  1  1  6
  2  6  1  0
  3  4  1  0
  3  2  1  0
  4  5  2  0
  6 13  1  0
  6  7  2  0
  8  4  1  0
 10  9  1  6
 10 12  1  0
 11 10  1  0
 12 14  1  0
 12 13  1  6
 14 18  1  0
 15 14  2  0
 17 16  1  1
 18 17  1  0
 19 17  1  0
 19 21  1  0
 20 19  2  0
M  END
$$$$
