DVA.pdb
     RDKit          3D

 21 20  0  0  1  0  0  0  0  0999 V2000
   18.6925  -12.6798  -16.9734 N   0  0  0  0  0  0  0  0  0  0  0  0
   19.2597  -11.4040  -17.2926 C   0  0  1  0  0  0  0  0  0  0  0  0
   18.2829  -10.6177  -18.0981 C   0  0  0  0  0  0  0  0  0  0  0  0
   18.1094  -11.3028  -19.4050 C   0  0  0  0  0  0  0  0  0  0  0  0
   19.0122  -11.9933  -19.9419 O   0  0  0  0  0  0  0  0  0  0  0  0
   19.7854  -10.6899  -16.1146 C   0  0  0  0  0  0  0  0  0  0  0  0
   19.0208  -10.5848  -15.1212 O   0  0  0  0  0  0  0  0  0  0  0  0
   16.9023  -11.1933  -20.0906 O   0  0  0  0  0  0  0  0  0  0  0  0
   22.9091  -11.4021  -14.1756 C   0  0  0  0  0  0  0  0  0  0  0  0
   22.9392   -9.9357  -14.4809 C   0  0  1  0  0  0  0  0  0  0  0  0
   23.9453   -9.7390  -15.5980 C   0  0  0  0  0  0  0  0  0  0  0  0
   21.5814   -9.4323  -14.8244 C   0  0  2  0  0  0  0  0  0  0  0  0
   21.0699  -10.1220  -16.0219 N   0  0  0  0  0  0  0  0  0  0  0  0
   21.5837   -7.9843  -15.0352 C   0  0  0  0  0  0  0  0  0  0  0  0
   22.0427   -7.5167  -16.1479 O   0  0  0  0  0  0  0  0  0  0  0  0
   19.9302   -4.8852  -14.2910 C   0  0  0  0  0  0  0  0  0  0  0  0
   21.2669   -5.5755  -14.4461 C   0  0  2  0  0  0  0  0  0  0  0  0
   21.1254   -6.9958  -14.1419 N   0  0  0  0  0  0  0  0  0  0  0  0
   22.3043   -4.9392  -13.5995 C   0  0  0  0  0  0  0  0  0  0  0  0
   22.5839   -5.5414  -12.5222 O   0  0  0  0  0  0  0  0  0  0  0  0
   22.9613   -3.7770  -13.8972 O   0  0  0  0  0  0  0  0  0  0  0  0
  2  1  1  1
  2  6  1  0
  3  4  1  0
  3  2  1  0
  4  5  2  0
  6 13  1  0
  6  7  2  0
  8  4  1  0
 10  9  1  6
 10 12  1  0
 11 10  1  0
 12 14  1  0
 12 13  1  6
 14 18  1  0
 15 14  2  0
 17 16  1  1
 18 17  1  0
 19 17  1  0
 19 21  1  0
 20 19  2  0
M  END
$$$$
