DVA.pdb
     RDKit          3D

 21 20  0  0  1  0  0  0  0  0999 V2000
   17.1433  -10.4020  -15.2913 N   0  0  0  0  0  0  0  0  0  0  0  0
   18.0651   -9.4121  -15.7620 C   0  0  1  0  0  0  0  0  0  0  0  0
   17.3120   -8.1951  -16.1777 C   0  0  0  0  0  0  0  0  0  0  0  0
   16.3067   -8.6023  -17.1931 C   0  0  0  0  0  0  0  0  0  0  0  0
   16.4447   -9.6138  -17.9266 O   0  0  0  0  0  0  0  0  0  0  0  0
   19.1672   -9.1481  -14.8187 C   0  0  0  0  0  0  0  0  0  0  0  0
   18.8629   -9.0206  -13.6048 O   0  0  0  0  0  0  0  0  0  0  0  0
   15.1483   -7.8486  -17.3634 O   0  0  0  0  0  0  0  0  0  0  0  0
   22.3935  -11.0648  -14.4178 C   0  0  0  0  0  0  0  0  0  0  0  0
   22.7772   -9.6182  -14.4837 C   0  0  1  0  0  0  0  0  0  0  0  0
   23.3927   -9.3876  -15.8499 C   0  0  0  0  0  0  0  0  0  0  0  0
   21.6052   -8.7405  -14.2170 C   0  0  2  0  0  0  0  0  0  0  0  0
   20.5236   -9.0295  -15.1753 N   0  0  0  0  0  0  0  0  0  0  0  0
   21.9707   -7.3250  -14.2763 C   0  0  0  0  0  0  0  0  0  0  0  0
   22.8345   -6.8678  -13.4324 O   0  0  0  0  0  0  0  0  0  0  0  0
   21.9792   -4.4172  -16.5519 C   0  0  0  0  0  0  0  0  0  0  0  0
   21.9645   -4.9823  -15.1491 C   0  0  2  0  0  0  0  0  0  0  0  0
   21.4817   -6.3592  -15.1782 N   0  0  0  0  0  0  0  0  0  0  0  0
   21.1532   -4.1412  -14.2369 C   0  0  0  0  0  0  0  0  0  0  0  0
   20.0063   -4.5896  -13.9459 O   0  0  0  0  0  0  0  0  0  0  0  0
   21.5509   -2.9459  -13.7038 O   0  0  0  0  0  0  0  0  0  0  0  0
  2  1  1  1
  2  6  1  0
  3  4  1  0
  3  2  1  0
  4  5  2  0
  6 13  1  0
  6  7  2  0
  8  4  1  0
 10  9  1  6
 10 12  1  0
 11 10  1  0
 12 14  1  0
 12 13  1  6
 14 18  1  0
 15 14  2  0
 17 16  1  6
 18 17  1  0
 19 17  1  0
 19 21  1  0
 20 19  2  0
M  END
$$$$
