DVA.pdb
     RDKit          3D

 21 20  0  0  1  0  0  0  0  0999 V2000
   17.2319  -12.1880  -16.3450 N   0  0  0  0  0  0  0  0  0  0  0  0
   17.7749  -10.9204  -16.7317 C   0  0  1  0  0  0  0  0  0  0  0  0
   16.6683  -10.0221  -17.1671 C   0  0  0  0  0  0  0  0  0  0  0  0
   16.0025  -10.6488  -18.3382 C   0  0  0  0  0  0  0  0  0  0  0  0
   16.6347  -11.2327  -19.2544 O   0  0  0  0  0  0  0  0  0  0  0  0
   18.6647  -10.3335  -15.7130 C   0  0  0  0  0  0  0  0  0  0  0  0
   18.2077  -10.2302  -14.5456 O   0  0  0  0  0  0  0  0  0  0  0  0
   14.6156  -10.6034  -18.4540 O   0  0  0  0  0  0  0  0  0  0  0  0
   22.7938   -9.8797  -16.3291 C   0  0  0  0  0  0  0  0  0  0  0  0
   22.1938   -9.9862  -14.9605 C   0  0  1  0  0  0  0  0  0  0  0  0
   23.1919   -9.3798  -13.9937 C   0  0  0  0  0  0  0  0  0  0  0  0
   20.8593   -9.3295  -14.9083 C   0  0  2  0  0  0  0  0  0  0  0  0
   19.9772   -9.8841  -15.9503 N   0  0  0  0  0  0  0  0  0  0  0  0
   20.9696   -7.8780  -15.0569 C   0  0  0  0  0  0  0  0  0  0  0  0
   21.3086   -7.3923  -16.2043 O   0  0  0  0  0  0  0  0  0  0  0  0
   19.7278   -4.7018  -13.8757 C   0  0  0  0  0  0  0  0  0  0  0  0
   20.9367   -5.4835  -14.3390 C   0  0  2  0  0  0  0  0  0  0  0  0
   20.7389   -6.9034  -14.0658 N   0  0  0  0  0  0  0  0  0  0  0  0
   22.1802   -4.9774  -13.7103 C   0  0  0  0  0  0  0  0  0  0  0  0
   22.5307   -5.5520  -12.6387 O   0  0  0  0  0  0  0  0  0  0  0  0
   22.9523   -3.9590  -14.1978 O   0  0  0  0  0  0  0  0  0  0  0  0
  2  1  1  1
  2  6  1  0
  3  4  1  0
  3  2  1  0
  4  5  2  0
  6 13  1  0
  6  7  2  0
  8  4  1  0
 10  9  1  6
 10 12  1  0
 11 10  1  0
 12 14  1  0
 12 13  1  6
 14 18  1  0
 15 14  2  0
 17 16  1  1
 18 17  1  0
 19 17  1  0
 19 21  1  0
 20 19  2  0
M  END
$$$$
