DVA.pdb
     RDKit          3D

 21 20  0  0  1  0  0  0  0  0999 V2000
   22.6429  -11.6694  -20.2226 N   0  0  0  0  0  0  0  0  0  0  0  0
   23.4063  -10.5662  -19.7213 C   0  0  1  0  0  0  0  0  0  0  0  0
   23.5150   -9.5211  -20.7782 C   0  0  0  0  0  0  0  0  0  0  0  0
   24.2413  -10.1102  -21.9328 C   0  0  0  0  0  0  0  0  0  0  0  0
   25.0195  -11.0914  -21.8244 O   0  0  0  0  0  0  0  0  0  0  0  0
   22.9200  -10.0645  -18.4229 C   0  0  0  0  0  0  0  0  0  0  0  0
   21.6773   -9.9155  -18.2964 O   0  0  0  0  0  0  0  0  0  0  0  0
   24.0725   -9.5721  -23.2060 O   0  0  0  0  0  0  0  0  0  0  0  0
   23.5742  -11.5506  -14.9998 C   0  0  0  0  0  0  0  0  0  0  0  0
   23.9081  -10.0920  -14.9256 C   0  0  1  0  0  0  0  0  0  0  0  0
   25.4190   -9.9825  -14.9868 C   0  0  0  0  0  0  0  0  0  0  0  0
   23.2244   -9.3305  -16.0062 C   0  0  2  0  0  0  0  0  0  0  0  0
   23.7387   -9.7429  -17.3241 N   0  0  0  0  0  0  0  0  0  0  0  0
   23.3839   -7.8869  -15.8285 C   0  0  0  0  0  0  0  0  0  0  0  0
   24.4548   -7.3182  -16.2727 O   0  0  0  0  0  0  0  0  0  0  0  0
   22.3889   -4.7993  -16.2341 C   0  0  0  0  0  0  0  0  0  0  0  0
   22.8062   -5.5940  -15.0169 C   0  0  2  0  0  0  0  0  0  0  0  0
   22.4770   -7.0023  -15.2120 N   0  0  0  0  0  0  0  0  0  0  0  0
   22.1852   -5.0567  -13.7826 C   0  0  0  0  0  0  0  0  0  0  0  0
   21.2640   -5.7612  -13.2761 O   0  0  0  0  0  0  0  0  0  0  0  0
   22.5319   -3.8829  -13.1719 O   0  0  0  0  0  0  0  0  0  0  0  0
  2  1  1  6
  2  6  1  0
  3  4  1  0
  3  2  1  0
  4  5  2  0
  6 13  1  0
  6  7  2  0
  8  4  1  0
 10  9  1  6
 10 12  1  0
 11 10  1  0
 12 14  1  0
 12 13  1  6
 14 18  1  0
 15 14  2  0
 17 16  1  6
 18 17  1  0
 19 17  1  0
 19 21  1  0
 20 19  2  0
M  END
$$$$
