DVA.pdb
     RDKit          3D

 21 20  0  0  1  0  0  0  0  0999 V2000
   20.2700  -13.5227  -17.7020 N   0  0  0  0  0  0  0  0  0  0  0  0
   20.6452  -12.1417  -17.7608 C   0  0  1  0  0  0  0  0  0  0  0  0
   21.4773  -11.9082  -18.9750 C   0  0  0  0  0  0  0  0  0  0  0  0
   22.7323  -12.6898  -18.8284 C   0  0  0  0  0  0  0  0  0  0  0  0
   23.7658  -12.2299  -18.2803 O   0  0  0  0  0  0  0  0  0  0  0  0
   19.5010  -11.2217  -17.6259 C   0  0  0  0  0  0  0  0  0  0  0  0
   18.7078  -11.1488  -18.5996 O   0  0  0  0  0  0  0  0  0  0  0  0
   22.7972  -13.9946  -19.3106 O   0  0  0  0  0  0  0  0  0  0  0  0
   16.2847   -9.0029  -14.7183 C   0  0  0  0  0  0  0  0  0  0  0  0
   17.1833  -10.0823  -15.2395 C   0  0  1  0  0  0  0  0  0  0  0  0
   16.2913  -11.2360  -15.6541 C   0  0  0  0  0  0  0  0  0  0  0  0
   18.0377   -9.5784  -16.3491 C   0  0  2  0  0  0  0  0  0  0  0  0
   19.2343  -10.4257  -16.4961 N   0  0  0  0  0  0  0  0  0  0  0  0
   18.4266   -8.1841  -16.1359 C   0  0  0  0  0  0  0  0  0  0  0  0
   19.1247   -7.8838  -15.0919 O   0  0  0  0  0  0  0  0  0  0  0  0
   18.2575   -4.7889  -17.7527 C   0  0  0  0  0  0  0  0  0  0  0  0
   18.5434   -5.7312  -16.6048 C   0  0  2  0  0  0  0  0  0  0  0  0
   18.1263   -7.0833  -16.9625 N   0  0  0  0  0  0  0  0  0  0  0  0
   17.8897   -5.2737  -15.3553 C   0  0  0  0  0  0  0  0  0  0  0  0
   18.5355   -4.4262  -14.6725 O   0  0  0  0  0  0  0  0  0  0  0  0
   16.6691   -5.6948  -14.9040 O   0  0  0  0  0  0  0  0  0  0  0  0
  2  1  1  6
  2  6  1  0
  3  4  1  0
  3  2  1  0
  4  5  2  0
  6 13  1  0
  6  7  2  0
  8  4  1  0
 10  9  1  6
 10 12  1  0
 11 10  1  0
 12 14  1  0
 12 13  1  1
 14 18  1  0
 15 14  2  0
 17 16  1  6
 18 17  1  0
 19 17  1  0
 19 21  1  0
 20 19  2  0
M  END
$$$$
