DVA.pdb
     RDKit          3D

 21 20  0  0  1  0  0  0  0  0999 V2000
   25.1160  -21.5451  -12.8415 N   0  0  0  0  0  0  0  0  0  0  0  0
   24.7516  -21.0152  -14.1212 C   0  0  1  0  0  0  0  0  0  0  0  0
   23.6061  -21.7951  -14.6698 C   0  0  0  0  0  0  0  0  0  0  0  0
   24.0499  -23.2026  -14.8417 C   0  0  0  0  0  0  0  0  0  0  0  0
   25.2591  -23.5334  -14.9332 O   0  0  0  0  0  0  0  0  0  0  0  0
   24.5383  -19.5563  -14.1075 C   0  0  0  0  0  0  0  0  0  0  0  0
   23.9004  -19.0807  -13.1332 O   0  0  0  0  0  0  0  0  0  0  0  0
   23.1060  -24.2242  -14.9080 O   0  0  0  0  0  0  0  0  0  0  0  0
   26.6893  -16.8610  -16.5901 C   0  0  0  0  0  0  0  0  0  0  0  0
   26.1083  -16.5121  -15.2541 C   0  0  1  0  0  0  0  0  0  0  0  0
   25.9915  -15.0012  -15.2056 C   0  0  0  0  0  0  0  0  0  0  0  0
   24.8085  -17.2042  -15.0381 C   0  0  2  0  0  0  0  0  0  0  0  0
   24.9929  -18.6649  -15.0974 N   0  0  0  0  0  0  0  0  0  0  0  0
   23.8059  -16.7794  -16.0155 C   0  0  0  0  0  0  0  0  0  0  0  0
   23.9607  -17.1131  -17.2533 O   0  0  0  0  0  0  0  0  0  0  0  0
   20.3338  -15.4363  -16.2424 C   0  0  0  0  0  0  0  0  0  0  0  0
   21.6989  -15.7104  -16.8328 C   0  0  2  0  0  0  0  0  0  0  0  0
   22.6428  -16.0246  -15.7650 N   0  0  0  0  0  0  0  0  0  0  0  0
   22.1695  -14.5710  -17.6562 C   0  0  0  0  0  0  0  0  0  0  0  0
   22.9296  -13.7446  -17.0726 O   0  0  0  0  0  0  0  0  0  0  0  0
   21.8459  -14.3595  -18.9683 O   0  0  0  0  0  0  0  0  0  0  0  0
  2  1  1  1
  2  6  1  0
  3  4  1  0
  3  2  1  0
  4  5  2  0
  6 13  1  0
  6  7  2  0
  8  4  1  0
 10  9  1  6
 10 12  1  0
 11 10  1  0
 12 14  1  0
 12 13  1  6
 14 18  1  0
 15 14  2  0
 17 16  1  1
 18 17  1  0
 19 17  1  0
 19 21  1  0
 20 19  2  0
M  END
$$$$
