DVA.pdb
     RDKit          3D

 21 20  0  0  1  0  0  0  0  0999 V2000
   18.0545  -11.7987  -16.2683 N   0  0  0  0  0  0  0  0  0  0  0  0
   18.3976  -10.4593  -16.6419 C   0  0  1  0  0  0  0  0  0  0  0  0
   17.1937   -9.7785  -17.1970 C   0  0  0  0  0  0  0  0  0  0  0  0
   16.7831  -10.5034  -18.4272 C   0  0  0  0  0  0  0  0  0  0  0  0
   17.5808  -10.7782  -19.3590 O   0  0  0  0  0  0  0  0  0  0  0  0
   19.0736   -9.7105  -15.5666 C   0  0  0  0  0  0  0  0  0  0  0  0
   18.4765   -9.6311  -14.4623 O   0  0  0  0  0  0  0  0  0  0  0  0
   15.4605  -10.9097  -18.5841 O   0  0  0  0  0  0  0  0  0  0  0  0
   22.2909  -10.1466  -13.7712 C   0  0  0  0  0  0  0  0  0  0  0  0
   22.3208   -8.7585  -14.3338 C   0  0  1  0  0  0  0  0  0  0  0  0
   23.2078   -8.8003  -15.5627 C   0  0  0  0  0  0  0  0  0  0  0  0
   20.9458   -8.2686  -14.6242 C   0  0  2  0  0  0  0  0  0  0  0  0
   20.3280   -9.0833  -15.6855 N   0  0  0  0  0  0  0  0  0  0  0  0
   20.9491   -6.8562  -15.0061 C   0  0  0  0  0  0  0  0  0  0  0  0
   21.3383   -6.5319  -16.1939 O   0  0  0  0  0  0  0  0  0  0  0  0
   19.5912   -3.5328  -14.1643 C   0  0  0  0  0  0  0  0  0  0  0  0
   20.7290   -4.3879  -14.6756 C   0  0  2  0  0  0  0  0  0  0  0  0
   20.5610   -5.7607  -14.2095 N   0  0  0  0  0  0  0  0  0  0  0  0
   22.0438   -3.8342  -14.2720 C   0  0  0  0  0  0  0  0  0  0  0  0
   22.5762   -4.3625  -13.2528 O   0  0  0  0  0  0  0  0  0  0  0  0
   22.7013   -2.8187  -14.9104 O   0  0  0  0  0  0  0  0  0  0  0  0
  2  1  1  1
  2  6  1  0
  3  4  1  0
  3  2  1  0
  4  5  2  0
  6 13  1  0
  6  7  2  0
  8  4  1  0
 10  9  1  6
 10 12  1  0
 11 10  1  0
 12 14  1  0
 12 13  1  6
 14 18  1  0
 15 14  2  0
 17 16  1  1
 18 17  1  0
 19 17  1  0
 19 21  1  0
 20 19  2  0
M  END
$$$$
