AYR.pdb
     RDKit          3D

 29 29  0  0  1  0  0  0  0  0999 V2000
   24.2180  -12.7451  -19.1291 C   0  0  0  0  0  0  0  0  0  0  0  0
   23.2819  -13.4457  -18.1678 C   0  0  2  0  0  0  0  0  0  0  0  0
   23.0306  -12.5616  -17.0658 N   0  0  0  0  0  0  0  0  0  0  0  0
   23.9370  -14.7066  -17.7226 C   0  0  0  0  0  0  0  0  0  0  0  0
   24.1230  -15.6736  -18.5204 O   0  0  0  0  0  0  0  0  0  0  0  0
   30.4713  -13.1000  -17.6317 O   0  0  0  0  0  0  0  0  0  0  0  0
   29.4247  -13.7632  -16.9960 C   0  0  0  0  0  0  0  0  0  0  0  0
   28.4856  -13.0779  -16.2498 C   0  0  0  0  0  0  0  0  0  0  0  0
   27.4371  -13.7568  -15.6154 C   0  0  0  0  0  0  0  0  0  0  0  0
   27.3142  -15.1224  -15.7176 C   0  0  0  0  0  0  0  0  0  0  0  0
   26.2118  -15.8197  -15.0473 C   0  0  0  0  0  0  0  0  0  0  0  0
   25.0902  -16.1236  -15.9728 C   0  0  2  0  0  0  0  0  0  0  0  0
   24.3925  -14.9137  -16.3965 N   0  0  0  0  0  0  0  0  0  0  0  0
   24.1301  -17.1093  -15.4086 C   0  0  0  0  0  0  0  0  0  0  0  0
   23.4649  -16.8751  -14.3711 O   0  0  0  0  0  0  0  0  0  0  0  0
   28.2680  -15.7695  -16.4687 C   0  0  0  0  0  0  0  0  0  0  0  0
   29.3006  -15.1239  -17.0969 C   0  0  0  0  0  0  0  0  0  0  0  0
   17.8036  -21.6876  -15.1781 N   0  0  0  0  0  0  0  0  0  0  0  0
   18.9243  -22.2753  -14.5467 C   0  0  0  0  0  0  0  0  0  0  0  0
   19.0356  -23.5359  -14.4870 N   0  0  0  0  0  0  0  0  0  0  0  0
   19.9162  -21.4309  -13.9841 N   0  0  0  0  0  0  0  0  0  0  0  0
   19.8214  -19.9688  -14.1364 C   0  0  0  0  0  0  0  0  0  0  0  0
   20.3827  -19.6161  -15.4681 C   0  0  0  0  0  0  0  0  0  0  0  0
   21.5358  -18.6835  -15.4728 C   0  0  0  0  0  0  0  0  0  0  0  0
   22.8840  -19.2941  -15.5865 C   0  0  2  0  0  0  0  0  0  0  0  0
   23.9152  -18.3784  -16.0215 N   0  0  0  0  0  0  0  0  0  0  0  0
   22.9559  -20.5017  -16.4396 C   0  0  0  0  0  0  0  0  0  0  0  0
   23.2218  -20.3866  -17.6598 O   0  0  0  0  0  0  0  0  0  0  0  0
   22.7355  -21.7728  -15.9346 O   0  0  0  0  0  0  0  0  0  0  0  0
  2  1  1  6
  2  3  1  0
  4  2  1  0
  4  5  2  0
  7  8  2  0
  7  6  1  0
  9  8  1  0
 10  9  2  0
 11 10  1  0
 12 11  1  1
 12 13  1  0
 13  4  1  0
 14 12  1  0
 15 14  2  0
 16 10  1  0
 16 17  2  0
 17  7  1  0
 19 18  1  0
 19 21  1  0
 20 19  2  0
 21 22  1  0
 22 23  1  0
 23 24  1  0
 25 24  1  6
 25 26  1  0
 25 27  1  0
 26 14  1  0
 27 28  2  0
 27 29  1  0
M  END
$$$$
