AYR.pdb
     RDKit          3D

 29 29  0  0  1  0  0  0  0  0999 V2000
   29.3552  -22.5544  -17.9180 C   0  0  0  0  0  0  0  0  0  0  0  0
   27.9966  -21.8870  -17.9387 C   0  0  2  0  0  0  0  0  0  0  0  0
   28.1827  -20.5072  -18.2857 N   0  0  0  0  0  0  0  0  0  0  0  0
   27.3885  -22.0369  -16.5878 C   0  0  0  0  0  0  0  0  0  0  0  0
   27.0957  -23.1763  -16.1162 O   0  0  0  0  0  0  0  0  0  0  0  0
   24.9383  -20.8680   -8.2328 O   0  0  0  0  0  0  0  0  0  0  0  0
   25.4521  -20.6814   -9.5136 C   0  0  0  0  0  0  0  0  0  0  0  0
   26.5331  -21.4109   -9.9691 C   0  0  0  0  0  0  0  0  0  0  0  0
   27.0404  -21.2139  -11.2601 C   0  0  0  0  0  0  0  0  0  0  0  0
   26.4772  -20.2898  -12.1082 C   0  0  0  0  0  0  0  0  0  0  0  0
   27.0196  -20.0939  -13.4565 C   0  0  0  0  0  0  0  0  0  0  0  0
   26.4802  -21.0774  -14.4304 C   0  0  2  0  0  0  0  0  0  0  0  0
   27.0979  -20.9349  -15.7452 N   0  0  0  0  0  0  0  0  0  0  0  0
   24.9981  -21.0233  -14.5414 C   0  0  0  0  0  0  0  0  0  0  0  0
   24.4024  -20.0478  -15.0584 O   0  0  0  0  0  0  0  0  0  0  0  0
   25.4030  -19.5832  -11.6189 C   0  0  0  0  0  0  0  0  0  0  0  0
   24.8920  -19.7611  -10.3601 C   0  0  0  0  0  0  0  0  0  0  0  0
   18.7031  -24.6144  -11.1320 N   0  0  0  0  0  0  0  0  0  0  0  0
   17.8760  -23.8050  -11.9447 C   0  0  0  0  0  0  0  0  0  0  0  0
   16.7630  -23.3868  -11.5070 N   0  0  0  0  0  0  0  0  0  0  0  0
   18.3135  -23.4724  -13.2528 N   0  0  0  0  0  0  0  0  0  0  0  0
   19.6517  -23.8795  -13.7151 C   0  0  0  0  0  0  0  0  0  0  0  0
   20.6488  -23.0131  -13.0310 C   0  0  0  0  0  0  0  0  0  0  0  0
   22.0642  -23.1861  -13.4388 C   0  0  0  0  0  0  0  0  0  0  0  0
   22.7297  -22.0064  -14.0461 C   0  0  2  0  0  0  0  0  0  0  0  0
   24.1736  -22.0835  -14.0634 N   0  0  0  0  0  0  0  0  0  0  0  0
   22.3490  -20.7010  -13.4610 C   0  0  0  0  0  0  0  0  0  0  0  0
   22.8571  -20.3341  -12.3747 O   0  0  0  0  0  0  0  0  0  0  0  0
   21.4379  -19.8575  -14.0757 O   0  0  0  0  0  0  0  0  0  0  0  0
  2  1  1  1
  2  3  1  0
  4  2  1  0
  4  5  2  0
  7  8  2  0
  7  6  1  0
  9  8  1  0
 10  9  2  0
 11 10  1  0
 12 11  1  1
 12 13  1  0
 13  4  1  0
 14 12  1  0
 15 14  2  0
 16 10  1  0
 16 17  2  0
 17  7  1  0
 19 18  1  0
 19 21  1  0
 20 19  2  0
 21 22  1  0
 22 23  1  0
 23 24  1  0
 25 24  1  1
 25 26  1  0
 25 27  1  0
 26 14  1  0
 27 28  2  0
 27 29  1  0
M  END
$$$$
