AYR.pdb
     RDKit          3D

 29 29  0  0  1  0  0  0  0  0999 V2000
   19.8247  -25.2571  -19.3716 C   0  0  0  0  0  0  0  0  0  0  0  0
   21.0800  -24.5168  -18.9622 C   0  0  2  0  0  0  0  0  0  0  0  0
   22.1983  -25.1458  -19.6047 N   0  0  0  0  0  0  0  0  0  0  0  0
   21.1905  -24.5816  -17.4787 C   0  0  0  0  0  0  0  0  0  0  0  0
   21.6882  -25.5906  -16.8952 O   0  0  0  0  0  0  0  0  0  0  0  0
   27.0375  -23.2824  -16.9275 O   0  0  0  0  0  0  0  0  0  0  0  0
   25.7695  -23.1045  -16.3797 C   0  0  0  0  0  0  0  0  0  0  0  0
   24.9521  -22.0651  -16.7790 C   0  0  0  0  0  0  0  0  0  0  0  0
   23.6783  -21.8972  -16.2204 C   0  0  0  0  0  0  0  0  0  0  0  0
   23.2074  -22.7612  -15.2601 C   0  0  0  0  0  0  0  0  0  0  0  0
   21.8723  -22.5724  -14.6836 C   0  0  0  0  0  0  0  0  0  0  0  0
   20.8980  -23.5811  -15.1737 C   0  0  2  0  0  0  0  0  0  0  0  0
   20.7544  -23.5372  -16.6255 N   0  0  0  0  0  0  0  0  0  0  0  0
   19.5700  -23.4657  -14.5141 C   0  0  0  0  0  0  0  0  0  0  0  0
   18.6647  -22.7214  -14.9615 O   0  0  0  0  0  0  0  0  0  0  0  0
   24.0501  -23.7832  -14.8885 C   0  0  0  0  0  0  0  0  0  0  0  0
   25.2988  -23.9646  -15.4227 C   0  0  0  0  0  0  0  0  0  0  0  0
   18.6655  -24.7189   -6.4683 N   0  0  0  0  0  0  0  0  0  0  0  0
   17.6794  -25.6062   -6.9583 C   0  0  0  0  0  0  0  0  0  0  0  0
   16.7835  -26.0564   -6.1838 N   0  0  0  0  0  0  0  0  0  0  0  0
   17.7125  -25.9812   -8.3264 N   0  0  0  0  0  0  0  0  0  0  0  0
   18.7558  -25.4468   -9.2187 C   0  0  0  0  0  0  0  0  0  0  0  0
   18.1010  -24.5053  -10.1661 C   0  0  0  0  0  0  0  0  0  0  0  0
   17.8101  -25.0292  -11.5226 C   0  0  0  0  0  0  0  0  0  0  0  0
   17.9853  -24.0824  -12.6524 C   0  0  2  0  0  0  0  0  0  0  0  0
   19.2559  -24.1995  -13.3329 N   0  0  0  0  0  0  0  0  0  0  0  0
   17.7783  -22.6563  -12.3137 C   0  0  0  0  0  0  0  0  0  0  0  0
   16.6156  -22.1874  -12.2792 O   0  0  0  0  0  0  0  0  0  0  0  0
   18.8356  -21.8068  -12.0312 O   0  0  0  0  0  0  0  0  0  0  0  0
  2  1  1  6
  2  3  1  0
  4  2  1  0
  4  5  2  0
  7  8  2  0
  7  6  1  0
  9  8  1  0
 10  9  2  0
 11 10  1  0
 12 11  1  1
 12 13  1  0
 13  4  1  0
 14 12  1  0
 15 14  2  0
 16 10  1  0
 16 17  2  0
 17  7  1  0
 19 18  1  0
 19 21  1  0
 20 19  2  0
 21 22  1  0
 22 23  1  0
 23 24  1  0
 25 24  1  1
 25 26  1  0
 25 27  1  0
 26 14  1  0
 27 28  2  0
 27 29  1  0
M  END
$$$$
