AYR.pdb
     RDKit          3D

 29 29  0  0  1  0  0  0  0  0999 V2000
   25.8138  -16.6641  -17.9617 C   0  0  0  0  0  0  0  0  0  0  0  0
   24.6147  -16.5598  -17.0437 C   0  0  2  0  0  0  0  0  0  0  0  0
   24.9561  -15.6804  -15.9624 N   0  0  0  0  0  0  0  0  0  0  0  0
   24.2861  -17.9280  -16.5568 C   0  0  0  0  0  0  0  0  0  0  0  0
   23.9265  -18.8458  -17.3534 O   0  0  0  0  0  0  0  0  0  0  0  0
   29.4343  -22.0935  -16.9739 O   0  0  0  0  0  0  0  0  0  0  0  0
   28.3653  -21.6295  -16.2115 C   0  0  0  0  0  0  0  0  0  0  0  0
   28.3802  -20.3716  -15.6409 C   0  0  0  0  0  0  0  0  0  0  0  0
   27.2981  -19.9165  -14.8763 C   0  0  0  0  0  0  0  0  0  0  0  0
   26.1928  -20.7085  -14.6727 C   0  0  0  0  0  0  0  0  0  0  0  0
   25.0679  -20.2190  -13.8692 C   0  0  0  0  0  0  0  0  0  0  0  0
   23.9923  -19.6268  -14.7054 C   0  0  2  0  0  0  0  0  0  0  0  0
   24.3505  -18.2974  -15.1900 N   0  0  0  0  0  0  0  0  0  0  0  0
   22.6773  -19.5926  -14.0115 C   0  0  0  0  0  0  0  0  0  0  0  0
   22.4786  -18.8898  -12.9916 O   0  0  0  0  0  0  0  0  0  0  0  0
   26.2150  -21.9540  -15.2566 C   0  0  0  0  0  0  0  0  0  0  0  0
   27.2631  -22.4174  -16.0078 C   0  0  0  0  0  0  0  0  0  0  0  0
   15.2564  -17.1684  -15.6366 N   0  0  0  0  0  0  0  0  0  0  0  0
   16.0401  -18.0098  -16.4597 C   0  0  0  0  0  0  0  0  0  0  0  0
   16.0376  -17.8556  -17.7172 N   0  0  0  0  0  0  0  0  0  0  0  0
   16.8247  -19.0251  -15.8539 N   0  0  0  0  0  0  0  0  0  0  0  0
   16.8441  -19.1747  -14.3885 C   0  0  0  0  0  0  0  0  0  0  0  0
   17.7830  -20.2808  -14.0598 C   0  0  0  0  0  0  0  0  0  0  0  0
   19.1220  -20.2210  -14.6945 C   0  0  0  0  0  0  0  0  0  0  0  0
   20.2917  -20.3795  -13.7944 C   0  0  2  0  0  0  0  0  0  0  0  0
   21.5688  -20.3613  -14.4726 N   0  0  0  0  0  0  0  0  0  0  0  0
   20.2547  -21.5749  -12.9221 C   0  0  0  0  0  0  0  0  0  0  0  0
   20.6884  -22.6711  -13.3500 O   0  0  0  0  0  0  0  0  0  0  0  0
   19.7500  -21.5288  -11.6327 O   0  0  0  0  0  0  0  0  0  0  0  0
  2  1  1  6
  2  3  1  0
  4  2  1  0
  4  5  2  0
  7  8  2  0
  7  6  1  0
  9  8  1  0
 10  9  2  0
 11 10  1  0
 12 11  1  1
 12 13  1  0
 13  4  1  0
 14 12  1  0
 15 14  2  0
 16 10  1  0
 16 17  2  0
 17  7  1  0
 19 18  1  0
 19 21  1  0
 20 19  2  0
 21 22  1  0
 22 23  1  0
 23 24  1  0
 25 24  1  6
 25 26  1  0
 25 27  1  0
 26 14  1  0
 27 28  2  0
 27 29  1  0
M  END
$$$$
