AYR.pdb
     RDKit          3D

 29 29  0  0  1  0  0  0  0  0999 V2000
   20.3500  -10.9297  -18.9490 C   0  0  0  0  0  0  0  0  0  0  0  0
   21.4140  -10.3263  -18.0571 C   0  0  2  0  0  0  0  0  0  0  0  0
   22.1795  -11.3984  -17.4881 N   0  0  0  0  0  0  0  0  0  0  0  0
   20.7327   -9.5197  -17.0072 C   0  0  0  0  0  0  0  0  0  0  0  0
   19.5028   -9.2256  -17.0922 O   0  0  0  0  0  0  0  0  0  0  0  0
   18.4671   -5.4131   -9.5752 O   0  0  0  0  0  0  0  0  0  0  0  0
   19.1123   -6.1919  -10.5325 C   0  0  0  0  0  0  0  0  0  0  0  0
   20.2560   -5.7499  -11.1686 C   0  0  0  0  0  0  0  0  0  0  0  0
   20.8960   -6.5432  -12.1298 C   0  0  0  0  0  0  0  0  0  0  0  0
   20.4037   -7.7821  -12.4663 C   0  0  0  0  0  0  0  0  0  0  0  0
   21.0837   -8.6010  -13.4750 C   0  0  0  0  0  0  0  0  0  0  0  0
   20.7515   -8.1811  -14.8607 C   0  0  2  0  0  0  0  0  0  0  0  0
   21.3986   -9.0305  -15.8557 N   0  0  0  0  0  0  0  0  0  0  0  0
   21.0597   -6.7489  -15.1171 C   0  0  0  0  0  0  0  0  0  0  0  0
   22.2235   -6.3498  -15.3617 O   0  0  0  0  0  0  0  0  0  0  0  0
   19.2635   -8.1873  -11.8117 C   0  0  0  0  0  0  0  0  0  0  0  0
   18.6231   -7.4267  -10.8689 C   0  0  0  0  0  0  0  0  0  0  0  0
   15.0184   -5.1921  -19.0987 N   0  0  0  0  0  0  0  0  0  0  0  0
   15.3609   -5.6937  -17.8216 C   0  0  0  0  0  0  0  0  0  0  0  0
   14.7305   -6.6773  -17.3315 N   0  0  0  0  0  0  0  0  0  0  0  0
   16.4180   -5.0774  -17.1032 N   0  0  0  0  0  0  0  0  0  0  0  0
   17.2271   -4.0195  -17.7328 C   0  0  0  0  0  0  0  0  0  0  0  0
   18.2010   -3.5323  -16.7193 C   0  0  0  0  0  0  0  0  0  0  0  0
   19.5834   -4.0587  -16.8252 C   0  0  0  0  0  0  0  0  0  0  0  0
   20.2657   -4.3954  -15.5507 C   0  0  2  0  0  0  0  0  0  0  0  0
   20.0422   -5.7505  -15.0981 N   0  0  0  0  0  0  0  0  0  0  0  0
   19.9732   -3.4829  -14.4224 C   0  0  0  0  0  0  0  0  0  0  0  0
   20.6703   -2.4534  -14.2578 O   0  0  0  0  0  0  0  0  0  0  0  0
   18.9449   -3.7274  -13.5268 O   0  0  0  0  0  0  0  0  0  0  0  0
  2  1  1  6
  2  3  1  0
  4  2  1  0
  4  5  2  0
  7  8  2  0
  7  6  1  0
  9  8  1  0
 10  9  2  0
 11 10  1  0
 12 11  1  1
 12 13  1  0
 13  4  1  0
 14 12  1  0
 15 14  2  0
 16 10  1  0
 16 17  2  0
 17  7  1  0
 19 18  1  0
 19 21  1  0
 20 19  2  0
 21 22  1  0
 22 23  1  0
 23 24  1  0
 25 24  1  6
 25 26  1  0
 25 27  1  0
 26 14  1  0
 27 28  2  0
 27 29  1  0
M  END
$$$$
