AYR.pdb
     RDKit          3D

 29 29  0  0  1  0  0  0  0  0999 V2000
   26.0536  -22.6456  -17.6686 C   0  0  0  0  0  0  0  0  0  0  0  0
   26.8514  -21.8013  -16.6978 C   0  0  2  0  0  0  0  0  0  0  0  0
   28.2059  -22.2750  -16.7036 N   0  0  0  0  0  0  0  0  0  0  0  0
   26.2285  -21.9335  -15.3518 C   0  0  0  0  0  0  0  0  0  0  0  0
   25.9883  -23.0686  -14.8419 O   0  0  0  0  0  0  0  0  0  0  0  0
   31.3924  -21.5025  -11.0522 O   0  0  0  0  0  0  0  0  0  0  0  0
   30.0841  -21.1290  -11.3493 C   0  0  0  0  0  0  0  0  0  0  0  0
   29.0157  -21.5993  -10.6107 C   0  0  0  0  0  0  0  0  0  0  0  0
   27.7042  -21.2158  -10.9197 C   0  0  0  0  0  0  0  0  0  0  0  0
   27.4445  -20.3619  -11.9656 C   0  0  0  0  0  0  0  0  0  0  0  0
   26.0663  -19.9699  -12.2778 C   0  0  0  0  0  0  0  0  0  0  0  0
   25.3941  -20.9399  -13.1801 C   0  0  2  0  0  0  0  0  0  0  0  0
   25.8650  -20.8182  -14.5563 N   0  0  0  0  0  0  0  0  0  0  0  0
   23.9110  -20.8436  -13.1256 C   0  0  0  0  0  0  0  0  0  0  0  0
   23.2671  -20.0415  -13.8437 O   0  0  0  0  0  0  0  0  0  0  0  0
   28.5337  -19.9152  -12.6774 C   0  0  0  0  0  0  0  0  0  0  0  0
   29.8236  -20.2782  -12.3911 C   0  0  0  0  0  0  0  0  0  0  0  0
   17.2718  -24.9964   -8.4642 N   0  0  0  0  0  0  0  0  0  0  0  0
   16.7042  -23.9739   -9.2594 C   0  0  0  0  0  0  0  0  0  0  0  0
   15.4489  -23.8047   -9.2817 N   0  0  0  0  0  0  0  0  0  0  0  0
   17.5627  -23.1459  -10.0279 N   0  0  0  0  0  0  0  0  0  0  0  0
   19.0078  -23.4259  -10.0880 C   0  0  0  0  0  0  0  0  0  0  0  0
   19.6194  -22.4446  -11.0239 C   0  0  0  0  0  0  0  0  0  0  0  0
   21.0901  -22.5250  -11.1968 C   0  0  0  0  0  0  0  0  0  0  0  0
   21.7046  -21.5444  -12.1264 C   0  0  2  0  0  0  0  0  0  0  0  0
   23.1406  -21.6628  -12.2494 N   0  0  0  0  0  0  0  0  0  0  0  0
   21.3857  -20.1267  -11.8437 C   0  0  0  0  0  0  0  0  0  0  0  0
   21.9983  -19.5210  -10.9322 O   0  0  0  0  0  0  0  0  0  0  0  0
   20.4208  -19.4339  -12.5566 O   0  0  0  0  0  0  0  0  0  0  0  0
  2  1  1  6
  2  3  1  0
  4  2  1  0
  4  5  2  0
  7  8  2  0
  7  6  1  0
  9  8  1  0
 10  9  2  0
 11 10  1  0
 12 11  1  1
 12 13  1  0
 13  4  1  0
 14 12  1  0
 15 14  2  0
 16 10  1  0
 16 17  2  0
 17  7  1  0
 19 18  1  0
 19 21  1  0
 20 19  2  0
 21 22  1  0
 22 23  1  0
 23 24  1  0
 25 24  1  1
 25 26  1  0
 25 27  1  0
 26 14  1  0
 27 28  2  0
 27 29  1  0
M  END
$$$$
