AYR.pdb
     RDKit          3D

 29 29  0  0  1  0  0  0  0  0999 V2000
   29.3597  -18.4235  -19.6295 C   0  0  0  0  0  0  0  0  0  0  0  0
   27.9071  -18.3873  -19.2049 C   0  0  2  0  0  0  0  0  0  0  0  0
   27.5305  -17.0149  -19.0205 N   0  0  0  0  0  0  0  0  0  0  0  0
   27.7757  -19.1676  -17.9435 C   0  0  0  0  0  0  0  0  0  0  0  0
   27.9648  -20.4205  -17.9172 O   0  0  0  0  0  0  0  0  0  0  0  0
   26.0878  -21.2793   -9.4980 O   0  0  0  0  0  0  0  0  0  0  0  0
   26.4527  -20.6184  -10.6682 C   0  0  0  0  0  0  0  0  0  0  0  0
   27.5296  -21.0367  -11.4255 C   0  0  0  0  0  0  0  0  0  0  0  0
   27.8862  -20.3633  -12.6011 C   0  0  0  0  0  0  0  0  0  0  0  0
   27.1753  -19.2685  -13.0329 C   0  0  0  0  0  0  0  0  0  0  0  0
   27.5609  -18.5730  -14.2650 C   0  0  0  0  0  0  0  0  0  0  0  0
   27.2149  -19.3494  -15.4834 C   0  0  2  0  0  0  0  0  0  0  0  0
   27.4354  -18.5759  -16.7014 N   0  0  0  0  0  0  0  0  0  0  0  0
   25.8280  -19.8853  -15.4493 C   0  0  0  0  0  0  0  0  0  0  0  0
   24.8293  -19.1697  -15.7024 O   0  0  0  0  0  0  0  0  0  0  0  0
   26.1102  -18.8823  -12.2524 C   0  0  0  0  0  0  0  0  0  0  0  0
   25.7453  -19.5274  -11.0999 C   0  0  0  0  0  0  0  0  0  0  0  0
   19.1178  -21.7857  -11.3566 N   0  0  0  0  0  0  0  0  0  0  0  0
   19.3708  -21.3418  -12.6753 C   0  0  0  0  0  0  0  0  0  0  0  0
   18.4575  -21.3903  -13.5519 N   0  0  0  0  0  0  0  0  0  0  0  0
   20.6603  -20.8442  -12.9963 N   0  0  0  0  0  0  0  0  0  0  0  0
   21.7786  -21.0134  -12.0525 C   0  0  0  0  0  0  0  0  0  0  0  0
   22.8945  -21.6677  -12.7870 C   0  0  0  0  0  0  0  0  0  0  0  0
   23.3956  -20.9625  -13.9915 C   0  0  0  0  0  0  0  0  0  0  0  0
   24.2222  -21.7593  -14.9324 C   0  0  2  0  0  0  0  0  0  0  0  0
   25.5610  -21.2477  -15.1254 N   0  0  0  0  0  0  0  0  0  0  0  0
   23.6198  -21.9774  -16.2668 C   0  0  0  0  0  0  0  0  0  0  0  0
   23.8482  -21.1635  -17.1932 O   0  0  0  0  0  0  0  0  0  0  0  0
   22.7995  -23.0612  -16.5349 O   0  0  0  0  0  0  0  0  0  0  0  0
  2  1  1  1
  2  3  1  0
  4  2  1  0
  4  5  2  0
  7  8  2  0
  7  6  1  0
  9  8  1  0
 10  9  2  0
 11 10  1  0
 12 11  1  1
 12 13  1  0
 13  4  1  0
 14 12  1  0
 15 14  2  0
 16 10  1  0
 16 17  2  0
 17  7  1  0
 19 18  1  0
 19 21  1  0
 20 19  2  0
 21 22  1  0
 22 23  1  0
 23 24  1  0
 25 24  1  1
 25 26  1  0
 25 27  1  0
 26 14  1  0
 27 28  2  0
 27 29  1  0
M  END
$$$$
