AYR.pdb
     RDKit          3D

 29 29  0  0  1  0  0  0  0  0999 V2000
   24.3106  -22.9666  -16.4368 C   0  0  0  0  0  0  0  0  0  0  0  0
   25.1484  -22.8707  -15.1795 C   0  0  2  0  0  0  0  0  0  0  0  0
   24.5262  -23.6746  -14.1667 N   0  0  0  0  0  0  0  0  0  0  0  0
   25.2170  -21.4382  -14.7792 C   0  0  0  0  0  0  0  0  0  0  0  0
   24.2129  -20.8381  -14.2916 O   0  0  0  0  0  0  0  0  0  0  0  0
   25.8318  -21.2629   -8.4608 O   0  0  0  0  0  0  0  0  0  0  0  0
   26.2336  -20.7183   -9.6779 C   0  0  0  0  0  0  0  0  0  0  0  0
   25.7298  -19.5139  -10.1291 C   0  0  0  0  0  0  0  0  0  0  0  0
   26.1425  -18.9765  -11.3553 C   0  0  0  0  0  0  0  0  0  0  0  0
   27.0591  -19.6324  -12.1427 C   0  0  0  0  0  0  0  0  0  0  0  0
   27.4810  -19.0581  -13.4244 C   0  0  0  0  0  0  0  0  0  0  0  0
   26.4690  -19.2587  -14.4933 C   0  0  2  0  0  0  0  0  0  0  0  0
   26.3905  -20.6546  -14.9122 N   0  0  0  0  0  0  0  0  0  0  0  0
   26.6897  -18.3730  -15.6675 C   0  0  0  0  0  0  0  0  0  0  0  0
   27.4497  -18.6939  -16.6125 O   0  0  0  0  0  0  0  0  0  0  0  0
   27.5377  -20.8284  -11.6598 C   0  0  0  0  0  0  0  0  0  0  0  0
   27.1470  -21.3706  -10.4636 C   0  0  0  0  0  0  0  0  0  0  0  0
   20.4261  -12.9923  -17.0491 N   0  0  0  0  0  0  0  0  0  0  0  0
   20.7129  -14.2849  -16.5525 C   0  0  0  0  0  0  0  0  0  0  0  0
   19.7713  -15.0824  -16.2655 N   0  0  0  0  0  0  0  0  0  0  0  0
   22.0680  -14.6695  -16.3821 N   0  0  0  0  0  0  0  0  0  0  0  0
   23.1551  -13.7625  -16.7893 C   0  0  0  0  0  0  0  0  0  0  0  0
   24.4449  -14.4437  -16.4974 C   0  0  0  0  0  0  0  0  0  0  0  0
   24.7416  -15.6629  -17.2879 C   0  0  0  0  0  0  0  0  0  0  0  0
   26.0323  -16.3399  -17.0061 C   0  0  2  0  0  0  0  0  0  0  0  0
   26.0448  -17.1066  -15.7801 N   0  0  0  0  0  0  0  0  0  0  0  0
   27.2179  -15.4536  -17.0027 C   0  0  0  0  0  0  0  0  0  0  0  0
   27.8206  -15.2247  -15.9269 O   0  0  0  0  0  0  0  0  0  0  0  0
   27.6931  -14.8568  -18.1592 O   0  0  0  0  0  0  0  0  0  0  0  0
  2  1  1  6
  2  3  1  0
  4  2  1  0
  4  5  2  0
  7  8  2  0
  7  6  1  0
  9  8  1  0
 10  9  2  0
 11 10  1  0
 12 11  1  1
 12 13  1  0
 13  4  1  0
 14 12  1  0
 15 14  2  0
 16 10  1  0
 16 17  2  0
 17  7  1  0
 19 18  1  0
 19 21  1  0
 20 19  2  0
 21 22  1  0
 22 23  1  0
 23 24  1  0
 25 24  1  1
 25 26  1  0
 25 27  1  0
 26 14  1  0
 27 28  2  0
 27 29  1  0
M  END
$$$$
