AYR.pdb
     RDKit          3D

 29 29  0  0  1  0  0  0  0  0999 V2000
   26.2061  -25.5455  -15.0108 C   0  0  0  0  0  0  0  0  0  0  0  0
   25.6387  -24.6770  -16.1133 C   0  0  2  0  0  0  0  0  0  0  0  0
   26.7349  -24.0582  -16.8022 N   0  0  0  0  0  0  0  0  0  0  0  0
   24.7412  -23.6665  -15.4886 C   0  0  0  0  0  0  0  0  0  0  0  0
   25.0922  -23.0151  -14.4597 O   0  0  0  0  0  0  0  0  0  0  0  0
   18.9966  -17.1498  -14.3552 O   0  0  0  0  0  0  0  0  0  0  0  0
   19.8234  -18.1494  -14.8617 C   0  0  0  0  0  0  0  0  0  0  0  0
   21.1602  -18.2193  -14.5212 C   0  0  0  0  0  0  0  0  0  0  0  0
   21.9814  -19.2303  -15.0375 C   0  0  0  0  0  0  0  0  0  0  0  0
   21.4799  -20.1794  -15.8966 C   0  0  0  0  0  0  0  0  0  0  0  0
   22.3517  -21.2312  -16.4298 C   0  0  0  0  0  0  0  0  0  0  0  0
   22.6074  -22.3084  -15.4394 C   0  0  2  0  0  0  0  0  0  0  0  0
   23.4506  -23.3645  -15.9908 N   0  0  0  0  0  0  0  0  0  0  0  0
   21.3555  -22.8808  -14.8762 C   0  0  0  0  0  0  0  0  0  0  0  0
   20.7230  -23.7987  -15.4516 O   0  0  0  0  0  0  0  0  0  0  0  0
   20.1448  -20.0766  -16.2121 C   0  0  0  0  0  0  0  0  0  0  0  0
   19.3252  -19.0960  -15.7179 C   0  0  0  0  0  0  0  0  0  0  0  0
   16.6859  -25.4157   -8.1300 N   0  0  0  0  0  0  0  0  0  0  0  0
   18.0445  -25.1215   -7.8702 C   0  0  0  0  0  0  0  0  0  0  0  0
   18.4555  -25.0020   -6.6778 N   0  0  0  0  0  0  0  0  0  0  0  0
   18.9338  -24.9630   -8.9645 N   0  0  0  0  0  0  0  0  0  0  0  0
   18.4378  -25.0718  -10.3473 C   0  0  0  0  0  0  0  0  0  0  0  0
   19.5767  -24.7829  -11.2597 C   0  0  0  0  0  0  0  0  0  0  0  0
   19.7958  -23.3591  -11.6121 C   0  0  0  0  0  0  0  0  0  0  0  0
   19.6296  -22.9952  -13.0416 C   0  0  2  0  0  0  0  0  0  0  0  0
   20.8071  -22.4129  -13.6463 N   0  0  0  0  0  0  0  0  0  0  0  0
   18.4804  -22.1091  -13.3339 C   0  0  0  0  0  0  0  0  0  0  0  0
   18.6015  -20.8681  -13.1993 O   0  0  0  0  0  0  0  0  0  0  0  0
   17.2575  -22.6058  -13.7549 O   0  0  0  0  0  0  0  0  0  0  0  0
  2  1  1  1
  2  3  1  0
  4  2  1  0
  4  5  2  0
  7  8  2  0
  7  6  1  0
  9  8  1  0
 10  9  2  0
 11 10  1  0
 12 11  1  6
 12 13  1  0
 13  4  1  0
 14 12  1  0
 15 14  2  0
 16 10  1  0
 16 17  2  0
 17  7  1  0
 19 18  1  0
 19 21  1  0
 20 19  2  0
 21 22  1  0
 22 23  1  0
 23 24  1  0
 25 24  1  1
 25 26  1  0
 25 27  1  0
 26 14  1  0
 27 28  2  0
 27 29  1  0
M  END
$$$$
