AYR.pdb
     RDKit          3D

 29 29  0  0  1  0  0  0  0  0999 V2000
   28.9993  -21.6981  -17.6976 C   0  0  0  0  0  0  0  0  0  0  0  0
   27.8882  -22.4009  -16.9472 C   0  0  2  0  0  0  0  0  0  0  0  0
   27.3510  -23.4225  -17.7998 N   0  0  0  0  0  0  0  0  0  0  0  0
   26.8591  -21.3858  -16.5899 C   0  0  0  0  0  0  0  0  0  0  0  0
   27.1157  -20.4353  -15.7918 O   0  0  0  0  0  0  0  0  0  0  0  0
   19.7717  -16.1492  -16.6406 O   0  0  0  0  0  0  0  0  0  0  0  0
   20.7551  -17.0807  -16.9638 C   0  0  0  0  0  0  0  0  0  0  0  0
   20.4468  -18.4117  -17.1678 C   0  0  0  0  0  0  0  0  0  0  0  0
   21.4454  -19.3390  -17.4929 C   0  0  0  0  0  0  0  0  0  0  0  0
   22.7584  -18.9503  -17.6175 C   0  0  0  0  0  0  0  0  0  0  0  0
   23.7931  -19.9324  -17.9574 C   0  0  0  0  0  0  0  0  0  0  0  0
   24.5300  -20.4133  -16.7605 C   0  0  2  0  0  0  0  0  0  0  0  0
   25.5399  -21.4082  -17.1076 N   0  0  0  0  0  0  0  0  0  0  0  0
   23.6267  -20.9344  -15.7000 C   0  0  0  0  0  0  0  0  0  0  0  0
   23.0425  -22.0396  -15.8044 O   0  0  0  0  0  0  0  0  0  0  0  0
   23.0259  -17.6174  -17.4069 C   0  0  0  0  0  0  0  0  0  0  0  0
   22.0638  -16.6951  -17.0885 C   0  0  0  0  0  0  0  0  0  0  0  0
   24.3196  -21.0734   -7.2706 N   0  0  0  0  0  0  0  0  0  0  0  0
   24.9837  -20.7042   -8.4633 C   0  0  0  0  0  0  0  0  0  0  0  0
   26.2452  -20.5883   -8.4825 N   0  0  0  0  0  0  0  0  0  0  0  0
   24.2145  -20.4668   -9.6318 N   0  0  0  0  0  0  0  0  0  0  0  0
   22.7428  -20.4757   -9.5675 C   0  0  0  0  0  0  0  0  0  0  0  0
   22.2335  -20.8140  -10.9237 C   0  0  0  0  0  0  0  0  0  0  0  0
   23.0806  -20.4020  -12.0691 C   0  0  0  0  0  0  0  0  0  0  0  0
   22.5628  -20.7141  -13.4247 C   0  0  2  0  0  0  0  0  0  0  0  0
   23.3773  -20.2005  -14.5036 N   0  0  0  0  0  0  0  0  0  0  0  0
   21.1632  -20.3004  -13.6724 C   0  0  0  0  0  0  0  0  0  0  0  0
   20.2430  -21.1504  -13.6112 O   0  0  0  0  0  0  0  0  0  0  0  0
   20.8261  -18.9913  -13.9755 O   0  0  0  0  0  0  0  0  0  0  0  0
  2  1  1  6
  2  3  1  0
  4  2  1  0
  4  5  2  0
  7  8  2  0
  7  6  1  0
  9  8  1  0
 10  9  2  0
 11 10  1  0
 12 11  1  6
 12 13  1  0
 13  4  1  0
 14 12  1  0
 15 14  2  0
 16 10  1  0
 16 17  2  0
 17  7  1  0
 19 18  1  0
 19 21  1  0
 20 19  2  0
 21 22  1  0
 22 23  1  0
 23 24  1  0
 25 24  1  1
 25 26  1  0
 25 27  1  0
 26 14  1  0
 27 28  2  0
 27 29  1  0
M  END
$$$$
