AYR.pdb
     RDKit          3D

 29 29  0  0  1  0  0  0  0  0999 V2000
   24.7109  -17.7487  -17.3833 C   0  0  0  0  0  0  0  0  0  0  0  0
   23.5559  -18.0277  -16.4454 C   0  0  2  0  0  0  0  0  0  0  0  0
   23.8035  -17.3336  -15.2142 N   0  0  0  0  0  0  0  0  0  0  0  0
   23.4744  -19.5002  -16.2396 C   0  0  0  0  0  0  0  0  0  0  0  0
   23.1630  -20.2847  -17.1850 O   0  0  0  0  0  0  0  0  0  0  0  0
   23.6893  -20.2167   -8.5081 O   0  0  0  0  0  0  0  0  0  0  0  0
   23.9059  -20.6763   -9.8047 C   0  0  0  0  0  0  0  0  0  0  0  0
   25.0905  -21.2901  -10.1626 C   0  0  0  0  0  0  0  0  0  0  0  0
   25.2959  -21.7485  -11.4705 C   0  0  0  0  0  0  0  0  0  0  0  0
   24.3253  -21.5999  -12.4329 C   0  0  0  0  0  0  0  0  0  0  0  0
   24.5548  -22.0839  -13.7980 C   0  0  0  0  0  0  0  0  0  0  0  0
   23.5568  -21.5512  -14.7610 C   0  0  2  0  0  0  0  0  0  0  0  0
   23.7346  -20.1211  -14.9924 N   0  0  0  0  0  0  0  0  0  0  0  0
   22.1555  -21.8445  -14.3582 C   0  0  0  0  0  0  0  0  0  0  0  0
   21.4170  -20.9782  -13.8313 O   0  0  0  0  0  0  0  0  0  0  0  0
   23.1600  -20.9841  -12.0385 C   0  0  0  0  0  0  0  0  0  0  0  0
   22.9397  -20.5292  -10.7649 C   0  0  0  0  0  0  0  0  0  0  0  0
   18.5353  -25.4441   -9.3905 N   0  0  0  0  0  0  0  0  0  0  0  0
   17.6389  -24.3508   -9.4223 C   0  0  0  0  0  0  0  0  0  0  0  0
   17.2435  -23.8175   -8.3433 N   0  0  0  0  0  0  0  0  0  0  0  0
   17.1928  -23.8654  -10.6788 N   0  0  0  0  0  0  0  0  0  0  0  0
   17.8541  -24.3006  -11.9212 C   0  0  0  0  0  0  0  0  0  0  0  0
   18.2724  -23.0800  -12.6616 C   0  0  0  0  0  0  0  0  0  0  0  0
   19.7216  -22.9439  -12.9454 C   0  0  0  0  0  0  0  0  0  0  0  0
   20.1859  -23.4165  -14.2738 C   0  0  2  0  0  0  0  0  0  0  0  0
   21.5764  -23.1328  -14.5516 N   0  0  0  0  0  0  0  0  0  0  0  0
   19.3842  -22.9416  -15.4240 C   0  0  0  0  0  0  0  0  0  0  0  0
   18.6954  -23.7577  -16.0816 O   0  0  0  0  0  0  0  0  0  0  0  0
   19.3669  -21.6108  -15.8087 O   0  0  0  0  0  0  0  0  0  0  0  0
  2  1  1  6
  2  3  1  0
  4  2  1  0
  4  5  2  0
  7  8  2  0
  7  6  1  0
  9  8  1  0
 10  9  2  0
 11 10  1  0
 12 11  1  1
 12 13  1  0
 13  4  1  0
 14 12  1  0
 15 14  2  0
 16 10  1  0
 16 17  2  0
 17  7  1  0
 19 18  1  0
 19 21  1  0
 20 19  2  0
 21 22  1  0
 22 23  1  0
 23 24  1  0
 25 24  1  1
 25 26  1  0
 25 27  1  0
 26 14  1  0
 27 28  2  0
 27 29  1  0
M  END
$$$$
