AYR.pdb
     RDKit          3D

 29 29  0  0  1  0  0  0  0  0999 V2000
   16.5862  -23.5158  -18.0201 C   0  0  0  0  0  0  0  0  0  0  0  0
   18.0009  -23.9945  -18.2671 C   0  0  2  0  0  0  0  0  0  0  0  0
   18.4800  -24.6102  -17.0628 N   0  0  0  0  0  0  0  0  0  0  0  0
   18.8268  -22.8155  -18.6479 C   0  0  0  0  0  0  0  0  0  0  0  0
   19.1711  -22.6087  -19.8500 O   0  0  0  0  0  0  0  0  0  0  0  0
   15.8629  -17.9045  -21.7995 O   0  0  0  0  0  0  0  0  0  0  0  0
   16.7774  -18.2777  -20.8179 C   0  0  0  0  0  0  0  0  0  0  0  0
   18.1082  -17.9165  -20.8990 C   0  0  0  0  0  0  0  0  0  0  0  0
   19.0183  -18.2980  -19.9045 C   0  0  0  0  0  0  0  0  0  0  0  0
   18.6124  -19.0418  -18.8217 C   0  0  0  0  0  0  0  0  0  0  0  0
   19.5766  -19.4347  -17.7889 C   0  0  0  0  0  0  0  0  0  0  0  0
   20.1838  -20.7632  -18.0595 C   0  0  2  0  0  0  0  0  0  0  0  0
   19.2804  -21.8549  -17.7097 N   0  0  0  0  0  0  0  0  0  0  0  0
   21.5004  -20.9406  -17.3908 C   0  0  0  0  0  0  0  0  0  0  0  0
   21.6021  -21.1194  -16.1534 O   0  0  0  0  0  0  0  0  0  0  0  0
   17.2802  -19.3821  -18.7762 C   0  0  0  0  0  0  0  0  0  0  0  0
   16.3746  -19.0188  -19.7382 C   0  0  0  0  0  0  0  0  0  0  0  0
   25.6142  -26.3146  -16.9757 N   0  0  0  0  0  0  0  0  0  0  0  0
   26.9345  -25.8127  -17.0442 C   0  0  0  0  0  0  0  0  0  0  0  0
   27.8506  -26.4974  -17.5892 N   0  0  0  0  0  0  0  0  0  0  0  0
   27.2124  -24.5348  -16.4937 N   0  0  0  0  0  0  0  0  0  0  0  0
   26.1230  -23.7088  -15.9450 C   0  0  0  0  0  0  0  0  0  0  0  0
   25.2601  -23.2869  -17.0809 C   0  0  0  0  0  0  0  0  0  0  0  0
   24.1153  -22.4047  -16.7484 C   0  0  0  0  0  0  0  0  0  0  0  0
   24.0114  -21.1351  -17.5105 C   0  0  2  0  0  0  0  0  0  0  0  0
   22.7214  -20.9167  -18.1263 N   0  0  0  0  0  0  0  0  0  0  0  0
   25.0510  -20.9380  -18.5459 C   0  0  0  0  0  0  0  0  0  0  0  0
   24.7623  -21.0975  -19.7558 O   0  0  0  0  0  0  0  0  0  0  0  0
   26.3503  -20.5806  -18.2243 O   0  0  0  0  0  0  0  0  0  0  0  0
  2  1  1  1
  2  3  1  0
  4  2  1  0
  4  5  2  0
  7  8  2  0
  7  6  1  0
  9  8  1  0
 10  9  2  0
 11 10  1  0
 12 11  1  1
 12 13  1  0
 13  4  1  0
 14 12  1  0
 15 14  2  0
 16 10  1  0
 16 17  2  0
 17  7  1  0
 19 18  1  0
 19 21  1  0
 20 19  2  0
 21 22  1  0
 22 23  1  0
 23 24  1  0
 25 24  1  6
 25 26  1  0
 25 27  1  0
 26 14  1  0
 27 28  2  0
 27 29  1  0
M  END
$$$$
