AYR.pdb
     RDKit          3D

 29 29  0  0  1  0  0  0  0  0999 V2000
   24.1155  -25.1071  -16.1981 C   0  0  0  0  0  0  0  0  0  0  0  0
   24.7887  -23.8218  -15.7664 C   0  0  2  0  0  0  0  0  0  0  0  0
   25.9758  -24.1635  -15.0363 N   0  0  0  0  0  0  0  0  0  0  0  0
   23.8269  -23.0574  -14.9252 C   0  0  0  0  0  0  0  0  0  0  0  0
   23.5966  -23.3817  -13.7218 O   0  0  0  0  0  0  0  0  0  0  0  0
   18.6516  -16.5925  -11.8329 O   0  0  0  0  0  0  0  0  0  0  0  0
   19.5484  -17.3526  -12.5794 C   0  0  0  0  0  0  0  0  0  0  0  0
   20.6875  -17.8873  -12.0097 C   0  0  0  0  0  0  0  0  0  0  0  0
   21.5817  -18.6507  -12.7716 C   0  0  0  0  0  0  0  0  0  0  0  0
   21.3505  -18.8881  -14.1060 C   0  0  0  0  0  0  0  0  0  0  0  0
   22.2960  -19.6883  -14.8911 C   0  0  0  0  0  0  0  0  0  0  0  0
   22.2252  -21.1341  -14.5573 C   0  0  2  0  0  0  0  0  0  0  0  0
   23.1109  -21.9305  -15.4009 N   0  0  0  0  0  0  0  0  0  0  0  0
   20.8381  -21.6684  -14.6062 C   0  0  0  0  0  0  0  0  0  0  0  0
   20.3281  -22.1061  -15.6654 O   0  0  0  0  0  0  0  0  0  0  0  0
   20.2063  -18.3393  -14.6372 C   0  0  0  0  0  0  0  0  0  0  0  0
   19.3194  -17.5903  -13.9092 C   0  0  0  0  0  0  0  0  0  0  0  0
   18.1102  -26.4722   -8.6533 N   0  0  0  0  0  0  0  0  0  0  0  0
   18.5051  -25.1145   -8.6742 C   0  0  0  0  0  0  0  0  0  0  0  0
   18.5708  -24.4517   -7.5965 N   0  0  0  0  0  0  0  0  0  0  0  0
   18.8242  -24.5117   -9.9184 N   0  0  0  0  0  0  0  0  0  0  0  0
   18.8468  -25.3180  -11.1511 C   0  0  0  0  0  0  0  0  0  0  0  0
   19.1434  -24.4017  -12.2848 C   0  0  0  0  0  0  0  0  0  0  0  0
   18.3453  -23.1535  -12.3513 C   0  0  0  0  0  0  0  0  0  0  0  0
   18.6597  -22.2222  -13.4636 C   0  0  2  0  0  0  0  0  0  0  0  0
   20.0123  -21.7109  -13.4449 N   0  0  0  0  0  0  0  0  0  0  0  0
   17.7382  -21.0714  -13.5978 C   0  0  0  0  0  0  0  0  0  0  0  0
   17.9567  -20.0204  -12.9493 O   0  0  0  0  0  0  0  0  0  0  0  0
   16.6262  -21.1124  -14.4231 O   0  0  0  0  0  0  0  0  0  0  0  0
  2  1  1  1
  2  3  1  0
  4  2  1  0
  4  5  2  0
  7  8  2  0
  7  6  1  0
  9  8  1  0
 10  9  2  0
 11 10  1  0
 12 11  1  6
 12 13  1  0
 13  4  1  0
 14 12  1  0
 15 14  2  0
 16 10  1  0
 16 17  2  0
 17  7  1  0
 19 18  1  0
 19 21  1  0
 20 19  2  0
 21 22  1  0
 22 23  1  0
 23 24  1  0
 25 24  1  1
 25 26  1  0
 25 27  1  0
 26 14  1  0
 27 28  2  0
 27 29  1  0
M  END
$$$$
