RPM.pdb
     RDKit          3D

 27 27  0  0  1  0  0  0  0  0999 V2000
   19.0491  -21.2092  -14.4713 N   0  0  0  0  0  0  0  0  0  0  0  0
   17.6775  -20.9168  -14.2754 C   0  0  0  0  0  0  0  0  0  0  0  0
   17.0221  -20.2668  -15.2000 N   0  0  0  0  0  0  0  0  0  0  0  0
   16.9591  -21.2983  -13.1059 N   0  0  0  0  0  0  0  0  0  0  0  0
   17.4931  -22.3016  -12.1778 C   0  0  0  0  0  0  0  0  0  0  0  0
   17.3360  -23.6839  -12.7359 C   0  0  0  0  0  0  0  0  0  0  0  0
   16.7722  -24.6587  -11.7734 C   0  0  0  0  0  0  0  0  0  0  0  0
   17.7694  -25.4986  -11.0250 C   0  0  2  0  0  0  0  0  0  0  0  0
   18.3007  -26.5156  -11.8710 N   0  0  0  0  0  0  0  0  0  0  0  0
   17.3848  -25.8807   -9.6777 C   0  0  0  0  0  0  0  0  0  0  0  0
   16.5203  -26.8065   -9.5746 O   0  0  0  0  0  0  0  0  0  0  0  0
   15.9928  -20.0570  -15.0615 N   0  0  0  0  0  0  0  0  0  0  0  0
   17.8667  -25.3305   -8.4373 C   0  0  0  0  0  0  0  0  0  0  0  0
   18.9193  -24.3596   -8.3807 C   0  0  0  0  0  0  0  0  0  0  0  0
   19.4541  -24.4492   -6.9570 C   0  0  0  0  0  0  0  0  0  0  0  0
   18.2940  -24.9482   -6.1500 C   0  0  2  0  0  0  0  0  0  0  0  0
   17.4215  -25.6474   -7.1278 C   0  0  0  0  0  0  0  0  0  0  0  0
   15.9876  -25.2922   -6.9002 O   0  0  0  0  0  0  0  0  0  0  0  0
   15.4961  -24.3882   -7.6061 C   0  0  0  0  0  0  0  0  0  0  0  0
   11.3266  -27.3273   -1.7812 S   0  0  0  0  0  0  0  0  0  0  0  0
   11.1265  -27.8675   -3.4987 C   0  0  0  0  0  0  0  0  0  0  0  0
   11.7739  -26.6419   -4.6655 C   0  0  0  0  0  0  0  0  0  0  0  0
   13.2949  -26.7210   -4.7434 C   0  0  2  0  0  0  0  0  0  0  0  0
   13.8169  -25.6602   -5.6762 N   0  0  0  0  0  0  0  0  0  0  0  0
   15.2167  -25.9455   -5.9336 C   0  0  0  0  0  0  0  0  0  0  0  0
   13.6596  -24.3455   -4.9823 O   0  0  0  0  0  0  0  0  0  0  0  0
   14.5759  -23.8965   -4.2505 O   0  0  0  0  0  0  0  0  0  0  0  0
  2  1  1  0
  3  2  2  0
  4  2  1  0
  5  6  1  0
  5  4  1  0
  6  7  1  0
  7  8  1  0
  8  9  1  6
 10  8  1  0
 11 10  2  0
 12 10  1  0
 12 16  1  0
 13 14  1  0
 13 12  1  0
 14 15  1  0
 15 16  1  0
 16 17  1  1
 17 18  2  0
 19 20  1  0
 20 21  1  0
 21 22  1  0
 23 22  1  6
 23 24  1  0
 23 25  1  0
 24 17  1  0
 25 27  1  0
 26 25  2  0
M  END
$$$$
