RPM.pdb
     RDKit          3D

 27 27  0  0  1  0  0  0  0  0999 V2000
   20.3666  -19.8908  -14.5789 N   0  0  0  0  0  0  0  0  0  0  0  0
   20.6948  -19.1401  -15.7338 C   0  0  0  0  0  0  0  0  0  0  0  0
   20.4441  -17.8580  -15.7577 N   0  0  0  0  0  0  0  0  0  0  0  0
   21.2937  -19.7142  -16.8919 N   0  0  0  0  0  0  0  0  0  0  0  0
   21.6880  -21.1272  -16.9239 C   0  0  0  0  0  0  0  0  0  0  0  0
   20.4880  -22.0144  -17.0641 C   0  0  0  0  0  0  0  0  0  0  0  0
   20.3737  -23.0410  -16.0022 C   0  0  0  0  0  0  0  0  0  0  0  0
   21.3946  -24.1438  -16.0385 C   0  0  2  0  0  0  0  0  0  0  0  0
   20.7683  -25.4106  -15.8509 N   0  0  0  0  0  0  0  0  0  0  0  0
   22.6229  -23.8885  -15.3071 C   0  0  0  0  0  0  0  0  0  0  0  0
   22.5384  -23.8830  -14.0389 O   0  0  0  0  0  0  0  0  0  0  0  0
   20.7456  -17.2820  -16.5944 N   0  0  0  0  0  0  0  0  0  0  0  0
   23.9325  -23.6362  -15.8501 C   0  0  0  0  0  0  0  0  0  0  0  0
   24.2140  -23.7118  -17.2533 C   0  0  0  0  0  0  0  0  0  0  0  0
   25.7234  -23.9007  -17.3370 C   0  0  0  0  0  0  0  0  0  0  0  0
   26.2512  -23.2744  -16.0818 C   0  0  2  0  0  0  0  0  0  0  0  0
   25.1101  -23.3045  -15.1314 C   0  0  0  0  0  0  0  0  0  0  0  0
   24.9988  -22.0040  -14.4030 O   0  0  0  0  0  0  0  0  0  0  0  0
   24.2512  -21.1308  -14.8885 C   0  0  0  0  0  0  0  0  0  0  0  0
   26.8088  -21.4317   -8.2175 S   0  0  0  0  0  0  0  0  0  0  0  0
   26.2207  -19.7457   -8.5227 C   0  0  0  0  0  0  0  0  0  0  0  0
   25.9248  -19.4487  -10.2853 C   0  0  0  0  0  0  0  0  0  0  0  0
   25.9316  -20.7608  -11.0627 C   0  0  2  0  0  0  0  0  0  0  0  0
   25.7360  -20.4884  -12.5308 N   0  0  0  0  0  0  0  0  0  0  0  0
   25.7030  -21.7664  -13.2185 C   0  0  0  0  0  0  0  0  0  0  0  0
   26.8994  -19.6677  -12.9866 O   0  0  0  0  0  0  0  0  0  0  0  0
   27.9054  -20.2164  -13.5001 O   0  0  0  0  0  0  0  0  0  0  0  0
  2  1  1  0
  3  2  2  0
  4  2  1  0
  5  6  1  0
  5  4  1  0
  6  7  1  0
  7  8  1  0
  8  9  1  1
 10  8  1  0
 11 10  2  0
 12 10  1  0
 12 16  1  0
 13 14  1  0
 13 12  1  0
 14 15  1  0
 15 16  1  0
 16 17  1  6
 17 18  2  0
 19 20  1  0
 20 21  1  0
 21 22  1  0
 23 22  1  1
 23 24  1  0
 23 25  1  0
 24 17  1  0
 25 27  1  0
 26 25  2  0
M  END
$$$$
