RPM.pdb
     RDKit          3D

 27 27  0  0  1  0  0  0  0  0999 V2000
   19.4880  -18.7827  -14.9287 N   0  0  0  0  0  0  0  0  0  0  0  0
   19.0934  -20.1100  -14.6325 C   0  0  0  0  0  0  0  0  0  0  0  0
   17.8826  -20.5003  -14.9300 N   0  0  0  0  0  0  0  0  0  0  0  0
   19.9577  -21.0606  -14.0171 N   0  0  0  0  0  0  0  0  0  0  0  0
   21.3776  -20.7658  -13.7937 C   0  0  0  0  0  0  0  0  0  0  0  0
   22.0752  -20.4807  -15.0894 C   0  0  0  0  0  0  0  0  0  0  0  0
   23.5098  -20.1443  -14.9369 C   0  0  0  0  0  0  0  0  0  0  0  0
   24.4805  -21.2620  -15.1983 C   0  0  2  0  0  0  0  0  0  0  0  0
   23.7975  -22.4114  -15.6929 N   0  0  0  0  0  0  0  0  0  0  0  0
   25.4900  -21.4707  -14.1753 C   0  0  0  0  0  0  0  0  0  0  0  0
   25.4615  -22.5870  -13.5684 O   0  0  0  0  0  0  0  0  0  0  0  0
   17.5849  -21.4934  -14.7110 N   0  0  0  0  0  0  0  0  0  0  0  0
   26.5236  -20.5574  -13.7618 C   0  0  0  0  0  0  0  0  0  0  0  0
   26.8015  -19.3380  -14.4616 C   0  0  0  0  0  0  0  0  0  0  0  0
   28.2213  -18.9692  -14.0505 C   0  0  0  0  0  0  0  0  0  0  0  0
   28.3969  -19.5957  -12.7004 C   0  0  2  0  0  0  0  0  0  0  0  0
   27.4089  -20.7042  -12.6626 C   0  0  0  0  0  0  0  0  0  0  0  0
   26.7008  -20.7321  -11.3466 O   0  0  0  0  0  0  0  0  0  0  0  0
   25.5651  -20.2184  -11.2894 C   0  0  0  0  0  0  0  0  0  0  0  0
   29.7031  -19.7273   -5.7712 S   0  0  0  0  0  0  0  0  0  0  0  0
   27.9407  -19.4241   -5.4819 C   0  0  0  0  0  0  0  0  0  0  0  0
   26.9015  -20.3946   -6.6048 C   0  0  0  0  0  0  0  0  0  0  0  0
   27.5353  -20.4799   -7.9893 C   0  0  1  0  0  0  0  0  0  0  0  0
   26.6746  -21.3185   -8.8969 N   0  0  0  0  0  0  0  0  0  0  0  0
   27.2825  -21.3123  -10.2151 C   0  0  0  0  0  0  0  0  0  0  0  0
   25.3209  -20.6853   -8.9312 O   0  0  0  0  0  0  0  0  0  0  0  0
   25.1163  -19.6530   -9.6163 O   0  0  0  0  0  0  0  0  0  0  0  0
  2  1  1  0
  3  2  2  0
  4  2  1  0
  5  6  1  0
  5  4  1  0
  6  7  1  0
  7  8  1  0
  8  9  1  1
 10  8  1  0
 11 10  2  0
 12 10  1  0
 12 16  1  0
 13 14  1  0
 13 12  1  0
 14 15  1  0
 15 16  1  0
 16 17  1  1
 17 18  2  0
 19 20  1  0
 20 21  1  0
 21 22  1  0
 23 22  1  1
 23 24  1  0
 23 25  1  0
 24 17  1  0
 25 27  1  0
 26 25  2  0
M  END
$$$$
