RPM.pdb
     RDKit          3D

 27 27  0  0  1  0  0  0  0  0999 V2000
   20.2447  -23.2317  -13.9447 N   0  0  0  0  0  0  0  0  0  0  0  0
   19.6017  -22.0172  -13.6029 C   0  0  0  0  0  0  0  0  0  0  0  0
   18.2987  -21.9424  -13.6642 N   0  0  0  0  0  0  0  0  0  0  0  0
   20.3081  -20.8515  -13.1889 N   0  0  0  0  0  0  0  0  0  0  0  0
   21.7642  -20.8675  -13.0090 C   0  0  0  0  0  0  0  0  0  0  0  0
   22.4672  -20.8244  -14.3321 C   0  0  0  0  0  0  0  0  0  0  0  0
   23.0899  -22.1105  -14.7226 C   0  0  0  0  0  0  0  0  0  0  0  0
   24.4883  -22.0274  -15.2680 C   0  0  2  0  0  0  0  0  0  0  0  0
   24.6600  -22.9462  -16.3445 N   0  0  0  0  0  0  0  0  0  0  0  0
   25.5468  -21.9510  -14.2767 C   0  0  0  0  0  0  0  0  0  0  0  0
   25.8497  -23.0340  -13.6844 O   0  0  0  0  0  0  0  0  0  0  0  0
   17.8126  -21.0455  -13.3778 N   0  0  0  0  0  0  0  0  0  0  0  0
   26.2965  -20.7874  -13.8800 C   0  0  0  0  0  0  0  0  0  0  0  0
   26.2235  -19.5436  -14.5882 C   0  0  0  0  0  0  0  0  0  0  0  0
   27.4932  -18.7985  -14.1965 C   0  0  0  0  0  0  0  0  0  0  0  0
   27.8478  -19.3434  -12.8461 C   0  0  2  0  0  0  0  0  0  0  0  0
   27.2002  -20.6790  -12.7914 C   0  0  0  0  0  0  0  0  0  0  0  0
   26.5410  -20.8892  -11.4665 O   0  0  0  0  0  0  0  0  0  0  0  0
   25.3907  -21.3728  -11.4625 C   0  0  0  0  0  0  0  0  0  0  0  0
   27.6996  -20.2885   -3.6030 S   0  0  0  0  0  0  0  0  0  0  0  0
   28.2373  -19.9030   -5.2894 C   0  0  0  0  0  0  0  0  0  0  0  0
   27.1378  -20.6390   -6.5272 C   0  0  0  0  0  0  0  0  0  0  0  0
   27.6717  -20.3982   -7.9353 C   0  0  1  0  0  0  0  0  0  0  0  0
   26.6909  -20.9198   -8.9521 N   0  0  0  0  0  0  0  0  0  0  0  0
   27.1836  -20.5595  -10.2692 C   0  0  0  0  0  0  0  0  0  0  0  0
   25.3770  -20.2623   -8.6763 O   0  0  0  0  0  0  0  0  0  0  0  0
   24.5442  -20.7990   -7.9047 O   0  0  0  0  0  0  0  0  0  0  0  0
  2  1  1  0
  3  2  2  0
  4  2  1  0
  5  6  1  0
  5  4  1  0
  6  7  1  0
  7  8  1  0
  8  9  1  1
 10  8  1  0
 11 10  2  0
 12 10  1  0
 12 16  1  0
 13 14  1  0
 13 12  1  0
 14 15  1  0
 15 16  1  0
 16 17  1  1
 17 18  2  0
 19 20  1  0
 20 21  1  0
 21 22  1  0
 23 22  1  6
 23 24  1  0
 23 25  1  0
 24 17  1  0
 25 27  1  0
 26 25  2  0
M  END
$$$$
