RPM.pdb
     RDKit          3D

 27 27  0  0  1  0  0  0  0  0999 V2000
   25.8907  -21.9762  -11.4986 N   0  0  0  0  0  0  0  0  0  0  0  0
   25.1667  -21.9105  -12.7137 C   0  0  0  0  0  0  0  0  0  0  0  0
   24.4177  -22.9203  -13.0691 N   0  0  0  0  0  0  0  0  0  0  0  0
   25.2097  -20.7852  -13.5862 N   0  0  0  0  0  0  0  0  0  0  0  0
   24.3855  -20.7303  -14.7989 C   0  0  0  0  0  0  0  0  0  0  0  0
   23.1655  -19.8878  -14.5789 C   0  0  0  0  0  0  0  0  0  0  0  0
   22.3003  -19.7612  -15.7747 C   0  0  0  0  0  0  0  0  0  0  0  0
   21.0368  -18.9673  -15.5934 C   0  0  2  0  0  0  0  0  0  0  0  0
   21.3402  -17.6069  -15.2940 N   0  0  0  0  0  0  0  0  0  0  0  0
   19.9968  -19.6101  -14.8097 C   0  0  0  0  0  0  0  0  0  0  0  0
   19.8289  -19.1789  -13.6260 O   0  0  0  0  0  0  0  0  0  0  0  0
   24.4345  -23.8110  -12.4953 N   0  0  0  0  0  0  0  0  0  0  0  0
   19.1299  -20.6862  -15.2148 C   0  0  0  0  0  0  0  0  0  0  0  0
   19.0971  -21.1874  -16.5571 C   0  0  0  0  0  0  0  0  0  0  0  0
   17.7534  -21.8955  -16.6745 C   0  0  0  0  0  0  0  0  0  0  0  0
   17.4250  -22.3142  -15.2734 C   0  0  2  0  0  0  0  0  0  0  0  0
   18.1974  -21.3873  -14.4071 C   0  0  0  0  0  0  0  0  0  0  0  0
   18.8461  -22.1337  -13.2863 O   0  0  0  0  0  0  0  0  0  0  0  0
   20.0219  -22.5177  -13.4506 C   0  0  0  0  0  0  0  0  0  0  0  0
   21.1234  -19.6920   -8.9225 S   0  0  0  0  0  0  0  0  0  0  0  0
   21.2046  -21.3021   -8.0964 C   0  0  0  0  0  0  0  0  0  0  0  0
   20.2085  -22.5469   -8.9571 C   0  0  0  0  0  0  0  0  0  0  0  0
   19.6166  -21.9725  -10.2399 C   0  0  1  0  0  0  0  0  0  0  0  0
   18.7732  -23.0138  -10.9271 N   0  0  0  0  0  0  0  0  0  0  0  0
   18.1671  -22.3955  -12.0923 C   0  0  0  0  0  0  0  0  0  0  0  0
   17.7284  -23.4505   -9.9512 O   0  0  0  0  0  0  0  0  0  0  0  0
   16.5662  -22.9784  -10.0065 O   0  0  0  0  0  0  0  0  0  0  0  0
  2  1  1  0
  3  2  2  0
  4  2  1  0
  5  6  1  0
  5  4  1  0
  6  7  1  0
  7  8  1  0
  8  9  1  1
 10  8  1  0
 11 10  2  0
 12 10  1  0
 12 16  1  0
 13 14  1  0
 13 12  1  0
 14 15  1  0
 15 16  1  0
 16 17  1  6
 17 18  2  0
 19 20  1  0
 20 21  1  0
 21 22  1  0
 23 22  1  6
 23 24  1  0
 23 25  1  0
 24 17  1  0
 25 27  1  0
 26 25  2  0
M  END
$$$$
