RPM.pdb
     RDKit          3D

 27 27  0  0  1  0  0  0  0  0999 V2000
   10.9405  -23.1667   -7.0534 N   0  0  0  0  0  0  0  0  0  0  0  0
   11.6649  -24.3797   -7.1471 C   0  0  0  0  0  0  0  0  0  0  0  0
   11.4134  -25.3435   -6.3016 N   0  0  0  0  0  0  0  0  0  0  0  0
   12.6707  -24.6127   -8.1287 N   0  0  0  0  0  0  0  0  0  0  0  0
   12.8836  -23.6756   -9.2376 C   0  0  0  0  0  0  0  0  0  0  0  0
   13.4966  -24.3710  -10.4154 C   0  0  0  0  0  0  0  0  0  0  0  0
   14.9558  -24.1526  -10.5484 C   0  0  0  0  0  0  0  0  0  0  0  0
   15.8280  -25.3491  -10.2891 C   0  0  2  0  0  0  0  0  0  0  0  0
   15.4440  -26.4378  -11.1254 N   0  0  0  0  0  0  0  0  0  0  0  0
   16.0982  -25.6399   -8.8921 C   0  0  0  0  0  0  0  0  0  0  0  0
   15.3538  -26.5084   -8.3383 O   0  0  0  0  0  0  0  0  0  0  0  0
   11.8905  -26.2820   -6.4216 N   0  0  0  0  0  0  0  0  0  0  0  0
   17.1129  -25.0560   -8.0536 C   0  0  0  0  0  0  0  0  0  0  0  0
   18.0464  -24.0814   -8.5361 C   0  0  0  0  0  0  0  0  0  0  0  0
   19.2057  -24.1321   -7.5490 C   0  0  0  0  0  0  0  0  0  0  0  0
   18.5899  -24.6124   -6.2697 C   0  0  2  0  0  0  0  0  0  0  0  0
   17.3633  -25.3392   -6.6859 C   0  0  0  0  0  0  0  0  0  0  0  0
   16.2144  -24.9816   -5.7992 O   0  0  0  0  0  0  0  0  0  0  0  0
   15.3800  -24.1625   -6.2349 C   0  0  0  0  0  0  0  0  0  0  0  0
   12.6293  -26.9119    1.0329 S   0  0  0  0  0  0  0  0  0  0  0  0
   14.1373  -26.9245    0.0291 C   0  0  0  0  0  0  0  0  0  0  0  0
   13.9667  -25.8891   -1.4479 C   0  0  0  0  0  0  0  0  0  0  0  0
   15.1280  -26.1227   -2.4085 C   0  0  2  0  0  0  0  0  0  0  0  0
   14.9751  -25.2441   -3.6219 N   0  0  0  0  0  0  0  0  0  0  0  0
   16.0715  -25.5411   -4.5257 C   0  0  0  0  0  0  0  0  0  0  0  0
   15.0406  -23.8265   -3.1520 O   0  0  0  0  0  0  0  0  0  0  0  0
   16.1489  -23.2606   -2.9834 O   0  0  0  0  0  0  0  0  0  0  0  0
  2  1  1  0
  3  2  2  0
  4  2  1  0
  5  6  1  0
  5  4  1  0
  6  7  1  0
  7  8  1  0
  8  9  1  1
 10  8  1  0
 11 10  2  0
 12 10  1  0
 12 16  1  0
 13 14  1  0
 13 12  1  0
 14 15  1  0
 15 16  1  0
 16 17  1  1
 17 18  2  0
 19 20  1  0
 20 21  1  0
 21 22  1  0
 23 22  1  6
 23 24  1  0
 23 25  1  0
 24 17  1  0
 25 27  1  0
 26 25  2  0
M  END
$$$$
