RPM.pdb
     RDKit          3D

 27 27  0  0  1  0  0  0  0  0999 V2000
   27.4072  -21.1551   -9.4509 N   0  0  0  0  0  0  0  0  0  0  0  0
   26.2692  -20.6129  -10.0959 C   0  0  0  0  0  0  0  0  0  0  0  0
   25.1170  -20.6245   -9.4801 N   0  0  0  0  0  0  0  0  0  0  0  0
   26.3106  -20.0455  -11.4020 N   0  0  0  0  0  0  0  0  0  0  0  0
   27.5368  -20.0770  -12.2071 C   0  0  0  0  0  0  0  0  0  0  0  0
   27.3784  -19.2622  -13.4552 C   0  0  0  0  0  0  0  0  0  0  0  0
   26.1697  -19.5996  -14.2424 C   0  0  0  0  0  0  0  0  0  0  0  0
   26.4107  -20.0972  -15.6403 C   0  0  2  0  0  0  0  0  0  0  0  0
   26.9080  -19.0466  -16.4657 N   0  0  0  0  0  0  0  0  0  0  0  0
   25.3725  -20.9492  -16.1927 C   0  0  0  0  0  0  0  0  0  0  0  0
   24.4809  -20.3763  -16.8943 O   0  0  0  0  0  0  0  0  0  0  0  0
   24.2663  -20.2078   -9.9550 N   0  0  0  0  0  0  0  0  0  0  0  0
   25.2297  -22.3736  -16.0369 C   0  0  0  0  0  0  0  0  0  0  0  0
   26.2434  -23.1900  -15.4370 C   0  0  0  0  0  0  0  0  0  0  0  0
   25.9489  -24.6006  -15.9312 C   0  0  0  0  0  0  0  0  0  0  0  0
   24.4765  -24.6014  -16.2115 C   0  0  2  0  0  0  0  0  0  0  0  0
   24.1313  -23.1753  -16.4422 C   0  0  0  0  0  0  0  0  0  0  0  0
   22.8624  -22.8212  -15.7361 O   0  0  0  0  0  0  0  0  0  0  0  0
   22.9480  -22.4231  -14.5566 C   0  0  0  0  0  0  0  0  0  0  0  0
   19.7894  -18.2533  -19.0732 S   0  0  0  0  0  0  0  0  0  0  0  0
   19.0235  -19.7637  -18.4298 C   0  0  0  0  0  0  0  0  0  0  0  0
   20.0898  -20.5928  -17.2222 C   0  0  0  0  0  0  0  0  0  0  0  0
   19.4914  -21.9312  -16.8023 C   0  0  2  0  0  0  0  0  0  0  0  0
   20.3557  -22.5718  -15.7485 N   0  0  0  0  0  0  0  0  0  0  0  0
   21.6194  -22.9281  -16.3677 C   0  0  0  0  0  0  0  0  0  0  0  0
   19.6356  -23.7902  -15.2672 O   0  0  0  0  0  0  0  0  0  0  0  0
   19.9932  -24.9334  -15.6440 O   0  0  0  0  0  0  0  0  0  0  0  0
  2  1  1  0
  3  2  2  0
  4  2  1  0
  5  6  1  0
  5  4  1  0
  6  7  1  0
  7  8  1  0
  8  9  1  6
 10  8  1  0
 11 10  2  0
 12 10  1  0
 12 16  1  0
 13 14  1  0
 13 12  1  0
 14 15  1  0
 15 16  1  0
 16 17  1  1
 17 18  2  0
 19 20  1  0
 20 21  1  0
 21 22  1  0
 23 22  1  1
 23 24  1  0
 23 25  1  0
 24 17  1  0
 25 27  1  0
 26 25  2  0
M  END
$$$$
