RPM.pdb
     RDKit          3D

 27 27  0  0  1  0  0  0  0  0999 V2000
   19.6763  -20.5897  -15.6795 N   0  0  0  0  0  0  0  0  0  0  0  0
   19.2950  -20.8104  -14.3337 C   0  0  0  0  0  0  0  0  0  0  0  0
   18.3319  -21.6531  -14.0703 N   0  0  0  0  0  0  0  0  0  0  0  0
   19.9133  -20.1536  -13.2312 N   0  0  0  0  0  0  0  0  0  0  0  0
   21.0023  -19.1909  -13.4319 C   0  0  0  0  0  0  0  0  0  0  0  0
   22.1944  -19.8535  -14.0537 C   0  0  0  0  0  0  0  0  0  0  0  0
   22.8123  -20.8970  -13.2030 C   0  0  0  0  0  0  0  0  0  0  0  0
   24.0610  -21.5352  -13.7445 C   0  0  2  0  0  0  0  0  0  0  0  0
   23.7338  -22.6400  -14.5838 N   0  0  0  0  0  0  0  0  0  0  0  0
   25.1403  -21.7153  -12.7897 C   0  0  0  0  0  0  0  0  0  0  0  0
   25.0148  -22.6737  -11.9645 O   0  0  0  0  0  0  0  0  0  0  0  0
   18.0727  -21.8522  -13.0623 N   0  0  0  0  0  0  0  0  0  0  0  0
   26.3416  -20.9314  -12.6635 C   0  0  0  0  0  0  0  0  0  0  0  0
   26.7119  -19.9274  -13.6168 C   0  0  0  0  0  0  0  0  0  0  0  0
   28.2102  -19.7368  -13.4180 C   0  0  0  0  0  0  0  0  0  0  0  0
   28.4526  -20.1243  -11.9906 C   0  0  2  0  0  0  0  0  0  0  0  0
   27.3218  -21.0218  -11.6415 C   0  0  0  0  0  0  0  0  0  0  0  0
   26.7826  -20.6854  -10.2886 O   0  0  0  0  0  0  0  0  0  0  0  0
   25.7189  -20.0353  -10.2347 C   0  0  0  0  0  0  0  0  0  0  0  0
   30.7480  -20.8842   -5.1200 S   0  0  0  0  0  0  0  0  0  0  0  0
   29.1453  -20.9104   -4.2760 C   0  0  0  0  0  0  0  0  0  0  0  0
   27.7797  -20.5898   -5.4227 C   0  0  0  0  0  0  0  0  0  0  0  0
   28.1729  -20.9618   -6.8485 C   0  0  1  0  0  0  0  0  0  0  0  0
   27.0158  -20.7164   -7.7806 N   0  0  0  0  0  0  0  0  0  0  0  0
   27.4398  -21.0822   -9.1199 C   0  0  0  0  0  0  0  0  0  0  0  0
   26.6883  -19.2599   -7.7043 O   0  0  0  0  0  0  0  0  0  0  0  0
   27.3014  -18.4295   -8.4194 O   0  0  0  0  0  0  0  0  0  0  0  0
  2  1  1  0
  3  2  2  0
  4  2  1  0
  5  6  1  0
  5  4  1  0
  6  7  1  0
  7  8  1  0
  8  9  1  1
 10  8  1  0
 11 10  2  0
 12 10  1  0
 12 16  1  0
 13 14  1  0
 13 12  1  0
 14 15  1  0
 15 16  1  0
 16 17  1  1
 17 18  2  0
 19 20  1  0
 20 21  1  0
 21 22  1  0
 23 22  1  1
 23 24  1  0
 23 25  1  0
 24 17  1  0
 25 27  1  0
 26 25  2  0
M  END
$$$$
