RPM.pdb
     RDKit          3D

 27 27  0  0  1  0  0  0  0  0999 V2000
   31.6832  -15.9908  -18.9212 N   0  0  0  0  0  0  0  0  0  0  0  0
   30.2768  -15.8275  -18.8975 C   0  0  0  0  0  0  0  0  0  0  0  0
   29.7104  -15.0221  -19.7564 N   0  0  0  0  0  0  0  0  0  0  0  0
   29.4295  -16.5038  -17.9734 N   0  0  0  0  0  0  0  0  0  0  0  0
   29.9851  -17.2994  -16.8728 C   0  0  0  0  0  0  0  0  0  0  0  0
   29.1093  -18.4772  -16.5688 C   0  0  0  0  0  0  0  0  0  0  0  0
   28.1141  -18.2249  -15.5009 C   0  0  0  0  0  0  0  0  0  0  0  0
   26.6958  -18.6099  -15.8169 C   0  0  2  0  0  0  0  0  0  0  0  0
   26.0429  -17.5658  -16.5352 N   0  0  0  0  0  0  0  0  0  0  0  0
   25.9597  -19.2419  -14.7363 C   0  0  0  0  0  0  0  0  0  0  0  0
   25.4392  -18.4668  -13.8740 O   0  0  0  0  0  0  0  0  0  0  0  0
   28.6552  -14.9263  -19.7659 N   0  0  0  0  0  0  0  0  0  0  0  0
   25.7504  -20.6504  -14.5219 C   0  0  0  0  0  0  0  0  0  0  0  0
   26.1301  -21.6425  -15.4841 C   0  0  0  0  0  0  0  0  0  0  0  0
   25.2947  -22.8663  -15.1304 C   0  0  0  0  0  0  0  0  0  0  0  0
   25.0158  -22.7208  -13.6650 C   0  0  2  0  0  0  0  0  0  0  0  0
   25.1506  -21.2668  -13.3934 C   0  0  0  0  0  0  0  0  0  0  0  0
   25.9169  -21.0371  -12.1307 O   0  0  0  0  0  0  0  0  0  0  0  0
   27.1514  -21.2163  -12.1621 C   0  0  0  0  0  0  0  0  0  0  0  0
   28.7585  -18.0793   -8.1257 S   0  0  0  0  0  0  0  0  0  0  0  0
   28.0066  -19.1371   -6.8619 C   0  0  0  0  0  0  0  0  0  0  0  0
   26.9254  -20.3919   -7.5961 C   0  0  0  0  0  0  0  0  0  0  0  0
   26.5159  -19.9919   -9.0097 C   0  0  1  0  0  0  0  0  0  0  0  0
   25.6686  -21.0746   -9.6243 N   0  0  0  0  0  0  0  0  0  0  0  0
   25.2811  -20.6346  -10.9522 C   0  0  0  0  0  0  0  0  0  0  0  0
   24.4693  -21.2475   -8.7488 O   0  0  0  0  0  0  0  0  0  0  0  0
   24.5869  -21.7196   -7.5911 O   0  0  0  0  0  0  0  0  0  0  0  0
  2  1  1  0
  3  2  2  0
  4  2  1  0
  5  6  1  0
  5  4  1  0
  6  7  1  0
  7  8  1  0
  8  9  1  1
 10  8  1  0
 11 10  2  0
 12 10  1  0
 12 16  1  0
 13 14  1  0
 13 12  1  0
 14 15  1  0
 15 16  1  0
 16 17  1  1
 17 18  2  0
 19 20  1  0
 20 21  1  0
 21 22  1  0
 23 22  1  6
 23 24  1  0
 23 25  1  0
 24 17  1  0
 25 27  1  0
 26 25  2  0
M  END
$$$$
