RPM.pdb
     RDKit          3D

 27 27  0  0  1  0  0  0  0  0999 V2000
   26.4757  -14.0843  -18.4672 N   0  0  0  0  0  0  0  0  0  0  0  0
   25.2242  -14.1495  -17.8077 C   0  0  0  0  0  0  0  0  0  0  0  0
   24.1256  -14.0243  -18.5037 N   0  0  0  0  0  0  0  0  0  0  0  0
   25.0933  -14.3473  -16.4030 N   0  0  0  0  0  0  0  0  0  0  0  0
   26.2698  -14.3881  -15.5271 C   0  0  0  0  0  0  0  0  0  0  0  0
   26.9898  -15.6961  -15.6589 C   0  0  0  0  0  0  0  0  0  0  0  0
   26.5865  -16.7067  -14.6536 C   0  0  0  0  0  0  0  0  0  0  0  0
   25.7866  -17.8693  -15.1715 C   0  0  2  0  0  0  0  0  0  0  0  0
   24.6771  -17.4096  -15.9396 N   0  0  0  0  0  0  0  0  0  0  0  0
   25.5459  -18.9406  -14.2210 C   0  0  0  0  0  0  0  0  0  0  0  0
   24.6241  -18.7467  -13.3678 O   0  0  0  0  0  0  0  0  0  0  0  0
   23.1937  -13.9643  -18.0030 N   0  0  0  0  0  0  0  0  0  0  0  0
   26.2330  -20.2026  -14.1272 C   0  0  0  0  0  0  0  0  0  0  0  0
   27.1376  -20.6660  -15.1376 C   0  0  0  0  0  0  0  0  0  0  0  0
   27.2146  -22.1730  -14.9283 C   0  0  0  0  0  0  0  0  0  0  0  0
   26.9027  -22.3676  -13.4753 C   0  0  1  0  0  0  0  0  0  0  0  0
   26.1281  -21.1614  -13.0864 C   0  0  0  0  0  0  0  0  0  0  0  0
   26.5966  -20.6392  -11.7666 O   0  0  0  0  0  0  0  0  0  0  0  0
   27.8273  -20.5345  -11.5894 C   0  0  0  0  0  0  0  0  0  0  0  0
   29.5934  -20.0999   -7.0932 S   0  0  0  0  0  0  0  0  0  0  0  0
   28.1393  -19.2219   -6.4636 C   0  0  0  0  0  0  0  0  0  0  0  0
   26.6027  -19.8950   -7.1479 C   0  0  0  0  0  0  0  0  0  0  0  0
   26.4663  -19.5369   -8.6241 C   0  0  1  0  0  0  0  0  0  0  0  0
   25.8202  -20.6741   -9.3705 N   0  0  0  0  0  0  0  0  0  0  0  0
   25.6946  -20.2774  -10.7612 C   0  0  0  0  0  0  0  0  0  0  0  0
   24.4757  -20.8981   -8.7565 O   0  0  0  0  0  0  0  0  0  0  0  0
   24.3744  -21.3115   -7.5751 O   0  0  0  0  0  0  0  0  0  0  0  0
  2  1  1  0
  3  2  2  0
  4  2  1  0
  5  6  1  0
  5  4  1  0
  6  7  1  0
  7  8  1  0
  8  9  1  1
 10  8  1  0
 11 10  2  0
 12 10  1  0
 12 16  1  0
 13 14  1  0
 13 12  1  0
 14 15  1  0
 15 16  1  0
 16 17  1  1
 17 18  2  0
 19 20  1  0
 20 21  1  0
 21 22  1  0
 23 22  1  6
 23 24  1  0
 23 25  1  0
 24 17  1  0
 25 27  1  0
 26 25  2  0
M  END
$$$$
