RPM.pdb
     RDKit          3D

 27 27  0  0  1  0  0  0  0  0999 V2000
   25.0894  -23.7491  -13.4119 N   0  0  0  0  0  0  0  0  0  0  0  0
   25.2718  -23.1105  -14.6625 C   0  0  0  0  0  0  0  0  0  0  0  0
   26.0774  -23.6428  -15.5427 N   0  0  0  0  0  0  0  0  0  0  0  0
   24.6149  -21.8985  -15.0214 N   0  0  0  0  0  0  0  0  0  0  0  0
   24.1345  -20.9615  -13.9995 C   0  0  0  0  0  0  0  0  0  0  0  0
   22.6801  -21.1828  -13.7121 C   0  0  0  0  0  0  0  0  0  0  0  0
   21.8286  -21.2229  -14.9237 C   0  0  0  0  0  0  0  0  0  0  0  0
   20.5763  -20.3926  -14.8773 C   0  0  2  0  0  0  0  0  0  0  0  0
   20.8967  -19.0037  -14.9021 N   0  0  0  0  0  0  0  0  0  0  0  0
   19.5657  -20.8306  -13.9308 C   0  0  0  0  0  0  0  0  0  0  0  0
   19.4563  -20.1518  -12.8619 O   0  0  0  0  0  0  0  0  0  0  0  0
   26.2215  -23.1634  -16.4766 N   0  0  0  0  0  0  0  0  0  0  0  0
   18.6696  -21.9505  -14.0580 C   0  0  0  0  0  0  0  0  0  0  0  0
   18.5190  -22.6838  -15.2802 C   0  0  0  0  0  0  0  0  0  0  0  0
   17.1723  -23.3839  -15.1496 C   0  0  0  0  0  0  0  0  0  0  0  0
   16.9712  -23.5404  -13.6726 C   0  0  2  0  0  0  0  0  0  0  0  0
   17.8149  -22.4834  -13.0585 C   0  0  0  0  0  0  0  0  0  0  0  0
   18.5630  -23.0250  -11.8834 O   0  0  0  0  0  0  0  0  0  0  0  0
   19.7833  -23.2438  -12.0248 C   0  0  0  0  0  0  0  0  0  0  0  0
   20.6817  -20.4565   -6.4956 S   0  0  0  0  0  0  0  0  0  0  0  0
   21.4851  -21.9080   -7.2233 C   0  0  0  0  0  0  0  0  0  0  0  0
   20.2747  -23.1481   -7.7521 C   0  0  0  0  0  0  0  0  0  0  0  0
   19.6060  -22.7283   -9.0569 C   0  0  1  0  0  0  0  0  0  0  0  0
   18.6019  -23.7690   -9.4770 N   0  0  0  0  0  0  0  0  0  0  0  0
   17.9261  -23.2794  -10.6648 C   0  0  0  0  0  0  0  0  0  0  0  0
   17.6386  -23.9353   -8.3460 O   0  0  0  0  0  0  0  0  0  0  0  0
   16.6036  -23.2273   -8.2798 O   0  0  0  0  0  0  0  0  0  0  0  0
  2  1  1  0
  3  2  2  0
  4  2  1  0
  5  6  1  0
  5  4  1  0
  6  7  1  0
  7  8  1  0
  8  9  1  1
 10  8  1  0
 11 10  2  0
 12 10  1  0
 12 16  1  0
 13 14  1  0
 13 12  1  0
 14 15  1  0
 15 16  1  0
 16 17  1  6
 17 18  2  0
 19 20  1  0
 20 21  1  0
 21 22  1  0
 23 22  1  6
 23 24  1  0
 23 25  1  0
 24 17  1  0
 25 27  1  0
 26 25  2  0
M  END
$$$$
