RPM.pdb
     RDKit          3D

 27 27  0  0  1  0  0  0  0  0999 V2000
   18.4009  -20.2395  -15.3318 N   0  0  0  0  0  0  0  0  0  0  0  0
   19.1410  -21.4001  -15.6639 C   0  0  0  0  0  0  0  0  0  0  0  0
   20.0654  -21.3292  -16.5846 N   0  0  0  0  0  0  0  0  0  0  0  0
   18.9308  -22.6632  -15.0397 N   0  0  0  0  0  0  0  0  0  0  0  0
   17.6058  -23.0585  -14.5486 C   0  0  0  0  0  0  0  0  0  0  0  0
   17.4879  -22.8172  -13.0740 C   0  0  0  0  0  0  0  0  0  0  0  0
   17.2779  -24.0498  -12.2795 C   0  0  0  0  0  0  0  0  0  0  0  0
   18.5065  -24.6480  -11.6531 C   0  0  2  0  0  0  0  0  0  0  0  0
   19.3656  -25.1874  -12.6548 N   0  0  0  0  0  0  0  0  0  0  0  0
   18.2798  -25.4483  -10.4627 C   0  0  0  0  0  0  0  0  0  0  0  0
   17.9210  -26.6534  -10.6480 O   0  0  0  0  0  0  0  0  0  0  0  0
   20.6104  -22.1995  -16.8461 N   0  0  0  0  0  0  0  0  0  0  0  0
   18.4106  -25.0363   -9.0891 C   0  0  0  0  0  0  0  0  0  0  0  0
   18.8241  -23.7160   -8.7152 C   0  0  0  0  0  0  0  0  0  0  0  0
   19.3248  -23.8567   -7.2834 C   0  0  0  0  0  0  0  0  0  0  0  0
   18.5758  -25.0342   -6.7368 C   0  0  2  0  0  0  0  0  0  0  0  0
   18.1831  -25.8246   -7.9315 C   0  0  0  0  0  0  0  0  0  0  0  0
   16.7666  -26.2869   -7.8131 O   0  0  0  0  0  0  0  0  0  0  0  0
   15.8789  -25.5664   -8.3130 C   0  0  0  0  0  0  0  0  0  0  0  0
   16.5834  -33.0361   -8.4140 S   0  0  0  0  0  0  0  0  0  0  0  0
   15.9592  -31.9726   -7.0870 C   0  0  0  0  0  0  0  0  0  0  0  0
   15.7306  -30.2654   -7.6491 C   0  0  0  0  0  0  0  0  0  0  0  0
   15.1619  -29.3998   -6.5297 C   0  0  2  0  0  0  0  0  0  0  0  0
   15.0826  -27.9650   -6.9803 N   0  0  0  0  0  0  0  0  0  0  0  0
   16.4392  -27.4834   -7.1678 C   0  0  0  0  0  0  0  0  0  0  0  0
   14.3900  -27.1999   -5.8988 O   0  0  0  0  0  0  0  0  0  0  0  0
   13.1506  -27.3121   -5.7310 O   0  0  0  0  0  0  0  0  0  0  0  0
  2  1  1  0
  3  2  2  0
  4  2  1  0
  5  6  1  0
  5  4  1  0
  6  7  1  0
  7  8  1  0
  8  9  1  6
 10  8  1  0
 11 10  2  0
 12 10  1  0
 12 16  1  0
 13 14  1  0
 13 12  1  0
 14 15  1  0
 15 16  1  0
 16 17  1  6
 17 18  2  0
 19 20  1  0
 20 21  1  0
 21 22  1  0
 23 22  1  6
 23 24  1  0
 23 25  1  0
 24 17  1  0
 25 27  1  0
 26 25  2  0
M  END
$$$$
