YFW.pdb
     RDKit          3D

 38 41  0  0  1  0  0  0  0  0999 V2000
    7.8368  -15.7271   13.9966 O   0  0  0  0  0  0  0  0  0  0  0  0
    8.3390  -15.3193   15.2325 C   0  0  0  0  0  0  0  0  0  0  0  0
    9.4703  -15.8909   15.7888 C   0  0  0  0  0  0  0  0  0  0  0  0
    9.9800  -15.4998   17.0090 C   0  0  0  0  0  0  0  0  0  0  0  0
    9.3622  -14.5017   17.7308 C   0  0  0  0  0  0  0  0  0  0  0  0
    9.8464  -14.0229   19.0522 C   0  0  0  0  0  0  0  0  0  0  0  0
    9.8649  -15.2137   19.9792 C   0  0  2  0  0  0  0  0  0  0  0  0
    8.7705  -16.0714   19.5879 N   0  0  0  0  0  0  0  0  0  0  0  0
    9.6941  -14.8413   21.3992 C   0  0  0  0  0  0  0  0  0  0  0  0
   10.5687  -14.1073   21.9268 O   0  0  0  0  0  0  0  0  0  0  0  0
    8.2326  -13.9244   17.1848 C   0  0  0  0  0  0  0  0  0  0  0  0
    7.7300  -14.3217   15.9641 C   0  0  0  0  0  0  0  0  0  0  0  0
    8.5800  -15.2868   22.1705 N   0  0  0  0  0  0  0  0  0  0  0  0
    8.3826  -14.7511   23.4920 C   0  0  1  0  0  0  0  0  0  0  0  0
    6.9535  -14.3910   23.7488 C   0  0  0  0  0  0  0  0  0  0  0  0
    6.8995  -13.4642   24.9025 C   0  0  0  0  0  0  0  0  0  0  0  0
    7.4341  -12.1942   24.8940 C   0  0  0  0  0  0  0  0  0  0  0  0
    7.3507  -11.3683   26.0143 C   0  0  0  0  0  0  0  0  0  0  0  0
    6.7212  -11.8293   27.1548 C   0  0  0  0  0  0  0  0  0  0  0  0
    6.1820  -13.0924   27.1829 C   0  0  0  0  0  0  0  0  0  0  0  0
    6.2804  -13.8876   26.0567 C   0  0  0  0  0  0  0  0  0  0  0  0
    8.9914  -15.6419   24.4930 C   0  0  0  0  0  0  0  0  0  0  0  0
    8.9352  -16.8779   24.3064 O   0  0  0  0  0  0  0  0  0  0  0  0
    9.6425  -15.1926   25.6634 N   0  0  0  0  0  0  0  0  0  0  0  0
   10.1661  -16.0740   26.6937 C   0  0  1  0  0  0  0  0  0  0  0  0
   11.3470  -15.4968   27.3950 C   0  0  0  0  0  0  0  0  0  0  0  0
   12.3263  -16.5705   27.6781 C   0  0  0  0  0  0  0  0  0  0  0  0
   13.2770  -17.0844   26.7983 C   0  0  0  0  0  0  0  0  0  0  0  0
   13.9424  -18.0404   27.4554 N   0  0  0  0  0  0  0  0  0  0  0  0
   13.4678  -18.1658   28.7103 C   0  0  0  0  0  0  0  0  0  0  0  0
   13.8145  -18.9986   29.7662 C   0  0  0  0  0  0  0  0  0  0  0  0
   13.1326  -18.8933   30.9584 C   0  0  0  0  0  0  0  0  0  0  0  0
   12.1131  -17.9899   31.1493 C   0  0  0  0  0  0  0  0  0  0  0  0
   11.7687  -17.1585   30.0915 C   0  0  0  0  0  0  0  0  0  0  0  0
   12.4481  -17.2559   28.8882 C   0  0  0  0  0  0  0  0  0  0  0  0
    9.0940  -16.3454   27.6730 C   0  0  0  0  0  0  0  0  0  0  0  0
    8.1765  -15.5073   27.8523 O   0  0  0  0  0  0  0  0  0  0  0  0
    9.0557  -17.5067   28.4156 O   0  0  0  0  0  0  0  0  0  0  0  0
  2  3  2  0
  2  1  1  0
  4  3  1  0
  5  4  2  0
  6  5  1  0
  6  7  1  0
  7  8  1  6
  9  7  1  0
  9 10  2  0
 11  5  1  0
 11 12  2  0
 12  2  1  0
 13  9  1  0
 14 13  1  0
 14 15  1  1
 16 15  1  0
 16 17  2  0
 18 17  1  0
 19 18  2  0
 20 21  2  0
 20 19  1  0
 21 16  1  0
 22 14  1  0
 23 22  2  0
 24 22  1  0
 25 24  1  0
 25 26  1  1
 26 27  1  0
 27 35  1  0
 28 27  2  0
 28 29  1  0
 29 30  1  0
 30 31  1  0
 31 32  2  0
 33 32  1  0
 34 33  2  0
 35 30  2  0
 35 34  1  0
 36 25  1  0
 37 36  2  0
 38 36  1  0
M  END
$$$$
