YFW.pdb
     RDKit          3D

 38 41  0  0  1  0  0  0  0  0999 V2000
   13.6501  -19.6762   14.4216 O   0  0  0  0  0  0  0  0  0  0  0  0
   13.0992  -18.8381   15.3911 C   0  0  0  0  0  0  0  0  0  0  0  0
   13.8107  -18.4472   16.5123 C   0  0  0  0  0  0  0  0  0  0  0  0
   13.2815  -17.6196   17.4801 C   0  0  0  0  0  0  0  0  0  0  0  0
   11.9939  -17.1440   17.3573 C   0  0  0  0  0  0  0  0  0  0  0  0
   11.3495  -16.2498   18.3547 C   0  0  0  0  0  0  0  0  0  0  0  0
   11.2092  -17.0366   19.6349 C   0  0  2  0  0  0  0  0  0  0  0  0
   10.2930  -18.1206   19.3670 N   0  0  0  0  0  0  0  0  0  0  0  0
   10.6775  -16.2286   20.7525 C   0  0  0  0  0  0  0  0  0  0  0  0
   11.3144  -15.1986   21.0921 O   0  0  0  0  0  0  0  0  0  0  0  0
   11.2751  -17.5278   16.2422 C   0  0  0  0  0  0  0  0  0  0  0  0
   11.8123  -18.3556   15.2796 C   0  0  0  0  0  0  0  0  0  0  0  0
    9.4802  -16.5839   21.4415 N   0  0  0  0  0  0  0  0  0  0  0  0
    9.0415  -15.7748   22.5484 C   0  0  1  0  0  0  0  0  0  0  0  0
    7.6100  -15.3615   22.4146 C   0  0  0  0  0  0  0  0  0  0  0  0
    7.4798  -14.4849   21.2281 C   0  0  0  0  0  0  0  0  0  0  0  0
    7.0441  -14.9196   19.9953 C   0  0  0  0  0  0  0  0  0  0  0  0
    6.9432  -14.0436   18.9152 C   0  0  0  0  0  0  0  0  0  0  0  0
    7.2857  -12.7152   19.0814 C   0  0  0  0  0  0  0  0  0  0  0  0
    7.7222  -12.2627   20.3028 C   0  0  0  0  0  0  0  0  0  0  0  0
    7.8117  -13.1551   21.3545 C   0  0  0  0  0  0  0  0  0  0  0  0
    9.3854  -16.4314   23.8199 C   0  0  0  0  0  0  0  0  0  0  0  0
    9.3364  -17.6801   23.8805 O   0  0  0  0  0  0  0  0  0  0  0  0
    9.7716  -15.7409   24.9903 N   0  0  0  0  0  0  0  0  0  0  0  0
   10.0183  -16.3827   26.2708 C   0  0  1  0  0  0  0  0  0  0  0  0
    8.7601  -16.7303   26.9888 C   0  0  0  0  0  0  0  0  0  0  0  0
    7.7171  -15.7291   26.6700 C   0  0  0  0  0  0  0  0  0  0  0  0
    6.5204  -15.9589   25.9940 C   0  0  0  0  0  0  0  0  0  0  0  0
    5.8836  -14.7856   25.9150 N   0  0  0  0  0  0  0  0  0  0  0  0
    6.6098  -13.8161   26.5051 C   0  0  0  0  0  0  0  0  0  0  0  0
    6.3905  -12.4565   26.6847 C   0  0  0  0  0  0  0  0  0  0  0  0
    7.3373  -11.7032   27.3430 C   0  0  0  0  0  0  0  0  0  0  0  0
    8.5019  -12.2453   27.8348 C   0  0  0  0  0  0  0  0  0  0  0  0
    8.7183  -13.6052   27.6537 C   0  0  0  0  0  0  0  0  0  0  0  0
    7.7726  -14.3722   26.9931 C   0  0  0  0  0  0  0  0  0  0  0  0
   10.8103  -17.6081   26.0404 C   0  0  0  0  0  0  0  0  0  0  0  0
   10.2469  -18.6585   25.6454 O   0  0  0  0  0  0  0  0  0  0  0  0
   12.1735  -17.6496   26.2441 O   0  0  0  0  0  0  0  0  0  0  0  0
  2  3  2  0
  2  1  1  0
  4  3  1  0
  5  4  2  0
  6  5  1  0
  6  7  1  0
  7  8  1  6
  9  7  1  0
  9 10  2  0
 11  5  1  0
 11 12  2  0
 12  2  1  0
 13  9  1  0
 14 13  1  0
 14 15  1  6
 16 15  1  0
 16 17  2  0
 18 17  1  0
 19 18  2  0
 20 21  2  0
 20 19  1  0
 21 16  1  0
 22 14  1  0
 23 22  2  0
 24 22  1  0
 25 24  1  0
 25 26  1  6
 26 27  1  0
 27 35  1  0
 28 27  2  0
 28 29  1  0
 29 30  1  0
 30 31  1  0
 31 32  2  0
 33 32  1  0
 34 33  2  0
 35 30  2  0
 35 34  1  0
 36 25  1  0
 37 36  2  0
 38 36  1  0
M  END
$$$$
