YFW.pdb
     RDKit          3D

 38 41  0  0  1  0  0  0  0  0999 V2000
   10.5187  -25.9970   20.0263 O   0  0  0  0  0  0  0  0  0  0  0  0
   10.4905  -24.6534   20.4002 C   0  0  0  0  0  0  0  0  0  0  0  0
   10.7709  -24.2462   21.6931 C   0  0  0  0  0  0  0  0  0  0  0  0
   10.7475  -22.9227   22.0796 C   0  0  0  0  0  0  0  0  0  0  0  0
   10.4360  -21.9391   21.1661 C   0  0  0  0  0  0  0  0  0  0  0  0
   10.3881  -20.4916   21.5012 C   0  0  0  0  0  0  0  0  0  0  0  0
    9.8423  -19.7712   20.2927 C   0  0  2  0  0  0  0  0  0  0  0  0
   10.7638  -20.0096   19.2061 N   0  0  0  0  0  0  0  0  0  0  0  0
    9.7162  -18.3132   20.4992 C   0  0  0  0  0  0  0  0  0  0  0  0
   10.7219  -17.5945   20.2667 O   0  0  0  0  0  0  0  0  0  0  0  0
   10.1547  -22.3344   19.8730 C   0  0  0  0  0  0  0  0  0  0  0  0
   10.1805  -23.6600   19.4955 C   0  0  0  0  0  0  0  0  0  0  0  0
    8.5020  -17.7138   20.9475 N   0  0  0  0  0  0  0  0  0  0  0  0
    8.4457  -16.2853   21.1167 C   0  0  1  0  0  0  0  0  0  0  0  0
    7.0559  -15.7523   20.9676 C   0  0  0  0  0  0  0  0  0  0  0  0
    7.1022  -14.2757   21.0702 C   0  0  0  0  0  0  0  0  0  0  0  0
    7.6380  -13.4544   20.1022 C   0  0  0  0  0  0  0  0  0  0  0  0
    7.6520  -12.0688   20.2580 C   0  0  0  0  0  0  0  0  0  0  0  0
    7.1197  -11.5068   21.4027 C   0  0  0  0  0  0  0  0  0  0  0  0
    6.5810  -12.3090   22.3791 C   0  0  0  0  0  0  0  0  0  0  0  0
    6.5816  -13.6790   22.1960 C   0  0  0  0  0  0  0  0  0  0  0  0
    9.1330  -15.8975   22.3591 C   0  0  0  0  0  0  0  0  0  0  0  0
    9.4771  -14.7034   22.5043 O   0  0  0  0  0  0  0  0  0  0  0  0
    9.4344  -16.7909   23.4110 N   0  0  0  0  0  0  0  0  0  0  0  0
   10.1537  -16.4162   24.6171 C   0  0  1  0  0  0  0  0  0  0  0  0
    9.3406  -16.6056   25.8510 C   0  0  0  0  0  0  0  0  0  0  0  0
    8.0937  -15.8143   25.7467 C   0  0  0  0  0  0  0  0  0  0  0  0
    6.8294  -16.2922   25.4073 C   0  0  0  0  0  0  0  0  0  0  0  0
    5.9977  -15.2452   25.4228 N   0  0  0  0  0  0  0  0  0  0  0  0
    6.6630  -14.1213   25.7545 C   0  0  0  0  0  0  0  0  0  0  0  0
    6.2592  -12.8009   25.9042 C   0  0  0  0  0  0  0  0  0  0  0  0
    7.1893  -11.8488   26.2589 C   0  0  0  0  0  0  0  0  0  0  0  0
    8.5135  -12.1529   26.4731 C   0  0  0  0  0  0  0  0  0  0  0  0
    8.9142  -13.4742   26.3226 C   0  0  0  0  0  0  0  0  0  0  0  0
    7.9870  -14.4398   25.9663 C   0  0  0  0  0  0  0  0  0  0  0  0
   11.3833  -17.2299   24.7060 C   0  0  0  0  0  0  0  0  0  0  0  0
   11.5755  -18.1728   23.8995 O   0  0  0  0  0  0  0  0  0  0  0  0
   12.3524  -16.9930   25.6580 O   0  0  0  0  0  0  0  0  0  0  0  0
  2  3  2  0
  2  1  1  0
  4  3  1  0
  5  4  2  0
  6  5  1  0
  6  7  1  0
  7  8  1  6
  9  7  1  0
  9 10  2  0
 11  5  1  0
 11 12  2  0
 12  2  1  0
 13  9  1  0
 14 13  1  0
 14 15  1  1
 16 15  1  0
 16 17  2  0
 18 17  1  0
 19 18  2  0
 20 21  2  0
 20 19  1  0
 21 16  1  0
 22 14  1  0
 23 22  2  0
 24 22  1  0
 25 24  1  0
 25 26  1  1
 26 27  1  0
 27 35  1  0
 28 27  2  0
 28 29  1  0
 29 30  1  0
 30 31  1  0
 31 32  2  0
 33 32  1  0
 34 33  2  0
 35 30  2  0
 35 34  1  0
 36 25  1  0
 37 36  2  0
 38 36  1  0
M  END
$$$$
