YFW.pdb
     RDKit          3D

 38 41  0  0  1  0  0  0  0  0999 V2000
    4.8207  -24.8151   25.6372 O   0  0  0  0  0  0  0  0  0  0  0  0
    5.2426  -23.4911   25.5148 C   0  0  0  0  0  0  0  0  0  0  0  0
    4.3498  -22.4533   25.3095 C   0  0  0  0  0  0  0  0  0  0  0  0
    4.7497  -21.1393   25.1862 C   0  0  0  0  0  0  0  0  0  0  0  0
    6.0856  -20.8107   25.2658 C   0  0  0  0  0  0  0  0  0  0  0  0
    6.5988  -19.4211   25.1426 C   0  0  0  0  0  0  0  0  0  0  0  0
    6.2216  -18.9259   23.7678 C   0  0  2  0  0  0  0  0  0  0  0  0
    6.2948  -20.0593   22.8752 N   0  0  0  0  0  0  0  0  0  0  0  0
    7.1245  -17.8675   23.2687 C   0  0  0  0  0  0  0  0  0  0  0  0
    8.1539  -18.2185   22.6371 O   0  0  0  0  0  0  0  0  0  0  0  0
    6.9850  -21.8386   25.4707 C   0  0  0  0  0  0  0  0  0  0  0  0
    6.5762  -23.1495   25.5927 C   0  0  0  0  0  0  0  0  0  0  0  0
    6.8593  -16.4825   23.4830 N   0  0  0  0  0  0  0  0  0  0  0  0
    7.8210  -15.5074   23.0395 C   0  0  1  0  0  0  0  0  0  0  0  0
    7.2044  -14.1613   22.8257 C   0  0  0  0  0  0  0  0  0  0  0  0
    7.0200  -13.5110   24.1433 C   0  0  0  0  0  0  0  0  0  0  0  0
    6.1676  -13.9796   25.1192 C   0  0  0  0  0  0  0  0  0  0  0  0
    6.0380  -13.3212   26.3415 C   0  0  0  0  0  0  0  0  0  0  0  0
    6.7766  -12.1781   26.5809 C   0  0  0  0  0  0  0  0  0  0  0  0
    7.6319  -11.6953   25.6204 C   0  0  0  0  0  0  0  0  0  0  0  0
    7.7387  -12.3699   24.4188 C   0  0  0  0  0  0  0  0  0  0  0  0
    8.9975  -15.5217   23.9237 C   0  0  0  0  0  0  0  0  0  0  0  0
    8.8657  -15.1188   25.1009 O   0  0  0  0  0  0  0  0  0  0  0  0
   10.2802  -15.9641   23.5305 N   0  0  0  0  0  0  0  0  0  0  0  0
   11.4085  -16.0994   24.4365 C   0  0  1  0  0  0  0  0  0  0  0  0
   11.4500  -17.4303   25.1047 C   0  0  0  0  0  0  0  0  0  0  0  0
   10.5138  -17.4362   26.2517 C   0  0  0  0  0  0  0  0  0  0  0  0
    9.7058  -18.4947   26.6623 C   0  0  0  0  0  0  0  0  0  0  0  0
    9.0162  -18.0709   27.7268 N   0  0  0  0  0  0  0  0  0  0  0  0
    9.3402  -16.7962   28.0198 C   0  0  0  0  0  0  0  0  0  0  0  0
    8.9110  -15.9224   29.0103 C   0  0  0  0  0  0  0  0  0  0  0  0
    9.4354  -14.6496   29.0584 C   0  0  0  0  0  0  0  0  0  0  0  0
   10.3751  -14.2029   28.1587 C   0  0  0  0  0  0  0  0  0  0  0  0
   10.8023  -15.0791   27.1693 C   0  0  0  0  0  0  0  0  0  0  0  0
   10.2815  -16.3615   27.1118 C   0  0  0  0  0  0  0  0  0  0  0  0
   12.6555  -15.8910   23.6727 C   0  0  0  0  0  0  0  0  0  0  0  0
   12.6602  -16.0236   22.4242 O   0  0  0  0  0  0  0  0  0  0  0  0
   13.8424  -15.5484   24.2855 O   0  0  0  0  0  0  0  0  0  0  0  0
  2  3  2  0
  2  1  1  0
  4  3  1  0
  5  4  2  0
  6  5  1  0
  6  7  1  0
  7  8  1  6
  9  7  1  0
  9 10  2  0
 11  5  1  0
 11 12  2  0
 12  2  1  0
 13  9  1  0
 14 13  1  0
 14 15  1  1
 16 15  1  0
 16 17  2  0
 18 17  1  0
 19 18  2  0
 20 21  2  0
 20 19  1  0
 21 16  1  0
 22 14  1  0
 23 22  2  0
 24 22  1  0
 25 24  1  0
 25 26  1  6
 26 27  1  0
 27 35  1  0
 28 27  2  0
 28 29  1  0
 29 30  1  0
 30 31  1  0
 31 32  2  0
 33 32  1  0
 34 33  2  0
 35 30  2  0
 35 34  1  0
 36 25  1  0
 37 36  2  0
 38 36  1  0
M  END
$$$$
