YFW.pdb
     RDKit          3D

 38 41  0  0  1  0  0  0  0  0999 V2000
   10.6022  -23.0694   16.8043 O   0  0  0  0  0  0  0  0  0  0  0  0
   10.6650  -22.0172   17.7179 C   0  0  0  0  0  0  0  0  0  0  0  0
   11.6196  -21.0194   17.6223 C   0  0  0  0  0  0  0  0  0  0  0  0
   11.6960  -19.9725   18.5166 C   0  0  0  0  0  0  0  0  0  0  0  0
   10.8004  -19.8855   19.5604 C   0  0  0  0  0  0  0  0  0  0  0  0
   10.8149  -18.7914   20.5666 C   0  0  0  0  0  0  0  0  0  0  0  0
    9.9600  -17.6730   20.0225 C   0  0  2  0  0  0  0  0  0  0  0  0
   10.6125  -17.1832   18.8306 N   0  0  0  0  0  0  0  0  0  0  0  0
    9.8025  -16.5529   20.9739 C   0  0  0  0  0  0  0  0  0  0  0  0
   10.6503  -15.6245   20.9389 O   0  0  0  0  0  0  0  0  0  0  0  0
    9.8435  -20.8759   19.6650 C   0  0  0  0  0  0  0  0  0  0  0  0
    9.7747  -21.9190   18.7663 C   0  0  0  0  0  0  0  0  0  0  0  0
    8.7304  -16.5020   21.9133 N   0  0  0  0  0  0  0  0  0  0  0  0
    8.5888  -15.3419   22.7538 C   0  0  1  0  0  0  0  0  0  0  0  0
    7.1560  -14.9655   22.9618 C   0  0  0  0  0  0  0  0  0  0  0  0
    7.0839  -13.9610   24.0476 C   0  0  0  0  0  0  0  0  0  0  0  0
    6.6837  -14.2475   25.3345 C   0  0  0  0  0  0  0  0  0  0  0  0
    6.6369  -13.2558   26.3137 C   0  0  0  0  0  0  0  0  0  0  0  0
    6.9978  -11.9618   25.9901 C   0  0  0  0  0  0  0  0  0  0  0  0
    7.3997  -11.6564   24.7125 C   0  0  0  0  0  0  0  0  0  0  0  0
    7.4357  -12.6609   23.7637 C   0  0  0  0  0  0  0  0  0  0  0  0
    9.3743  -15.5139   23.9865 C   0  0  0  0  0  0  0  0  0  0  0  0
    9.3038  -14.6294   24.8687 O   0  0  0  0  0  0  0  0  0  0  0  0
   10.2120  -16.6215   24.2454 N   0  0  0  0  0  0  0  0  0  0  0  0
   11.3797  -16.5754   25.1096 C   0  0  1  0  0  0  0  0  0  0  0  0
   11.2515  -17.4707   26.2935 C   0  0  0  0  0  0  0  0  0  0  0  0
   10.0467  -17.0957   27.0679 C   0  0  0  0  0  0  0  0  0  0  0  0
    8.8583  -17.8173   27.1613 C   0  0  0  0  0  0  0  0  0  0  0  0
    8.0362  -17.1175   27.9505 N   0  0  0  0  0  0  0  0  0  0  0  0
    8.6358  -15.9852   28.3676 C   0  0  0  0  0  0  0  0  0  0  0  0
    8.2126  -14.9449   29.1846 C   0  0  0  0  0  0  0  0  0  0  0  0
    9.0689  -13.8958   29.4364 C   0  0  0  0  0  0  0  0  0  0  0  0
   10.3375  -13.8341   28.9083 C   0  0  0  0  0  0  0  0  0  0  0  0
   10.7578  -14.8760   28.0918 C   0  0  0  0  0  0  0  0  0  0  0  0
    9.9047  -15.9360   27.8319 C   0  0  0  0  0  0  0  0  0  0  0  0
   12.5665  -16.9655   24.3215 C   0  0  0  0  0  0  0  0  0  0  0  0
   13.7165  -16.8442   24.8107 O   0  0  0  0  0  0  0  0  0  0  0  0
   12.4641  -17.4696   23.0420 O   0  0  0  0  0  0  0  0  0  0  0  0
  2  3  2  0
  2  1  1  0
  4  3  1  0
  5  4  2  0
  6  5  1  0
  6  7  1  0
  7  8  1  6
  9  7  1  0
  9 10  2  0
 11  5  1  0
 11 12  2  0
 12  2  1  0
 13  9  1  0
 14 13  1  0
 14 15  1  1
 16 15  1  0
 16 17  2  0
 18 17  1  0
 19 18  2  0
 20 21  2  0
 20 19  1  0
 21 16  1  0
 22 14  1  0
 23 22  2  0
 24 22  1  0
 25 24  1  0
 25 26  1  1
 26 27  1  0
 27 35  1  0
 28 27  2  0
 28 29  1  0
 29 30  1  0
 30 31  1  0
 31 32  2  0
 33 32  1  0
 34 33  2  0
 35 30  2  0
 35 34  1  0
 36 25  1  0
 37 36  2  0
 38 36  1  0
M  END
$$$$
