YFW.pdb
     RDKit          3D

 38 41  0  0  1  0  0  0  0  0999 V2000
    7.3427  -23.7173   16.6275 O   0  0  0  0  0  0  0  0  0  0  0  0
    7.8273  -22.7388   17.4956 C   0  0  0  0  0  0  0  0  0  0  0  0
    8.8569  -22.9929   18.3852 C   0  0  0  0  0  0  0  0  0  0  0  0
    9.3478  -22.0376   19.2501 C   0  0  0  0  0  0  0  0  0  0  0  0
    8.8142  -20.7670   19.2550 C   0  0  0  0  0  0  0  0  0  0  0  0
    9.2849  -19.6815   20.1548 C   0  0  0  0  0  0  0  0  0  0  0  0
    9.0501  -18.3742   19.4381 C   0  0  2  0  0  0  0  0  0  0  0  0
   10.1350  -18.2055   18.4995 N   0  0  0  0  0  0  0  0  0  0  0  0
    9.0255  -17.2126   20.3517 C   0  0  0  0  0  0  0  0  0  0  0  0
   10.1254  -16.7108   20.6989 O   0  0  0  0  0  0  0  0  0  0  0  0
    7.7865  -20.5026   18.3710 C   0  0  0  0  0  0  0  0  0  0  0  0
    7.3019  -21.4640   17.5099 C   0  0  0  0  0  0  0  0  0  0  0  0
    7.8052  -16.6579   20.8391 N   0  0  0  0  0  0  0  0  0  0  0  0
    7.8534  -15.5069   21.7024 C   0  0  1  0  0  0  0  0  0  0  0  0
    6.6042  -14.6877   21.6234 C   0  0  0  0  0  0  0  0  0  0  0  0
    6.8022  -13.4468   22.4069 C   0  0  0  0  0  0  0  0  0  0  0  0
    7.4725  -12.3389   21.9359 C   0  0  0  0  0  0  0  0  0  0  0  0
    7.6259  -11.1988   22.7238 C   0  0  0  0  0  0  0  0  0  0  0  0
    7.0972  -11.1770   24.0003 C   0  0  0  0  0  0  0  0  0  0  0  0
    6.4255  -12.2716   24.4879 C   0  0  0  0  0  0  0  0  0  0  0  0
    6.2898  -13.3871   23.6830 C   0  0  0  0  0  0  0  0  0  0  0  0
    8.2491  -15.9122   23.0609 C   0  0  0  0  0  0  0  0  0  0  0  0
    7.7898  -16.9800   23.5239 O   0  0  0  0  0  0  0  0  0  0  0  0
    9.1220  -15.1704   23.8875 N   0  0  0  0  0  0  0  0  0  0  0  0
    9.1911  -15.3107   25.3325 C   0  0  1  0  0  0  0  0  0  0  0  0
   10.4995  -14.8659   25.8890 C   0  0  0  0  0  0  0  0  0  0  0  0
   10.9107  -15.7827   26.9763 C   0  0  0  0  0  0  0  0  0  0  0  0
   11.3286  -17.1049   26.8381 C   0  0  0  0  0  0  0  0  0  0  0  0
   11.5942  -17.5622   28.0664 N   0  0  0  0  0  0  0  0  0  0  0  0
   11.3683  -16.6021   28.9844 C   0  0  0  0  0  0  0  0  0  0  0  0
   11.4915  -16.5782   30.3676 C   0  0  0  0  0  0  0  0  0  0  0  0
   11.1797  -15.4238   31.0512 C   0  0  0  0  0  0  0  0  0  0  0  0
   10.7474  -14.2827   30.4163 C   0  0  0  0  0  0  0  0  0  0  0  0
   10.6252  -14.3097   29.0331 C   0  0  0  0  0  0  0  0  0  0  0  0
   10.9363  -15.4655   28.3356 C   0  0  0  0  0  0  0  0  0  0  0  0
    8.1017  -14.5170   25.9370 C   0  0  0  0  0  0  0  0  0  0  0  0
    7.7849  -14.6932   27.1391 O   0  0  0  0  0  0  0  0  0  0  0  0
    7.4016  -13.5682   25.2220 O   0  0  0  0  0  0  0  0  0  0  0  0
  2  3  2  0
  2  1  1  0
  4  3  1  0
  5  4  2  0
  6  5  1  0
  6  7  1  0
  7  8  1  6
  9  7  1  0
  9 10  2  0
 11  5  1  0
 11 12  2  0
 12  2  1  0
 13  9  1  0
 14 13  1  0
 14 15  1  1
 16 15  1  0
 16 17  2  0
 18 17  1  0
 19 18  2  0
 20 21  2  0
 20 19  1  0
 21 16  1  0
 22 14  1  0
 23 22  2  0
 24 22  1  0
 25 24  1  0
 25 26  1  1
 26 27  1  0
 27 35  1  0
 28 27  2  0
 28 29  1  0
 29 30  1  0
 30 31  1  0
 31 32  2  0
 33 32  1  0
 34 33  2  0
 35 30  2  0
 35 34  1  0
 36 25  1  0
 37 36  2  0
 38 36  1  0
M  END
$$$$
