KMS.pdb
     RDKit          3D

 24 23  0  0  1  0  0  0  0  0999 V2000
   19.4344  -15.6104  -16.5305 N   0  0  0  0  0  0  0  0  0  0  0  0
   19.1878  -14.2660  -16.9740 C   0  0  1  0  0  0  0  0  0  0  0  0
   17.7707  -13.8523  -17.0493 C   0  0  0  0  0  0  0  0  0  0  0  0
   16.8948  -14.6213  -17.9920 C   0  0  0  0  0  0  0  0  0  0  0  0
   16.3112  -15.8791  -17.4367 C   0  0  0  0  0  0  0  0  0  0  0  0
   15.4878  -16.5448  -18.5573 C   0  0  0  0  0  0  0  0  0  0  0  0
   14.8920  -17.7736  -18.0726 N   0  0  0  0  0  0  0  0  0  0  0  0
   20.0374  -13.3357  -16.1746 C   0  0  0  0  0  0  0  0  0  0  0  0
   19.8878  -13.3577  -14.9423 O   0  0  0  0  0  0  0  0  0  0  0  0
   27.0273  -10.2732  -14.8517 C   0  0  0  0  0  0  0  0  0  0  0  0
   25.8937  -11.2897  -15.8126 S   0  0  0  0  0  0  0  0  0  0  0  0
   24.1448  -10.8463  -15.4671 C   0  0  0  0  0  0  0  0  0  0  0  0
   23.2998  -11.8177  -16.2318 C   0  0  0  0  0  0  0  0  0  0  0  0
   21.8128  -11.5327  -16.0999 C   0  0  2  0  0  0  0  0  0  0  0  0
   20.9700  -12.4658  -16.7616 N   0  0  0  0  0  0  0  0  0  0  0  0
   21.4595  -10.1240  -16.3316 C   0  0  0  0  0  0  0  0  0  0  0  0
   21.4202   -9.6736  -17.5222 O   0  0  0  0  0  0  0  0  0  0  0  0
   19.1710   -7.9636  -13.7790 O   0  0  0  0  0  0  0  0  0  0  0  0
   20.2749   -7.2242  -14.2019 C   0  0  0  0  0  0  0  0  0  0  0  0
   20.7955   -7.8477  -15.4796 C   0  0  2  0  0  0  0  0  0  0  0  0
   21.1580   -9.2327  -15.2959 N   0  0  0  0  0  0  0  0  0  0  0  0
   22.0035   -7.1029  -15.9036 C   0  0  0  0  0  0  0  0  0  0  0  0
   23.2182   -7.7875  -16.0969 O   0  0  0  0  0  0  0  0  0  0  0  0
   22.0350   -5.8644  -16.1129 O   0  0  0  0  0  0  0  0  0  0  0  0
  2  1  1  1
  2  3  1  0
  4  5  1  0
  4  3  1  0
  5  6  1  0
  6  7  1  0
  8  2  1  0
  8  9  2  0
 10 11  1  0
 11 12  1  0
 13 12  1  0
 14 13  1  6
 14 15  1  0
 15  8  1  0
 16 14  1  0
 17 16  2  0
 19 18  1  0
 20 19  1  1
 20 21  1  0
 20 22  1  0
 21 16  1  0
 22 23  1  0
 24 22  2  0
M  END
$$$$
