KMS.pdb
     RDKit          3D

 24 23  0  0  1  0  0  0  0  0999 V2000
   28.4667  -21.6176  -15.7644 N   0  0  0  0  0  0  0  0  0  0  0  0
   27.7236  -20.5180  -15.2133 C   0  0  1  0  0  0  0  0  0  0  0  0
   27.3406  -19.4487  -16.1594 C   0  0  0  0  0  0  0  0  0  0  0  0
   28.4599  -18.7267  -16.8472 C   0  0  0  0  0  0  0  0  0  0  0  0
   28.0393  -17.6220  -17.7603 C   0  0  0  0  0  0  0  0  0  0  0  0
   29.3181  -16.9792  -18.3335 C   0  0  0  0  0  0  0  0  0  0  0  0
   28.9698  -15.9012  -19.2370 N   0  0  0  0  0  0  0  0  0  0  0  0
   26.5739  -21.0617  -14.4330 C   0  0  0  0  0  0  0  0  0  0  0  0
   26.0021  -22.0607  -14.8983 O   0  0  0  0  0  0  0  0  0  0  0  0
   25.1896  -20.5644   -7.8603 C   0  0  0  0  0  0  0  0  0  0  0  0
   26.7563  -20.9049   -8.6794 S   0  0  0  0  0  0  0  0  0  0  0  0
   26.4962  -21.4601  -10.4111 C   0  0  0  0  0  0  0  0  0  0  0  0
   25.2874  -20.7337  -10.9145 C   0  0  0  0  0  0  0  0  0  0  0  0
   25.0643  -20.9285  -12.4052 C   0  0  2  0  0  0  0  0  0  0  0  0
   26.1378  -20.4909  -13.2268 N   0  0  0  0  0  0  0  0  0  0  0  0
   23.7344  -20.4996  -12.8635 C   0  0  0  0  0  0  0  0  0  0  0  0
   23.5210  -19.2681  -13.1084 O   0  0  0  0  0  0  0  0  0  0  0  0
   21.4855  -22.2231  -15.4920 O   0  0  0  0  0  0  0  0  0  0  0  0
   20.7039  -22.0697  -14.3476 C   0  0  0  0  0  0  0  0  0  0  0  0
   21.3447  -21.0064  -13.4809 C   0  0  2  0  0  0  0  0  0  0  0  0
   22.6685  -21.3869  -13.0495 N   0  0  0  0  0  0  0  0  0  0  0  0
   20.5012  -20.8136  -12.2788 C   0  0  0  0  0  0  0  0  0  0  0  0
   19.3045  -20.0782  -12.3718 O   0  0  0  0  0  0  0  0  0  0  0  0
   20.7755  -21.2690  -11.1404 O   0  0  0  0  0  0  0  0  0  0  0  0
  2  1  1  6
  2  3  1  0
  4  5  1  0
  4  3  1  0
  5  6  1  0
  6  7  1  0
  8  2  1  0
  8  9  2  0
 10 11  1  0
 11 12  1  0
 13 12  1  0
 14 13  1  1
 14 15  1  0
 15  8  1  0
 16 14  1  0
 17 16  2  0
 19 18  1  0
 20 19  1  6
 20 21  1  0
 20 22  1  0
 21 16  1  0
 22 23  1  0
 24 22  2  0
M  END
$$$$
