KMS.pdb
     RDKit          3D

 24 23  0  0  1  0  0  0  0  0999 V2000
   17.2190  -10.7447  -18.5131 N   0  0  0  0  0  0  0  0  0  0  0  0
   18.2795   -9.7932  -18.7001 C   0  0  1  0  0  0  0  0  0  0  0  0
   18.0262   -8.7170  -19.6812 C   0  0  0  0  0  0  0  0  0  0  0  0
   17.5179   -9.1394  -21.0266 C   0  0  0  0  0  0  0  0  0  0  0  0
   18.4306   -8.8481  -22.1726 C   0  0  0  0  0  0  0  0  0  0  0  0
   17.7050   -9.2720  -23.4652 C   0  0  0  0  0  0  0  0  0  0  0  0
   18.4767  -10.2836  -24.1588 N   0  0  0  0  0  0  0  0  0  0  0  0
   18.7112   -9.2902  -17.3634 C   0  0  0  0  0  0  0  0  0  0  0  0
   17.8207   -9.1088  -16.5174 O   0  0  0  0  0  0  0  0  0  0  0  0
   24.2995  -10.7255  -14.3498 C   0  0  0  0  0  0  0  0  0  0  0  0
   23.1490  -10.1503  -13.0899 S   0  0  0  0  0  0  0  0  0  0  0  0
   21.9654   -8.9252  -13.7776 C   0  0  0  0  0  0  0  0  0  0  0  0
   21.5388   -9.4486  -15.1142 C   0  0  0  0  0  0  0  0  0  0  0  0
   20.5687   -8.5197  -15.8256 C   0  0  2  0  0  0  0  0  0  0  0  0
   20.0538   -9.0258  -17.0494 N   0  0  0  0  0  0  0  0  0  0  0  0
   21.0286   -7.1243  -15.8907 C   0  0  0  0  0  0  0  0  0  0  0  0
   21.7961   -6.7592  -16.8392 O   0  0  0  0  0  0  0  0  0  0  0  0
   20.2401   -2.5434  -14.7249 O   0  0  0  0  0  0  0  0  0  0  0  0
   19.8228   -3.8717  -14.6505 C   0  0  0  0  0  0  0  0  0  0  0  0
   20.9907   -4.7529  -15.0401 C   0  0  2  0  0  0  0  0  0  0  0  0
   20.6625   -6.1556  -14.9497 N   0  0  0  0  0  0  0  0  0  0  0  0
   22.1128   -4.4770  -14.1136 C   0  0  0  0  0  0  0  0  0  0  0  0
   23.0738   -3.5033  -14.4455 O   0  0  0  0  0  0  0  0  0  0  0  0
   22.2844   -5.0618  -13.0148 O   0  0  0  0  0  0  0  0  0  0  0  0
  2  1  1  1
  2  3  1  0
  4  5  1  0
  4  3  1  0
  5  6  1  0
  6  7  1  0
  8  2  1  0
  8  9  2  0
 10 11  1  0
 11 12  1  0
 13 12  1  0
 14 13  1  6
 14 15  1  0
 15  8  1  0
 16 14  1  0
 17 16  2  0
 19 18  1  0
 20 19  1  1
 20 21  1  0
 20 22  1  0
 21 16  1  0
 22 23  1  0
 24 22  2  0
M  END
$$$$
