KMS.pdb
     RDKit          3D

 24 23  0  0  1  0  0  0  0  0999 V2000
   27.4664  -23.3398  -17.3340 N   0  0  0  0  0  0  0  0  0  0  0  0
   27.1861  -22.0274  -16.8201 C   0  0  1  0  0  0  0  0  0  0  0  0
   26.7433  -21.0200  -17.8071 C   0  0  0  0  0  0  0  0  0  0  0  0
   27.8076  -20.4083  -18.6674 C   0  0  0  0  0  0  0  0  0  0  0  0
   29.1723  -20.9935  -18.5053 C   0  0  0  0  0  0  0  0  0  0  0  0
   30.1180  -20.2427  -19.4639 C   0  0  0  0  0  0  0  0  0  0  0  0
   31.4501  -20.8082  -19.3913 N   0  0  0  0  0  0  0  0  0  0  0  0
   26.2685  -22.1581  -15.6509 C   0  0  0  0  0  0  0  0  0  0  0  0
   25.3179  -22.9481  -15.7689 O   0  0  0  0  0  0  0  0  0  0  0  0
   25.3636  -20.9138   -7.8540 C   0  0  0  0  0  0  0  0  0  0  0  0
   26.3385  -20.7512   -9.3589 S   0  0  0  0  0  0  0  0  0  0  0  0
   25.3379  -21.1484  -10.8475 C   0  0  0  0  0  0  0  0  0  0  0  0
   26.2681  -21.0737  -12.0186 C   0  0  0  0  0  0  0  0  0  0  0  0
   25.5822  -21.4017  -13.3346 C   0  0  2  0  0  0  0  0  0  0  0  0
   26.4473  -21.4345  -14.4612 N   0  0  0  0  0  0  0  0  0  0  0  0
   24.3323  -20.6572  -13.5497 C   0  0  0  0  0  0  0  0  0  0  0  0
   24.3765  -19.4015  -13.7573 O   0  0  0  0  0  0  0  0  0  0  0  0
   20.7466  -22.6756  -13.8231 O   0  0  0  0  0  0  0  0  0  0  0  0
   20.8371  -21.4748  -14.5259 C   0  0  0  0  0  0  0  0  0  0  0  0
   21.8268  -20.5833  -13.8062 C   0  0  2  0  0  0  0  0  0  0  0  0
   23.0714  -21.2639  -13.5389 N   0  0  0  0  0  0  0  0  0  0  0  0
   21.2323  -20.1755  -12.5124 C   0  0  0  0  0  0  0  0  0  0  0  0
   20.0569  -19.4011  -12.4932 O   0  0  0  0  0  0  0  0  0  0  0  0
   21.7080  -20.4746  -11.3886 O   0  0  0  0  0  0  0  0  0  0  0  0
  2  1  1  6
  2  3  1  0
  4  5  1  0
  4  3  1  0
  5  6  1  0
  6  7  1  0
  8  2  1  0
  8  9  2  0
 10 11  1  0
 11 12  1  0
 13 12  1  0
 14 13  1  1
 14 15  1  0
 15  8  1  0
 16 14  1  0
 17 16  2  0
 19 18  1  0
 20 19  1  1
 20 21  1  0
 20 22  1  0
 21 16  1  0
 22 23  1  0
 24 22  2  0
M  END
$$$$
