KMS.pdb
     RDKit          3D

 24 23  0  0  1  0  0  0  0  0999 V2000
   18.6133  -25.8485   -6.9975 N   0  0  0  0  0  0  0  0  0  0  0  0
   17.7699  -25.6362   -5.8535 C   0  0  1  0  0  0  0  0  0  0  0  0
   16.3130  -25.6983   -6.0952 C   0  0  0  0  0  0  0  0  0  0  0  0
   15.7085  -24.5580   -6.8577 C   0  0  0  0  0  0  0  0  0  0  0  0
   16.4000  -24.2079   -8.1346 C   0  0  0  0  0  0  0  0  0  0  0  0
   15.5651  -23.1151   -8.8318 C   0  0  0  0  0  0  0  0  0  0  0  0
   16.2694  -22.6205   -9.9976 N   0  0  0  0  0  0  0  0  0  0  0  0
   18.2284  -26.5292   -4.7497 C   0  0  0  0  0  0  0  0  0  0  0  0
   18.6433  -27.6538   -5.0730 O   0  0  0  0  0  0  0  0  0  0  0  0
   21.2113  -26.6746    2.5819 C   0  0  0  0  0  0  0  0  0  0  0  0
   20.5188  -25.7749    1.1846 S   0  0  0  0  0  0  0  0  0  0  0  0
   19.7144  -26.9155   -0.0099 C   0  0  0  0  0  0  0  0  0  0  0  0
   19.3368  -26.0890   -1.2002 C   0  0  0  0  0  0  0  0  0  0  0  0
   18.6368  -26.8992   -2.2788 C   0  0  2  0  0  0  0  0  0  0  0  0
   18.2031  -26.1422   -3.4003 N   0  0  0  0  0  0  0  0  0  0  0  0
   17.6330  -27.8371   -1.7539 C   0  0  0  0  0  0  0  0  0  0  0  0
   16.4701  -27.4114   -1.4563 O   0  0  0  0  0  0  0  0  0  0  0  0
   18.7582  -31.6456   -0.9876 O   0  0  0  0  0  0  0  0  0  0  0  0
   17.3893  -31.5781   -1.2433 C   0  0  0  0  0  0  0  0  0  0  0  0
   16.9414  -30.1481   -1.0264 C   0  0  2  0  0  0  0  0  0  0  0  0
   17.8893  -29.1988   -1.5592 N   0  0  0  0  0  0  0  0  0  0  0  0
   16.8175  -29.9140    0.4308 C   0  0  0  0  0  0  0  0  0  0  0  0
   17.7923  -29.1544    1.1049 O   0  0  0  0  0  0  0  0  0  0  0  0
   15.8793  -30.3537    1.1416 O   0  0  0  0  0  0  0  0  0  0  0  0
  2  1  1  6
  2  3  1  0
  4  5  1  0
  4  3  1  0
  5  6  1  0
  6  7  1  0
  8  2  1  0
  8  9  2  0
 10 11  1  0
 11 12  1  0
 13 12  1  0
 14 13  1  1
 14 15  1  0
 15  8  1  0
 16 14  1  0
 17 16  2  0
 19 18  1  0
 20 19  1  1
 20 21  1  0
 20 22  1  0
 21 16  1  0
 22 23  1  0
 24 22  2  0
M  END
$$$$
