KMS.pdb
     RDKit          3D

 24 23  0  0  1  0  0  0  0  0999 V2000
   21.4284  -12.4230  -17.4647 N   0  0  0  0  0  0  0  0  0  0  0  0
   20.4832  -11.6388  -16.7186 C   0  0  1  0  0  0  0  0  0  0  0  0
   19.5212  -12.3923  -15.8868 C   0  0  0  0  0  0  0  0  0  0  0  0
   18.5089  -13.2237  -16.6156 C   0  0  0  0  0  0  0  0  0  0  0  0
   18.5806  -14.6919  -16.3506 C   0  0  0  0  0  0  0  0  0  0  0  0
   17.4817  -15.3712  -17.1921 C   0  0  0  0  0  0  0  0  0  0  0  0
   17.4410  -16.7906  -16.9028 N   0  0  0  0  0  0  0  0  0  0  0  0
   21.2252  -10.5867  -15.9645 C   0  0  0  0  0  0  0  0  0  0  0  0
   20.6694  -10.1210  -14.9566 O   0  0  0  0  0  0  0  0  0  0  0  0
   27.6315  -12.4998  -15.0379 C   0  0  0  0  0  0  0  0  0  0  0  0
   27.0101  -10.8987  -15.5782 S   0  0  0  0  0  0  0  0  0  0  0  0
   25.1927  -10.7744  -15.3407 C   0  0  0  0  0  0  0  0  0  0  0  0
   24.7957   -9.4052  -15.7990 C   0  0  0  0  0  0  0  0  0  0  0  0
   23.2994   -9.1613  -15.6913 C   0  0  2  0  0  0  0  0  0  0  0  0
   22.4931  -10.1259  -16.3533 N   0  0  0  0  0  0  0  0  0  0  0  0
   22.9095   -7.7662  -15.9449 C   0  0  0  0  0  0  0  0  0  0  0  0
   22.9677   -7.3029  -17.1298 O   0  0  0  0  0  0  0  0  0  0  0  0
   19.9063   -6.1143  -14.3694 O   0  0  0  0  0  0  0  0  0  0  0  0
   20.5624   -5.4291  -15.3911 C   0  0  0  0  0  0  0  0  0  0  0  0
   22.0527   -5.5356  -15.1458 C   0  0  2  0  0  0  0  0  0  0  0  0
   22.4691   -6.9017  -14.9366 N   0  0  0  0  0  0  0  0  0  0  0  0
   22.3820   -4.7573  -13.9295 C   0  0  0  0  0  0  0  0  0  0  0  0
   22.0962   -3.3798  -13.8789 O   0  0  0  0  0  0  0  0  0  0  0  0
   22.9153   -5.2428  -12.9006 O   0  0  0  0  0  0  0  0  0  0  0  0
  2  1  1  1
  2  3  1  0
  4  5  1  0
  4  3  1  0
  5  6  1  0
  6  7  1  0
  8  2  1  0
  8  9  2  0
 10 11  1  0
 11 12  1  0
 13 12  1  0
 14 13  1  6
 14 15  1  0
 15  8  1  0
 16 14  1  0
 17 16  2  0
 19 18  1  0
 20 19  1  1
 20 21  1  0
 20 22  1  0
 21 16  1  0
 22 23  1  0
 24 22  2  0
M  END
$$$$
