KMS.pdb
     RDKit          3D

 24 23  0  0  1  0  0  0  0  0999 V2000
   17.4831  -11.7995  -15.6121 N   0  0  0  0  0  0  0  0  0  0  0  0
   16.8876  -10.4919  -15.5855 C   0  0  1  0  0  0  0  0  0  0  0  0
   15.9465  -10.2250  -14.4773 C   0  0  0  0  0  0  0  0  0  0  0  0
   14.7735  -11.1500  -14.3535 C   0  0  0  0  0  0  0  0  0  0  0  0
   13.4343  -10.4899  -14.3973 C   0  0  0  0  0  0  0  0  0  0  0  0
   12.3680  -11.5864  -14.2031 C   0  0  0  0  0  0  0  0  0  0  0  0
   11.0449  -10.9957  -14.1909 N   0  0  0  0  0  0  0  0  0  0  0  0
   17.9696   -9.4716  -15.7060 C   0  0  0  0  0  0  0  0  0  0  0  0
   19.0708   -9.7600  -15.2104 O   0  0  0  0  0  0  0  0  0  0  0  0
   20.2570   -3.0583  -19.8381 C   0  0  0  0  0  0  0  0  0  0  0  0
   19.0735   -4.3696  -19.4901 S   0  0  0  0  0  0  0  0  0  0  0  0
   19.5761   -5.3479  -18.0186 C   0  0  0  0  0  0  0  0  0  0  0  0
   18.4757   -6.3313  -17.7645 C   0  0  0  0  0  0  0  0  0  0  0  0
   18.7498   -7.2211  -16.5633 C   0  0  2  0  0  0  0  0  0  0  0  0
   17.7795   -8.2356  -16.3442 N   0  0  0  0  0  0  0  0  0  0  0  0
   19.1353   -6.4776  -15.3544 C   0  0  0  0  0  0  0  0  0  0  0  0
   18.2392   -5.8923  -14.6641 O   0  0  0  0  0  0  0  0  0  0  0  0
   22.2050   -7.5825  -13.0886 O   0  0  0  0  0  0  0  0  0  0  0  0
   21.2011   -6.7450  -12.6039 C   0  0  0  0  0  0  0  0  0  0  0  0
   20.8696   -5.7366  -13.6836 C   0  0  2  0  0  0  0  0  0  0  0  0
   20.4585   -6.3753  -14.9110 N   0  0  0  0  0  0  0  0  0  0  0  0
   22.0830   -4.9337  -13.9605 C   0  0  0  0  0  0  0  0  0  0  0  0
   22.6830   -4.1895  -12.9272 O   0  0  0  0  0  0  0  0  0  0  0  0
   22.6420   -4.8590  -15.0834 O   0  0  0  0  0  0  0  0  0  0  0  0
  2  1  1  1
  2  3  1  0
  4  5  1  0
  4  3  1  0
  5  6  1  0
  6  7  1  0
  8  2  1  0
  8  9  2  0
 10 11  1  0
 11 12  1  0
 13 12  1  0
 14 13  1  6
 14 15  1  0
 15  8  1  0
 16 14  1  0
 17 16  2  0
 19 18  1  0
 20 19  1  1
 20 21  1  0
 20 22  1  0
 21 16  1  0
 22 23  1  0
 24 22  2  0
M  END
$$$$
