KMS.pdb
     RDKit          3D

 24 23  0  0  1  0  0  0  0  0999 V2000
   20.1544  -12.5949  -17.2998 N   0  0  0  0  0  0  0  0  0  0  0  0
   20.5775  -11.3384  -17.8540 C   0  0  1  0  0  0  0  0  0  0  0  0
   19.5595  -10.5842  -18.6155 C   0  0  0  0  0  0  0  0  0  0  0  0
   18.7447  -11.3633  -19.6034 C   0  0  0  0  0  0  0  0  0  0  0  0
   19.5227  -12.0065  -20.7044 C   0  0  0  0  0  0  0  0  0  0  0  0
   18.5139  -12.6845  -21.6529 C   0  0  0  0  0  0  0  0  0  0  0  0
   19.2162  -13.3434  -22.7358 N   0  0  0  0  0  0  0  0  0  0  0  0
   21.2301  -10.5371  -16.7778 C   0  0  0  0  0  0  0  0  0  0  0  0
   20.6347  -10.4672  -15.6906 O   0  0  0  0  0  0  0  0  0  0  0  0
   27.3603  -12.3813  -14.9134 C   0  0  0  0  0  0  0  0  0  0  0  0
   26.7967  -10.8069  -15.5807 S   0  0  0  0  0  0  0  0  0  0  0  0
   24.9667  -10.6669  -15.5032 C   0  0  0  0  0  0  0  0  0  0  0  0
   24.6274   -9.2726  -15.9314 C   0  0  0  0  0  0  0  0  0  0  0  0
   23.1292   -9.0381  -16.0327 C   0  0  2  0  0  0  0  0  0  0  0  0
   22.4589   -9.8824  -16.9583 N   0  0  0  0  0  0  0  0  0  0  0  0
   22.7597   -7.6178  -16.1278 C   0  0  0  0  0  0  0  0  0  0  0  0
   22.8069   -7.0304  -17.2568 O   0  0  0  0  0  0  0  0  0  0  0  0
   19.8465   -6.0793  -14.3745 O   0  0  0  0  0  0  0  0  0  0  0  0
   20.5233   -5.2431  -15.2615 C   0  0  0  0  0  0  0  0  0  0  0  0
   22.0095   -5.4585  -15.0681 C   0  0  2  0  0  0  0  0  0  0  0  0
   22.3507   -6.8603  -15.0246 N   0  0  0  0  0  0  0  0  0  0  0  0
   22.4065   -4.8429  -13.7808 C   0  0  0  0  0  0  0  0  0  0  0  0
   22.2211   -3.4625  -13.5763 O   0  0  0  0  0  0  0  0  0  0  0  0
   22.9140   -5.4742  -12.8203 O   0  0  0  0  0  0  0  0  0  0  0  0
  2  1  1  1
  2  3  1  0
  4  5  1  0
  4  3  1  0
  5  6  1  0
  6  7  1  0
  8  2  1  0
  8  9  2  0
 10 11  1  0
 11 12  1  0
 13 12  1  0
 14 13  1  6
 14 15  1  0
 15  8  1  0
 16 14  1  0
 17 16  2  0
 19 18  1  0
 20 19  1  1
 20 21  1  0
 20 22  1  0
 21 16  1  0
 22 23  1  0
 24 22  2  0
M  END
$$$$
