KMS.pdb
     RDKit          3D

 24 23  0  0  1  0  0  0  0  0999 V2000
   21.2909  -12.3582  -18.2513 N   0  0  0  0  0  0  0  0  0  0  0  0
   20.5120  -11.9075  -17.1309 C   0  0  1  0  0  0  0  0  0  0  0  0
   19.6561  -12.9218  -16.4798 C   0  0  0  0  0  0  0  0  0  0  0  0
   18.9390  -13.8777  -17.3848 C   0  0  0  0  0  0  0  0  0  0  0  0
   19.5217  -15.2515  -17.4505 C   0  0  0  0  0  0  0  0  0  0  0  0
   18.6223  -16.0950  -18.3761 C   0  0  0  0  0  0  0  0  0  0  0  0
   19.1534  -17.4380  -18.4953 N   0  0  0  0  0  0  0  0  0  0  0  0
   21.4118  -11.1902  -16.1812 C   0  0  0  0  0  0  0  0  0  0  0  0
   20.9796  -11.0007  -15.0328 O   0  0  0  0  0  0  0  0  0  0  0  0
   28.0151  -10.4418  -17.1664 C   0  0  0  0  0  0  0  0  0  0  0  0
   27.7085  -10.5424  -15.3951 S   0  0  0  0  0  0  0  0  0  0  0  0
   26.0397   -9.9027  -14.9701 C   0  0  0  0  0  0  0  0  0  0  0  0
   25.0749  -10.5847  -15.8900 C   0  0  0  0  0  0  0  0  0  0  0  0
   23.6464  -10.0991  -15.7069 C   0  0  2  0  0  0  0  0  0  0  0  0
   22.6916  -10.7395  -16.5419 N   0  0  0  0  0  0  0  0  0  0  0  0
   23.5234   -8.6345  -15.6557 C   0  0  0  0  0  0  0  0  0  0  0  0
   24.1364   -7.9837  -14.7486 O   0  0  0  0  0  0  0  0  0  0  0  0
   23.1480   -6.6823  -18.9267 O   0  0  0  0  0  0  0  0  0  0  0  0
   22.3733   -5.9624  -18.0180 C   0  0  0  0  0  0  0  0  0  0  0  0
   22.6998   -6.4598  -16.6258 C   0  0  2  0  0  0  0  0  0  0  0  0
   22.7549   -7.9010  -16.5664 N   0  0  0  0  0  0  0  0  0  0  0  0
   21.6372   -5.9966  -15.7038 C   0  0  0  0  0  0  0  0  0  0  0  0
   21.4313   -4.6181  -15.5064 O   0  0  0  0  0  0  0  0  0  0  0  0
   20.8760   -6.7606  -15.0592 O   0  0  0  0  0  0  0  0  0  0  0  0
  2  1  1  6
  2  3  1  0
  4  5  1  0
  4  3  1  0
  5  6  1  0
  6  7  1  0
  8  2  1  0
  8  9  2  0
 10 11  1  0
 11 12  1  0
 13 12  1  0
 14 13  1  6
 14 15  1  0
 15  8  1  0
 16 14  1  0
 17 16  2  0
 19 18  1  0
 20 19  1  6
 20 21  1  0
 20 22  1  0
 21 16  1  0
 22 23  1  0
 24 22  2  0
M  END
$$$$
