KMS.pdb
     RDKit          3D

 24 23  0  0  1  0  0  0  0  0999 V2000
   17.3923  -12.2060  -15.1380 N   0  0  0  0  0  0  0  0  0  0  0  0
   17.1310  -10.7963  -15.2356 C   0  0  1  0  0  0  0  0  0  0  0  0
   15.7387  -10.4099  -15.5472 C   0  0  0  0  0  0  0  0  0  0  0  0
   14.9645  -11.3399  -16.4319 C   0  0  0  0  0  0  0  0  0  0  0  0
   13.7505  -11.9481  -15.8096 C   0  0  0  0  0  0  0  0  0  0  0  0
   12.9930  -12.7107  -16.9149 C   0  0  0  0  0  0  0  0  0  0  0  0
   11.7487  -13.2374  -16.3912 N   0  0  0  0  0  0  0  0  0  0  0  0
   17.6774  -10.1239  -14.0209 C   0  0  0  0  0  0  0  0  0  0  0  0
   17.3627  -10.6081  -12.9218 O   0  0  0  0  0  0  0  0  0  0  0  0
   24.2406  -10.2101  -13.7063 C   0  0  0  0  0  0  0  0  0  0  0  0
   23.1643   -8.7889  -13.4552 S   0  0  0  0  0  0  0  0  0  0  0  0
   21.4042   -9.2997  -13.3291 C   0  0  0  0  0  0  0  0  0  0  0  0
   20.6053   -8.0423  -13.1768 C   0  0  0  0  0  0  0  0  0  0  0  0
   19.1191   -8.3088  -13.0033 C   0  0  2  0  0  0  0  0  0  0  0  0
   18.5101   -8.9955  -14.0879 N   0  0  0  0  0  0  0  0  0  0  0  0
   18.3633   -7.1431  -12.5209 C   0  0  0  0  0  0  0  0  0  0  0  0
   18.0972   -6.1907  -13.3235 O   0  0  0  0  0  0  0  0  0  0  0  0
   15.2942   -7.3771  -10.6055 O   0  0  0  0  0  0  0  0  0  0  0  0
   15.6567   -6.0827  -10.9758 C   0  0  0  0  0  0  0  0  0  0  0  0
   17.1351   -5.9118  -10.6978 C   0  0  2  0  0  0  0  0  0  0  0  0
   17.9110   -7.0193  -11.2026 N   0  0  0  0  0  0  0  0  0  0  0  0
   17.3286   -5.8382   -9.2313 C   0  0  0  0  0  0  0  0  0  0  0  0
   16.6700   -4.8423   -8.4855 O   0  0  0  0  0  0  0  0  0  0  0  0
   18.0592   -6.6203   -8.5730 O   0  0  0  0  0  0  0  0  0  0  0  0
  2  1  1  1
  2  3  1  0
  4  5  1  0
  4  3  1  0
  5  6  1  0
  6  7  1  0
  8  2  1  0
  8  9  2  0
 10 11  1  0
 11 12  1  0
 13 12  1  0
 14 13  1  6
 14 15  1  0
 15  8  1  0
 16 14  1  0
 17 16  2  0
 19 18  1  0
 20 19  1  1
 20 21  1  0
 20 22  1  0
 21 16  1  0
 22 23  1  0
 24 22  2  0
M  END
$$$$
