KMS.pdb
     RDKit          3D

 24 23  0  0  1  0  0  0  0  0999 V2000
   15.2693  -11.3602  -14.1860 N   0  0  0  0  0  0  0  0  0  0  0  0
   15.3904   -9.9525  -14.4482 C   0  0  1  0  0  0  0  0  0  0  0  0
   14.1548   -9.2570  -14.8661 C   0  0  0  0  0  0  0  0  0  0  0  0
   13.4714   -9.7795  -16.0937 C   0  0  0  0  0  0  0  0  0  0  0  0
   12.3013   -8.9775  -16.5615 C   0  0  0  0  0  0  0  0  0  0  0  0
   11.6692   -9.7266  -17.7516 C   0  0  0  0  0  0  0  0  0  0  0  0
   10.5838   -8.9455  -18.3100 N   0  0  0  0  0  0  0  0  0  0  0  0
   16.0729   -9.3076  -13.2887 C   0  0  0  0  0  0  0  0  0  0  0  0
   15.7251   -9.6776  -12.1558 O   0  0  0  0  0  0  0  0  0  0  0  0
   22.2065   -8.9098  -11.7893 C   0  0  0  0  0  0  0  0  0  0  0  0
   21.7563   -7.1709  -11.6656 S   0  0  0  0  0  0  0  0  0  0  0  0
   19.9511   -6.9676  -11.3926 C   0  0  0  0  0  0  0  0  0  0  0  0
   19.2675   -7.6465  -12.5390 C   0  0  0  0  0  0  0  0  0  0  0  0
   17.7530   -7.6285  -12.4130 C   0  0  2  0  0  0  0  0  0  0  0  0
   17.0649   -8.3260  -13.4421 N   0  0  0  0  0  0  0  0  0  0  0  0
   17.2025   -6.2997  -12.1065 C   0  0  0  0  0  0  0  0  0  0  0  0
   17.0657   -5.4453  -13.0410 O   0  0  0  0  0  0  0  0  0  0  0  0
   15.0426   -3.3910   -8.8749 O   0  0  0  0  0  0  0  0  0  0  0  0
   15.5521   -4.6639   -9.1282 C   0  0  0  0  0  0  0  0  0  0  0  0
   16.2278   -4.6377  -10.4828 C   0  0  2  0  0  0  0  0  0  0  0  0
   16.8126   -5.9138  -10.8192 N   0  0  0  0  0  0  0  0  0  0  0  0
   17.3087   -3.6259  -10.4455 C   0  0  0  0  0  0  0  0  0  0  0  0
   17.0486   -2.3056  -10.8586 O   0  0  0  0  0  0  0  0  0  0  0  0
   18.4825   -3.8571  -10.0614 O   0  0  0  0  0  0  0  0  0  0  0  0
  2  1  1  1
  2  3  1  0
  4  5  1  0
  4  3  1  0
  5  6  1  0
  6  7  1  0
  8  2  1  0
  8  9  2  0
 10 11  1  0
 11 12  1  0
 13 12  1  0
 14 13  1  6
 14 15  1  0
 15  8  1  0
 16 14  1  0
 17 16  2  0
 19 18  1  0
 20 19  1  1
 20 21  1  0
 20 22  1  0
 21 16  1  0
 22 23  1  0
 24 22  2  0
M  END
$$$$
