KMS.pdb
     RDKit          3D

 24 23  0  0  1  0  0  0  0  0999 V2000
   28.7850  -21.0597  -16.0703 N   0  0  0  0  0  0  0  0  0  0  0  0
   27.9998  -20.1014  -15.3422 C   0  0  1  0  0  0  0  0  0  0  0  0
   27.2518  -19.1179  -16.1536 C   0  0  0  0  0  0  0  0  0  0  0  0
   28.0652  -18.1960  -17.0112 C   0  0  0  0  0  0  0  0  0  0  0  0
   27.2924  -17.1194  -17.7002 C   0  0  0  0  0  0  0  0  0  0  0  0
   28.2872  -16.3022  -18.5485 C   0  0  0  0  0  0  0  0  0  0  0  0
   29.1961  -15.5756  -17.6849 N   0  0  0  0  0  0  0  0  0  0  0  0
   27.1485  -20.8307  -14.3575 C   0  0  0  0  0  0  0  0  0  0  0  0
   26.7044  -21.9355  -14.7091 O   0  0  0  0  0  0  0  0  0  0  0  0
   27.2072  -20.8995   -7.7363 C   0  0  0  0  0  0  0  0  0  0  0  0
   25.5123  -20.4238   -8.1138 S   0  0  0  0  0  0  0  0  0  0  0  0
   25.0382  -20.9383   -9.8124 C   0  0  0  0  0  0  0  0  0  0  0  0
   26.0946  -20.4046  -10.7298 C   0  0  0  0  0  0  0  0  0  0  0  0
   25.8533  -20.7787  -12.1830 C   0  0  2  0  0  0  0  0  0  0  0  0
   26.8474  -20.3158  -13.0865 N   0  0  0  0  0  0  0  0  0  0  0  0
   24.4713  -20.5477  -12.6298 C   0  0  0  0  0  0  0  0  0  0  0  0
   24.0864  -19.3631  -12.8956 O   0  0  0  0  0  0  0  0  0  0  0  0
   22.4403  -22.9967  -14.9357 O   0  0  0  0  0  0  0  0  0  0  0  0
   21.6168  -22.6516  -13.8649 C   0  0  0  0  0  0  0  0  0  0  0  0
   22.1758  -21.3967  -13.2285 C   0  0  2  0  0  0  0  0  0  0  0  0
   23.5365  -21.5777  -12.7822 N   0  0  0  0  0  0  0  0  0  0  0  0
   21.3415  -21.0586  -12.0524 C   0  0  0  0  0  0  0  0  0  0  0  0
   19.9734  -20.7733  -12.2211 O   0  0  0  0  0  0  0  0  0  0  0  0
   21.7697  -21.0033  -10.8724 O   0  0  0  0  0  0  0  0  0  0  0  0
  2  1  1  6
  2  3  1  0
  4  5  1  0
  4  3  1  0
  5  6  1  0
  6  7  1  0
  8  2  1  0
  8  9  2  0
 10 11  1  0
 11 12  1  0
 13 12  1  0
 14 13  1  1
 14 15  1  0
 15  8  1  0
 16 14  1  0
 17 16  2  0
 19 18  1  0
 20 19  1  1
 20 21  1  0
 20 22  1  0
 21 16  1  0
 22 23  1  0
 24 22  2  0
M  END
$$$$
