KMS.pdb
     RDKit          3D

 24 23  0  0  1  0  0  0  0  0999 V2000
   20.5591  -12.6996  -18.4344 N   0  0  0  0  0  0  0  0  0  0  0  0
   20.0040  -11.3742  -18.4421 C   0  0  1  0  0  0  0  0  0  0  0  0
   18.5977  -11.2573  -18.8824 C   0  0  0  0  0  0  0  0  0  0  0  0
   18.2052  -12.0450  -20.0958 C   0  0  0  0  0  0  0  0  0  0  0  0
   16.8309  -11.7739  -20.6142 C   0  0  0  0  0  0  0  0  0  0  0  0
   16.6010  -12.6956  -21.8286 C   0  0  0  0  0  0  0  0  0  0  0  0
   16.9424  -14.0617  -21.4866 N   0  0  0  0  0  0  0  0  0  0  0  0
   20.2677  -10.7381  -17.1184 C   0  0  0  0  0  0  0  0  0  0  0  0
   19.6635  -11.2064  -16.1402 O   0  0  0  0  0  0  0  0  0  0  0  0
   26.7157  -10.9512  -15.7721 C   0  0  0  0  0  0  0  0  0  0  0  0
   25.1950  -10.6880  -14.8448 S   0  0  0  0  0  0  0  0  0  0  0  0
   23.9079   -9.8932  -15.8872 C   0  0  0  0  0  0  0  0  0  0  0  0
   22.6948   -9.7392  -15.0228 C   0  0  0  0  0  0  0  0  0  0  0  0
   21.5482   -9.0449  -15.7393 C   0  0  2  0  0  0  0  0  0  0  0  0
   21.1522   -9.6597  -16.9575 N   0  0  0  0  0  0  0  0  0  0  0  0
   21.6996   -7.5841  -15.8170 C   0  0  0  0  0  0  0  0  0  0  0  0
   22.3655   -7.0713  -16.7738 O   0  0  0  0  0  0  0  0  0  0  0  0
   20.1687   -3.2293  -14.4189 O   0  0  0  0  0  0  0  0  0  0  0  0
   19.9569   -4.6072  -14.4396 C   0  0  0  0  0  0  0  0  0  0  0  0
   21.2211   -5.2686  -14.9463 C   0  0  2  0  0  0  0  0  0  0  0  0
   21.1414   -6.7083  -14.8792 N   0  0  0  0  0  0  0  0  0  0  0  0
   22.3516   -4.8252  -14.0985 C   0  0  0  0  0  0  0  0  0  0  0  0
   22.9426   -3.5667  -14.3188 O   0  0  0  0  0  0  0  0  0  0  0  0
   22.8454   -5.5047  -13.1640 O   0  0  0  0  0  0  0  0  0  0  0  0
  2  1  1  1
  2  3  1  0
  4  5  1  0
  4  3  1  0
  5  6  1  0
  6  7  1  0
  8  2  1  0
  8  9  2  0
 10 11  1  0
 11 12  1  0
 13 12  1  0
 14 13  1  6
 14 15  1  0
 15  8  1  0
 16 14  1  0
 17 16  2  0
 19 18  1  0
 20 19  1  1
 20 21  1  0
 20 22  1  0
 21 16  1  0
 22 23  1  0
 24 22  2  0
M  END
$$$$
