HVY.pdb
     RDKit          3D

 30 31  0  0  1  0  0  0  0  0999 V2000
   22.0847  -20.8360  -16.0941 N   0  0  0  0  0  0  0  0  0  0  0  0
   21.1931  -19.7143  -16.1407 C   0  0  1  0  0  0  0  0  0  0  0  0
   19.9235  -20.0655  -15.3825 C   0  0  0  0  0  0  0  0  0  0  0  0
   19.2156  -21.2025  -16.0300 C   0  0  0  0  0  0  0  0  0  0  0  0
   18.4561  -21.1619  -17.1819 C   0  0  0  0  0  0  0  0  0  0  0  0
   17.9909  -22.3979  -17.4196 N   0  0  0  0  0  0  0  0  0  0  0  0
   18.4493  -23.2137  -16.4316 C   0  0  0  0  0  0  0  0  0  0  0  0
   19.1871  -22.4740  -15.6009 N   0  0  0  0  0  0  0  0  0  0  0  0
   21.8506  -18.5375  -15.4440 C   0  0  0  0  0  0  0  0  0  0  0  0
   22.0668  -18.5810  -14.2234 O   0  0  0  0  0  0  0  0  0  0  0  0
   24.8535  -14.6875  -15.8822 C   0  0  0  0  0  0  0  0  0  0  0  0
   24.1465  -15.8904  -16.4611 C   0  0  2  0  0  0  0  0  0  0  0  0
   24.1162  -15.7377  -17.9444 C   0  0  0  0  0  0  0  0  0  0  0  0
   22.8227  -16.1907  -15.8346 C   0  0  2  0  0  0  0  0  0  0  0  0
   22.2019  -17.4185  -16.2086 N   0  0  0  0  0  0  0  0  0  0  0  0
   21.9068  -15.0419  -15.7389 C   0  0  0  0  0  0  0  0  0  0  0  0
   22.2913  -13.9970  -15.1584 O   0  0  0  0  0  0  0  0  0  0  0  0
   23.6248  -11.0890  -20.1124 O   0  0  0  0  0  0  0  0  0  0  0  0
   22.5493  -11.6732  -19.4473 C   0  0  0  0  0  0  0  0  0  0  0  0
   22.1315  -12.9612  -19.6775 C   0  0  0  0  0  0  0  0  0  0  0  0
   21.0675  -13.4887  -18.9956 C   0  0  0  0  0  0  0  0  0  0  0  0
   20.3569  -12.7544  -18.0402 C   0  0  0  0  0  0  0  0  0  0  0  0
   19.1979  -13.3219  -17.3198 C   0  0  0  0  0  0  0  0  0  0  0  0
   19.6687  -13.9152  -16.0225 C   0  0  2  0  0  0  0  0  0  0  0  0
   20.5988  -15.0276  -16.2634 N   0  0  0  0  0  0  0  0  0  0  0  0
   18.5747  -14.3174  -15.1405 C   0  0  0  0  0  0  0  0  0  0  0  0
   18.5729  -15.6504  -14.6678 O   0  0  0  0  0  0  0  0  0  0  0  0
   20.7908  -11.4681  -17.8251 C   0  0  0  0  0  0  0  0  0  0  0  0
   21.8717  -10.9233  -18.5135 C   0  0  0  0  0  0  0  0  0  0  0  0
   17.6237  -13.6124  -14.7480 O   0  0  0  0  0  0  0  0  0  0  0  0
  2  1  1  1
  2  3  1  0
  4  3  1  0
  4  5  2  0
  6  5  1  0
  7  6  1  0
  8  7  2  0
  8  4  1  0
  9  2  1  0
 10  9  2  0
 12 11  1  1
 12 13  1  0
 12 14  1  0
 14 15  1  6
 15  9  1  0
 16 17  2  0
 16 14  1  0
 18 19  1  0
 19 29  2  0
 20 21  2  0
 20 19  1  0
 21 22  1  0
 22 23  1  0
 22 28  2  0
 24 23  1  6
 24 25  1  0
 25 16  1  0
 26 24  1  0
 27 26  1  0
 29 28  1  0
 30 26  2  0
M  END
$$$$
