HVY.pdb
     RDKit          3D

 30 31  0  0  1  0  0  0  0  0999 V2000
   19.2527  -12.6157  -17.9437 N   0  0  0  0  0  0  0  0  0  0  0  0
   19.9526  -11.3828  -18.1563 C   0  0  1  0  0  0  0  0  0  0  0  0
   19.1858  -10.5528  -19.1729 C   0  0  0  0  0  0  0  0  0  0  0  0
   19.2587  -11.1691  -20.5249 C   0  0  0  0  0  0  0  0  0  0  0  0
   18.2051  -11.4309  -21.3774 C   0  0  0  0  0  0  0  0  0  0  0  0
   18.6985  -11.9947  -22.4907 N   0  0  0  0  0  0  0  0  0  0  0  0
   20.0484  -12.0894  -22.3477 C   0  0  0  0  0  0  0  0  0  0  0  0
   20.3688  -11.5860  -21.1537 N   0  0  0  0  0  0  0  0  0  0  0  0
   19.9935  -10.6121  -16.8498 C   0  0  0  0  0  0  0  0  0  0  0  0
   18.9656  -10.4963  -16.1653 O   0  0  0  0  0  0  0  0  0  0  0  0
   23.8691  -10.1504  -14.6945 C   0  0  0  0  0  0  0  0  0  0  0  0
   22.4230  -10.0234  -14.2765 C   0  0  2  0  0  0  0  0  0  0  0  0
   21.9408  -11.3746  -13.8687 C   0  0  0  0  0  0  0  0  0  0  0  0
   21.5523   -9.3195  -15.2671 C   0  0  2  0  0  0  0  0  0  0  0  0
   21.2080  -10.0450  -16.4453 N   0  0  0  0  0  0  0  0  0  0  0  0
   21.8876   -7.9037  -15.4920 C   0  0  0  0  0  0  0  0  0  0  0  0
   22.6799   -7.6000  -16.4176 O   0  0  0  0  0  0  0  0  0  0  0  0
   19.6601   -5.9665  -20.8434 O   0  0  0  0  0  0  0  0  0  0  0  0
   19.8877   -5.6498  -19.5061 C   0  0  0  0  0  0  0  0  0  0  0  0
   19.0164   -5.9772  -18.4961 C   0  0  0  0  0  0  0  0  0  0  0  0
   19.2877   -5.6428  -17.1962 C   0  0  0  0  0  0  0  0  0  0  0  0
   20.4514   -4.9579  -16.8305 C   0  0  0  0  0  0  0  0  0  0  0  0
   20.7314   -4.5831  -15.4285 C   0  0  0  0  0  0  0  0  0  0  0  0
   21.8353   -5.4533  -14.8987 C   0  0  2  0  0  0  0  0  0  0  0  0
   21.3728   -6.8379  -14.7270 N   0  0  0  0  0  0  0  0  0  0  0  0
   22.4390   -4.9375  -13.6715 C   0  0  0  0  0  0  0  0  0  0  0  0
   23.0143   -3.6463  -13.7190 O   0  0  0  0  0  0  0  0  0  0  0  0
   21.3096   -4.6395  -17.8558 C   0  0  0  0  0  0  0  0  0  0  0  0
   21.0422   -4.9757  -19.1804 C   0  0  0  0  0  0  0  0  0  0  0  0
   22.5098   -5.5113  -12.5664 O   0  0  0  0  0  0  0  0  0  0  0  0
  2  1  1  1
  2  3  1  0
  4  3  1  0
  4  5  2  0
  6  5  1  0
  7  6  1  0
  8  7  2  0
  8  4  1  0
  9  2  1  0
 10  9  2  0
 12 11  1  6
 12 13  1  0
 12 14  1  0
 14 15  1  6
 15  9  1  0
 16 17  2  0
 16 14  1  0
 18 19  1  0
 19 29  2  0
 20 21  2  0
 20 19  1  0
 21 22  1  0
 22 23  1  0
 22 28  2  0
 24 23  1  1
 24 25  1  0
 25 16  1  0
 26 24  1  0
 27 26  1  0
 29 28  1  0
 30 26  2  0
M  END
$$$$
