HVY.pdb
     RDKit          3D

 30 31  0  0  1  0  0  0  0  0999 V2000
   18.9837  -14.0669  -16.3880 N   0  0  0  0  0  0  0  0  0  0  0  0
   19.1321  -12.7666  -16.9731 C   0  0  1  0  0  0  0  0  0  0  0  0
   17.8189  -12.3713  -17.6285 C   0  0  0  0  0  0  0  0  0  0  0  0
   17.5082  -13.2651  -18.7764 C   0  0  0  0  0  0  0  0  0  0  0  0
   18.0455  -13.2051  -20.0464 C   0  0  0  0  0  0  0  0  0  0  0  0
   17.4955  -14.1852  -20.7796 N   0  0  0  0  0  0  0  0  0  0  0  0
   16.6201  -14.8597  -19.9854 C   0  0  0  0  0  0  0  0  0  0  0  0
   16.6408  -14.2895  -18.7788 N   0  0  0  0  0  0  0  0  0  0  0  0
   19.4320  -11.7662  -15.8722 C   0  0  0  0  0  0  0  0  0  0  0  0
   18.7335  -11.7435  -14.8475 O   0  0  0  0  0  0  0  0  0  0  0  0
   23.3343   -9.1376  -14.6095 C   0  0  0  0  0  0  0  0  0  0  0  0
   22.1917  -10.1020  -14.3938 C   0  0  2  0  0  0  0  0  0  0  0  0
   22.7280  -11.4879  -14.5215 C   0  0  0  0  0  0  0  0  0  0  0  0
   20.9794   -9.8200  -15.2219 C   0  0  2  0  0  0  0  0  0  0  0  0
   20.5051  -10.8837  -16.0444 N   0  0  0  0  0  0  0  0  0  0  0  0
   20.9583   -8.4929  -15.8589 C   0  0  0  0  0  0  0  0  0  0  0  0
   21.4616   -8.3518  -17.0006 O   0  0  0  0  0  0  0  0  0  0  0  0
   14.0887   -6.7189  -16.6751 O   0  0  0  0  0  0  0  0  0  0  0  0
   15.4631   -6.5438  -16.8195 C   0  0  0  0  0  0  0  0  0  0  0  0
   16.0795   -5.3196  -16.7312 C   0  0  0  0  0  0  0  0  0  0  0  0
   17.4356   -5.2017  -16.8804 C   0  0  0  0  0  0  0  0  0  0  0  0
   18.2567   -6.3069  -17.1280 C   0  0  0  0  0  0  0  0  0  0  0  0
   19.7177   -6.1724  -17.3064 C   0  0  0  0  0  0  0  0  0  0  0  0
   20.3671   -6.0434  -15.9580 C   0  0  2  0  0  0  0  0  0  0  0  0
   20.4016   -7.3409  -15.2680 N   0  0  0  0  0  0  0  0  0  0  0  0
   19.7592   -5.0111  -15.1205 C   0  0  0  0  0  0  0  0  0  0  0  0
   19.8053   -3.6778  -15.5902 O   0  0  0  0  0  0  0  0  0  0  0  0
   17.6204   -7.5222  -17.2129 C   0  0  0  0  0  0  0  0  0  0  0  0
   16.2421   -7.6518  -17.0623 C   0  0  0  0  0  0  0  0  0  0  0  0
   19.1948   -5.1680  -14.0195 O   0  0  0  0  0  0  0  0  0  0  0  0
  2  1  1  1
  2  3  1  0
  4  3  1  0
  4  5  2  0
  6  5  1  0
  7  6  1  0
  8  7  2  0
  8  4  1  0
  9  2  1  0
 10  9  2  0
 12 11  1  6
 12 13  1  0
 12 14  1  0
 14 15  1  6
 15  9  1  0
 16 17  2  0
 16 14  1  0
 18 19  1  0
 19 29  2  0
 20 21  2  0
 20 19  1  0
 21 22  1  0
 22 23  1  0
 22 28  2  0
 24 23  1  6
 24 25  1  0
 25 16  1  0
 26 24  1  0
 27 26  1  0
 29 28  1  0
 30 26  2  0
M  END
$$$$
