HVY.pdb
     RDKit          3D

 30 31  0  0  1  0  0  0  0  0999 V2000
   20.8574  -21.0642  -13.9025 N   0  0  0  0  0  0  0  0  0  0  0  0
   21.6126  -20.1701  -13.0746 C   0  0  1  0  0  0  0  0  0  0  0  0
   20.6956  -19.6000  -12.0050 C   0  0  0  0  0  0  0  0  0  0  0  0
   19.7889  -18.5689  -12.5773 C   0  0  0  0  0  0  0  0  0  0  0  0
   20.0623  -17.2277  -12.7559 C   0  0  0  0  0  0  0  0  0  0  0  0
   18.9785  -16.6484  -13.2950 N   0  0  0  0  0  0  0  0  0  0  0  0
   18.0288  -17.6093  -13.4574 C   0  0  0  0  0  0  0  0  0  0  0  0
   18.5360  -18.7631  -13.0180 N   0  0  0  0  0  0  0  0  0  0  0  0
   22.7140  -20.9543  -12.3855 C   0  0  0  0  0  0  0  0  0  0  0  0
   22.4457  -22.0098  -11.7918 O   0  0  0  0  0  0  0  0  0  0  0  0
   26.0965  -22.0169  -13.9757 C   0  0  0  0  0  0  0  0  0  0  0  0
   26.3888  -21.1403  -12.7807 C   0  0  2  0  0  0  0  0  0  0  0  0
   27.6296  -21.6494  -12.1281 C   0  0  0  0  0  0  0  0  0  0  0  0
   25.2291  -20.9461  -11.8574 C   0  0  2  0  0  0  0  0  0  0  0  0
   24.0224  -20.4591  -12.4399 N   0  0  0  0  0  0  0  0  0  0  0  0
   25.5671  -20.3515  -10.5536 C   0  0  0  0  0  0  0  0  0  0  0  0
   25.5212  -19.1042  -10.4173 O   0  0  0  0  0  0  0  0  0  0  0  0
   29.2573  -18.9162   -2.7243 O   0  0  0  0  0  0  0  0  0  0  0  0
   28.6717  -19.5476   -3.8192 C   0  0  0  0  0  0  0  0  0  0  0  0
   29.3794  -19.9408   -4.9287 C   0  0  0  0  0  0  0  0  0  0  0  0
   28.7553  -20.5590   -5.9793 C   0  0  0  0  0  0  0  0  0  0  0  0
   27.3810  -20.8201   -5.9803 C   0  0  0  0  0  0  0  0  0  0  0  0
   26.7087  -21.4712   -7.1242 C   0  0  0  0  0  0  0  0  0  0  0  0
   26.5382  -20.4680   -8.2293 C   0  0  2  0  0  0  0  0  0  0  0  0
   25.9476  -21.0966   -9.4195 N   0  0  0  0  0  0  0  0  0  0  0  0
   27.7719  -19.7571   -8.5595 C   0  0  0  0  0  0  0  0  0  0  0  0
   27.9215  -18.4419   -8.0611 O   0  0  0  0  0  0  0  0  0  0  0  0
   26.6914  -20.4185   -4.8612 C   0  0  0  0  0  0  0  0  0  0  0  0
   27.3175  -19.7895   -3.7882 C   0  0  0  0  0  0  0  0  0  0  0  0
   28.7265  -20.1791   -9.2422 O   0  0  0  0  0  0  0  0  0  0  0  0
  2  1  1  6
  2  3  1  0
  4  3  1  0
  4  5  2  0
  6  5  1  0
  7  6  1  0
  8  7  2  0
  8  4  1  0
  9  2  1  0
 10  9  2  0
 12 11  1  6
 12 13  1  0
 12 14  1  0
 14 15  1  6
 15  9  1  0
 16 17  2  0
 16 14  1  0
 18 19  1  0
 19 29  2  0
 20 21  2  0
 20 19  1  0
 21 22  1  0
 22 23  1  0
 22 28  2  0
 24 23  1  1
 24 25  1  0
 25 16  1  0
 26 24  1  0
 27 26  1  0
 29 28  1  0
 30 26  2  0
M  END
$$$$
