HVY.pdb
     RDKit          3D

 30 31  0  0  1  0  0  0  0  0999 V2000
   23.8530  -13.6229  -18.4267 N   0  0  0  0  0  0  0  0  0  0  0  0
   23.7409  -12.7891  -17.2660 C   0  0  1  0  0  0  0  0  0  0  0  0
   25.1328  -12.3500  -16.8416 C   0  0  0  0  0  0  0  0  0  0  0  0
   25.8984  -13.4907  -16.2707 C   0  0  0  0  0  0  0  0  0  0  0  0
   26.8920  -14.2197  -16.8925 C   0  0  0  0  0  0  0  0  0  0  0  0
   27.3182  -15.1606  -16.0360 N   0  0  0  0  0  0  0  0  0  0  0  0
   26.6050  -15.0309  -14.8844 C   0  0  0  0  0  0  0  0  0  0  0  0
   25.7517  -14.0171  -15.0448 N   0  0  0  0  0  0  0  0  0  0  0  0
   22.9436  -11.5501  -17.6289 C   0  0  0  0  0  0  0  0  0  0  0  0
   23.1570  -10.9676  -18.7030 O   0  0  0  0  0  0  0  0  0  0  0  0
   18.7728   -9.1280  -17.3671 C   0  0  0  0  0  0  0  0  0  0  0  0
   19.8414  -10.1672  -17.6125 C   0  0  2  0  0  0  0  0  0  0  0  0
   19.2119  -11.5137  -17.4888 C   0  0  0  0  0  0  0  0  0  0  0  0
   21.0844   -9.9794  -16.8033 C   0  0  2  0  0  0  0  0  0  0  0  0
   21.9736  -11.0915  -16.7295 N   0  0  0  0  0  0  0  0  0  0  0  0
   20.8953   -9.2571  -15.5344 C   0  0  0  0  0  0  0  0  0  0  0  0
   20.5023   -9.8873  -14.5220 O   0  0  0  0  0  0  0  0  0  0  0  0
   24.3828   -2.7443  -16.9996 O   0  0  0  0  0  0  0  0  0  0  0  0
   23.8229   -3.6781  -16.1307 C   0  0  0  0  0  0  0  0  0  0  0  0
   22.9359   -3.3443  -15.1366 C   0  0  0  0  0  0  0  0  0  0  0  0
   22.4135   -4.3016  -14.3084 C   0  0  0  0  0  0  0  0  0  0  0  0
   22.7504   -5.6542  -14.4276 C   0  0  0  0  0  0  0  0  0  0  0  0
   22.1980   -6.6815  -13.5200 C   0  0  0  0  0  0  0  0  0  0  0  0
   20.9040   -7.1925  -14.0865 C   0  0  2  0  0  0  0  0  0  0  0  0
   21.1283   -7.8772  -15.3677 N   0  0  0  0  0  0  0  0  0  0  0  0
   19.8782   -6.1583  -14.2080 C   0  0  0  0  0  0  0  0  0  0  0  0
   19.3428   -5.6254  -13.0122 O   0  0  0  0  0  0  0  0  0  0  0  0
   23.6394   -5.9669  -15.4282 C   0  0  0  0  0  0  0  0  0  0  0  0
   24.1755   -5.0003  -16.2751 C   0  0  0  0  0  0  0  0  0  0  0  0
   19.4087   -5.6810  -15.2602 O   0  0  0  0  0  0  0  0  0  0  0  0
  2  1  1  6
  2  3  1  0
  4  3  1  0
  4  5  2  0
  6  5  1  0
  7  6  1  0
  8  7  2  0
  8  4  1  0
  9  2  1  0
 10  9  2  0
 12 11  1  1
 12 13  1  0
 12 14  1  0
 14 15  1  1
 15  9  1  0
 16 17  2  0
 16 14  1  0
 18 19  1  0
 19 29  2  0
 20 21  2  0
 20 19  1  0
 21 22  1  0
 22 23  1  0
 22 28  2  0
 24 23  1  6
 24 25  1  0
 25 16  1  0
 26 24  1  0
 27 26  1  0
 29 28  1  0
 30 26  2  0
M  END
$$$$
