HVY.pdb
     RDKit          3D

 30 31  0  0  1  0  0  0  0  0999 V2000
   21.1816  -18.4929  -16.5484 N   0  0  0  0  0  0  0  0  0  0  0  0
   22.0968  -17.8122  -15.6799 C   0  0  1  0  0  0  0  0  0  0  0  0
   21.3674  -17.4290  -14.4027 C   0  0  0  0  0  0  0  0  0  0  0  0
   20.2798  -16.4539  -14.6844 C   0  0  0  0  0  0  0  0  0  0  0  0
   18.9352  -16.6062  -14.4123 C   0  0  0  0  0  0  0  0  0  0  0  0
   18.2970  -15.5012  -14.8274 N   0  0  0  0  0  0  0  0  0  0  0  0
   19.2243  -14.6572  -15.3561 C   0  0  0  0  0  0  0  0  0  0  0  0
   20.4165  -15.2497  -15.2615 N   0  0  0  0  0  0  0  0  0  0  0  0
   23.2232  -18.7614  -15.3155 C   0  0  0  0  0  0  0  0  0  0  0  0
   22.9933  -19.9722  -15.1754 O   0  0  0  0  0  0  0  0  0  0  0  0
   26.7353  -18.4219  -17.1384 C   0  0  0  0  0  0  0  0  0  0  0  0
   26.9390  -18.4300  -15.6416 C   0  0  2  0  0  0  0  0  0  0  0  0
   28.1988  -19.1741  -15.3520 C   0  0  0  0  0  0  0  0  0  0  0  0
   25.7492  -18.8827  -14.8578 C   0  0  2  0  0  0  0  0  0  0  0  0
   24.5105  -18.2380  -15.1458 N   0  0  0  0  0  0  0  0  0  0  0  0
   26.0023  -19.1185  -13.4267 C   0  0  0  0  0  0  0  0  0  0  0  0
   26.2289  -18.1394  -12.6739 O   0  0  0  0  0  0  0  0  0  0  0  0
   27.8236  -19.9931   -5.2612 O   0  0  0  0  0  0  0  0  0  0  0  0
   27.3154  -19.8880   -6.5539 C   0  0  0  0  0  0  0  0  0  0  0  0
   27.6756  -18.8896   -7.4256 C   0  0  0  0  0  0  0  0  0  0  0  0
   27.1464  -18.8316   -8.6873 C   0  0  0  0  0  0  0  0  0  0  0  0
   26.2218  -19.7733   -9.1514 C   0  0  0  0  0  0  0  0  0  0  0  0
   25.6396  -19.6964  -10.5076 C   0  0  0  0  0  0  0  0  0  0  0  0
   26.4146  -20.5976  -11.4263 C   0  0  2  0  0  0  0  0  0  0  0  0
   26.0092  -20.3925  -12.8243 N   0  0  0  0  0  0  0  0  0  0  0  0
   26.3384  -22.0083  -11.0513 C   0  0  0  0  0  0  0  0  0  0  0  0
   27.3248  -22.5034  -10.1669 O   0  0  0  0  0  0  0  0  0  0  0  0
   25.8747  -20.7637   -8.2638 C   0  0  0  0  0  0  0  0  0  0  0  0
   26.4077  -20.8308   -6.9791 C   0  0  0  0  0  0  0  0  0  0  0  0
   25.4919  -22.8441  -11.4260 O   0  0  0  0  0  0  0  0  0  0  0  0
  2  1  1  6
  2  3  1  0
  4  3  1  0
  4  5  2  0
  6  5  1  0
  7  6  1  0
  8  7  2  0
  8  4  1  0
  9  2  1  0
 10  9  2  0
 12 11  1  6
 12 13  1  0
 12 14  1  0
 14 15  1  1
 15  9  1  0
 16 17  2  0
 16 14  1  0
 18 19  1  0
 19 29  2  0
 20 21  2  0
 20 19  1  0
 21 22  1  0
 22 23  1  0
 22 28  2  0
 24 23  1  1
 24 25  1  0
 25 16  1  0
 26 24  1  0
 27 26  1  0
 29 28  1  0
 30 26  2  0
M  END
$$$$
