HVY.pdb
     RDKit          3D

 30 31  0  0  1  0  0  0  0  0999 V2000
   21.0951  -11.9205  -18.3694 N   0  0  0  0  0  0  0  0  0  0  0  0
   20.5629  -10.6014  -18.1909 C   0  0  1  0  0  0  0  0  0  0  0  0
   19.1281  -10.7137  -17.7018 C   0  0  0  0  0  0  0  0  0  0  0  0
   18.2527  -11.2969  -18.7538 C   0  0  0  0  0  0  0  0  0  0  0  0
   17.8389  -10.6897  -19.9223 C   0  0  0  0  0  0  0  0  0  0  0  0
   17.0575  -11.5537  -20.5882 N   0  0  0  0  0  0  0  0  0  0  0  0
   16.9761  -12.6956  -19.8526 C   0  0  0  0  0  0  0  0  0  0  0  0
   17.7042  -12.5220  -18.7475 N   0  0  0  0  0  0  0  0  0  0  0  0
   21.3723   -9.8876  -17.1241 C   0  0  0  0  0  0  0  0  0  0  0  0
   21.5996  -10.4463  -16.0402 O   0  0  0  0  0  0  0  0  0  0  0  0
   24.1236   -5.6948  -16.4845 C   0  0  0  0  0  0  0  0  0  0  0  0
   23.7039   -6.9558  -17.2025 C   0  0  2  0  0  0  0  0  0  0  0  0
   23.5213   -6.6256  -18.6455 C   0  0  0  0  0  0  0  0  0  0  0  0
   22.5528   -7.6723  -16.5727 C   0  0  2  0  0  0  0  0  0  0  0  0
   21.8489   -8.5996  -17.3959 N   0  0  0  0  0  0  0  0  0  0  0  0
   21.6960   -6.8365  -15.7153 C   0  0  0  0  0  0  0  0  0  0  0  0
   20.7308   -6.2185  -16.2281 O   0  0  0  0  0  0  0  0  0  0  0  0
   16.4088   -3.7674   -9.5939 O   0  0  0  0  0  0  0  0  0  0  0  0
   17.3069   -4.5048  -10.3622 C   0  0  0  0  0  0  0  0  0  0  0  0
   17.1220   -4.7593  -11.6991 C   0  0  0  0  0  0  0  0  0  0  0  0
   18.0365   -5.4900  -12.4098 C   0  0  0  0  0  0  0  0  0  0  0  0
   19.1936   -6.0108  -11.8209 C   0  0  0  0  0  0  0  0  0  0  0  0
   20.1687   -6.8143  -12.5877 C   0  0  0  0  0  0  0  0  0  0  0  0
   20.9489   -5.9053  -13.4941 C   0  0  2  0  0  0  0  0  0  0  0  0
   21.8834   -6.6748  -14.3279 N   0  0  0  0  0  0  0  0  0  0  0  0
   21.6339   -4.8282  -12.7818 C   0  0  0  0  0  0  0  0  0  0  0  0
   20.9990   -3.5650  -12.7406 O   0  0  0  0  0  0  0  0  0  0  0  0
   19.3595   -5.7450  -10.4826 C   0  0  0  0  0  0  0  0  0  0  0  0
   18.4352   -5.0028   -9.7520 C   0  0  0  0  0  0  0  0  0  0  0  0
   22.7329   -4.8907  -12.1955 O   0  0  0  0  0  0  0  0  0  0  0  0
  2  1  1  1
  2  3  1  0
  4  3  1  0
  4  5  2  0
  6  5  1  0
  7  6  1  0
  8  7  2  0
  8  4  1  0
  9  2  1  0
 10  9  2  0
 12 11  1  1
 12 13  1  0
 12 14  1  0
 14 15  1  6
 15  9  1  0
 16 17  2  0
 16 14  1  0
 18 19  1  0
 19 29  2  0
 20 21  2  0
 20 19  1  0
 21 22  1  0
 22 23  1  0
 22 28  2  0
 24 23  1  1
 24 25  1  0
 25 16  1  0
 26 24  1  0
 27 26  1  0
 29 28  1  0
 30 26  2  0
M  END
$$$$
