HVY.pdb
     RDKit          3D

 30 31  0  0  1  0  0  0  0  0999 V2000
   43.5869  -13.5798   -9.4061 N   0  0  0  0  0  0  0  0  0  0  0  0
   42.8306  -12.4048   -9.7262 C   0  0  1  0  0  0  0  0  0  0  0  0
   41.6317  -12.8080  -10.5689 C   0  0  0  0  0  0  0  0  0  0  0  0
   42.0218  -12.9952  -11.9922 C   0  0  0  0  0  0  0  0  0  0  0  0
   42.6347  -14.1000  -12.5482 C   0  0  0  0  0  0  0  0  0  0  0  0
   42.8169  -13.8627  -13.8563 N   0  0  0  0  0  0  0  0  0  0  0  0
   42.3255  -12.6232  -14.1283 C   0  0  0  0  0  0  0  0  0  0  0  0
   41.8496  -12.1140  -12.9900 N   0  0  0  0  0  0  0  0  0  0  0  0
   42.3182  -11.7870   -8.4384 C   0  0  0  0  0  0  0  0  0  0  0  0
   41.8724  -12.5127   -7.5367 O   0  0  0  0  0  0  0  0  0  0  0  0
   44.0354   -8.2503   -6.6477 C   0  0  0  0  0  0  0  0  0  0  0  0
   42.9744   -9.2247   -6.1930 C   0  0  2  0  0  0  0  0  0  0  0  0
   43.6600  -10.4088   -5.5993 C   0  0  0  0  0  0  0  0  0  0  0  0
   41.9475   -9.5494   -7.2298 C   0  0  2  0  0  0  0  0  0  0  0  0
   42.3639  -10.3946   -8.2998 N   0  0  0  0  0  0  0  0  0  0  0  0
   41.0952   -8.4190   -7.6341 C   0  0  0  0  0  0  0  0  0  0  0  0
   41.2831   -7.8774   -8.7512 O   0  0  0  0  0  0  0  0  0  0  0  0
   35.6678   -1.5263   -7.6990 O   0  0  0  0  0  0  0  0  0  0  0  0
   36.2406   -2.7599   -7.3982 C   0  0  0  0  0  0  0  0  0  0  0  0
   36.8440   -3.0366   -6.1958 C   0  0  0  0  0  0  0  0  0  0  0  0
   37.3922   -4.2671   -5.9498 C   0  0  0  0  0  0  0  0  0  0  0  0
   37.3685   -5.2961   -6.8973 C   0  0  0  0  0  0  0  0  0  0  0  0
   37.9775   -6.6168   -6.6341 C   0  0  0  0  0  0  0  0  0  0  0  0
   39.3763   -6.6303   -7.1816 C   0  0  2  0  0  0  0  0  0  0  0  0
   40.0590   -7.8867   -6.8410 N   0  0  0  0  0  0  0  0  0  0  0  0
   40.1660   -5.4686   -6.7772 C   0  0  0  0  0  0  0  0  0  0  0  0
   40.8504   -5.5419   -5.5416 O   0  0  0  0  0  0  0  0  0  0  0  0
   36.7604   -4.9987   -8.0935 C   0  0  0  0  0  0  0  0  0  0  0  0
   36.2002   -3.7505   -8.3524 C   0  0  0  0  0  0  0  0  0  0  0  0
   40.3106   -4.3995   -7.4030 O   0  0  0  0  0  0  0  0  0  0  0  0
  2  1  1  1
  2  3  1  0
  4  3  1  0
  4  5  2  0
  6  5  1  0
  7  6  1  0
  8  7  2  0
  8  4  1  0
  9  2  1  0
 10  9  2  0
 12 11  1  6
 12 13  1  0
 12 14  1  0
 14 15  1  6
 15  9  1  0
 16 17  2  0
 16 14  1  0
 18 19  1  0
 19 29  2  0
 20 21  2  0
 20 19  1  0
 21 22  1  0
 22 23  1  0
 22 28  2  0
 24 23  1  1
 24 25  1  0
 25 16  1  0
 26 24  1  0
 27 26  1  0
 29 28  1  0
 30 26  2  0
M  END
$$$$
