HVY.pdb
     RDKit          3D

 30 31  0  0  1  0  0  0  0  0999 V2000
   23.6156  -19.9754  -17.0484 N   0  0  0  0  0  0  0  0  0  0  0  0
   23.8107  -19.4376  -15.7339 C   0  0  1  0  0  0  0  0  0  0  0  0
   22.4556  -19.2733  -15.0654 C   0  0  0  0  0  0  0  0  0  0  0  0
   21.6452  -18.2344  -15.7562 C   0  0  0  0  0  0  0  0  0  0  0  0
   21.6642  -16.8740  -15.5236 C   0  0  0  0  0  0  0  0  0  0  0  0
   20.7822  -16.2958  -16.3534 N   0  0  0  0  0  0  0  0  0  0  0  0
   20.2104  -17.2763  -17.1040 C   0  0  0  0  0  0  0  0  0  0  0  0
   20.7438  -18.4410  -16.7290 N   0  0  0  0  0  0  0  0  0  0  0  0
   24.6250  -20.4242  -14.9177 C   0  0  0  0  0  0  0  0  0  0  0  0
   24.3528  -21.6337  -14.9548 O   0  0  0  0  0  0  0  0  0  0  0  0
   29.1156  -21.0060  -12.8414 C   0  0  0  0  0  0  0  0  0  0  0  0
   28.0991  -20.2622  -13.6753 C   0  0  2  0  0  0  0  0  0  0  0  0
   28.4069  -18.8055  -13.5864 C   0  0  0  0  0  0  0  0  0  0  0  0
   26.6775  -20.6215  -13.3837 C   0  0  2  0  0  0  0  0  0  0  0  0
   25.6776  -19.9362  -14.1342 N   0  0  0  0  0  0  0  0  0  0  0  0
   26.3627  -20.7984  -11.9563 C   0  0  0  0  0  0  0  0  0  0  0  0
   26.9552  -21.6923  -11.3032 O   0  0  0  0  0  0  0  0  0  0  0  0
   19.4647  -19.3900  -12.5782 O   0  0  0  0  0  0  0  0  0  0  0  0
   20.5884  -19.8566  -11.8999 C   0  0  0  0  0  0  0  0  0  0  0  0
   21.5022  -20.7161  -12.4590 C   0  0  0  0  0  0  0  0  0  0  0  0
   22.5916  -21.1451  -11.7487 C   0  0  0  0  0  0  0  0  0  0  0  0
   22.8301  -20.7372  -10.4320 C   0  0  0  0  0  0  0  0  0  0  0  0
   23.9975  -21.2171   -9.6631 C   0  0  0  0  0  0  0  0  0  0  0  0
   25.1287  -20.2425   -9.8286 C   0  0  2  0  0  0  0  0  0  0  0  0
   25.4230  -20.0199  -11.2515 N   0  0  0  0  0  0  0  0  0  0  0  0
   26.3311  -20.6220   -9.0893 C   0  0  0  0  0  0  0  0  0  0  0  0
   26.3115  -20.4629   -7.6840 O   0  0  0  0  0  0  0  0  0  0  0  0
   21.9040  -19.8776   -9.8912 C   0  0  0  0  0  0  0  0  0  0  0  0
   20.7934  -19.4360  -10.6059 C   0  0  0  0  0  0  0  0  0  0  0  0
   27.3932  -21.0772   -9.5584 O   0  0  0  0  0  0  0  0  0  0  0  0
  2  1  1  6
  2  3  1  0
  4  3  1  0
  4  5  2  0
  6  5  1  0
  7  6  1  0
  8  7  2  0
  8  4  1  0
  9  2  1  0
 10  9  2  0
 12 11  1  1
 12 13  1  0
 12 14  1  0
 14 15  1  1
 15  9  1  0
 16 17  2  0
 16 14  1  0
 18 19  1  0
 19 29  2  0
 20 21  2  0
 20 19  1  0
 21 22  1  0
 22 23  1  0
 22 28  2  0
 24 23  1  6
 24 25  1  0
 25 16  1  0
 26 24  1  0
 27 26  1  0
 29 28  1  0
 30 26  2  0
M  END
$$$$
