HVY.pdb
     RDKit          3D

 30 31  0  0  1  0  0  0  0  0999 V2000
   33.8501  -29.8168  -17.8712 N   0  0  0  0  0  0  0  0  0  0  0  0
   33.3999  -28.5956  -18.4721 C   0  0  1  0  0  0  0  0  0  0  0  0
   32.5353  -28.9314  -19.6763 C   0  0  0  0  0  0  0  0  0  0  0  0
   33.3580  -29.4959  -20.7797 C   0  0  0  0  0  0  0  0  0  0  0  0
   34.3561  -28.8544  -21.4851 C   0  0  0  0  0  0  0  0  0  0  0  0
   34.8418  -29.7120  -22.3957 N   0  0  0  0  0  0  0  0  0  0  0  0
   34.1614  -30.8838  -22.2702 C   0  0  0  0  0  0  0  0  0  0  0  0
   33.2687  -30.7344  -21.2893 N   0  0  0  0  0  0  0  0  0  0  0  0
   32.5442  -27.8437  -17.4696 C   0  0  0  0  0  0  0  0  0  0  0  0
   31.7927  -28.4669  -16.7045 O   0  0  0  0  0  0  0  0  0  0  0  0
   33.8685  -23.8084  -16.1774 C   0  0  0  0  0  0  0  0  0  0  0  0
   32.9339  -24.8286  -15.5711 C   0  0  2  0  0  0  0  0  0  0  0  0
   33.7465  -25.7585  -14.7347 C   0  0  0  0  0  0  0  0  0  0  0  0
   32.0279  -25.4985  -16.5537 C   0  0  2  0  0  0  0  0  0  0  0  0
   32.6277  -26.4466  -17.4336 N   0  0  0  0  0  0  0  0  0  0  0  0
   31.0358  -24.6134  -17.1861 C   0  0  0  0  0  0  0  0  0  0  0  0
   31.1480  -24.3382  -18.4060 O   0  0  0  0  0  0  0  0  0  0  0  0
   25.5167  -28.4759  -16.2599 O   0  0  0  0  0  0  0  0  0  0  0  0
   26.1692  -27.3452  -16.7461 C   0  0  0  0  0  0  0  0  0  0  0  0
   25.6729  -26.0720  -16.6082 C   0  0  0  0  0  0  0  0  0  0  0  0
   26.3546  -24.9930  -17.1044 C   0  0  0  0  0  0  0  0  0  0  0  0
   27.5776  -25.1265  -17.7704 C   0  0  0  0  0  0  0  0  0  0  0  0
   28.3010  -23.9608  -18.3202 C   0  0  0  0  0  0  0  0  0  0  0  0
   28.9439  -23.2053  -17.1921 C   0  0  2  0  0  0  0  0  0  0  0  0
   29.9428  -24.0382  -16.5074 N   0  0  0  0  0  0  0  0  0  0  0  0
   27.9788  -22.6463  -16.2473 C   0  0  0  0  0  0  0  0  0  0  0  0
   26.9884  -21.7777  -16.7620 O   0  0  0  0  0  0  0  0  0  0  0  0
   28.0565  -26.4085  -17.8979 C   0  0  0  0  0  0  0  0  0  0  0  0
   27.3704  -27.5116  -17.3964 C   0  0  0  0  0  0  0  0  0  0  0  0
   27.9237  -22.8467  -15.0175 O   0  0  0  0  0  0  0  0  0  0  0  0
  2  1  1  1
  2  3  1  0
  4  3  1  0
  4  5  2  0
  6  5  1  0
  7  6  1  0
  8  7  2  0
  8  4  1  0
  9  2  1  0
 10  9  2  0
 12 11  1  6
 12 13  1  0
 12 14  1  0
 14 15  1  6
 15  9  1  0
 16 17  2  0
 16 14  1  0
 18 19  1  0
 19 29  2  0
 20 21  2  0
 20 19  1  0
 21 22  1  0
 22 23  1  0
 22 28  2  0
 24 23  1  6
 24 25  1  0
 25 16  1  0
 26 24  1  0
 27 26  1  0
 29 28  1  0
 30 26  2  0
M  END
$$$$
