HVY.pdb
     RDKit          3D

 30 31  0  0  1  0  0  0  0  0999 V2000
   20.8404   -8.7883  -18.9140 N   0  0  0  0  0  0  0  0  0  0  0  0
   20.2251   -7.8762  -17.9949 C   0  0  1  0  0  0  0  0  0  0  0  0
   18.8979   -7.4160  -18.5755 C   0  0  0  0  0  0  0  0  0  0  0  0
   19.1116   -6.5141  -19.7391 C   0  0  0  0  0  0  0  0  0  0  0  0
   18.8921   -6.8073  -21.0699 C   0  0  0  0  0  0  0  0  0  0  0  0
   19.2135   -5.7247  -21.7949 N   0  0  0  0  0  0  0  0  0  0  0  0
   19.6314   -4.7558  -20.9356 C   0  0  0  0  0  0  0  0  0  0  0  0
   19.5634   -5.2508  -19.6979 N   0  0  0  0  0  0  0  0  0  0  0  0
   19.9454   -8.6065  -16.6945 C   0  0  0  0  0  0  0  0  0  0  0  0
   19.4127   -9.7264  -16.7141 O   0  0  0  0  0  0  0  0  0  0  0  0
   22.4834   -8.0245  -13.1391 C   0  0  0  0  0  0  0  0  0  0  0  0
   21.4363   -9.0362  -13.5416 C   0  0  2  0  0  0  0  0  0  0  0  0
   22.0997  -10.0791  -14.3763 C   0  0  0  0  0  0  0  0  0  0  0  0
   20.2023   -8.4436  -14.1425 C   0  0  2  0  0  0  0  0  0  0  0  0
   20.3022   -7.9884  -15.4900 N   0  0  0  0  0  0  0  0  0  0  0  0
   19.4414   -7.5559  -13.2478 C   0  0  0  0  0  0  0  0  0  0  0  0
   19.7131   -6.3303  -13.2224 O   0  0  0  0  0  0  0  0  0  0  0  0
   13.8788   -3.6487   -7.7966 O   0  0  0  0  0  0  0  0  0  0  0  0
   14.4411   -4.5411   -8.7065 C   0  0  0  0  0  0  0  0  0  0  0  0
   14.3658   -5.9054   -8.5674 C   0  0  0  0  0  0  0  0  0  0  0  0
   14.9358   -6.7399   -9.4916 C   0  0  0  0  0  0  0  0  0  0  0  0
   15.6174   -6.2551  -10.6129 C   0  0  0  0  0  0  0  0  0  0  0  0
   16.2467   -7.1593  -11.5981 C   0  0  0  0  0  0  0  0  0  0  0  0
   17.7395   -7.0877  -11.4468 C   0  0  2  0  0  0  0  0  0  0  0  0
   18.4053   -7.9903  -12.3969 N   0  0  0  0  0  0  0  0  0  0  0  0
   18.1935   -7.3266  -10.0780 C   0  0  0  0  0  0  0  0  0  0  0  0
   18.6954   -8.6128   -9.7712 O   0  0  0  0  0  0  0  0  0  0  0  0
   15.6815   -4.8874  -10.7332 C   0  0  0  0  0  0  0  0  0  0  0  0
   15.1048   -4.0311   -9.7987 C   0  0  0  0  0  0  0  0  0  0  0  0
   18.1902   -6.5166   -9.1297 O   0  0  0  0  0  0  0  0  0  0  0  0
  2  1  1  6
  2  3  1  0
  4  3  1  0
  4  5  2  0
  6  5  1  0
  7  6  1  0
  8  7  2  0
  8  4  1  0
  9  2  1  0
 10  9  2  0
 12 11  1  6
 12 13  1  0
 12 14  1  0
 14 15  1  6
 15  9  1  0
 16 17  2  0
 16 14  1  0
 18 19  1  0
 19 29  2  0
 20 21  2  0
 20 19  1  0
 21 22  1  0
 22 23  1  0
 22 28  2  0
 24 23  1  1
 24 25  1  0
 25 16  1  0
 26 24  1  0
 27 26  1  0
 29 28  1  0
 30 26  2  0
M  END
$$$$
