HVY.pdb
     RDKit          3D

 30 31  0  0  1  0  0  0  0  0999 V2000
   26.1066  -19.7282  -19.6228 N   0  0  0  0  0  0  0  0  0  0  0  0
   25.6820  -19.1457  -18.3836 C   0  0  1  0  0  0  0  0  0  0  0  0
   24.1959  -18.8389  -18.4700 C   0  0  0  0  0  0  0  0  0  0  0  0
   23.9427  -17.6916  -19.3825 C   0  0  0  0  0  0  0  0  0  0  0  0
   23.2008  -17.7027  -20.5464 C   0  0  0  0  0  0  0  0  0  0  0  0
   23.2264  -16.4674  -21.0701 N   0  0  0  0  0  0  0  0  0  0  0  0
   23.9746  -15.6813  -20.2492 C   0  0  0  0  0  0  0  0  0  0  0  0
   24.3994  -16.4381  -19.2351 N   0  0  0  0  0  0  0  0  0  0  0  0
   25.8932  -20.1555  -17.2708 C   0  0  0  0  0  0  0  0  0  0  0  0
   25.7299  -21.3651  -17.4914 O   0  0  0  0  0  0  0  0  0  0  0  0
   28.5535  -19.2923  -13.6953 C   0  0  0  0  0  0  0  0  0  0  0  0
   28.0066  -20.4996  -14.4201 C   0  0  2  0  0  0  0  0  0  0  0  0
   28.9297  -20.8177  -15.5476 C   0  0  0  0  0  0  0  0  0  0  0  0
   26.5650  -20.3917  -14.8014 C   0  0  2  0  0  0  0  0  0  0  0  0
   26.2732  -19.6885  -16.0068 N   0  0  0  0  0  0  0  0  0  0  0  0
   25.6478  -20.1074  -13.6854 C   0  0  0  0  0  0  0  0  0  0  0  0
   25.3450  -18.9164  -13.4277 O   0  0  0  0  0  0  0  0  0  0  0  0
   19.3277  -19.4747   -7.8579 O   0  0  0  0  0  0  0  0  0  0  0  0
   20.1730  -19.9137   -8.8744 C   0  0  0  0  0  0  0  0  0  0  0  0
   20.1554  -19.3934  -10.1454 C   0  0  0  0  0  0  0  0  0  0  0  0
   21.0088  -19.8604  -11.1092 C   0  0  0  0  0  0  0  0  0  0  0  0
   21.9327  -20.8798  -10.8556 C   0  0  0  0  0  0  0  0  0  0  0  0
   22.8393  -21.3932  -11.9039 C   0  0  0  0  0  0  0  0  0  0  0  0
   24.1929  -20.7645  -11.7332 C   0  0  2  0  0  0  0  0  0  0  0  0
   25.0703  -21.0970  -12.8647 N   0  0  0  0  0  0  0  0  0  0  0  0
   24.8245  -21.0906  -10.4560 C   0  0  0  0  0  0  0  0  0  0  0  0
   24.6919  -20.1550   -9.4037 O   0  0  0  0  0  0  0  0  0  0  0  0
   21.9339  -21.3867   -9.5781 C   0  0  0  0  0  0  0  0  0  0  0  0
   21.0701  -20.9180   -8.5916 C   0  0  0  0  0  0  0  0  0  0  0  0
   25.4800  -22.1146  -10.1780 O   0  0  0  0  0  0  0  0  0  0  0  0
  2  1  1  6
  2  3  1  0
  4  3  1  0
  4  5  2  0
  6  5  1  0
  7  6  1  0
  8  7  2  0
  8  4  1  0
  9  2  1  0
 10  9  2  0
 12 11  1  6
 12 13  1  0
 12 14  1  0
 14 15  1  6
 15  9  1  0
 16 17  2  0
 16 14  1  0
 18 19  1  0
 19 29  2  0
 20 21  2  0
 20 19  1  0
 21 22  1  0
 22 23  1  0
 22 28  2  0
 24 23  1  6
 24 25  1  0
 25 16  1  0
 26 24  1  0
 27 26  1  0
 29 28  1  0
 30 26  2  0
M  END
$$$$
