HVY.pdb
     RDKit          3D

 30 31  0  0  1  0  0  0  0  0999 V2000
   21.8946  -18.4562  -18.1655 N   0  0  0  0  0  0  0  0  0  0  0  0
   22.3364  -17.9161  -16.9131 C   0  0  1  0  0  0  0  0  0  0  0  0
   21.2235  -18.0760  -15.8904 C   0  0  0  0  0  0  0  0  0  0  0  0
   20.1149  -17.1207  -16.1583 C   0  0  0  0  0  0  0  0  0  0  0  0
   19.9831  -15.8394  -15.6623 C   0  0  0  0  0  0  0  0  0  0  0  0
   18.8417  -15.3212  -16.1413 N   0  0  0  0  0  0  0  0  0  0  0  0
   18.2559  -16.2611  -16.9319 C   0  0  0  0  0  0  0  0  0  0  0  0
   19.0392  -17.3419  -16.9300 N   0  0  0  0  0  0  0  0  0  0  0  0
   23.5373  -18.7106  -16.4343 C   0  0  0  0  0  0  0  0  0  0  0  0
   23.6055  -19.9284  -16.6596 O   0  0  0  0  0  0  0  0  0  0  0  0
   27.2454  -16.4647  -15.1302 C   0  0  0  0  0  0  0  0  0  0  0  0
   27.0299  -17.8660  -15.6514 C   0  0  2  0  0  0  0  0  0  0  0  0
   27.1992  -17.8380  -17.1330 C   0  0  0  0  0  0  0  0  0  0  0  0
   25.7700  -18.5157  -15.1764 C   0  0  2  0  0  0  0  0  0  0  0  0
   24.5515  -18.0380  -15.7420 N   0  0  0  0  0  0  0  0  0  0  0  0
   25.7153  -18.7788  -13.7289 C   0  0  0  0  0  0  0  0  0  0  0  0
   24.9081  -18.1316  -13.0174 O   0  0  0  0  0  0  0  0  0  0  0  0
   23.5122  -25.0640  -14.1222 O   0  0  0  0  0  0  0  0  0  0  0  0
   23.9091  -23.9371  -13.4059 C   0  0  0  0  0  0  0  0  0  0  0  0
   24.9408  -23.9462  -12.4993 C   0  0  0  0  0  0  0  0  0  0  0  0
   25.2921  -22.8096  -11.8209 C   0  0  0  0  0  0  0  0  0  0  0  0
   24.6278  -21.5932  -12.0112 C   0  0  0  0  0  0  0  0  0  0  0  0
   24.9986  -20.3735  -11.2634 C   0  0  0  0  0  0  0  0  0  0  0  0
   26.4041  -19.9848  -11.6241 C   0  0  2  0  0  0  0  0  0  0  0  0
   26.5213  -19.7261  -13.0663 N   0  0  0  0  0  0  0  0  0  0  0  0
   27.4043  -20.9507  -11.1733 C   0  0  0  0  0  0  0  0  0  0  0  0
   27.4391  -21.2596   -9.7936 O   0  0  0  0  0  0  0  0  0  0  0  0
   23.5987  -21.6057  -12.9222 C   0  0  0  0  0  0  0  0  0  0  0  0
   23.2347  -22.7564  -13.6168 C   0  0  0  0  0  0  0  0  0  0  0  0
   28.2477  -21.5459  -11.8732 O   0  0  0  0  0  0  0  0  0  0  0  0
  2  1  1  6
  2  3  1  0
  4  3  1  0
  4  5  2  0
  6  5  1  0
  7  6  1  0
  8  7  2  0
  8  4  1  0
  9  2  1  0
 10  9  2  0
 12 11  1  6
 12 13  1  0
 12 14  1  0
 14 15  1  1
 15  9  1  0
 16 17  2  0
 16 14  1  0
 18 19  1  0
 19 29  2  0
 20 21  2  0
 20 19  1  0
 21 22  1  0
 22 23  1  0
 22 28  2  0
 24 23  1  6
 24 25  1  0
 25 16  1  0
 26 24  1  0
 27 26  1  0
 29 28  1  0
 30 26  2  0
M  END
$$$$
