HVY.pdb
     RDKit          3D

 30 31  0  0  1  0  0  0  0  0999 V2000
   17.3601  -14.0064  -15.3628 N   0  0  0  0  0  0  0  0  0  0  0  0
   17.4386  -12.6655  -15.8638 C   0  0  1  0  0  0  0  0  0  0  0  0
   16.1602  -11.9297  -15.4972 C   0  0  0  0  0  0  0  0  0  0  0  0
   15.0042  -12.4549  -16.2724 C   0  0  0  0  0  0  0  0  0  0  0  0
   14.8123  -13.7521  -16.7034 C   0  0  0  0  0  0  0  0  0  0  0  0
   13.6493  -13.8030  -17.3708 N   0  0  0  0  0  0  0  0  0  0  0  0
   13.1088  -12.5542  -17.3636 C   0  0  0  0  0  0  0  0  0  0  0  0
   13.9414  -11.7529  -16.6958 N   0  0  0  0  0  0  0  0  0  0  0  0
   18.6010  -11.9593  -15.1910 C   0  0  0  0  0  0  0  0  0  0  0  0
   18.6898  -11.9508  -13.9539 O   0  0  0  0  0  0  0  0  0  0  0  0
   23.2716  -10.4381  -15.7870 C   0  0  0  0  0  0  0  0  0  0  0  0
   22.0321  -11.2025  -16.1888 C   0  0  2  0  0  0  0  0  0  0  0  0
   22.0628  -11.3852  -17.6688 C   0  0  0  0  0  0  0  0  0  0  0  0
   20.7560  -10.6372  -15.6532 C   0  0  2  0  0  0  0  0  0  0  0  0
   19.5568  -11.3281  -15.9962 N   0  0  0  0  0  0  0  0  0  0  0  0
   20.6573   -9.1692  -15.7062 C   0  0  0  0  0  0  0  0  0  0  0  0
   20.1790   -8.6226  -16.7305 O   0  0  0  0  0  0  0  0  0  0  0  0
   20.3350   -0.5883  -14.1233 O   0  0  0  0  0  0  0  0  0  0  0  0
   20.5447   -1.9553  -13.9562 C   0  0  0  0  0  0  0  0  0  0  0  0
   21.7882   -2.5369  -13.9994 C   0  0  0  0  0  0  0  0  0  0  0  0
   21.9404   -3.8871  -13.8283 C   0  0  0  0  0  0  0  0  0  0  0  0
   20.8520   -4.7368  -13.6036 C   0  0  0  0  0  0  0  0  0  0  0  0
   21.0192   -6.1959  -13.4376 C   0  0  0  0  0  0  0  0  0  0  0  0
   21.0183   -6.8472  -14.7913 C   0  0  2  0  0  0  0  0  0  0  0  0
   21.0698   -8.3109  -14.6673 N   0  0  0  0  0  0  0  0  0  0  0  0
   22.0736   -6.3501  -15.6722 C   0  0  0  0  0  0  0  0  0  0  0  0
   21.6978   -5.4573  -16.7028 O   0  0  0  0  0  0  0  0  0  0  0  0
   19.6169   -4.1351  -13.5643 C   0  0  0  0  0  0  0  0  0  0  0  0
   19.4526   -2.7631  -13.7369 C   0  0  0  0  0  0  0  0  0  0  0  0
   23.2891   -6.6251  -15.6235 O   0  0  0  0  0  0  0  0  0  0  0  0
  2  1  1  1
  2  3  1  0
  4  3  1  0
  4  5  2  0
  6  5  1  0
  7  6  1  0
  8  7  2  0
  8  4  1  0
  9  2  1  0
 10  9  2  0
 12 11  1  6
 12 13  1  0
 12 14  1  0
 14 15  1  6
 15  9  1  0
 16 17  2  0
 16 14  1  0
 18 19  1  0
 19 29  2  0
 20 21  2  0
 20 19  1  0
 21 22  1  0
 22 23  1  0
 22 28  2  0
 24 23  1  1
 24 25  1  0
 25 16  1  0
 26 24  1  0
 27 26  1  0
 29 28  1  0
 30 26  2  0
M  END
$$$$
