LGF.pdb
     RDKit          3D

 24 24  0  0  1  0  0  0  0  0999 V2000
   20.7817  -22.6818  -15.9428 C   0  0  0  0  0  0  0  0  0  0  0  0
   21.4465  -21.3366  -16.1416 C   0  0  2  0  0  0  0  0  0  0  0  0
   21.2223  -20.8409  -17.5638 C   0  0  0  0  0  0  0  0  0  0  0  0
   22.9498  -21.4557  -15.8616 C   0  0  0  0  0  0  0  0  0  0  0  0
   23.0925  -21.7946  -14.3998 C   0  0  2  0  0  0  0  0  0  0  0  0
   22.1799  -20.9689  -13.6389 N   0  0  0  0  0  0  0  0  0  0  0  0
   24.4695  -21.6118  -13.9074 C   0  0  0  0  0  0  0  0  0  0  0  0
   25.3773  -22.3936  -14.2758 O   0  0  0  0  0  0  0  0  0  0  0  0
   24.7440  -20.5239  -13.0016 N   0  0  0  0  0  0  0  0  0  0  0  0
   26.0922  -20.2679  -12.5849 C   0  0  0  0  0  0  0  0  0  0  0  0
   26.4011  -20.6869  -11.2169 C   0  0  0  0  0  0  0  0  0  0  0  0
   26.3650  -21.9383  -10.9171 O   0  0  0  0  0  0  0  0  0  0  0  0
   26.7509  -19.8535  -10.1302 N   0  0  0  0  0  0  0  0  0  0  0  0
   27.0787  -20.3798   -8.8052 C   0  0  1  0  0  0  0  0  0  0  0  0
   27.9323  -19.3599   -8.1384 C   0  0  0  0  0  0  0  0  0  0  0  0
   28.2693  -19.6059   -6.7409 C   0  0  0  0  0  0  0  0  0  0  0  0
   29.1165  -20.5953   -6.2976 C   0  0  0  0  0  0  0  0  0  0  0  0
   29.3665  -20.7349   -4.9498 C   0  0  0  0  0  0  0  0  0  0  0  0
   28.7817  -19.8964   -4.0142 C   0  0  0  0  0  0  0  0  0  0  0  0
   27.9309  -18.9004   -4.4413 C   0  0  0  0  0  0  0  0  0  0  0  0
   27.6979  -18.7805   -5.7790 C   0  0  0  0  0  0  0  0  0  0  0  0
   25.8763  -20.6868   -8.0258 C   0  0  0  0  0  0  0  0  0  0  0  0
   25.8607  -21.6579   -7.0379 O   0  0  0  0  0  0  0  0  0  0  0  0
   24.8219  -20.0323   -8.2768 O   0  0  0  0  0  0  0  0  0  0  0  0
  2  3  1  6
  2  1  1  0
  4  2  1  0
  5  4  1  0
  5  6  1  1
  7  5  1  0
  7  8  2  0
  9  7  1  0
 10  9  1  0
 11 10  1  0
 12 11  2  0
 13 11  1  0
 14 13  1  0
 14 22  1  0
 14 15  1  1
 16 15  1  0
 16 21  2  0
 17 16  1  0
 18 17  2  0
 18 19  1  0
 19 20  2  0
 20 21  1  0
 22 23  1  0
 24 22  2  0
M  END
$$$$
