LGF.pdb
     RDKit          3D

 24 24  0  0  1  0  0  0  0  0999 V2000
   18.1994  -13.9012  -18.3950 C   0  0  0  0  0  0  0  0  0  0  0  0
   17.9264  -13.4163  -16.9873 C   0  0  2  0  0  0  0  0  0  0  0  0
   16.6668  -14.0716  -16.4372 C   0  0  0  0  0  0  0  0  0  0  0  0
   17.7635  -11.8913  -16.9877 C   0  0  0  0  0  0  0  0  0  0  0  0
   19.0114  -11.3225  -17.6132 C   0  0  2  0  0  0  0  0  0  0  0  0
   20.1372  -11.6092  -16.7506 N   0  0  0  0  0  0  0  0  0  0  0  0
   18.9150   -9.8715  -17.8525 C   0  0  0  0  0  0  0  0  0  0  0  0
   18.0937   -9.4260  -18.6880 O   0  0  0  0  0  0  0  0  0  0  0  0
   19.7787   -8.9868  -17.1105 N   0  0  0  0  0  0  0  0  0  0  0  0
   19.6290   -7.5670  -17.2466 C   0  0  0  0  0  0  0  0  0  0  0  0
   19.8891   -6.8033  -16.0252 C   0  0  0  0  0  0  0  0  0  0  0  0
   19.2169   -7.0690  -14.9600 O   0  0  0  0  0  0  0  0  0  0  0  0
   20.8291   -5.7611  -15.8572 N   0  0  0  0  0  0  0  0  0  0  0  0
   20.9884   -5.0374  -14.5960 C   0  0  1  0  0  0  0  0  0  0  0  0
   22.3194   -5.4164  -14.0498 C   0  0  0  0  0  0  0  0  0  0  0  0
   22.5616   -6.8414  -13.8557 C   0  0  0  0  0  0  0  0  0  0  0  0
   22.0936   -7.5825  -12.7950 C   0  0  0  0  0  0  0  0  0  0  0  0
   22.3815   -8.9275  -12.7143 C   0  0  0  0  0  0  0  0  0  0  0  0
   23.1393   -9.5652  -13.6836 C   0  0  0  0  0  0  0  0  0  0  0  0
   23.6157   -8.8378  -14.7524 C   0  0  0  0  0  0  0  0  0  0  0  0
   23.3187   -7.5088  -14.8120 C   0  0  0  0  0  0  0  0  0  0  0  0
   20.8591   -3.5889  -14.7765 C   0  0  0  0  0  0  0  0  0  0  0  0
   20.8312   -2.7079  -13.7078 O   0  0  0  0  0  0  0  0  0  0  0  0
   20.7703   -3.1425  -15.9580 O   0  0  0  0  0  0  0  0  0  0  0  0
  2  3  1  6
  2  1  1  0
  4  2  1  0
  5  4  1  0
  5  6  1  1
  7  5  1  0
  7  8  2  0
  9  7  1  0
 10  9  1  0
 11 10  1  0
 12 11  2  0
 13 11  1  0
 14 13  1  0
 14 22  1  0
 14 15  1  6
 16 15  1  0
 16 21  2  0
 17 16  1  0
 18 17  2  0
 18 19  1  0
 19 20  2  0
 20 21  1  0
 22 23  1  0
 24 22  2  0
M  END
$$$$
