LGF.pdb
     RDKit          3D

 24 24  0  0  1  0  0  0  0  0999 V2000
   33.3723  -26.9733  -22.2712 C   0  0  0  0  0  0  0  0  0  0  0  0
   31.9016  -26.9458  -22.6280 C   0  0  2  0  0  0  0  0  0  0  0  0
   31.7114  -27.2382  -24.1102 C   0  0  0  0  0  0  0  0  0  0  0  0
   31.3120  -25.5714  -22.2877 C   0  0  0  0  0  0  0  0  0  0  0  0
   31.3213  -25.4562  -20.7848 C   0  0  2  0  0  0  0  0  0  0  0  0
   30.8162  -26.6888  -20.2199 N   0  0  0  0  0  0  0  0  0  0  0  0
   30.5262  -24.3145  -20.2987 C   0  0  0  0  0  0  0  0  0  0  0  0
   30.6810  -23.1794  -20.8073 O   0  0  0  0  0  0  0  0  0  0  0  0
   29.5764  -24.5326  -19.2359 N   0  0  0  0  0  0  0  0  0  0  0  0
   28.7230  -23.4603  -18.8132 C   0  0  0  0  0  0  0  0  0  0  0  0
   27.4138  -23.8803  -18.3108 C   0  0  0  0  0  0  0  0  0  0  0  0
   26.6345  -24.5631  -19.0747 O   0  0  0  0  0  0  0  0  0  0  0  0
   26.8694  -23.6198  -17.0327 N   0  0  0  0  0  0  0  0  0  0  0  0
   25.5252  -24.0475  -16.6451 C   0  0  1  0  0  0  0  0  0  0  0  0
   25.6933  -25.0968  -15.6038 C   0  0  0  0  0  0  0  0  0  0  0  0
   26.3018  -26.3502  -16.0349 C   0  0  0  0  0  0  0  0  0  0  0  0
   25.6049  -27.4746  -16.4137 C   0  0  0  0  0  0  0  0  0  0  0  0
   26.2851  -28.6062  -16.8074 C   0  0  0  0  0  0  0  0  0  0  0  0
   27.6701  -28.6463  -16.8336 C   0  0  0  0  0  0  0  0  0  0  0  0
   28.3832  -27.5290  -16.4574 C   0  0  0  0  0  0  0  0  0  0  0  0
   27.6898  -26.4207  -16.0716 C   0  0  0  0  0  0  0  0  0  0  0  0
   24.7100  -22.9261  -16.1706 C   0  0  0  0  0  0  0  0  0  0  0  0
   23.3377  -23.0234  -16.0077 O   0  0  0  0  0  0  0  0  0  0  0  0
   25.2960  -21.8356  -15.9048 O   0  0  0  0  0  0  0  0  0  0  0  0
  2  3  1  6
  2  1  1  0
  4  2  1  0
  5  4  1  0
  5  6  1  1
  7  5  1  0
  7  8  2  0
  9  7  1  0
 10  9  1  0
 11 10  1  0
 12 11  2  0
 13 11  1  0
 14 13  1  0
 14 22  1  0
 14 15  1  1
 16 15  1  0
 16 21  2  0
 17 16  1  0
 18 17  2  0
 18 19  1  0
 19 20  2  0
 20 21  1  0
 22 23  1  0
 24 22  2  0
M  END
$$$$
