LGF.pdb
     RDKit          3D

 24 24  0  0  1  0  0  0  0  0999 V2000
   26.4620  -18.0188  -20.4152 C   0  0  0  0  0  0  0  0  0  0  0  0
   25.5407  -18.3520  -19.2614 C   0  0  2  0  0  0  0  0  0  0  0  0
   24.0979  -18.4292  -19.7420 C   0  0  0  0  0  0  0  0  0  0  0  0
   25.6704  -17.2824  -18.1699 C   0  0  0  0  0  0  0  0  0  0  0  0
   26.9691  -17.5502  -17.4532 C   0  0  2  0  0  0  0  0  0  0  0  0
   27.5408  -18.7760  -17.9673 N   0  0  0  0  0  0  0  0  0  0  0  0
   26.8013  -17.6448  -15.9921 C   0  0  0  0  0  0  0  0  0  0  0  0
   25.9932  -16.8896  -15.4025 O   0  0  0  0  0  0  0  0  0  0  0  0
   27.5807  -18.6164  -15.2655 N   0  0  0  0  0  0  0  0  0  0  0  0
   27.4804  -18.6840  -13.8364 C   0  0  0  0  0  0  0  0  0  0  0  0
   26.5880  -19.7296  -13.3334 C   0  0  0  0  0  0  0  0  0  0  0  0
   25.8649  -20.3955  -14.1646 O   0  0  0  0  0  0  0  0  0  0  0  0
   26.4098  -20.1209  -11.9869 N   0  0  0  0  0  0  0  0  0  0  0  0
   25.5587  -21.2451  -11.5975 C   0  0  1  0  0  0  0  0  0  0  0  0
   26.3063  -22.0103  -10.5636 C   0  0  0  0  0  0  0  0  0  0  0  0
   26.9203  -21.2314   -9.4943 C   0  0  0  0  0  0  0  0  0  0  0  0
   26.2615  -20.3098   -8.7133 C   0  0  0  0  0  0  0  0  0  0  0  0
   26.9425  -19.6316   -7.7260 C   0  0  0  0  0  0  0  0  0  0  0  0
   28.2904  -19.8534   -7.4928 C   0  0  0  0  0  0  0  0  0  0  0  0
   28.9651  -20.7730   -8.2658 C   0  0  0  0  0  0  0  0  0  0  0  0
   28.2717  -21.4322   -9.2367 C   0  0  0  0  0  0  0  0  0  0  0  0
   24.2499  -20.7982  -11.1131 C   0  0  0  0  0  0  0  0  0  0  0  0
   23.9770  -19.4693  -10.8327 O   0  0  0  0  0  0  0  0  0  0  0  0
   23.3467  -21.6705  -10.9498 O   0  0  0  0  0  0  0  0  0  0  0  0
  2  3  1  6
  2  1  1  0
  4  2  1  0
  5  4  1  0
  5  6  1  6
  7  5  1  0
  7  8  2  0
  9  7  1  0
 10  9  1  0
 11 10  1  0
 12 11  2  0
 13 11  1  0
 14 13  1  0
 14 22  1  0
 14 15  1  1
 16 15  1  0
 16 21  2  0
 17 16  1  0
 18 17  2  0
 18 19  1  0
 19 20  2  0
 20 21  1  0
 22 23  1  0
 24 22  2  0
M  END
$$$$
