LGF.pdb
     RDKit          3D

 24 24  0  0  1  0  0  0  0  0999 V2000
   26.1896  -17.2187  -16.8531 C   0  0  0  0  0  0  0  0  0  0  0  0
   27.0196  -16.5264  -15.7934 C   0  0  2  0  0  0  0  0  0  0  0  0
   27.9236  -15.4795  -16.4301 C   0  0  0  0  0  0  0  0  0  0  0  0
   27.8675  -17.5606  -15.0426 C   0  0  0  0  0  0  0  0  0  0  0  0
   26.9038  -18.4993  -14.3627 C   0  0  2  0  0  0  0  0  0  0  0  0
   26.1326  -17.7529  -13.3923 N   0  0  0  0  0  0  0  0  0  0  0  0
   27.5825  -19.6309  -13.7063 C   0  0  0  0  0  0  0  0  0  0  0  0
   28.0353  -20.5762  -14.3938 O   0  0  0  0  0  0  0  0  0  0  0  0
   27.7115  -19.6244  -12.2701 N   0  0  0  0  0  0  0  0  0  0  0  0
   28.3594  -20.7197  -11.6090 C   0  0  0  0  0  0  0  0  0  0  0  0
   27.7451  -21.1214  -10.3425 C   0  0  0  0  0  0  0  0  0  0  0  0
   27.7287  -22.3665  -10.0163 O   0  0  0  0  0  0  0  0  0  0  0  0
   27.1381  -20.2765   -9.3856 N   0  0  0  0  0  0  0  0  0  0  0  0
   26.2082  -20.7727   -8.3713 C   0  0  1  0  0  0  0  0  0  0  0  0
   26.2653  -19.8161   -7.2332 C   0  0  0  0  0  0  0  0  0  0  0  0
   27.3890  -19.9629   -6.3152 C   0  0  0  0  0  0  0  0  0  0  0  0
   27.7992  -21.1515   -5.7562 C   0  0  0  0  0  0  0  0  0  0  0  0
   28.8796  -21.1738   -4.9014 C   0  0  0  0  0  0  0  0  0  0  0  0
   29.5754  -20.0183   -4.5834 C   0  0  0  0  0  0  0  0  0  0  0  0
   29.1779  -18.8198   -5.1346 C   0  0  0  0  0  0  0  0  0  0  0  0
   28.1066  -18.8210   -5.9775 C   0  0  0  0  0  0  0  0  0  0  0  0
   24.8494  -20.9194   -8.9000 C   0  0  0  0  0  0  0  0  0  0  0  0
   23.8232  -21.4856   -8.1614 O   0  0  0  0  0  0  0  0  0  0  0  0
   24.6215  -20.5093  -10.0761 O   0  0  0  0  0  0  0  0  0  0  0  0
  2  3  1  6
  2  1  1  0
  4  2  1  0
  5  4  1  0
  5  6  1  1
  7  5  1  0
  7  8  2  0
  9  7  1  0
 10  9  1  0
 11 10  1  0
 12 11  2  0
 13 11  1  0
 14 13  1  0
 14 22  1  0
 14 15  1  1
 16 15  1  0
 16 21  2  0
 17 16  1  0
 18 17  2  0
 18 19  1  0
 19 20  2  0
 20 21  1  0
 22 23  1  0
 24 22  2  0
M  END
$$$$
