LGF.pdb
     RDKit          3D

 24 24  0  0  1  0  0  0  0  0999 V2000
   29.9074  -19.6089   -5.3979 C   0  0  0  0  0  0  0  0  0  0  0  0
   28.5626  -19.2467   -4.8049 C   0  0  2  0  0  0  0  0  0  0  0  0
   28.5908  -19.4101   -3.2913 C   0  0  0  0  0  0  0  0  0  0  0  0
   27.4733  -20.1434   -5.4062 C   0  0  0  0  0  0  0  0  0  0  0  0
   27.5570  -19.9825   -6.9026 C   0  0  2  0  0  0  0  0  0  0  0  0
   27.4163  -18.5799   -7.2289 N   0  0  0  0  0  0  0  0  0  0  0  0
   26.5370  -20.7719   -7.6156 C   0  0  0  0  0  0  0  0  0  0  0  0
   25.7436  -21.4994   -6.9734 O   0  0  0  0  0  0  0  0  0  0  0  0
   26.4746  -20.6881   -9.0538 N   0  0  0  0  0  0  0  0  0  0  0  0
   25.6075  -21.5690   -9.7809 C   0  0  0  0  0  0  0  0  0  0  0  0
   24.8188  -20.9235  -10.8316 C   0  0  0  0  0  0  0  0  0  0  0  0
   24.4429  -19.7019  -10.6776 O   0  0  0  0  0  0  0  0  0  0  0  0
   24.3966  -21.4970  -12.0525 N   0  0  0  0  0  0  0  0  0  0  0  0
   23.7833  -20.7115  -13.1233 C   0  0  1  0  0  0  0  0  0  0  0  0
   24.7432  -20.7139  -14.2600 C   0  0  0  0  0  0  0  0  0  0  0  0
   26.1123  -20.3131  -13.9568 C   0  0  0  0  0  0  0  0  0  0  0  0
   27.1525  -21.1815  -13.7176 C   0  0  0  0  0  0  0  0  0  0  0  0
   28.4103  -20.6904  -13.4434 C   0  0  0  0  0  0  0  0  0  0  0  0
   28.6625  -19.3284  -13.4008 C   0  0  0  0  0  0  0  0  0  0  0  0
   27.6321  -18.4451  -13.6380 C   0  0  0  0  0  0  0  0  0  0  0  0
   26.3961  -18.9529  -13.9072 C   0  0  0  0  0  0  0  0  0  0  0  0
   22.4723  -21.2412  -13.5082 C   0  0  0  0  0  0  0  0  0  0  0  0
   21.5595  -20.5011  -14.2419 O   0  0  0  0  0  0  0  0  0  0  0  0
   22.1783  -22.4193  -13.1491 O   0  0  0  0  0  0  0  0  0  0  0  0
  2  3  1  1
  2  1  1  0
  4  2  1  0
  5  4  1  0
  5  6  1  1
  7  5  1  0
  7  8  2  0
  9  7  1  0
 10  9  1  0
 11 10  1  0
 12 11  2  0
 13 11  1  0
 14 13  1  0
 14 22  1  0
 14 15  1  6
 16 15  1  0
 16 21  2  0
 17 16  1  0
 18 17  2  0
 18 19  1  0
 19 20  2  0
 20 21  1  0
 22 23  1  0
 24 22  2  0
M  END
$$$$
