LGF.pdb
     RDKit          3D

 24 24  0  0  1  0  0  0  0  0999 V2000
   24.0229  -17.4505  -17.8263 C   0  0  0  0  0  0  0  0  0  0  0  0
   24.3824  -16.5325  -16.6778 C   0  0  2  0  0  0  0  0  0  0  0  0
   24.3430  -15.0790  -17.1302 C   0  0  0  0  0  0  0  0  0  0  0  0
   25.7829  -16.8789  -16.1572 C   0  0  0  0  0  0  0  0  0  0  0  0
   25.6798  -18.2343  -15.5057 C   0  0  2  0  0  0  0  0  0  0  0  0
   24.2933  -18.4909  -15.1810 N   0  0  0  0  0  0  0  0  0  0  0  0
   26.5115  -18.3457  -14.2942 C   0  0  0  0  0  0  0  0  0  0  0  0
   27.7596  -18.2696  -14.3799 O   0  0  0  0  0  0  0  0  0  0  0  0
   25.8617  -18.5423  -13.0220 N   0  0  0  0  0  0  0  0  0  0  0  0
   26.6463  -18.5929  -11.8226 C   0  0  0  0  0  0  0  0  0  0  0  0
   26.3203  -19.7007  -10.9230 C   0  0  0  0  0  0  0  0  0  0  0  0
   25.4902  -20.6049  -11.3110 O   0  0  0  0  0  0  0  0  0  0  0  0
   26.8244  -19.9153   -9.6201 N   0  0  0  0  0  0  0  0  0  0  0  0
   26.5226  -21.1188   -8.8451 C   0  0  1  0  0  0  0  0  0  0  0  0
   27.6883  -21.3563   -7.9516 C   0  0  0  0  0  0  0  0  0  0  0  0
   27.7777  -20.5182   -6.7615 C   0  0  0  0  0  0  0  0  0  0  0  0
   27.4233  -20.9129   -5.4918 C   0  0  0  0  0  0  0  0  0  0  0  0
   27.5529  -20.0363   -4.4368 C   0  0  0  0  0  0  0  0  0  0  0  0
   28.0365  -18.7504   -4.6190 C   0  0  0  0  0  0  0  0  0  0  0  0
   28.3960  -18.3392   -5.8839 C   0  0  0  0  0  0  0  0  0  0  0  0
   28.2595  -19.2228   -6.9127 C   0  0  0  0  0  0  0  0  0  0  0  0
   25.2710  -20.9864   -8.0946 C   0  0  0  0  0  0  0  0  0  0  0  0
   24.6601  -22.0645   -7.4752 O   0  0  0  0  0  0  0  0  0  0  0  0
   24.7414  -19.8388   -8.0192 O   0  0  0  0  0  0  0  0  0  0  0  0
  2  3  1  6
  2  1  1  0
  4  2  1  0
  5  4  1  0
  5  6  1  1
  7  5  1  0
  7  8  2  0
  9  7  1  0
 10  9  1  0
 11 10  1  0
 12 11  2  0
 13 11  1  0
 14 13  1  0
 14 22  1  0
 14 15  1  1
 16 15  1  0
 16 21  2  0
 17 16  1  0
 18 17  2  0
 18 19  1  0
 19 20  2  0
 20 21  1  0
 22 23  1  0
 24 22  2  0
M  END
$$$$
