LGF.pdb
     RDKit          3D

 24 24  0  0  1  0  0  0  0  0999 V2000
   30.5160  -31.2578  -18.3336 C   0  0  0  0  0  0  0  0  0  0  0  0
   30.1579  -32.6349  -17.8176 C   0  0  2  0  0  0  0  0  0  0  0  0
   30.6301  -33.7045  -18.7932 C   0  0  0  0  0  0  0  0  0  0  0  0
   28.6396  -32.7372  -17.6262 C   0  0  0  0  0  0  0  0  0  0  0  0
   28.2501  -31.6460  -16.6621 C   0  0  2  0  0  0  0  0  0  0  0  0
   28.9983  -31.8189  -15.4358 N   0  0  0  0  0  0  0  0  0  0  0  0
   26.8047  -31.6329  -16.3745 C   0  0  0  0  0  0  0  0  0  0  0  0
   25.9799  -31.4915  -17.3077 O   0  0  0  0  0  0  0  0  0  0  0  0
   26.3673  -31.7849  -15.0089 N   0  0  0  0  0  0  0  0  0  0  0  0
   24.9657  -31.8609  -14.7150 C   0  0  0  0  0  0  0  0  0  0  0  0
   24.5566  -33.0621  -13.9852 C   0  0  0  0  0  0  0  0  0  0  0  0
   25.3406  -34.0828  -13.9606 O   0  0  0  0  0  0  0  0  0  0  0  0
   23.3530  -33.2543  -13.2696 N   0  0  0  0  0  0  0  0  0  0  0  0
   23.0681  -34.4763  -12.5177 C   0  0  1  0  0  0  0  0  0  0  0  0
   22.7695  -34.0600  -11.1209 C   0  0  0  0  0  0  0  0  0  0  0  0
   23.7961  -33.2785  -10.4409 C   0  0  0  0  0  0  0  0  0  0  0  0
   23.7159  -31.9296  -10.1809 C   0  0  0  0  0  0  0  0  0  0  0  0
   24.7473  -31.2919   -9.5267 C   0  0  0  0  0  0  0  0  0  0  0  0
   25.8792  -31.9785   -9.1169 C   0  0  0  0  0  0  0  0  0  0  0  0
   25.9755  -33.3295   -9.3694 C   0  0  0  0  0  0  0  0  0  0  0  0
   24.9436  -33.9399  -10.0178 C   0  0  0  0  0  0  0  0  0  0  0  0
   21.9679  -35.2402  -13.1120 C   0  0  0  0  0  0  0  0  0  0  0  0
   21.5937  -36.4889  -12.6431 O   0  0  0  0  0  0  0  0  0  0  0  0
   21.3471  -34.7268  -14.0889 O   0  0  0  0  0  0  0  0  0  0  0  0
  2  3  1  6
  2  1  1  0
  4  2  1  0
  5  4  1  0
  5  6  1  1
  7  5  1  0
  7  8  2  0
  9  7  1  0
 10  9  1  0
 11 10  1  0
 12 11  2  0
 13 11  1  0
 14 13  1  0
 14 22  1  0
 14 15  1  1
 16 15  1  0
 16 21  2  0
 17 16  1  0
 18 17  2  0
 18 19  1  0
 19 20  2  0
 20 21  1  0
 22 23  1  0
 24 22  2  0
M  END
$$$$
