LGF.pdb
     RDKit          3D

 24 24  0  0  1  0  0  0  0  0999 V2000
   23.0457  -20.5600  -17.9025 C   0  0  0  0  0  0  0  0  0  0  0  0
   23.7446  -19.2769  -17.5074 C   0  0  2  0  0  0  0  0  0  0  0  0
   24.1865  -18.5118  -18.7476 C   0  0  0  0  0  0  0  0  0  0  0  0
   24.9619  -19.5989  -16.6319 C   0  0  0  0  0  0  0  0  0  0  0  0
   24.4276  -20.0913  -15.3112 C   0  0  2  0  0  0  0  0  0  0  0  0
   23.3439  -19.2271  -14.8958 N   0  0  0  0  0  0  0  0  0  0  0  0
   25.4633  -20.1419  -14.2639 C   0  0  0  0  0  0  0  0  0  0  0  0
   26.4232  -20.9411  -14.3680 O   0  0  0  0  0  0  0  0  0  0  0  0
   25.3468  -19.2595  -13.1294 N   0  0  0  0  0  0  0  0  0  0  0  0
   26.3650  -19.2611  -12.1194 C   0  0  0  0  0  0  0  0  0  0  0  0
   26.1087  -20.1590  -10.9920 C   0  0  0  0  0  0  0  0  0  0  0  0
   25.0439  -20.8825  -10.9913 O   0  0  0  0  0  0  0  0  0  0  0  0
   26.9196  -20.3424   -9.8489 N   0  0  0  0  0  0  0  0  0  0  0  0
   26.5786  -21.2831   -8.7818 C   0  0  1  0  0  0  0  0  0  0  0  0
   27.8150  -21.4877   -7.9799 C   0  0  0  0  0  0  0  0  0  0  0  0
   28.0496  -20.5439   -6.8931 C   0  0  0  0  0  0  0  0  0  0  0  0
   27.3267  -19.3926   -6.6800 C   0  0  0  0  0  0  0  0  0  0  0  0
   27.6345  -18.5733   -5.6159 C   0  0  0  0  0  0  0  0  0  0  0  0
   28.6653  -18.8787   -4.7413 C   0  0  0  0  0  0  0  0  0  0  0  0
   29.3990  -20.0277   -4.9403 C   0  0  0  0  0  0  0  0  0  0  0  0
   29.0772  -20.8235   -5.9992 C   0  0  0  0  0  0  0  0  0  0  0  0
   25.4640  -20.7998   -7.9623 C   0  0  0  0  0  0  0  0  0  0  0  0
   24.7511  -21.6321   -7.1148 O   0  0  0  0  0  0  0  0  0  0  0  0
   25.1536  -19.5750   -8.0435 O   0  0  0  0  0  0  0  0  0  0  0  0
  2  3  1  6
  2  1  1  0
  4  2  1  0
  5  4  1  0
  5  6  1  1
  7  5  1  0
  7  8  2  0
  9  7  1  0
 10  9  1  0
 11 10  1  0
 12 11  2  0
 13 11  1  0
 14 13  1  0
 14 22  1  0
 14 15  1  1
 16 15  1  0
 16 21  2  0
 17 16  1  0
 18 17  2  0
 18 19  1  0
 19 20  2  0
 20 21  1  0
 22 23  1  0
 24 22  2  0
M  END
$$$$
