LGF.pdb
     RDKit          3D

 24 24  0  0  1  0  0  0  0  0999 V2000
   22.8826  -16.6836  -19.2992 C   0  0  0  0  0  0  0  0  0  0  0  0
   23.8818  -17.7381  -18.8742 C   0  0  2  0  0  0  0  0  0  0  0  0
   23.6385  -19.0345  -19.6351 C   0  0  0  0  0  0  0  0  0  0  0  0
   23.7606  -17.9880  -17.3659 C   0  0  0  0  0  0  0  0  0  0  0  0
   24.4094  -16.8138  -16.6788 C   0  0  2  0  0  0  0  0  0  0  0  0
   25.5169  -16.3539  -17.4884 N   0  0  0  0  0  0  0  0  0  0  0  0
   24.8780  -17.1400  -15.3201 C   0  0  0  0  0  0  0  0  0  0  0  0
   24.0596  -17.5074  -14.4447 O   0  0  0  0  0  0  0  0  0  0  0  0
   26.2851  -17.0274  -15.0256 N   0  0  0  0  0  0  0  0  0  0  0  0
   26.7919  -17.5168  -13.7764 C   0  0  0  0  0  0  0  0  0  0  0  0
   26.6581  -18.9618  -13.5845 C   0  0  0  0  0  0  0  0  0  0  0  0
   26.8253  -19.7496  -14.5887 O   0  0  0  0  0  0  0  0  0  0  0  0
   26.3541  -19.6356  -12.3797 N   0  0  0  0  0  0  0  0  0  0  0  0
   26.2836  -21.0938  -12.2868 C   0  0  1  0  0  0  0  0  0  0  0  0
   27.1323  -21.4908  -11.1311 C   0  0  0  0  0  0  0  0  0  0  0  0
   26.7367  -20.9755   -9.8254 C   0  0  0  0  0  0  0  0  0  0  0  0
   25.8316  -21.5780   -8.9822 C   0  0  0  0  0  0  0  0  0  0  0  0
   25.5343  -21.0023   -7.7662 C   0  0  0  0  0  0  0  0  0  0  0  0
   26.1284  -19.8175   -7.3615 C   0  0  0  0  0  0  0  0  0  0  0  0
   27.0370  -19.2012   -8.1938 C   0  0  0  0  0  0  0  0  0  0  0  0
   27.3161  -19.7883   -9.3919 C   0  0  0  0  0  0  0  0  0  0  0  0
   24.9039  -21.5667  -12.1453 C   0  0  0  0  0  0  0  0  0  0  0  0
   23.8375  -20.7006  -11.9668 O   0  0  0  0  0  0  0  0  0  0  0  0
   24.6957  -22.8149  -12.1895 O   0  0  0  0  0  0  0  0  0  0  0  0
  2  3  1  6
  2  1  1  0
  4  2  1  0
  5  4  1  0
  5  6  1  6
  7  5  1  0
  7  8  2  0
  9  7  1  0
 10  9  1  0
 11 10  1  0
 12 11  2  0
 13 11  1  0
 14 13  1  0
 14 22  1  0
 14 15  1  1
 16 15  1  0
 16 21  2  0
 17 16  1  0
 18 17  2  0
 18 19  1  0
 19 20  2  0
 20 21  1  0
 22 23  1  0
 24 22  2  0
M  END
$$$$
