LGF.pdb
     RDKit          3D

 24 24  0  0  1  0  0  0  0  0999 V2000
   21.3393  -20.6969  -15.3171 C   0  0  0  0  0  0  0  0  0  0  0  0
   22.0564  -19.6984  -14.4340 C   0  0  2  0  0  0  0  0  0  0  0  0
   21.0609  -18.7198  -13.8258 C   0  0  0  0  0  0  0  0  0  0  0  0
   23.1010  -18.9353  -15.2579 C   0  0  0  0  0  0  0  0  0  0  0  0
   24.3494  -19.7799  -15.2636 C   0  0  2  0  0  0  0  0  0  0  0  0
   23.9694  -21.1737  -15.1819 N   0  0  0  0  0  0  0  0  0  0  0  0
   25.2680  -19.4413  -14.1620 C   0  0  0  0  0  0  0  0  0  0  0  0
   25.7091  -18.2736  -14.0485 O   0  0  0  0  0  0  0  0  0  0  0  0
   25.6429  -20.4745  -13.2285 N   0  0  0  0  0  0  0  0  0  0  0  0
   26.4161  -20.1386  -12.0683 C   0  0  0  0  0  0  0  0  0  0  0  0
   25.9861  -20.7966  -10.8335 C   0  0  0  0  0  0  0  0  0  0  0  0
   24.9105  -21.5040  -10.8373 O   0  0  0  0  0  0  0  0  0  0  0  0
   26.6315  -20.7529   -9.5767 N   0  0  0  0  0  0  0  0  0  0  0  0
   26.1370  -21.4829   -8.4095 C   0  0  1  0  0  0  0  0  0  0  0  0
   27.3080  -21.7144   -7.5214 C   0  0  0  0  0  0  0  0  0  0  0  0
   27.6478  -20.6378   -6.5982 C   0  0  0  0  0  0  0  0  0  0  0  0
   27.0832  -20.4576   -5.3563 C   0  0  0  0  0  0  0  0  0  0  0  0
   27.4840  -19.4041   -4.5639 C   0  0  0  0  0  0  0  0  0  0  0  0
   28.4527  -18.5077   -4.9865 C   0  0  0  0  0  0  0  0  0  0  0  0
   29.0282  -18.6737   -6.2273 C   0  0  0  0  0  0  0  0  0  0  0  0
   28.6167  -19.7227   -6.9943 C   0  0  0  0  0  0  0  0  0  0  0  0
   25.0621  -20.7581   -7.7262 C   0  0  0  0  0  0  0  0  0  0  0  0
   24.8146  -19.4138   -7.9508 O   0  0  0  0  0  0  0  0  0  0  0  0
   24.3429  -21.3980   -6.9037 O   0  0  0  0  0  0  0  0  0  0  0  0
  2  3  1  6
  2  1  1  0
  4  2  1  0
  5  4  1  0
  5  6  1  1
  7  5  1  0
  7  8  2  0
  9  7  1  0
 10  9  1  0
 11 10  1  0
 12 11  2  0
 13 11  1  0
 14 13  1  0
 14 22  1  0
 14 15  1  1
 16 15  1  0
 16 21  2  0
 17 16  1  0
 18 17  2  0
 18 19  1  0
 19 20  2  0
 20 21  1  0
 22 23  1  0
 24 22  2  0
M  END
$$$$
