LGF.pdb
     RDKit          3D

 24 24  0  0  1  0  0  0  0  0999 V2000
   25.3332  -18.0348  -18.7822 C   0  0  0  0  0  0  0  0  0  0  0  0
   24.7665  -18.2238  -17.3915 C   0  0  2  0  0  0  0  0  0  0  0  0
   23.4429  -17.4837  -17.2547 C   0  0  0  0  0  0  0  0  0  0  0  0
   25.7653  -17.7032  -16.3504 C   0  0  0  0  0  0  0  0  0  0  0  0
   26.8782  -18.7168  -16.2732 C   0  0  2  0  0  0  0  0  0  0  0  0
   26.3827  -19.9901  -16.7493 N   0  0  0  0  0  0  0  0  0  0  0  0
   27.4185  -18.8628  -14.9097 C   0  0  0  0  0  0  0  0  0  0  0  0
   27.6912  -17.8456  -14.2300 O   0  0  0  0  0  0  0  0  0  0  0  0
   27.6233  -20.1892  -14.3827 N   0  0  0  0  0  0  0  0  0  0  0  0
   28.0430  -20.3571  -13.0217 C   0  0  0  0  0  0  0  0  0  0  0  0
   26.9687  -20.6932  -12.0859 C   0  0  0  0  0  0  0  0  0  0  0  0
   25.7473  -20.6662  -12.4917 O   0  0  0  0  0  0  0  0  0  0  0  0
   27.1071  -21.0615  -10.7283 N   0  0  0  0  0  0  0  0  0  0  0  0
   25.9613  -21.3757   -9.8749 C   0  0  1  0  0  0  0  0  0  0  0  0
   26.5116  -21.8728   -8.5851 C   0  0  0  0  0  0  0  0  0  0  0  0
   27.3822  -20.9596   -7.8536 C   0  0  0  0  0  0  0  0  0  0  0  0
   28.7566  -20.9589   -7.9200 C   0  0  0  0  0  0  0  0  0  0  0  0
   29.4810  -20.0455   -7.1858 C   0  0  0  0  0  0  0  0  0  0  0  0
   28.8577  -19.1141   -6.3706 C   0  0  0  0  0  0  0  0  0  0  0  0
   27.4822  -19.1011   -6.2927 C   0  0  0  0  0  0  0  0  0  0  0  0
   26.7856  -20.0136   -7.0276 C   0  0  0  0  0  0  0  0  0  0  0  0
   25.0835  -20.2170   -9.6894 C   0  0  0  0  0  0  0  0  0  0  0  0
   23.7419  -20.3466   -9.3694 O   0  0  0  0  0  0  0  0  0  0  0  0
   25.5846  -19.0628   -9.8305 O   0  0  0  0  0  0  0  0  0  0  0  0
  2  3  1  6
  2  1  1  0
  4  2  1  0
  5  4  1  0
  5  6  1  1
  7  5  1  0
  7  8  2  0
  9  7  1  0
 10  9  1  0
 11 10  1  0
 12 11  2  0
 13 11  1  0
 14 13  1  0
 14 22  1  0
 14 15  1  1
 16 15  1  0
 16 21  2  0
 17 16  1  0
 18 17  2  0
 18 19  1  0
 19 20  2  0
 20 21  1  0
 22 23  1  0
 24 22  2  0
M  END
$$$$
