VYN.pdb
     RDKit          3D

 28 28  0  0  1  0  0  0  0  0999 V2000
   27.9125  -18.1677  -18.5534 C   0  0  0  0  0  0  0  0  0  0  0  0
   26.9577  -17.7439  -17.4875 C   0  0  2  0  0  0  0  0  0  0  0  0
   27.6325  -16.8692  -16.4567 C   0  0  0  0  0  0  0  0  0  0  0  0
   26.2788  -18.9382  -16.8663 C   0  0  2  0  0  0  0  0  0  0  0  0
   25.7090  -19.7179  -17.9494 N   0  0  0  0  0  0  0  0  0  0  0  0
   25.1703  -18.5485  -15.9628 C   0  0  0  0  0  0  0  0  0  0  0  0
   25.4146  -17.9483  -14.8631 O   0  0  0  0  0  0  0  0  0  0  0  0
   25.0240  -12.3954  -17.0489 O   0  0  0  0  0  0  0  0  0  0  0  0
   24.3072  -13.5779  -16.8333 C   0  0  0  0  0  0  0  0  0  0  0  0
   23.7221  -13.8656  -15.6222 C   0  0  0  0  0  0  0  0  0  0  0  0
   23.0152  -15.0510  -15.4391 C   0  0  0  0  0  0  0  0  0  0  0  0
   22.8688  -15.9774  -16.4429 C   0  0  0  0  0  0  0  0  0  0  0  0
   22.1209  -17.1989  -16.2377 C   0  0  0  0  0  0  0  0  0  0  0  0
   22.6953  -18.2923  -15.4383 C   0  0  2  0  0  0  0  0  0  0  0  0
   23.8306  -18.8106  -16.2585 N   0  0  0  0  0  0  0  0  0  0  0  0
   21.8405  -19.4490  -15.1572 C   0  0  0  0  0  0  0  0  0  0  0  0
   21.6516  -20.3815  -16.0167 O   0  0  0  0  0  0  0  0  0  0  0  0
   23.4688  -15.6698  -17.6651 C   0  0  0  0  0  0  0  0  0  0  0  0
   24.1689  -14.4959  -17.8458 C   0  0  0  0  0  0  0  0  0  0  0  0
   18.6276  -22.8532  -13.0744 N   0  0  0  0  0  0  0  0  0  0  0  0
   19.1747  -22.1540  -11.9679 C   0  0  0  0  0  0  0  0  0  0  0  0
   18.8441  -22.5225  -10.8180 O   0  0  0  0  0  0  0  0  0  0  0  0
   20.1012  -21.0332  -12.2339 C   0  0  0  0  0  0  0  0  0  0  0  0
   20.2830  -20.7546  -13.7216 C   0  0  2  0  0  0  0  0  0  0  0  0
   21.1732  -19.6176  -13.9182 N   0  0  0  0  0  0  0  0  0  0  0  0
   18.9622  -20.5102  -14.3100 C   0  0  0  0  0  0  0  0  0  0  0  0
   18.3942  -21.4856  -14.9051 O   0  0  0  0  0  0  0  0  0  0  0  0
   18.3642  -19.2775  -14.2204 O   0  0  0  0  0  0  0  0  0  0  0  0
  2  1  1  6
  2  3  1  0
  4  2  1  0
  4  5  1  6
  6  4  1  0
  6  7  2  0
  8  9  1  0
  9 10  2  0
 10 11  1  0
 12 13  1  0
 12 11  2  0
 14 13  1  6
 14 15  1  0
 15  6  1  0
 16 14  1  0
 17 16  2  0
 18 12  1  0
 19 18  2  0
 19  9  1  0
 20 21  1  0
 21 22  2  0
 21 23  1  0
 24 23  1  1
 24 25  1  0
 24 26  1  0
 25 16  1  0
 26 28  1  0
 27 26  2  0
M  END
$$$$
