VYN.pdb
     RDKit          3D

 28 28  0  0  1  0  0  0  0  0999 V2000
   26.2068  -20.0086  -19.1845 C   0  0  0  0  0  0  0  0  0  0  0  0
   27.3601  -19.1700  -18.7439 C   0  0  2  0  0  0  0  0  0  0  0  0
   28.0213  -18.4805  -19.9144 C   0  0  0  0  0  0  0  0  0  0  0  0
   28.3380  -19.9820  -17.9330 C   0  0  2  0  0  0  0  0  0  0  0  0
   28.8582  -21.0197  -18.8038 N   0  0  0  0  0  0  0  0  0  0  0  0
   27.6933  -20.6485  -16.7766 C   0  0  0  0  0  0  0  0  0  0  0  0
   27.3929  -21.8879  -16.8310 O   0  0  0  0  0  0  0  0  0  0  0  0
   25.1151  -20.7700   -8.0977 O   0  0  0  0  0  0  0  0  0  0  0  0
   25.6818  -20.5986   -9.3658 C   0  0  0  0  0  0  0  0  0  0  0  0
   26.4274  -21.5834   -9.9707 C   0  0  0  0  0  0  0  0  0  0  0  0
   26.9781  -21.3823  -11.2335 C   0  0  0  0  0  0  0  0  0  0  0  0
   26.8067  -20.2090  -11.9275 C   0  0  0  0  0  0  0  0  0  0  0  0
   27.3772  -20.0220  -13.2440 C   0  0  0  0  0  0  0  0  0  0  0  0
   26.7368  -20.6305  -14.4205 C   0  0  2  0  0  0  0  0  0  0  0  0
   27.3871  -19.9728  -15.5931 N   0  0  0  0  0  0  0  0  0  0  0  0
   25.2959  -20.4247  -14.5913 C   0  0  0  0  0  0  0  0  0  0  0  0
   24.8135  -19.3271  -15.0458 O   0  0  0  0  0  0  0  0  0  0  0  0
   26.0477  -19.2203  -11.2991 C   0  0  0  0  0  0  0  0  0  0  0  0
   25.5028  -19.4200  -10.0485 C   0  0  0  0  0  0  0  0  0  0  0  0
   19.7365  -23.1607  -14.3322 N   0  0  0  0  0  0  0  0  0  0  0  0
   20.6504  -22.1111  -14.6069 C   0  0  0  0  0  0  0  0  0  0  0  0
   20.1855  -21.0075  -14.9722 O   0  0  0  0  0  0  0  0  0  0  0  0
   22.0955  -22.3783  -14.4470 C   0  0  0  0  0  0  0  0  0  0  0  0
   22.9208  -21.1053  -14.2970 C   0  0  2  0  0  0  0  0  0  0  0  0
   24.3426  -21.4241  -14.2732 N   0  0  0  0  0  0  0  0  0  0  0  0
   22.5022  -20.4264  -13.0664 C   0  0  0  0  0  0  0  0  0  0  0  0
   22.9356  -20.8933  -11.9609 O   0  0  0  0  0  0  0  0  0  0  0  0
   21.6761  -19.3304  -13.1082 O   0  0  0  0  0  0  0  0  0  0  0  0
  2  1  1  6
  2  3  1  0
  4  2  1  0
  4  5  1  6
  6  4  1  0
  6  7  2  0
  8  9  1  0
  9 10  2  0
 10 11  1  0
 12 13  1  0
 12 11  2  0
 14 13  1  1
 14 15  1  0
 15  6  1  0
 16 14  1  0
 17 16  2  0
 18 12  1  0
 19 18  2  0
 19  9  1  0
 20 21  1  0
 21 22  2  0
 21 23  1  0
 24 23  1  1
 24 25  1  0
 24 26  1  0
 25 16  1  0
 26 28  1  0
 27 26  2  0
M  END
$$$$
