VYN.pdb
     RDKit          3D

 28 28  0  0  1  0  0  0  0  0999 V2000
   27.6857  -18.2514  -15.2688 C   0  0  0  0  0  0  0  0  0  0  0  0
   28.4825  -19.2834  -15.9950 C   0  0  2  0  0  0  0  0  0  0  0  0
   29.1730  -18.6984  -17.2049 C   0  0  0  0  0  0  0  0  0  0  0  0
   27.6284  -20.4753  -16.3459 C   0  0  2  0  0  0  0  0  0  0  0  0
   26.6640  -20.0339  -17.3362 N   0  0  0  0  0  0  0  0  0  0  0  0
   26.8709  -20.9877  -15.1795 C   0  0  0  0  0  0  0  0  0  0  0  0
   27.4564  -21.6863  -14.2859 O   0  0  0  0  0  0  0  0  0  0  0  0
   25.6426  -20.7988   -7.3239 O   0  0  0  0  0  0  0  0  0  0  0  0
   25.4540  -20.6025   -8.6966 C   0  0  0  0  0  0  0  0  0  0  0  0
   26.4906  -20.6953   -9.5958 C   0  0  0  0  0  0  0  0  0  0  0  0
   26.2706  -20.4945  -10.9559 C   0  0  0  0  0  0  0  0  0  0  0  0
   25.0271  -20.1989  -11.4596 C   0  0  0  0  0  0  0  0  0  0  0  0
   24.8152  -20.0047  -12.8777 C   0  0  0  0  0  0  0  0  0  0  0  0
   24.7539  -21.1637  -13.7818 C   0  0  2  0  0  0  0  0  0  0  0  0
   25.5082  -20.7399  -14.9991 N   0  0  0  0  0  0  0  0  0  0  0  0
   23.4326  -21.5870  -14.2538 C   0  0  0  0  0  0  0  0  0  0  0  0
   22.8613  -21.0384  -15.2621 O   0  0  0  0  0  0  0  0  0  0  0  0
   23.9867  -20.1083  -10.5334 C   0  0  0  0  0  0  0  0  0  0  0  0
   24.2051  -20.3070   -9.1867 C   0  0  0  0  0  0  0  0  0  0  0  0
   18.9888  -23.9691  -15.0700 N   0  0  0  0  0  0  0  0  0  0  0  0
   19.6875  -24.8301  -14.1853 C   0  0  0  0  0  0  0  0  0  0  0  0
   19.1576  -25.9254  -13.8903 O   0  0  0  0  0  0  0  0  0  0  0  0
   20.9976  -24.3873  -13.6629 C   0  0  0  0  0  0  0  0  0  0  0  0
   21.3796  -22.9873  -14.1298 C   0  0  2  0  0  0  0  0  0  0  0  0
   22.7031  -22.6322  -13.6340 N   0  0  0  0  0  0  0  0  0  0  0  0
   20.3586  -22.0479  -13.6548 C   0  0  0  0  0  0  0  0  0  0  0  0
   20.6634  -21.2974  -12.6689 O   0  0  0  0  0  0  0  0  0  0  0  0
   19.1241  -21.9822  -14.2522 O   0  0  0  0  0  0  0  0  0  0  0  0
  2  1  1  6
  2  3  1  0
  4  2  1  0
  4  5  1  6
  6  4  1  0
  6  7  2  0
  8  9  1  0
  9 10  2  0
 10 11  1  0
 12 13  1  0
 12 11  2  0
 14 13  1  1
 14 15  1  0
 15  6  1  0
 16 14  1  0
 17 16  2  0
 18 12  1  0
 19 18  2  0
 19  9  1  0
 20 21  1  0
 21 22  2  0
 21 23  1  0
 24 23  1  1
 24 25  1  0
 24 26  1  0
 25 16  1  0
 26 28  1  0
 27 26  2  0
M  END
$$$$
