VYN.pdb
     RDKit          3D

 28 28  0  0  1  0  0  0  0  0999 V2000
   26.0085  -19.7088  -19.2530 C   0  0  0  0  0  0  0  0  0  0  0  0
   27.1319  -18.8449  -18.7850 C   0  0  2  0  0  0  0  0  0  0  0  0
   27.8279  -18.1678  -19.9425 C   0  0  0  0  0  0  0  0  0  0  0  0
   28.0893  -19.6267  -17.9216 C   0  0  2  0  0  0  0  0  0  0  0  0
   28.6849  -20.6496  -18.7609 N   0  0  0  0  0  0  0  0  0  0  0  0
   27.4046  -20.3105  -16.7988 C   0  0  0  0  0  0  0  0  0  0  0  0
   27.1020  -21.5476  -16.8846 O   0  0  0  0  0  0  0  0  0  0  0  0
   25.1364  -20.9971   -8.0799 O   0  0  0  0  0  0  0  0  0  0  0  0
   25.6081  -20.7033   -9.3643 C   0  0  0  0  0  0  0  0  0  0  0  0
   24.9982  -19.7697  -10.1694 C   0  0  0  0  0  0  0  0  0  0  0  0
   25.4917  -19.4997  -11.4430 C   0  0  0  0  0  0  0  0  0  0  0  0
   26.5950  -20.1418  -11.9508 C   0  0  0  0  0  0  0  0  0  0  0  0
   27.1005  -19.8401  -13.2725 C   0  0  0  0  0  0  0  0  0  0  0  0
   26.3955  -20.3360  -14.4648 C   0  0  2  0  0  0  0  0  0  0  0  0
   27.0616  -19.6541  -15.6145 N   0  0  0  0  0  0  0  0  0  0  0  0
   24.9679  -20.0280  -14.5861 C   0  0  0  0  0  0  0  0  0  0  0  0
   24.5469  -18.9672  -15.1704 O   0  0  0  0  0  0  0  0  0  0  0  0
   27.2015  -21.0862  -11.1209 C   0  0  0  0  0  0  0  0  0  0  0  0
   26.7123  -21.3532   -9.8599 C   0  0  0  0  0  0  0  0  0  0  0  0
   20.5340  -18.7025  -16.6967 N   0  0  0  0  0  0  0  0  0  0  0  0
   20.8181  -19.8215  -15.8726 C   0  0  0  0  0  0  0  0  0  0  0  0
   19.8540  -20.4330  -15.3586 O   0  0  0  0  0  0  0  0  0  0  0  0
   22.2320  -20.2018  -15.6676 C   0  0  0  0  0  0  0  0  0  0  0  0
   22.5566  -20.5144  -14.2113 C   0  0  2  0  0  0  0  0  0  0  0  0
   23.9599  -20.8825  -14.0737 N   0  0  0  0  0  0  0  0  0  0  0  0
   21.6719  -21.5945  -13.7629 C   0  0  0  0  0  0  0  0  0  0  0  0
   20.4235  -21.3405  -13.6917 O   0  0  0  0  0  0  0  0  0  0  0  0
   22.1730  -22.8299  -13.4344 O   0  0  0  0  0  0  0  0  0  0  0  0
  2  1  1  6
  2  3  1  0
  4  2  1  0
  4  5  1  6
  6  4  1  0
  6  7  2  0
  8  9  1  0
  9 10  2  0
 10 11  1  0
 12 13  1  0
 12 11  2  0
 14 13  1  1
 14 15  1  0
 15  6  1  0
 16 14  1  0
 17 16  2  0
 18 12  1  0
 19 18  2  0
 19  9  1  0
 20 21  1  0
 21 22  2  0
 21 23  1  0
 24 23  1  6
 24 25  1  0
 24 26  1  0
 25 16  1  0
 26 28  1  0
 27 26  2  0
M  END
$$$$
