VYN.pdb
     RDKit          3D

 28 28  0  0  1  0  0  0  0  0999 V2000
   28.3750  -23.9444  -19.6190 C   0  0  0  0  0  0  0  0  0  0  0  0
   27.9693  -23.6211  -18.2196 C   0  0  2  0  0  0  0  0  0  0  0  0
   27.8751  -22.1290  -18.0020 C   0  0  0  0  0  0  0  0  0  0  0  0
   28.8871  -24.2862  -17.2253 C   0  0  2  0  0  0  0  0  0  0  0  0
   30.2107  -23.7253  -17.4228 N   0  0  0  0  0  0  0  0  0  0  0  0
   28.9835  -25.7497  -17.4399 C   0  0  0  0  0  0  0  0  0  0  0  0
   29.9521  -26.2413  -18.1103 O   0  0  0  0  0  0  0  0  0  0  0  0
   27.3437  -34.2651  -14.9864 O   0  0  0  0  0  0  0  0  0  0  0  0
   27.4619  -32.8836  -15.1760 C   0  0  0  0  0  0  0  0  0  0  0  0
   28.6624  -32.2908  -15.4911 C   0  0  0  0  0  0  0  0  0  0  0  0
   28.7475  -30.9131  -15.6735 C   0  0  0  0  0  0  0  0  0  0  0  0
   27.6542  -30.0904  -15.5502 C   0  0  0  0  0  0  0  0  0  0  0  0
   27.7594  -28.6618  -15.7545 C   0  0  0  0  0  0  0  0  0  0  0  0
   28.1740  -28.1305  -17.0623 C   0  0  2  0  0  0  0  0  0  0  0  0
   28.0426  -26.6485  -16.9324 N   0  0  0  0  0  0  0  0  0  0  0  0
   27.3737  -28.5048  -18.2315 C   0  0  0  0  0  0  0  0  0  0  0  0
   26.2857  -27.8980  -18.5351 O   0  0  0  0  0  0  0  0  0  0  0  0
   26.4442  -30.7082  -15.2299 C   0  0  0  0  0  0  0  0  0  0  0  0
   26.3605  -32.0725  -15.0492 C   0  0  0  0  0  0  0  0  0  0  0  0
   27.4946  -31.8767  -23.4513 N   0  0  0  0  0  0  0  0  0  0  0  0
   26.9227  -31.0093  -22.4854 C   0  0  0  0  0  0  0  0  0  0  0  0
   25.7936  -30.5247  -22.7258 O   0  0  0  0  0  0  0  0  0  0  0  0
   27.6894  -30.7273  -21.2533 C   0  0  0  0  0  0  0  0  0  0  0  0
   26.9109  -29.8829  -20.2508 C   0  0  2  0  0  0  0  0  0  0  0  0
   27.7508  -29.5543  -19.1062 N   0  0  0  0  0  0  0  0  0  0  0  0
   25.7183  -30.6329  -19.8437 C   0  0  0  0  0  0  0  0  0  0  0  0
   25.8253  -31.4037  -18.8326 O   0  0  0  0  0  0  0  0  0  0  0  0
   24.5344  -30.5059  -20.5276 O   0  0  0  0  0  0  0  0  0  0  0  0
  2  1  1  6
  2  3  1  0
  4  2  1  0
  4  5  1  6
  6  4  1  0
  6  7  2  0
  8  9  1  0
  9 10  2  0
 10 11  1  0
 12 13  1  0
 12 11  2  0
 14 13  1  1
 14 15  1  0
 15  6  1  0
 16 14  1  0
 17 16  2  0
 18 12  1  0
 19 18  2  0
 19  9  1  0
 20 21  1  0
 21 22  2  0
 21 23  1  0
 24 23  1  6
 24 25  1  0
 24 26  1  0
 25 16  1  0
 26 28  1  0
 27 26  2  0
M  END
$$$$
