VYN.pdb
     RDKit          3D

 28 28  0  0  1  0  0  0  0  0999 V2000
   24.4969  -12.1282  -15.4240 C   0  0  0  0  0  0  0  0  0  0  0  0
   23.0568  -12.5200  -15.4140 C   0  0  2  0  0  0  0  0  0  0  0  0
   22.8851  -14.0013  -15.6571 C   0  0  0  0  0  0  0  0  0  0  0  0
   22.2648  -11.6860  -16.3890 C   0  0  2  0  0  0  0  0  0  0  0  0
   22.7797  -11.9732  -17.7148 N   0  0  0  0  0  0  0  0  0  0  0  0
   22.4290  -10.2325  -16.1493 C   0  0  0  0  0  0  0  0  0  0  0  0
   23.2285   -9.5458  -16.8694 O   0  0  0  0  0  0  0  0  0  0  0  0
   20.1663   -1.9439  -16.4473 O   0  0  0  0  0  0  0  0  0  0  0  0
   20.4690   -3.3089  -16.3867 C   0  0  0  0  0  0  0  0  0  0  0  0
   21.7593   -3.7644  -16.2475 C   0  0  0  0  0  0  0  0  0  0  0  0
   22.0279   -5.1294  -16.1903 C   0  0  0  0  0  0  0  0  0  0  0  0
   21.0336   -6.0741  -16.2683 C   0  0  0  0  0  0  0  0  0  0  0  0
   21.3305   -7.4884  -16.1956 C   0  0  0  0  0  0  0  0  0  0  0  0
   21.8308   -8.0755  -14.9428 C   0  0  2  0  0  0  0  0  0  0  0  0
   21.7345   -9.5518  -15.1467 N   0  0  0  0  0  0  0  0  0  0  0  0
   21.0853   -7.7891  -13.7140 C   0  0  0  0  0  0  0  0  0  0  0  0
   20.0465   -8.4600  -13.3753 O   0  0  0  0  0  0  0  0  0  0  0  0
   19.7302   -5.5947  -16.4094 C   0  0  0  0  0  0  0  0  0  0  0  0
   19.4648   -4.2430  -16.4663 C   0  0  0  0  0  0  0  0  0  0  0  0
   19.3611   -5.9879   -9.2626 N   0  0  0  0  0  0  0  0  0  0  0  0
   20.7772   -6.0142   -9.1834 C   0  0  0  0  0  0  0  0  0  0  0  0
   21.3079   -5.7948   -8.0709 O   0  0  0  0  0  0  0  0  0  0  0  0
   21.5443   -6.2983  -10.4148 C   0  0  0  0  0  0  0  0  0  0  0  0
   20.6537   -6.4880  -11.6375 C   0  0  2  0  0  0  0  0  0  0  0  0
   21.4652   -6.7596  -12.8171 N   0  0  0  0  0  0  0  0  0  0  0  0
   19.8435   -5.2779  -11.8103 C   0  0  0  0  0  0  0  0  0  0  0  0
   20.4055   -4.2659  -12.3471 O   0  0  0  0  0  0  0  0  0  0  0  0
   18.5310   -5.2413  -11.4088 O   0  0  0  0  0  0  0  0  0  0  0  0
  2  1  1  6
  2  3  1  0
  4  2  1  0
  4  5  1  6
  6  4  1  0
  6  7  2  0
  8  9  1  0
  9 10  2  0
 10 11  1  0
 12 13  1  0
 12 11  2  0
 14 13  1  6
 14 15  1  0
 15  6  1  0
 16 14  1  0
 17 16  2  0
 18 12  1  0
 19 18  2  0
 19  9  1  0
 20 21  1  0
 21 22  2  0
 21 23  1  0
 24 23  1  1
 24 25  1  0
 24 26  1  0
 25 16  1  0
 26 28  1  0
 27 26  2  0
M  END
$$$$
