VYN.pdb
     RDKit          3D

 28 28  0  0  1  0  0  0  0  0999 V2000
   27.9544  -17.4033  -19.9220 C   0  0  0  0  0  0  0  0  0  0  0  0
   29.0103  -18.4497  -19.7897 C   0  0  2  0  0  0  0  0  0  0  0  0
   29.2886  -19.1248  -21.1124 C   0  0  0  0  0  0  0  0  0  0  0  0
   28.6566  -19.4383  -18.7076 C   0  0  2  0  0  0  0  0  0  0  0  0
   27.4622  -20.1387  -19.1416 N   0  0  0  0  0  0  0  0  0  0  0  0
   28.3443  -18.7748  -17.4194 C   0  0  0  0  0  0  0  0  0  0  0  0
   29.2311  -18.0794  -16.8199 O   0  0  0  0  0  0  0  0  0  0  0  0
   21.0363  -17.8153  -18.6907 O   0  0  0  0  0  0  0  0  0  0  0  0
   22.2514  -17.6229  -18.0238 C   0  0  0  0  0  0  0  0  0  0  0  0
   23.4369  -17.4568  -18.7011 C   0  0  0  0  0  0  0  0  0  0  0  0
   24.6297  -17.2673  -18.0085 C   0  0  0  0  0  0  0  0  0  0  0  0
   24.6813  -17.2368  -16.6360 C   0  0  0  0  0  0  0  0  0  0  0  0
   25.9286  -17.0275  -15.9333 C   0  0  0  0  0  0  0  0  0  0  0  0
   26.7518  -18.1779  -15.5290 C   0  0  2  0  0  0  0  0  0  0  0  0
   27.0930  -18.8721  -16.8065 N   0  0  0  0  0  0  0  0  0  0  0  0
   26.1279  -19.1916  -14.6741 C   0  0  0  0  0  0  0  0  0  0  0  0
   25.5563  -20.2326  -15.1574 O   0  0  0  0  0  0  0  0  0  0  0  0
   23.4695  -17.4072  -15.9644 C   0  0  0  0  0  0  0  0  0  0  0  0
   22.2887  -17.5950  -16.6508 C   0  0  0  0  0  0  0  0  0  0  0  0
   25.7450  -21.6422   -9.2767 N   0  0  0  0  0  0  0  0  0  0  0  0
   24.9509  -20.8195  -10.1163 C   0  0  0  0  0  0  0  0  0  0  0  0
   23.7087  -20.9732  -10.0852 O   0  0  0  0  0  0  0  0  0  0  0  0
   25.6322  -19.8302  -10.9780 C   0  0  0  0  0  0  0  0  0  0  0  0
   25.4494  -20.1133  -12.4647 C   0  0  2  0  0  0  0  0  0  0  0  0
   26.1206  -19.0933  -13.2602 N   0  0  0  0  0  0  0  0  0  0  0  0
   24.0121  -20.1587  -12.7524 C   0  0  0  0  0  0  0  0  0  0  0  0
   23.4411  -21.2992  -12.7163 O   0  0  0  0  0  0  0  0  0  0  0  0
   23.3127  -19.0148  -13.0478 O   0  0  0  0  0  0  0  0  0  0  0  0
  2  1  1  6
  2  3  1  0
  4  2  1  0
  4  5  1  6
  6  4  1  0
  6  7  2  0
  8  9  1  0
  9 10  2  0
 10 11  1  0
 12 13  1  0
 12 11  2  0
 14 13  1  6
 14 15  1  0
 15  6  1  0
 16 14  1  0
 17 16  2  0
 18 12  1  0
 19 18  2  0
 19  9  1  0
 20 21  1  0
 21 22  2  0
 21 23  1  0
 24 23  1  1
 24 25  1  0
 24 26  1  0
 25 16  1  0
 26 28  1  0
 27 26  2  0
M  END
$$$$
