VYN.pdb
     RDKit          3D

 28 28  0  0  1  0  0  0  0  0999 V2000
   27.1697  -20.6901  -17.7989 C   0  0  0  0  0  0  0  0  0  0  0  0
   27.1092  -19.4844  -16.9214 C   0  0  2  0  0  0  0  0  0  0  0  0
   28.4852  -18.9123  -16.6722 C   0  0  0  0  0  0  0  0  0  0  0  0
   26.3763  -19.7876  -15.6391 C   0  0  2  0  0  0  0  0  0  0  0  0
   27.1230  -20.8267  -14.9547 N   0  0  0  0  0  0  0  0  0  0  0  0
   25.0082  -20.3040  -15.8814 C   0  0  0  0  0  0  0  0  0  0  0  0
   24.5287  -20.3312  -17.0641 O   0  0  0  0  0  0  0  0  0  0  0  0
   25.0898  -27.1054  -16.8427 O   0  0  0  0  0  0  0  0  0  0  0  0
   24.4948  -25.9827  -16.2563 C   0  0  0  0  0  0  0  0  0  0  0  0
   23.2971  -25.4750  -16.7031 C   0  0  0  0  0  0  0  0  0  0  0  0
   22.7306  -24.3561  -16.0983 C   0  0  0  0  0  0  0  0  0  0  0  0
   23.3298  -23.7140  -15.0418 C   0  0  0  0  0  0  0  0  0  0  0  0
   22.7205  -22.5591  -14.4184 C   0  0  0  0  0  0  0  0  0  0  0  0
   22.7876  -21.2435  -15.0737 C   0  0  2  0  0  0  0  0  0  0  0  0
   24.1893  -20.7774  -14.8537 N   0  0  0  0  0  0  0  0  0  0  0  0
   21.9234  -20.1809  -14.5525 C   0  0  0  0  0  0  0  0  0  0  0  0
   22.1251  -19.6384  -13.4084 O   0  0  0  0  0  0  0  0  0  0  0  0
   24.5444  -24.2421  -14.6013 C   0  0  0  0  0  0  0  0  0  0  0  0
   25.1050  -25.3499  -15.2006 C   0  0  0  0  0  0  0  0  0  0  0  0
   19.8622  -15.3071  -14.0438 N   0  0  0  0  0  0  0  0  0  0  0  0
   19.4255  -16.1807  -15.0726 C   0  0  0  0  0  0  0  0  0  0  0  0
   18.3052  -15.9670  -15.5891 O   0  0  0  0  0  0  0  0  0  0  0  0
   20.3147  -17.2908  -15.4757 C   0  0  0  0  0  0  0  0  0  0  0  0
   20.0210  -18.5868  -14.7287 C   0  0  2  0  0  0  0  0  0  0  0  0
   20.8146  -19.6785  -15.2784 N   0  0  0  0  0  0  0  0  0  0  0  0
   18.5845  -18.8631  -14.8311 C   0  0  0  0  0  0  0  0  0  0  0  0
   18.1911  -19.5732  -15.8156 O   0  0  0  0  0  0  0  0  0  0  0  0
   17.7014  -18.3745  -13.9002 O   0  0  0  0  0  0  0  0  0  0  0  0
  2  1  1  1
  2  3  1  0
  4  2  1  0
  4  5  1  6
  6  4  1  0
  6  7  2  0
  8  9  1  0
  9 10  2  0
 10 11  1  0
 12 13  1  0
 12 11  2  0
 14 13  1  1
 14 15  1  0
 15  6  1  0
 16 14  1  0
 17 16  2  0
 18 12  1  0
 19 18  2  0
 19  9  1  0
 20 21  1  0
 21 22  2  0
 21 23  1  0
 24 23  1  6
 24 25  1  0
 24 26  1  0
 25 16  1  0
 26 28  1  0
 27 26  2  0
M  END
$$$$
