VYN.pdb
     RDKit          3D

 28 28  0  0  1  0  0  0  0  0999 V2000
   23.2437  -13.8273  -20.2808 C   0  0  0  0  0  0  0  0  0  0  0  0
   22.6887  -12.9044  -19.2475 C   0  0  2  0  0  0  0  0  0  0  0  0
   21.7589  -11.8833  -19.8604 C   0  0  0  0  0  0  0  0  0  0  0  0
   23.7946  -12.2625  -18.4486 C   0  0  2  0  0  0  0  0  0  0  0  0
   24.5185  -13.3306  -17.7847 N   0  0  0  0  0  0  0  0  0  0  0  0
   23.2760  -11.3527  -17.3997 C   0  0  0  0  0  0  0  0  0  0  0  0
   22.8002  -11.8248  -16.3134 O   0  0  0  0  0  0  0  0  0  0  0  0
   22.9174   -3.0332  -13.9723 O   0  0  0  0  0  0  0  0  0  0  0  0
   23.1335   -4.3230  -14.4705 C   0  0  0  0  0  0  0  0  0  0  0  0
   22.5438   -5.4306  -13.9075 C   0  0  0  0  0  0  0  0  0  0  0  0
   22.7788   -6.7011  -14.4266 C   0  0  0  0  0  0  0  0  0  0  0  0
   23.5979   -6.9082  -15.5099 C   0  0  0  0  0  0  0  0  0  0  0  0
   23.8215   -8.2347  -16.0427 C   0  0  0  0  0  0  0  0  0  0  0  0
   22.6880   -9.0375  -16.5277 C   0  0  2  0  0  0  0  0  0  0  0  0
   23.2796   -9.9629  -17.5396 N   0  0  0  0  0  0  0  0  0  0  0  0
   21.6014   -8.3326  -17.2135 C   0  0  0  0  0  0  0  0  0  0  0  0
   21.5831   -8.1827  -18.4867 O   0  0  0  0  0  0  0  0  0  0  0  0
   24.1883   -5.7735  -16.0688 C   0  0  0  0  0  0  0  0  0  0  0  0
   23.9554   -4.5158  -15.5543 C   0  0  0  0  0  0  0  0  0  0  0  0
   16.1129   -8.0335  -18.4932 N   0  0  0  0  0  0  0  0  0  0  0  0
   17.4147   -7.4997  -18.6739 C   0  0  0  0  0  0  0  0  0  0  0  0
   17.5479   -6.5242  -19.4472 O   0  0  0  0  0  0  0  0  0  0  0  0
   18.5373   -8.1233  -17.9415 C   0  0  0  0  0  0  0  0  0  0  0  0
   19.4392   -7.1020  -17.2578 C   0  0  2  0  0  0  0  0  0  0  0  0
   20.4982   -7.7771  -16.5184 N   0  0  0  0  0  0  0  0  0  0  0  0
   18.6119   -6.2738  -16.3746 C   0  0  0  0  0  0  0  0  0  0  0  0
   18.3299   -5.0937  -16.7693 O   0  0  0  0  0  0  0  0  0  0  0  0
   18.1601   -6.7553  -15.1707 O   0  0  0  0  0  0  0  0  0  0  0  0
  2  1  1  6
  2  3  1  0
  4  2  1  0
  4  5  1  1
  6  4  1  0
  6  7  2  0
  8  9  1  0
  9 10  2  0
 10 11  1  0
 12 13  1  0
 12 11  2  0
 14 13  1  6
 14 15  1  0
 15  6  1  0
 16 14  1  0
 17 16  2  0
 18 12  1  0
 19 18  2  0
 19  9  1  0
 20 21  1  0
 21 22  2  0
 21 23  1  0
 24 23  1  1
 24 25  1  0
 24 26  1  0
 25 16  1  0
 26 28  1  0
 27 26  2  0
M  END
$$$$
