VYN.pdb
     RDKit          3D

 28 28  0  0  1  0  0  0  0  0999 V2000
   17.2085   -9.7881  -13.8329 C   0  0  0  0  0  0  0  0  0  0  0  0
   15.7236   -9.9182  -13.7602 C   0  0  2  0  0  0  0  0  0  0  0  0
   15.0344   -8.8535  -14.5813 C   0  0  0  0  0  0  0  0  0  0  0  0
   15.2530   -9.9280  -12.3278 C   0  0  2  0  0  0  0  0  0  0  0  0
   13.8602  -10.3349  -12.3377 N   0  0  0  0  0  0  0  0  0  0  0  0
   15.3237   -8.5858  -11.7030 C   0  0  0  0  0  0  0  0  0  0  0  0
   14.4935   -7.6748  -12.0350 O   0  0  0  0  0  0  0  0  0  0  0  0
   10.7603   -7.7449   -6.9166 O   0  0  0  0  0  0  0  0  0  0  0  0
   12.0763   -7.5676   -7.3583 C   0  0  0  0  0  0  0  0  0  0  0  0
   12.6781   -6.3310   -7.3800 C   0  0  0  0  0  0  0  0  0  0  0  0
   13.9895   -6.1874   -7.8252 C   0  0  0  0  0  0  0  0  0  0  0  0
   14.7359   -7.2566   -8.2578 C   0  0  0  0  0  0  0  0  0  0  0  0
   16.1014   -7.0899   -8.7064 C   0  0  0  0  0  0  0  0  0  0  0  0
   16.3913   -6.8922  -10.1352 C   0  0  2  0  0  0  0  0  0  0  0  0
   16.2794   -8.2529  -10.7403 N   0  0  0  0  0  0  0  0  0  0  0  0
   17.7238   -6.3997  -10.4954 C   0  0  0  0  0  0  0  0  0  0  0  0
   18.7629   -6.6710   -9.7949 O   0  0  0  0  0  0  0  0  0  0  0  0
   14.1100   -8.5039   -8.2294 C   0  0  0  0  0  0  0  0  0  0  0  0
   12.8114   -8.6455   -7.7886 C   0  0  0  0  0  0  0  0  0  0  0  0
   21.9508   -4.7872  -12.6697 N   0  0  0  0  0  0  0  0  0  0  0  0
   21.5593   -6.1491  -12.6035 C   0  0  0  0  0  0  0  0  0  0  0  0
   22.4025   -7.0191  -12.9189 O   0  0  0  0  0  0  0  0  0  0  0  0
   20.1822   -6.4636  -12.1674 C   0  0  0  0  0  0  0  0  0  0  0  0
   19.3140   -5.2212  -12.0032 C   0  0  2  0  0  0  0  0  0  0  0  0
   17.9537   -5.5989  -11.6420 N   0  0  0  0  0  0  0  0  0  0  0  0
   19.3458   -4.4668  -13.2603 C   0  0  0  0  0  0  0  0  0  0  0  0
   18.4036   -4.6754  -14.0950 O   0  0  0  0  0  0  0  0  0  0  0  0
   20.3527   -3.5712  -13.5234 O   0  0  0  0  0  0  0  0  0  0  0  0
  2  1  1  1
  2  3  1  0
  4  2  1  0
  4  5  1  6
  6  4  1  0
  6  7  2  0
  8  9  1  0
  9 10  2  0
 10 11  1  0
 12 13  1  0
 12 11  2  0
 14 13  1  1
 14 15  1  0
 15  6  1  0
 16 14  1  0
 17 16  2  0
 18 12  1  0
 19 18  2  0
 19  9  1  0
 20 21  1  0
 21 22  2  0
 21 23  1  0
 24 23  1  6
 24 25  1  0
 24 26  1  0
 25 16  1  0
 26 28  1  0
 27 26  2  0
M  END
$$$$
