VYN.pdb
     RDKit          3D

 28 28  0  0  1  0  0  0  0  0999 V2000
   29.9286  -21.6941  -18.8392 C   0  0  0  0  0  0  0  0  0  0  0  0
   29.2484  -20.7525  -19.7762 C   0  0  2  0  0  0  0  0  0  0  0  0
   30.2227  -19.7603  -20.3671 C   0  0  0  0  0  0  0  0  0  0  0  0
   28.0801  -20.0752  -19.1056 C   0  0  2  0  0  0  0  0  0  0  0  0
   28.6237  -19.1737  -18.1069 N   0  0  0  0  0  0  0  0  0  0  0  0
   27.1965  -21.0385  -18.4068 C   0  0  0  0  0  0  0  0  0  0  0  0
   26.6221  -21.9756  -19.0558 O   0  0  0  0  0  0  0  0  0  0  0  0
   29.4889  -27.3391  -17.1880 O   0  0  0  0  0  0  0  0  0  0  0  0
   28.8167  -26.1930  -16.7487 C   0  0  0  0  0  0  0  0  0  0  0  0
   27.4961  -26.2237  -16.3656 C   0  0  0  0  0  0  0  0  0  0  0  0
   26.8553  -25.0658  -15.9330 C   0  0  0  0  0  0  0  0  0  0  0  0
   27.4998  -23.8543  -15.8679 C   0  0  0  0  0  0  0  0  0  0  0  0
   26.8208  -22.6634  -15.4049 C   0  0  0  0  0  0  0  0  0  0  0  0
   25.9905  -21.8782  -16.3315 C   0  0  2  0  0  0  0  0  0  0  0  0
   26.9503  -20.9746  -17.0334 N   0  0  0  0  0  0  0  0  0  0  0  0
   24.9663  -21.0052  -15.7515 C   0  0  0  0  0  0  0  0  0  0  0  0
   25.2584  -20.0621  -14.9334 O   0  0  0  0  0  0  0  0  0  0  0  0
   28.8393  -23.8409  -16.2604 C   0  0  0  0  0  0  0  0  0  0  0  0
   29.4733  -24.9877  -16.6888 C   0  0  0  0  0  0  0  0  0  0  0  0
   20.6600  -18.5608  -14.5058 N   0  0  0  0  0  0  0  0  0  0  0  0
   21.0020  -18.4014  -15.8733 C   0  0  0  0  0  0  0  0  0  0  0  0
   20.4011  -17.5216  -16.5308 O   0  0  0  0  0  0  0  0  0  0  0  0
   22.0453  -19.2801  -16.4433 C   0  0  0  0  0  0  0  0  0  0  0  0
   22.6139  -20.2625  -15.4257 C   0  0  2  0  0  0  0  0  0  0  0  0
   23.5895  -21.1398  -16.0600 N   0  0  0  0  0  0  0  0  0  0  0  0
   21.5018  -21.0246  -14.8488 C   0  0  0  0  0  0  0  0  0  0  0  0
   21.4485  -22.2731  -15.1066 O   0  0  0  0  0  0  0  0  0  0  0  0
   20.5574  -20.4132  -14.0616 O   0  0  0  0  0  0  0  0  0  0  0  0
  2  1  1  1
  2  3  1  0
  4  2  1  0
  4  5  1  1
  6  4  1  0
  6  7  2  0
  8  9  1  0
  9 10  2  0
 10 11  1  0
 12 13  1  0
 12 11  2  0
 14 13  1  1
 14 15  1  0
 15  6  1  0
 16 14  1  0
 17 16  2  0
 18 12  1  0
 19 18  2  0
 19  9  1  0
 20 21  1  0
 21 22  2  0
 21 23  1  0
 24 23  1  6
 24 25  1  0
 24 26  1  0
 25 16  1  0
 26 28  1  0
 27 26  2  0
M  END
$$$$
