VYN.pdb
     RDKit          3D

 28 28  0  0  1  0  0  0  0  0999 V2000
   28.5732  -17.9014  -15.7079 C   0  0  0  0  0  0  0  0  0  0  0  0
   28.6339  -18.6975  -16.9688 C   0  0  2  0  0  0  0  0  0  0  0  0
   29.1308  -17.8630  -18.1262 C   0  0  0  0  0  0  0  0  0  0  0  0
   27.3043  -19.3454  -17.2616 C   0  0  2  0  0  0  0  0  0  0  0  0
   26.3647  -18.2797  -17.5566 N   0  0  0  0  0  0  0  0  0  0  0  0
   26.7774  -20.0988  -16.0989 C   0  0  0  0  0  0  0  0  0  0  0  0
   27.3551  -21.1673  -15.7066 O   0  0  0  0  0  0  0  0  0  0  0  0
   24.0754  -21.2749   -7.8168 O   0  0  0  0  0  0  0  0  0  0  0  0
   24.4767  -20.9230   -9.1105 C   0  0  0  0  0  0  0  0  0  0  0  0
   23.6952  -20.1419   -9.9295 C   0  0  0  0  0  0  0  0  0  0  0  0
   24.1226  -19.8090  -11.2121 C   0  0  0  0  0  0  0  0  0  0  0  0
   25.3272  -20.2370  -11.7154 C   0  0  0  0  0  0  0  0  0  0  0  0
   25.7600  -19.8717  -13.0468 C   0  0  0  0  0  0  0  0  0  0  0  0
   25.0943  -20.4487  -14.2252 C   0  0  2  0  0  0  0  0  0  0  0  0
   25.6473  -19.6904  -15.3868 N   0  0  0  0  0  0  0  0  0  0  0  0
   23.6376  -20.3161  -14.3144 C   0  0  0  0  0  0  0  0  0  0  0  0
   23.0669  -19.1839  -14.5059 O   0  0  0  0  0  0  0  0  0  0  0  0
   26.1075  -21.0289  -10.8713 C   0  0  0  0  0  0  0  0  0  0  0  0
   25.6837  -21.3583   -9.6014 C   0  0  0  0  0  0  0  0  0  0  0  0
   19.2225  -19.5042  -14.6709 N   0  0  0  0  0  0  0  0  0  0  0  0
   19.7136  -20.1807  -15.8169 C   0  0  0  0  0  0  0  0  0  0  0  0
   19.2003  -19.9076  -16.9257 O   0  0  0  0  0  0  0  0  0  0  0  0
   20.8003  -21.1670  -15.6383 C   0  0  0  0  0  0  0  0  0  0  0  0
   21.3223  -21.2213  -14.2071 C   0  0  2  0  0  0  0  0  0  0  0  0
   22.7650  -21.4273  -14.2023 N   0  0  0  0  0  0  0  0  0  0  0  0
   20.6237  -22.3006  -13.5017 C   0  0  0  0  0  0  0  0  0  0  0  0
   21.2621  -23.3890  -13.3127 O   0  0  0  0  0  0  0  0  0  0  0  0
   19.3325  -22.1402  -13.0632 O   0  0  0  0  0  0  0  0  0  0  0  0
  2  1  1  1
  2  3  1  0
  4  2  1  0
  4  5  1  1
  6  4  1  0
  6  7  2  0
  8  9  1  0
  9 10  2  0
 10 11  1  0
 12 13  1  0
 12 11  2  0
 14 13  1  1
 14 15  1  0
 15  6  1  0
 16 14  1  0
 17 16  2  0
 18 12  1  0
 19 18  2  0
 19  9  1  0
 20 21  1  0
 21 22  2  0
 21 23  1  0
 24 23  1  6
 24 25  1  0
 24 26  1  0
 25 16  1  0
 26 28  1  0
 27 26  2  0
M  END
$$$$
