NMK.pdb
     RDKit          3D

 26 25  0  0  1  0  0  0  0  0999 V2000
   18.5519  -13.0940  -19.0437 N   0  0  0  0  0  0  0  0  0  0  0  0
   17.4689  -12.3313  -18.5671 C   0  0  0  0  0  0  0  0  0  0  0  0
   16.3802  -12.3603  -19.1694 O   0  0  0  0  0  0  0  0  0  0  0  0
   17.6330  -11.5064  -17.3605 C   0  0  0  0  0  0  0  0  0  0  0  0
   19.0027  -11.6446  -16.7585 C   0  0  2  0  0  0  0  0  0  0  0  0
   19.1374  -12.9926  -16.2436 N   0  0  0  0  0  0  0  0  0  0  0  0
   19.3425  -10.6401  -15.7602 C   0  0  0  0  0  0  0  0  0  0  0  0
   19.1019  -10.9118  -14.5413 O   0  0  0  0  0  0  0  0  0  0  0  0
   25.5408  -10.0115  -14.2592 C   0  0  0  0  0  0  0  0  0  0  0  0
   24.4053   -8.8471  -14.9541 S   0  0  0  0  0  0  0  0  0  0  0  0
   22.6794   -9.1950  -14.6385 C   0  0  0  0  0  0  0  0  0  0  0  0
   21.7299   -8.1726  -15.1294 C   0  0  0  0  0  0  0  0  0  0  0  0
   20.2628   -8.4194  -14.9259 C   0  0  2  0  0  0  0  0  0  0  0  0
   19.9163   -9.3886  -16.0214 N   0  0  0  0  0  0  0  0  0  0  0  0
   19.4815   -7.1948  -15.3566 C   0  0  0  0  0  0  0  0  0  0  0  0
   19.3899   -6.9348  -16.6131 O   0  0  0  0  0  0  0  0  0  0  0  0
   18.8560   -6.3395  -14.4435 N   0  0  0  0  0  0  0  0  0  0  0  0
   18.0637   -5.1960  -14.9533 C   0  0  1  0  0  0  0  0  0  0  0  0
   16.6280   -5.3697  -14.6135 C   0  0  0  0  0  0  0  0  0  0  0  0
   15.7181   -4.2478  -14.9652 C   0  0  0  0  0  0  0  0  0  0  0  0
   14.2841   -4.4878  -14.6378 C   0  0  0  0  0  0  0  0  0  0  0  0
   13.4284   -3.3564  -15.1575 C   0  0  0  0  0  0  0  0  0  0  0  0
   12.0455   -3.7830  -14.9695 N   0  0  0  0  0  0  0  0  0  0  0  0
   18.7547   -3.9864  -14.5336 C   0  0  0  0  0  0  0  0  0  0  0  0
   18.5413   -2.7496  -15.0999 O   0  0  0  0  0  0  0  0  0  0  0  0
   19.6216   -4.0104  -13.5941 O   0  0  0  0  0  0  0  0  0  0  0  0
  2  1  1  0
  2  3  2  0
  4  2  1  0
  5  4  1  0
  5  7  1  0
  5  6  1  1
  7  8  2  0
  9 10  1  0
 10 11  1  0
 11 12  1  0
 13 12  1  6
 14  7  1  0
 14 13  1  0
 15 13  1  0
 15 16  2  0
 17 15  1  0
 18 17  1  0
 18 24  1  0
 18 19  1  1
 20 21  1  0
 20 19  1  0
 22 21  1  0
 23 22  1  0
 24 25  1  0
 26 24  2  0
M  END
$$$$
