NMK.pdb
     RDKit          3D

 26 25  0  0  1  0  0  0  0  0999 V2000
   19.8226  -13.1411  -19.4271 N   0  0  0  0  0  0  0  0  0  0  0  0
   19.0478  -12.3071  -18.5988 C   0  0  0  0  0  0  0  0  0  0  0  0
   17.8790  -12.0283  -18.9226 O   0  0  0  0  0  0  0  0  0  0  0  0
   19.6265  -11.7720  -17.3569 C   0  0  0  0  0  0  0  0  0  0  0  0
   21.0428  -12.2273  -17.1466 C   0  0  2  0  0  0  0  0  0  0  0  0
   21.0217  -13.6405  -16.8260 N   0  0  0  0  0  0  0  0  0  0  0  0
   21.8010  -11.4555  -16.1716 C   0  0  0  0  0  0  0  0  0  0  0  0
   21.5840  -11.6820  -14.9392 O   0  0  0  0  0  0  0  0  0  0  0  0
   28.1124  -12.7195  -15.0021 C   0  0  0  0  0  0  0  0  0  0  0  0
   27.2791  -11.3424  -15.7350 S   0  0  0  0  0  0  0  0  0  0  0  0
   25.5997  -11.0900  -15.1734 C   0  0  0  0  0  0  0  0  0  0  0  0
   24.9214   -9.8985  -15.7285 C   0  0  0  0  0  0  0  0  0  0  0  0
   23.4704   -9.6975  -15.3988 C   0  0  2  0  0  0  0  0  0  0  0  0
   22.7578  -10.4758  -16.4693 N   0  0  0  0  0  0  0  0  0  0  0  0
   23.0667   -8.2791  -15.7462 C   0  0  0  0  0  0  0  0  0  0  0  0
   22.8978   -7.9740  -16.9844 O   0  0  0  0  0  0  0  0  0  0  0  0
   22.8692   -7.2918  -14.7752 N   0  0  0  0  0  0  0  0  0  0  0  0
   22.2515   -6.0046  -15.1714 C   0  0  1  0  0  0  0  0  0  0  0  0
   21.0024   -6.2454  -15.9387 C   0  0  0  0  0  0  0  0  0  0  0  0
   20.1465   -5.0604  -16.2100 C   0  0  0  0  0  0  0  0  0  0  0  0
   18.8310   -5.3770  -16.8347 C   0  0  0  0  0  0  0  0  0  0  0  0
   18.0966   -4.1054  -17.1897 C   0  0  0  0  0  0  0  0  0  0  0  0
   16.8424   -4.5272  -17.8051 N   0  0  0  0  0  0  0  0  0  0  0  0
   22.2061   -5.1756  -13.9767 C   0  0  0  0  0  0  0  0  0  0  0  0
   22.1947   -5.6817  -12.6961 O   0  0  0  0  0  0  0  0  0  0  0  0
   22.1700   -3.9000  -14.0561 O   0  0  0  0  0  0  0  0  0  0  0  0
  2  1  1  0
  2  3  2  0
  4  2  1  0
  5  4  1  0
  5  7  1  0
  5  6  1  1
  7  8  2  0
  9 10  1  0
 10 11  1  0
 11 12  1  0
 13 12  1  6
 14  7  1  0
 14 13  1  0
 15 13  1  0
 15 16  2  0
 17 15  1  0
 18 17  1  0
 18 24  1  0
 18 19  1  1
 20 21  1  0
 20 19  1  0
 22 21  1  0
 23 22  1  0
 24 25  1  0
 26 24  2  0
M  END
$$$$
