NMK.pdb
     RDKit          3D

 26 25  0  0  1  0  0  0  0  0999 V2000
   19.0996  -13.0461  -18.7135 N   0  0  0  0  0  0  0  0  0  0  0  0
   18.3951  -12.0281  -18.0431 C   0  0  0  0  0  0  0  0  0  0  0  0
   17.2567  -11.7069  -18.4297 O   0  0  0  0  0  0  0  0  0  0  0  0
   19.0107  -11.3526  -16.8907 C   0  0  0  0  0  0  0  0  0  0  0  0
   20.3705  -11.9038  -16.5676 C   0  0  2  0  0  0  0  0  0  0  0  0
   20.1994  -13.2196  -15.9849 N   0  0  0  0  0  0  0  0  0  0  0  0
   21.2052  -11.0428  -15.7409 C   0  0  0  0  0  0  0  0  0  0  0  0
   20.9658  -11.0080  -14.4924 O   0  0  0  0  0  0  0  0  0  0  0  0
   27.7370  -12.5327  -15.2428 C   0  0  0  0  0  0  0  0  0  0  0  0
   26.8788  -11.1303  -15.8943 S   0  0  0  0  0  0  0  0  0  0  0  0
   25.2535  -10.8509  -15.2015 C   0  0  0  0  0  0  0  0  0  0  0  0
   24.5148   -9.7021  -15.7694 C   0  0  0  0  0  0  0  0  0  0  0  0
   23.1245   -9.4413  -15.2657 C   0  0  2  0  0  0  0  0  0  0  0  0
   22.2590  -10.2408  -16.1991 N   0  0  0  0  0  0  0  0  0  0  0  0
   22.7164   -8.0265  -15.6231 C   0  0  0  0  0  0  0  0  0  0  0  0
   22.5709   -7.7241  -16.8649 O   0  0  0  0  0  0  0  0  0  0  0  0
   22.4907   -7.0400  -14.6575 N   0  0  0  0  0  0  0  0  0  0  0  0
   22.0121   -5.7057  -15.0887 C   0  0  1  0  0  0  0  0  0  0  0  0
   20.5880   -5.7773  -15.5056 C   0  0  0  0  0  0  0  0  0  0  0  0
   20.2660   -5.2833  -16.8703 C   0  0  0  0  0  0  0  0  0  0  0  0
   18.8132   -5.2846  -17.2025 C   0  0  0  0  0  0  0  0  0  0  0  0
   18.5842   -4.6795  -18.5676 C   0  0  0  0  0  0  0  0  0  0  0  0
   17.1391   -4.6894  -18.7714 N   0  0  0  0  0  0  0  0  0  0  0  0
   22.4053   -4.7636  -14.0521 C   0  0  0  0  0  0  0  0  0  0  0  0
   22.5132   -3.4060  -14.2551 O   0  0  0  0  0  0  0  0  0  0  0  0
   22.6818   -5.1586  -12.8679 O   0  0  0  0  0  0  0  0  0  0  0  0
  2  1  1  0
  2  3  2  0
  4  2  1  0
  5  4  1  0
  5  7  1  0
  5  6  1  1
  7  8  2  0
  9 10  1  0
 10 11  1  0
 11 12  1  0
 13 12  1  6
 14  7  1  0
 14 13  1  0
 15 13  1  0
 15 16  2  0
 17 15  1  0
 18 17  1  0
 18 24  1  0
 18 19  1  1
 20 21  1  0
 20 19  1  0
 22 21  1  0
 23 22  1  0
 24 25  1  0
 26 24  2  0
M  END
$$$$
