NMK.pdb
     RDKit          3D

 26 25  0  0  1  0  0  0  0  0999 V2000
   28.9643  -19.8343  -16.8803 N   0  0  0  0  0  0  0  0  0  0  0  0
   27.6662  -19.2958  -16.7960 C   0  0  0  0  0  0  0  0  0  0  0  0
   27.3367  -18.3577  -17.5446 O   0  0  0  0  0  0  0  0  0  0  0  0
   26.7100  -19.8466  -15.8237 C   0  0  0  0  0  0  0  0  0  0  0  0
   27.2546  -21.0510  -15.1095 C   0  0  2  0  0  0  0  0  0  0  0  0
   27.2526  -22.1661  -16.0351 N   0  0  0  0  0  0  0  0  0  0  0  0
   26.5896  -21.3784  -13.8558 C   0  0  0  0  0  0  0  0  0  0  0  0
   25.7994  -22.3748  -13.8474 O   0  0  0  0  0  0  0  0  0  0  0  0
   26.5793  -19.9201   -6.0137 C   0  0  0  0  0  0  0  0  0  0  0  0
   27.1904  -19.7235   -7.6616 S   0  0  0  0  0  0  0  0  0  0  0  0
   26.1715  -20.4546   -8.9371 C   0  0  0  0  0  0  0  0  0  0  0  0
   26.7235  -20.3769  -10.3072 C   0  0  0  0  0  0  0  0  0  0  0  0
   25.9618  -21.0508  -11.4118 C   0  0  2  0  0  0  0  0  0  0  0  0
   26.7418  -20.6896  -12.6449 N   0  0  0  0  0  0  0  0  0  0  0  0
   24.6639  -20.3077  -11.6548 C   0  0  0  0  0  0  0  0  0  0  0  0
   24.7115  -19.1626  -12.2389 O   0  0  0  0  0  0  0  0  0  0  0  0
   23.4193  -20.8182  -11.2713 N   0  0  0  0  0  0  0  0  0  0  0  0
   22.1872  -20.1496  -11.7511 C   0  0  1  0  0  0  0  0  0  0  0  0
   21.9060  -20.5326  -13.1586 C   0  0  0  0  0  0  0  0  0  0  0  0
   20.5286  -20.2789  -13.6573 C   0  0  0  0  0  0  0  0  0  0  0  0
   20.2886  -20.7147  -15.0620 C   0  0  0  0  0  0  0  0  0  0  0  0
   18.8612  -20.4292  -15.4658 C   0  0  0  0  0  0  0  0  0  0  0  0
   18.7232  -20.9336  -16.8283 N   0  0  0  0  0  0  0  0  0  0  0  0
   21.1687  -20.3678  -10.7354 C   0  0  0  0  0  0  0  0  0  0  0  0
   21.1351  -21.4712   -9.9124 O   0  0  0  0  0  0  0  0  0  0  0  0
   20.2246  -19.5253  -10.5518 O   0  0  0  0  0  0  0  0  0  0  0  0
  2  1  1  0
  2  3  2  0
  4  2  1  0
  5  4  1  0
  5  7  1  0
  5  6  1  6
  7  8  2  0
  9 10  1  0
 10 11  1  0
 11 12  1  0
 13 12  1  1
 14  7  1  0
 14 13  1  0
 15 13  1  0
 15 16  2  0
 17 15  1  0
 18 17  1  0
 18 24  1  0
 18 19  1  6
 20 21  1  0
 20 19  1  0
 22 21  1  0
 23 22  1  0
 24 25  1  0
 26 24  2  0
M  END
$$$$
