NMK.pdb
     RDKit          3D

 26 25  0  0  1  0  0  0  0  0999 V2000
   24.4975  -21.6546  -18.7288 N   0  0  0  0  0  0  0  0  0  0  0  0
   23.8329  -20.4173  -18.6306 C   0  0  0  0  0  0  0  0  0  0  0  0
   22.5973  -20.3669  -18.7699 O   0  0  0  0  0  0  0  0  0  0  0  0
   24.6049  -19.1941  -18.3638 C   0  0  0  0  0  0  0  0  0  0  0  0
   26.0861  -19.4462  -18.3567 C   0  0  2  0  0  0  0  0  0  0  0  0
   26.3910  -20.3243  -17.2449 N   0  0  0  0  0  0  0  0  0  0  0  0
   26.9159  -18.2493  -18.3532 C   0  0  0  0  0  0  0  0  0  0  0  0
   26.4526  -17.2093  -17.7865 O   0  0  0  0  0  0  0  0  0  0  0  0
   33.0293  -17.6961  -17.3656 C   0  0  0  0  0  0  0  0  0  0  0  0
   32.6391  -16.1629  -18.1562 S   0  0  0  0  0  0  0  0  0  0  0  0
   31.4080  -16.2720  -19.4493 C   0  0  0  0  0  0  0  0  0  0  0  0
   30.3776  -17.3149  -19.2527 C   0  0  0  0  0  0  0  0  0  0  0  0
   29.0066  -16.8775  -18.8241 C   0  0  2  0  0  0  0  0  0  0  0  0
   28.1915  -18.1366  -18.9225 N   0  0  0  0  0  0  0  0  0  0  0  0
   28.3821  -16.0348  -19.9175 C   0  0  0  0  0  0  0  0  0  0  0  0
   28.0454  -16.6082  -21.0187 O   0  0  0  0  0  0  0  0  0  0  0  0
   28.1563  -14.6617  -19.7755 N   0  0  0  0  0  0  0  0  0  0  0  0
   27.4474  -13.9327  -20.8531 C   0  0  1  0  0  0  0  0  0  0  0  0
   26.5181  -12.9291  -20.2734 C   0  0  0  0  0  0  0  0  0  0  0  0
   25.7938  -12.0562  -21.2345 C   0  0  0  0  0  0  0  0  0  0  0  0
   24.7783  -11.1599  -20.6128 C   0  0  0  0  0  0  0  0  0  0  0  0
   24.0813  -10.3386  -21.6720 C   0  0  0  0  0  0  0  0  0  0  0  0
   23.2862   -9.3495  -20.9513 N   0  0  0  0  0  0  0  0  0  0  0  0
   28.4602  -13.5011  -21.8043 C   0  0  0  0  0  0  0  0  0  0  0  0
   28.2890  -13.5356  -23.1702 O   0  0  0  0  0  0  0  0  0  0  0  0
   29.5934  -13.0587  -21.4108 O   0  0  0  0  0  0  0  0  0  0  0  0
  2  1  1  0
  2  3  2  0
  4  2  1  0
  5  4  1  0
  5  7  1  0
  5  6  1  1
  7  8  2  0
  9 10  1  0
 10 11  1  0
 11 12  1  0
 13 12  1  6
 14  7  1  0
 14 13  1  0
 15 13  1  0
 15 16  2  0
 17 15  1  0
 18 17  1  0
 18 24  1  0
 18 19  1  1
 20 21  1  0
 20 19  1  0
 22 21  1  0
 23 22  1  0
 24 25  1  0
 26 24  2  0
M  END
$$$$
