NMK.pdb
     RDKit          3D

 26 25  0  0  1  0  0  0  0  0999 V2000
   20.8678  -13.0330  -20.5864 N   0  0  0  0  0  0  0  0  0  0  0  0
   20.3548  -11.7434  -20.3506 C   0  0  0  0  0  0  0  0  0  0  0  0
   19.6192  -11.2065  -21.1988 O   0  0  0  0  0  0  0  0  0  0  0  0
   20.6926  -11.0410  -19.1032 C   0  0  0  0  0  0  0  0  0  0  0  0
   21.5563  -11.8726  -18.1979 C   0  0  2  0  0  0  0  0  0  0  0  0
   20.7996  -13.0421  -17.7980 N   0  0  0  0  0  0  0  0  0  0  0  0
   22.1142  -11.1636  -17.0545 C   0  0  0  0  0  0  0  0  0  0  0  0
   21.4951  -11.2468  -15.9467 O   0  0  0  0  0  0  0  0  0  0  0  0
   28.4041  -12.5514  -15.1328 C   0  0  0  0  0  0  0  0  0  0  0  0
   27.6413  -11.0770  -15.7430 S   0  0  0  0  0  0  0  0  0  0  0  0
   25.8727  -10.9829  -15.4929 C   0  0  0  0  0  0  0  0  0  0  0  0
   25.2403   -9.7193  -15.9303 C   0  0  0  0  0  0  0  0  0  0  0  0
   23.7439   -9.6193  -15.8571 C   0  0  2  0  0  0  0  0  0  0  0  0
   23.2828  -10.3902  -17.0623 N   0  0  0  0  0  0  0  0  0  0  0  0
   23.3145   -8.2132  -16.2234 C   0  0  0  0  0  0  0  0  0  0  0  0
   23.1676   -7.9200  -17.4672 O   0  0  0  0  0  0  0  0  0  0  0  0
   23.0705   -7.2250  -15.2640 N   0  0  0  0  0  0  0  0  0  0  0  0
   22.4428   -5.9508  -15.6853 C   0  0  1  0  0  0  0  0  0  0  0  0
   21.1685   -6.2146  -16.4020 C   0  0  0  0  0  0  0  0  0  0  0  0
   20.3362   -5.0306  -16.7421 C   0  0  0  0  0  0  0  0  0  0  0  0
   18.9896   -5.3575  -17.2906 C   0  0  0  0  0  0  0  0  0  0  0  0
   18.2896   -4.1010  -17.7526 C   0  0  0  0  0  0  0  0  0  0  0  0
   17.0373   -4.5416  -18.3588 N   0  0  0  0  0  0  0  0  0  0  0  0
   22.4386   -5.0796  -14.5202 C   0  0  0  0  0  0  0  0  0  0  0  0
   22.3313   -3.7087  -14.5921 O   0  0  0  0  0  0  0  0  0  0  0  0
   22.5404   -5.5542  -13.3373 O   0  0  0  0  0  0  0  0  0  0  0  0
  2  1  1  0
  2  3  2  0
  4  2  1  0
  5  4  1  0
  5  7  1  0
  5  6  1  1
  7  8  2  0
  9 10  1  0
 10 11  1  0
 11 12  1  0
 13 12  1  6
 14  7  1  0
 14 13  1  0
 15 13  1  0
 15 16  2  0
 17 15  1  0
 18 17  1  0
 18 24  1  0
 18 19  1  1
 20 21  1  0
 20 19  1  0
 22 21  1  0
 23 22  1  0
 24 25  1  0
 26 24  2  0
M  END
$$$$
