NMK.pdb
     RDKit          3D

 26 25  0  0  1  0  0  0  0  0999 V2000
   31.7637  -16.3651  -20.6391 N   0  0  0  0  0  0  0  0  0  0  0  0
   32.1122  -16.4920  -19.2810 C   0  0  0  0  0  0  0  0  0  0  0  0
   32.3032  -17.6216  -18.7950 O   0  0  0  0  0  0  0  0  0  0  0  0
   32.2477  -15.2877  -18.4474 C   0  0  0  0  0  0  0  0  0  0  0  0
   31.9446  -14.0299  -19.2111 C   0  0  2  0  0  0  0  0  0  0  0  0
   32.9328  -13.8882  -20.2616 N   0  0  0  0  0  0  0  0  0  0  0  0
   31.8321  -12.8263  -18.3986 C   0  0  0  0  0  0  0  0  0  0  0  0
   30.9439  -12.8071  -17.4887 O   0  0  0  0  0  0  0  0  0  0  0  0
   33.9672   -6.7092  -14.7020 C   0  0  0  0  0  0  0  0  0  0  0  0
   33.8748   -8.3366  -15.3880 S   0  0  0  0  0  0  0  0  0  0  0  0
   33.8630   -8.4030  -17.1755 C   0  0  0  0  0  0  0  0  0  0  0  0
   33.7597   -9.7597  -17.7556 C   0  0  0  0  0  0  0  0  0  0  0  0
   32.4460  -10.4772  -17.6374 C   0  0  2  0  0  0  0  0  0  0  0  0
   32.6209  -11.6753  -18.5282 N   0  0  0  0  0  0  0  0  0  0  0  0
   31.3805   -9.7041  -18.3875 C   0  0  0  0  0  0  0  0  0  0  0  0
   31.4421   -9.6608  -19.6716 O   0  0  0  0  0  0  0  0  0  0  0  0
   30.3343   -9.0391  -17.7395 N   0  0  0  0  0  0  0  0  0  0  0  0
   29.3197   -8.3279  -18.5518 C   0  0  1  0  0  0  0  0  0  0  0  0
   27.9795   -8.9378  -18.3546 C   0  0  0  0  0  0  0  0  0  0  0  0
   26.8383   -8.2795  -19.0435 C   0  0  0  0  0  0  0  0  0  0  0  0
   25.5080   -8.8862  -18.7554 C   0  0  0  0  0  0  0  0  0  0  0  0
   24.4281   -8.1903  -19.5504 C   0  0  0  0  0  0  0  0  0  0  0  0
   23.2150   -8.9762  -19.3492 N   0  0  0  0  0  0  0  0  0  0  0  0
   29.5007   -6.9066  -18.2989 C   0  0  0  0  0  0  0  0  0  0  0  0
   30.2992   -6.4053  -17.2953 O   0  0  0  0  0  0  0  0  0  0  0  0
   28.9091   -6.0258  -19.0123 O   0  0  0  0  0  0  0  0  0  0  0  0
  2  1  1  0
  2  3  2  0
  4  2  1  0
  5  4  1  0
  5  7  1  0
  5  6  1  6
  7  8  2  0
  9 10  1  0
 10 11  1  0
 11 12  1  0
 13 12  1  6
 14  7  1  0
 14 13  1  0
 15 13  1  0
 15 16  2  0
 17 15  1  0
 18 17  1  0
 18 24  1  0
 18 19  1  1
 20 21  1  0
 20 19  1  0
 22 21  1  0
 23 22  1  0
 24 25  1  0
 26 24  2  0
M  END
$$$$
