NMK.pdb
     RDKit          3D

 26 25  0  0  1  0  0  0  0  0999 V2000
   28.2782  -18.6640  -17.5390 N   0  0  0  0  0  0  0  0  0  0  0  0
   28.1946  -18.6248  -16.1342 C   0  0  0  0  0  0  0  0  0  0  0  0
   28.9734  -17.8997  -15.4889 O   0  0  0  0  0  0  0  0  0  0  0  0
   27.1869  -19.4415  -15.4407 C   0  0  0  0  0  0  0  0  0  0  0  0
   27.8064  -20.5557  -14.6456 C   0  0  2  0  0  0  0  0  0  0  0  0
   28.2160  -21.5966  -15.5670 N   0  0  0  0  0  0  0  0  0  0  0  0
   26.9809  -21.0751  -13.5639 C   0  0  0  0  0  0  0  0  0  0  0  0
   26.2627  -22.0965  -13.8053 O   0  0  0  0  0  0  0  0  0  0  0  0
   27.9801  -20.6003   -6.8466 C   0  0  0  0  0  0  0  0  0  0  0  0
   26.3426  -20.0520   -7.2287 S   0  0  0  0  0  0  0  0  0  0  0  0
   25.6492  -20.7337   -8.7301 C   0  0  0  0  0  0  0  0  0  0  0  0
   26.4470  -20.5039   -9.9543 C   0  0  0  0  0  0  0  0  0  0  0  0
   25.9276  -21.0625  -11.2476 C   0  0  2  0  0  0  0  0  0  0  0  0
   26.9043  -20.5478  -12.2678 N   0  0  0  0  0  0  0  0  0  0  0  0
   24.6669  -20.3224  -11.6457 C   0  0  0  0  0  0  0  0  0  0  0  0
   24.7800  -19.2431  -12.3363 O   0  0  0  0  0  0  0  0  0  0  0  0
   23.3882  -20.7673  -11.2939 N   0  0  0  0  0  0  0  0  0  0  0  0
   22.2612  -20.5312  -12.2263 C   0  0  1  0  0  0  0  0  0  0  0  0
   22.4665  -21.2889  -13.4875 C   0  0  0  0  0  0  0  0  0  0  0  0
   21.7230  -20.8102  -14.6826 C   0  0  0  0  0  0  0  0  0  0  0  0
   21.9070  -21.6467  -15.9022 C   0  0  0  0  0  0  0  0  0  0  0  0
   21.0409  -21.1335  -17.0287 C   0  0  0  0  0  0  0  0  0  0  0  0
   21.2637  -22.0418  -18.1491 N   0  0  0  0  0  0  0  0  0  0  0  0
   21.0377  -20.7315  -11.4649 C   0  0  0  0  0  0  0  0  0  0  0  0
   19.8269  -20.1702  -11.8039 O   0  0  0  0  0  0  0  0  0  0  0  0
   21.0238  -21.4559  -10.4114 O   0  0  0  0  0  0  0  0  0  0  0  0
  2  1  1  0
  2  3  2  0
  4  2  1  0
  5  4  1  0
  5  7  1  0
  5  6  1  6
  7  8  2  0
  9 10  1  0
 10 11  1  0
 11 12  1  0
 13 12  1  1
 14  7  1  0
 14 13  1  0
 15 13  1  0
 15 16  2  0
 17 15  1  0
 18 17  1  0
 18 24  1  0
 18 19  1  6
 20 21  1  0
 20 19  1  0
 22 21  1  0
 23 22  1  0
 24 25  1  0
 26 24  2  0
M  END
$$$$
