NMK.pdb
     RDKit          3D

 26 25  0  0  1  0  0  0  0  0999 V2000
   16.5621  -12.6354  -16.5582 N   0  0  0  0  0  0  0  0  0  0  0  0
   17.3179  -13.4361  -15.6809 C   0  0  0  0  0  0  0  0  0  0  0  0
   16.8385  -14.4993  -15.2466 O   0  0  0  0  0  0  0  0  0  0  0  0
   18.6687  -13.0094  -15.2850 C   0  0  0  0  0  0  0  0  0  0  0  0
   19.0635  -11.7069  -15.9215 C   0  0  2  0  0  0  0  0  0  0  0  0
   19.2181  -11.9269  -17.3455 N   0  0  0  0  0  0  0  0  0  0  0  0
   20.2315  -11.0630  -15.3364 C   0  0  0  0  0  0  0  0  0  0  0  0
   20.2087  -10.8156  -14.0892 O   0  0  0  0  0  0  0  0  0  0  0  0
   28.0406  -10.1252  -16.1428 C   0  0  0  0  0  0  0  0  0  0  0  0
   26.4627  -10.8475  -16.4836 S   0  0  0  0  0  0  0  0  0  0  0  0
   25.0762  -10.0410  -15.6919 C   0  0  0  0  0  0  0  0  0  0  0  0
   23.7479  -10.6021  -16.0214 C   0  0  0  0  0  0  0  0  0  0  0  0
   22.5453  -10.0043  -15.3498 C   0  0  2  0  0  0  0  0  0  0  0  0
   21.3908  -10.6871  -16.0283 N   0  0  0  0  0  0  0  0  0  0  0  0
   22.3629   -8.5761  -15.8217 C   0  0  0  0  0  0  0  0  0  0  0  0
   22.2312   -8.3576  -17.0825 O   0  0  0  0  0  0  0  0  0  0  0  0
   22.3302   -7.4894  -14.9416 N   0  0  0  0  0  0  0  0  0  0  0  0
   22.0470   -6.1371  -15.4766 C   0  0  1  0  0  0  0  0  0  0  0  0
   20.5986   -5.8280  -15.3598 C   0  0  0  0  0  0  0  0  0  0  0  0
   19.7078   -6.3979  -16.4047 C   0  0  0  0  0  0  0  0  0  0  0  0
   18.2760   -6.0040  -16.2797 C   0  0  0  0  0  0  0  0  0  0  0  0
   17.4545   -6.6502  -17.3706 C   0  0  0  0  0  0  0  0  0  0  0  0
   16.0670   -6.2969  -17.0879 N   0  0  0  0  0  0  0  0  0  0  0  0
   23.0192   -5.2363  -14.8765 C   0  0  0  0  0  0  0  0  0  0  0  0
   23.6382   -4.2147  -15.5615 O   0  0  0  0  0  0  0  0  0  0  0  0
   23.3609   -5.3518  -13.6498 O   0  0  0  0  0  0  0  0  0  0  0  0
  2  1  1  0
  2  3  2  0
  4  2  1  0
  5  4  1  0
  5  7  1  0
  5  6  1  6
  7  8  2  0
  9 10  1  0
 10 11  1  0
 11 12  1  0
 13 12  1  6
 14  7  1  0
 14 13  1  0
 15 13  1  0
 15 16  2  0
 17 15  1  0
 18 17  1  0
 18 24  1  0
 18 19  1  1
 20 21  1  0
 20 19  1  0
 22 21  1  0
 23 22  1  0
 24 25  1  0
 26 24  2  0
M  END
$$$$
