NMK.pdb
     RDKit          3D

 26 25  0  0  1  0  0  0  0  0999 V2000
   21.2748  -11.8602  -24.1441 N   0  0  0  0  0  0  0  0  0  0  0  0
   22.2305  -12.8016  -23.7171 C   0  0  0  0  0  0  0  0  0  0  0  0
   22.2949  -13.9128  -24.2738 O   0  0  0  0  0  0  0  0  0  0  0  0
   23.1455  -12.4638  -22.6161 C   0  0  0  0  0  0  0  0  0  0  0  0
   22.8452  -11.1181  -22.0192 C   0  0  2  0  0  0  0  0  0  0  0  0
   23.8643  -10.1880  -22.4625 N   0  0  0  0  0  0  0  0  0  0  0  0
   22.6853  -11.1067  -20.5716 C   0  0  0  0  0  0  0  0  0  0  0  0
   21.6916  -11.7303  -20.0807 O   0  0  0  0  0  0  0  0  0  0  0  0
   26.8035  -10.1153  -13.8640 C   0  0  0  0  0  0  0  0  0  0  0  0
   26.5995  -10.2730  -15.6137 S   0  0  0  0  0  0  0  0  0  0  0  0
   24.9025  -10.3765  -16.1697 C   0  0  0  0  0  0  0  0  0  0  0  0
   24.7264  -10.5615  -17.6266 C   0  0  0  0  0  0  0  0  0  0  0  0
   23.3280  -10.5497  -18.1733 C   0  0  2  0  0  0  0  0  0  0  0  0
   23.5346  -10.4654  -19.6599 N   0  0  0  0  0  0  0  0  0  0  0  0
   22.6867   -9.2070  -17.8874 C   0  0  0  0  0  0  0  0  0  0  0  0
   23.1241   -8.1715  -18.5128 O   0  0  0  0  0  0  0  0  0  0  0  0
   21.6391   -9.0508  -16.9738 N   0  0  0  0  0  0  0  0  0  0  0  0
   21.0436   -7.7076  -16.7830 C   0  0  1  0  0  0  0  0  0  0  0  0
   19.5868   -7.8214  -16.5151 C   0  0  0  0  0  0  0  0  0  0  0  0
   18.8503   -6.5520  -16.2777 C   0  0  0  0  0  0  0  0  0  0  0  0
   17.3705   -6.7027  -16.1860 C   0  0  0  0  0  0  0  0  0  0  0  0
   16.7128   -5.3532  -16.0168 C   0  0  0  0  0  0  0  0  0  0  0  0
   15.2924   -5.6233  -15.8186 N   0  0  0  0  0  0  0  0  0  0  0  0
   21.8908   -7.0042  -15.8320 C   0  0  0  0  0  0  0  0  0  0  0  0
   22.1583   -5.6551  -15.9000 O   0  0  0  0  0  0  0  0  0  0  0  0
   22.4485   -7.6194  -14.8598 O   0  0  0  0  0  0  0  0  0  0  0  0
  2  1  1  0
  2  3  2  0
  4  2  1  0
  5  4  1  0
  5  7  1  0
  5  6  1  1
  7  8  2  0
  9 10  1  0
 10 11  1  0
 11 12  1  0
 13 12  1  1
 14  7  1  0
 14 13  1  0
 15 13  1  0
 15 16  2  0
 17 15  1  0
 18 17  1  0
 18 24  1  0
 18 19  1  1
 20 21  1  0
 20 19  1  0
 22 21  1  0
 23 22  1  0
 24 25  1  0
 26 24  2  0
M  END
$$$$
