NMK.pdb
     RDKit          3D

 26 25  0  0  1  0  0  0  0  0999 V2000
   28.7728  -20.5575  -18.2683 N   0  0  0  0  0  0  0  0  0  0  0  0
   29.2623  -21.6523  -17.5308 C   0  0  0  0  0  0  0  0  0  0  0  0
   30.2784  -22.2555  -17.9211 O   0  0  0  0  0  0  0  0  0  0  0  0
   28.5683  -22.0741  -16.3045 C   0  0  0  0  0  0  0  0  0  0  0  0
   27.4073  -21.1805  -15.9716 C   0  0  2  0  0  0  0  0  0  0  0  0
   27.9004  -19.8233  -15.8492 N   0  0  0  0  0  0  0  0  0  0  0  0
   26.6284  -21.5874  -14.8101 C   0  0  0  0  0  0  0  0  0  0  0  0
   25.9685  -22.6715  -14.8900 O   0  0  0  0  0  0  0  0  0  0  0  0
   25.5235  -20.0263   -7.0664 C   0  0  0  0  0  0  0  0  0  0  0  0
   26.4034  -19.9564   -8.5989 S   0  0  0  0  0  0  0  0  0  0  0  0
   25.5934  -20.7669   -9.9724 C   0  0  0  0  0  0  0  0  0  0  0  0
   26.3242  -20.7120  -11.2572 C   0  0  0  0  0  0  0  0  0  0  0  0
   25.6981  -21.3725  -12.4515 C   0  0  2  0  0  0  0  0  0  0  0  0
   26.5381  -20.8870  -13.5996 N   0  0  0  0  0  0  0  0  0  0  0  0
   24.3702  -20.7091  -12.7555 C   0  0  0  0  0  0  0  0  0  0  0  0
   24.3668  -19.4687  -13.0962 O   0  0  0  0  0  0  0  0  0  0  0  0
   23.1517  -21.3920  -12.6820 N   0  0  0  0  0  0  0  0  0  0  0  0
   21.9209  -20.7239  -13.1659 C   0  0  1  0  0  0  0  0  0  0  0  0
   21.5999  -21.1690  -14.5464 C   0  0  0  0  0  0  0  0  0  0  0  0
   20.3140  -20.6917  -15.1199 C   0  0  0  0  0  0  0  0  0  0  0  0
   19.9625  -21.2931  -16.4373 C   0  0  0  0  0  0  0  0  0  0  0  0
   18.7476  -20.6107  -17.0208 C   0  0  0  0  0  0  0  0  0  0  0  0
   18.5438  -21.2130  -18.3345 N   0  0  0  0  0  0  0  0  0  0  0  0
   20.9227  -20.8733  -12.1181 C   0  0  0  0  0  0  0  0  0  0  0  0
   19.9478  -19.9377  -11.8532 O   0  0  0  0  0  0  0  0  0  0  0  0
   20.9004  -21.9074  -11.3664 O   0  0  0  0  0  0  0  0  0  0  0  0
  2  1  1  0
  2  3  2  0
  4  2  1  0
  5  4  1  0
  5  7  1  0
  5  6  1  1
  7  8  2  0
  9 10  1  0
 10 11  1  0
 11 12  1  0
 13 12  1  1
 14  7  1  0
 14 13  1  0
 15 13  1  0
 15 16  2  0
 17 15  1  0
 18 17  1  0
 18 24  1  0
 18 19  1  6
 20 21  1  0
 20 19  1  0
 22 21  1  0
 23 22  1  0
 24 25  1  0
 26 24  2  0
M  END
$$$$
