NMK.pdb
     RDKit          3D

 26 25  0  0  1  0  0  0  0  0999 V2000
   29.6811  -17.6733  -17.4923 N   0  0  0  0  0  0  0  0  0  0  0  0
   28.4351  -18.0246  -16.9391 C   0  0  0  0  0  0  0  0  0  0  0  0
   27.3879  -17.5773  -17.4413 O   0  0  0  0  0  0  0  0  0  0  0  0
   28.3813  -18.9178  -15.7718 C   0  0  0  0  0  0  0  0  0  0  0  0
   27.2248  -18.6019  -14.8662 C   0  0  2  0  0  0  0  0  0  0  0  0
   27.4464  -17.2914  -14.2884 N   0  0  0  0  0  0  0  0  0  0  0  0
   26.9427  -19.6077  -13.8513 C   0  0  0  0  0  0  0  0  0  0  0  0
   27.0274  -20.8305  -14.1900 O   0  0  0  0  0  0  0  0  0  0  0  0
   28.2791  -20.0981   -7.4907 C   0  0  0  0  0  0  0  0  0  0  0  0
   26.5107  -20.0702   -7.5004 S   0  0  0  0  0  0  0  0  0  0  0  0
   25.7567  -20.5383   -9.0534 C   0  0  0  0  0  0  0  0  0  0  0  0
   26.2033  -19.7621  -10.2306 C   0  0  0  0  0  0  0  0  0  0  0  0
   26.1928  -20.4442  -11.5682 C   0  0  2  0  0  0  0  0  0  0  0  0
   26.5829  -19.3496  -12.5217 N   0  0  0  0  0  0  0  0  0  0  0  0
   24.7609  -20.7061  -11.9888 C   0  0  0  0  0  0  0  0  0  0  0  0
   24.0226  -19.7039  -12.3130 O   0  0  0  0  0  0  0  0  0  0  0  0
   24.2131  -21.9922  -12.0400 N   0  0  0  0  0  0  0  0  0  0  0  0
   22.8286  -22.1664  -12.5382 C   0  0  1  0  0  0  0  0  0  0  0  0
   22.6204  -23.5600  -13.0089 C   0  0  0  0  0  0  0  0  0  0  0  0
   22.6222  -23.7753  -14.4799 C   0  0  0  0  0  0  0  0  0  0  0  0
   22.4167  -25.1907  -14.8987 C   0  0  0  0  0  0  0  0  0  0  0  0
   22.4805  -25.3097  -16.4033 C   0  0  0  0  0  0  0  0  0  0  0  0
   22.3103  -26.7286  -16.6992 N   0  0  0  0  0  0  0  0  0  0  0  0
   21.9445  -21.6173  -11.5216 C   0  0  0  0  0  0  0  0  0  0  0  0
   20.7489  -20.9955  -11.8045 O   0  0  0  0  0  0  0  0  0  0  0  0
   22.2414  -21.6824  -10.2797 O   0  0  0  0  0  0  0  0  0  0  0  0
  2  1  1  0
  2  3  2  0
  4  2  1  0
  5  4  1  0
  5  7  1  0
  5  6  1  1
  7  8  2  0
  9 10  1  0
 10 11  1  0
 11 12  1  0
 13 12  1  1
 14  7  1  0
 14 13  1  0
 15 13  1  0
 15 16  2  0
 17 15  1  0
 18 17  1  0
 18 24  1  0
 18 19  1  1
 20 21  1  0
 20 19  1  0
 22 21  1  0
 23 22  1  0
 24 25  1  0
 26 24  2  0
M  END
$$$$
