NMK.pdb
     RDKit          3D

 26 25  0  0  1  0  0  0  0  0999 V2000
   20.3173  -10.9535  -21.3845 N   0  0  0  0  0  0  0  0  0  0  0  0
   20.1941  -11.8142  -20.2773 C   0  0  0  0  0  0  0  0  0  0  0  0
   19.8533  -12.9985  -20.4502 O   0  0  0  0  0  0  0  0  0  0  0  0
   20.4694  -11.3062  -18.9247 C   0  0  0  0  0  0  0  0  0  0  0  0
   21.6931  -11.9335  -18.3193 C   0  0  2  0  0  0  0  0  0  0  0  0
   21.4194  -13.3393  -18.0979 N   0  0  0  0  0  0  0  0  0  0  0  0
   22.1939  -11.2772  -17.1195 C   0  0  0  0  0  0  0  0  0  0  0  0
   21.6546  -11.5822  -16.0089 O   0  0  0  0  0  0  0  0  0  0  0  0
   28.3386  -12.6823  -15.1780 C   0  0  0  0  0  0  0  0  0  0  0  0
   27.5910  -11.1583  -15.6741 S   0  0  0  0  0  0  0  0  0  0  0  0
   25.8162  -11.0843  -15.4639 C   0  0  0  0  0  0  0  0  0  0  0  0
   25.1856   -9.8093  -15.8699 C   0  0  0  0  0  0  0  0  0  0  0  0
   23.6898   -9.7070  -15.7884 C   0  0  2  0  0  0  0  0  0  0  0  0
   23.2263  -10.3306  -17.0752 N   0  0  0  0  0  0  0  0  0  0  0  0
   23.2718   -8.2649  -15.9914 C   0  0  0  0  0  0  0  0  0  0  0  0
   23.2412   -7.7967  -17.1891 O   0  0  0  0  0  0  0  0  0  0  0  0
   22.9170   -7.4259  -14.9298 N   0  0  0  0  0  0  0  0  0  0  0  0
   22.3228   -6.1013  -15.2257 C   0  0  1  0  0  0  0  0  0  0  0  0
   21.2170   -6.2387  -16.2081 C   0  0  0  0  0  0  0  0  0  0  0  0
   20.3764   -5.0346  -16.4402 C   0  0  0  0  0  0  0  0  0  0  0  0
   19.2804   -5.2264  -17.4316 C   0  0  0  0  0  0  0  0  0  0  0  0
   18.5095   -3.9409  -17.6202 C   0  0  0  0  0  0  0  0  0  0  0  0
   17.4692   -4.2393  -18.5993 N   0  0  0  0  0  0  0  0  0  0  0  0
   22.0635   -5.4621  -13.9447 C   0  0  0  0  0  0  0  0  0  0  0  0
   22.0897   -6.1281  -12.7398 O   0  0  0  0  0  0  0  0  0  0  0  0
   21.7872   -4.2160  -13.8697 O   0  0  0  0  0  0  0  0  0  0  0  0
  2  1  1  0
  2  3  2  0
  4  2  1  0
  5  4  1  0
  5  7  1  0
  5  6  1  1
  7  8  2  0
  9 10  1  0
 10 11  1  0
 11 12  1  0
 13 12  1  6
 14  7  1  0
 14 13  1  0
 15 13  1  0
 15 16  2  0
 17 15  1  0
 18 17  1  0
 18 24  1  0
 18 19  1  1
 20 21  1  0
 20 19  1  0
 22 21  1  0
 23 22  1  0
 24 25  1  0
 26 24  2  0
M  END
$$$$
