NMK.pdb
     RDKit          3D

 26 25  0  0  1  0  0  0  0  0999 V2000
   18.4090  -29.7989  -13.1785 N   0  0  0  0  0  0  0  0  0  0  0  0
   19.7726  -29.6466  -12.8633 C   0  0  0  0  0  0  0  0  0  0  0  0
   20.6153  -30.3985  -13.3861 O   0  0  0  0  0  0  0  0  0  0  0  0
   20.1901  -28.5996  -11.9184 C   0  0  0  0  0  0  0  0  0  0  0  0
   19.0247  -27.8122  -11.3901 C   0  0  2  0  0  0  0  0  0  0  0  0
   18.4161  -27.1044  -12.4987 N   0  0  0  0  0  0  0  0  0  0  0  0
   19.3328  -26.9253  -10.2767 C   0  0  0  0  0  0  0  0  0  0  0  0
   19.9629  -27.4150   -9.2865 O   0  0  0  0  0  0  0  0  0  0  0  0
   20.0057  -19.2070   -8.4285 C   0  0  0  0  0  0  0  0  0  0  0  0
   19.5953  -20.5560   -9.4961 S   0  0  0  0  0  0  0  0  0  0  0  0
   19.6371  -22.1692   -8.7245 C   0  0  0  0  0  0  0  0  0  0  0  0
   19.3669  -23.3081   -9.6290 C   0  0  0  0  0  0  0  0  0  0  0  0
   19.4484  -24.6945   -9.0582 C   0  0  2  0  0  0  0  0  0  0  0  0
   18.9956  -25.5675  -10.1949 N   0  0  0  0  0  0  0  0  0  0  0  0
   18.3232  -24.8967   -8.0638 C   0  0  0  0  0  0  0  0  0  0  0  0
   17.1340  -25.0928   -8.5131 O   0  0  0  0  0  0  0  0  0  0  0  0
   18.5275  -24.8803   -6.6801 N   0  0  0  0  0  0  0  0  0  0  0  0
   17.4156  -25.2727   -5.7828 C   0  0  1  0  0  0  0  0  0  0  0  0
   17.9481  -25.8650   -4.5287 C   0  0  0  0  0  0  0  0  0  0  0  0
   16.9483  -26.2870   -3.5125 C   0  0  0  0  0  0  0  0  0  0  0  0
   17.5253  -26.9848   -2.3289 C   0  0  0  0  0  0  0  0  0  0  0  0
   16.4290  -27.4012   -1.3765 C   0  0  0  0  0  0  0  0  0  0  0  0
   17.0945  -28.1055   -0.2851 N   0  0  0  0  0  0  0  0  0  0  0  0
   16.5153  -24.1324   -5.7069 C   0  0  0  0  0  0  0  0  0  0  0  0
   15.1709  -24.2382   -5.4285 O   0  0  0  0  0  0  0  0  0  0  0  0
   16.9364  -22.9412   -5.9032 O   0  0  0  0  0  0  0  0  0  0  0  0
  2  1  1  0
  2  3  2  0
  4  2  1  0
  5  4  1  0
  5  7  1  0
  5  6  1  6
  7  8  2  0
  9 10  1  0
 10 11  1  0
 11 12  1  0
 13 12  1  6
 14  7  1  0
 14 13  1  0
 15 13  1  0
 15 16  2  0
 17 15  1  0
 18 17  1  0
 18 24  1  0
 18 19  1  1
 20 21  1  0
 20 19  1  0
 22 21  1  0
 23 22  1  0
 24 25  1  0
 26 24  2  0
M  END
$$$$
