PDI.pdb
     RDKit          3D

 24 24  0  0  1  0  0  0  0  0999 V2000
   16.7657  -11.5354  -14.7622 N   0  0  0  0  0  0  0  0  0  0  0  0
   15.8833  -12.6636  -14.5229 C   0  0  0  0  0  0  0  0  0  0  0  0
   14.9219  -12.7265  -15.6848 C   0  0  0  0  0  0  0  0  0  0  0  0
   15.2220  -11.4444  -16.4307 C   0  0  0  0  0  0  0  0  0  0  0  0
   16.7151  -11.3141  -16.2031 C   0  0  1  0  0  0  0  0  0  0  0  0
   17.2062   -9.9507  -16.5484 C   0  0  0  0  0  0  0  0  0  0  0  0
   17.1924   -9.5355  -17.7362 O   0  0  0  0  0  0  0  0  0  0  0  0
   17.6893   -9.1324  -15.5069 N   0  0  0  0  0  0  0  0  0  0  0  0
   18.1261   -7.7801  -15.5481 C   0  0  1  0  0  0  0  0  0  0  0  0
   17.1379   -6.7769  -16.1213 C   0  0  0  0  0  0  0  0  0  0  0  0
   17.6596   -5.3843  -16.0075 C   0  0  0  0  0  0  0  0  0  0  0  0
   18.5960   -5.0460  -16.8064 O   0  0  0  0  0  0  0  0  0  0  0  0
   18.8793   -7.2945  -14.3954 C   0  0  0  0  0  0  0  0  0  0  0  0
   18.3792   -7.2274  -13.2509 O   0  0  0  0  0  0  0  0  0  0  0  0
   17.2115   -4.4523  -15.1175 O   0  0  0  0  0  0  0  0  0  0  0  0
   23.7142   -9.3592  -14.0307 C   0  0  0  0  0  0  0  0  0  0  0  0
   22.8569   -8.1606  -14.3230 C   0  0  0  0  0  0  0  0  0  0  0  0
   21.9077   -7.9637  -13.1501 C   0  0  2  0  0  0  0  0  0  0  0  0
   20.9830   -9.1598  -13.1106 C   0  0  0  0  0  0  0  0  0  0  0  0
   21.0504   -6.7299  -13.3782 C   0  0  2  0  0  0  0  0  0  0  0  0
   20.2266   -6.8796  -14.5557 N   0  0  0  0  0  0  0  0  0  0  0  0
   21.8496   -5.4877  -13.4110 C   0  0  0  0  0  0  0  0  0  0  0  0
   21.7908   -4.6954  -14.5508 O   0  0  0  0  0  0  0  0  0  0  0  0
   22.5726   -5.1252  -12.4559 O   0  0  0  0  0  0  0  0  0  0  0  0
  1  5  1  0
  1  2  1  0
  2  3  1  0
  4  5  1  0
  4  3  1  0
  6  7  2  0
  5  6  1  1
  8  6  1  0
  9 13  1  0
  9  8  1  0
  9 10  1  1
 11 10  1  0
 12 11  2  0
 13 21  1  0
 14 13  2  0
 15 11  1  0
 16 17  1  0
 18 17  1  0
 18 20  1  0
 18 19  1  6
 20 22  1  0
 20 21  1  6
 22 24  2  0
 22 23  1  0
M  END
$$$$
