PDI.pdb
     RDKit          3D

 24 24  0  0  1  0  0  0  0  0999 V2000
   23.0148  -12.8415  -17.0465 N   0  0  0  0  0  0  0  0  0  0  0  0
   23.9902  -13.9163  -17.0001 C   0  0  0  0  0  0  0  0  0  0  0  0
   25.2828  -13.3183  -16.5004 C   0  0  0  0  0  0  0  0  0  0  0  0
   24.9784  -11.8359  -16.4911 C   0  0  0  0  0  0  0  0  0  0  0  0
   23.5110  -11.8392  -16.1101 C   0  0  1  0  0  0  0  0  0  0  0  0
   22.8753  -10.5158  -16.3627 C   0  0  0  0  0  0  0  0  0  0  0  0
   23.3387   -9.7251  -17.2248 O   0  0  0  0  0  0  0  0  0  0  0  0
   21.7359  -10.1687  -15.6083 N   0  0  0  0  0  0  0  0  0  0  0  0
   20.9161   -9.0101  -15.6899 C   0  0  1  0  0  0  0  0  0  0  0  0
   19.4241   -9.2338  -15.5012 C   0  0  0  0  0  0  0  0  0  0  0  0
   18.9442  -10.3791  -16.3274 C   0  0  0  0  0  0  0  0  0  0  0  0
   19.0240  -10.2562  -17.5955 O   0  0  0  0  0  0  0  0  0  0  0  0
   21.4281   -7.7940  -15.0647 C   0  0  0  0  0  0  0  0  0  0  0  0
   21.6494   -7.7169  -13.8361 O   0  0  0  0  0  0  0  0  0  0  0  0
   18.4295  -11.5404  -15.8293 O   0  0  0  0  0  0  0  0  0  0  0  0
   25.2087   -5.0675  -17.5584 C   0  0  0  0  0  0  0  0  0  0  0  0
   24.3209   -5.7616  -16.5649 C   0  0  0  0  0  0  0  0  0  0  0  0
   23.2436   -4.7791  -16.1295 C   0  0  2  0  0  0  0  0  0  0  0  0
   23.9196   -3.6970  -15.3175 C   0  0  0  0  0  0  0  0  0  0  0  0
   22.2432   -5.4750  -15.2217 C   0  0  2  0  0  0  0  0  0  0  0  0
   21.6913   -6.6483  -15.8592 N   0  0  0  0  0  0  0  0  0  0  0  0
   21.1918   -4.5579  -14.7356 C   0  0  0  0  0  0  0  0  0  0  0  0
   21.3203   -4.0244  -13.4592 O   0  0  0  0  0  0  0  0  0  0  0  0
   20.1963   -4.2457  -15.4270 O   0  0  0  0  0  0  0  0  0  0  0  0
  1  5  1  0
  1  2  1  0
  2  3  1  0
  4  5  1  0
  4  3  1  0
  6  7  2  0
  5  6  1  6
  8  6  1  0
  9 13  1  0
  9  8  1  0
  9 10  1  1
 11 10  1  0
 12 11  2  0
 13 21  1  0
 14 13  2  0
 15 11  1  0
 16 17  1  0
 18 17  1  0
 18 20  1  0
 18 19  1  1
 20 22  1  0
 20 21  1  6
 22 24  2  0
 22 23  1  0
M  END
$$$$
