PDI.pdb
     RDKit          3D

 24 24  0  0  1  0  0  0  0  0999 V2000
   16.8526  -13.3377  -17.9063 N   0  0  0  0  0  0  0  0  0  0  0  0
   16.3757  -14.5585  -18.5317 C   0  0  0  0  0  0  0  0  0  0  0  0
   17.3035  -14.8557  -19.6845 C   0  0  0  0  0  0  0  0  0  0  0  0
   18.1598  -13.6095  -19.7482 C   0  0  0  0  0  0  0  0  0  0  0  0
   18.2595  -13.2456  -18.2800 C   0  0  1  0  0  0  0  0  0  0  0  0
   18.7692  -11.8585  -18.0916 C   0  0  0  0  0  0  0  0  0  0  0  0
   19.9831  -11.5810  -18.2727 O   0  0  0  0  0  0  0  0  0  0  0  0
   17.8539  -10.8588  -17.7035 N   0  0  0  0  0  0  0  0  0  0  0  0
   18.0807   -9.4824  -17.4297 C   0  0  1  0  0  0  0  0  0  0  0  0
   16.9588   -8.5316  -17.8158 C   0  0  0  0  0  0  0  0  0  0  0  0
   17.3281   -7.1172  -17.5201 C   0  0  0  0  0  0  0  0  0  0  0  0
   18.1752   -6.5618  -18.2970 O   0  0  0  0  0  0  0  0  0  0  0  0
   18.7370   -9.1602  -16.1658 C   0  0  0  0  0  0  0  0  0  0  0  0
   18.2153   -9.4159  -15.0582 O   0  0  0  0  0  0  0  0  0  0  0  0
   16.8295   -6.3791  -16.4865 O   0  0  0  0  0  0  0  0  0  0  0  0
   23.4037  -10.4944  -13.2430 C   0  0  0  0  0  0  0  0  0  0  0  0
   22.4628   -9.3353  -13.4106 C   0  0  0  0  0  0  0  0  0  0  0  0
   21.7438   -9.5014  -14.7414 C   0  0  2  0  0  0  0  0  0  0  0  0
   22.7759   -9.3451  -15.8357 C   0  0  0  0  0  0  0  0  0  0  0  0
   20.7180   -8.3943  -14.9183 C   0  0  2  0  0  0  0  0  0  0  0  0
   20.0111   -8.5359  -16.1705 N   0  0  0  0  0  0  0  0  0  0  0  0
   21.3087   -7.0494  -14.7604 C   0  0  0  0  0  0  0  0  0  0  0  0
   21.3254   -6.2027  -15.8619 O   0  0  0  0  0  0  0  0  0  0  0  0
   21.7910   -6.6472  -13.6778 O   0  0  0  0  0  0  0  0  0  0  0  0
  1  5  1  0
  1  2  1  0
  2  3  1  0
  4  5  1  0
  4  3  1  0
  6  7  2  0
  5  6  1  6
  8  6  1  0
  9 13  1  0
  9  8  1  0
  9 10  1  1
 11 10  1  0
 12 11  2  0
 13 21  1  0
 14 13  2  0
 15 11  1  0
 16 17  1  0
 18 17  1  0
 18 20  1  0
 18 19  1  6
 20 22  1  0
 20 21  1  6
 22 24  2  0
 22 23  1  0
M  END
$$$$
