PDI.pdb
     RDKit          3D

 24 24  0  0  1  0  0  0  0  0999 V2000
   27.9155  -20.3599  -15.9114 N   0  0  0  0  0  0  0  0  0  0  0  0
   28.4130  -20.1122  -17.2530 C   0  0  0  0  0  0  0  0  0  0  0  0
   28.3642  -18.6199  -17.4735 C   0  0  0  0  0  0  0  0  0  0  0  0
   27.6188  -18.1302  -16.2509 C   0  0  0  0  0  0  0  0  0  0  0  0
   28.1102  -19.1031  -15.1973 C   0  0  1  0  0  0  0  0  0  0  0  0
   27.2681  -19.0540  -13.9694 C   0  0  0  0  0  0  0  0  0  0  0  0
   27.1776  -18.0028  -13.2839 O   0  0  0  0  0  0  0  0  0  0  0  0
   26.5714  -20.2201  -13.5917 N   0  0  0  0  0  0  0  0  0  0  0  0
   25.4873  -20.3718  -12.6848 C   0  0  1  0  0  0  0  0  0  0  0  0
   24.1642  -20.8087  -13.2934 C   0  0  0  0  0  0  0  0  0  0  0  0
   23.0584  -20.7166  -12.2969 C   0  0  0  0  0  0  0  0  0  0  0  0
   22.8361  -21.7468  -11.5766 O   0  0  0  0  0  0  0  0  0  0  0  0
   25.7881  -20.9816  -11.3926 C   0  0  0  0  0  0  0  0  0  0  0  0
   26.0268  -22.2033  -11.2701 O   0  0  0  0  0  0  0  0  0  0  0  0
   22.2725  -19.6186  -12.1008 O   0  0  0  0  0  0  0  0  0  0  0  0
   28.6084  -19.6952   -6.2403 C   0  0  0  0  0  0  0  0  0  0  0  0
   27.6457  -20.6056   -6.9482 C   0  0  0  0  0  0  0  0  0  0  0  0
   27.1417  -19.8841   -8.1895 C   0  0  2  0  0  0  0  0  0  0  0  0
   26.3354  -18.6923   -7.7239 C   0  0  0  0  0  0  0  0  0  0  0  0
   26.2073  -20.7909   -8.9730 C   0  0  2  0  0  0  0  0  0  0  0  0
   25.8164  -20.1797  -10.2225 N   0  0  0  0  0  0  0  0  0  0  0  0
   25.0415  -21.2223   -8.1745 C   0  0  0  0  0  0  0  0  0  0  0  0
   23.7749  -20.8346   -8.5937 O   0  0  0  0  0  0  0  0  0  0  0  0
   25.1523  -21.9200   -7.1414 O   0  0  0  0  0  0  0  0  0  0  0  0
  1  5  1  0
  1  2  1  0
  2  3  1  0
  4  5  1  0
  4  3  1  0
  6  7  2  0
  5  6  1  1
  8  6  1  0
  9 13  1  0
  9  8  1  0
  9 10  1  6
 11 10  1  0
 12 11  2  0
 13 21  1  0
 14 13  2  0
 15 11  1  0
 16 17  1  0
 18 17  1  0
 18 20  1  0
 18 19  1  1
 20 22  1  0
 20 21  1  6
 22 24  2  0
 22 23  1  0
M  END
$$$$
