PDI.pdb
     RDKit          3D

 24 24  0  0  1  0  0  0  0  0999 V2000
   27.5901  -18.8596  -18.3546 N   0  0  0  0  0  0  0  0  0  0  0  0
   28.7564  -18.4701  -19.1272 C   0  0  0  0  0  0  0  0  0  0  0  0
   29.6013  -17.5903  -18.2382 C   0  0  0  0  0  0  0  0  0  0  0  0
   28.7049  -17.3769  -17.0378 C   0  0  0  0  0  0  0  0  0  0  0  0
   27.9933  -18.7133  -16.9605 C   0  0  1  0  0  0  0  0  0  0  0  0
   26.8028  -18.6505  -16.0672 C   0  0  0  0  0  0  0  0  0  0  0  0
   26.9237  -18.4136  -14.8373 O   0  0  0  0  0  0  0  0  0  0  0  0
   25.5305  -18.8640  -16.6360 N   0  0  0  0  0  0  0  0  0  0  0  0
   24.2497  -18.8447  -16.0194 C   0  0  1  0  0  0  0  0  0  0  0  0
   23.0760  -18.5182  -16.9291 C   0  0  0  0  0  0  0  0  0  0  0  0
   23.3535  -17.3032  -17.7484 C   0  0  0  0  0  0  0  0  0  0  0  0
   23.6323  -16.2278  -17.1196 O   0  0  0  0  0  0  0  0  0  0  0  0
   23.9769  -19.8849  -15.0317 C   0  0  0  0  0  0  0  0  0  0  0  0
   23.8737  -21.0917  -15.3439 O   0  0  0  0  0  0  0  0  0  0  0  0
   23.3310  -17.2583  -19.1119 O   0  0  0  0  0  0  0  0  0  0  0  0
   26.9949  -20.6198  -10.9274 C   0  0  0  0  0  0  0  0  0  0  0  0
   26.0443  -20.7213  -12.0863 C   0  0  0  0  0  0  0  0  0  0  0  0
   24.6360  -20.4812  -11.5622 C   0  0  2  0  0  0  0  0  0  0  0  0
   24.3284  -21.5814  -10.5712 C   0  0  0  0  0  0  0  0  0  0  0  0
   23.6333  -20.5953  -12.6984 C   0  0  2  0  0  0  0  0  0  0  0  0
   23.8204  -19.5377  -13.6649 N   0  0  0  0  0  0  0  0  0  0  0  0
   22.2396  -20.6676  -12.2136 C   0  0  0  0  0  0  0  0  0  0  0  0
   21.7228  -21.9118  -11.8744 O   0  0  0  0  0  0  0  0  0  0  0  0
   21.5122  -19.6556  -12.0978 O   0  0  0  0  0  0  0  0  0  0  0  0
  1  5  1  0
  1  2  1  0
  2  3  1  0
  4  5  1  0
  4  3  1  0
  6  7  2  0
  5  6  1  1
  8  6  1  0
  9 13  1  0
  9  8  1  0
  9 10  1  6
 11 10  1  0
 12 11  2  0
 13 21  1  0
 14 13  2  0
 15 11  1  0
 16 17  1  0
 18 17  1  0
 18 20  1  0
 18 19  1  1
 20 22  1  0
 20 21  1  6
 22 24  2  0
 22 23  1  0
M  END
$$$$
