PDI.pdb
     RDKit          3D

 24 24  0  0  1  0  0  0  0  0999 V2000
   26.4321  -20.4953  -12.4593 N   0  0  0  0  0  0  0  0  0  0  0  0
   27.6897  -21.0952  -12.0505 C   0  0  0  0  0  0  0  0  0  0  0  0
   28.6262  -21.0054  -13.2308 C   0  0  0  0  0  0  0  0  0  0  0  0
   27.7165  -20.5162  -14.3368 C   0  0  0  0  0  0  0  0  0  0  0  0
   26.7770  -19.6099  -13.5660 C   0  0  1  0  0  0  0  0  0  0  0  0
   25.5687  -19.2641  -14.3657 C   0  0  0  0  0  0  0  0  0  0  0  0
   25.6483  -18.5174  -15.3754 O   0  0  0  0  0  0  0  0  0  0  0  0
   24.3271  -19.7962  -13.9619 N   0  0  0  0  0  0  0  0  0  0  0  0
   23.0560  -19.7039  -14.5918 C   0  0  1  0  0  0  0  0  0  0  0  0
   22.1883  -20.9508  -14.5295 C   0  0  0  0  0  0  0  0  0  0  0  0
   20.9098  -20.7530  -15.2717 C   0  0  0  0  0  0  0  0  0  0  0  0
   19.9580  -20.1740  -14.6483 O   0  0  0  0  0  0  0  0  0  0  0  0
   22.3254  -18.4510  -14.4234 C   0  0  0  0  0  0  0  0  0  0  0  0
   21.9972  -18.0153  -13.2978 O   0  0  0  0  0  0  0  0  0  0  0  0
   20.6855  -21.1433  -16.5596 O   0  0  0  0  0  0  0  0  0  0  0  0
   22.9571  -12.8979  -15.7239 C   0  0  0  0  0  0  0  0  0  0  0  0
   21.8830  -13.9102  -15.4444 C   0  0  0  0  0  0  0  0  0  0  0  0
   22.4715  -15.2953  -15.6695 C   0  0  2  0  0  0  0  0  0  0  0  0
   22.8174  -15.4067  -17.1375 C   0  0  0  0  0  0  0  0  0  0  0  0
   21.4293  -16.3578  -15.3629 C   0  0  2  0  0  0  0  0  0  0  0  0
   21.9654  -17.6847  -15.5620 N   0  0  0  0  0  0  0  0  0  0  0  0
   20.1730  -16.1460  -16.1110 C   0  0  0  0  0  0  0  0  0  0  0  0
   19.2031  -15.3232  -15.5520 O   0  0  0  0  0  0  0  0  0  0  0  0
   19.9521  -16.6768  -17.2227 O   0  0  0  0  0  0  0  0  0  0  0  0
  1  5  1  0
  1  2  1  0
  2  3  1  0
  4  5  1  0
  4  3  1  0
  6  7  2  0
  5  6  1  6
  8  6  1  0
  9 13  1  0
  9  8  1  0
  9 10  1  1
 11 10  1  0
 12 11  2  0
 13 21  1  0
 14 13  2  0
 15 11  1  0
 16 17  1  0
 18 17  1  0
 18 20  1  0
 18 19  1  6
 20 22  1  0
 20 21  1  6
 22 24  2  0
 22 23  1  0
M  END
$$$$
