PDI.pdb
     RDKit          3D

 24 24  0  0  1  0  0  0  0  0999 V2000
   17.4639  -12.2088  -16.5919 N   0  0  0  0  0  0  0  0  0  0  0  0
   16.8568  -13.4124  -17.1318 C   0  0  0  0  0  0  0  0  0  0  0  0
   17.8687  -14.0394  -18.0597 C   0  0  0  0  0  0  0  0  0  0  0  0
   18.9501  -12.9831  -18.1304 C   0  0  0  0  0  0  0  0  0  0  0  0
   18.9014  -12.4176  -16.7246 C   0  0  1  0  0  0  0  0  0  0  0  0
   19.6369  -11.1258  -16.6269 C   0  0  0  0  0  0  0  0  0  0  0  0
   20.8914  -11.0829  -16.7137 O   0  0  0  0  0  0  0  0  0  0  0  0
   18.8894   -9.9460  -16.4336 N   0  0  0  0  0  0  0  0  0  0  0  0
   19.3372   -8.6028  -16.3058 C   0  0  1  0  0  0  0  0  0  0  0  0
   18.6572   -7.5843  -17.2069 C   0  0  0  0  0  0  0  0  0  0  0  0
   19.3232   -6.2532  -17.1108 C   0  0  0  0  0  0  0  0  0  0  0  0
   20.5223   -6.1695  -17.5405 O   0  0  0  0  0  0  0  0  0  0  0  0
   19.6122   -8.1245  -14.9540 C   0  0  0  0  0  0  0  0  0  0  0  0
   18.7397   -8.1172  -14.0577 O   0  0  0  0  0  0  0  0  0  0  0  0
   18.7475   -5.1264  -16.6003 O   0  0  0  0  0  0  0  0  0  0  0  0
   22.8518   -9.6245  -10.5951 C   0  0  0  0  0  0  0  0  0  0  0  0
   22.2724   -8.3658  -11.1754 C   0  0  0  0  0  0  0  0  0  0  0  0
   21.9268   -8.6351  -12.6327 C   0  0  2  0  0  0  0  0  0  0  0  0
   23.2284   -8.8259  -13.3785 C   0  0  0  0  0  0  0  0  0  0  0  0
   21.2289   -7.4256  -13.2322 C   0  0  2  0  0  0  0  0  0  0  0  0
   20.9068   -7.6477  -14.6231 N   0  0  0  0  0  0  0  0  0  0  0  0
   21.9927   -6.1773  -13.0291 C   0  0  0  0  0  0  0  0  0  0  0  0
   22.3774   -5.4498  -14.1485 O   0  0  0  0  0  0  0  0  0  0  0  0
   22.3035   -5.7538  -11.8931 O   0  0  0  0  0  0  0  0  0  0  0  0
  1  5  1  0
  1  2  1  0
  2  3  1  0
  4  5  1  0
  4  3  1  0
  6  7  2  0
  5  6  1  6
  8  6  1  0
  9 13  1  0
  9  8  1  0
  9 10  1  1
 11 10  1  0
 12 11  2  0
 13 21  1  0
 14 13  2  0
 15 11  1  0
 16 17  1  0
 18 17  1  0
 18 20  1  0
 18 19  1  6
 20 22  1  0
 20 21  1  6
 22 24  2  0
 22 23  1  0
M  END
$$$$
