PDI.pdb
     RDKit          3D

 24 24  0  0  1  0  0  0  0  0999 V2000
   17.2260  -13.5222  -18.3558 N   0  0  0  0  0  0  0  0  0  0  0  0
   16.7282  -14.7038  -19.0376 C   0  0  0  0  0  0  0  0  0  0  0  0
   17.6378  -14.9493  -20.2168 C   0  0  0  0  0  0  0  0  0  0  0  0
   18.5063  -13.7100  -20.2268 C   0  0  0  0  0  0  0  0  0  0  0  0
   18.6289  -13.4245  -18.7430 C   0  0  1  0  0  0  0  0  0  0  0  0
   19.1556  -12.0543  -18.4893 C   0  0  0  0  0  0  0  0  0  0  0  0
   20.3685  -11.7779  -18.6785 O   0  0  0  0  0  0  0  0  0  0  0  0
   18.2575  -11.0694  -18.0297 N   0  0  0  0  0  0  0  0  0  0  0  0
   18.4811   -9.6878  -17.7803 C   0  0  1  0  0  0  0  0  0  0  0  0
   17.3415   -8.7506  -18.1474 C   0  0  0  0  0  0  0  0  0  0  0  0
   17.7428   -7.3244  -17.9756 C   0  0  0  0  0  0  0  0  0  0  0  0
   18.4306   -7.0335  -16.9403 O   0  0  0  0  0  0  0  0  0  0  0  0
   19.1695   -9.3440  -16.5394 C   0  0  0  0  0  0  0  0  0  0  0  0
   18.6704   -9.5681  -15.4146 O   0  0  0  0  0  0  0  0  0  0  0  0
   17.4299   -6.3152  -18.8389 O   0  0  0  0  0  0  0  0  0  0  0  0
   23.5769  -11.3920  -15.1835 C   0  0  0  0  0  0  0  0  0  0  0  0
   22.2491  -10.7133  -15.3660 C   0  0  0  0  0  0  0  0  0  0  0  0
   22.4768   -9.2100  -15.3058 C   0  0  2  0  0  0  0  0  0  0  0  0
   23.1238   -8.9034  -13.9736 C   0  0  0  0  0  0  0  0  0  0  0  0
   21.1438   -8.4815  -15.3455 C   0  0  2  0  0  0  0  0  0  0  0  0
   20.4499   -8.7346  -16.5873 N   0  0  0  0  0  0  0  0  0  0  0  0
   21.2836   -7.0369  -15.0693 C   0  0  0  0  0  0  0  0  0  0  0  0
   21.2684   -6.6137  -13.7460 O   0  0  0  0  0  0  0  0  0  0  0  0
   21.4149   -6.1859  -15.9776 O   0  0  0  0  0  0  0  0  0  0  0  0
  1  5  1  0
  1  2  1  0
  2  3  1  0
  4  5  1  0
  4  3  1  0
  6  7  2  0
  5  6  1  6
  8  6  1  0
  9 13  1  0
  9  8  1  0
  9 10  1  1
 11 10  1  0
 12 11  2  0
 13 21  1  0
 14 13  2  0
 15 11  1  0
 16 17  1  0
 18 17  1  0
 18 20  1  0
 18 19  1  1
 20 22  1  0
 20 21  1  6
 22 24  2  0
 22 23  1  0
M  END
$$$$
