PDI.pdb
     RDKit          3D

 24 24  0  0  1  0  0  0  0  0999 V2000
   16.4642  -11.6512  -15.7629 N   0  0  0  0  0  0  0  0  0  0  0  0
   15.9213  -12.8970  -16.2748 C   0  0  0  0  0  0  0  0  0  0  0  0
   16.8117  -13.3319  -17.4133 C   0  0  0  0  0  0  0  0  0  0  0  0
   17.7207  -12.1359  -17.5962 C   0  0  0  0  0  0  0  0  0  0  0  0
   17.8660  -11.6551  -16.1659 C   0  0  1  0  0  0  0  0  0  0  0  0
   18.4402  -10.2819  -16.1040 C   0  0  0  0  0  0  0  0  0  0  0  0
   19.6242  -10.0547  -16.4642 O   0  0  0  0  0  0  0  0  0  0  0  0
   17.6206   -9.2374  -15.6295 N   0  0  0  0  0  0  0  0  0  0  0  0
   17.9106   -7.8526  -15.4904 C   0  0  1  0  0  0  0  0  0  0  0  0
   16.7093   -6.9254  -15.3967 C   0  0  0  0  0  0  0  0  0  0  0  0
   15.6862   -7.2664  -16.4270 C   0  0  0  0  0  0  0  0  0  0  0  0
   14.6013   -7.7993  -16.0164 O   0  0  0  0  0  0  0  0  0  0  0  0
   19.0190   -7.4957  -14.6095 C   0  0  0  0  0  0  0  0  0  0  0  0
   19.0610   -7.8517  -13.4111 O   0  0  0  0  0  0  0  0  0  0  0  0
   15.8250   -7.0516  -17.7672 O   0  0  0  0  0  0  0  0  0  0  0  0
   23.4218   -9.6260  -14.0392 C   0  0  0  0  0  0  0  0  0  0  0  0
   22.2816   -8.7103  -13.6954 C   0  0  0  0  0  0  0  0  0  0  0  0
   22.3600   -7.4971  -14.6105 C   0  0  2  0  0  0  0  0  0  0  0  0
   23.6791   -6.8094  -14.3381 C   0  0  0  0  0  0  0  0  0  0  0  0
   21.2523   -6.5153  -14.2663 C   0  0  2  0  0  0  0  0  0  0  0  0
   20.0964   -6.7192  -15.1088 N   0  0  0  0  0  0  0  0  0  0  0  0
   21.7170   -5.1130  -14.2870 C   0  0  0  0  0  0  0  0  0  0  0  0
   22.5468   -4.6777  -13.2612 O   0  0  0  0  0  0  0  0  0  0  0  0
   21.3931   -4.3082  -15.1891 O   0  0  0  0  0  0  0  0  0  0  0  0
  1  5  1  0
  1  2  1  0
  2  3  1  0
  4  5  1  0
  4  3  1  0
  6  7  2  0
  5  6  1  6
  8  6  1  0
  9 13  1  0
  9  8  1  0
  9 10  1  1
 11 10  1  0
 12 11  2  0
 13 21  1  0
 14 13  2  0
 15 11  1  0
 16 17  1  0
 18 17  1  0
 18 20  1  0
 18 19  1  1
 20 22  1  0
 20 21  1  6
 22 24  2  0
 22 23  1  0
M  END
$$$$
