PDI.pdb
     RDKit          3D

 24 24  0  0  1  0  0  0  0  0999 V2000
   44.6489  -11.3789   -8.2884 N   0  0  0  0  0  0  0  0  0  0  0  0
   45.5758  -12.4827   -8.1121 C   0  0  0  0  0  0  0  0  0  0  0  0
   45.6346  -12.7781   -6.6331 C   0  0  0  0  0  0  0  0  0  0  0  0
   44.8487  -11.6308   -6.0363 C   0  0  0  0  0  0  0  0  0  0  0  0
   43.7968  -11.4074   -7.1049 C   0  0  1  0  0  0  0  0  0  0  0  0
   43.0973  -10.1048   -6.9228 C   0  0  0  0  0  0  0  0  0  0  0  0
   42.2784   -9.9315   -5.9832 O   0  0  0  0  0  0  0  0  0  0  0  0
   43.3764   -9.0651   -7.8333 N   0  0  0  0  0  0  0  0  0  0  0  0
   42.8810   -7.7330   -7.8641 C   0  0  1  0  0  0  0  0  0  0  0  0
   43.8849   -6.6564   -8.2445 C   0  0  0  0  0  0  0  0  0  0  0  0
   43.3106   -5.2937   -8.0495 C   0  0  0  0  0  0  0  0  0  0  0  0
   42.9635   -4.9722   -6.8639 O   0  0  0  0  0  0  0  0  0  0  0  0
   41.5459   -7.5380   -8.4223 C   0  0  0  0  0  0  0  0  0  0  0  0
   41.2123   -8.0040   -9.5341 O   0  0  0  0  0  0  0  0  0  0  0  0
   43.1308   -4.3725   -9.0398 O   0  0  0  0  0  0  0  0  0  0  0  0
   35.8278   -7.4161   -6.7271 C   0  0  0  0  0  0  0  0  0  0  0  0
   36.8100   -7.0172   -7.7914 C   0  0  0  0  0  0  0  0  0  0  0  0
   38.1992   -7.0081   -7.1703 C   0  0  2  0  0  0  0  0  0  0  0  0
   38.2328   -5.8889   -6.1537 C   0  0  0  0  0  0  0  0  0  0  0  0
   39.2400   -6.6935   -8.2319 C   0  0  2  0  0  0  0  0  0  0  0  0
   40.5776   -6.7981   -7.6957 N   0  0  0  0  0  0  0  0  0  0  0  0
   39.0013   -5.3898   -8.8848 C   0  0  0  0  0  0  0  0  0  0  0  0
   38.0358   -5.3179   -9.8812 O   0  0  0  0  0  0  0  0  0  0  0  0
   39.6327   -4.3545   -8.5750 O   0  0  0  0  0  0  0  0  0  0  0  0
  1  5  1  0
  1  2  1  0
  2  3  1  0
  4  5  1  0
  4  3  1  0
  6  7  2  0
  5  6  1  1
  8  6  1  0
  9 13  1  0
  9  8  1  0
  9 10  1  6
 11 10  1  0
 12 11  2  0
 13 21  1  0
 14 13  2  0
 15 11  1  0
 16 17  1  0
 18 17  1  0
 18 20  1  0
 18 19  1  1
 20 22  1  0
 20 21  1  1
 22 24  2  0
 22 23  1  0
M  END
$$$$
