PDI.pdb
     RDKit          3D

 24 24  0  0  1  0  0  0  0  0999 V2000
   19.1120  -11.5701  -18.8100 N   0  0  0  0  0  0  0  0  0  0  0  0
   18.5312  -12.8445  -19.1933 C   0  0  0  0  0  0  0  0  0  0  0  0
   18.5080  -13.7092  -17.9564 C   0  0  0  0  0  0  0  0  0  0  0  0
   19.3002  -12.8861  -16.9640 C   0  0  0  0  0  0  0  0  0  0  0  0
   18.9074  -11.4789  -17.3687 C   0  0  1  0  0  0  0  0  0  0  0  0
   19.8138  -10.4614  -16.7669 C   0  0  0  0  0  0  0  0  0  0  0  0
   19.8882  -10.3124  -15.5196 O   0  0  0  0  0  0  0  0  0  0  0  0
   20.5905   -9.6649  -17.6330 N   0  0  0  0  0  0  0  0  0  0  0  0
   21.4968   -8.6138  -17.3255 C   0  0  1  0  0  0  0  0  0  0  0  0
   22.3723   -8.1310  -18.4710 C   0  0  0  0  0  0  0  0  0  0  0  0
   22.7116   -9.2505  -19.3961 C   0  0  0  0  0  0  0  0  0  0  0  0
   22.0501   -9.3270  -20.4852 O   0  0  0  0  0  0  0  0  0  0  0  0
   21.0042   -7.5516  -16.4530 C   0  0  0  0  0  0  0  0  0  0  0  0
   19.9240   -6.9585  -16.6674 O   0  0  0  0  0  0  0  0  0  0  0  0
   23.6712  -10.1924  -19.1642 O   0  0  0  0  0  0  0  0  0  0  0  0
   20.0508   -8.4366  -11.5788 C   0  0  0  0  0  0  0  0  0  0  0  0
   20.1284   -7.9212  -12.9877 C   0  0  0  0  0  0  0  0  0  0  0  0
   21.0880   -6.7403  -13.0047 C   0  0  2  0  0  0  0  0  0  0  0  0
   20.4894   -5.6584  -12.1340 C   0  0  0  0  0  0  0  0  0  0  0  0
   21.2004   -6.1836  -14.4142 C   0  0  2  0  0  0  0  0  0  0  0  0
   21.7601   -7.1631  -15.3170 N   0  0  0  0  0  0  0  0  0  0  0  0
   21.9351   -4.9025  -14.4562 C   0  0  0  0  0  0  0  0  0  0  0  0
   23.2091   -4.8905  -15.0103 O   0  0  0  0  0  0  0  0  0  0  0  0
   21.4549   -3.8346  -14.0141 O   0  0  0  0  0  0  0  0  0  0  0  0
  1  5  1  0
  1  2  1  0
  2  3  1  0
  4  5  1  0
  4  3  1  0
  6  7  2  0
  5  6  1  1
  8  6  1  0
  9 13  1  0
  9  8  1  0
  9 10  1  6
 11 10  1  0
 12 11  2  0
 13 21  1  0
 14 13  2  0
 15 11  1  0
 16 17  1  0
 18 17  1  0
 18 20  1  0
 18 19  1  1
 20 22  1  0
 20 21  1  6
 22 24  2  0
 22 23  1  0
M  END
$$$$
