PDI.pdb
     RDKit          3D

 24 24  0  0  1  0  0  0  0  0999 V2000
   28.0717  -23.3450  -17.2938 N   0  0  0  0  0  0  0  0  0  0  0  0
   28.8896  -24.0086  -18.2935 C   0  0  0  0  0  0  0  0  0  0  0  0
   29.8937  -22.9952  -18.7863 C   0  0  0  0  0  0  0  0  0  0  0  0
   29.4142  -21.7143  -18.1386 C   0  0  0  0  0  0  0  0  0  0  0  0
   28.8859  -22.2332  -16.8157 C   0  0  1  0  0  0  0  0  0  0  0  0
   28.0440  -21.2173  -16.1243 C   0  0  0  0  0  0  0  0  0  0  0  0
   28.5508  -20.1720  -15.6407 O   0  0  0  0  0  0  0  0  0  0  0  0
   26.6581  -21.4563  -16.0242 N   0  0  0  0  0  0  0  0  0  0  0  0
   25.6373  -20.6381  -15.4679 C   0  0  1  0  0  0  0  0  0  0  0  0
   24.7404  -19.9205  -16.4640 C   0  0  0  0  0  0  0  0  0  0  0  0
   25.5322  -19.3782  -17.6057 C   0  0  0  0  0  0  0  0  0  0  0  0
   26.2393  -18.3390  -17.3826 O   0  0  0  0  0  0  0  0  0  0  0  0
   24.9414  -21.1576  -14.2941 C   0  0  0  0  0  0  0  0  0  0  0  0
   24.5149  -22.3320  -14.2359 O   0  0  0  0  0  0  0  0  0  0  0  0
   25.5552  -19.9086  -18.8626 O   0  0  0  0  0  0  0  0  0  0  0  0
   26.7645  -20.5457   -9.3968 C   0  0  0  0  0  0  0  0  0  0  0  0
   26.1015  -21.0601  -10.6428 C   0  0  0  0  0  0  0  0  0  0  0  0
   24.7139  -20.4412  -10.7273 C   0  0  2  0  0  0  0  0  0  0  0  0
   23.8975  -21.0034   -9.5851 C   0  0  0  0  0  0  0  0  0  0  0  0
   24.0375  -20.8592  -12.0223 C   0  0  2  0  0  0  0  0  0  0  0  0
   24.7312  -20.3191  -13.1690 N   0  0  0  0  0  0  0  0  0  0  0  0
   22.5971  -20.5306  -12.0363 C   0  0  0  0  0  0  0  0  0  0  0  0
   21.6996  -21.4784  -11.5604 O   0  0  0  0  0  0  0  0  0  0  0  0
   22.1587  -19.4368  -12.4579 O   0  0  0  0  0  0  0  0  0  0  0  0
  1  5  1  0
  1  2  1  0
  2  3  1  0
  4  5  1  0
  4  3  1  0
  6  7  2  0
  5  6  1  6
  8  6  1  0
  9 13  1  0
  9  8  1  0
  9 10  1  6
 11 10  1  0
 12 11  2  0
 13 21  1  0
 14 13  2  0
 15 11  1  0
 16 17  1  0
 18 17  1  0
 18 20  1  0
 18 19  1  1
 20 22  1  0
 20 21  1  6
 22 24  2  0
 22 23  1  0
M  END
$$$$
