PDI.pdb
     RDKit          3D

 24 24  0  0  1  0  0  0  0  0999 V2000
   28.3263  -18.4436  -18.1960 N   0  0  0  0  0  0  0  0  0  0  0  0
   29.3717  -17.8700  -19.0248 C   0  0  0  0  0  0  0  0  0  0  0  0
   29.4784  -16.4107  -18.6540 C   0  0  0  0  0  0  0  0  0  0  0  0
   28.2892  -16.2155  -17.7386 C   0  0  0  0  0  0  0  0  0  0  0  0
   28.2320  -17.5596  -17.0397 C   0  0  1  0  0  0  0  0  0  0  0  0
   26.9380  -17.7533  -16.3274 C   0  0  0  0  0  0  0  0  0  0  0  0
   26.6293  -17.0447  -15.3344 O   0  0  0  0  0  0  0  0  0  0  0  0
   26.0630  -18.7550  -16.7950 N   0  0  0  0  0  0  0  0  0  0  0  0
   24.7961  -19.1565  -16.2902 C   0  0  1  0  0  0  0  0  0  0  0  0
   23.6952  -19.3430  -17.3222 C   0  0  0  0  0  0  0  0  0  0  0  0
   22.3725  -19.5501  -16.6649 C   0  0  0  0  0  0  0  0  0  0  0  0
   21.8859  -20.7299  -16.6943 O   0  0  0  0  0  0  0  0  0  0  0  0
   24.7965  -20.1514  -15.2215 C   0  0  0  0  0  0  0  0  0  0  0  0
   25.0468  -21.3585  -15.4329 O   0  0  0  0  0  0  0  0  0  0  0  0
   21.6501  -18.5766  -16.0389 O   0  0  0  0  0  0  0  0  0  0  0  0
   27.7027  -20.4050  -11.0757 C   0  0  0  0  0  0  0  0  0  0  0  0
   26.7816  -20.6685  -12.2329 C   0  0  0  0  0  0  0  0  0  0  0  0
   25.3499  -20.5418  -11.7332 C   0  0  2  0  0  0  0  0  0  0  0  0
   25.1287  -21.6353  -10.7122 C   0  0  0  0  0  0  0  0  0  0  0  0
   24.3783  -20.7802  -12.8770 C   0  0  2  0  0  0  0  0  0  0  0  0
   24.5064  -19.7576  -13.8896 N   0  0  0  0  0  0  0  0  0  0  0  0
   22.9849  -20.9305  -12.4095 C   0  0  0  0  0  0  0  0  0  0  0  0
   22.6017  -22.1467  -11.8577 O   0  0  0  0  0  0  0  0  0  0  0  0
   22.1426  -20.0084  -12.4913 O   0  0  0  0  0  0  0  0  0  0  0  0
  1  5  1  0
  1  2  1  0
  2  3  1  0
  4  5  1  0
  4  3  1  0
  6  7  2  0
  5  6  1  6
  8  6  1  0
  9 13  1  0
  9  8  1  0
  9 10  1  6
 11 10  1  0
 12 11  2  0
 13 21  1  0
 14 13  2  0
 15 11  1  0
 16 17  1  0
 18 17  1  0
 18 20  1  0
 18 19  1  1
 20 22  1  0
 20 21  1  6
 22 24  2  0
 22 23  1  0
M  END
$$$$
