AVI.pdb
     RDKit          3D

 21 20  0  0  1  0  0  0  0  0999 V2000
    8.2286  -12.3287   19.4425 C   0  0  0  0  0  0  0  0  0  0  0  0
    8.2990  -13.7723   18.9769 C   0  0  2  0  0  0  0  0  0  0  0  0
    7.2798  -14.0778   18.0103 N   0  0  0  0  0  0  0  0  0  0  0  0
    8.0914  -14.6494   20.1734 C   0  0  0  0  0  0  0  0  0  0  0  0
    6.9638  -15.0977   20.4706 O   0  0  0  0  0  0  0  0  0  0  0  0
   10.1652  -17.8972   23.1380 C   0  0  0  0  0  0  0  0  0  0  0  0
   10.1696  -16.9863   21.9418 C   0  0  1  0  0  0  0  0  0  0  0  0
    9.9653  -17.8229   20.7056 C   0  0  0  0  0  0  0  0  0  0  0  0
    9.1062  -15.9188   22.0288 C   0  0  2  0  0  0  0  0  0  0  0  0
    9.2417  -14.9478   20.9558 N   0  0  0  0  0  0  0  0  0  0  0  0
    9.3362  -15.1891   23.3202 C   0  0  0  0  0  0  0  0  0  0  0  0
   10.3763  -14.5005   23.5170 O   0  0  0  0  0  0  0  0  0  0  0  0
    6.6570  -11.6103   27.1262 C   0  0  0  0  0  0  0  0  0  0  0  0
    7.7472  -12.6349   26.9245 C   0  0  0  0  0  0  0  0  0  0  0  0
    7.4888  -13.4947   25.7235 C   0  0  2  0  0  0  0  0  0  0  0  0
    6.1280  -14.1514   25.8515 C   0  0  0  0  0  0  0  0  0  0  0  0
    8.5771  -14.5207   25.5831 C   0  0  2  0  0  0  0  0  0  0  0  0
    8.3547  -15.2806   24.3409 N   0  0  0  0  0  0  0  0  0  0  0  0
    8.6349  -15.4904   26.7073 C   0  0  0  0  0  0  0  0  0  0  0  0
    8.1299  -16.6327   26.6582 O   0  0  0  0  0  0  0  0  0  0  0  0
    9.2804  -15.1294   27.8877 O   0  0  0  0  0  0  0  0  0  0  0  0
  2  1  1  1
  2  3  1  0
  4 10  1  0
  4  2  1  0
  5  4  2  0
  7  9  1  0
  7  6  1  1
  8  7  1  0
  9 11  1  0
  9 10  1  6
 11 18  1  0
 12 11  2  0
 14 13  1  0
 15 14  1  0
 15 16  1  1
 17 15  1  0
 17 18  1  6
 19 17  1  0
 19 21  1  0
 20 19  2  0
M  END
$$$$
