AVI.pdb
     RDKit          3D

 21 20  0  0  1  0  0  0  0  0999 V2000
    6.4601  -18.6893   24.6220 C   0  0  0  0  0  0  0  0  0  0  0  0
    6.3974  -18.6499   23.1054 C   0  0  2  0  0  0  0  0  0  0  0  0
    6.7919  -19.9005   22.5165 N   0  0  0  0  0  0  0  0  0  0  0  0
    7.3447  -17.5886   22.6358 C   0  0  0  0  0  0  0  0  0  0  0  0
    8.5048  -17.8633   22.2624 O   0  0  0  0  0  0  0  0  0  0  0  0
    7.8731  -12.8200   21.4316 C   0  0  0  0  0  0  0  0  0  0  0  0
    7.0132  -14.0427   21.5933 C   0  0  1  0  0  0  0  0  0  0  0  0
    6.4869  -14.4374   20.2380 C   0  0  0  0  0  0  0  0  0  0  0  0
    7.7640  -15.1947   22.2153 C   0  0  2  0  0  0  0  0  0  0  0  0
    6.8589  -16.2514   22.6357 N   0  0  0  0  0  0  0  0  0  0  0  0
    8.4252  -14.6580   23.4513 C   0  0  0  0  0  0  0  0  0  0  0  0
    9.1647  -13.6348   23.4171 O   0  0  0  0  0  0  0  0  0  0  0  0
    6.0547  -12.0284   26.2667 C   0  0  0  0  0  0  0  0  0  0  0  0
    7.2003  -12.8079   25.6676 C   0  0  0  0  0  0  0  0  0  0  0  0
    7.6555  -13.9137   26.5723 C   0  0  2  0  0  0  0  0  0  0  0  0
    8.1228  -13.3314   27.8920 C   0  0  0  0  0  0  0  0  0  0  0  0
    8.7478  -14.7031   25.9085 C   0  0  2  0  0  0  0  0  0  0  0  0
    8.2087  -15.3231   24.6859 N   0  0  0  0  0  0  0  0  0  0  0  0
    9.3078  -15.7843   26.7599 C   0  0  0  0  0  0  0  0  0  0  0  0
    8.8579  -16.9503   26.7770 O   0  0  0  0  0  0  0  0  0  0  0  0
   10.3910  -15.5070   27.5907 O   0  0  0  0  0  0  0  0  0  0  0  0
  2  1  1  1
  2  3  1  0
  4 10  1  0
  4  2  1  0
  5  4  2  0
  7  9  1  0
  7  6  1  6
  8  7  1  0
  9 11  1  0
  9 10  1  1
 11 18  1  0
 12 11  2  0
 14 13  1  0
 15 14  1  0
 15 16  1  1
 17 15  1  0
 17 18  1  6
 19 17  1  0
 19 21  1  0
 20 19  2  0
M  END
$$$$
