AVI.pdb
     RDKit          3D

 21 20  0  0  1  0  0  0  0  0999 V2000
    6.4703  -18.5273   23.8105 C   0  0  0  0  0  0  0  0  0  0  0  0
    6.3754  -18.2219   22.3261 C   0  0  2  0  0  0  0  0  0  0  0  0
    6.6871  -19.3693   21.5182 N   0  0  0  0  0  0  0  0  0  0  0  0
    7.3685  -17.1440   22.0165 C   0  0  0  0  0  0  0  0  0  0  0  0
    8.5792  -17.3979   21.8420 O   0  0  0  0  0  0  0  0  0  0  0  0
    7.9446  -12.3455   20.9099 C   0  0  0  0  0  0  0  0  0  0  0  0
    7.0639  -13.5607   21.0012 C   0  0  1  0  0  0  0  0  0  0  0  0
    6.5416  -13.8748   19.6234 C   0  0  0  0  0  0  0  0  0  0  0  0
    7.7915  -14.7561   21.5665 C   0  0  2  0  0  0  0  0  0  0  0  0
    6.8658  -15.8158   21.9308 N   0  0  0  0  0  0  0  0  0  0  0  0
    8.4578  -14.2943   22.8297 C   0  0  0  0  0  0  0  0  0  0  0  0
    9.0809  -13.1975   22.8883 O   0  0  0  0  0  0  0  0  0  0  0  0
    7.4598  -11.5492   27.2292 C   0  0  0  0  0  0  0  0  0  0  0  0
    8.3299  -12.7306   26.8739 C   0  0  0  0  0  0  0  0  0  0  0  0
    7.9241  -13.3494   25.5697 C   0  0  2  0  0  0  0  0  0  0  0  0
    6.4599  -13.7395   25.6256 C   0  0  0  0  0  0  0  0  0  0  0  0
    8.7932  -14.5384   25.2734 C   0  0  2  0  0  0  0  0  0  0  0  0
    8.3808  -15.1172   23.9832 N   0  0  0  0  0  0  0  0  0  0  0  0
    8.7138  -15.6092   26.3004 C   0  0  0  0  0  0  0  0  0  0  0  0
    8.0575  -16.6619   26.1483 O   0  0  0  0  0  0  0  0  0  0  0  0
    9.3986  -15.4534   27.5034 O   0  0  0  0  0  0  0  0  0  0  0  0
  2  1  1  1
  2  3  1  0
  4 10  1  0
  4  2  1  0
  5  4  2  0
  7  9  1  0
  7  6  1  6
  8  7  1  0
  9 11  1  0
  9 10  1  1
 11 18  1  0
 12 11  2  0
 14 13  1  0
 15 14  1  0
 15 16  1  1
 17 15  1  0
 17 18  1  6
 19 17  1  0
 19 21  1  0
 20 19  2  0
M  END
$$$$
