AVI.pdb
     RDKit          3D

 21 20  0  0  1  0  0  0  0  0999 V2000
    6.5313  -18.8642   24.8481 C   0  0  0  0  0  0  0  0  0  0  0  0
    6.5755  -18.7697   23.3333 C   0  0  2  0  0  0  0  0  0  0  0  0
    6.8813  -20.0346   22.7226 N   0  0  0  0  0  0  0  0  0  0  0  0
    7.6541  -17.7969   22.9670 C   0  0  0  0  0  0  0  0  0  0  0  0
    8.8366  -18.1620   22.7960 O   0  0  0  0  0  0  0  0  0  0  0  0
    7.0193  -14.8815   20.3413 C   0  0  0  0  0  0  0  0  0  0  0  0
    7.6862  -14.3659   21.5863 C   0  0  1  0  0  0  0  0  0  0  0  0
    6.6675  -13.6001   22.3898 C   0  0  0  0  0  0  0  0  0  0  0  0
    8.2800  -15.4744   22.4208 C   0  0  2  0  0  0  0  0  0  0  0  0
    7.2665  -16.4356   22.8231 N   0  0  0  0  0  0  0  0  0  0  0  0
    8.8065  -14.8340   23.6721 C   0  0  0  0  0  0  0  0  0  0  0  0
    9.4228  -13.7320   23.6445 O   0  0  0  0  0  0  0  0  0  0  0  0
    6.2236  -12.2251   26.0744 C   0  0  0  0  0  0  0  0  0  0  0  0
    7.4385  -13.0007   25.6257 C   0  0  0  0  0  0  0  0  0  0  0  0
    7.8880  -13.9831   26.6657 C   0  0  2  0  0  0  0  0  0  0  0  0
    8.2747  -13.2428   27.9312 C   0  0  0  0  0  0  0  0  0  0  0  0
    9.0352  -14.7981   26.1399 C   0  0  2  0  0  0  0  0  0  0  0  0
    8.6024  -15.4900   24.9136 N   0  0  0  0  0  0  0  0  0  0  0  0
    9.5273  -15.8252   27.0941 C   0  0  0  0  0  0  0  0  0  0  0  0
    9.1497  -17.0166   27.0788 O   0  0  0  0  0  0  0  0  0  0  0  0
   10.4584  -15.4643   28.0653 O   0  0  0  0  0  0  0  0  0  0  0  0
  2  1  1  1
  2  3  1  0
  4 10  1  0
  4  2  1  0
  5  4  2  0
  7  9  1  0
  7  6  1  6
  8  7  1  0
  9 11  1  0
  9 10  1  1
 11 18  1  0
 12 11  2  0
 14 13  1  0
 15 14  1  0
 15 16  1  1
 17 15  1  0
 17 18  1  6
 19 17  1  0
 19 21  1  0
 20 19  2  0
M  END
$$$$
