AVI.pdb
     RDKit          3D

 21 20  0  0  1  0  0  0  0  0999 V2000
    6.7366  -18.8101   26.3236 C   0  0  0  0  0  0  0  0  0  0  0  0
    6.4866  -18.9911   24.8368 C   0  0  2  0  0  0  0  0  0  0  0  0
    6.7642  -20.3331   24.4026 N   0  0  0  0  0  0  0  0  0  0  0  0
    7.4015  -18.0597   24.1024 C   0  0  0  0  0  0  0  0  0  0  0  0
    8.5060  -18.4393   23.6586 O   0  0  0  0  0  0  0  0  0  0  0  0
    7.8744  -13.7739   21.7408 C   0  0  0  0  0  0  0  0  0  0  0  0
    7.0052  -14.7592   22.4718 C   0  0  1  0  0  0  0  0  0  0  0  0
    6.0991  -15.4285   21.4715 C   0  0  0  0  0  0  0  0  0  0  0  0
    7.8119  -15.7945   23.2169 C   0  0  2  0  0  0  0  0  0  0  0  0
    6.9516  -16.7205   23.9345 N   0  0  0  0  0  0  0  0  0  0  0  0
    8.6192  -15.0525   24.2420 C   0  0  0  0  0  0  0  0  0  0  0  0
    8.3944  -13.8396   24.5125 O   0  0  0  0  0  0  0  0  0  0  0  0
    9.1864  -14.6829   29.1149 C   0  0  0  0  0  0  0  0  0  0  0  0
    9.4811  -15.2816   27.7608 C   0  0  0  0  0  0  0  0  0  0  0  0
   10.0039  -14.2561   26.7998 C   0  0  2  0  0  0  0  0  0  0  0  0
    8.8678  -13.3626   26.3415 C   0  0  0  0  0  0  0  0  0  0  0  0
   10.6662  -14.9351   25.6348 C   0  0  2  0  0  0  0  0  0  0  0  0
    9.6598  -15.7388   24.9200 N   0  0  0  0  0  0  0  0  0  0  0  0
   11.7806  -15.8382   26.0222 C   0  0  0  0  0  0  0  0  0  0  0  0
   11.7305  -17.0819   25.9081 O   0  0  0  0  0  0  0  0  0  0  0  0
   12.9521  -15.2926   26.5419 O   0  0  0  0  0  0  0  0  0  0  0  0
  2  1  1  1
  2  3  1  0
  4 10  1  0
  4  2  1  0
  5  4  2  0
  7  9  1  0
  7  6  1  6
  8  7  1  0
  9 11  1  0
  9 10  1  1
 11 18  1  0
 12 11  2  0
 14 13  1  0
 15 14  1  0
 15 16  1  6
 17 15  1  0
 17 18  1  1
 19 17  1  0
 19 21  1  0
 20 19  2  0
M  END
$$$$
