AVI.pdb
     RDKit          3D

 21 20  0  0  1  0  0  0  0  0999 V2000
    8.4684  -12.2787   19.1456 C   0  0  0  0  0  0  0  0  0  0  0  0
    8.3763  -13.7857   18.9845 C   0  0  2  0  0  0  0  0  0  0  0  0
    7.5201  -14.1602   17.8922 N   0  0  0  0  0  0  0  0  0  0  0  0
    7.7999  -14.3464   20.2484 C   0  0  0  0  0  0  0  0  0  0  0  0
    6.6003  -14.1774   20.5538 O   0  0  0  0  0  0  0  0  0  0  0  0
    8.0076  -18.0042   23.3965 C   0  0  0  0  0  0  0  0  0  0  0  0
    8.5484  -17.2478   22.2149 C   0  0  1  0  0  0  0  0  0  0  0  0
    8.0760  -17.9288   20.9568 C   0  0  0  0  0  0  0  0  0  0  0  0
    8.1204  -15.8005   22.2147 C   0  0  2  0  0  0  0  0  0  0  0  0
    8.6853  -15.0813   21.0850 N   0  0  0  0  0  0  0  0  0  0  0  0
    8.6872  -15.1858   23.4613 C   0  0  0  0  0  0  0  0  0  0  0  0
    9.9319  -15.0544   23.6293 O   0  0  0  0  0  0  0  0  0  0  0  0
    5.4798  -12.0608   26.9811 C   0  0  0  0  0  0  0  0  0  0  0  0
    6.1950  -13.2342   26.3562 C   0  0  0  0  0  0  0  0  0  0  0  0
    7.6259  -12.9128   26.0438 C   0  0  2  0  0  0  0  0  0  0  0  0
    7.6856  -11.9114   24.9067 C   0  0  0  0  0  0  0  0  0  0  0  0
    8.3714  -14.1710   25.7005 C   0  0  2  0  0  0  0  0  0  0  0  0
    7.7947  -14.7435   24.4719 N   0  0  0  0  0  0  0  0  0  0  0  0
    8.3117  -15.2106   26.7603 C   0  0  0  0  0  0  0  0  0  0  0  0
    8.8753  -15.0960   27.8701 O   0  0  0  0  0  0  0  0  0  0  0  0
    7.5960  -16.3827   26.5272 O   0  0  0  0  0  0  0  0  0  0  0  0
  2  1  1  1
  2  3  1  0
  4 10  1  0
  4  2  1  0
  5  4  2  0
  7  9  1  0
  7  6  1  1
  8  7  1  0
  9 11  1  0
  9 10  1  6
 11 18  1  0
 12 11  2  0
 14 13  1  0
 15 14  1  0
 15 16  1  6
 17 15  1  0
 17 18  1  6
 19 17  1  0
 19 21  1  0
 20 19  2  0
M  END
$$$$
