AVI.pdb
     RDKit          3D

 21 20  0  0  1  0  0  0  0  0999 V2000
   11.5981  -18.9087   22.3158 C   0  0  0  0  0  0  0  0  0  0  0  0
   11.3533  -18.0838   21.0647 C   0  0  2  0  0  0  0  0  0  0  0  0
   12.5647  -17.8504   20.3268 N   0  0  0  0  0  0  0  0  0  0  0  0
   10.7991  -16.7591   21.4914 C   0  0  0  0  0  0  0  0  0  0  0  0
   11.5391  -15.8393   21.9001 O   0  0  0  0  0  0  0  0  0  0  0  0
    6.8647  -13.7755   21.5026 C   0  0  0  0  0  0  0  0  0  0  0  0
    7.4737  -15.0993   21.1322 C   0  0  1  0  0  0  0  0  0  0  0  0
    7.5975  -15.1635   19.6321 C   0  0  0  0  0  0  0  0  0  0  0  0
    8.8228  -15.3108   21.7748 C   0  0  2  0  0  0  0  0  0  0  0  0
    9.3879  -16.5989   21.4085 N   0  0  0  0  0  0  0  0  0  0  0  0
    8.5925  -15.3320   23.2579 C   0  0  0  0  0  0  0  0  0  0  0  0
    8.5111  -16.4158   23.9011 O   0  0  0  0  0  0  0  0  0  0  0  0
    6.9336  -11.4977   27.8170 C   0  0  0  0  0  0  0  0  0  0  0  0
    7.4662  -12.8225   27.3272 C   0  0  0  0  0  0  0  0  0  0  0  0
    7.6220  -12.8437   25.8360 C   0  0  2  0  0  0  0  0  0  0  0  0
    6.2703  -12.6379   25.1804 C   0  0  0  0  0  0  0  0  0  0  0  0
    8.2449  -14.1405   25.4034 C   0  0  2  0  0  0  0  0  0  0  0  0
    8.4641  -14.0985   23.9474 N   0  0  0  0  0  0  0  0  0  0  0  0
    7.4139  -15.3344   25.7057 C   0  0  0  0  0  0  0  0  0  0  0  0
    6.4024  -15.6547   25.0451 O   0  0  0  0  0  0  0  0  0  0  0  0
    7.7613  -16.1544   26.7769 O   0  0  0  0  0  0  0  0  0  0  0  0
  2  1  1  1
  2  3  1  0
  4 10  1  0
  4  2  1  0
  5  4  2  0
  7  9  1  0
  7  6  1  6
  8  7  1  0
  9 11  1  0
  9 10  1  6
 11 18  1  0
 12 11  2  0
 14 13  1  0
 15 14  1  0
 15 16  1  6
 17 15  1  0
 17 18  1  6
 19 17  1  0
 19 21  1  0
 20 19  2  0
M  END
$$$$
