AVI.pdb
     RDKit          3D

 21 20  0  0  1  0  0  0  0  0999 V2000
    6.9919  -18.8699   22.6478 C   0  0  0  0  0  0  0  0  0  0  0  0
    7.0979  -18.2034   21.2876 C   0  0  2  0  0  0  0  0  0  0  0  0
    7.5469  -19.1171   20.2727 N   0  0  0  0  0  0  0  0  0  0  0  0
    8.0984  -17.0941   21.3986 C   0  0  0  0  0  0  0  0  0  0  0  0
    9.3272  -17.3098   21.3327 O   0  0  0  0  0  0  0  0  0  0  0  0
    7.3500  -13.7051   19.5403 C   0  0  0  0  0  0  0  0  0  0  0  0
    7.8765  -13.4432   20.9241 C   0  0  1  0  0  0  0  0  0  0  0  0
    6.7365  -12.9641   21.7846 C   0  0  0  0  0  0  0  0  0  0  0  0
    8.5126  -14.6666   21.5377 C   0  0  2  0  0  0  0  0  0  0  0  0
    7.5812  -15.7815   21.5827 N   0  0  0  0  0  0  0  0  0  0  0  0
    8.8473  -14.3096   22.9567 C   0  0  0  0  0  0  0  0  0  0  0  0
    9.3540  -13.1927   23.2580 O   0  0  0  0  0  0  0  0  0  0  0  0
    6.8026  -11.6427   26.6187 C   0  0  0  0  0  0  0  0  0  0  0  0
    7.9347  -12.5400   26.1806 C   0  0  0  0  0  0  0  0  0  0  0  0
    7.4324  -13.7877   25.5176 C   0  0  2  0  0  0  0  0  0  0  0  0
    6.2875  -14.3672   26.3253 C   0  0  0  0  0  0  0  0  0  0  0  0
    8.5524  -14.7784   25.3727 C   0  0  2  0  0  0  0  0  0  0  0  0
    8.5846  -15.2569   23.9799 N   0  0  0  0  0  0  0  0  0  0  0  0
    8.4225  -15.9633   26.2596 C   0  0  0  0  0  0  0  0  0  0  0  0
    7.8685  -17.0278   25.9101 O   0  0  0  0  0  0  0  0  0  0  0  0
    8.9376  -15.9078   27.5527 O   0  0  0  0  0  0  0  0  0  0  0  0
  2  1  1  1
  2  3  1  0
  4 10  1  0
  4  2  1  0
  5  4  2  0
  7  9  1  0
  7  6  1  6
  8  7  1  0
  9 11  1  0
  9 10  1  1
 11 18  1  0
 12 11  2  0
 14 13  1  0
 15 14  1  0
 15 16  1  1
 17 15  1  0
 17 18  1  6
 19 17  1  0
 19 21  1  0
 20 19  2  0
M  END
$$$$
