AVI.pdb
     RDKit          3D

 21 20  0  0  1  0  0  0  0  0999 V2000
    6.7932  -18.5917   24.0975 C   0  0  0  0  0  0  0  0  0  0  0  0
    6.8800  -18.4517   22.5881 C   0  0  2  0  0  0  0  0  0  0  0  0
    7.4367  -19.6234   21.9687 N   0  0  0  0  0  0  0  0  0  0  0  0
    7.7758  -17.2893   22.2872 C   0  0  0  0  0  0  0  0  0  0  0  0
    9.0181  -17.4132   22.2409 O   0  0  0  0  0  0  0  0  0  0  0  0
    7.9347  -12.4647   21.1336 C   0  0  0  0  0  0  0  0  0  0  0  0
    7.1539  -13.7484   21.1879 C   0  0  1  0  0  0  0  0  0  0  0  0
    6.6426  -14.0536   19.8040 C   0  0  0  0  0  0  0  0  0  0  0  0
    7.9798  -14.9017   21.7031 C   0  0  2  0  0  0  0  0  0  0  0  0
    7.1428  -16.0362   22.0566 N   0  0  0  0  0  0  0  0  0  0  0  0
    8.6400  -14.4262   22.9645 C   0  0  0  0  0  0  0  0  0  0  0  0
    9.4622  -13.4677   22.9624 O   0  0  0  0  0  0  0  0  0  0  0  0
    7.1700  -11.4080   27.2396 C   0  0  0  0  0  0  0  0  0  0  0  0
    8.1717  -12.4804   26.8856 C   0  0  0  0  0  0  0  0  0  0  0  0
    7.7592  -13.2474   25.6649 C   0  0  2  0  0  0  0  0  0  0  0  0
    6.3287  -13.7246   25.8234 C   0  0  0  0  0  0  0  0  0  0  0  0
    8.6961  -14.4005   25.4424 C   0  0  2  0  0  0  0  0  0  0  0  0
    8.3266  -15.0758   24.1866 N   0  0  0  0  0  0  0  0  0  0  0  0
    8.6694  -15.4125   26.5299 C   0  0  0  0  0  0  0  0  0  0  0  0
    8.0061  -16.4702   26.4704 O   0  0  0  0  0  0  0  0  0  0  0  0
    9.4150  -15.1922   27.6858 O   0  0  0  0  0  0  0  0  0  0  0  0
  2  1  1  1
  2  3  1  0
  4 10  1  0
  4  2  1  0
  5  4  2  0
  7  9  1  0
  7  6  1  6
  8  7  1  0
  9 11  1  0
  9 10  1  1
 11 18  1  0
 12 11  2  0
 14 13  1  0
 15 14  1  0
 15 16  1  1
 17 15  1  0
 17 18  1  6
 19 17  1  0
 19 21  1  0
 20 19  2  0
M  END
$$$$
