AVI.pdb
     RDKit          3D

 21 20  0  0  1  0  0  0  0  0999 V2000
    9.4928  -18.0932   21.1364 C   0  0  0  0  0  0  0  0  0  0  0  0
    8.9718  -16.6818   20.9316 C   0  0  2  0  0  0  0  0  0  0  0  0
    9.5757  -16.0434   19.7940 N   0  0  0  0  0  0  0  0  0  0  0  0
    9.3131  -15.8863   22.1542 C   0  0  0  0  0  0  0  0  0  0  0  0
   10.4496  -15.3951   22.3212 O   0  0  0  0  0  0  0  0  0  0  0  0
    6.6941  -13.3317   24.1305 C   0  0  0  0  0  0  0  0  0  0  0  0
    7.3296  -14.4143   24.9582 C   0  0  1  0  0  0  0  0  0  0  0  0
    6.3221  -15.5171   25.1542 C   0  0  0  0  0  0  0  0  0  0  0  0
    8.5834  -14.9626   24.3217 C   0  0  2  0  0  0  0  0  0  0  0  0
    8.2794  -15.7170   23.1170 N   0  0  0  0  0  0  0  0  0  0  0  0
    9.1804  -15.9231   25.3088 C   0  0  0  0  0  0  0  0  0  0  0  0
    9.2911  -17.1546   25.0522 O   0  0  0  0  0  0  0  0  0  0  0  0
   10.7991  -13.9509   30.3711 C   0  0  0  0  0  0  0  0  0  0  0  0
   10.1508  -14.7932   29.2992 C   0  0  0  0  0  0  0  0  0  0  0  0
   11.1684  -15.4635   28.4254 C   0  0  2  0  0  0  0  0  0  0  0  0
   12.0590  -14.4159   27.7861 C   0  0  0  0  0  0  0  0  0  0  0  0
   10.4800  -16.3008   27.3852 C   0  0  2  0  0  0  0  0  0  0  0  0
    9.6292  -15.4264   26.5599 N   0  0  0  0  0  0  0  0  0  0  0  0
    9.6202  -17.3720   27.9515 C   0  0  0  0  0  0  0  0  0  0  0  0
   10.0695  -18.3620   28.5681 O   0  0  0  0  0  0  0  0  0  0  0  0
    8.2380  -17.2897   27.7993 O   0  0  0  0  0  0  0  0  0  0  0  0
  2  1  1  1
  2  3  1  0
  4 10  1  0
  4  2  1  0
  5  4  2  0
  7  9  1  0
  7  6  1  6
  8  7  1  0
  9 11  1  0
  9 10  1  6
 11 18  1  0
 12 11  2  0
 14 13  1  0
 15 14  1  0
 15 16  1  6
 17 15  1  0
 17 18  1  1
 19 17  1  0
 19 21  1  0
 20 19  2  0
M  END
$$$$
