AVI.pdb
     RDKit          3D

 21 20  0  0  1  0  0  0  0  0999 V2000
    8.5672  -12.3202   19.3375 C   0  0  0  0  0  0  0  0  0  0  0  0
    8.2405  -13.7457   18.9290 C   0  0  2  0  0  0  0  0  0  0  0  0
    7.3370  -13.7932   17.8120 N   0  0  0  0  0  0  0  0  0  0  0  0
    7.5826  -14.4165   20.0957 C   0  0  0  0  0  0  0  0  0  0  0  0
    6.3418  -14.4116   20.2413 O   0  0  0  0  0  0  0  0  0  0  0  0
    7.5660  -18.0368   23.2041 C   0  0  0  0  0  0  0  0  0  0  0  0
    8.1662  -17.2618   22.0640 C   0  0  1  0  0  0  0  0  0  0  0  0
    7.6670  -17.8530   20.7714 C   0  0  0  0  0  0  0  0  0  0  0  0
    7.8290  -15.7921   22.1281 C   0  0  2  0  0  0  0  0  0  0  0  0
    8.4400  -15.0602   21.0310 N   0  0  0  0  0  0  0  0  0  0  0  0
    8.4302  -15.2695   23.4004 C   0  0  0  0  0  0  0  0  0  0  0  0
    9.6796  -15.1581   23.5468 O   0  0  0  0  0  0  0  0  0  0  0  0
    5.7940  -11.4685   26.0805 C   0  0  0  0  0  0  0  0  0  0  0  0
    6.7911  -12.4095   25.4488 C   0  0  0  0  0  0  0  0  0  0  0  0
    7.2188  -13.4881   26.3987 C   0  0  2  0  0  0  0  0  0  0  0  0
    7.8455  -12.8626   27.6296 C   0  0  0  0  0  0  0  0  0  0  0  0
    8.1762  -14.4232   25.7161 C   0  0  2  0  0  0  0  0  0  0  0  0
    7.5656  -14.8933   24.4607 N   0  0  0  0  0  0  0  0  0  0  0  0
    8.5287  -15.6169   26.5274 C   0  0  0  0  0  0  0  0  0  0  0  0
    7.7904  -16.6197   26.6339 O   0  0  0  0  0  0  0  0  0  0  0  0
    9.7405  -15.6420   27.2140 O   0  0  0  0  0  0  0  0  0  0  0  0
  2  1  1  1
  2  3  1  0
  4 10  1  0
  4  2  1  0
  5  4  2  0
  7  9  1  0
  7  6  1  1
  8  7  1  0
  9 11  1  0
  9 10  1  6
 11 18  1  0
 12 11  2  0
 14 13  1  0
 15 14  1  0
 15 16  1  1
 17 15  1  0
 17 18  1  6
 19 17  1  0
 19 21  1  0
 20 19  2  0
M  END
$$$$
