AVI.pdb
     RDKit          3D

 21 20  0  0  1  0  0  0  0  0999 V2000
    6.6319  -18.7769   25.0107 C   0  0  0  0  0  0  0  0  0  0  0  0
    6.5396  -18.8283   23.4959 C   0  0  2  0  0  0  0  0  0  0  0  0
    6.9310  -20.1095   22.9748 N   0  0  0  0  0  0  0  0  0  0  0  0
    7.4704  -17.7916   22.9455 C   0  0  0  0  0  0  0  0  0  0  0  0
    8.6563  -18.0605   22.6591 O   0  0  0  0  0  0  0  0  0  0  0  0
    7.8791  -13.1700   21.2080 C   0  0  0  0  0  0  0  0  0  0  0  0
    7.0176  -14.3449   21.5797 C   0  0  1  0  0  0  0  0  0  0  0  0
    6.3278  -14.8418   20.3359 C   0  0  0  0  0  0  0  0  0  0  0  0
    7.8109  -15.4604   22.2153 C   0  0  2  0  0  0  0  0  0  0  0  0
    6.9380  -16.4847   22.7644 N   0  0  0  0  0  0  0  0  0  0  0  0
    8.5605  -14.8523   23.3648 C   0  0  0  0  0  0  0  0  0  0  0  0
    9.6104  -14.1732   23.1872 O   0  0  0  0  0  0  0  0  0  0  0  0
    6.3733  -11.6162   26.3332 C   0  0  0  0  0  0  0  0  0  0  0  0
    7.3763  -12.5029   25.6356 C   0  0  0  0  0  0  0  0  0  0  0  0
    7.9482  -13.5339   26.5621 C   0  0  2  0  0  0  0  0  0  0  0  0
    8.7065  -12.8471   27.6814 C   0  0  0  0  0  0  0  0  0  0  0  0
    8.8379  -14.4731   25.7985 C   0  0  2  0  0  0  0  0  0  0  0  0
    8.0703  -15.0502   24.6816 N   0  0  0  0  0  0  0  0  0  0  0  0
    9.3672  -15.5949   26.6164 C   0  0  0  0  0  0  0  0  0  0  0  0
    8.7641  -16.6787   26.7712 O   0  0  0  0  0  0  0  0  0  0  0  0
   10.5979  -15.4539   27.2533 O   0  0  0  0  0  0  0  0  0  0  0  0
  2  1  1  1
  2  3  1  0
  4 10  1  0
  4  2  1  0
  5  4  2  0
  7  9  1  0
  7  6  1  6
  8  7  1  0
  9 11  1  0
  9 10  1  1
 11 18  1  0
 12 11  2  0
 14 13  1  0
 15 14  1  0
 15 16  1  1
 17 15  1  0
 17 18  1  6
 19 17  1  0
 19 21  1  0
 20 19  2  0
M  END
$$$$
