AVI.pdb
     RDKit          3D

 21 20  0  0  1  0  0  0  0  0999 V2000
   10.7891  -19.0049   21.3243 C   0  0  0  0  0  0  0  0  0  0  0  0
   10.9670  -17.7618   20.4707 C   0  0  2  0  0  0  0  0  0  0  0  0
   12.3414  -17.5493   20.1070 N   0  0  0  0  0  0  0  0  0  0  0  0
   10.5052  -16.5851   21.2744 C   0  0  0  0  0  0  0  0  0  0  0  0
   11.2558  -16.0158   22.0950 O   0  0  0  0  0  0  0  0  0  0  0  0
    7.2065  -12.9612   21.6475 C   0  0  0  0  0  0  0  0  0  0  0  0
    7.6740  -14.2119   20.9563 C   0  0  1  0  0  0  0  0  0  0  0  0
    8.2231  -13.8326   19.6057 C   0  0  0  0  0  0  0  0  0  0  0  0
    8.7199  -14.9521   21.7537 C   0  0  2  0  0  0  0  0  0  0  0  0
    9.1692  -16.1466   21.0580 N   0  0  0  0  0  0  0  0  0  0  0  0
    8.0541  -15.4005   23.0221 C   0  0  0  0  0  0  0  0  0  0  0  0
    7.4865  -16.5251   23.1116 O   0  0  0  0  0  0  0  0  0  0  0  0
    7.0417  -11.7980   27.3223 C   0  0  0  0  0  0  0  0  0  0  0  0
    6.9187  -12.8394   26.2364 C   0  0  0  0  0  0  0  0  0  0  0  0
    7.8054  -14.0208   26.4941 C   0  0  2  0  0  0  0  0  0  0  0  0
    9.2526  -13.5704   26.5384 C   0  0  0  0  0  0  0  0  0  0  0  0
    7.5921  -15.0635   25.4338 C   0  0  2  0  0  0  0  0  0  0  0  0
    8.0672  -14.5326   24.1446 N   0  0  0  0  0  0  0  0  0  0  0  0
    6.1717  -15.4658   25.2664 C   0  0  0  0  0  0  0  0  0  0  0  0
    5.5509  -16.1634   26.0972 O   0  0  0  0  0  0  0  0  0  0  0  0
    5.4752  -15.0554   24.1320 O   0  0  0  0  0  0  0  0  0  0  0  0
  2  1  1  1
  2  3  1  0
  4 10  1  0
  4  2  1  0
  5  4  2  0
  7  9  1  0
  7  6  1  1
  8  7  1  0
  9 11  1  0
  9 10  1  6
 11 18  1  0
 12 11  2  0
 14 13  1  0
 15 14  1  0
 15 16  1  6
 17 15  1  0
 17 18  1  6
 19 17  1  0
 19 21  1  0
 20 19  2  0
M  END
$$$$
