AVI.pdb
     RDKit          3D

 21 20  0  0  1  0  0  0  0  0999 V2000
    6.2491  -18.7048   25.1384 C   0  0  0  0  0  0  0  0  0  0  0  0
    6.6749  -18.8916   23.6929 C   0  0  2  0  0  0  0  0  0  0  0  0
    7.2410  -20.1924   23.4610 N   0  0  0  0  0  0  0  0  0  0  0  0
    7.7193  -17.8621   23.3871 C   0  0  0  0  0  0  0  0  0  0  0  0
    8.9382  -18.1084   23.5072 O   0  0  0  0  0  0  0  0  0  0  0  0
    6.9029  -15.3558   20.3756 C   0  0  0  0  0  0  0  0  0  0  0  0
    7.6263  -14.6591   21.4945 C   0  0  1  0  0  0  0  0  0  0  0  0
    6.6515  -13.7527   22.2002 C   0  0  0  0  0  0  0  0  0  0  0  0
    8.2375  -15.6297   22.4754 C   0  0  2  0  0  0  0  0  0  0  0  0
    7.2556  -16.5892   22.9527 N   0  0  0  0  0  0  0  0  0  0  0  0
    8.6802  -14.8205   23.6597 C   0  0  0  0  0  0  0  0  0  0  0  0
    9.1840  -13.6701   23.5262 O   0  0  0  0  0  0  0  0  0  0  0  0
    6.1073  -11.9624   25.9714 C   0  0  0  0  0  0  0  0  0  0  0  0
    7.3482  -12.7224   25.5695 C   0  0  0  0  0  0  0  0  0  0  0  0
    7.7128  -13.7685   26.5799 C   0  0  2  0  0  0  0  0  0  0  0  0
    7.9707  -13.1114   27.9219 C   0  0  0  0  0  0  0  0  0  0  0  0
    8.9147  -14.5382   26.1110 C   0  0  2  0  0  0  0  0  0  0  0  0
    8.5254  -15.3694   24.9589 N   0  0  0  0  0  0  0  0  0  0  0  0
    9.4935  -15.4340   27.1455 C   0  0  0  0  0  0  0  0  0  0  0  0
   10.1124  -15.0180   28.1485 O   0  0  0  0  0  0  0  0  0  0  0  0
    9.3510  -16.8132   27.0113 O   0  0  0  0  0  0  0  0  0  0  0  0
  2  1  1  1
  2  3  1  0
  4 10  1  0
  4  2  1  0
  5  4  2  0
  7  9  1  0
  7  6  1  6
  8  7  1  0
  9 11  1  0
  9 10  1  1
 11 18  1  0
 12 11  2  0
 14 13  1  0
 15 14  1  0
 15 16  1  1
 17 15  1  0
 17 18  1  6
 19 17  1  0
 19 21  1  0
 20 19  2  0
M  END
$$$$
