AVI.pdb
     RDKit          3D

 21 20  0  0  1  0  0  0  0  0999 V2000
   11.1893  -18.5484   21.0888 C   0  0  0  0  0  0  0  0  0  0  0  0
   10.9393  -17.3229   20.2278 C   0  0  2  0  0  0  0  0  0  0  0  0
   12.1097  -16.9348   19.4889 N   0  0  0  0  0  0  0  0  0  0  0  0
   10.5609  -16.1944   21.1373 C   0  0  0  0  0  0  0  0  0  0  0  0
   11.4188  -15.4263   21.6219 O   0  0  0  0  0  0  0  0  0  0  0  0
    7.7635  -13.6532   20.2452 C   0  0  0  0  0  0  0  0  0  0  0  0
    7.5193  -14.2470   21.6048 C   0  0  1  0  0  0  0  0  0  0  0  0
    6.4244  -15.2750   21.4857 C   0  0  0  0  0  0  0  0  0  0  0  0
    8.7612  -14.8753   22.1885 C   0  0  2  0  0  0  0  0  0  0  0  0
    9.1758  -16.0392   21.4229 N   0  0  0  0  0  0  0  0  0  0  0  0
    8.3935  -15.3551   23.5625 C   0  0  0  0  0  0  0  0  0  0  0  0
    8.4521  -16.5770   23.8762 O   0  0  0  0  0  0  0  0  0  0  0  0
    5.8803  -11.8059   27.1978 C   0  0  0  0  0  0  0  0  0  0  0  0
    6.3763  -12.8238   26.1994 C   0  0  0  0  0  0  0  0  0  0  0  0
    7.4451  -13.7001   26.7811 C   0  0  2  0  0  0  0  0  0  0  0  0
    8.7165  -12.8953   26.9686 C   0  0  0  0  0  0  0  0  0  0  0  0
    7.6784  -14.8860   25.8889 C   0  0  2  0  0  0  0  0  0  0  0  0
    7.9704  -14.4049   24.5276 N   0  0  0  0  0  0  0  0  0  0  0  0
    6.5188  -15.8114   25.8071 C   0  0  0  0  0  0  0  0  0  0  0  0
    6.1682  -16.5606   26.7441 O   0  0  0  0  0  0  0  0  0  0  0  0
    5.7686  -15.8636   24.6345 O   0  0  0  0  0  0  0  0  0  0  0  0
  2  1  1  1
  2  3  1  0
  4 10  1  0
  4  2  1  0
  5  4  2  0
  7  9  1  0
  7  6  1  6
  8  7  1  0
  9 11  1  0
  9 10  1  6
 11 18  1  0
 12 11  2  0
 14 13  1  0
 15 14  1  0
 15 16  1  6
 17 15  1  0
 17 18  1  6
 19 17  1  0
 19 21  1  0
 20 19  2  0
M  END
$$$$
