AVI.pdb
     RDKit          3D

 21 20  0  0  1  0  0  0  0  0999 V2000
    8.4727  -12.1850   19.5698 C   0  0  0  0  0  0  0  0  0  0  0  0
    8.2610  -13.6040   19.0726 C   0  0  2  0  0  0  0  0  0  0  0  0
    7.2521  -13.6729   18.0510 N   0  0  0  0  0  0  0  0  0  0  0  0
    7.8110  -14.4339   20.2357 C   0  0  0  0  0  0  0  0  0  0  0  0
    6.5999  -14.6053   20.4898 O   0  0  0  0  0  0  0  0  0  0  0  0
    8.7898  -18.1395   23.1811 C   0  0  0  0  0  0  0  0  0  0  0  0
    9.1189  -17.2401   22.0221 C   0  0  1  0  0  0  0  0  0  0  0  0
    8.7196  -17.9390   20.7486 C   0  0  0  0  0  0  0  0  0  0  0  0
    8.4280  -15.9018   22.1194 C   0  0  2  0  0  0  0  0  0  0  0  0
    8.8305  -15.0181   21.0378 N   0  0  0  0  0  0  0  0  0  0  0  0
    8.8896  -15.2734   23.4020 C   0  0  0  0  0  0  0  0  0  0  0  0
   10.1046  -14.9943   23.6043 O   0  0  0  0  0  0  0  0  0  0  0  0
    5.5320  -11.8194   25.6820 C   0  0  0  0  0  0  0  0  0  0  0  0
    6.6936  -12.6294   25.1592 C   0  0  0  0  0  0  0  0  0  0  0  0
    7.2698  -13.5240   26.2158 C   0  0  2  0  0  0  0  0  0  0  0  0
    7.7374  -12.6874   27.3908 C   0  0  0  0  0  0  0  0  0  0  0  0
    8.3967  -14.3354   25.6427 C   0  0  2  0  0  0  0  0  0  0  0  0
    7.9300  -14.9888   24.4077 N   0  0  0  0  0  0  0  0  0  0  0  0
    8.8986  -15.3933   26.5573 C   0  0  0  0  0  0  0  0  0  0  0  0
    8.3259  -16.4925   26.7190 O   0  0  0  0  0  0  0  0  0  0  0  0
   10.0667  -15.1707   27.2827 O   0  0  0  0  0  0  0  0  0  0  0  0
  2  1  1  1
  2  3  1  0
  4 10  1  0
  4  2  1  0
  5  4  2  0
  7  9  1  0
  7  6  1  1
  8  7  1  0
  9 11  1  0
  9 10  1  6
 11 18  1  0
 12 11  2  0
 14 13  1  0
 15 14  1  0
 15 16  1  1
 17 15  1  0
 17 18  1  6
 19 17  1  0
 19 21  1  0
 20 19  2  0
M  END
$$$$
