WEV.pdb
     RDKit          3D

 31 32  0  0  1  0  0  0  0  0999 V2000
   26.7040  -22.9540  -11.8544 N   0  0  0  0  0  0  0  0  0  0  0  0
   25.9550  -21.7243  -11.7456 C   0  0  1  0  0  0  0  0  0  0  0  0
   26.9547  -20.5792  -11.7926 C   0  0  0  0  0  0  0  0  0  0  0  0
   27.9395  -20.7325  -10.7046 C   0  0  0  0  0  0  0  0  0  0  0  0
   29.1936  -21.2816  -10.8220 C   0  0  0  0  0  0  0  0  0  0  0  0
   29.7775  -21.2343   -9.5890 N   0  0  0  0  0  0  0  0  0  0  0  0
   28.9219  -20.6768   -8.7318 C   0  0  0  0  0  0  0  0  0  0  0  0
   29.0052  -20.3964   -7.3935 C   0  0  0  0  0  0  0  0  0  0  0  0
   27.9617  -19.7974   -6.6928 C   0  0  0  0  0  0  0  0  0  0  0  0
   26.8169  -19.4804   -7.3685 C   0  0  0  0  0  0  0  0  0  0  0  0
   26.7036  -19.7490   -8.7094 C   0  0  0  0  0  0  0  0  0  0  0  0
   27.7590  -20.3509   -9.4017 C   0  0  0  0  0  0  0  0  0  0  0  0
   25.0078  -21.5608  -12.8912 C   0  0  0  0  0  0  0  0  0  0  0  0
   25.2858  -22.0395  -14.0159 O   0  0  0  0  0  0  0  0  0  0  0  0
   23.8034  -20.8643  -12.6901 N   0  0  0  0  0  0  0  0  0  0  0  0
   22.7451  -20.7915  -13.6783 C   0  0  1  0  0  0  0  0  0  0  0  0
   21.5617  -21.5415  -13.1539 C   0  0  0  0  0  0  0  0  0  0  0  0
   21.0775  -20.9933  -11.8317 C   0  0  0  0  0  0  0  0  0  0  0  0
   19.8286  -21.6819  -11.4376 C   0  0  0  0  0  0  0  0  0  0  0  0
   19.2548  -21.3759  -10.3705 O   0  0  0  0  0  0  0  0  0  0  0  0
   22.4241  -19.3634  -13.9937 C   0  0  0  0  0  0  0  0  0  0  0  0
   22.3841  -18.5378  -13.0420 O   0  0  0  0  0  0  0  0  0  0  0  0
   19.2456  -22.6771  -12.2132 O   0  0  0  0  0  0  0  0  0  0  0  0
   23.9334  -17.4598  -17.2154 C   0  0  0  0  0  0  0  0  0  0  0  0
   22.4696  -17.1561  -16.9834 C   0  0  2  0  0  0  0  0  0  0  0  0
   22.2493  -15.7083  -17.2939 C   0  0  0  0  0  0  0  0  0  0  0  0
   22.0182  -17.5442  -15.6039 C   0  0  2  0  0  0  0  0  0  0  0  0
   22.1700  -18.9407  -15.3260 N   0  0  0  0  0  0  0  0  0  0  0  0
   20.5567  -17.2146  -15.5007 C   0  0  0  0  0  0  0  0  0  0  0  0
   20.2401  -16.0205  -15.2592 O   0  0  0  0  0  0  0  0  0  0  0  0
   19.5812  -18.1880  -15.6648 O   0  0  0  0  0  0  0  0  0  0  0  0
  2 13  1  0
  2  1  1  6
  3  2  1  0
  4  3  1  0
  4  5  2  0
  6  5  1  0
  7  6  1  0
  8  7  2  0
  9  8  1  0
 10  9  2  0
 10 11  1  0
 11 12  2  0
 12  7  1  0
 12  4  1  0
 13 14  2  0
 15 16  1  0
 15 13  1  0
 16 21  1  0
 16 17  1  1
 18 17  1  0
 19 18  1  0
 20 19  2  0
 21 22  2  0
 23 19  1  0
 25 24  1  1
 25 27  1  0
 26 25  1  0
 27 29  1  0
 27 28  1  6
 28 21  1  0
 29 30  2  0
 29 31  1  0
M  END
$$$$
