WEV.pdb
     RDKit          3D

 31 32  0  0  1  0  0  0  0  0999 V2000
   19.6120  -21.3206  -15.6084 N   0  0  0  0  0  0  0  0  0  0  0  0
   20.7098  -20.3885  -15.5040 C   0  0  1  0  0  0  0  0  0  0  0  0
   20.2422  -19.2333  -14.6324 C   0  0  0  0  0  0  0  0  0  0  0  0
   19.4544  -18.2847  -15.4428 C   0  0  0  0  0  0  0  0  0  0  0  0
   18.0877  -18.1440  -15.4199 C   0  0  0  0  0  0  0  0  0  0  0  0
   17.7627  -17.1643  -16.3131 N   0  0  0  0  0  0  0  0  0  0  0  0
   18.8830  -16.7084  -16.8742 C   0  0  0  0  0  0  0  0  0  0  0  0
   19.1177  -15.7432  -17.8175 C   0  0  0  0  0  0  0  0  0  0  0  0
   20.4008  -15.4318  -18.2597 C   0  0  0  0  0  0  0  0  0  0  0  0
   21.4591  -16.1161  -17.7310 C   0  0  0  0  0  0  0  0  0  0  0  0
   21.2557  -17.0886  -16.7845 C   0  0  0  0  0  0  0  0  0  0  0  0
   19.9620  -17.3918  -16.3488 C   0  0  0  0  0  0  0  0  0  0  0  0
   21.8962  -21.0165  -14.8449 C   0  0  0  0  0  0  0  0  0  0  0  0
   21.7496  -21.7329  -13.8268 O   0  0  0  0  0  0  0  0  0  0  0  0
   23.1761  -20.7930  -15.3817 N   0  0  0  0  0  0  0  0  0  0  0  0
   24.3853  -21.3851  -14.8441 C   0  0  1  0  0  0  0  0  0  0  0  0
   25.3831  -21.5017  -15.9527 C   0  0  0  0  0  0  0  0  0  0  0  0
   26.7265  -21.9908  -15.4636 C   0  0  0  0  0  0  0  0  0  0  0  0
   27.6632  -22.0889  -16.6047 C   0  0  0  0  0  0  0  0  0  0  0  0
   27.3141  -21.6925  -17.7372 O   0  0  0  0  0  0  0  0  0  0  0  0
   24.8976  -20.5721  -13.6957 C   0  0  0  0  0  0  0  0  0  0  0  0
   24.8482  -19.3159  -13.7866 O   0  0  0  0  0  0  0  0  0  0  0  0
   28.9445  -22.6126  -16.4787 O   0  0  0  0  0  0  0  0  0  0  0  0
   26.0888  -22.1806   -9.7831 C   0  0  0  0  0  0  0  0  0  0  0  0
   25.6612  -20.7702  -10.1251 C   0  0  2  0  0  0  0  0  0  0  0  0
   24.1914  -20.6626   -9.8620 C   0  0  0  0  0  0  0  0  0  0  0  0
   26.0452  -20.3815  -11.5247 C   0  0  2  0  0  0  0  0  0  0  0  0
   25.4267  -21.1905  -12.5314 N   0  0  0  0  0  0  0  0  0  0  0  0
   27.5316  -20.5575  -11.6474 C   0  0  0  0  0  0  0  0  0  0  0  0
   27.9536  -21.4850  -12.3865 O   0  0  0  0  0  0  0  0  0  0  0  0
   28.4174  -19.7298  -10.9721 O   0  0  0  0  0  0  0  0  0  0  0  0
  2 13  1  0
  2  1  1  1
  3  2  1  0
  4  3  1  0
  4  5  2  0
  6  5  1  0
  7  6  1  0
  8  7  2  0
  9  8  1  0
 10  9  2  0
 10 11  1  0
 11 12  2  0
 12  7  1  0
 12  4  1  0
 13 14  2  0
 15 16  1  0
 15 13  1  0
 16 21  1  0
 16 17  1  6
 18 17  1  0
 19 18  1  0
 20 19  2  0
 21 22  2  0
 23 19  1  0
 25 24  1  6
 25 27  1  0
 26 25  1  0
 27 29  1  0
 27 28  1  6
 28 21  1  0
 29 30  2  0
 29 31  1  0
M  END
$$$$
