WEV.pdb
     RDKit          3D

 31 32  0  0  1  0  0  0  0  0999 V2000
   27.6538  -20.2353  -11.9776 N   0  0  0  0  0  0  0  0  0  0  0  0
   26.5906  -21.1599  -11.6617 C   0  0  1  0  0  0  0  0  0  0  0  0
   26.3577  -21.0869  -10.1606 C   0  0  0  0  0  0  0  0  0  0  0  0
   27.6539  -21.0489   -9.4566 C   0  0  0  0  0  0  0  0  0  0  0  0
   28.8003  -21.7027   -9.8394 C   0  0  0  0  0  0  0  0  0  0  0  0
   29.7660  -21.4057   -8.9215 N   0  0  0  0  0  0  0  0  0  0  0  0
   29.2446  -20.5968   -7.9988 C   0  0  0  0  0  0  0  0  0  0  0  0
   29.7724  -20.0114   -6.8784 C   0  0  0  0  0  0  0  0  0  0  0  0
   29.0209  -19.1856   -6.0465 C   0  0  0  0  0  0  0  0  0  0  0  0
   27.7117  -18.9545   -6.3635 C   0  0  0  0  0  0  0  0  0  0  0  0
   27.1548  -19.5268   -7.4793 C   0  0  0  0  0  0  0  0  0  0  0  0
   27.9203  -20.3543   -8.3067 C   0  0  0  0  0  0  0  0  0  0  0  0
   25.3173  -20.7803  -12.3479 C   0  0  0  0  0  0  0  0  0  0  0  0
   24.8526  -19.6225  -12.2251 O   0  0  0  0  0  0  0  0  0  0  0  0
   24.6496  -21.7377  -13.1314 N   0  0  0  0  0  0  0  0  0  0  0  0
   23.5076  -21.4315  -13.9705 C   0  0  1  0  0  0  0  0  0  0  0  0
   23.5191  -22.3674  -15.1375 C   0  0  0  0  0  0  0  0  0  0  0  0
   24.6069  -22.0297  -16.1304 C   0  0  0  0  0  0  0  0  0  0  0  0
   24.3281  -20.7112  -16.7410 C   0  0  0  0  0  0  0  0  0  0  0  0
   23.2632  -20.5239  -17.3676 O   0  0  0  0  0  0  0  0  0  0  0  0
   22.2402  -21.5198  -13.1780 C   0  0  0  0  0  0  0  0  0  0  0  0
   22.1357  -22.4396  -12.3225 O   0  0  0  0  0  0  0  0  0  0  0  0
   25.2123  -19.6425  -16.6513 O   0  0  0  0  0  0  0  0  0  0  0  0
   19.1698  -18.4146  -13.2714 C   0  0  0  0  0  0  0  0  0  0  0  0
   19.5611  -19.2752  -12.0903 C   0  0  2  0  0  0  0  0  0  0  0  0
   20.5678  -18.5141  -11.2850 C   0  0  0  0  0  0  0  0  0  0  0  0
   20.0405  -20.6358  -12.5100 C   0  0  2  0  0  0  0  0  0  0  0  0
   21.1789  -20.5969  -13.3777 N   0  0  0  0  0  0  0  0  0  0  0  0
   18.9183  -21.2956  -13.2589 C   0  0  0  0  0  0  0  0  0  0  0  0
   19.0412  -21.4258  -14.5049 O   0  0  0  0  0  0  0  0  0  0  0  0
   17.7804  -21.7494  -12.6069 O   0  0  0  0  0  0  0  0  0  0  0  0
  2 13  1  0
  2  1  1  6
  3  2  1  0
  4  3  1  0
  4  5  2  0
  6  5  1  0
  7  6  1  0
  8  7  2  0
  9  8  1  0
 10  9  2  0
 10 11  1  0
 11 12  2  0
 12  7  1  0
 12  4  1  0
 13 14  2  0
 15 16  1  0
 15 13  1  0
 16 21  1  0
 16 17  1  6
 18 17  1  0
 19 18  1  0
 20 19  2  0
 21 22  2  0
 23 19  1  0
 25 24  1  6
 25 27  1  0
 26 25  1  0
 27 29  1  0
 27 28  1  6
 28 21  1  0
 29 30  2  0
 29 31  1  0
M  END
$$$$
