WEV.pdb
     RDKit          3D

 31 32  0  0  1  0  0  0  0  0999 V2000
   28.9319  -21.1157  -10.7080 N   0  0  0  0  0  0  0  0  0  0  0  0
   27.5881  -21.1019  -10.1795 C   0  0  1  0  0  0  0  0  0  0  0  0
   27.5067  -19.9599   -9.1784 C   0  0  0  0  0  0  0  0  0  0  0  0
   28.4561  -20.1968   -8.0741 C   0  0  0  0  0  0  0  0  0  0  0  0
   29.6722  -20.8284   -8.1761 C   0  0  0  0  0  0  0  0  0  0  0  0
   30.2325  -20.8400   -6.9314 N   0  0  0  0  0  0  0  0  0  0  0  0
   29.3992  -20.2385   -6.0818 C   0  0  0  0  0  0  0  0  0  0  0  0
   29.4738  -19.9850   -4.7377 C   0  0  0  0  0  0  0  0  0  0  0  0
   28.4592  -19.3269   -4.0475 C   0  0  0  0  0  0  0  0  0  0  0  0
   27.3528  -18.9221   -4.7401 C   0  0  0  0  0  0  0  0  0  0  0  0
   27.2492  -19.1619   -6.0872 C   0  0  0  0  0  0  0  0  0  0  0  0
   28.2752  -19.8238   -6.7687 C   0  0  0  0  0  0  0  0  0  0  0  0
   26.5823  -20.8475  -11.2566 C   0  0  0  0  0  0  0  0  0  0  0  0
   26.7401  -19.8971  -12.0586 O   0  0  0  0  0  0  0  0  0  0  0  0
   25.4594  -21.6871  -11.3572 N   0  0  0  0  0  0  0  0  0  0  0  0
   24.5757  -21.7094  -12.5064 C   0  0  1  0  0  0  0  0  0  0  0  0
   24.5119  -23.1124  -13.0216 C   0  0  0  0  0  0  0  0  0  0  0  0
   23.6479  -23.2296  -14.2555 C   0  0  0  0  0  0  0  0  0  0  0  0
   24.2954  -24.1361  -15.2292 C   0  0  0  0  0  0  0  0  0  0  0  0
   23.7655  -24.3413  -16.3422 O   0  0  0  0  0  0  0  0  0  0  0  0
   23.2273  -21.1730  -12.1372 C   0  0  0  0  0  0  0  0  0  0  0  0
   22.8113  -21.3648  -10.9630 O   0  0  0  0  0  0  0  0  0  0  0  0
   25.4937  -24.7881  -14.9630 O   0  0  0  0  0  0  0  0  0  0  0  0
   20.3935  -19.4514  -14.9964 C   0  0  0  0  0  0  0  0  0  0  0  0
   20.6324  -18.8854  -13.6138 C   0  0  2  0  0  0  0  0  0  0  0  0
   21.5150  -17.6850  -13.7585 C   0  0  0  0  0  0  0  0  0  0  0  0
   21.1771  -19.9134  -12.6630 C   0  0  2  0  0  0  0  0  0  0  0  0
   22.4313  -20.4660  -13.0777 N   0  0  0  0  0  0  0  0  0  0  0  0
   20.1824  -21.0367  -12.5988 C   0  0  0  0  0  0  0  0  0  0  0  0
   20.4159  -22.0671  -13.2831 O   0  0  0  0  0  0  0  0  0  0  0  0
   19.0413  -20.9501  -11.8138 O   0  0  0  0  0  0  0  0  0  0  0  0
  2 13  1  0
  2  1  1  6
  3  2  1  0
  4  3  1  0
  4  5  2  0
  6  5  1  0
  7  6  1  0
  8  7  2  0
  9  8  1  0
 10  9  2  0
 10 11  1  0
 11 12  2  0
 12  7  1  0
 12  4  1  0
 13 14  2  0
 15 16  1  0
 15 13  1  0
 16 21  1  0
 16 17  1  1
 18 17  1  0
 19 18  1  0
 20 19  2  0
 21 22  2  0
 23 19  1  0
 25 24  1  6
 25 27  1  0
 26 25  1  0
 27 29  1  0
 27 28  1  6
 28 21  1  0
 29 30  2  0
 29 31  1  0
M  END
$$$$
