WEV.pdb
     RDKit          3D

 31 32  0  0  1  0  0  0  0  0999 V2000
   28.2394  -21.6611  -10.1117 N   0  0  0  0  0  0  0  0  0  0  0  0
   27.1500  -20.8696   -9.5902 C   0  0  1  0  0  0  0  0  0  0  0  0
   27.7596  -19.7530   -8.7568 C   0  0  0  0  0  0  0  0  0  0  0  0
   28.5073  -20.3291   -7.6227 C   0  0  0  0  0  0  0  0  0  0  0  0
   29.3532  -21.4105   -7.6791 C   0  0  0  0  0  0  0  0  0  0  0  0
   29.8381  -21.6162   -6.4198 N   0  0  0  0  0  0  0  0  0  0  0  0
   29.3161  -20.6986   -5.6054 C   0  0  0  0  0  0  0  0  0  0  0  0
   29.4676  -20.4589   -4.2652 C   0  0  0  0  0  0  0  0  0  0  0  0
   28.8066  -19.4194   -3.6162 C   0  0  0  0  0  0  0  0  0  0  0  0
   27.9791  -18.6133   -4.3464 C   0  0  0  0  0  0  0  0  0  0  0  0
   27.8069  -18.8285   -5.6906 C   0  0  0  0  0  0  0  0  0  0  0  0
   28.4766  -19.8760   -6.3306 C   0  0  0  0  0  0  0  0  0  0  0  0
   26.3549  -20.2452  -10.6921 C   0  0  0  0  0  0  0  0  0  0  0  0
   26.8861  -19.4106  -11.4619 O   0  0  0  0  0  0  0  0  0  0  0  0
   25.0058  -20.6063  -10.8527 N   0  0  0  0  0  0  0  0  0  0  0  0
   24.3303  -20.6324  -12.1353 C   0  0  1  0  0  0  0  0  0  0  0  0
   25.0388  -21.6104  -13.0183 C   0  0  0  0  0  0  0  0  0  0  0  0
   24.3930  -21.7236  -14.3796 C   0  0  0  0  0  0  0  0  0  0  0  0
   25.2388  -22.5583  -15.2611 C   0  0  0  0  0  0  0  0  0  0  0  0
   26.3094  -23.0381  -14.8306 O   0  0  0  0  0  0  0  0  0  0  0  0
   22.8823  -20.9684  -11.9549 C   0  0  0  0  0  0  0  0  0  0  0  0
   22.5861  -21.9576  -11.2319 O   0  0  0  0  0  0  0  0  0  0  0  0
   24.8951  -22.8438  -16.5773 O   0  0  0  0  0  0  0  0  0  0  0  0
   19.5780  -18.8944  -13.9557 C   0  0  0  0  0  0  0  0  0  0  0  0
   19.6507  -19.1434  -12.4651 C   0  0  2  0  0  0  0  0  0  0  0  0
   20.1050  -17.8751  -11.8124 C   0  0  0  0  0  0  0  0  0  0  0  0
   20.5101  -20.3282  -12.1261 C   0  0  2  0  0  0  0  0  0  0  0  0
   21.8630  -20.1993  -12.5773 N   0  0  0  0  0  0  0  0  0  0  0  0
   19.9134  -21.5253  -12.8089 C   0  0  0  0  0  0  0  0  0  0  0  0
   18.7973  -21.9388  -12.3994 O   0  0  0  0  0  0  0  0  0  0  0  0
   20.5641  -22.1606  -13.8572 O   0  0  0  0  0  0  0  0  0  0  0  0
  2 13  1  0
  2  1  1  6
  3  2  1  0
  4  3  1  0
  4  5  2  0
  6  5  1  0
  7  6  1  0
  8  7  2  0
  9  8  1  0
 10  9  2  0
 10 11  1  0
 11 12  2  0
 12  7  1  0
 12  4  1  0
 13 14  2  0
 15 16  1  0
 15 13  1  0
 16 21  1  0
 16 17  1  6
 18 17  1  0
 19 18  1  0
 20 19  2  0
 21 22  2  0
 23 19  1  0
 25 24  1  6
 25 27  1  0
 26 25  1  0
 27 29  1  0
 27 28  1  6
 28 21  1  0
 29 30  2  0
 29 31  1  0
M  END
$$$$
