WEV.pdb
     RDKit          3D

 31 32  0  0  1  0  0  0  0  0999 V2000
   24.9142  -16.0297  -16.3876 N   0  0  0  0  0  0  0  0  0  0  0  0
   24.4138  -15.0219  -15.4827 C   0  0  1  0  0  0  0  0  0  0  0  0
   25.5901  -14.5363  -14.6500 C   0  0  0  0  0  0  0  0  0  0  0  0
   26.7422  -14.2589  -15.5291 C   0  0  0  0  0  0  0  0  0  0  0  0
   27.5484  -15.1989  -16.1245 C   0  0  0  0  0  0  0  0  0  0  0  0
   28.4901  -14.5288  -16.8508 N   0  0  0  0  0  0  0  0  0  0  0  0
   28.2818  -13.2187  -16.7157 C   0  0  0  0  0  0  0  0  0  0  0  0
   28.9272  -12.1230  -17.2248 C   0  0  0  0  0  0  0  0  0  0  0  0
   28.5215  -10.8218  -16.9399 C   0  0  0  0  0  0  0  0  0  0  0  0
   27.4411  -10.6373  -16.1234 C   0  0  0  0  0  0  0  0  0  0  0  0
   26.7741  -11.7154  -15.5982 C   0  0  0  0  0  0  0  0  0  0  0  0
   27.1917  -13.0171  -15.8920 C   0  0  0  0  0  0  0  0  0  0  0  0
   23.8570  -13.8503  -16.2269 C   0  0  0  0  0  0  0  0  0  0  0  0
   24.2531  -13.5911  -17.3876 O   0  0  0  0  0  0  0  0  0  0  0  0
   22.8850  -13.0450  -15.6082 N   0  0  0  0  0  0  0  0  0  0  0  0
   22.1952  -11.9616  -16.2810 C   0  0  1  0  0  0  0  0  0  0  0  0
   20.7356  -12.2874  -16.3192 C   0  0  0  0  0  0  0  0  0  0  0  0
   20.4672  -13.6369  -16.9434 C   0  0  0  0  0  0  0  0  0  0  0  0
   19.0177  -13.9285  -16.8884 C   0  0  0  0  0  0  0  0  0  0  0  0
   18.2312  -13.1004  -16.3813 O   0  0  0  0  0  0  0  0  0  0  0  0
   22.4738  -10.6606  -15.5941 C   0  0  0  0  0  0  0  0  0  0  0  0
   22.7228  -10.6808  -14.3587 O   0  0  0  0  0  0  0  0  0  0  0  0
   18.4716  -15.1065  -17.3846 O   0  0  0  0  0  0  0  0  0  0  0  0
   23.5649   -7.1100  -17.7003 C   0  0  0  0  0  0  0  0  0  0  0  0
   23.8294   -7.3966  -16.2385 C   0  0  2  0  0  0  0  0  0  0  0  0
   25.1787   -8.0369  -16.1361 C   0  0  0  0  0  0  0  0  0  0  0  0
   22.7347   -8.2114  -15.6099 C   0  0  2  0  0  0  0  0  0  0  0  0
   22.4602   -9.4318  -16.3069 N   0  0  0  0  0  0  0  0  0  0  0  0
   21.4846   -7.3797  -15.6364 C   0  0  0  0  0  0  0  0  0  0  0  0
   20.5835   -7.7006  -16.4546 O   0  0  0  0  0  0  0  0  0  0  0  0
   21.3201   -6.2919  -14.7905 O   0  0  0  0  0  0  0  0  0  0  0  0
  2 13  1  0
  2  1  1  6
  3  2  1  0
  4  3  1  0
  4  5  2  0
  6  5  1  0
  7  6  1  0
  8  7  2  0
  9  8  1  0
 10  9  2  0
 10 11  1  0
 11 12  2  0
 12  7  1  0
 12  4  1  0
 13 14  2  0
 15 16  1  0
 15 13  1  0
 16 21  1  0
 16 17  1  1
 18 17  1  0
 19 18  1  0
 20 19  2  0
 21 22  2  0
 23 19  1  0
 25 24  1  6
 25 27  1  0
 26 25  1  0
 27 29  1  0
 27 28  1  6
 28 21  1  0
 29 30  2  0
 29 31  1  0
M  END
$$$$
