WEV.pdb
     RDKit          3D

 31 32  0  0  1  0  0  0  0  0999 V2000
   28.1428  -21.9203  -10.4973 N   0  0  0  0  0  0  0  0  0  0  0  0
   27.0107  -21.1696  -10.0076 C   0  0  1  0  0  0  0  0  0  0  0  0
   27.5566  -19.9691   -9.2501 C   0  0  0  0  0  0  0  0  0  0  0  0
   28.4111  -20.4280   -8.1382 C   0  0  0  0  0  0  0  0  0  0  0  0
   29.5035  -21.2545   -8.2473 C   0  0  0  0  0  0  0  0  0  0  0  0
   30.0086  -21.4321   -6.9916 N   0  0  0  0  0  0  0  0  0  0  0  0
   29.2612  -20.7431   -6.1287 C   0  0  0  0  0  0  0  0  0  0  0  0
   29.3302  -20.5813   -4.7702 C   0  0  0  0  0  0  0  0  0  0  0  0
   28.4198  -19.7963   -4.0676 C   0  0  0  0  0  0  0  0  0  0  0  0
   27.4248  -19.1678   -4.7624 C   0  0  0  0  0  0  0  0  0  0  0  0
   27.3297  -19.3109   -6.1238 C   0  0  0  0  0  0  0  0  0  0  0  0
   28.2505  -20.1021   -6.8177 C   0  0  0  0  0  0  0  0  0  0  0  0
   26.1655  -20.6633  -11.1326 C   0  0  0  0  0  0  0  0  0  0  0  0
   26.6835  -20.0134  -12.0710 O   0  0  0  0  0  0  0  0  0  0  0  0
   24.7845  -20.9258  -11.1236 N   0  0  0  0  0  0  0  0  0  0  0  0
   23.8893  -20.5451  -12.1987 C   0  0  1  0  0  0  0  0  0  0  0  0
   24.3208  -21.2565  -13.4420 C   0  0  0  0  0  0  0  0  0  0  0  0
   24.8748  -22.6317  -13.1507 C   0  0  0  0  0  0  0  0  0  0  0  0
   25.2853  -23.2785  -14.4166 C   0  0  0  0  0  0  0  0  0  0  0  0
   25.1611  -22.6688  -15.5003 O   0  0  0  0  0  0  0  0  0  0  0  0
   22.4709  -20.8492  -11.8278 C   0  0  0  0  0  0  0  0  0  0  0  0
   22.2604  -21.5387  -10.7938 O   0  0  0  0  0  0  0  0  0  0  0  0
   25.8157  -24.5624  -14.4637 O   0  0  0  0  0  0  0  0  0  0  0  0
   19.4107  -18.3108  -13.3805 C   0  0  0  0  0  0  0  0  0  0  0  0
   19.4995  -18.9311  -12.0035 C   0  0  2  0  0  0  0  0  0  0  0  0
   20.2701  -17.9918  -11.1289 C   0  0  0  0  0  0  0  0  0  0  0  0
   20.0749  -20.3186  -12.0390 C   0  0  2  0  0  0  0  0  0  0  0  0
   21.3852  -20.3781  -12.6136 N   0  0  0  0  0  0  0  0  0  0  0  0
   19.1657  -21.1598  -12.8881 C   0  0  0  0  0  0  0  0  0  0  0  0
   19.5706  -21.4887  -14.0336 O   0  0  0  0  0  0  0  0  0  0  0  0
   17.9191  -21.5654  -12.4327 O   0  0  0  0  0  0  0  0  0  0  0  0
  2 13  1  0
  2  1  1  6
  3  2  1  0
  4  3  1  0
  4  5  2  0
  6  5  1  0
  7  6  1  0
  8  7  2  0
  9  8  1  0
 10  9  2  0
 10 11  1  0
 11 12  2  0
 12  7  1  0
 12  4  1  0
 13 14  2  0
 15 16  1  0
 15 13  1  0
 16 21  1  0
 16 17  1  6
 18 17  1  0
 19 18  1  0
 20 19  2  0
 21 22  2  0
 23 19  1  0
 25 24  1  6
 25 27  1  0
 26 25  1  0
 27 29  1  0
 27 28  1  6
 28 21  1  0
 29 30  2  0
 29 31  1  0
M  END
$$$$
