WEV.pdb
     RDKit          3D

 31 32  0  0  1  0  0  0  0  0999 V2000
   27.3077  -22.0391  -13.1673 N   0  0  0  0  0  0  0  0  0  0  0  0
   26.3482  -21.2248  -12.4593 C   0  0  1  0  0  0  0  0  0  0  0  0
   27.0783  -19.9816  -11.9755 C   0  0  0  0  0  0  0  0  0  0  0  0
   28.0293  -20.3461  -10.9078 C   0  0  0  0  0  0  0  0  0  0  0  0
   29.3214  -20.7768  -11.0898 C   0  0  0  0  0  0  0  0  0  0  0  0
   29.8536  -21.0062   -9.8538 N   0  0  0  0  0  0  0  0  0  0  0  0
   28.9303  -20.7296   -8.9326 C   0  0  0  0  0  0  0  0  0  0  0  0
   28.9436  -20.7882   -7.5641 C   0  0  0  0  0  0  0  0  0  0  0  0
   27.8360  -20.4430   -6.7941 C   0  0  0  0  0  0  0  0  0  0  0  0
   26.6987  -20.0323   -7.4310 C   0  0  0  0  0  0  0  0  0  0  0  0
   26.6548  -19.9634   -8.8007 C   0  0  0  0  0  0  0  0  0  0  0  0
   27.7741  -20.3128   -9.5626 C   0  0  0  0  0  0  0  0  0  0  0  0
   25.2354  -20.7891  -13.3584 C   0  0  0  0  0  0  0  0  0  0  0  0
   25.4119  -19.8578  -14.1787 O   0  0  0  0  0  0  0  0  0  0  0  0
   23.9910  -21.4371  -13.2714 N   0  0  0  0  0  0  0  0  0  0  0  0
   22.8389  -21.0708  -14.0717 C   0  0  1  0  0  0  0  0  0  0  0  0
   23.1956  -21.2452  -15.5141 C   0  0  0  0  0  0  0  0  0  0  0  0
   24.0879  -22.4431  -15.7415 C   0  0  0  0  0  0  0  0  0  0  0  0
   24.2801  -22.6488  -17.1941 C   0  0  0  0  0  0  0  0  0  0  0  0
   25.2738  -22.1565  -17.7701 O   0  0  0  0  0  0  0  0  0  0  0  0
   21.6476  -21.8859  -13.6738 C   0  0  0  0  0  0  0  0  0  0  0  0
   21.8324  -23.0877  -13.3417 O   0  0  0  0  0  0  0  0  0  0  0  0
   23.3895  -23.3803  -17.9710 O   0  0  0  0  0  0  0  0  0  0  0  0
   19.0387  -21.1795  -10.1121 C   0  0  0  0  0  0  0  0  0  0  0  0
   19.9085  -20.8392  -11.3023 C   0  0  2  0  0  0  0  0  0  0  0  0
   19.9105  -19.3500  -11.4549 C   0  0  0  0  0  0  0  0  0  0  0  0
   19.4812  -21.5644  -12.5468 C   0  0  2  0  0  0  0  0  0  0  0  0
   20.3407  -21.3290  -13.6676 N   0  0  0  0  0  0  0  0  0  0  0  0
   18.1119  -21.0654  -12.9091 C   0  0  0  0  0  0  0  0  0  0  0  0
   18.0150  -20.2706  -13.8804 O   0  0  0  0  0  0  0  0  0  0  0  0
   16.9856  -21.4621  -12.2021 O   0  0  0  0  0  0  0  0  0  0  0  0
  2 13  1  0
  2  1  1  6
  3  2  1  0
  4  3  1  0
  4  5  2  0
  6  5  1  0
  7  6  1  0
  8  7  2  0
  9  8  1  0
 10  9  2  0
 10 11  1  0
 11 12  2  0
 12  7  1  0
 12  4  1  0
 13 14  2  0
 15 16  1  0
 15 13  1  0
 16 21  1  0
 16 17  1  6
 18 17  1  0
 19 18  1  0
 20 19  2  0
 21 22  2  0
 23 19  1  0
 25 24  1  1
 25 27  1  0
 26 25  1  0
 27 29  1  0
 27 28  1  6
 28 21  1  0
 29 30  2  0
 29 31  1  0
M  END
$$$$
