WEV.pdb
     RDKit          3D

 31 32  0  0  1  0  0  0  0  0999 V2000
   27.7579  -21.8501   -8.5302 N   0  0  0  0  0  0  0  0  0  0  0  0
   26.7135  -20.9026   -8.8411 C   0  0  1  0  0  0  0  0  0  0  0  0
   27.3208  -19.5115   -8.7466 C   0  0  0  0  0  0  0  0  0  0  0  0
   28.0806  -19.3840   -7.4882 C   0  0  0  0  0  0  0  0  0  0  0  0
   29.3687  -18.9213   -7.3660 C   0  0  0  0  0  0  0  0  0  0  0  0
   29.6940  -18.9633   -6.0409 N   0  0  0  0  0  0  0  0  0  0  0  0
   28.6496  -19.4343   -5.3589 C   0  0  0  0  0  0  0  0  0  0  0  0
   28.4483  -19.6725   -4.0250 C   0  0  0  0  0  0  0  0  0  0  0  0
   27.2479  -20.1779   -3.5327 C   0  0  0  0  0  0  0  0  0  0  0  0
   26.2389  -20.4437   -4.4153 C   0  0  0  0  0  0  0  0  0  0  0  0
   26.4107  -20.2155   -5.7575 C   0  0  0  0  0  0  0  0  0  0  0  0
   27.6212  -19.7077   -6.2392 C   0  0  0  0  0  0  0  0  0  0  0  0
   26.2033  -21.0926  -10.2339 C   0  0  0  0  0  0  0  0  0  0  0  0
   26.9013  -21.6877  -11.0883 O   0  0  0  0  0  0  0  0  0  0  0  0
   24.9323  -20.5958  -10.5715 N   0  0  0  0  0  0  0  0  0  0  0  0
   24.2890  -20.8408  -11.8475 C   0  0  1  0  0  0  0  0  0  0  0  0
   22.8210  -20.6021  -11.6858 C   0  0  0  0  0  0  0  0  0  0  0  0
   22.0664  -20.7818  -12.9824 C   0  0  0  0  0  0  0  0  0  0  0  0
   20.6115  -20.7121  -12.7223 C   0  0  0  0  0  0  0  0  0  0  0  0
   20.1160  -19.6878  -12.2057 O   0  0  0  0  0  0  0  0  0  0  0  0
   24.8956  -19.9787  -12.9109 C   0  0  0  0  0  0  0  0  0  0  0  0
   25.0494  -18.7516  -12.6669 O   0  0  0  0  0  0  0  0  0  0  0  0
   19.7449  -21.7541  -13.0312 O   0  0  0  0  0  0  0  0  0  0  0  0
   27.4737  -21.5574  -15.8520 C   0  0  0  0  0  0  0  0  0  0  0  0
   27.3978  -20.1292  -15.3585 C   0  0  2  0  0  0  0  0  0  0  0  0
   28.2828  -20.0142  -14.1566 C   0  0  0  0  0  0  0  0  0  0  0  0
   25.9845  -19.6891  -15.1011 C   0  0  2  0  0  0  0  0  0  0  0  0
   25.2902  -20.5196  -14.1638 N   0  0  0  0  0  0  0  0  0  0  0  0
   25.2473  -19.7607  -16.4076 C   0  0  0  0  0  0  0  0  0  0  0  0
   24.3002  -20.5843  -16.5026 O   0  0  0  0  0  0  0  0  0  0  0  0
   25.5921  -18.9495  -17.4795 O   0  0  0  0  0  0  0  0  0  0  0  0
  2 13  1  0
  2  1  1  6
  3  2  1  0
  4  3  1  0
  4  5  2  0
  6  5  1  0
  7  6  1  0
  8  7  2  0
  9  8  1  0
 10  9  2  0
 10 11  1  0
 11 12  2  0
 12  7  1  0
 12  4  1  0
 13 14  2  0
 15 16  1  0
 15 13  1  0
 16 21  1  0
 16 17  1  1
 18 17  1  0
 19 18  1  0
 20 19  2  0
 21 22  2  0
 23 19  1  0
 25 24  1  1
 25 27  1  0
 26 25  1  0
 27 29  1  0
 27 28  1  1
 28 21  1  0
 29 30  2  0
 29 31  1  0
M  END
$$$$
