WEV.pdb
     RDKit          3D

 31 32  0  0  1  0  0  0  0  0999 V2000
   28.2666  -20.1230   -9.3637 N   0  0  0  0  0  0  0  0  0  0  0  0
   27.0445  -20.8907   -9.4106 C   0  0  1  0  0  0  0  0  0  0  0  0
   26.0250  -20.1732   -8.5396 C   0  0  0  0  0  0  0  0  0  0  0  0
   26.7118  -19.4988   -7.4212 C   0  0  0  0  0  0  0  0  0  0  0  0
   26.8017  -18.1411   -7.2298 C   0  0  0  0  0  0  0  0  0  0  0  0
   27.5159  -17.9363   -6.0846 N   0  0  0  0  0  0  0  0  0  0  0  0
   27.8602  -19.1205   -5.5778 C   0  0  0  0  0  0  0  0  0  0  0  0
   28.5689  -19.4771   -4.4611 C   0  0  0  0  0  0  0  0  0  0  0  0
   28.8087  -20.8071   -4.1256 C   0  0  0  0  0  0  0  0  0  0  0  0
   28.3177  -21.7866   -4.9425 C   0  0  0  0  0  0  0  0  0  0  0  0
   27.6042  -21.4606   -6.0683 C   0  0  0  0  0  0  0  0  0  0  0  0
   27.3702  -20.1210   -6.3941 C   0  0  0  0  0  0  0  0  0  0  0  0
   26.4992  -20.9612  -10.8012 C   0  0  0  0  0  0  0  0  0  0  0  0
   26.7818  -20.0718  -11.6381 O   0  0  0  0  0  0  0  0  0  0  0  0
   25.6666  -22.0367  -11.1567 N   0  0  0  0  0  0  0  0  0  0  0  0
   25.0919  -22.2029  -12.4773 C   0  0  1  0  0  0  0  0  0  0  0  0
   24.9339  -23.6674  -12.7389 C   0  0  0  0  0  0  0  0  0  0  0  0
   24.2942  -23.9429  -14.0797 C   0  0  0  0  0  0  0  0  0  0  0  0
   25.2463  -23.6063  -15.1611 C   0  0  0  0  0  0  0  0  0  0  0  0
   26.4453  -23.9461  -15.0680 O   0  0  0  0  0  0  0  0  0  0  0  0
   23.7958  -21.4600  -12.5787 C   0  0  0  0  0  0  0  0  0  0  0  0
   23.0763  -21.3742  -11.5473 O   0  0  0  0  0  0  0  0  0  0  0  0
   24.8661  -22.9139  -16.3048 O   0  0  0  0  0  0  0  0  0  0  0  0
   23.0993  -18.2773  -15.2198 C   0  0  0  0  0  0  0  0  0  0  0  0
   21.9906  -19.2968  -15.0778 C   0  0  2  0  0  0  0  0  0  0  0  0
   20.6866  -18.5637  -15.1352 C   0  0  0  0  0  0  0  0  0  0  0  0
   22.1455  -20.1399  -13.8439 C   0  0  2  0  0  0  0  0  0  0  0  0
   23.3796  -20.8648  -13.7996 N   0  0  0  0  0  0  0  0  0  0  0  0
   21.0272  -21.1423  -13.8421 C   0  0  0  0  0  0  0  0  0  0  0  0
   20.0546  -20.9350  -13.0704 O   0  0  0  0  0  0  0  0  0  0  0  0
   21.0571  -22.2625  -14.6607 O   0  0  0  0  0  0  0  0  0  0  0  0
  2 13  1  0
  2  1  1  6
  3  2  1  0
  4  3  1  0
  4  5  2  0
  6  5  1  0
  7  6  1  0
  8  7  2  0
  9  8  1  0
 10  9  2  0
 10 11  1  0
 11 12  2  0
 12  7  1  0
 12  4  1  0
 13 14  2  0
 15 16  1  0
 15 13  1  0
 16 21  1  0
 16 17  1  1
 18 17  1  0
 19 18  1  0
 20 19  2  0
 21 22  2  0
 23 19  1  0
 25 24  1  1
 25 27  1  0
 26 25  1  0
 27 29  1  0
 27 28  1  6
 28 21  1  0
 29 30  2  0
 29 31  1  0
M  END
$$$$
