CQH.pdb
     RDKit          3D

 26 26  0  0  1  0  0  0  0  0999 V2000
    9.0334  -14.6070   18.9588 N   0  0  0  0  0  0  0  0  0  0  0  0
    7.9497  -14.9095   19.8723 C   0  0  1  0  0  0  0  0  0  0  0  0
    7.3765  -16.2845   19.6082 C   0  0  0  0  0  0  0  0  0  0  0  0
    6.5335  -16.2648   17.9964 S   0  0  0  0  0  0  0  0  0  0  0  0
    8.4595  -14.8527   21.2564 C   0  0  0  0  0  0  0  0  0  0  0  0
    9.6280  -15.2588   21.4777 O   0  0  0  0  0  0  0  0  0  0  0  0
    5.6922  -12.0383   26.1473 N   0  0  0  0  0  0  0  0  0  0  0  0
    6.8512  -12.5564   26.7647 C   0  0  0  0  0  0  0  0  0  0  0  0
    7.1024  -12.2722   27.9512 O   0  0  0  0  0  0  0  0  0  0  0  0
    7.7493  -13.4354   25.9753 C   0  0  0  0  0  0  0  0  0  0  0  0
    7.3353  -13.4906   24.5377 C   0  0  0  0  0  0  0  0  0  0  0  0
    8.1664  -14.4159   23.7323 C   0  0  2  0  0  0  0  0  0  0  0  0
    7.7041  -14.3655   22.3494 N   0  0  0  0  0  0  0  0  0  0  0  0
    8.2867  -15.7934   24.2148 C   0  0  0  0  0  0  0  0  0  0  0  0
    7.8052  -16.7936   23.6189 O   0  0  0  0  0  0  0  0  0  0  0  0
    8.9943  -16.0265   25.4396 N   0  0  0  0  0  0  0  0  0  0  0  0
    9.4705  -17.3316   25.8519 C   0  0  1  0  0  0  0  0  0  0  0  0
   10.2462  -18.0313   24.7950 C   0  0  0  0  0  0  0  0  0  0  0  0
    9.3466  -18.8601   23.9617 C   0  0  0  0  0  0  0  0  0  0  0  0
    8.6402  -18.5446   22.8157 C   0  0  0  0  0  0  0  0  0  0  0  0
    7.9546  -19.6375   22.4465 N   0  0  0  0  0  0  0  0  0  0  0  0
    8.1901  -20.6408   23.3056 C   0  0  0  0  0  0  0  0  0  0  0  0
    9.0325  -20.1566   24.2153 N   0  0  0  0  0  0  0  0  0  0  0  0
   10.1327  -17.2608   27.1784 C   0  0  0  0  0  0  0  0  0  0  0  0
   10.6415  -18.4287   27.7924 O   0  0  0  0  0  0  0  0  0  0  0  0
   10.2925  -16.2083   27.8414 O   0  0  0  0  0  0  0  0  0  0  0  0
  2  1  1  6
  2  5  1  0
  3  2  1  0
  4  3  1  0
  5  6  2  0
  7  8  1  0
  8  9  2  0
  8 10  1  0
 10 11  1  0
 12 11  1  1
 12 14  1  0
 13  5  1  0
 13 12  1  0
 14 15  2  0
 16 17  1  0
 16 14  1  0
 17 24  1  0
 18 19  1  0
 17 18  1  6
 19 20  2  0
 19 23  1  0
 20 21  1  0
 21 22  1  0
 23 22  2  0
 24 26  2  0
 24 25  1  0
M  END
$$$$
