CQH.pdb
     RDKit          3D

 26 26  0  0  1  0  0  0  0  0999 V2000
    1.8190  -20.8762   20.8871 N   0  0  0  0  0  0  0  0  0  0  0  0
    3.1298  -21.4919   20.9414 C   0  0  1  0  0  0  0  0  0  0  0  0
    4.1265  -20.7380   20.0885 C   0  0  0  0  0  0  0  0  0  0  0  0
    3.7021  -20.9882   18.3374 S   0  0  0  0  0  0  0  0  0  0  0  0
    3.5972  -21.5020   22.3415 C   0  0  0  0  0  0  0  0  0  0  0  0
    3.4161  -20.4711   23.0370 O   0  0  0  0  0  0  0  0  0  0  0  0
    2.6522  -26.1183   25.0661 N   0  0  0  0  0  0  0  0  0  0  0  0
    1.8353  -24.9695   24.9906 C   0  0  0  0  0  0  0  0  0  0  0  0
    0.5962  -25.0904   24.9492 O   0  0  0  0  0  0  0  0  0  0  0  0
    2.4813  -23.6337   24.9622 C   0  0  0  0  0  0  0  0  0  0  0  0
    3.9728  -23.7461   25.0250 C   0  0  0  0  0  0  0  0  0  0  0  0
    4.6657  -22.6301   24.3396 C   0  0  2  0  0  0  0  0  0  0  0  0
    4.2388  -22.6097   22.9446 N   0  0  0  0  0  0  0  0  0  0  0  0
    6.1242  -22.5770   24.4620 C   0  0  0  0  0  0  0  0  0  0  0  0
    6.9183  -23.1891   23.6990 O   0  0  0  0  0  0  0  0  0  0  0  0
    6.6908  -21.7820   25.5118 N   0  0  0  0  0  0  0  0  0  0  0  0
    8.1153  -21.6818   25.7587 C   0  0  1  0  0  0  0  0  0  0  0  0
    8.6537  -20.3161   25.5279 C   0  0  0  0  0  0  0  0  0  0  0  0
    8.7203  -20.0291   24.0774 C   0  0  0  0  0  0  0  0  0  0  0  0
    8.4457  -20.8362   22.9889 C   0  0  0  0  0  0  0  0  0  0  0  0
    8.6739  -20.1156   21.8801 N   0  0  0  0  0  0  0  0  0  0  0  0
    9.0831  -18.8809   22.2095 C   0  0  0  0  0  0  0  0  0  0  0  0
    9.1063  -18.8433   23.5398 N   0  0  0  0  0  0  0  0  0  0  0  0
    8.4717  -22.2881   27.0659 C   0  0  0  0  0  0  0  0  0  0  0  0
    7.4636  -22.7366   27.9503 O   0  0  0  0  0  0  0  0  0  0  0  0
    9.6437  -22.4489   27.4825 O   0  0  0  0  0  0  0  0  0  0  0  0
  2  1  1  1
  2  5  1  0
  3  2  1  0
  4  3  1  0
  5  6  2  0
  7  8  1  0
  8  9  2  0
  8 10  1  0
 10 11  1  0
 12 11  1  6
 12 14  1  0
 13  5  1  0
 13 12  1  0
 14 15  2  0
 16 17  1  0
 16 14  1  0
 17 24  1  0
 18 19  1  0
 17 18  1  1
 19 20  2  0
 19 23  1  0
 20 21  1  0
 21 22  1  0
 23 22  2  0
 24 26  2  0
 24 25  1  0
M  END
$$$$
