CQH.pdb
     RDKit          3D

 26 26  0  0  1  0  0  0  0  0999 V2000
    7.0141  -15.8379   20.8286 N   0  0  0  0  0  0  0  0  0  0  0  0
    8.3342  -15.2950   20.5780 C   0  0  1  0  0  0  0  0  0  0  0  0
    8.2705  -14.1038   19.6472 C   0  0  0  0  0  0  0  0  0  0  0  0
    7.3147  -12.7836   20.4548 S   0  0  0  0  0  0  0  0  0  0  0  0
    8.9326  -14.8780   21.8613 C   0  0  0  0  0  0  0  0  0  0  0  0
   10.0612  -14.3255   21.8403 O   0  0  0  0  0  0  0  0  0  0  0  0
    7.4141  -12.0923   27.0671 N   0  0  0  0  0  0  0  0  0  0  0  0
    6.4467  -12.8923   26.4215 C   0  0  0  0  0  0  0  0  0  0  0  0
    5.2546  -12.8342   26.7781 O   0  0  0  0  0  0  0  0  0  0  0  0
    6.8803  -13.7912   25.3230 C   0  0  0  0  0  0  0  0  0  0  0  0
    8.3239  -13.5843   24.9846 C   0  0  0  0  0  0  0  0  0  0  0  0
    8.9560  -14.7855   24.3906 C   0  0  2  0  0  0  0  0  0  0  0  0
    8.3050  -15.0662   23.1155 N   0  0  0  0  0  0  0  0  0  0  0  0
    9.0372  -15.9804   25.2336 C   0  0  0  0  0  0  0  0  0  0  0  0
    8.0438  -16.6868   25.5524 O   0  0  0  0  0  0  0  0  0  0  0  0
   10.3220  -16.3771   25.7305 N   0  0  0  0  0  0  0  0  0  0  0  0
   10.5331  -17.5511   26.5536 C   0  0  1  0  0  0  0  0  0  0  0  0
   11.8143  -18.2458   26.2629 C   0  0  0  0  0  0  0  0  0  0  0  0
   11.8318  -18.7254   24.8628 C   0  0  0  0  0  0  0  0  0  0  0  0
   10.9790  -18.4520   23.8093 C   0  0  0  0  0  0  0  0  0  0  0  0
   11.4115  -19.1459   22.7452 N   0  0  0  0  0  0  0  0  0  0  0  0
   12.5048  -19.8527   23.0697 C   0  0  0  0  0  0  0  0  0  0  0  0
   12.7468  -19.5888   24.3517 N   0  0  0  0  0  0  0  0  0  0  0  0
   10.2916  -17.2459   27.9860 C   0  0  0  0  0  0  0  0  0  0  0  0
   10.2558  -18.2828   28.9469 O   0  0  0  0  0  0  0  0  0  0  0  0
   10.1065  -16.0954   28.4496 O   0  0  0  0  0  0  0  0  0  0  0  0
  2  1  1  1
  2  5  1  0
  3  2  1  0
  4  3  1  0
  5  6  2  0
  7  8  1  0
  8  9  2  0
  8 10  1  0
 10 11  1  0
 12 11  1  1
 12 14  1  0
 13  5  1  0
 13 12  1  0
 14 15  2  0
 16 17  1  0
 16 14  1  0
 17 24  1  0
 18 19  1  0
 17 18  1  1
 19 20  2  0
 19 23  1  0
 20 21  1  0
 21 22  1  0
 23 22  2  0
 24 26  2  0
 24 25  1  0
M  END
$$$$
