CQH.pdb
     RDKit          3D

 26 26  0  0  1  0  0  0  0  0999 V2000
    8.3552  -12.3399   19.0989 N   0  0  0  0  0  0  0  0  0  0  0  0
    8.0553  -13.7256   18.7987 C   0  0  1  0  0  0  0  0  0  0  0  0
    8.8783  -14.2252   17.6314 C   0  0  0  0  0  0  0  0  0  0  0  0
    8.0468  -13.7479   16.0855 S   0  0  0  0  0  0  0  0  0  0  0  0
    8.3492  -14.5484   19.9884 C   0  0  0  0  0  0  0  0  0  0  0  0
    9.2641  -14.1703   20.7626 O   0  0  0  0  0  0  0  0  0  0  0  0
    5.0622  -19.5546   21.9455 N   0  0  0  0  0  0  0  0  0  0  0  0
    5.9749  -19.3926   23.0101 C   0  0  0  0  0  0  0  0  0  0  0  0
    5.8473  -20.0724   24.0461 O   0  0  0  0  0  0  0  0  0  0  0  0
    7.0742  -18.4061   22.8653 C   0  0  0  0  0  0  0  0  0  0  0  0
    6.9077  -17.5795   21.6283 C   0  0  0  0  0  0  0  0  0  0  0  0
    7.9915  -16.5855   21.4475 C   0  0  2  0  0  0  0  0  0  0  0  0
    7.6568  -15.7410   20.3059 N   0  0  0  0  0  0  0  0  0  0  0  0
    9.3594  -17.1012   21.3589 C   0  0  0  0  0  0  0  0  0  0  0  0
    9.9536  -17.3403   20.2739 O   0  0  0  0  0  0  0  0  0  0  0  0
   10.0728  -17.3520   22.5768 N   0  0  0  0  0  0  0  0  0  0  0  0
   11.4429  -16.9363   22.8009 C   0  0  1  0  0  0  0  0  0  0  0  0
   11.6885  -15.5153   22.4422 C   0  0  0  0  0  0  0  0  0  0  0  0
   12.3004  -15.4238   21.0976 C   0  0  0  0  0  0  0  0  0  0  0  0
   12.5925  -16.4113   20.1749 C   0  0  0  0  0  0  0  0  0  0  0  0
   13.1588  -15.8201   19.1117 N   0  0  0  0  0  0  0  0  0  0  0  0
   13.2430  -14.4960   19.3116 C   0  0  0  0  0  0  0  0  0  0  0  0
   12.7208  -14.2714   20.5151 N   0  0  0  0  0  0  0  0  0  0  0  0
   11.9041  -17.3343   24.1545 C   0  0  0  0  0  0  0  0  0  0  0  0
   13.1953  -17.8788   24.3439 O   0  0  0  0  0  0  0  0  0  0  0  0
   11.2216  -17.2280   25.2013 O   0  0  0  0  0  0  0  0  0  0  0  0
  2  1  1  1
  2  5  1  0
  3  2  1  0
  4  3  1  0
  5  6  2  0
  7  8  1  0
  8  9  2  0
  8 10  1  0
 10 11  1  0
 12 11  1  6
 12 14  1  0
 13  5  1  0
 13 12  1  0
 14 15  2  0
 16 17  1  0
 16 14  1  0
 17 24  1  0
 18 19  1  0
 17 18  1  1
 19 20  2  0
 19 23  1  0
 20 21  1  0
 21 22  1  0
 23 22  2  0
 24 26  2  0
 24 25  1  0
M  END
$$$$
