CQH.pdb
     RDKit          3D

 26 26  0  0  1  0  0  0  0  0999 V2000
    7.5005  -15.0233   18.6194 N   0  0  0  0  0  0  0  0  0  0  0  0
    8.5974  -14.6049   19.4691 C   0  0  1  0  0  0  0  0  0  0  0  0
    8.2166  -13.4028   20.3054 C   0  0  0  0  0  0  0  0  0  0  0  0
    7.9635  -11.9804   19.2001 S   0  0  0  0  0  0  0  0  0  0  0  0
    8.9653  -15.7215   20.3617 C   0  0  0  0  0  0  0  0  0  0  0  0
    8.0448  -16.4379   20.8294 O   0  0  0  0  0  0  0  0  0  0  0  0
   10.4461  -20.6368   23.1930 N   0  0  0  0  0  0  0  0  0  0  0  0
   10.9968  -20.2256   21.9600 C   0  0  0  0  0  0  0  0  0  0  0  0
   10.6396  -20.7817   20.9041 O   0  0  0  0  0  0  0  0  0  0  0  0
   11.9977  -19.1297   21.9542 C   0  0  0  0  0  0  0  0  0  0  0  0
   11.5821  -18.0144   21.0461 C   0  0  0  0  0  0  0  0  0  0  0  0
   10.6525  -17.0589   21.6926 C   0  0  2  0  0  0  0  0  0  0  0  0
   10.2989  -16.0302   20.7204 N   0  0  0  0  0  0  0  0  0  0  0  0
   11.0765  -16.4776   22.9683 C   0  0  0  0  0  0  0  0  0  0  0  0
   12.0823  -15.7308   23.1028 O   0  0  0  0  0  0  0  0  0  0  0  0
   10.3053  -16.7717   24.1404 N   0  0  0  0  0  0  0  0  0  0  0  0
   10.6757  -16.3347   25.4715 C   0  0  1  0  0  0  0  0  0  0  0  0
    9.6183  -15.5311   26.1381 C   0  0  0  0  0  0  0  0  0  0  0  0
   10.0744  -15.0914   27.4758 C   0  0  0  0  0  0  0  0  0  0  0  0
   11.2205  -15.4068   28.1821 C   0  0  0  0  0  0  0  0  0  0  0  0
   11.1627  -14.7647   29.3590 N   0  0  0  0  0  0  0  0  0  0  0  0
   10.0293  -14.0509   29.4390 C   0  0  0  0  0  0  0  0  0  0  0  0
    9.3822  -14.2580   28.2945 N   0  0  0  0  0  0  0  0  0  0  0  0
   11.2086  -17.4650   26.2726 C   0  0  0  0  0  0  0  0  0  0  0  0
   12.2681  -17.2629   27.1870 O   0  0  0  0  0  0  0  0  0  0  0  0
   10.7863  -18.6444   26.2124 O   0  0  0  0  0  0  0  0  0  0  0  0
  2  1  1  1
  2  5  1  0
  3  2  1  0
  4  3  1  0
  5  6  2  0
  7  8  1  0
  8  9  2  0
  8 10  1  0
 10 11  1  0
 12 11  1  6
 12 14  1  0
 13  5  1  0
 13 12  1  0
 14 15  2  0
 16 17  1  0
 16 14  1  0
 17 24  1  0
 18 19  1  0
 17 18  1  1
 19 20  2  0
 19 23  1  0
 20 21  1  0
 21 22  1  0
 23 22  2  0
 24 26  2  0
 24 25  1  0
M  END
$$$$
