CQH.pdb
     RDKit          3D

 26 26  0  0  1  0  0  0  0  0999 V2000
    8.9393  -14.9427   17.4843 N   0  0  0  0  0  0  0  0  0  0  0  0
    9.9204  -13.9387   17.8442 C   0  0  1  0  0  0  0  0  0  0  0  0
    9.4424  -13.0953   19.0059 C   0  0  0  0  0  0  0  0  0  0  0  0
    7.9560  -13.8682   19.7145 S   0  0  0  0  0  0  0  0  0  0  0  0
   11.1801  -14.6114   18.2175 C   0  0  0  0  0  0  0  0  0  0  0  0
   11.1338  -15.8249   18.5411 O   0  0  0  0  0  0  0  0  0  0  0  0
   16.7710  -13.1086   16.1145 N   0  0  0  0  0  0  0  0  0  0  0  0
   17.1485  -14.0379   17.1078 C   0  0  0  0  0  0  0  0  0  0  0  0
   18.3549  -14.2629   17.3211 O   0  0  0  0  0  0  0  0  0  0  0  0
   16.0865  -14.7297   17.8799 C   0  0  0  0  0  0  0  0  0  0  0  0
   14.7440  -14.1135   17.6366 C   0  0  0  0  0  0  0  0  0  0  0  0
   13.6915  -14.6497   18.5310 C   0  0  2  0  0  0  0  0  0  0  0  0
   12.4387  -13.9647   18.2313 N   0  0  0  0  0  0  0  0  0  0  0  0
   13.9777  -14.6543   19.9674 C   0  0  0  0  0  0  0  0  0  0  0  0
   14.0230  -13.6164   20.6803 O   0  0  0  0  0  0  0  0  0  0  0  0
   14.2225  -15.9127   20.6089 N   0  0  0  0  0  0  0  0  0  0  0  0
   14.4448  -16.0536   22.0340 C   0  0  1  0  0  0  0  0  0  0  0  0
   13.7540  -17.2320   22.6194 C   0  0  0  0  0  0  0  0  0  0  0  0
   12.2903  -17.0125   22.6369 C   0  0  0  0  0  0  0  0  0  0  0  0
   11.5582  -15.8396   22.6308 C   0  0  0  0  0  0  0  0  0  0  0  0
   10.2585  -16.1711   22.6711 N   0  0  0  0  0  0  0  0  0  0  0  0
   10.1244  -17.5057   22.7027 C   0  0  0  0  0  0  0  0  0  0  0  0
   11.3599  -18.0005   22.6815 N   0  0  0  0  0  0  0  0  0  0  0  0
   15.8886  -15.9422   22.3600 C   0  0  0  0  0  0  0  0  0  0  0  0
   16.8512  -15.8166   21.3318 O   0  0  0  0  0  0  0  0  0  0  0  0
   16.3608  -15.9491   23.5218 O   0  0  0  0  0  0  0  0  0  0  0  0
  2  1  1  1
  2  5  1  0
  3  2  1  0
  4  3  1  0
  5  6  2  0
  7  8  1  0
  8  9  2  0
  8 10  1  0
 10 11  1  0
 12 11  1  6
 12 14  1  0
 13  5  1  0
 13 12  1  0
 14 15  2  0
 16 17  1  0
 16 14  1  0
 17 24  1  0
 18 19  1  0
 17 18  1  6
 19 20  2  0
 19 23  1  0
 20 21  1  0
 21 22  1  0
 23 22  2  0
 24 26  2  0
 24 25  1  0
M  END
$$$$
