CQH.pdb
     RDKit          3D

 26 26  0  0  1  0  0  0  0  0999 V2000
    6.2298  -18.9722   20.7751 N   0  0  0  0  0  0  0  0  0  0  0  0
    6.4710  -17.8155   21.6142 C   0  0  1  0  0  0  0  0  0  0  0  0
    5.7868  -17.9582   22.9561 C   0  0  0  0  0  0  0  0  0  0  0  0
    4.2438  -18.8939   22.7270 S   0  0  0  0  0  0  0  0  0  0  0  0
    7.9250  -17.6692   21.8227 C   0  0  0  0  0  0  0  0  0  0  0  0
    8.6353  -18.7059   21.8117 O   0  0  0  0  0  0  0  0  0  0  0  0
   12.2790  -13.5305   19.9513 N   0  0  0  0  0  0  0  0  0  0  0  0
   11.6994  -14.6461   19.3093 C   0  0  0  0  0  0  0  0  0  0  0  0
   11.6593  -14.6949   18.0653 O   0  0  0  0  0  0  0  0  0  0  0  0
   11.1471  -15.7430   20.1425 C   0  0  0  0  0  0  0  0  0  0  0  0
   10.5181  -15.2154   21.3944 C   0  0  0  0  0  0  0  0  0  0  0  0
    9.9965  -16.2868   22.2748 C   0  0  2  0  0  0  0  0  0  0  0  0
    8.5641  -16.4246   22.0345 N   0  0  0  0  0  0  0  0  0  0  0  0
   10.2996  -16.1804   23.7038 C   0  0  0  0  0  0  0  0  0  0  0  0
   11.4660  -16.0936   24.1722 O   0  0  0  0  0  0  0  0  0  0  0  0
    9.2079  -16.1738   24.6328 N   0  0  0  0  0  0  0  0  0  0  0  0
    9.3820  -16.1237   26.0706 C   0  0  1  0  0  0  0  0  0  0  0  0
    8.1186  -15.8478   26.8029 C   0  0  0  0  0  0  0  0  0  0  0  0
    7.4870  -14.6118   26.2891 C   0  0  0  0  0  0  0  0  0  0  0  0
    8.0479  -13.4990   25.6901 C   0  0  0  0  0  0  0  0  0  0  0  0
    7.0545  -12.6387   25.4188 N   0  0  0  0  0  0  0  0  0  0  0  0
    5.8801  -13.1508   25.8176 C   0  0  0  0  0  0  0  0  0  0  0  0
    6.1570  -14.3427   26.3413 N   0  0  0  0  0  0  0  0  0  0  0  0
   10.1479  -17.2996   26.5543 C   0  0  0  0  0  0  0  0  0  0  0  0
   10.4503  -17.4465   27.9279 O   0  0  0  0  0  0  0  0  0  0  0  0
   10.5748  -18.2240   25.8221 O   0  0  0  0  0  0  0  0  0  0  0  0
  2  1  1  6
  2  5  1  0
  3  2  1  0
  4  3  1  0
  5  6  2  0
  7  8  1  0
  8  9  2  0
  8 10  1  0
 10 11  1  0
 12 11  1  6
 12 14  1  0
 13  5  1  0
 13 12  1  0
 14 15  2  0
 16 17  1  0
 16 14  1  0
 17 24  1  0
 18 19  1  0
 17 18  1  1
 19 20  2  0
 19 23  1  0
 20 21  1  0
 21 22  1  0
 23 22  2  0
 24 26  2  0
 24 25  1  0
M  END
$$$$
