CQH.pdb
     RDKit          3D

 26 26  0  0  1  0  0  0  0  0999 V2000
    9.5518  -13.8339   16.2598 N   0  0  0  0  0  0  0  0  0  0  0  0
    9.5238  -15.2727   16.4310 C   0  0  1  0  0  0  0  0  0  0  0  0
    9.5787  -15.9856   15.0977 C   0  0  0  0  0  0  0  0  0  0  0  0
    8.1114  -15.5216   14.1278 S   0  0  0  0  0  0  0  0  0  0  0  0
   10.6829  -15.6807   17.2488 C   0  0  0  0  0  0  0  0  0  0  0  0
   10.8811  -16.9084   17.4300 O   0  0  0  0  0  0  0  0  0  0  0  0
   17.2105  -13.4441   18.2368 N   0  0  0  0  0  0  0  0  0  0  0  0
   16.4220  -14.4867   17.7038 C   0  0  0  0  0  0  0  0  0  0  0  0
   16.7044  -14.9727   16.5922 O   0  0  0  0  0  0  0  0  0  0  0  0
   15.2649  -14.9814   18.4906 C   0  0  0  0  0  0  0  0  0  0  0  0
   13.9674  -14.6561   17.8184 C   0  0  0  0  0  0  0  0  0  0  0  0
   12.7898  -15.1708   18.5557 C   0  0  2  0  0  0  0  0  0  0  0  0
   11.5846  -14.7647   17.8408 N   0  0  0  0  0  0  0  0  0  0  0  0
   12.7075  -14.8534   19.9831 C   0  0  0  0  0  0  0  0  0  0  0  0
   13.6844  -14.9151   20.7763 O   0  0  0  0  0  0  0  0  0  0  0  0
   11.4412  -14.4467   20.5183 N   0  0  0  0  0  0  0  0  0  0  0  0
   10.7568  -15.1570   21.5800 C   0  0  1  0  0  0  0  0  0  0  0  0
    9.3997  -15.6218   21.1917 C   0  0  0  0  0  0  0  0  0  0  0  0
    8.6271  -14.5090   20.5955 C   0  0  0  0  0  0  0  0  0  0  0  0
    8.9669  -13.1828   20.4016 C   0  0  0  0  0  0  0  0  0  0  0  0
    7.9145  -12.5717   19.8361 N   0  0  0  0  0  0  0  0  0  0  0  0
    6.9140  -13.4478   19.6585 C   0  0  0  0  0  0  0  0  0  0  0  0
    7.3588  -14.6136   20.1218 N   0  0  0  0  0  0  0  0  0  0  0  0
   11.6337  -16.1964   22.1749 C   0  0  0  0  0  0  0  0  0  0  0  0
   11.9504  -17.3705   21.4531 O   0  0  0  0  0  0  0  0  0  0  0  0
   12.1474  -16.1289   23.3170 O   0  0  0  0  0  0  0  0  0  0  0  0
  2  1  1  6
  2  5  1  0
  3  2  1  0
  4  3  1  0
  5  6  2  0
  7  8  1  0
  8  9  2  0
  8 10  1  0
 10 11  1  0
 12 11  1  6
 12 14  1  0
 13  5  1  0
 13 12  1  0
 14 15  2  0
 16 17  1  0
 16 14  1  0
 17 24  1  0
 18 19  1  0
 17 18  1  6
 19 20  2  0
 19 23  1  0
 20 21  1  0
 21 22  1  0
 23 22  2  0
 24 26  2  0
 24 25  1  0
M  END
$$$$
