CQH.pdb
     RDKit          3D

 26 26  0  0  1  0  0  0  0  0999 V2000
   12.8460  -18.9204   14.8791 N   0  0  0  0  0  0  0  0  0  0  0  0
   11.5036  -18.3745   14.8694 C   0  0  1  0  0  0  0  0  0  0  0  0
   10.4855  -19.4128   15.2876 C   0  0  0  0  0  0  0  0  0  0  0  0
   11.0374  -20.1766   16.8436 S   0  0  0  0  0  0  0  0  0  0  0  0
   11.4440  -17.2318   15.8019 C   0  0  0  0  0  0  0  0  0  0  0  0
   12.2321  -16.2706   15.6167 O   0  0  0  0  0  0  0  0  0  0  0  0
    7.0667  -12.5502   18.9910 N   0  0  0  0  0  0  0  0  0  0  0  0
    7.5438  -13.5633   18.1315 C   0  0  0  0  0  0  0  0  0  0  0  0
    6.8747  -13.8987   17.1358 O   0  0  0  0  0  0  0  0  0  0  0  0
    8.8439  -14.2091   18.4404 C   0  0  0  0  0  0  0  0  0  0  0  0
    9.1334  -15.3345   17.4965 C   0  0  0  0  0  0  0  0  0  0  0  0
   10.4333  -15.9931   17.7642 C   0  0  2  0  0  0  0  0  0  0  0  0
   10.5474  -17.1587   16.8942 N   0  0  0  0  0  0  0  0  0  0  0  0
   10.7369  -16.3242   19.1582 C   0  0  0  0  0  0  0  0  0  0  0  0
    9.9573  -16.0989   20.1220 O   0  0  0  0  0  0  0  0  0  0  0  0
   11.9962  -16.9427   19.4525 N   0  0  0  0  0  0  0  0  0  0  0  0
   12.1312  -18.1326   20.2686 C   0  0  1  0  0  0  0  0  0  0  0  0
   11.1209  -19.1756   19.9526 C   0  0  0  0  0  0  0  0  0  0  0  0
   11.3274  -20.3659   20.8077 C   0  0  0  0  0  0  0  0  0  0  0  0
   12.2541  -20.6047   21.8057 C   0  0  0  0  0  0  0  0  0  0  0  0
   12.0406  -21.8452   22.2709 N   0  0  0  0  0  0  0  0  0  0  0  0
   11.0170  -22.4131   21.6151 C   0  0  0  0  0  0  0  0  0  0  0  0
   10.5964  -21.5080   20.7345 N   0  0  0  0  0  0  0  0  0  0  0  0
   13.5386  -18.6038   20.2922 C   0  0  0  0  0  0  0  0  0  0  0  0
   14.5427  -17.9083   19.5795 O   0  0  0  0  0  0  0  0  0  0  0  0
   13.9433  -19.6132   20.9169 O   0  0  0  0  0  0  0  0  0  0  0  0
  2  1  1  1
  2  5  1  0
  3  2  1  0
  4  3  1  0
  5  6  2  0
  7  8  1  0
  8  9  2  0
  8 10  1  0
 10 11  1  0
 12 11  1  1
 12 14  1  0
 13  5  1  0
 13 12  1  0
 14 15  2  0
 16 17  1  0
 16 14  1  0
 17 24  1  0
 18 19  1  0
 17 18  1  6
 19 20  2  0
 19 23  1  0
 20 21  1  0
 21 22  1  0
 23 22  2  0
 24 26  2  0
 24 25  1  0
M  END
$$$$
