CQH.pdb
     RDKit          3D

 26 26  0  0  1  0  0  0  0  0999 V2000
    7.6523  -19.5405   16.3504 N   0  0  0  0  0  0  0  0  0  0  0  0
    8.1406  -18.4952   17.2273 C   0  0  1  0  0  0  0  0  0  0  0  0
    7.1270  -18.1597   18.2994 C   0  0  0  0  0  0  0  0  0  0  0  0
    5.4839  -18.7020   17.7382 S   0  0  0  0  0  0  0  0  0  0  0  0
    9.3913  -18.9503   17.8657 C   0  0  0  0  0  0  0  0  0  0  0  0
    9.4935  -20.1634   18.1771 O   0  0  0  0  0  0  0  0  0  0  0  0
   14.0637  -20.0655   16.7918 N   0  0  0  0  0  0  0  0  0  0  0  0
   14.7562  -19.5542   17.9106 C   0  0  0  0  0  0  0  0  0  0  0  0
   15.8286  -20.0769   18.2689 O   0  0  0  0  0  0  0  0  0  0  0  0
   14.1821  -18.3951   18.6381 C   0  0  0  0  0  0  0  0  0  0  0  0
   12.8641  -17.9843   18.0591 C   0  0  0  0  0  0  0  0  0  0  0  0
   11.7085  -18.5431   18.7991 C   0  0  2  0  0  0  0  0  0  0  0  0
   10.4829  -18.0948   18.1468 N   0  0  0  0  0  0  0  0  0  0  0  0
   11.6698  -18.3127   20.2449 C   0  0  0  0  0  0  0  0  0  0  0  0
   11.4121  -17.1988   20.7744 O   0  0  0  0  0  0  0  0  0  0  0  0
   11.9406  -19.4171   21.1179 N   0  0  0  0  0  0  0  0  0  0  0  0
   11.8852  -19.3259   22.5632 C   0  0  1  0  0  0  0  0  0  0  0  0
   11.2538  -20.5110   23.1996 C   0  0  0  0  0  0  0  0  0  0  0  0
    9.8085  -20.5545   22.8832 C   0  0  0  0  0  0  0  0  0  0  0  0
    8.9561  -19.5600   22.4404 C   0  0  0  0  0  0  0  0  0  0  0  0
    7.7329  -20.0978   22.3167 N   0  0  0  0  0  0  0  0  0  0  0  0
    7.7630  -21.3943   22.6609 C   0  0  0  0  0  0  0  0  0  0  0  0
    9.0230  -21.6559   23.0007 N   0  0  0  0  0  0  0  0  0  0  0  0
   13.2045  -18.9375   23.1218 C   0  0  0  0  0  0  0  0  0  0  0  0
   14.3063  -18.7002   22.2678 O   0  0  0  0  0  0  0  0  0  0  0  0
   13.4477  -18.7920   24.3435 O   0  0  0  0  0  0  0  0  0  0  0  0
  2  1  1  6
  2  5  1  0
  3  2  1  0
  4  3  1  0
  5  6  2  0
  7  8  1  0
  8  9  2  0
  8 10  1  0
 10 11  1  0
 12 11  1  6
 12 14  1  0
 13  5  1  0
 13 12  1  0
 14 15  2  0
 16 17  1  0
 16 14  1  0
 17 24  1  0
 18 19  1  0
 17 18  1  1
 19 20  2  0
 19 23  1  0
 20 21  1  0
 21 22  1  0
 23 22  2  0
 24 26  2  0
 24 25  1  0
M  END
$$$$
