CQH.pdb
     RDKit          3D

 26 26  0  0  1  0  0  0  0  0999 V2000
    7.3707  -17.9553   15.0874 N   0  0  0  0  0  0  0  0  0  0  0  0
    8.4681  -17.1500   15.5847 C   0  0  1  0  0  0  0  0  0  0  0  0
    8.2077  -15.6749   15.3710 C   0  0  0  0  0  0  0  0  0  0  0  0
    8.1859  -15.3399   13.5832 S   0  0  0  0  0  0  0  0  0  0  0  0
    8.6379  -17.4098   17.0277 C   0  0  0  0  0  0  0  0  0  0  0  0
    7.6175  -17.6866   17.7070 O   0  0  0  0  0  0  0  0  0  0  0  0
   11.4381  -21.5600   19.5332 N   0  0  0  0  0  0  0  0  0  0  0  0
   12.2045  -20.7167   18.7001 C   0  0  0  0  0  0  0  0  0  0  0  0
   13.2247  -21.1591   18.1387 O   0  0  0  0  0  0  0  0  0  0  0  0
   11.7699  -19.3100   18.5132 C   0  0  0  0  0  0  0  0  0  0  0  0
   10.5245  -19.0146   19.2898 C   0  0  0  0  0  0  0  0  0  0  0  0
   10.0523  -17.6211   19.1162 C   0  0  2  0  0  0  0  0  0  0  0  0
    9.8880  -17.3643   17.6895 N   0  0  0  0  0  0  0  0  0  0  0  0
   10.8313  -16.5680   19.7713 C   0  0  0  0  0  0  0  0  0  0  0  0
   11.3402  -15.5874   19.1656 O   0  0  0  0  0  0  0  0  0  0  0  0
   11.0316  -16.6507   21.1884 N   0  0  0  0  0  0  0  0  0  0  0  0
   10.4427  -15.7243   22.1345 C   0  0  1  0  0  0  0  0  0  0  0  0
    8.9685  -15.6023   21.9924 C   0  0  0  0  0  0  0  0  0  0  0  0
    8.6328  -14.5359   21.0224 C   0  0  0  0  0  0  0  0  0  0  0  0
    9.4532  -13.7184   20.2673 C   0  0  0  0  0  0  0  0  0  0  0  0
    8.6656  -12.9003   19.5523 N   0  0  0  0  0  0  0  0  0  0  0  0
    7.3753  -13.1570   19.8157 C   0  0  0  0  0  0  0  0  0  0  0  0
    7.3710  -14.1472   20.7053 N   0  0  0  0  0  0  0  0  0  0  0  0
   10.9237  -15.9948   23.5124 C   0  0  0  0  0  0  0  0  0  0  0  0
   11.4946  -14.9618   24.2914 O   0  0  0  0  0  0  0  0  0  0  0  0
   10.8692  -17.1110   24.0815 O   0  0  0  0  0  0  0  0  0  0  0  0
  2  1  1  1
  2  5  1  0
  3  2  1  0
  4  3  1  0
  5  6  2  0
  7  8  1  0
  8  9  2  0
  8 10  1  0
 10 11  1  0
 12 11  1  6
 12 14  1  0
 13  5  1  0
 13 12  1  0
 14 15  2  0
 16 17  1  0
 16 14  1  0
 17 24  1  0
 18 19  1  0
 17 18  1  1
 19 20  2  0
 19 23  1  0
 20 21  1  0
 21 22  1  0
 23 22  2  0
 24 26  2  0
 24 25  1  0
M  END
$$$$
