CQH.pdb
     RDKit          3D

 26 26  0  0  1  0  0  0  0  0999 V2000
    8.7417  -13.0147   19.2324 N   0  0  0  0  0  0  0  0  0  0  0  0
    7.7935  -13.7651   20.0311 C   0  0  1  0  0  0  0  0  0  0  0  0
    7.5523  -15.1406   19.4489 C   0  0  0  0  0  0  0  0  0  0  0  0
    6.7300  -14.9552   17.8370 S   0  0  0  0  0  0  0  0  0  0  0  0
    8.3245  -13.9033   21.4015 C   0  0  0  0  0  0  0  0  0  0  0  0
    9.5509  -14.1379   21.5440 O   0  0  0  0  0  0  0  0  0  0  0  0
    5.3962  -12.2967   26.7165 N   0  0  0  0  0  0  0  0  0  0  0  0
    6.6900  -12.6044   27.1898 C   0  0  0  0  0  0  0  0  0  0  0  0
    7.0017  -12.3344   28.3652 O   0  0  0  0  0  0  0  0  0  0  0  0
    7.6551  -13.2486   26.2645 C   0  0  0  0  0  0  0  0  0  0  0  0
    7.1338  -13.2739   24.8613 C   0  0  0  0  0  0  0  0  0  0  0  0
    8.0494  -13.9561   23.9171 C   0  0  2  0  0  0  0  0  0  0  0  0
    7.5279  -13.7861   22.5651 N   0  0  0  0  0  0  0  0  0  0  0  0
    8.3765  -15.3552   24.2010 C   0  0  0  0  0  0  0  0  0  0  0  0
    7.7496  -16.3370   23.7209 O   0  0  0  0  0  0  0  0  0  0  0  0
    9.4759  -15.6330   25.0780 N   0  0  0  0  0  0  0  0  0  0  0  0
   10.0634  -16.9488   25.2316 C   0  0  1  0  0  0  0  0  0  0  0  0
   11.1223  -17.2365   24.2294 C   0  0  0  0  0  0  0  0  0  0  0  0
   10.5331  -17.8660   23.0264 C   0  0  0  0  0  0  0  0  0  0  0  0
    9.2191  -18.1757   22.7274 C   0  0  0  0  0  0  0  0  0  0  0  0
    9.2027  -18.7531   21.5162 N   0  0  0  0  0  0  0  0  0  0  0  0
   10.4489  -18.8276   21.0246 C   0  0  0  0  0  0  0  0  0  0  0  0
   11.2417  -18.2880   21.9477 N   0  0  0  0  0  0  0  0  0  0  0  0
   10.4465  -17.1980   26.6438 C   0  0  0  0  0  0  0  0  0  0  0  0
   11.5436  -16.5189   27.2227 O   0  0  0  0  0  0  0  0  0  0  0  0
    9.8589  -17.9954   27.4130 O   0  0  0  0  0  0  0  0  0  0  0  0
  2  1  1  6
  2  5  1  0
  3  2  1  0
  4  3  1  0
  5  6  2  0
  7  8  1  0
  8  9  2  0
  8 10  1  0
 10 11  1  0
 12 11  1  1
 12 14  1  0
 13  5  1  0
 13 12  1  0
 14 15  2  0
 16 17  1  0
 16 14  1  0
 17 24  1  0
 18 19  1  0
 17 18  1  6
 19 20  2  0
 19 23  1  0
 20 21  1  0
 21 22  1  0
 23 22  2  0
 24 26  2  0
 24 25  1  0
M  END
$$$$
