CQH.pdb
     RDKit          3D

 26 26  0  0  1  0  0  0  0  0999 V2000
    9.9066  -21.0258   12.6573 N   0  0  0  0  0  0  0  0  0  0  0  0
   11.0393  -20.3345   13.2399 C   0  0  1  0  0  0  0  0  0  0  0  0
   10.5929  -19.3180   14.2678 C   0  0  0  0  0  0  0  0  0  0  0  0
    8.7931  -19.4633   14.4877 S   0  0  0  0  0  0  0  0  0  0  0  0
   11.9239  -21.3237   13.8863 C   0  0  0  0  0  0  0  0  0  0  0  0
   11.7375  -22.5414   13.6377 O   0  0  0  0  0  0  0  0  0  0  0  0
   18.2628  -21.4788   17.1374 N   0  0  0  0  0  0  0  0  0  0  0  0
   17.6223  -21.7358   15.9060 C   0  0  0  0  0  0  0  0  0  0  0  0
   18.1981  -21.4582   14.8368 O   0  0  0  0  0  0  0  0  0  0  0  0
   16.2652  -22.3365   15.9178 C   0  0  0  0  0  0  0  0  0  0  0  0
   15.2418  -21.3861   15.3785 C   0  0  0  0  0  0  0  0  0  0  0  0
   13.8729  -21.9529   15.3736 C   0  0  2  0  0  0  0  0  0  0  0  0
   12.9717  -20.9762   14.7717 N   0  0  0  0  0  0  0  0  0  0  0  0
   13.3561  -22.4551   16.6487 C   0  0  0  0  0  0  0  0  0  0  0  0
   12.8123  -23.5824   16.7938 O   0  0  0  0  0  0  0  0  0  0  0  0
   13.4723  -21.6190   17.8073 N   0  0  0  0  0  0  0  0  0  0  0  0
   12.9177  -21.9638   19.1010 C   0  0  1  0  0  0  0  0  0  0  0  0
   11.5523  -22.5441   19.0155 C   0  0  0  0  0  0  0  0  0  0  0  0
   10.7088  -22.0365   20.1208 C   0  0  0  0  0  0  0  0  0  0  0  0
   11.0026  -21.1497   21.1401 C   0  0  0  0  0  0  0  0  0  0  0  0
    9.9042  -21.0258   21.9009 N   0  0  0  0  0  0  0  0  0  0  0  0
    8.9179  -21.7945   21.4143 C   0  0  0  0  0  0  0  0  0  0  0  0
    9.4185  -22.3990   20.3393 N   0  0  0  0  0  0  0  0  0  0  0  0
   13.8885  -22.7501   19.9026 C   0  0  0  0  0  0  0  0  0  0  0  0
   15.2002  -22.9765   19.4251 O   0  0  0  0  0  0  0  0  0  0  0  0
   13.6432  -23.2596   21.0220 O   0  0  0  0  0  0  0  0  0  0  0  0
  2  1  1  1
  2  5  1  0
  3  2  1  0
  4  3  1  0
  5  6  2  0
  7  8  1  0
  8  9  2  0
  8 10  1  0
 10 11  1  0
 12 11  1  1
 12 14  1  0
 13  5  1  0
 13 12  1  0
 14 15  2  0
 16 17  1  0
 16 14  1  0
 17 24  1  0
 18 19  1  0
 17 18  1  6
 19 20  2  0
 19 23  1  0
 20 21  1  0
 21 22  1  0
 23 22  2  0
 24 26  2  0
 24 25  1  0
M  END
$$$$
