QSV.pdb
     RDKit          3D

 23 22  0  0  1  0  0  0  0  0999 V2000
   13.6911  -18.9245   21.1746 N   0  0  0  0  0  0  0  0  0  0  0  0
   13.1776  -18.5759   19.9101 C   0  0  0  0  0  0  0  0  0  0  0  0
   13.8442  -18.8198   18.8838 O   0  0  0  0  0  0  0  0  0  0  0  0
   11.8590  -17.9258   19.7972 C   0  0  0  0  0  0  0  0  0  0  0  0
   11.2730  -17.6844   21.1715 C   0  0  0  0  0  0  0  0  0  0  0  0
    9.7891  -17.3957   21.0972 C   0  0  2  0  0  0  0  0  0  0  0  0
    9.5432  -16.5945   19.9342 N   0  0  0  0  0  0  0  0  0  0  0  0
    9.3991  -16.7260   22.3592 C   0  0  0  0  0  0  0  0  0  0  0  0
    9.5263  -15.4742   22.4070 O   0  0  0  0  0  0  0  0  0  0  0  0
    7.7316  -18.8106   25.4518 O   0  0  0  0  0  0  0  0  0  0  0  0
    7.3033  -17.5162   25.2203 C   0  0  0  0  0  0  0  0  0  0  0  0
    8.4588  -16.7024   24.6193 C   0  0  2  0  0  0  0  0  0  0  0  0
    8.9007  -17.4436   23.4805 N   0  0  0  0  0  0  0  0  0  0  0  0
    9.4973  -16.5894   25.6707 C   0  0  0  0  0  0  0  0  0  0  0  0
   10.5860  -17.2075   25.4803 O   0  0  0  0  0  0  0  0  0  0  0  0
   10.0782  -13.1776   27.6768 C   0  0  0  0  0  0  0  0  0  0  0  0
   10.2658  -14.3710   28.6097 C   0  0  1  0  0  0  0  0  0  0  0  0
    9.0885  -14.5224   29.5404 C   0  0  0  0  0  0  0  0  0  0  0  0
   10.4600  -15.6313   27.7952 C   0  0  2  0  0  0  0  0  0  0  0  0
    9.3819  -15.8527   26.8668 N   0  0  0  0  0  0  0  0  0  0  0  0
   10.4683  -16.7791   28.7421 C   0  0  0  0  0  0  0  0  0  0  0  0
   11.4859  -17.0510   29.6208 O   0  0  0  0  0  0  0  0  0  0  0  0
    9.4716  -17.5464   28.7293 O   0  0  0  0  0  0  0  0  0  0  0  0
  1  2  1  0
  2  3  2  0
  4  5  1  0
  4  2  1  0
  6  8  1  0
  6  5  1  0
  6  7  1  6
  8  9  2  0
 10 11  1  0
 12 11  1  1
 12 13  1  0
 13  8  1  0
 14 12  1  0
 15 14  2  0
 17 16  1  6
 17 19  1  0
 18 17  1  0
 19 21  1  0
 19 20  1  6
 20 14  1  0
 21 22  1  0
 23 21  2  0
M  END
$$$$
