QSV.pdb
     RDKit          3D

 23 22  0  0  1  0  0  0  0  0999 V2000
   12.8193  -19.9995   21.8381 N   0  0  0  0  0  0  0  0  0  0  0  0
   13.1096  -18.7204   21.3247 C   0  0  0  0  0  0  0  0  0  0  0  0
   14.2963  -18.3871   21.1302 O   0  0  0  0  0  0  0  0  0  0  0  0
   12.0180  -17.7778   21.0178 C   0  0  0  0  0  0  0  0  0  0  0  0
   10.6751  -18.4333   21.2575 C   0  0  0  0  0  0  0  0  0  0  0  0
    9.5346  -17.5031   20.9039 C   0  0  2  0  0  0  0  0  0  0  0  0
    9.9657  -16.6454   19.8392 N   0  0  0  0  0  0  0  0  0  0  0  0
    9.1613  -16.7648   22.1322 C   0  0  0  0  0  0  0  0  0  0  0  0
    9.4741  -15.5463   22.1860 O   0  0  0  0  0  0  0  0  0  0  0  0
    7.4239  -18.6097   25.3625 O   0  0  0  0  0  0  0  0  0  0  0  0
    6.9803  -17.3398   25.0415 C   0  0  0  0  0  0  0  0  0  0  0  0
    8.1088  -16.5750   24.3342 C   0  0  2  0  0  0  0  0  0  0  0  0
    8.4797  -17.3829   23.2156 N   0  0  0  0  0  0  0  0  0  0  0  0
    9.2049  -16.4181   25.3194 C   0  0  0  0  0  0  0  0  0  0  0  0
   10.1803  -17.2212   25.2357 O   0  0  0  0  0  0  0  0  0  0  0  0
    8.8531  -13.4372   27.9348 C   0  0  0  0  0  0  0  0  0  0  0  0
   10.2548  -14.0253   28.0729 C   0  0  1  0  0  0  0  0  0  0  0  0
   10.5912  -14.2920   29.5190 C   0  0  0  0  0  0  0  0  0  0  0  0
   10.3568  -15.2998   27.2638 C   0  0  2  0  0  0  0  0  0  0  0  0
    9.2595  -15.4516   26.3440 N   0  0  0  0  0  0  0  0  0  0  0  0
   10.2938  -16.4410   28.2167 C   0  0  0  0  0  0  0  0  0  0  0  0
    9.2156  -17.2781   28.3524 O   0  0  0  0  0  0  0  0  0  0  0  0
   11.3009  -16.6444   28.9424 O   0  0  0  0  0  0  0  0  0  0  0  0
  1  2  1  0
  2  3  2  0
  4  5  1  0
  4  2  1  0
  6  8  1  0
  6  5  1  0
  6  7  1  6
  8  9  2  0
 10 11  1  0
 12 11  1  1
 12 13  1  0
 13  8  1  0
 14 12  1  0
 15 14  2  0
 17 16  1  1
 17 19  1  0
 18 17  1  0
 19 21  1  0
 19 20  1  6
 20 14  1  0
 21 22  1  0
 23 21  2  0
M  END
$$$$
