QSV.pdb
     RDKit          3D

 23 22  0  0  1  0  0  0  0  0999 V2000
   12.2761  -18.3788   21.0818 N   0  0  0  0  0  0  0  0  0  0  0  0
   11.8381  -17.5368   20.0410 C   0  0  0  0  0  0  0  0  0  0  0  0
   12.5650  -16.5972   19.6589 O   0  0  0  0  0  0  0  0  0  0  0  0
   10.5274  -17.7625   19.4045 C   0  0  0  0  0  0  0  0  0  0  0  0
    9.4495  -16.9895   20.1332 C   0  0  0  0  0  0  0  0  0  0  0  0
    8.2265  -17.8460   20.3814 C   0  0  2  0  0  0  0  0  0  0  0  0
    7.4719  -17.9181   19.1647 N   0  0  0  0  0  0  0  0  0  0  0  0
    7.4716  -17.2357   21.5000 C   0  0  0  0  0  0  0  0  0  0  0  0
    6.6121  -16.3647   21.2036 O   0  0  0  0  0  0  0  0  0  0  0  0
    7.8548  -18.4372   25.4797 O   0  0  0  0  0  0  0  0  0  0  0  0
    6.6458  -18.0567   24.9263 C   0  0  0  0  0  0  0  0  0  0  0  0
    6.8950  -16.9752   23.8648 C   0  0  2  0  0  0  0  0  0  0  0  0
    7.6903  -17.6011   22.8561 N   0  0  0  0  0  0  0  0  0  0  0  0
    7.5986  -15.8610   24.5432 C   0  0  0  0  0  0  0  0  0  0  0  0
    8.8536  -15.7885   24.3911 O   0  0  0  0  0  0  0  0  0  0  0  0
    7.6089  -11.6457   27.2189 C   0  0  0  0  0  0  0  0  0  0  0  0
    6.7922  -12.7248   26.5130 C   0  0  1  0  0  0  0  0  0  0  0  0
    6.0079  -12.1456   25.3621 C   0  0  0  0  0  0  0  0  0  0  0  0
    7.7103  -13.8243   26.0255 C   0  0  2  0  0  0  0  0  0  0  0  0
    6.9941  -14.8714   25.3445 N   0  0  0  0  0  0  0  0  0  0  0  0
    8.3512  -14.4350   27.2215 C   0  0  0  0  0  0  0  0  0  0  0  0
    9.4346  -13.9053   27.8752 O   0  0  0  0  0  0  0  0  0  0  0  0
    7.8602  -15.5088   27.6555 O   0  0  0  0  0  0  0  0  0  0  0  0
  1  2  1  0
  2  3  2  0
  4  5  1  0
  4  2  1  0
  6  8  1  0
  6  5  1  0
  6  7  1  6
  8  9  2  0
 10 11  1  0
 12 11  1  1
 12 13  1  0
 13  8  1  0
 14 12  1  0
 15 14  2  0
 17 16  1  6
 17 19  1  0
 18 17  1  0
 19 21  1  0
 19 20  1  1
 20 14  1  0
 21 22  1  0
 23 21  2  0
M  END
$$$$
