QSV.pdb
     RDKit          3D

 23 22  0  0  1  0  0  0  0  0999 V2000
   10.6176  -12.9170   20.7561 N   0  0  0  0  0  0  0  0  0  0  0  0
    9.9462  -13.0960   19.5309 C   0  0  0  0  0  0  0  0  0  0  0  0
   10.6042  -13.2818   18.4870 O   0  0  0  0  0  0  0  0  0  0  0  0
    8.4729  -13.0643   19.4795 C   0  0  0  0  0  0  0  0  0  0  0  0
    7.9469  -14.2763   18.7414 C   0  0  0  0  0  0  0  0  0  0  0  0
    8.2557  -15.5559   19.4885 C   0  0  2  0  0  0  0  0  0  0  0  0
    7.8261  -16.6624   18.6846 N   0  0  0  0  0  0  0  0  0  0  0  0
    7.5692  -15.4865   20.7989 C   0  0  0  0  0  0  0  0  0  0  0  0
    6.3555  -15.1511   20.7931 O   0  0  0  0  0  0  0  0  0  0  0  0
    8.6626  -17.6622   23.9508 O   0  0  0  0  0  0  0  0  0  0  0  0
    7.3855  -17.1801   23.7291 C   0  0  0  0  0  0  0  0  0  0  0  0
    7.4730  -15.7292   23.2329 C   0  0  2  0  0  0  0  0  0  0  0  0
    8.2302  -15.7810   22.0223 N   0  0  0  0  0  0  0  0  0  0  0  0
    8.1455  -14.9501   24.2994 C   0  0  0  0  0  0  0  0  0  0  0  0
    9.4087  -14.8753   24.2552 O   0  0  0  0  0  0  0  0  0  0  0  0
    7.1175  -11.3865   25.9906 C   0  0  0  0  0  0  0  0  0  0  0  0
    7.3440  -12.4866   27.0241 C   0  0  1  0  0  0  0  0  0  0  0  0
    6.0328  -13.0407   27.5230 C   0  0  0  0  0  0  0  0  0  0  0  0
    8.1874  -13.5888   26.4215 C   0  0  2  0  0  0  0  0  0  0  0  0
    7.5029  -14.2822   25.3614 N   0  0  0  0  0  0  0  0  0  0  0  0
    8.4580  -14.5830   27.4952 C   0  0  0  0  0  0  0  0  0  0  0  0
    9.2758  -14.3560   28.5728 O   0  0  0  0  0  0  0  0  0  0  0  0
    7.8951  -15.7039   27.4003 O   0  0  0  0  0  0  0  0  0  0  0  0
  1  2  1  0
  2  3  2  0
  4  5  1  0
  4  2  1  0
  6  8  1  0
  6  5  1  0
  6  7  1  6
  8  9  2  0
 10 11  1  0
 12 11  1  1
 12 13  1  0
 13  8  1  0
 14 12  1  0
 15 14  2  0
 17 16  1  6
 17 19  1  0
 18 17  1  0
 19 21  1  0
 19 20  1  6
 20 14  1  0
 21 22  1  0
 23 21  2  0
M  END
$$$$
