QSV.pdb
     RDKit          3D

 23 22  0  0  1  0  0  0  0  0999 V2000
    9.9405  -13.5887   19.8500 N   0  0  0  0  0  0  0  0  0  0  0  0
    8.9400  -13.1164   18.9783 C   0  0  0  0  0  0  0  0  0  0  0  0
    9.2515  -12.7208   17.8365 O   0  0  0  0  0  0  0  0  0  0  0  0
    7.5306  -13.0886   19.4106 C   0  0  0  0  0  0  0  0  0  0  0  0
    7.4015  -13.6345   20.8163 C   0  0  0  0  0  0  0  0  0  0  0  0
    7.4404  -15.1475   20.8278 C   0  0  2  0  0  0  0  0  0  0  0  0
    6.3578  -15.6327   20.0231 N   0  0  0  0  0  0  0  0  0  0  0  0
    7.3595  -15.5871   22.2397 C   0  0  0  0  0  0  0  0  0  0  0  0
    6.2351  -15.5084   22.8010 O   0  0  0  0  0  0  0  0  0  0  0  0
    9.5363  -18.3819   23.7144 O   0  0  0  0  0  0  0  0  0  0  0  0
    8.3994  -17.9599   24.3791 C   0  0  0  0  0  0  0  0  0  0  0  0
    8.3244  -16.4268   24.3269 C   0  0  2  0  0  0  0  0  0  0  0  0
    8.4876  -16.0796   22.9506 N   0  0  0  0  0  0  0  0  0  0  0  0
    9.4194  -15.9134   25.1837 C   0  0  0  0  0  0  0  0  0  0  0  0
   10.5497  -15.7401   24.6397 O   0  0  0  0  0  0  0  0  0  0  0  0
    9.4885  -12.7775   27.1745 C   0  0  0  0  0  0  0  0  0  0  0  0
    9.9929  -13.8514   28.1348 C   0  0  1  0  0  0  0  0  0  0  0  0
    8.9444  -14.1956   29.1630 C   0  0  0  0  0  0  0  0  0  0  0  0
   10.3942  -15.0855   27.3568 C   0  0  2  0  0  0  0  0  0  0  0  0
    9.3152  -15.5993   26.5538 N   0  0  0  0  0  0  0  0  0  0  0  0
   10.7498  -16.1407   28.3439 C   0  0  0  0  0  0  0  0  0  0  0  0
   11.8798  -16.1250   29.1213 O   0  0  0  0  0  0  0  0  0  0  0  0
    9.9553  -17.1081   28.4673 O   0  0  0  0  0  0  0  0  0  0  0  0
  1  2  1  0
  2  3  2  0
  4  5  1  0
  4  2  1  0
  6  8  1  0
  6  5  1  0
  6  7  1  6
  8  9  2  0
 10 11  1  0
 12 11  1  6
 12 13  1  0
 13  8  1  0
 14 12  1  0
 15 14  2  0
 17 16  1  6
 17 19  1  0
 18 17  1  0
 19 21  1  0
 19 20  1  1
 20 14  1  0
 21 22  1  0
 23 21  2  0
M  END
$$$$
