QSV.pdb
     RDKit          3D

 23 22  0  0  1  0  0  0  0  0999 V2000
    7.9546  -12.9099   18.3348 N   0  0  0  0  0  0  0  0  0  0  0  0
    8.5117  -14.0114   17.6565 C   0  0  0  0  0  0  0  0  0  0  0  0
    9.0768  -13.8391   16.5573 O   0  0  0  0  0  0  0  0  0  0  0  0
    8.4289  -15.3629   18.2404 C   0  0  0  0  0  0  0  0  0  0  0  0
    7.6841  -15.3213   19.5573 C   0  0  0  0  0  0  0  0  0  0  0  0
    7.6320  -16.6875   20.2066 C   0  0  2  0  0  0  0  0  0  0  0  0
    6.8883  -17.5653   19.3513 N   0  0  0  0  0  0  0  0  0  0  0  0
    7.0217  -16.5240   21.5461 C   0  0  0  0  0  0  0  0  0  0  0  0
    5.7989  -16.2266   21.5864 O   0  0  0  0  0  0  0  0  0  0  0  0
    8.3614  -18.1870   24.8499 O   0  0  0  0  0  0  0  0  0  0  0  0
    7.0971  -17.6279   24.8112 C   0  0  0  0  0  0  0  0  0  0  0  0
    7.1423  -16.3349   23.9838 C   0  0  2  0  0  0  0  0  0  0  0  0
    7.7636  -16.6903   22.7471 N   0  0  0  0  0  0  0  0  0  0  0  0
    7.9327  -15.3530   24.7634 C   0  0  0  0  0  0  0  0  0  0  0  0
    9.1937  -15.4160   24.6682 O   0  0  0  0  0  0  0  0  0  0  0  0
    7.3960  -11.3538   25.5730 C   0  0  0  0  0  0  0  0  0  0  0  0
    7.4980  -12.2255   26.8218 C   0  0  1  0  0  0  0  0  0  0  0  0
    6.1347  -12.4942   27.4087 C   0  0  0  0  0  0  0  0  0  0  0  0
    8.1921  -13.5264   26.4823 C   0  0  2  0  0  0  0  0  0  0  0  0
    7.4048  -14.3518   25.6036 N   0  0  0  0  0  0  0  0  0  0  0  0
    8.3726  -14.2818   27.7516 C   0  0  0  0  0  0  0  0  0  0  0  0
    9.2433  -13.9234   28.7490 O   0  0  0  0  0  0  0  0  0  0  0  0
    7.6762  -15.3169   27.9123 O   0  0  0  0  0  0  0  0  0  0  0  0
  1  2  1  0
  2  3  2  0
  4  5  1  0
  4  2  1  0
  6  8  1  0
  6  5  1  0
  6  7  1  6
  8  9  2  0
 10 11  1  0
 12 11  1  1
 12 13  1  0
 13  8  1  0
 14 12  1  0
 15 14  2  0
 17 16  1  6
 17 19  1  0
 18 17  1  0
 19 21  1  0
 19 20  1  6
 20 14  1  0
 21 22  1  0
 23 21  2  0
M  END
$$$$
