QSV.pdb
     RDKit          3D

 23 22  0  0  1  0  0  0  0  0999 V2000
   13.4907  -14.8450   20.6233 N   0  0  0  0  0  0  0  0  0  0  0  0
   13.1791  -14.4060   19.3217 C   0  0  0  0  0  0  0  0  0  0  0  0
   14.0929  -14.0223   18.5635 O   0  0  0  0  0  0  0  0  0  0  0  0
   11.7804  -14.3989   18.8550 C   0  0  0  0  0  0  0  0  0  0  0  0
   10.8361  -14.5862   20.0227 C   0  0  0  0  0  0  0  0  0  0  0  0
    9.4089  -14.7743   19.5552 C   0  0  2  0  0  0  0  0  0  0  0  0
    9.1270  -13.7845   18.5572 N   0  0  0  0  0  0  0  0  0  0  0  0
    8.5308  -14.6704   20.7433 C   0  0  0  0  0  0  0  0  0  0  0  0
    8.0256  -13.5429   20.9858 O   0  0  0  0  0  0  0  0  0  0  0  0
    8.0032  -17.7724   23.3885 O   0  0  0  0  0  0  0  0  0  0  0  0
    6.8928  -17.0095   23.0758 C   0  0  0  0  0  0  0  0  0  0  0  0
    7.3469  -15.5984   22.6746 C   0  0  2  0  0  0  0  0  0  0  0  0
    8.2558  -15.7806   21.5873 N   0  0  0  0  0  0  0  0  0  0  0  0
    7.9898  -14.9982   23.8675 C   0  0  0  0  0  0  0  0  0  0  0  0
    9.2357  -15.1762   24.0070 O   0  0  0  0  0  0  0  0  0  0  0  0
    7.3859  -11.3521   25.5441 C   0  0  0  0  0  0  0  0  0  0  0  0
    7.2826  -12.4806   26.5666 C   0  0  1  0  0  0  0  0  0  0  0  0
    5.8421  -12.7884   26.8913 C   0  0  0  0  0  0  0  0  0  0  0  0
    7.9798  -13.7151   26.0382 C   0  0  2  0  0  0  0  0  0  0  0  0
    7.3368  -14.2443   24.8636 N   0  0  0  0  0  0  0  0  0  0  0  0
    7.8987  -14.7610   27.0935 C   0  0  0  0  0  0  0  0  0  0  0  0
    8.6685  -14.7772   28.2287 O   0  0  0  0  0  0  0  0  0  0  0  0
    7.0658  -15.6886   26.9253 O   0  0  0  0  0  0  0  0  0  0  0  0
  1  2  1  0
  2  3  2  0
  4  5  1  0
  4  2  1  0
  6  8  1  0
  6  5  1  0
  6  7  1  6
  8  9  2  0
 10 11  1  0
 12 11  1  1
 12 13  1  0
 13  8  1  0
 14 12  1  0
 15 14  2  0
 17 16  1  6
 17 19  1  0
 18 17  1  0
 19 21  1  0
 19 20  1  6
 20 14  1  0
 21 22  1  0
 23 21  2  0
M  END
$$$$
