QSV.pdb
     RDKit          3D

 23 22  0  0  1  0  0  0  0  0999 V2000
    8.0386  -12.8623   16.6783 N   0  0  0  0  0  0  0  0  0  0  0  0
    8.0295  -14.2702   16.6373 C   0  0  0  0  0  0  0  0  0  0  0  0
    7.5436  -14.8566   15.6487 O   0  0  0  0  0  0  0  0  0  0  0  0
    8.5908  -15.0497   17.7560 C   0  0  0  0  0  0  0  0  0  0  0  0
    8.9831  -14.1301   18.8922 C   0  0  0  0  0  0  0  0  0  0  0  0
    9.5279  -14.9082   20.0706 C   0  0  2  0  0  0  0  0  0  0  0  0
    9.7283  -16.2670   19.6600 N   0  0  0  0  0  0  0  0  0  0  0  0
    8.5600  -14.7724   21.1833 C   0  0  0  0  0  0  0  0  0  0  0  0
    8.2158  -13.6045   21.5042 O   0  0  0  0  0  0  0  0  0  0  0  0
    7.7825  -17.7356   23.9886 O   0  0  0  0  0  0  0  0  0  0  0  0
    6.7060  -17.0520   23.4534 C   0  0  0  0  0  0  0  0  0  0  0  0
    7.1700  -15.6629   22.9909 C   0  0  2  0  0  0  0  0  0  0  0  0
    8.0294  -15.8960   21.8734 N   0  0  0  0  0  0  0  0  0  0  0  0
    7.8731  -15.0407   24.1376 C   0  0  0  0  0  0  0  0  0  0  0  0
    9.1267  -15.2051   24.2086 O   0  0  0  0  0  0  0  0  0  0  0  0
    7.2874  -11.3811   25.9339 C   0  0  0  0  0  0  0  0  0  0  0  0
    7.2528  -12.5578   26.9055 C   0  0  1  0  0  0  0  0  0  0  0  0
    5.8340  -12.9261   27.2612 C   0  0  0  0  0  0  0  0  0  0  0  0
    7.9694  -13.7439   26.2979 C   0  0  2  0  0  0  0  0  0  0  0  0
    7.2699  -14.2793   25.1590 N   0  0  0  0  0  0  0  0  0  0  0  0
    8.0158  -14.8151   27.3298 C   0  0  0  0  0  0  0  0  0  0  0  0
    8.7864  -14.7657   28.4635 O   0  0  0  0  0  0  0  0  0  0  0  0
    7.2972  -15.8303   27.1418 O   0  0  0  0  0  0  0  0  0  0  0  0
  1  2  1  0
  2  3  2  0
  4  5  1  0
  4  2  1  0
  6  8  1  0
  6  5  1  0
  6  7  1  6
  8  9  2  0
 10 11  1  0
 12 11  1  1
 12 13  1  0
 13  8  1  0
 14 12  1  0
 15 14  2  0
 17 16  1  6
 17 19  1  0
 18 17  1  0
 19 21  1  0
 19 20  1  6
 20 14  1  0
 21 22  1  0
 23 21  2  0
M  END
$$$$
