QSV.pdb
     RDKit          3D

 23 22  0  0  1  0  0  0  0  0999 V2000
   12.6319  -13.7082   20.0013 N   0  0  0  0  0  0  0  0  0  0  0  0
   12.9387  -14.9973   19.5237 C   0  0  0  0  0  0  0  0  0  0  0  0
   14.1047  -15.2632   19.1676 O   0  0  0  0  0  0  0  0  0  0  0  0
   11.8886  -16.0294   19.4439 C   0  0  0  0  0  0  0  0  0  0  0  0
   10.5995  -15.5149   20.0474 C   0  0  0  0  0  0  0  0  0  0  0  0
    9.5476  -16.6012   20.1136 C   0  0  2  0  0  0  0  0  0  0  0  0
    8.9708  -16.7505   18.8097 N   0  0  0  0  0  0  0  0  0  0  0  0
    8.5611  -16.2073   21.1456 C   0  0  0  0  0  0  0  0  0  0  0  0
    7.6828  -15.3702   20.8091 O   0  0  0  0  0  0  0  0  0  0  0  0
    8.2496  -18.1379   24.7498 O   0  0  0  0  0  0  0  0  0  0  0  0
    7.1465  -17.5581   24.1501 C   0  0  0  0  0  0  0  0  0  0  0  0
    7.5889  -16.2989   23.3903 C   0  0  2  0  0  0  0  0  0  0  0  0
    8.5847  -16.7374   22.4642 N   0  0  0  0  0  0  0  0  0  0  0  0
    8.1190  -15.3519   24.3997 C   0  0  0  0  0  0  0  0  0  0  0  0
    9.3723  -15.3363   24.5795 O   0  0  0  0  0  0  0  0  0  0  0  0
    6.6055  -11.5764   25.3617 C   0  0  0  0  0  0  0  0  0  0  0  0
    6.9027  -12.4825   26.5535 C   0  0  1  0  0  0  0  0  0  0  0  0
    5.6393  -13.1134   27.0837 C   0  0  0  0  0  0  0  0  0  0  0  0
    7.8961  -13.5499   26.1493 C   0  0  2  0  0  0  0  0  0  0  0  0
    7.3508  -14.4637   25.1794 N   0  0  0  0  0  0  0  0  0  0  0  0
    8.2216  -14.3419   27.3663 C   0  0  0  0  0  0  0  0  0  0  0  0
    8.9626  -13.8724   28.4208 O   0  0  0  0  0  0  0  0  0  0  0  0
    7.7840  -15.5199   27.4235 O   0  0  0  0  0  0  0  0  0  0  0  0
  1  2  1  0
  2  3  2  0
  4  5  1  0
  4  2  1  0
  6  8  1  0
  6  5  1  0
  6  7  1  6
  8  9  2  0
 10 11  1  0
 12 11  1  1
 12 13  1  0
 13  8  1  0
 14 12  1  0
 15 14  2  0
 17 16  1  6
 17 19  1  0
 18 17  1  0
 19 21  1  0
 19 20  1  6
 20 14  1  0
 21 22  1  0
 23 21  2  0
M  END
$$$$
