QSV.pdb
     RDKit          3D

 23 22  0  0  1  0  0  0  0  0999 V2000
   14.0966  -18.6238   21.5622 N   0  0  0  0  0  0  0  0  0  0  0  0
   13.5600  -17.8667   20.5026 C   0  0  0  0  0  0  0  0  0  0  0  0
   14.2701  -17.0152   19.9299 O   0  0  0  0  0  0  0  0  0  0  0  0
   12.1662  -18.0775   20.0702 C   0  0  0  0  0  0  0  0  0  0  0  0
   11.2116  -17.3843   21.0182 C   0  0  0  0  0  0  0  0  0  0  0  0
    9.7707  -17.7091   20.6879 C   0  0  2  0  0  0  0  0  0  0  0  0
    9.5552  -17.4399   19.2965 N   0  0  0  0  0  0  0  0  0  0  0  0
    8.9123  -16.8950   21.5788 C   0  0  0  0  0  0  0  0  0  0  0  0
    8.6297  -15.7297   21.1944 O   0  0  0  0  0  0  0  0  0  0  0  0
    7.4968  -18.1929   25.2947 O   0  0  0  0  0  0  0  0  0  0  0  0
    6.6603  -17.5691   24.3871 C   0  0  0  0  0  0  0  0  0  0  0  0
    7.4799  -16.5848   23.5396 C   0  0  2  0  0  0  0  0  0  0  0  0
    8.4173  -17.3858   22.8175 N   0  0  0  0  0  0  0  0  0  0  0  0
    8.1318  -15.6452   24.4822 C   0  0  0  0  0  0  0  0  0  0  0  0
    9.3620  -15.8242   24.7228 O   0  0  0  0  0  0  0  0  0  0  0  0
    7.1154  -11.6527   25.1010 C   0  0  0  0  0  0  0  0  0  0  0  0
    7.3304  -12.4591   26.3790 C   0  0  1  0  0  0  0  0  0  0  0  0
    6.0134  -12.8499   27.0019 C   0  0  0  0  0  0  0  0  0  0  0  0
    8.1559  -13.6900   26.0743 C   0  0  2  0  0  0  0  0  0  0  0  0
    7.5034  -14.5663   25.1365 N   0  0  0  0  0  0  0  0  0  0  0  0
    8.3168  -14.4467   27.3455 C   0  0  0  0  0  0  0  0  0  0  0  0
    9.1200  -14.0525   28.3852 O   0  0  0  0  0  0  0  0  0  0  0  0
    7.6693  -15.5184   27.4662 O   0  0  0  0  0  0  0  0  0  0  0  0
  1  2  1  0
  2  3  2  0
  4  5  1  0
  4  2  1  0
  6  8  1  0
  6  5  1  0
  6  7  1  6
  8  9  2  0
 10 11  1  0
 12 11  1  1
 12 13  1  0
 13  8  1  0
 14 12  1  0
 15 14  2  0
 17 16  1  6
 17 19  1  0
 18 17  1  0
 19 21  1  0
 19 20  1  6
 20 14  1  0
 21 22  1  0
 23 21  2  0
M  END
$$$$
