QSV.pdb
     RDKit          3D

 23 22  0  0  1  0  0  0  0  0999 V2000
    9.7690  -13.6416   19.8371 N   0  0  0  0  0  0  0  0  0  0  0  0
    9.0804  -13.3459   18.6445 C   0  0  0  0  0  0  0  0  0  0  0  0
    9.7238  -13.1032   17.6033 O   0  0  0  0  0  0  0  0  0  0  0  0
    7.6062  -13.3227   18.6241 C   0  0  0  0  0  0  0  0  0  0  0  0
    7.0548  -13.8062   19.9480 C   0  0  0  0  0  0  0  0  0  0  0  0
    7.3466  -15.2754   20.1653 C   0  0  2  0  0  0  0  0  0  0  0  0
    6.6958  -16.0225   19.1293 N   0  0  0  0  0  0  0  0  0  0  0  0
    6.8748  -15.6298   21.5236 C   0  0  0  0  0  0  0  0  0  0  0  0
    5.6479  -15.4776   21.7621 O   0  0  0  0  0  0  0  0  0  0  0  0
    8.8437  -17.9009   24.2199 O   0  0  0  0  0  0  0  0  0  0  0  0
    7.5146  -17.5589   24.3912 C   0  0  0  0  0  0  0  0  0  0  0  0
    7.2929  -16.1264   23.8839 C   0  0  2  0  0  0  0  0  0  0  0  0
    7.7496  -16.1219   22.5301 N   0  0  0  0  0  0  0  0  0  0  0  0
    8.0849  -15.2323   24.7614 C   0  0  0  0  0  0  0  0  0  0  0  0
    9.3058  -15.0653   24.4700 O   0  0  0  0  0  0  0  0  0  0  0  0
    7.7717  -11.5523   25.9278 C   0  0  0  0  0  0  0  0  0  0  0  0
    7.7969  -12.4559   27.1577 C   0  0  1  0  0  0  0  0  0  0  0  0
    6.4085  -12.6558   27.7125 C   0  0  0  0  0  0  0  0  0  0  0  0
    8.4195  -13.7880   26.8010 C   0  0  2  0  0  0  0  0  0  0  0  0
    7.5993  -14.5484   25.8943 N   0  0  0  0  0  0  0  0  0  0  0  0
    8.5364  -14.5777   28.0568 C   0  0  0  0  0  0  0  0  0  0  0  0
    9.4171  -14.2958   29.0699 O   0  0  0  0  0  0  0  0  0  0  0  0
    7.7727  -15.5684   28.1899 O   0  0  0  0  0  0  0  0  0  0  0  0
  1  2  1  0
  2  3  2  0
  4  5  1  0
  4  2  1  0
  6  8  1  0
  6  5  1  0
  6  7  1  6
  8  9  2  0
 10 11  1  0
 12 11  1  1
 12 13  1  0
 13  8  1  0
 14 12  1  0
 15 14  2  0
 17 16  1  6
 17 19  1  0
 18 17  1  0
 19 21  1  0
 19 20  1  6
 20 14  1  0
 21 22  1  0
 23 21  2  0
M  END
$$$$
