QSV.pdb
     RDKit          3D

 23 22  0  0  1  0  0  0  0  0999 V2000
    8.5189  -11.9830   18.4508 N   0  0  0  0  0  0  0  0  0  0  0  0
    9.3335  -13.0002   18.9853 C   0  0  0  0  0  0  0  0  0  0  0  0
   10.5171  -12.7481   19.2899 O   0  0  0  0  0  0  0  0  0  0  0  0
    8.7925  -14.3573   19.1849 C   0  0  0  0  0  0  0  0  0  0  0  0
    8.1687  -14.4772   20.5586 C   0  0  0  0  0  0  0  0  0  0  0  0
    7.6130  -15.8652   20.7944 C   0  0  2  0  0  0  0  0  0  0  0  0
    6.4304  -16.0188   19.9988 N   0  0  0  0  0  0  0  0  0  0  0  0
    7.3604  -16.0058   22.2469 C   0  0  0  0  0  0  0  0  0  0  0  0
    6.3115  -15.4770   22.7002 O   0  0  0  0  0  0  0  0  0  0  0  0
    8.8407  -18.9163   24.4382 O   0  0  0  0  0  0  0  0  0  0  0  0
    7.7673  -18.1742   24.8963 C   0  0  0  0  0  0  0  0  0  0  0  0
    7.9722  -16.7011   24.5130 C   0  0  2  0  0  0  0  0  0  0  0  0
    8.2483  -16.7026   23.1110 N   0  0  0  0  0  0  0  0  0  0  0  0
    9.1080  -16.2002   25.3226 C   0  0  0  0  0  0  0  0  0  0  0  0
   10.2526  -16.2021   24.7810 O   0  0  0  0  0  0  0  0  0  0  0  0
    9.3522  -12.8553   27.3682 C   0  0  0  0  0  0  0  0  0  0  0  0
    9.7671  -14.0251   28.2566 C   0  0  1  0  0  0  0  0  0  0  0  0
    8.6613  -14.3998   29.2117 C   0  0  0  0  0  0  0  0  0  0  0  0
   10.1460  -15.2111   27.3968 C   0  0  2  0  0  0  0  0  0  0  0  0
    9.0281  -15.7198   26.6454 N   0  0  0  0  0  0  0  0  0  0  0  0
   10.5958  -16.2985   28.3076 C   0  0  0  0  0  0  0  0  0  0  0  0
   11.7539  -16.2644   29.0419 O   0  0  0  0  0  0  0  0  0  0  0  0
    9.8586  -17.3131   28.4047 O   0  0  0  0  0  0  0  0  0  0  0  0
  1  2  1  0
  2  3  2  0
  4  5  1  0
  4  2  1  0
  6  8  1  0
  6  5  1  0
  6  7  1  6
  8  9  2  0
 10 11  1  0
 12 11  1  1
 12 13  1  0
 13  8  1  0
 14 12  1  0
 15 14  2  0
 17 16  1  6
 17 19  1  0
 18 17  1  0
 19 21  1  0
 19 20  1  1
 20 14  1  0
 21 22  1  0
 23 21  2  0
M  END
$$$$
