QSV.pdb
     RDKit          3D

 23 22  0  0  1  0  0  0  0  0999 V2000
    8.0054  -12.8540   18.7502 N   0  0  0  0  0  0  0  0  0  0  0  0
    8.4659  -13.9582   18.0068 C   0  0  0  0  0  0  0  0  0  0  0  0
    9.0970  -13.7698   16.9469 O   0  0  0  0  0  0  0  0  0  0  0  0
    8.2047  -15.3312   18.4767 C   0  0  0  0  0  0  0  0  0  0  0  0
    7.4218  -15.3032   19.7716 C   0  0  0  0  0  0  0  0  0  0  0  0
    7.1970  -16.6988   20.3125 C   0  0  2  0  0  0  0  0  0  0  0  0
    6.2774  -17.3757   19.4458 N   0  0  0  0  0  0  0  0  0  0  0  0
    6.6994  -16.5665   21.7011 C   0  0  0  0  0  0  0  0  0  0  0  0
    5.5101  -16.1805   21.8494 O   0  0  0  0  0  0  0  0  0  0  0  0
    8.3582  -18.3697   24.8579 O   0  0  0  0  0  0  0  0  0  0  0  0
    7.0678  -17.8759   24.9177 C   0  0  0  0  0  0  0  0  0  0  0  0
    6.9947  -16.5588   24.1312 C   0  0  2  0  0  0  0  0  0  0  0  0
    7.5099  -16.8566   22.8321 N   0  0  0  0  0  0  0  0  0  0  0  0
    7.8218  -15.5727   24.8661 C   0  0  0  0  0  0  0  0  0  0  0  0
    9.0276  -15.4407   24.5029 O   0  0  0  0  0  0  0  0  0  0  0  0
    6.8429  -11.8489   26.1217 C   0  0  0  0  0  0  0  0  0  0  0  0
    7.4388  -12.6928   27.2453 C   0  0  1  0  0  0  0  0  0  0  0  0
    6.3617  -13.2064   28.1680 C   0  0  0  0  0  0  0  0  0  0  0  0
    8.2242  -13.8451   26.6582 C   0  0  2  0  0  0  0  0  0  0  0  0
    7.3850  -14.7657   25.9361 N   0  0  0  0  0  0  0  0  0  0  0  0
    8.8299  -14.5968   27.7906 C   0  0  0  0  0  0  0  0  0  0  0  0
    9.8359  -14.1159   28.5895 O   0  0  0  0  0  0  0  0  0  0  0  0
    8.3835  -15.7495   28.0239 O   0  0  0  0  0  0  0  0  0  0  0  0
  1  2  1  0
  2  3  2  0
  4  5  1  0
  4  2  1  0
  6  8  1  0
  6  5  1  0
  6  7  1  6
  8  9  2  0
 10 11  1  0
 12 11  1  1
 12 13  1  0
 13  8  1  0
 14 12  1  0
 15 14  2  0
 17 16  1  6
 17 19  1  0
 18 17  1  0
 19 21  1  0
 19 20  1  1
 20 14  1  0
 21 22  1  0
 23 21  2  0
M  END
$$$$
