QSV.pdb
     RDKit          3D

 23 22  0  0  1  0  0  0  0  0999 V2000
   12.9231  -15.3088   20.8792 N   0  0  0  0  0  0  0  0  0  0  0  0
   12.5765  -14.2707   19.9926 C   0  0  0  0  0  0  0  0  0  0  0  0
   13.4750  -13.5994   19.4454 O   0  0  0  0  0  0  0  0  0  0  0  0
   11.1594  -13.9766   19.7107 C   0  0  0  0  0  0  0  0  0  0  0  0
   10.3646  -15.2613   19.6185 C   0  0  0  0  0  0  0  0  0  0  0  0
    8.8998  -14.9877   19.3537 C   0  0  2  0  0  0  0  0  0  0  0  0
    8.8003  -13.8089   18.5439 N   0  0  0  0  0  0  0  0  0  0  0  0
    8.2249  -14.8525   20.6650 C   0  0  0  0  0  0  0  0  0  0  0  0
    7.7663  -13.7174   20.9593 O   0  0  0  0  0  0  0  0  0  0  0  0
    8.0558  -17.8519   23.5628 O   0  0  0  0  0  0  0  0  0  0  0  0
    6.9043  -17.1800   23.1951 C   0  0  0  0  0  0  0  0  0  0  0  0
    7.2736  -15.7643   22.7280 C   0  0  2  0  0  0  0  0  0  0  0  0
    8.0889  -15.9417   21.5681 N   0  0  0  0  0  0  0  0  0  0  0  0
    7.9983  -15.1177   23.8475 C   0  0  0  0  0  0  0  0  0  0  0  0
    9.2632  -15.1071   23.7912 O   0  0  0  0  0  0  0  0  0  0  0  0
    6.7672  -11.8599   25.6341 C   0  0  0  0  0  0  0  0  0  0  0  0
    7.3565  -12.7751   26.7041 C   0  0  1  0  0  0  0  0  0  0  0  0
    6.2751  -13.3381   27.5921 C   0  0  0  0  0  0  0  0  0  0  0  0
    8.1359  -13.8936   26.0477 C   0  0  2  0  0  0  0  0  0  0  0  0
    7.4039  -14.5109   24.9724 N   0  0  0  0  0  0  0  0  0  0  0  0
    8.3703  -14.9406   27.0788 C   0  0  0  0  0  0  0  0  0  0  0  0
    9.2170  -14.7984   28.1486 O   0  0  0  0  0  0  0  0  0  0  0  0
    7.7460  -16.0255   26.9534 O   0  0  0  0  0  0  0  0  0  0  0  0
  1  2  1  0
  2  3  2  0
  4  5  1  0
  4  2  1  0
  6  8  1  0
  6  5  1  0
  6  7  1  6
  8  9  2  0
 10 11  1  0
 12 11  1  1
 12 13  1  0
 13  8  1  0
 14 12  1  0
 15 14  2  0
 17 16  1  6
 17 19  1  0
 18 17  1  0
 19 21  1  0
 19 20  1  6
 20 14  1  0
 21 22  1  0
 23 21  2  0
M  END
$$$$
