QSV.pdb
     RDKit          3D

 23 22  0  0  1  0  0  0  0  0999 V2000
   11.9891  -17.4333   18.0478 N   0  0  0  0  0  0  0  0  0  0  0  0
   12.2510  -18.3827   19.0548 C   0  0  0  0  0  0  0  0  0  0  0  0
   13.1782  -19.2041   18.9038 O   0  0  0  0  0  0  0  0  0  0  0  0
   11.4347  -18.4079   20.2825 C   0  0  0  0  0  0  0  0  0  0  0  0
   10.3737  -17.3299   20.2301 C   0  0  0  0  0  0  0  0  0  0  0  0
    8.9815  -17.9207   20.2888 C   0  0  2  0  0  0  0  0  0  0  0  0
    8.4462  -17.9467   18.9592 N   0  0  0  0  0  0  0  0  0  0  0  0
    8.1829  -17.0938   21.2225 C   0  0  0  0  0  0  0  0  0  0  0  0
    7.7256  -16.0078   20.7788 O   0  0  0  0  0  0  0  0  0  0  0  0
    7.2548  -18.3902   24.9995 O   0  0  0  0  0  0  0  0  0  0  0  0
    6.3280  -17.6442   24.2943 C   0  0  0  0  0  0  0  0  0  0  0  0
    7.0666  -16.6742   23.3604 C   0  0  2  0  0  0  0  0  0  0  0  0
    7.9304  -17.4880   22.5646 N   0  0  0  0  0  0  0  0  0  0  0  0
    7.8061  -15.7243   24.2248 C   0  0  0  0  0  0  0  0  0  0  0  0
    9.0344  -15.9573   24.4256 O   0  0  0  0  0  0  0  0  0  0  0  0
    5.9275  -13.0046   26.9136 C   0  0  0  0  0  0  0  0  0  0  0  0
    7.1679  -12.5186   26.1688 C   0  0  1  0  0  0  0  0  0  0  0  0
    7.9930  -11.5972   27.0323 C   0  0  0  0  0  0  0  0  0  0  0  0
    7.9946  -13.7050   25.7232 C   0  0  2  0  0  0  0  0  0  0  0  0
    7.2632  -14.5808   24.8450 N   0  0  0  0  0  0  0  0  0  0  0  0
    8.3420  -14.4900   26.9387 C   0  0  0  0  0  0  0  0  0  0  0  0
    9.4232  -14.2342   27.7432 O   0  0  0  0  0  0  0  0  0  0  0  0
    7.5884  -15.4507   27.2414 O   0  0  0  0  0  0  0  0  0  0  0  0
  1  2  1  0
  2  3  2  0
  4  5  1  0
  4  2  1  0
  6  8  1  0
  6  5  1  0
  6  7  1  6
  8  9  2  0
 10 11  1  0
 12 11  1  1
 12 13  1  0
 13  8  1  0
 14 12  1  0
 15 14  2  0
 17 16  1  1
 17 19  1  0
 18 17  1  0
 19 21  1  0
 19 20  1  6
 20 14  1  0
 21 22  1  0
 23 21  2  0
M  END
$$$$
