EVK.pdb
     RDKit          3D

 26 25  0  0  1  0  0  0  0  0999 V2000
    8.1093  -14.6870   20.3063 N   0  0  0  0  0  0  0  0  0  0  0  0
    7.4319  -15.1291   21.4712 C   0  0  1  0  0  0  0  0  0  0  0  0
    7.1255  -16.5664   21.5218 C   0  0  0  0  0  0  0  0  0  0  0  0
    6.4098  -17.0369   20.2969 C   0  0  0  0  0  0  0  0  0  0  0  0
    5.9112  -18.4034   20.2786 C   0  0  0  0  0  0  0  0  0  0  0  0
    6.0392  -19.2255   21.1943 O   0  0  0  0  0  0  0  0  0  0  0  0
    8.1923  -14.6426   22.6732 C   0  0  0  0  0  0  0  0  0  0  0  0
    9.4168  -14.8460   22.6580 O   0  0  0  0  0  0  0  0  0  0  0  0
    5.2332  -18.8196   19.1330 O   0  0  0  0  0  0  0  0  0  0  0  0
    8.0524  -12.0992   26.9320 C   0  0  0  0  0  0  0  0  0  0  0  0
    7.2896  -12.5464   25.6752 C   0  0  2  0  0  0  0  0  0  0  0  0
    5.9415  -13.0112   26.1899 C   0  0  0  0  0  0  0  0  0  0  0  0
    8.1114  -13.6094   25.0150 C   0  0  2  0  0  0  0  0  0  0  0  0
    7.5696  -14.0050   23.7361 N   0  0  0  0  0  0  0  0  0  0  0  0
    8.4957  -14.7653   25.8031 C   0  0  0  0  0  0  0  0  0  0  0  0
    7.6351  -15.7084   25.8940 O   0  0  0  0  0  0  0  0  0  0  0  0
    9.7155  -14.9328   26.4600 N   0  0  0  0  0  0  0  0  0  0  0  0
    9.9705  -16.2543   27.1340 C   0  0  1  0  0  0  0  0  0  0  0  0
   11.1638  -16.8428   26.4796 C   0  0  0  0  0  0  0  0  0  0  0  0
   11.8242  -18.0497   26.9278 C   0  0  0  0  0  0  0  0  0  0  0  0
   13.0295  -18.6006   26.2893 C   0  0  0  0  0  0  0  0  0  0  0  0
   13.5925  -19.8281   26.9297 C   0  0  0  0  0  0  0  0  0  0  0  0
   14.6218  -20.4606   26.1374 N   0  0  0  0  0  0  0  0  0  0  0  0
   10.1432  -15.9530   28.5769 C   0  0  0  0  0  0  0  0  0  0  0  0
   10.1778  -16.7591   29.5161 O   0  0  0  0  0  0  0  0  0  0  0  0
   10.2901  -14.6000   28.9766 O   0  0  0  0  0  0  0  0  0  0  0  0
  2  1  1  6
  2  7  1  0
  3  4  1  0
  3  2  1  0
  5  4  1  0
  6  5  2  0
  7  8  2  0
  9  5  1  0
 11 10  1  1
 11 12  1  0
 13 11  1  0
 14  7  1  0
 13 14  1  6
 15 13  1  0
 15 16  2  0
 17 15  1  0
 18 17  1  0
 18 19  1  6
 20 21  1  0
 20 19  1  0
 22 23  1  0
 22 21  1  0
 24 26  1  0
 24 18  1  0
 25 24  2  0
M  END
$$$$
