EVK.pdb
     RDKit          3D

 26 25  0  0  1  0  0  0  0  0999 V2000
    7.9390  -14.6601   20.3133 N   0  0  0  0  0  0  0  0  0  0  0  0
    7.3757  -15.2681   21.4641 C   0  0  1  0  0  0  0  0  0  0  0  0
    7.3428  -16.7381   21.4551 C   0  0  0  0  0  0  0  0  0  0  0  0
    6.8160  -17.2856   20.1680 C   0  0  0  0  0  0  0  0  0  0  0  0
    6.6242  -18.7239   20.0640 C   0  0  0  0  0  0  0  0  0  0  0  0
    6.8479  -19.5437   20.9633 O   0  0  0  0  0  0  0  0  0  0  0  0
    8.0527  -14.6978   22.6791 C   0  0  0  0  0  0  0  0  0  0  0  0
    9.2758  -14.5105   22.5794 O   0  0  0  0  0  0  0  0  0  0  0  0
    6.1491  -19.2178   18.8494 O   0  0  0  0  0  0  0  0  0  0  0  0
    6.7812  -11.8569   24.9842 C   0  0  0  0  0  0  0  0  0  0  0  0
    6.9494  -13.1007   25.8709 C   0  0  2  0  0  0  0  0  0  0  0  0
    7.4928  -12.5666   27.1816 C   0  0  0  0  0  0  0  0  0  0  0  0
    7.8639  -14.0388   25.1464 C   0  0  2  0  0  0  0  0  0  0  0  0
    7.3587  -14.3974   23.8419 N   0  0  0  0  0  0  0  0  0  0  0  0
    8.3531  -15.2041   25.8590 C   0  0  0  0  0  0  0  0  0  0  0  0
    7.5033  -16.1333   26.0891 O   0  0  0  0  0  0  0  0  0  0  0  0
    9.6613  -15.3943   26.3059 N   0  0  0  0  0  0  0  0  0  0  0  0
    9.9820  -16.6927   26.9966 C   0  0  1  0  0  0  0  0  0  0  0  0
   11.2585  -17.1782   26.4192 C   0  0  0  0  0  0  0  0  0  0  0  0
   11.4998  -17.3398   25.0016 C   0  0  0  0  0  0  0  0  0  0  0  0
   12.7689  -17.8334   24.4452 C   0  0  0  0  0  0  0  0  0  0  0  0
   12.8691  -17.8116   22.9542 C   0  0  0  0  0  0  0  0  0  0  0  0
   14.1561  -18.2492   22.4651 N   0  0  0  0  0  0  0  0  0  0  0  0
   10.0384  -16.3837   28.4470 C   0  0  0  0  0  0  0  0  0  0  0  0
    9.9797  -15.2690   28.9828 O   0  0  0  0  0  0  0  0  0  0  0  0
   10.1747  -17.4554   29.3662 O   0  0  0  0  0  0  0  0  0  0  0  0
  2  1  1  6
  2  7  1  0
  3  4  1  0
  3  2  1  0
  5  4  1  0
  6  5  2  0
  7  8  2  0
  9  5  1  0
 11 10  1  6
 11 12  1  0
 13 11  1  0
 14  7  1  0
 13 14  1  6
 15 13  1  0
 15 16  2  0
 17 15  1  0
 18 17  1  0
 18 19  1  6
 20 21  1  0
 20 19  1  0
 22 23  1  0
 22 21  1  0
 24 26  1  0
 24 18  1  0
 25 24  2  0
M  END
$$$$
