EVK.pdb
     RDKit          3D

 26 25  0  0  1  0  0  0  0  0999 V2000
    8.7873  -15.5841   20.7780 N   0  0  0  0  0  0  0  0  0  0  0  0
    8.0716  -16.0154   21.9238 C   0  0  1  0  0  0  0  0  0  0  0  0
    8.1086  -17.4612   22.1898 C   0  0  0  0  0  0  0  0  0  0  0  0
    7.7326  -18.2683   20.9893 C   0  0  0  0  0  0  0  0  0  0  0  0
    7.7510  -19.7181   21.1066 C   0  0  0  0  0  0  0  0  0  0  0  0
    7.4322  -20.5136   20.2143 O   0  0  0  0  0  0  0  0  0  0  0  0
    8.5132  -15.1856   23.0969 C   0  0  0  0  0  0  0  0  0  0  0  0
    9.7323  -14.9650   23.1757 O   0  0  0  0  0  0  0  0  0  0  0  0
    8.1623  -20.2541   22.3268 O   0  0  0  0  0  0  0  0  0  0  0  0
    6.6742  -12.0072   24.6033 C   0  0  0  0  0  0  0  0  0  0  0  0
    6.7600  -13.1024   25.6778 C   0  0  2  0  0  0  0  0  0  0  0  0
    6.9787  -12.3501   26.9757 C   0  0  0  0  0  0  0  0  0  0  0  0
    7.8772  -14.0187   25.2859 C   0  0  2  0  0  0  0  0  0  0  0  0
    7.6184  -14.6940   24.0358 N   0  0  0  0  0  0  0  0  0  0  0  0
    8.3896  -14.9386   26.2839 C   0  0  0  0  0  0  0  0  0  0  0  0
    7.6796  -15.9760   26.5249 O   0  0  0  0  0  0  0  0  0  0  0  0
    9.5826  -14.7886   26.9922 N   0  0  0  0  0  0  0  0  0  0  0  0
    9.9409  -15.8554   27.9918 C   0  0  1  0  0  0  0  0  0  0  0  0
   10.9944  -16.6896   27.3651 C   0  0  0  0  0  0  0  0  0  0  0  0
   11.6876  -17.7655   28.0399 C   0  0  0  0  0  0  0  0  0  0  0  0
   12.7601  -18.5569   27.4173 C   0  0  0  0  0  0  0  0  0  0  0  0
   13.3225  -19.6544   28.2617 C   0  0  0  0  0  0  0  0  0  0  0  0
   14.4126  -20.3578   27.6261 N   0  0  0  0  0  0  0  0  0  0  0  0
   10.3684  -15.1407   29.2201 C   0  0  0  0  0  0  0  0  0  0  0  0
   10.5528  -13.9243   29.3586 O   0  0  0  0  0  0  0  0  0  0  0  0
   10.6056  -15.8945   30.3981 O   0  0  0  0  0  0  0  0  0  0  0  0
  2  1  1  6
  2  7  1  0
  3  4  1  0
  3  2  1  0
  5  4  1  0
  6  5  2  0
  7  8  2  0
  9  5  1  0
 11 10  1  6
 11 12  1  0
 13 11  1  0
 14  7  1  0
 13 14  1  6
 15 13  1  0
 15 16  2  0
 17 15  1  0
 18 17  1  0
 18 19  1  6
 20 21  1  0
 20 19  1  0
 22 23  1  0
 22 21  1  0
 24 26  1  0
 24 18  1  0
 25 24  2  0
M  END
$$$$
