EVK.pdb
     RDKit          3D

 26 25  0  0  1  0  0  0  0  0999 V2000
    9.9363  -17.0773   15.9029 N   0  0  0  0  0  0  0  0  0  0  0  0
    8.9448  -17.1702   16.9126 C   0  0  1  0  0  0  0  0  0  0  0  0
    8.5604  -18.5349   17.3029 C   0  0  0  0  0  0  0  0  0  0  0  0
    8.0225  -19.3232   16.1526 C   0  0  0  0  0  0  0  0  0  0  0  0
    7.5732  -20.6833   16.4061 C   0  0  0  0  0  0  0  0  0  0  0  0
    6.5040  -20.9965   16.9443 O   0  0  0  0  0  0  0  0  0  0  0  0
    9.3736  -16.3199   18.0757 C   0  0  0  0  0  0  0  0  0  0  0  0
   10.5921  -16.3011   18.3125 O   0  0  0  0  0  0  0  0  0  0  0  0
    8.4189  -21.7189   16.0091 O   0  0  0  0  0  0  0  0  0  0  0  0
    7.6038  -12.8720   19.2722 C   0  0  0  0  0  0  0  0  0  0  0  0
    7.5727  -13.9317   20.3846 C   0  0  2  0  0  0  0  0  0  0  0  0
    7.7458  -13.1448   21.6688 C   0  0  0  0  0  0  0  0  0  0  0  0
    8.6684  -14.9095   20.0935 C   0  0  2  0  0  0  0  0  0  0  0  0
    8.4684  -15.5985   18.8401 N   0  0  0  0  0  0  0  0  0  0  0  0
    9.0595  -15.8313   21.1433 C   0  0  0  0  0  0  0  0  0  0  0  0
    8.3588  -16.8961   21.2611 O   0  0  0  0  0  0  0  0  0  0  0  0
   10.1282  -15.6558   22.0233 N   0  0  0  0  0  0  0  0  0  0  0  0
   10.3501  -16.7118   23.0728 C   0  0  1  0  0  0  0  0  0  0  0  0
   11.7179  -17.2431   22.8596 C   0  0  0  0  0  0  0  0  0  0  0  0
   12.3830  -18.1600   23.7601 C   0  0  0  0  0  0  0  0  0  0  0  0
   13.7798  -18.5907   23.5944 C   0  0  0  0  0  0  0  0  0  0  0  0
   14.3142  -19.4704   24.6779 C   0  0  0  0  0  0  0  0  0  0  0  0
   15.6430  -19.9663   24.4030 N   0  0  0  0  0  0  0  0  0  0  0  0
   10.1451  -16.0410   24.3806 C   0  0  0  0  0  0  0  0  0  0  0  0
   10.0668  -14.8249   24.5996 O   0  0  0  0  0  0  0  0  0  0  0  0
   10.0180  -16.8427   25.5438 O   0  0  0  0  0  0  0  0  0  0  0  0
  2  1  1  6
  2  7  1  0
  3  4  1  0
  3  2  1  0
  5  4  1  0
  6  5  2  0
  7  8  2  0
  9  5  1  0
 11 10  1  6
 11 12  1  0
 13 11  1  0
 14  7  1  0
 13 14  1  6
 15 13  1  0
 15 16  2  0
 17 15  1  0
 18 17  1  0
 18 19  1  1
 20 21  1  0
 20 19  1  0
 22 23  1  0
 22 21  1  0
 24 26  1  0
 24 18  1  0
 25 24  2  0
M  END
$$$$
