EVK.pdb
     RDKit          3D

 26 25  0  0  1  0  0  0  0  0999 V2000
    8.1707  -17.3714   16.7949 N   0  0  0  0  0  0  0  0  0  0  0  0
    7.3613  -16.9615   17.8848 C   0  0  1  0  0  0  0  0  0  0  0  0
    6.4365  -17.9782   18.4079 C   0  0  0  0  0  0  0  0  0  0  0  0
    6.8918  -19.3689   18.1036 C   0  0  0  0  0  0  0  0  0  0  0  0
    6.0525  -20.4741   18.5395 C   0  0  0  0  0  0  0  0  0  0  0  0
    4.9707  -20.3633   19.1298 O   0  0  0  0  0  0  0  0  0  0  0  0
    8.2540  -16.3729   18.9414 C   0  0  0  0  0  0  0  0  0  0  0  0
    9.3849  -16.8760   19.0364 O   0  0  0  0  0  0  0  0  0  0  0  0
    6.5062  -21.7649   18.2689 O   0  0  0  0  0  0  0  0  0  0  0  0
    6.6176  -13.4834   21.7434 C   0  0  0  0  0  0  0  0  0  0  0  0
    8.0208  -13.3218   21.1382 C   0  0  2  0  0  0  0  0  0  0  0  0
    7.8119  -12.4559   19.9115 C   0  0  0  0  0  0  0  0  0  0  0  0
    8.5410  -14.6970   20.8563 C   0  0  2  0  0  0  0  0  0  0  0  0
    7.8450  -15.3318   19.7617 N   0  0  0  0  0  0  0  0  0  0  0  0
    8.7060  -15.6083   21.9732 C   0  0  0  0  0  0  0  0  0  0  0  0
    7.7378  -16.4134   22.2034 O   0  0  0  0  0  0  0  0  0  0  0  0
    9.8237  -15.6807   22.8056 N   0  0  0  0  0  0  0  0  0  0  0  0
    9.8225  -16.7270   23.8877 C   0  0  1  0  0  0  0  0  0  0  0  0
   10.8484  -17.7294   23.5118 C   0  0  0  0  0  0  0  0  0  0  0  0
   11.2676  -18.8217   24.3632 C   0  0  0  0  0  0  0  0  0  0  0  0
   12.3784  -19.7280   24.0334 C   0  0  0  0  0  0  0  0  0  0  0  0
   12.7048  -20.7502   25.0736 C   0  0  0  0  0  0  0  0  0  0  0  0
   13.7625  -21.6494   24.6738 N   0  0  0  0  0  0  0  0  0  0  0  0
   10.0981  -16.0071   25.1558 C   0  0  0  0  0  0  0  0  0  0  0  0
   10.0583  -16.4641   26.3058 O   0  0  0  0  0  0  0  0  0  0  0  0
   10.4526  -14.6349   25.0959 O   0  0  0  0  0  0  0  0  0  0  0  0
  2  1  1  6
  2  7  1  0
  3  4  1  0
  3  2  1  0
  5  4  1  0
  6  5  2  0
  7  8  2  0
  9  5  1  0
 11 10  1  6
 11 12  1  0
 13 11  1  0
 14  7  1  0
 13 14  1  6
 15 13  1  0
 15 16  2  0
 17 15  1  0
 18 17  1  0
 18 19  1  6
 20 21  1  0
 20 19  1  0
 22 23  1  0
 22 21  1  0
 24 26  1  0
 24 18  1  0
 25 24  2  0
M  END
$$$$
