EVK.pdb
     RDKit          3D

 26 25  0  0  1  0  0  0  0  0999 V2000
    9.1642  -17.5315   18.3113 N   0  0  0  0  0  0  0  0  0  0  0  0
   10.4311  -17.3519   18.9229 C   0  0  1  0  0  0  0  0  0  0  0  0
   11.5533  -17.1139   18.0030 C   0  0  0  0  0  0  0  0  0  0  0  0
   11.3882  -17.8405   16.7073 C   0  0  0  0  0  0  0  0  0  0  0  0
   12.4064  -17.6557   15.6849 C   0  0  0  0  0  0  0  0  0  0  0  0
   13.6160  -17.8714   15.8306 O   0  0  0  0  0  0  0  0  0  0  0  0
   10.2986  -16.2936   19.9823 C   0  0  0  0  0  0  0  0  0  0  0  0
   11.3487  -15.9728   20.5614 O   0  0  0  0  0  0  0  0  0  0  0  0
   11.9823  -17.1971   14.4379 O   0  0  0  0  0  0  0  0  0  0  0  0
    6.3588  -14.7152   20.9047 C   0  0  0  0  0  0  0  0  0  0  0  0
    7.6293  -13.8513   20.9374 C   0  0  2  0  0  0  0  0  0  0  0  0
    7.7311  -13.2661   19.5425 C   0  0  0  0  0  0  0  0  0  0  0  0
    8.7628  -14.7479   21.3277 C   0  0  2  0  0  0  0  0  0  0  0  0
    9.0811  -15.7082   20.2970 N   0  0  0  0  0  0  0  0  0  0  0  0
    8.7198  -15.3753   22.6352 C   0  0  0  0  0  0  0  0  0  0  0  0
    8.3346  -16.5954   22.6728 O   0  0  0  0  0  0  0  0  0  0  0  0
    9.0644  -14.7649   23.8419 N   0  0  0  0  0  0  0  0  0  0  0  0
    8.8597  -15.5536   25.1075 C   0  0  1  0  0  0  0  0  0  0  0  0
    9.5258  -14.7957   26.1940 C   0  0  0  0  0  0  0  0  0  0  0  0
    9.6382  -15.2618   27.5592 C   0  0  0  0  0  0  0  0  0  0  0  0
   10.2527  -14.4731   28.6383 C   0  0  0  0  0  0  0  0  0  0  0  0
   10.2479  -15.1160   29.9875 C   0  0  0  0  0  0  0  0  0  0  0  0
   10.8386  -14.2877   31.0132 N   0  0  0  0  0  0  0  0  0  0  0  0
    7.3916  -15.7004   25.2673 C   0  0  0  0  0  0  0  0  0  0  0  0
    6.5096  -14.9256   24.8740 O   0  0  0  0  0  0  0  0  0  0  0  0
    6.8916  -16.8439   25.9415 O   0  0  0  0  0  0  0  0  0  0  0  0
  2  1  1  6
  2  7  1  0
  3  4  1  0
  3  2  1  0
  5  4  1  0
  6  5  2  0
  7  8  2  0
  9  5  1  0
 11 10  1  6
 11 12  1  0
 13 11  1  0
 14  7  1  0
 13 14  1  6
 15 13  1  0
 15 16  2  0
 17 15  1  0
 18 17  1  0
 18 19  1  1
 20 21  1  0
 20 19  1  0
 22 23  1  0
 22 21  1  0
 24 26  1  0
 24 18  1  0
 25 24  2  0
M  END
$$$$
