EVK.pdb
     RDKit          3D

 26 25  0  0  1  0  0  0  0  0999 V2000
    8.4219  -15.1162   20.7744 N   0  0  0  0  0  0  0  0  0  0  0  0
    7.6159  -15.3147   21.9242 C   0  0  1  0  0  0  0  0  0  0  0  0
    7.1852  -16.6994   22.1678 C   0  0  0  0  0  0  0  0  0  0  0  0
    6.6470  -17.3509   20.9349 C   0  0  0  0  0  0  0  0  0  0  0  0
    6.2647  -18.7522   21.0131 C   0  0  0  0  0  0  0  0  0  0  0  0
    5.7590  -19.4095   20.0949 O   0  0  0  0  0  0  0  0  0  0  0  0
    8.3133  -14.6950   23.1029 C   0  0  0  0  0  0  0  0  0  0  0  0
    9.5491  -14.8116   23.1235 O   0  0  0  0  0  0  0  0  0  0  0  0
    6.4872  -19.4075   22.2240 O   0  0  0  0  0  0  0  0  0  0  0  0
    5.9219  -12.7892   26.1670 C   0  0  0  0  0  0  0  0  0  0  0  0
    7.3244  -12.2869   25.7898 C   0  0  2  0  0  0  0  0  0  0  0  0
    7.0827  -11.2472   24.7132 C   0  0  0  0  0  0  0  0  0  0  0  0
    8.1158  -13.4782   25.3475 C   0  0  2  0  0  0  0  0  0  0  0  0
    7.6241  -14.0325   24.1079 N   0  0  0  0  0  0  0  0  0  0  0  0
    8.3833  -14.5212   26.3200 C   0  0  0  0  0  0  0  0  0  0  0  0
    7.4588  -15.3882   26.4992 O   0  0  0  0  0  0  0  0  0  0  0  0
    9.5554  -14.6572   27.0651 N   0  0  0  0  0  0  0  0  0  0  0  0
    9.6468  -15.8189   28.0180 C   0  0  1  0  0  0  0  0  0  0  0  0
   10.6409  -16.7599   27.4479 C   0  0  0  0  0  0  0  0  0  0  0  0
   11.0998  -17.9594   28.1145 C   0  0  0  0  0  0  0  0  0  0  0  0
   12.1730  -18.8188   27.5914 C   0  0  0  0  0  0  0  0  0  0  0  0
   12.5243  -19.9975   28.4405 C   0  0  0  0  0  0  0  0  0  0  0  0
   13.4829  -20.8806   27.8173 N   0  0  0  0  0  0  0  0  0  0  0  0
   10.0246  -15.2433   29.3326 C   0  0  0  0  0  0  0  0  0  0  0  0
   10.2378  -15.8529   30.3889 O   0  0  0  0  0  0  0  0  0  0  0  0
   10.1711  -13.8367   29.4427 O   0  0  0  0  0  0  0  0  0  0  0  0
  2  1  1  6
  2  7  1  0
  3  4  1  0
  3  2  1  0
  5  4  1  0
  6  5  2  0
  7  8  2  0
  9  5  1  0
 11 10  1  6
 11 12  1  0
 13 11  1  0
 14  7  1  0
 13 14  1  6
 15 13  1  0
 15 16  2  0
 17 15  1  0
 18 17  1  0
 18 19  1  6
 20 21  1  0
 20 19  1  0
 22 23  1  0
 22 21  1  0
 24 26  1  0
 24 18  1  0
 25 24  2  0
M  END
$$$$
