EVK.pdb
     RDKit          3D

 26 25  0  0  1  0  0  0  0  0999 V2000
    8.0705  -17.0582   17.4773 N   0  0  0  0  0  0  0  0  0  0  0  0
    9.4003  -17.3487   17.8755 C   0  0  1  0  0  0  0  0  0  0  0  0
   10.4125  -17.2791   16.8111 C   0  0  0  0  0  0  0  0  0  0  0  0
    9.8744  -17.7179   15.4875 C   0  0  0  0  0  0  0  0  0  0  0  0
   10.7189  -17.5474   14.3154 C   0  0  0  0  0  0  0  0  0  0  0  0
   10.4520  -16.8392   13.3365 O   0  0  0  0  0  0  0  0  0  0  0  0
    9.7338  -16.4952   19.0672 C   0  0  0  0  0  0  0  0  0  0  0  0
   10.8836  -16.6207   19.5182 O   0  0  0  0  0  0  0  0  0  0  0  0
   11.9290  -18.2403   14.2948 O   0  0  0  0  0  0  0  0  0  0  0  0
    6.6456  -14.0204   20.9939 C   0  0  0  0  0  0  0  0  0  0  0  0
    8.0726  -13.5438   20.6807 C   0  0  2  0  0  0  0  0  0  0  0  0
    7.9749  -12.9208   19.3021 C   0  0  0  0  0  0  0  0  0  0  0  0
    8.9670  -14.7412   20.7681 C   0  0  2  0  0  0  0  0  0  0  0  0
    8.8178  -15.6199   19.6317 N   0  0  0  0  0  0  0  0  0  0  0  0
    8.9895  -15.4890   22.0112 C   0  0  0  0  0  0  0  0  0  0  0  0
    7.9493  -16.1847   22.2801 O   0  0  0  0  0  0  0  0  0  0  0  0
   10.0431  -15.5146   22.9259 N   0  0  0  0  0  0  0  0  0  0  0  0
    9.9380  -16.4676   24.0863 C   0  0  1  0  0  0  0  0  0  0  0  0
   10.5652  -17.7388   23.6515 C   0  0  0  0  0  0  0  0  0  0  0  0
   10.7532  -18.8878   24.5106 C   0  0  0  0  0  0  0  0  0  0  0  0
   11.5137  -20.0827   24.1134 C   0  0  0  0  0  0  0  0  0  0  0  0
   11.4560  -21.2292   25.0705 C   0  0  0  0  0  0  0  0  0  0  0  0
   12.0108  -22.4486   24.5299 N   0  0  0  0  0  0  0  0  0  0  0  0
   10.6164  -15.8029   25.2267 C   0  0  0  0  0  0  0  0  0  0  0  0
   10.6027  -16.1469   26.4160 O   0  0  0  0  0  0  0  0  0  0  0  0
   11.3812  -14.6349   24.9763 O   0  0  0  0  0  0  0  0  0  0  0  0
  2  1  1  6
  2  7  1  0
  3  4  1  0
  3  2  1  0
  5  4  1  0
  6  5  2  0
  7  8  2  0
  9  5  1  0
 11 10  1  6
 11 12  1  0
 13 11  1  0
 14  7  1  0
 13 14  1  6
 15 13  1  0
 15 16  2  0
 17 15  1  0
 18 17  1  0
 18 19  1  6
 20 21  1  0
 20 19  1  0
 22 23  1  0
 22 21  1  0
 24 26  1  0
 24 18  1  0
 25 24  2  0
M  END
$$$$
