EVK.pdb
     RDKit          3D

 26 25  0  0  1  0  0  0  0  0999 V2000
    8.3059  -17.7018   17.2409 N   0  0  0  0  0  0  0  0  0  0  0  0
    9.6825  -17.5723   17.5565 C   0  0  1  0  0  0  0  0  0  0  0  0
   10.5749  -17.3159   16.4163 C   0  0  0  0  0  0  0  0  0  0  0  0
   10.3879  -18.3092   15.3153 C   0  0  0  0  0  0  0  0  0  0  0  0
   11.2368  -18.1951   14.1395 C   0  0  0  0  0  0  0  0  0  0  0  0
   12.1026  -17.3293   13.9619 O   0  0  0  0  0  0  0  0  0  0  0  0
    9.8215  -16.5584   18.6576 C   0  0  0  0  0  0  0  0  0  0  0  0
   10.9833  -16.2912   19.0040 O   0  0  0  0  0  0  0  0  0  0  0  0
   11.0583  -19.1404   13.1298 O   0  0  0  0  0  0  0  0  0  0  0  0
    7.7272  -13.2146   19.0557 C   0  0  0  0  0  0  0  0  0  0  0  0
    7.5036  -14.1083   20.2857 C   0  0  2  0  0  0  0  0  0  0  0  0
    7.3769  -13.1400   21.4453 C   0  0  0  0  0  0  0  0  0  0  0  0
    8.6706  -15.0423   20.3706 C   0  0  2  0  0  0  0  0  0  0  0  0
    8.7234  -15.9554   19.2530 N   0  0  0  0  0  0  0  0  0  0  0  0
    8.9041  -15.7329   21.6250 C   0  0  0  0  0  0  0  0  0  0  0  0
    7.9794  -16.5225   22.0250 O   0  0  0  0  0  0  0  0  0  0  0  0
   10.0442  -15.6112   22.4205 N   0  0  0  0  0  0  0  0  0  0  0  0
   10.3273  -16.7106   23.4089 C   0  0  1  0  0  0  0  0  0  0  0  0
   11.2154  -17.6806   22.7241 C   0  0  0  0  0  0  0  0  0  0  0  0
   11.7999  -18.8393   23.3639 C   0  0  0  0  0  0  0  0  0  0  0  0
   11.1422  -20.1540   23.4199 C   0  0  0  0  0  0  0  0  0  0  0  0
   11.9334  -21.2416   24.0716 C   0  0  0  0  0  0  0  0  0  0  0  0
   11.2090  -22.4874   24.1741 N   0  0  0  0  0  0  0  0  0  0  0  0
   10.9298  -16.0521   24.5946 C   0  0  0  0  0  0  0  0  0  0  0  0
   10.9135  -16.4499   25.7670 O   0  0  0  0  0  0  0  0  0  0  0  0
   11.6146  -14.8229   24.4155 O   0  0  0  0  0  0  0  0  0  0  0  0
  2  1  1  6
  2  7  1  0
  3  4  1  0
  3  2  1  0
  5  4  1  0
  6  5  2  0
  7  8  2  0
  9  5  1  0
 11 10  1  6
 11 12  1  0
 13 11  1  0
 14  7  1  0
 13 14  1  6
 15 13  1  0
 15 16  2  0
 17 15  1  0
 18 17  1  0
 18 19  1  6
 20 21  1  0
 20 19  1  0
 22 23  1  0
 22 21  1  0
 24 26  1  0
 24 18  1  0
 25 24  2  0
M  END
$$$$
