EVK.pdb
     RDKit          3D

 26 25  0  0  1  0  0  0  0  0999 V2000
    8.8310  -15.7771   20.6928 N   0  0  0  0  0  0  0  0  0  0  0  0
    7.9619  -15.9716   21.7965 C   0  0  1  0  0  0  0  0  0  0  0  0
    7.6273  -17.3702   22.1037 C   0  0  0  0  0  0  0  0  0  0  0  0
    7.3677  -18.1748   20.8712 C   0  0  0  0  0  0  0  0  0  0  0  0
    6.8457  -19.5231   21.0318 C   0  0  0  0  0  0  0  0  0  0  0  0
    7.5183  -20.5610   20.9978 O   0  0  0  0  0  0  0  0  0  0  0  0
    8.5198  -15.2233   22.9749 C   0  0  0  0  0  0  0  0  0  0  0  0
    9.7559  -15.2370   23.0891 O   0  0  0  0  0  0  0  0  0  0  0  0
    5.4731  -19.6548   21.2414 O   0  0  0  0  0  0  0  0  0  0  0  0
    7.5946  -12.0526   26.6720 C   0  0  0  0  0  0  0  0  0  0  0  0
    7.0176  -12.8652   25.5022 C   0  0  2  0  0  0  0  0  0  0  0  0
    5.7483  -13.4837   26.0542 C   0  0  0  0  0  0  0  0  0  0  0  0
    8.0677  -13.8484   25.0875 C   0  0  2  0  0  0  0  0  0  0  0  0
    7.7086  -14.5567   23.8812 N   0  0  0  0  0  0  0  0  0  0  0  0
    8.5919  -14.7541   26.0924 C   0  0  0  0  0  0  0  0  0  0  0  0
    7.9357  -15.8357   26.2869 O   0  0  0  0  0  0  0  0  0  0  0  0
    9.7432  -14.5464   26.8532 N   0  0  0  0  0  0  0  0  0  0  0  0
   10.1919  -15.6609   27.7601 C   0  0  1  0  0  0  0  0  0  0  0  0
   11.5033  -16.1254   27.2470 C   0  0  0  0  0  0  0  0  0  0  0  0
   12.2892  -17.1754   27.8581 C   0  0  0  0  0  0  0  0  0  0  0  0
   12.1824  -18.5934   27.4812 C   0  0  0  0  0  0  0  0  0  0  0  0
   13.0055  -19.5388   28.2950 C   0  0  0  0  0  0  0  0  0  0  0  0
   12.7241  -20.9268   28.0097 N   0  0  0  0  0  0  0  0  0  0  0  0
   10.2324  -15.0866   29.1279 C   0  0  0  0  0  0  0  0  0  0  0  0
   10.4180  -15.6897   30.1932 O   0  0  0  0  0  0  0  0  0  0  0  0
   10.0421  -13.6898   29.2852 O   0  0  0  0  0  0  0  0  0  0  0  0
  2  1  1  6
  2  7  1  0
  3  4  1  0
  3  2  1  0
  5  4  1  0
  6  5  2  0
  7  8  2  0
  9  5  1  0
 11 10  1  1
 11 12  1  0
 13 11  1  0
 14  7  1  0
 13 14  1  6
 15 13  1  0
 15 16  2  0
 17 15  1  0
 18 17  1  0
 18 19  1  6
 20 21  1  0
 20 19  1  0
 22 23  1  0
 22 21  1  0
 24 26  1  0
 24 18  1  0
 25 24  2  0
M  END
$$$$
