EVK.pdb
     RDKit          3D

 26 25  0  0  1  0  0  0  0  0999 V2000
    9.1204  -17.6477   16.8245 N   0  0  0  0  0  0  0  0  0  0  0  0
    8.1409  -17.2894   17.7855 C   0  0  1  0  0  0  0  0  0  0  0  0
    7.2333  -18.3690   18.2015 C   0  0  0  0  0  0  0  0  0  0  0  0
    7.1273  -19.4484   17.1730 C   0  0  0  0  0  0  0  0  0  0  0  0
    7.4208  -20.8134   17.5813 C   0  0  0  0  0  0  0  0  0  0  0  0
    7.8643  -21.1516   18.6858 O   0  0  0  0  0  0  0  0  0  0  0  0
    8.8338  -16.6201   18.9395 C   0  0  0  0  0  0  0  0  0  0  0  0
    9.9848  -17.0161   19.1833 O   0  0  0  0  0  0  0  0  0  0  0  0
    7.1821  -21.8232   16.6494 O   0  0  0  0  0  0  0  0  0  0  0  0
    6.6380  -13.8660   21.4977 C   0  0  0  0  0  0  0  0  0  0  0  0
    8.0474  -13.5513   20.9723 C   0  0  2  0  0  0  0  0  0  0  0  0
    7.8147  -12.7758   19.6907 C   0  0  0  0  0  0  0  0  0  0  0  0
    8.7552  -14.8588   20.7968 C   0  0  2  0  0  0  0  0  0  0  0  0
    8.2295  -15.6213   19.6886 N   0  0  0  0  0  0  0  0  0  0  0  0
    8.9467  -15.6955   21.9665 C   0  0  0  0  0  0  0  0  0  0  0  0
    8.0157  -16.5336   22.2299 O   0  0  0  0  0  0  0  0  0  0  0  0
   10.0530  -15.6644   22.8165 N   0  0  0  0  0  0  0  0  0  0  0  0
   10.0934  -16.6568   23.9475 C   0  0  1  0  0  0  0  0  0  0  0  0
   11.0722  -17.7018   23.5622 C   0  0  0  0  0  0  0  0  0  0  0  0
   11.4319  -18.8263   24.3987 C   0  0  0  0  0  0  0  0  0  0  0  0
   12.4226  -19.8424   24.0111 C   0  0  0  0  0  0  0  0  0  0  0  0
   12.5620  -20.9960   24.9510 C   0  0  0  0  0  0  0  0  0  0  0  0
   13.4812  -22.0054   24.4785 N   0  0  0  0  0  0  0  0  0  0  0  0
   10.4609  -15.8835   25.1597 C   0  0  0  0  0  0  0  0  0  0  0  0
   10.4690  -16.2800   26.3326 O   0  0  0  0  0  0  0  0  0  0  0  0
   10.8559  -14.5295   25.0092 O   0  0  0  0  0  0  0  0  0  0  0  0
  2  1  1  6
  2  7  1  0
  3  4  1  0
  3  2  1  0
  5  4  1  0
  6  5  2  0
  7  8  2  0
  9  5  1  0
 11 10  1  6
 11 12  1  0
 13 11  1  0
 14  7  1  0
 13 14  1  6
 15 13  1  0
 15 16  2  0
 17 15  1  0
 18 17  1  0
 18 19  1  6
 20 21  1  0
 20 19  1  0
 22 23  1  0
 22 21  1  0
 24 26  1  0
 24 18  1  0
 25 24  2  0
M  END
$$$$
