EVK.pdb
     RDKit          3D

 26 25  0  0  1  0  0  0  0  0999 V2000
    8.8009  -15.1890   20.7118 N   0  0  0  0  0  0  0  0  0  0  0  0
    7.8805  -15.5274   21.7362 C   0  0  1  0  0  0  0  0  0  0  0  0
    7.5407  -16.9543   21.8400 C   0  0  0  0  0  0  0  0  0  0  0  0
    8.6642  -17.8378   21.4026 C   0  0  0  0  0  0  0  0  0  0  0  0
    8.4276  -19.2724   21.3553 C   0  0  0  0  0  0  0  0  0  0  0  0
    7.3619  -19.8329   21.6399 O   0  0  0  0  0  0  0  0  0  0  0  0
    8.3751  -14.9405   23.0288 C   0  0  0  0  0  0  0  0  0  0  0  0
    9.6053  -14.9549   23.1942 O   0  0  0  0  0  0  0  0  0  0  0  0
    9.4912  -20.0814   20.9560 O   0  0  0  0  0  0  0  0  0  0  0  0
    6.6811  -11.7394   24.7746 C   0  0  0  0  0  0  0  0  0  0  0  0
    6.7332  -12.9242   25.7518 C   0  0  2  0  0  0  0  0  0  0  0  0
    6.9872  -12.2931   27.1066 C   0  0  0  0  0  0  0  0  0  0  0  0
    7.8137  -13.8435   25.2736 C   0  0  2  0  0  0  0  0  0  0  0  0
    7.5148  -14.4138   23.9809 N   0  0  0  0  0  0  0  0  0  0  0  0
    8.3094  -14.8523   26.1911 C   0  0  0  0  0  0  0  0  0  0  0  0
    7.5657  -15.8786   26.3703 O   0  0  0  0  0  0  0  0  0  0  0  0
    9.5197  -14.7976   26.8836 N   0  0  0  0  0  0  0  0  0  0  0  0
    9.8680  -15.9594   27.7750 C   0  0  1  0  0  0  0  0  0  0  0  0
   11.0878  -16.5817   27.2063 C   0  0  0  0  0  0  0  0  0  0  0  0
   11.7641  -17.7220   27.7860 C   0  0  0  0  0  0  0  0  0  0  0  0
   12.9879  -18.3127   27.2226 C   0  0  0  0  0  0  0  0  0  0  0  0
   13.5300  -19.4942   27.9600 C   0  0  0  0  0  0  0  0  0  0  0  0
   14.7535  -20.0076   27.3886 N   0  0  0  0  0  0  0  0  0  0  0  0
   10.0401  -15.3953   29.1368 C   0  0  0  0  0  0  0  0  0  0  0  0
   10.3061  -16.0092   30.1786 O   0  0  0  0  0  0  0  0  0  0  0  0
    9.8930  -13.9961   29.3173 O   0  0  0  0  0  0  0  0  0  0  0  0
  2  1  1  6
  2  7  1  0
  3  4  1  0
  3  2  1  0
  5  4  1  0
  6  5  2  0
  7  8  2  0
  9  5  1  0
 11 10  1  6
 11 12  1  0
 13 11  1  0
 14  7  1  0
 13 14  1  6
 15 13  1  0
 15 16  2  0
 17 15  1  0
 18 17  1  0
 18 19  1  6
 20 21  1  0
 20 19  1  0
 22 23  1  0
 22 21  1  0
 24 26  1  0
 24 18  1  0
 25 24  2  0
M  END
$$$$
