EVK.pdb
     RDKit          3D

 26 25  0  0  1  0  0  0  0  0999 V2000
   10.1938  -16.7747   16.7831 N   0  0  0  0  0  0  0  0  0  0  0  0
   10.1898  -17.5054   17.9985 C   0  0  1  0  0  0  0  0  0  0  0  0
   11.2501  -18.5147   18.1373 C   0  0  0  0  0  0  0  0  0  0  0  0
   10.9232  -19.7831   17.4174 C   0  0  0  0  0  0  0  0  0  0  0  0
   10.7374  -20.9900   18.2080 C   0  0  0  0  0  0  0  0  0  0  0  0
    9.7007  -21.3019   18.8070 O   0  0  0  0  0  0  0  0  0  0  0  0
   10.1508  -16.5263   19.1385 C   0  0  0  0  0  0  0  0  0  0  0  0
   11.2469  -16.2472   19.6502 O   0  0  0  0  0  0  0  0  0  0  0  0
   11.8183  -21.8667   18.2973 O   0  0  0  0  0  0  0  0  0  0  0  0
    7.6632  -13.3507   19.3462 C   0  0  0  0  0  0  0  0  0  0  0  0
    7.4758  -14.2848   20.5519 C   0  0  2  0  0  0  0  0  0  0  0  0
    7.1578  -13.3584   21.7090 C   0  0  0  0  0  0  0  0  0  0  0  0
    8.7421  -15.0690   20.7036 C   0  0  2  0  0  0  0  0  0  0  0  0
    8.9666  -15.9661   19.5943 N   0  0  0  0  0  0  0  0  0  0  0  0
    8.9903  -15.7289   21.9716 C   0  0  0  0  0  0  0  0  0  0  0  0
    8.3646  -16.8262   22.1785 O   0  0  0  0  0  0  0  0  0  0  0  0
    9.8495  -15.2720   22.9718 N   0  0  0  0  0  0  0  0  0  0  0  0
    9.9520  -16.0888   24.2320 C   0  0  1  0  0  0  0  0  0  0  0  0
   11.3962  -16.3277   24.4682 C   0  0  0  0  0  0  0  0  0  0  0  0
   12.2570  -17.0607   23.5653 C   0  0  0  0  0  0  0  0  0  0  0  0
   13.6804  -17.3197   23.8315 C   0  0  0  0  0  0  0  0  0  0  0  0
   14.3987  -18.1039   22.7814 C   0  0  0  0  0  0  0  0  0  0  0  0
   15.8008  -18.2933   23.0738 N   0  0  0  0  0  0  0  0  0  0  0  0
    9.2757  -15.2983   25.2903 C   0  0  0  0  0  0  0  0  0  0  0  0
    8.9028  -14.1193   25.2280 O   0  0  0  0  0  0  0  0  0  0  0  0
    9.0027  -15.9212   26.5351 O   0  0  0  0  0  0  0  0  0  0  0  0
  2  1  1  6
  2  7  1  0
  3  4  1  0
  3  2  1  0
  5  4  1  0
  6  5  2  0
  7  8  2  0
  9  5  1  0
 11 10  1  6
 11 12  1  0
 13 11  1  0
 14  7  1  0
 13 14  1  6
 15 13  1  0
 15 16  2  0
 17 15  1  0
 18 17  1  0
 18 19  1  1
 20 21  1  0
 20 19  1  0
 22 23  1  0
 22 21  1  0
 24 26  1  0
 24 18  1  0
 25 24  2  0
M  END
$$$$
