EVK.pdb
     RDKit          3D

 26 25  0  0  1  0  0  0  0  0999 V2000
    8.4887  -17.3034   16.4678 N   0  0  0  0  0  0  0  0  0  0  0  0
    7.6775  -16.9458   17.5747 C   0  0  1  0  0  0  0  0  0  0  0  0
    6.8202  -18.0155   18.1068 C   0  0  0  0  0  0  0  0  0  0  0  0
    7.0832  -19.3322   17.4502 C   0  0  0  0  0  0  0  0  0  0  0  0
    6.3024  -20.4805   17.8834 C   0  0  0  0  0  0  0  0  0  0  0  0
    6.7675  -21.5337   18.3367 O   0  0  0  0  0  0  0  0  0  0  0  0
    8.5550  -16.3148   18.6195 C   0  0  0  0  0  0  0  0  0  0  0  0
    9.7568  -16.6227   18.5750 O   0  0  0  0  0  0  0  0  0  0  0  0
    4.9150  -20.3849   17.7783 O   0  0  0  0  0  0  0  0  0  0  0  0
    6.7395  -13.9123   21.7580 C   0  0  0  0  0  0  0  0  0  0  0  0
    8.0697  -13.5266   21.0920 C   0  0  2  0  0  0  0  0  0  0  0  0
    7.6755  -12.6104   19.9503 C   0  0  0  0  0  0  0  0  0  0  0  0
    8.7397  -14.7988   20.6751 C   0  0  2  0  0  0  0  0  0  0  0  0
    8.0583  -15.4417   19.5760 N   0  0  0  0  0  0  0  0  0  0  0  0
    9.0925  -15.7561   21.7067 C   0  0  0  0  0  0  0  0  0  0  0  0
    8.2500  -16.6934   21.9307 O   0  0  0  0  0  0  0  0  0  0  0  0
   10.2646  -15.7409   22.4638 N   0  0  0  0  0  0  0  0  0  0  0  0
   10.4844  -16.8704   23.4342 C   0  0  1  0  0  0  0  0  0  0  0  0
   11.7780  -17.4979   23.0713 C   0  0  0  0  0  0  0  0  0  0  0  0
   12.3945  -18.5763   23.8133 C   0  0  0  0  0  0  0  0  0  0  0  0
   13.6526  -19.2235   23.4104 C   0  0  0  0  0  0  0  0  0  0  0  0
   14.0951  -20.3615   24.2723 C   0  0  0  0  0  0  0  0  0  0  0  0
   15.3336  -20.9601   23.8306 N   0  0  0  0  0  0  0  0  0  0  0  0
   10.4515  -16.2619   24.7874 C   0  0  0  0  0  0  0  0  0  0  0  0
   10.4760  -16.8478   25.8779 O   0  0  0  0  0  0  0  0  0  0  0  0
   10.3845  -14.8493   24.8967 O   0  0  0  0  0  0  0  0  0  0  0  0
  2  1  1  6
  2  7  1  0
  3  4  1  0
  3  2  1  0
  5  4  1  0
  6  5  2  0
  7  8  2  0
  9  5  1  0
 11 10  1  6
 11 12  1  0
 13 11  1  0
 14  7  1  0
 13 14  1  6
 15 13  1  0
 15 16  2  0
 17 15  1  0
 18 17  1  0
 18 19  1  6
 20 21  1  0
 20 19  1  0
 22 23  1  0
 22 21  1  0
 24 26  1  0
 24 18  1  0
 25 24  2  0
M  END
$$$$
