EVK.pdb
     RDKit          3D

 26 25  0  0  1  0  0  0  0  0999 V2000
    8.4264  -16.0740   21.0218 N   0  0  0  0  0  0  0  0  0  0  0  0
    7.4205  -15.7816   21.9778 C   0  0  1  0  0  0  0  0  0  0  0  0
    6.5067  -16.8882   22.2982 C   0  0  0  0  0  0  0  0  0  0  0  0
    7.2170  -18.0494   22.9154 C   0  0  0  0  0  0  0  0  0  0  0  0
    6.4265  -19.2074   23.3030 C   0  0  0  0  0  0  0  0  0  0  0  0
    5.2433  -19.4022   22.9979 O   0  0  0  0  0  0  0  0  0  0  0  0
    8.0800  -15.1875   23.1910 C   0  0  0  0  0  0  0  0  0  0  0  0
    9.2374  -15.5729   23.4215 O   0  0  0  0  0  0  0  0  0  0  0  0
    7.0557  -20.1772   24.0831 O   0  0  0  0  0  0  0  0  0  0  0  0
    7.7328  -11.7342   26.7585 C   0  0  0  0  0  0  0  0  0  0  0  0
    7.0189  -12.4831   25.6222 C   0  0  2  0  0  0  0  0  0  0  0  0
    5.7015  -12.9292   26.2252 C   0  0  0  0  0  0  0  0  0  0  0  0
    7.9225  -13.5962   25.1913 C   0  0  2  0  0  0  0  0  0  0  0  0
    7.4401  -14.2652   24.0058 N   0  0  0  0  0  0  0  0  0  0  0  0
    8.3575  -14.5511   26.1933 C   0  0  0  0  0  0  0  0  0  0  0  0
    7.5533  -15.5115   26.4566 O   0  0  0  0  0  0  0  0  0  0  0  0
    9.5698  -14.5108   26.8832 N   0  0  0  0  0  0  0  0  0  0  0  0
    9.8231  -15.5780   27.9141 C   0  0  1  0  0  0  0  0  0  0  0  0
   10.7936  -16.5260   27.3158 C   0  0  0  0  0  0  0  0  0  0  0  0
   11.3827  -17.6413   28.0248 C   0  0  0  0  0  0  0  0  0  0  0  0
   12.4256  -18.5071   27.4531 C   0  0  0  0  0  0  0  0  0  0  0  0
   12.9429  -19.5759   28.3607 C   0  0  0  0  0  0  0  0  0  0  0  0
   13.8484  -20.4898   27.7034 N   0  0  0  0  0  0  0  0  0  0  0  0
   10.3146  -14.8725   29.1237 C   0  0  0  0  0  0  0  0  0  0  0  0
   10.6152  -15.3708   30.2166 O   0  0  0  0  0  0  0  0  0  0  0  0
   10.4755  -13.4642   29.0717 O   0  0  0  0  0  0  0  0  0  0  0  0
  2  1  1  6
  2  7  1  0
  3  4  1  0
  3  2  1  0
  5  4  1  0
  6  5  2  0
  7  8  2  0
  9  5  1  0
 11 10  1  1
 11 12  1  0
 13 11  1  0
 14  7  1  0
 13 14  1  6
 15 13  1  0
 15 16  2  0
 17 15  1  0
 18 17  1  0
 18 19  1  6
 20 21  1  0
 20 19  1  0
 22 23  1  0
 22 21  1  0
 24 26  1  0
 24 18  1  0
 25 24  2  0
M  END
$$$$
