EVK.pdb
     RDKit          3D

 26 25  0  0  1  0  0  0  0  0999 V2000
    8.5387  -14.9717   20.4595 N   0  0  0  0  0  0  0  0  0  0  0  0
    7.8026  -15.4254   21.5836 C   0  0  1  0  0  0  0  0  0  0  0  0
    7.6148  -16.8809   21.6755 C   0  0  0  0  0  0  0  0  0  0  0  0
    6.9496  -17.4444   20.4614 C   0  0  0  0  0  0  0  0  0  0  0  0
    6.6699  -18.8717   20.4352 C   0  0  0  0  0  0  0  0  0  0  0  0
    6.1006  -19.4738   19.5163 O   0  0  0  0  0  0  0  0  0  0  0  0
    8.4125  -14.8273   22.8206 C   0  0  0  0  0  0  0  0  0  0  0  0
    9.6320  -15.0093   22.9653 O   0  0  0  0  0  0  0  0  0  0  0  0
    7.0776  -19.6220   21.5379 O   0  0  0  0  0  0  0  0  0  0  0  0
    7.7589  -11.8270   26.7140 C   0  0  0  0  0  0  0  0  0  0  0  0
    7.1091  -12.5070   25.4988 C   0  0  2  0  0  0  0  0  0  0  0  0
    5.7902  -13.0436   26.0194 C   0  0  0  0  0  0  0  0  0  0  0  0
    8.0656  -13.5515   25.0137 C   0  0  2  0  0  0  0  0  0  0  0  0
    7.6642  -14.1150   23.7460 N   0  0  0  0  0  0  0  0  0  0  0  0
    8.4764  -14.5874   25.9427 C   0  0  0  0  0  0  0  0  0  0  0  0
    7.7617  -15.6490   25.9695 O   0  0  0  0  0  0  0  0  0  0  0  0
    9.5776  -14.5233   26.7976 N   0  0  0  0  0  0  0  0  0  0  0  0
    9.9007  -15.7460   27.6138 C   0  0  1  0  0  0  0  0  0  0  0  0
   11.1341  -16.3308   27.0347 C   0  0  0  0  0  0  0  0  0  0  0  0
   11.6781  -17.6174   27.4120 C   0  0  0  0  0  0  0  0  0  0  0  0
   12.9019  -18.1849   26.8253 C   0  0  0  0  0  0  0  0  0  0  0  0
   13.2457  -19.5698   27.2699 C   0  0  0  0  0  0  0  0  0  0  0  0
   14.4720  -20.0648   26.6882 N   0  0  0  0  0  0  0  0  0  0  0  0
   10.0379  -15.2795   29.0160 C   0  0  0  0  0  0  0  0  0  0  0  0
   10.3164  -15.9595   30.0125 O   0  0  0  0  0  0  0  0  0  0  0  0
    9.8367  -13.9041   29.2982 O   0  0  0  0  0  0  0  0  0  0  0  0
  2  1  1  6
  2  7  1  0
  3  4  1  0
  3  2  1  0
  5  4  1  0
  6  5  2  0
  7  8  2  0
  9  5  1  0
 11 10  1  1
 11 12  1  0
 13 11  1  0
 14  7  1  0
 13 14  1  6
 15 13  1  0
 15 16  2  0
 17 15  1  0
 18 17  1  0
 18 19  1  6
 20 21  1  0
 20 19  1  0
 22 23  1  0
 22 21  1  0
 24 26  1  0
 24 18  1  0
 25 24  2  0
M  END
$$$$
