LIF.pdb
     RDKit          3D

 28 28  0  0  1  0  0  0  0  0999 V2000
    7.7865  -19.8636   19.2485 C   0  0  0  0  0  0  0  0  0  0  0  0
    7.5331  -18.3822   19.3383 C   0  0  1  0  0  0  0  0  0  0  0  0
    6.0521  -18.1567   19.5622 C   0  0  0  0  0  0  0  0  0  0  0  0
    8.2709  -17.7014   20.4438 C   0  0  0  0  0  0  0  0  0  0  0  0
    7.8322  -16.2710   20.5521 C   0  0  2  0  0  0  0  0  0  0  0  0
    8.1230  -15.5900   19.3135 N   0  0  0  0  0  0  0  0  0  0  0  0
    8.5197  -15.6628   21.7225 C   0  0  0  0  0  0  0  0  0  0  0  0
    9.6887  -15.2058   21.6179 O   0  0  0  0  0  0  0  0  0  0  0  0
    5.6540  -12.7357   25.2918 C   0  0  0  0  0  0  0  0  0  0  0  0
    6.7575  -13.1989   24.3310 C   0  0  0  0  0  0  0  0  0  0  0  0
    7.4035  -14.4079   24.9511 C   0  0  2  0  0  0  0  0  0  0  0  0
    7.9118  -14.1541   26.3355 C   0  0  0  0  0  0  0  0  0  0  0  0
    8.4681  -15.0428   24.1320 C   0  0  2  0  0  0  0  0  0  0  0  0
    7.8428  -15.6052   22.9545 N   0  0  0  0  0  0  0  0  0  0  0  0
    9.2091  -16.1217   24.8244 C   0  0  0  0  0  0  0  0  0  0  0  0
    8.7599  -17.3054   24.9023 O   0  0  0  0  0  0  0  0  0  0  0  0
   10.4597  -15.8552   25.4278 N   0  0  0  0  0  0  0  0  0  0  0  0
   11.2241  -16.9342   26.0162 C   0  0  1  0  0  0  0  0  0  0  0  0
   12.2355  -16.4531   27.0022 C   0  0  0  0  0  0  0  0  0  0  0  0
   11.6554  -15.6625   28.1007 C   0  0  0  0  0  0  0  0  0  0  0  0
   11.4314  -16.1892   29.3591 C   0  0  0  0  0  0  0  0  0  0  0  0
   10.8876  -15.4445   30.3846 C   0  0  0  0  0  0  0  0  0  0  0  0
   10.5412  -14.1240   30.1886 C   0  0  0  0  0  0  0  0  0  0  0  0
   10.7601  -13.5877   28.9371 C   0  0  0  0  0  0  0  0  0  0  0  0
   11.3047  -14.3359   27.9127 C   0  0  0  0  0  0  0  0  0  0  0  0
   10.3037  -17.9309   26.6709 C   0  0  0  0  0  0  0  0  0  0  0  0
    9.1257  -17.5902   26.9426 O   0  0  0  0  0  0  0  0  0  0  0  0
   10.7012  -19.2133   26.9902 O   0  0  0  0  0  0  0  0  0  0  0  0
  2  1  1  1
  2  3  1  0
  4  2  1  0
  5  4  1  0
  5  6  1  6
  7  5  1  0
  8  7  2  0
 10 11  1  0
 10  9  1  0
 11 13  1  0
 11 12  1  1
 13 15  1  0
 13 14  1  6
 14  7  1  0
 15 16  2  0
 17 18  1  0
 17 15  1  0
 18 19  1  1
 19 20  1  0
 20 25  2  0
 21 22  2  0
 21 20  1  0
 22 23  1  0
 23 24  2  0
 25 24  1  0
 26 18  1  0
 27 26  2  0
 28 26  1  0
M  END
$$$$
