LIF.pdb
     RDKit          3D

 28 28  0  0  1  0  0  0  0  0999 V2000
    6.8741  -21.8119   24.7122 C   0  0  0  0  0  0  0  0  0  0  0  0
    6.6155  -21.0790   23.4228 C   0  0  1  0  0  0  0  0  0  0  0  0
    5.2560  -20.4160   23.5066 C   0  0  0  0  0  0  0  0  0  0  0  0
    7.6210  -20.0207   23.1084 C   0  0  0  0  0  0  0  0  0  0  0  0
    7.2266  -19.2895   21.8593 C   0  0  2  0  0  0  0  0  0  0  0  0
    7.2282  -20.2113   20.7490 N   0  0  0  0  0  0  0  0  0  0  0  0
    8.1683  -18.1538   21.6703 C   0  0  0  0  0  0  0  0  0  0  0  0
    9.3732  -18.3588   21.3663 O   0  0  0  0  0  0  0  0  0  0  0  0
    7.5042  -12.5887   19.6223 C   0  0  0  0  0  0  0  0  0  0  0  0
    8.4850  -13.4584   20.4204 C   0  0  0  0  0  0  0  0  0  0  0  0
    7.7273  -14.6774   20.8716 C   0  0  2  0  0  0  0  0  0  0  0  0
    6.5085  -14.3448   21.6736 C   0  0  0  0  0  0  0  0  0  0  0  0
    8.5396  -15.6945   21.5878 C   0  0  2  0  0  0  0  0  0  0  0  0
    7.6921  -16.8405   21.8373 N   0  0  0  0  0  0  0  0  0  0  0  0
    9.0909  -15.2340   22.8826 C   0  0  0  0  0  0  0  0  0  0  0  0
    9.7012  -14.1283   23.0005 O   0  0  0  0  0  0  0  0  0  0  0  0
    8.9486  -16.0299   24.0426 N   0  0  0  0  0  0  0  0  0  0  0  0
    9.8859  -15.8893   25.1363 C   0  0  1  0  0  0  0  0  0  0  0  0
   10.0130  -14.4795   25.6088 C   0  0  0  0  0  0  0  0  0  0  0  0
    8.7208  -13.8447   25.9176 C   0  0  0  0  0  0  0  0  0  0  0  0
    8.5891  -12.8482   26.8667 C   0  0  0  0  0  0  0  0  0  0  0  0
    7.3764  -12.2569   27.1523 C   0  0  0  0  0  0  0  0  0  0  0  0
    6.2306  -12.6450   26.4900 C   0  0  0  0  0  0  0  0  0  0  0  0
    6.3498  -13.6384   25.5409 C   0  0  0  0  0  0  0  0  0  0  0  0
    7.5653  -14.2282   25.2573 C   0  0  0  0  0  0  0  0  0  0  0  0
    9.4885  -16.7806   26.2838 C   0  0  0  0  0  0  0  0  0  0  0  0
    8.4373  -17.4621   26.1942 O   0  0  0  0  0  0  0  0  0  0  0  0
   10.2339  -16.8814   27.4408 O   0  0  0  0  0  0  0  0  0  0  0  0
  2  1  1  1
  2  3  1  0
  4  2  1  0
  5  4  1  0
  5  6  1  6
  7  5  1  0
  8  7  2  0
 10 11  1  0
 10  9  1  0
 11 13  1  0
 11 12  1  1
 13 15  1  0
 13 14  1  1
 14  7  1  0
 15 16  2  0
 17 18  1  0
 17 15  1  0
 18 19  1  1
 19 20  1  0
 20 25  2  0
 21 22  2  0
 21 20  1  0
 22 23  1  0
 23 24  2  0
 25 24  1  0
 26 18  1  0
 27 26  2  0
 28 26  1  0
M  END
$$$$
