LIF.pdb
     RDKit          3D

 28 28  0  0  1  0  0  0  0  0999 V2000
    3.2831  -19.7372   23.2988 C   0  0  0  0  0  0  0  0  0  0  0  0
    3.8549  -19.1964   22.0153 C   0  0  1  0  0  0  0  0  0  0  0  0
    2.8821  -18.1890   21.4380 C   0  0  0  0  0  0  0  0  0  0  0  0
    5.1757  -18.5176   22.1722 C   0  0  0  0  0  0  0  0  0  0  0  0
    5.6082  -17.9226   20.8648 C   0  0  2  0  0  0  0  0  0  0  0  0
    5.7188  -18.9711   19.8794 N   0  0  0  0  0  0  0  0  0  0  0  0
    6.8885  -17.1987   21.0861 C   0  0  0  0  0  0  0  0  0  0  0  0
    7.9838  -17.8199   21.1167 O   0  0  0  0  0  0  0  0  0  0  0  0
    7.4190  -12.3757   18.8926 C   0  0  0  0  0  0  0  0  0  0  0  0
    7.6532  -13.8131   19.3769 C   0  0  0  0  0  0  0  0  0  0  0  0
    7.9476  -13.7396   20.8505 C   0  0  2  0  0  0  0  0  0  0  0  0
    9.1401  -12.8929   21.1673 C   0  0  0  0  0  0  0  0  0  0  0  0
    8.0658  -15.0528   21.5354 C   0  0  2  0  0  0  0  0  0  0  0  0
    6.8591  -15.8032   21.2623 N   0  0  0  0  0  0  0  0  0  0  0  0
    8.2341  -14.9624   23.0037 C   0  0  0  0  0  0  0  0  0  0  0  0
    7.7360  -14.0135   23.6822 O   0  0  0  0  0  0  0  0  0  0  0  0
    8.9683  -15.9499   23.7001 N   0  0  0  0  0  0  0  0  0  0  0  0
    9.1342  -15.8512   25.1345 C   0  0  1  0  0  0  0  0  0  0  0  0
    7.8337  -15.8492   25.8663 C   0  0  0  0  0  0  0  0  0  0  0  0
    7.3712  -14.5017   26.2386 C   0  0  0  0  0  0  0  0  0  0  0  0
    6.0410  -14.2111   26.4778 C   0  0  0  0  0  0  0  0  0  0  0  0
    5.6129  -12.9473   26.8261 C   0  0  0  0  0  0  0  0  0  0  0  0
    6.5121  -11.9089   26.9506 C   0  0  0  0  0  0  0  0  0  0  0  0
    7.8419  -12.1870   26.7144 C   0  0  0  0  0  0  0  0  0  0  0  0
    8.2672  -13.4533   26.3659 C   0  0  0  0  0  0  0  0  0  0  0  0
   10.0044  -16.9726   25.6388 C   0  0  0  0  0  0  0  0  0  0  0  0
   10.3564  -16.9797   26.8445 O   0  0  0  0  0  0  0  0  0  0  0  0
   10.4377  -18.0013   24.8273 O   0  0  0  0  0  0  0  0  0  0  0  0
  2  1  1  1
  2  3  1  0
  4  2  1  0
  5  4  1  0
  5  6  1  6
  7  5  1  0
  8  7  2  0
 10 11  1  0
 10  9  1  0
 11 13  1  0
 11 12  1  6
 13 15  1  0
 13 14  1  1
 14  7  1  0
 15 16  2  0
 17 18  1  0
 17 15  1  0
 18 19  1  1
 19 20  1  0
 20 25  2  0
 21 22  2  0
 21 20  1  0
 22 23  1  0
 23 24  2  0
 25 24  1  0
 26 18  1  0
 27 26  2  0
 28 26  1  0
M  END
$$$$
