LIF.pdb
     RDKit          3D

 28 28  0  0  1  0  0  0  0  0999 V2000
    8.2070  -12.1687   19.5439 C   0  0  0  0  0  0  0  0  0  0  0  0
    7.6339  -13.5602   19.4997 C   0  0  1  0  0  0  0  0  0  0  0  0
    6.8563  -13.7233   18.2101 C   0  0  0  0  0  0  0  0  0  0  0  0
    8.6581  -14.6456   19.5557 C   0  0  0  0  0  0  0  0  0  0  0  0
    8.3376  -15.6001   20.6678 C   0  0  2  0  0  0  0  0  0  0  0  0
    6.9075  -15.7776   20.7438 N   0  0  0  0  0  0  0  0  0  0  0  0
    8.9217  -15.0602   21.9246 C   0  0  0  0  0  0  0  0  0  0  0  0
   10.0647  -14.5312   21.9294 O   0  0  0  0  0  0  0  0  0  0  0  0
    5.7699  -12.3627   25.2086 C   0  0  0  0  0  0  0  0  0  0  0  0
    6.9075  -12.8897   24.3233 C   0  0  0  0  0  0  0  0  0  0  0  0
    7.5950  -13.9841   25.0935 C   0  0  2  0  0  0  0  0  0  0  0  0
    8.0655  -13.5425   26.4437 C   0  0  0  0  0  0  0  0  0  0  0  0
    8.7020  -14.6627   24.3713 C   0  0  2  0  0  0  0  0  0  0  0  0
    8.1760  -15.1495   23.1143 N   0  0  0  0  0  0  0  0  0  0  0  0
    9.2956  -15.8066   25.1004 C   0  0  0  0  0  0  0  0  0  0  0  0
    8.6098  -16.8174   25.4421 O   0  0  0  0  0  0  0  0  0  0  0  0
   10.6679  -15.8013   25.4411 N   0  0  0  0  0  0  0  0  0  0  0  0
   11.2299  -16.8992   26.1982 C   0  0  1  0  0  0  0  0  0  0  0  0
   10.4841  -17.1691   27.4622 C   0  0  0  0  0  0  0  0  0  0  0  0
   10.5087  -16.0430   28.4107 C   0  0  0  0  0  0  0  0  0  0  0  0
   11.3731  -15.9964   29.4885 C   0  0  0  0  0  0  0  0  0  0  0  0
   11.3920  -14.9393   30.3740 C   0  0  0  0  0  0  0  0  0  0  0  0
   10.5340  -13.8714   30.2139 C   0  0  0  0  0  0  0  0  0  0  0  0
    9.6670  -13.9069   29.1421 C   0  0  0  0  0  0  0  0  0  0  0  0
    9.6507  -14.9666   28.2574 C   0  0  0  0  0  0  0  0  0  0  0  0
   11.2770  -18.1464   25.3547 C   0  0  0  0  0  0  0  0  0  0  0  0
   10.6681  -18.1662   24.2563 O   0  0  0  0  0  0  0  0  0  0  0  0
   11.9644  -19.2796   25.7392 O   0  0  0  0  0  0  0  0  0  0  0  0
  2  1  1  6
  2  3  1  0
  4  2  1  0
  5  4  1  0
  5  6  1  1
  7  5  1  0
  8  7  2  0
 10 11  1  0
 10  9  1  0
 11 13  1  0
 11 12  1  1
 13 15  1  0
 13 14  1  6
 14  7  1  0
 15 16  2  0
 17 18  1  0
 17 15  1  0
 18 19  1  1
 19 20  1  0
 20 25  2  0
 21 22  2  0
 21 20  1  0
 22 23  1  0
 23 24  2  0
 25 24  1  0
 26 18  1  0
 27 26  2  0
 28 26  1  0
M  END
$$$$
