LIF.pdb
     RDKit          3D

 28 28  0  0  1  0  0  0  0  0999 V2000
    6.2806  -21.0365   25.5191 C   0  0  0  0  0  0  0  0  0  0  0  0
    6.0332  -20.4942   24.1366 C   0  0  1  0  0  0  0  0  0  0  0  0
    4.5471  -20.2530   23.9694 C   0  0  0  0  0  0  0  0  0  0  0  0
    6.7394  -19.2106   23.8476 C   0  0  0  0  0  0  0  0  0  0  0  0
    6.3998  -18.7349   22.4660 C   0  0  2  0  0  0  0  0  0  0  0  0
    6.3678  -19.8651   21.5692 N   0  0  0  0  0  0  0  0  0  0  0  0
    7.4016  -17.7095   22.0696 C   0  0  0  0  0  0  0  0  0  0  0  0
    8.4981  -18.0463   21.5494 O   0  0  0  0  0  0  0  0  0  0  0  0
    6.1831  -13.3764   19.4605 C   0  0  0  0  0  0  0  0  0  0  0  0
    6.9178  -14.6062   20.0113 C   0  0  0  0  0  0  0  0  0  0  0  0
    7.4990  -14.2134   21.3423 C   0  0  2  0  0  0  0  0  0  0  0  0
    8.4610  -13.0712   21.2463 C   0  0  0  0  0  0  0  0  0  0  0  0
    8.1120  -15.3249   22.1145 C   0  0  2  0  0  0  0  0  0  0  0  0
    7.1062  -16.3509   22.2854 N   0  0  0  0  0  0  0  0  0  0  0  0
    8.6106  -14.9357   23.4533 C   0  0  0  0  0  0  0  0  0  0  0  0
    8.3382  -13.8113   23.9734 O   0  0  0  0  0  0  0  0  0  0  0  0
    9.4182  -15.8239   24.2002 N   0  0  0  0  0  0  0  0  0  0  0  0
    9.8209  -15.4777   25.5466 C   0  0  1  0  0  0  0  0  0  0  0  0
    8.6768  -15.4627   26.5045 C   0  0  0  0  0  0  0  0  0  0  0  0
    7.9032  -14.2101   26.4762 C   0  0  0  0  0  0  0  0  0  0  0  0
    8.4689  -12.9796   26.7536 C   0  0  0  0  0  0  0  0  0  0  0  0
    7.7398  -11.8093   26.7259 C   0  0  0  0  0  0  0  0  0  0  0  0
    6.3962  -11.8241   26.4151 C   0  0  0  0  0  0  0  0  0  0  0  0
    5.8210  -13.0461   26.1365 C   0  0  0  0  0  0  0  0  0  0  0  0
    6.5536  -14.2158   26.1651 C   0  0  0  0  0  0  0  0  0  0  0  0
   10.8853  -16.4254   26.0343 C   0  0  0  0  0  0  0  0  0  0  0  0
   11.1690  -17.4355   25.3438 O   0  0  0  0  0  0  0  0  0  0  0  0
   11.5681  -16.2326   27.2180 O   0  0  0  0  0  0  0  0  0  0  0  0
  2  1  1  1
  2  3  1  0
  4  2  1  0
  5  4  1  0
  5  6  1  6
  7  5  1  0
  8  7  2  0
 10 11  1  0
 10  9  1  0
 11 13  1  0
 11 12  1  6
 13 15  1  0
 13 14  1  1
 14  7  1  0
 15 16  2  0
 17 18  1  0
 17 15  1  0
 18 19  1  1
 19 20  1  0
 20 25  2  0
 21 22  2  0
 21 20  1  0
 22 23  1  0
 23 24  2  0
 25 24  1  0
 26 18  1  0
 27 26  2  0
 28 26  1  0
M  END
$$$$
