LIF.pdb
     RDKit          3D

 28 28  0  0  1  0  0  0  0  0999 V2000
    5.7073  -21.0625   24.8705 C   0  0  0  0  0  0  0  0  0  0  0  0
    5.8310  -20.5188   23.4720 C   0  0  1  0  0  0  0  0  0  0  0  0
    4.5296  -20.7682   22.7383 C   0  0  0  0  0  0  0  0  0  0  0  0
    6.1180  -19.0548   23.4081 C   0  0  0  0  0  0  0  0  0  0  0  0
    6.3384  -18.6341   21.9851 C   0  0  2  0  0  0  0  0  0  0  0  0
    6.5670  -19.8055   21.1738 N   0  0  0  0  0  0  0  0  0  0  0  0
    7.4774  -17.6781   21.9556 C   0  0  0  0  0  0  0  0  0  0  0  0
    8.6670  -18.0914   21.9729 O   0  0  0  0  0  0  0  0  0  0  0  0
    6.9058  -13.0403   19.2393 C   0  0  0  0  0  0  0  0  0  0  0  0
    7.4073  -14.3743   19.8087 C   0  0  0  0  0  0  0  0  0  0  0  0
    7.8307  -14.1163   21.2292 C   0  0  2  0  0  0  0  0  0  0  0  0
    8.8642  -13.0403   21.3452 C   0  0  0  0  0  0  0  0  0  0  0  0
    8.2685  -15.3188   21.9841 C   0  0  2  0  0  0  0  0  0  0  0  0
    7.2062  -16.2983   21.9085 N   0  0  0  0  0  0  0  0  0  0  0  0
    8.5674  -15.0674   23.4123 C   0  0  0  0  0  0  0  0  0  0  0  0
    7.9981  -14.1425   24.0676 O   0  0  0  0  0  0  0  0  0  0  0  0
    9.5130  -15.8667   24.0951 N   0  0  0  0  0  0  0  0  0  0  0  0
    9.7991  -15.6157   25.4915 C   0  0  1  0  0  0  0  0  0  0  0  0
    8.5813  -15.6866   26.3511 C   0  0  0  0  0  0  0  0  0  0  0  0
    7.8766  -14.4000   26.4786 C   0  0  0  0  0  0  0  0  0  0  0  0
    8.5381  -13.2090   26.7125 C   0  0  0  0  0  0  0  0  0  0  0  0
    7.8733  -12.0066   26.8313 C   0  0  0  0  0  0  0  0  0  0  0  0
    6.4999  -11.9475   26.7190 C   0  0  0  0  0  0  0  0  0  0  0  0
    5.8291  -13.1296   26.4856 C   0  0  0  0  0  0  0  0  0  0  0  0
    6.4977  -14.3316   26.3672 C   0  0  0  0  0  0  0  0  0  0  0  0
   10.8385  -16.5830   25.9946 C   0  0  0  0  0  0  0  0  0  0  0  0
   11.2570  -16.4736   27.1738 O   0  0  0  0  0  0  0  0  0  0  0  0
   11.3579  -17.5924   25.2098 O   0  0  0  0  0  0  0  0  0  0  0  0
  2  1  1  1
  2  3  1  0
  4  2  1  0
  5  4  1  0
  5  6  1  6
  7  5  1  0
  8  7  2  0
 10 11  1  0
 10  9  1  0
 11 13  1  0
 11 12  1  6
 13 15  1  0
 13 14  1  1
 14  7  1  0
 15 16  2  0
 17 18  1  0
 17 15  1  0
 18 19  1  1
 19 20  1  0
 20 25  2  0
 21 22  2  0
 21 20  1  0
 22 23  1  0
 23 24  2  0
 25 24  1  0
 26 18  1  0
 27 26  2  0
 28 26  1  0
M  END
$$$$
