LIF.pdb
     RDKit          3D

 28 28  0  0  1  0  0  0  0  0999 V2000
   12.5150  -18.4086   15.8601 C   0  0  0  0  0  0  0  0  0  0  0  0
   11.7314  -18.7779   17.0915 C   0  0  1  0  0  0  0  0  0  0  0  0
   12.1435  -20.1683   17.5291 C   0  0  0  0  0  0  0  0  0  0  0  0
   11.9379  -17.8554   18.2474 C   0  0  0  0  0  0  0  0  0  0  0  0
   10.8684  -18.0715   19.2770 C   0  0  2  0  0  0  0  0  0  0  0  0
    9.6281  -18.3928   18.6130 N   0  0  0  0  0  0  0  0  0  0  0  0
   10.7764  -16.8454   20.1139 C   0  0  0  0  0  0  0  0  0  0  0  0
   11.8159  -16.2746   20.5382 O   0  0  0  0  0  0  0  0  0  0  0  0
    6.7266  -13.2247   19.2736 C   0  0  0  0  0  0  0  0  0  0  0  0
    8.1147  -13.8371   19.5050 C   0  0  0  0  0  0  0  0  0  0  0  0
    8.0923  -14.4793   20.8654 C   0  0  2  0  0  0  0  0  0  0  0  0
    7.6583  -13.5415   21.9478 C   0  0  0  0  0  0  0  0  0  0  0  0
    9.3531  -15.1578   21.2623 C   0  0  2  0  0  0  0  0  0  0  0  0
    9.5055  -16.3295   20.4272 N   0  0  0  0  0  0  0  0  0  0  0  0
    9.3948  -15.5883   22.6785 C   0  0  0  0  0  0  0  0  0  0  0  0
    8.7890  -16.6256   23.0859 O   0  0  0  0  0  0  0  0  0  0  0  0
   10.1245  -14.8401   23.6308 N   0  0  0  0  0  0  0  0  0  0  0  0
   10.0775  -15.2073   25.0299 C   0  0  1  0  0  0  0  0  0  0  0  0
   10.7807  -14.2261   25.9072 C   0  0  0  0  0  0  0  0  0  0  0  0
   10.7030  -14.5578   27.3398 C   0  0  0  0  0  0  0  0  0  0  0  0
   11.4042  -15.6096   27.8993 C   0  0  0  0  0  0  0  0  0  0  0  0
   11.3278  -15.9162   29.2417 C   0  0  0  0  0  0  0  0  0  0  0  0
   10.5351  -15.1716   30.0898 C   0  0  0  0  0  0  0  0  0  0  0  0
    9.8308  -14.1197   29.5428 C   0  0  0  0  0  0  0  0  0  0  0  0
    9.9095  -13.8154   28.1985 C   0  0  0  0  0  0  0  0  0  0  0  0
    8.6493  -15.3668   25.4812 C   0  0  0  0  0  0  0  0  0  0  0  0
    7.7756  -14.5808   25.0380 O   0  0  0  0  0  0  0  0  0  0  0  0
    8.2543  -16.3461   26.3697 O   0  0  0  0  0  0  0  0  0  0  0  0
  2  1  1  6
  2  3  1  0
  4  2  1  0
  5  4  1  0
  5  6  1  6
  7  5  1  0
  8  7  2  0
 10 11  1  0
 10  9  1  0
 11 13  1  0
 11 12  1  1
 13 15  1  0
 13 14  1  6
 14  7  1  0
 15 16  2  0
 17 18  1  0
 17 15  1  0
 18 19  1  1
 19 20  1  0
 20 25  2  0
 21 22  2  0
 21 20  1  0
 22 23  1  0
 23 24  2  0
 25 24  1  0
 26 18  1  0
 27 26  2  0
 28 26  1  0
M  END
$$$$
