LIF.pdb
     RDKit          3D

 28 28  0  0  1  0  0  0  0  0999 V2000
    7.8942  -11.9404   19.2777 C   0  0  0  0  0  0  0  0  0  0  0  0
    8.2577  -13.4003   19.2210 C   0  0  1  0  0  0  0  0  0  0  0  0
    9.7320  -13.5203   18.8944 C   0  0  0  0  0  0  0  0  0  0  0  0
    8.0100  -14.1422   20.4930 C   0  0  0  0  0  0  0  0  0  0  0  0
    8.3909  -15.5842   20.3316 C   0  0  2  0  0  0  0  0  0  0  0  0
    7.4705  -16.2191   19.4192 N   0  0  0  0  0  0  0  0  0  0  0  0
    8.3987  -16.2150   21.6785 C   0  0  0  0  0  0  0  0  0  0  0  0
    7.3208  -16.4583   22.2830 O   0  0  0  0  0  0  0  0  0  0  0  0
   10.4546  -20.7536   22.3849 C   0  0  0  0  0  0  0  0  0  0  0  0
    9.6361  -19.4564   22.4361 C   0  0  0  0  0  0  0  0  0  0  0  0
   10.3614  -18.5132   23.3570 C   0  0  2  0  0  0  0  0  0  0  0  0
   10.6863  -19.1252   24.6834 C   0  0  0  0  0  0  0  0  0  0  0  0
    9.7018  -17.1971   23.5574 C   0  0  2  0  0  0  0  0  0  0  0  0
    9.6332  -16.5375   22.2713 N   0  0  0  0  0  0  0  0  0  0  0  0
   10.4046  -16.2998   24.5026 C   0  0  0  0  0  0  0  0  0  0  0  0
   11.5556  -15.8277   24.2547 O   0  0  0  0  0  0  0  0  0  0  0  0
    9.7996  -15.9396   25.7287 N   0  0  0  0  0  0  0  0  0  0  0  0
   10.5770  -15.2722   26.7509 C   0  0  1  0  0  0  0  0  0  0  0  0
   10.1629  -13.8533   26.9555 C   0  0  0  0  0  0  0  0  0  0  0  0
    8.7090  -13.6447   26.8513 C   0  0  0  0  0  0  0  0  0  0  0  0
    7.9579  -14.1483   25.8057 C   0  0  0  0  0  0  0  0  0  0  0  0
    6.5964  -13.9499   25.7127 C   0  0  0  0  0  0  0  0  0  0  0  0
    5.9225  -13.2292   26.6763 C   0  0  0  0  0  0  0  0  0  0  0  0
    6.6615  -12.7219   27.7243 C   0  0  0  0  0  0  0  0  0  0  0  0
    8.0244  -12.9223   27.8145 C   0  0  0  0  0  0  0  0  0  0  0  0
   10.4863  -16.0254   28.0523 C   0  0  0  0  0  0  0  0  0  0  0  0
   11.1783  -15.6455   29.0292 O   0  0  0  0  0  0  0  0  0  0  0  0
    9.6702  -17.1256   28.2203 O   0  0  0  0  0  0  0  0  0  0  0  0
  2  1  1  1
  2  3  1  0
  4  2  1  0
  5  4  1  0
  5  6  1  6
  7  5  1  0
  8  7  2  0
 10 11  1  0
 10  9  1  0
 11 13  1  0
 11 12  1  1
 13 15  1  0
 13 14  1  6
 14  7  1  0
 15 16  2  0
 17 18  1  0
 17 15  1  0
 18 19  1  1
 19 20  1  0
 20 25  2  0
 21 22  2  0
 21 20  1  0
 22 23  1  0
 23 24  2  0
 25 24  1  0
 26 18  1  0
 27 26  2  0
 28 26  1  0
M  END
$$$$
