LIF.pdb
     RDKit          3D

 28 28  0  0  1  0  0  0  0  0999 V2000
    5.6393  -21.2156   24.1097 C   0  0  0  0  0  0  0  0  0  0  0  0
    5.7013  -20.4994   22.7869 C   0  0  1  0  0  0  0  0  0  0  0  0
    4.2925  -20.3484   22.2512 C   0  0  0  0  0  0  0  0  0  0  0  0
    6.3117  -19.1383   22.8564 C   0  0  0  0  0  0  0  0  0  0  0  0
    6.4117  -18.5473   21.4812 C   0  0  2  0  0  0  0  0  0  0  0  0
    6.6279  -19.6055   20.5242 N   0  0  0  0  0  0  0  0  0  0  0  0
    7.5064  -17.5403   21.4881 C   0  0  0  0  0  0  0  0  0  0  0  0
    8.7056  -17.8902   21.3278 O   0  0  0  0  0  0  0  0  0  0  0  0
    6.8518  -12.7464   19.2140 C   0  0  0  0  0  0  0  0  0  0  0  0
    7.3942  -14.0982   19.6976 C   0  0  0  0  0  0  0  0  0  0  0  0
    7.7352  -13.9410   21.1545 C   0  0  2  0  0  0  0  0  0  0  0  0
    8.6943  -12.8219   21.4133 C   0  0  0  0  0  0  0  0  0  0  0  0
    8.2105  -15.1777   21.8270 C   0  0  2  0  0  0  0  0  0  0  0  0
    7.1820  -16.1845   21.6777 N   0  0  0  0  0  0  0  0  0  0  0  0
    8.4960  -15.0160   23.2708 C   0  0  0  0  0  0  0  0  0  0  0  0
    8.5637  -13.8751   23.8211 O   0  0  0  0  0  0  0  0  0  0  0  0
    8.7045  -16.1505   24.0886 N   0  0  0  0  0  0  0  0  0  0  0  0
    8.8621  -15.9927   25.5186 C   0  0  1  0  0  0  0  0  0  0  0  0
    7.5640  -15.7706   26.2205 C   0  0  0  0  0  0  0  0  0  0  0  0
    7.2164  -14.3483   26.3768 C   0  0  0  0  0  0  0  0  0  0  0  0
    5.9212  -13.8810   26.2550 C   0  0  0  0  0  0  0  0  0  0  0  0
    5.6009  -12.5477   26.4021 C   0  0  0  0  0  0  0  0  0  0  0  0
    6.5784  -11.6155   26.6810 C   0  0  0  0  0  0  0  0  0  0  0  0
    7.8744  -12.0702   26.8048 C   0  0  0  0  0  0  0  0  0  0  0  0
    8.1916  -13.4056   26.6569 C   0  0  0  0  0  0  0  0  0  0  0  0
    9.5623  -17.1915   26.1032 C   0  0  0  0  0  0  0  0  0  0  0  0
    9.7668  -18.1956   25.3770 O   0  0  0  0  0  0  0  0  0  0  0  0
    9.9916  -17.2370   27.4140 O   0  0  0  0  0  0  0  0  0  0  0  0
  2  1  1  1
  2  3  1  0
  4  2  1  0
  5  4  1  0
  5  6  1  6
  7  5  1  0
  8  7  2  0
 10 11  1  0
 10  9  1  0
 11 13  1  0
 11 12  1  6
 13 15  1  0
 13 14  1  1
 14  7  1  0
 15 16  2  0
 17 18  1  0
 17 15  1  0
 18 19  1  1
 19 20  1  0
 20 25  2  0
 21 22  2  0
 21 20  1  0
 22 23  1  0
 23 24  2  0
 25 24  1  0
 26 18  1  0
 27 26  2  0
 28 26  1  0
M  END
$$$$
