LIF.pdb
     RDKit          3D

 28 28  0  0  1  0  0  0  0  0999 V2000
    7.6622  -12.1770   18.9391 C   0  0  0  0  0  0  0  0  0  0  0  0
    8.3473  -13.5176   18.9566 C   0  0  1  0  0  0  0  0  0  0  0  0
    9.8407  -13.2970   19.0814 C   0  0  0  0  0  0  0  0  0  0  0  0
    7.9218  -14.4073   20.0779 C   0  0  0  0  0  0  0  0  0  0  0  0
    8.6353  -15.7240   19.9905 C   0  0  2  0  0  0  0  0  0  0  0  0
    8.0978  -16.4830   18.8871 N   0  0  0  0  0  0  0  0  0  0  0  0
    8.4878  -16.4186   21.2975 C   0  0  0  0  0  0  0  0  0  0  0  0
    7.3624  -16.8292   21.6862 O   0  0  0  0  0  0  0  0  0  0  0  0
   12.0145  -20.1069   22.8503 C   0  0  0  0  0  0  0  0  0  0  0  0
   11.5846  -18.6338   22.8771 C   0  0  0  0  0  0  0  0  0  0  0  0
   10.1336  -18.6048   23.2737 C   0  0  2  0  0  0  0  0  0  0  0  0
    9.2710  -19.4597   22.3994 C   0  0  0  0  0  0  0  0  0  0  0  0
    9.5407  -17.2479   23.3942 C   0  0  2  0  0  0  0  0  0  0  0  0
    9.6287  -16.6110   22.0979 N   0  0  0  0  0  0  0  0  0  0  0  0
   10.2093  -16.3756   24.3865 C   0  0  0  0  0  0  0  0  0  0  0  0
   11.3088  -15.7932   24.1397 O   0  0  0  0  0  0  0  0  0  0  0  0
    9.6285  -16.1656   25.6584 N   0  0  0  0  0  0  0  0  0  0  0  0
   10.3645  -15.4545   26.6817 C   0  0  1  0  0  0  0  0  0  0  0  0
   10.1226  -13.9824   26.6479 C   0  0  0  0  0  0  0  0  0  0  0  0
    8.6988  -13.6187   26.7411 C   0  0  0  0  0  0  0  0  0  0  0  0
    8.1926  -12.8518   27.7739 C   0  0  0  0  0  0  0  0  0  0  0  0
    6.8581  -12.5141   27.8566 C   0  0  0  0  0  0  0  0  0  0  0  0
    5.9641  -12.9365   26.8951 C   0  0  0  0  0  0  0  0  0  0  0  0
    6.4577  -13.7023   25.8599 C   0  0  0  0  0  0  0  0  0  0  0  0
    7.7942  -14.0386   25.7800 C   0  0  0  0  0  0  0  0  0  0  0  0
   10.0243  -15.9987   28.0445 C   0  0  0  0  0  0  0  0  0  0  0  0
   10.6047  -15.5282   29.0542 O   0  0  0  0  0  0  0  0  0  0  0  0
    9.0957  -17.0017   28.2350 O   0  0  0  0  0  0  0  0  0  0  0  0
  2  1  1  1
  2  3  1  0
  4  2  1  0
  5  4  1  0
  5  6  1  6
  7  5  1  0
  8  7  2  0
 10 11  1  0
 10  9  1  0
 11 13  1  0
 11 12  1  6
 13 15  1  0
 13 14  1  6
 14  7  1  0
 15 16  2  0
 17 18  1  0
 17 15  1  0
 18 19  1  1
 19 20  1  0
 20 25  2  0
 21 22  2  0
 21 20  1  0
 22 23  1  0
 23 24  2  0
 25 24  1  0
 26 18  1  0
 27 26  2  0
 28 26  1  0
M  END
$$$$
