LIF.pdb
     RDKit          3D

 28 28  0  0  1  0  0  0  0  0999 V2000
    7.9192  -11.9467   19.1309 C   0  0  0  0  0  0  0  0  0  0  0  0
    8.1807  -13.4280   19.1948 C   0  0  1  0  0  0  0  0  0  0  0  0
    9.6491  -13.6483   19.4944 C   0  0  0  0  0  0  0  0  0  0  0  0
    7.3892  -14.1443   20.2390 C   0  0  0  0  0  0  0  0  0  0  0  0
    7.7612  -15.5975   20.2614 C   0  0  2  0  0  0  0  0  0  0  0  0
    7.1867  -16.2525   19.1110 N   0  0  0  0  0  0  0  0  0  0  0  0
    7.2944  -16.1754   21.5500 C   0  0  0  0  0  0  0  0  0  0  0  0
    6.0737  -16.1587   21.8598 O   0  0  0  0  0  0  0  0  0  0  0  0
    6.2070  -20.1110   24.5848 C   0  0  0  0  0  0  0  0  0  0  0  0
    7.6343  -19.5879   24.7961 C   0  0  0  0  0  0  0  0  0  0  0  0
    8.0042  -18.8055   23.5654 C   0  0  2  0  0  0  0  0  0  0  0  0
    9.3744  -19.1274   23.0574 C   0  0  0  0  0  0  0  0  0  0  0  0
    7.8436  -17.3331   23.6832 C   0  0  2  0  0  0  0  0  0  0  0  0
    8.2404  -16.7436   22.4228 N   0  0  0  0  0  0  0  0  0  0  0  0
    8.6512  -16.7154   24.7596 C   0  0  0  0  0  0  0  0  0  0  0  0
    9.8652  -16.3896   24.5892 O   0  0  0  0  0  0  0  0  0  0  0  0
    8.0792  -16.4682   26.0288 N   0  0  0  0  0  0  0  0  0  0  0  0
    8.8872  -15.9059   27.0897 C   0  0  1  0  0  0  0  0  0  0  0  0
    8.1093  -15.0078   27.9925 C   0  0  0  0  0  0  0  0  0  0  0  0
    7.5525  -13.8278   27.3101 C   0  0  0  0  0  0  0  0  0  0  0  0
    6.2750  -13.8071   26.7822 C   0  0  0  0  0  0  0  0  0  0  0  0
    5.7583  -12.6993   26.1438 C   0  0  0  0  0  0  0  0  0  0  0  0
    6.5104  -11.5514   26.0062 C   0  0  0  0  0  0  0  0  0  0  0  0
    7.7865  -11.5604   26.5289 C   0  0  0  0  0  0  0  0  0  0  0  0
    8.3007  -12.6711   27.1675 C   0  0  0  0  0  0  0  0  0  0  0  0
    9.5344  -17.0040   27.8925 C   0  0  0  0  0  0  0  0  0  0  0  0
    9.0299  -18.1541   27.8750 O   0  0  0  0  0  0  0  0  0  0  0  0
   10.6665  -16.8005   28.6551 O   0  0  0  0  0  0  0  0  0  0  0  0
  2  1  1  1
  2  3  1  0
  4  2  1  0
  5  4  1  0
  5  6  1  6
  7  5  1  0
  8  7  2  0
 10 11  1  0
 10  9  1  0
 11 13  1  0
 11 12  1  1
 13 15  1  0
 13 14  1  6
 14  7  1  0
 15 16  2  0
 17 18  1  0
 17 15  1  0
 18 19  1  1
 19 20  1  0
 20 25  2  0
 21 22  2  0
 21 20  1  0
 22 23  1  0
 23 24  2  0
 25 24  1  0
 26 18  1  0
 27 26  2  0
 28 26  1  0
M  END
$$$$
