LIF.pdb
     RDKit          3D

 28 28  0  0  1  0  0  0  0  0999 V2000
    8.1633  -12.1248   18.9629 C   0  0  0  0  0  0  0  0  0  0  0  0
    8.2522  -13.6247   19.0587 C   0  0  1  0  0  0  0  0  0  0  0  0
    9.7041  -14.0129   19.2486 C   0  0  0  0  0  0  0  0  0  0  0  0
    7.4710  -14.2130   20.1871 C   0  0  0  0  0  0  0  0  0  0  0  0
    7.6289  -15.7047   20.2012 C   0  0  2  0  0  0  0  0  0  0  0  0
    6.8922  -16.2706   19.0969 N   0  0  0  0  0  0  0  0  0  0  0  0
    7.1678  -16.2071   21.5230 C   0  0  0  0  0  0  0  0  0  0  0  0
    5.9580  -16.1159   21.8613 O   0  0  0  0  0  0  0  0  0  0  0  0
    5.9608  -20.0158   24.5819 C   0  0  0  0  0  0  0  0  0  0  0  0
    7.4367  -19.6311   24.7527 C   0  0  0  0  0  0  0  0  0  0  0  0
    7.8333  -18.8499   23.5296 C   0  0  2  0  0  0  0  0  0  0  0  0
    9.2009  -19.1977   23.0315 C   0  0  0  0  0  0  0  0  0  0  0  0
    7.7025  -17.3752   23.6543 C   0  0  2  0  0  0  0  0  0  0  0  0
    8.1066  -16.7882   22.3950 N   0  0  0  0  0  0  0  0  0  0  0  0
    8.5259  -16.7783   24.7304 C   0  0  0  0  0  0  0  0  0  0  0  0
    9.7361  -16.4452   24.5473 O   0  0  0  0  0  0  0  0  0  0  0  0
    7.9741  -16.5602   26.0138 N   0  0  0  0  0  0  0  0  0  0  0  0
    8.8004  -16.0274   27.0759 C   0  0  1  0  0  0  0  0  0  0  0  0
    8.0524  -15.1067   27.9813 C   0  0  0  0  0  0  0  0  0  0  0  0
    7.5892  -13.8771   27.3166 C   0  0  0  0  0  0  0  0  0  0  0  0
    6.3493  -13.7791   26.7132 C   0  0  0  0  0  0  0  0  0  0  0  0
    5.9203  -12.6251   26.0918 C   0  0  0  0  0  0  0  0  0  0  0  0
    6.7267  -11.5071   26.0489 C   0  0  0  0  0  0  0  0  0  0  0  0
    7.9661  -11.5932   26.6475 C   0  0  0  0  0  0  0  0  0  0  0  0
    8.3925  -12.7499   27.2688 C   0  0  0  0  0  0  0  0  0  0  0  0
    9.4114  -17.1481   27.8757 C   0  0  0  0  0  0  0  0  0  0  0  0
   10.2862  -16.8801   28.7363 O   0  0  0  0  0  0  0  0  0  0  0  0
    9.0510  -18.4689   27.7023 O   0  0  0  0  0  0  0  0  0  0  0  0
  2  1  1  1
  2  3  1  0
  4  2  1  0
  5  4  1  0
  5  6  1  6
  7  5  1  0
  8  7  2  0
 10 11  1  0
 10  9  1  0
 11 13  1  0
 11 12  1  1
 13 15  1  0
 13 14  1  6
 14  7  1  0
 15 16  2  0
 17 18  1  0
 17 15  1  0
 18 19  1  1
 19 20  1  0
 20 25  2  0
 21 22  2  0
 21 20  1  0
 22 23  1  0
 23 24  2  0
 25 24  1  0
 26 18  1  0
 27 26  2  0
 28 26  1  0
M  END
$$$$
