LIF.pdb
     RDKit          3D

 28 28  0  0  1  0  0  0  0  0999 V2000
    5.5917  -21.1785   24.5739 C   0  0  0  0  0  0  0  0  0  0  0  0
    5.4960  -20.4363   23.2676 C   0  0  1  0  0  0  0  0  0  0  0  0
    4.0332  -20.2166   22.9411 C   0  0  0  0  0  0  0  0  0  0  0  0
    6.1683  -19.1029   23.2709 C   0  0  0  0  0  0  0  0  0  0  0  0
    6.0809  -18.4779   21.9100 C   0  0  2  0  0  0  0  0  0  0  0  0
    6.0975  -19.5167   20.9085 N   0  0  0  0  0  0  0  0  0  0  0  0
    7.2082  -17.5182   21.7675 C   0  0  0  0  0  0  0  0  0  0  0  0
    8.3473  -17.9111   21.4009 O   0  0  0  0  0  0  0  0  0  0  0  0
    6.4428  -12.8468   19.5077 C   0  0  0  0  0  0  0  0  0  0  0  0
    6.9880  -14.1979   19.9903 C   0  0  0  0  0  0  0  0  0  0  0  0
    7.5790  -13.9730   21.3554 C   0  0  2  0  0  0  0  0  0  0  0  0
    8.6493  -12.9272   21.3644 C   0  0  0  0  0  0  0  0  0  0  0  0
    8.0660  -15.1982   22.0405 C   0  0  2  0  0  0  0  0  0  0  0  0
    6.9835  -16.1583   22.0500 N   0  0  0  0  0  0  0  0  0  0  0  0
    8.5072  -14.9819   23.4373 C   0  0  0  0  0  0  0  0  0  0  0  0
    7.9851  -14.0958   24.1796 O   0  0  0  0  0  0  0  0  0  0  0  0
    9.5413  -15.7723   23.9897 N   0  0  0  0  0  0  0  0  0  0  0  0
    9.9850  -15.5378   25.3472 C   0  0  1  0  0  0  0  0  0  0  0  0
    8.8846  -15.6775   26.3454 C   0  0  0  0  0  0  0  0  0  0  0  0
    8.0711  -14.4597   26.4974 C   0  0  0  0  0  0  0  0  0  0  0  0
    8.6012  -13.2603   26.9352 C   0  0  0  0  0  0  0  0  0  0  0  0
    7.8347  -12.1225   27.0759 C   0  0  0  0  0  0  0  0  0  0  0  0
    6.4878  -12.1399   26.7800 C   0  0  0  0  0  0  0  0  0  0  0  0
    5.9479  -13.3310   26.3423 C   0  0  0  0  0  0  0  0  0  0  0  0
    6.7179  -14.4682   26.2024 C   0  0  0  0  0  0  0  0  0  0  0  0
   11.1154  -16.4701   25.6965 C   0  0  0  0  0  0  0  0  0  0  0  0
   11.3899  -17.4179   24.9195 O   0  0  0  0  0  0  0  0  0  0  0  0
   11.8690  -16.3291   26.8440 O   0  0  0  0  0  0  0  0  0  0  0  0
  2  1  1  1
  2  3  1  0
  4  2  1  0
  5  4  1  0
  5  6  1  6
  7  5  1  0
  8  7  2  0
 10 11  1  0
 10  9  1  0
 11 13  1  0
 11 12  1  6
 13 15  1  0
 13 14  1  1
 14  7  1  0
 15 16  2  0
 17 18  1  0
 17 15  1  0
 18 19  1  1
 19 20  1  0
 20 25  2  0
 21 22  2  0
 21 20  1  0
 22 23  1  0
 23 24  2  0
 25 24  1  0
 26 18  1  0
 27 26  2  0
 28 26  1  0
M  END
$$$$
