TPS.pdb
     RDKit          3D

 21 21  0  0  1  0  0  0  0  0999 V2000
   37.7000  -10.1444   -7.1314 C   0  0  0  0  0  0  0  0  0  0  0  0
   39.0483   -9.9019   -6.5469 C   0  0  1  0  0  0  0  0  0  0  0  0
   39.2960  -10.9748   -5.6532 O   0  0  0  0  0  0  0  0  0  0  0  0
   40.1926   -9.8962   -7.5019 C   0  0  2  0  0  0  0  0  0  0  0  0
   41.3934   -9.7688   -6.6672 N   0  0  0  0  0  0  0  0  0  0  0  0
   40.1584   -8.8075   -8.5109 C   0  0  0  0  0  0  0  0  0  0  0  0
   40.6275   -7.6566   -8.1537 O   0  0  0  0  0  0  0  0  0  0  0  0
   39.6745   -8.8881   -9.8193 N   0  0  0  0  0  0  0  0  0  0  0  0
   39.2355  -10.0823  -10.4982 C   0  0  0  0  0  0  0  0  0  0  0  0
   39.5341   -9.7968  -11.9730 C   0  0  0  0  0  0  0  0  0  0  0  0
   39.2054   -8.3422  -12.0842 C   0  0  0  0  0  0  0  0  0  0  0  0
   39.5599   -7.7877  -10.7362 C   0  0  1  0  0  0  0  0  0  0  0  0
   38.4394   -6.8635  -10.3323 C   0  0  0  0  0  0  0  0  0  0  0  0
   37.6910   -7.2357   -9.3997 O   0  0  0  0  0  0  0  0  0  0  0  0
   38.3514   -4.2101   -7.9465 O   0  0  0  0  0  0  0  0  0  0  0  0
   38.9383   -4.0601   -9.2028 C   0  0  0  0  0  0  0  0  0  0  0  0
   37.8845   -4.4067  -10.2275 C   0  0  2  0  0  0  0  0  0  0  0  0
   38.1985   -5.6192  -10.9459 N   0  0  0  0  0  0  0  0  0  0  0  0
   37.8203   -3.2906  -11.1940 C   0  0  0  0  0  0  0  0  0  0  0  0
   38.7107   -3.1855  -12.0681 O   0  0  0  0  0  0  0  0  0  0  0  0
   36.8118   -2.3410  -11.1832 O   0  0  0  0  0  0  0  0  0  0  0  0
  2  1  1  6
  2  4  1  0
  2  3  1  0
  4  5  1  1
  4  6  1  0
  6  7  2  0
  8  6  1  0
  8 12  1  0
  9  8  1  0
 10  9  1  0
 10 11  1  0
 11 12  1  0
 12 13  1  1
 13 14  2  0
 15 16  1  0
 17 16  1  1
 17 19  1  0
 18 13  1  0
 18 17  1  0
 19 20  2  0
 19 21  1  0
M  END
$$$$
