TPS.pdb
     RDKit          3D

 21 21  0  0  1  0  0  0  0  0999 V2000
   16.3883  -11.6131  -17.7804 C   0  0  0  0  0  0  0  0  0  0  0  0
   17.4635  -10.7616  -17.1997 C   0  0  1  0  0  0  0  0  0  0  0  0
   16.8213   -9.8433  -16.3303 O   0  0  0  0  0  0  0  0  0  0  0  0
   18.4854  -11.4602  -16.3695 C   0  0  2  0  0  0  0  0  0  0  0  0
   17.7363  -12.0684  -15.2633 N   0  0  0  0  0  0  0  0  0  0  0  0
   19.5594  -10.5857  -15.8345 C   0  0  0  0  0  0  0  0  0  0  0  0
   19.4156  -10.1454  -14.6271 O   0  0  0  0  0  0  0  0  0  0  0  0
   20.7233  -10.1830  -16.4946 N   0  0  0  0  0  0  0  0  0  0  0  0
   21.1017  -10.5184  -17.8453 C   0  0  0  0  0  0  0  0  0  0  0  0
   22.6328  -10.5104  -17.8100 C   0  0  0  0  0  0  0  0  0  0  0  0
   22.9201   -9.3671  -16.8900 C   0  0  0  0  0  0  0  0  0  0  0  0
   21.7722   -9.3832  -15.9245 C   0  0  1  0  0  0  0  0  0  0  0  0
   21.3255   -7.9541  -15.7484 C   0  0  0  0  0  0  0  0  0  0  0  0
   20.4612   -7.5168  -16.5420 O   0  0  0  0  0  0  0  0  0  0  0  0
   22.4572   -5.8429  -12.4768 O   0  0  0  0  0  0  0  0  0  0  0  0
   21.3078   -5.3585  -13.1007 C   0  0  0  0  0  0  0  0  0  0  0  0
   21.4061   -5.7321  -14.5605 C   0  0  2  0  0  0  0  0  0  0  0  0
   21.8277   -7.1003  -14.7475 N   0  0  0  0  0  0  0  0  0  0  0  0
   22.4096   -4.8419  -15.1806 C   0  0  0  0  0  0  0  0  0  0  0  0
   22.1612   -3.6193  -15.2869 O   0  0  0  0  0  0  0  0  0  0  0  0
   23.6283   -5.2963  -15.6573 O   0  0  0  0  0  0  0  0  0  0  0  0
  2  1  1  1
  2  4  1  0
  2  3  1  0
  4  5  1  1
  4  6  1  0
  6  7  2  0
  8  6  1  0
  8 12  1  0
  9  8  1  0
 10  9  1  0
 10 11  1  0
 11 12  1  0
 12 13  1  6
 13 14  2  0
 15 16  1  0
 17 16  1  1
 17 19  1  0
 18 13  1  0
 18 17  1  0
 19 20  2  0
 19 21  1  0
M  END
$$$$
