TPS.pdb
     RDKit          3D

 21 21  0  0  1  0  0  0  0  0999 V2000
   18.1630   -9.2756  -18.5950 C   0  0  0  0  0  0  0  0  0  0  0  0
   17.8332  -10.5249  -17.8540 C   0  0  1  0  0  0  0  0  0  0  0  0
   17.2675  -11.4151  -18.8021 O   0  0  0  0  0  0  0  0  0  0  0  0
   18.9805  -11.2557  -17.2448 C   0  0  2  0  0  0  0  0  0  0  0  0
   18.3890  -12.4285  -16.5895 N   0  0  0  0  0  0  0  0  0  0  0  0
   19.7703  -10.4706  -16.2628 C   0  0  0  0  0  0  0  0  0  0  0  0
   19.1541  -10.0600  -15.2028 O   0  0  0  0  0  0  0  0  0  0  0  0
   21.1211  -10.1245  -16.3541 N   0  0  0  0  0  0  0  0  0  0  0  0
   22.0422  -10.5329  -17.3859 C   0  0  0  0  0  0  0  0  0  0  0  0
   23.4001  -10.5546  -16.6780 C   0  0  0  0  0  0  0  0  0  0  0  0
   23.2979   -9.3740  -15.7659 C   0  0  0  0  0  0  0  0  0  0  0  0
   21.8424   -9.3196  -15.4072 C   0  0  1  0  0  0  0  0  0  0  0  0
   21.4213   -7.8747  -15.4963 C   0  0  0  0  0  0  0  0  0  0  0  0
   21.0578   -7.4466  -16.6156 O   0  0  0  0  0  0  0  0  0  0  0  0
   19.4432   -4.0070  -13.7911 O   0  0  0  0  0  0  0  0  0  0  0  0
   19.7881   -5.3448  -13.6001 C   0  0  0  0  0  0  0  0  0  0  0  0
   21.0001   -5.6159  -14.4592 C   0  0  2  0  0  0  0  0  0  0  0  0
   21.4175   -6.9967  -14.3954 N   0  0  0  0  0  0  0  0  0  0  0  0
   22.1008   -4.7681  -13.9555 C   0  0  0  0  0  0  0  0  0  0  0  0
   22.8963   -5.2361  -13.1094 O   0  0  0  0  0  0  0  0  0  0  0  0
   22.3011   -3.4638  -14.3768 O   0  0  0  0  0  0  0  0  0  0  0  0
  2  1  1  6
  2  4  1  0
  2  3  1  0
  4  5  1  1
  4  6  1  0
  6  7  2  0
  8  6  1  0
  8 12  1  0
  9  8  1  0
 10  9  1  0
 10 11  1  0
 11 12  1  0
 12 13  1  6
 13 14  2  0
 15 16  1  0
 17 16  1  1
 17 19  1  0
 18 13  1  0
 18 17  1  0
 19 20  2  0
 19 21  1  0
M  END
$$$$
