TPS.pdb
     RDKit          3D

 21 21  0  0  1  0  0  0  0  0999 V2000
   23.7443  -12.3002  -14.8236 C   0  0  0  0  0  0  0  0  0  0  0  0
   23.8003  -12.5677  -16.2878 C   0  0  1  0  0  0  0  0  0  0  0  0
   24.0693  -13.9528  -16.4316 O   0  0  0  0  0  0  0  0  0  0  0  0
   22.5478  -12.3153  -17.0553 C   0  0  2  0  0  0  0  0  0  0  0  0
   22.8442  -12.7361  -18.4300 N   0  0  0  0  0  0  0  0  0  0  0  0
   22.0830  -10.9052  -17.0455 C   0  0  0  0  0  0  0  0  0  0  0  0
   22.8129  -10.0387  -17.6688 O   0  0  0  0  0  0  0  0  0  0  0  0
   20.9305  -10.4036  -16.4350 N   0  0  0  0  0  0  0  0  0  0  0  0
   19.9378  -11.1678  -15.7205 C   0  0  0  0  0  0  0  0  0  0  0  0
   18.6445  -10.3740  -15.9278 C   0  0  0  0  0  0  0  0  0  0  0  0
   19.1297   -8.9609  -15.8660 C   0  0  0  0  0  0  0  0  0  0  0  0
   20.5133   -9.0286  -16.4416 C   0  0  1  0  0  0  0  0  0  0  0  0
   21.4000   -8.1917  -15.5548 C   0  0  0  0  0  0  0  0  0  0  0  0
   21.8411   -8.7242  -14.5108 O   0  0  0  0  0  0  0  0  0  0  0  0
   22.3480   -4.3280  -16.5724 O   0  0  0  0  0  0  0  0  0  0  0  0
   23.3345   -4.9858  -15.8380 C   0  0  0  0  0  0  0  0  0  0  0  0
   22.6440   -6.0618  -15.0344 C   0  0  2  0  0  0  0  0  0  0  0  0
   21.7503   -6.8583  -15.8417 N   0  0  0  0  0  0  0  0  0  0  0  0
   21.8543   -5.3917  -13.9802 C   0  0  0  0  0  0  0  0  0  0  0  0
   22.4466   -4.7208  -13.1045 O   0  0  0  0  0  0  0  0  0  0  0  0
   20.4730   -5.4684  -13.9094 O   0  0  0  0  0  0  0  0  0  0  0  0
  2  1  1  1
  2  4  1  0
  2  3  1  0
  4  5  1  6
  4  6  1  0
  6  7  2  0
  8  6  1  0
  8 12  1  0
  9  8  1  0
 10  9  1  0
 10 11  1  0
 11 12  1  0
 12 13  1  1
 13 14  2  0
 15 16  1  0
 17 16  1  6
 17 19  1  0
 18 13  1  0
 18 17  1  0
 19 20  2  0
 19 21  1  0
M  END
$$$$
