TPS.pdb
     RDKit          3D

 21 21  0  0  1  0  0  0  0  0999 V2000
   41.2926  -11.0443  -10.5037 C   0  0  0  0  0  0  0  0  0  0  0  0
   42.4130  -11.8188   -9.9012 C   0  0  1  0  0  0  0  0  0  0  0  0
   43.4466  -10.8853   -9.6336 O   0  0  0  0  0  0  0  0  0  0  0  0
   42.1286  -12.4933   -8.6028 C   0  0  2  0  0  0  0  0  0  0  0  0
   41.7619  -11.4141   -7.6776 N   0  0  0  0  0  0  0  0  0  0  0  0
   43.2598  -13.2769   -8.0452 C   0  0  0  0  0  0  0  0  0  0  0  0
   43.9353  -12.7365   -7.0841 O   0  0  0  0  0  0  0  0  0  0  0  0
   43.6793  -14.5487   -8.4439 N   0  0  0  0  0  0  0  0  0  0  0  0
   43.0230  -15.4070   -9.3992 C   0  0  0  0  0  0  0  0  0  0  0  0
   43.3836  -16.8200   -8.9314 C   0  0  0  0  0  0  0  0  0  0  0  0
   44.7948  -16.6471   -8.4680 C   0  0  0  0  0  0  0  0  0  0  0  0
   44.8324  -15.2431   -7.9409 C   0  0  1  0  0  0  0  0  0  0  0  0
   46.1048  -14.6158   -8.4511 C   0  0  0  0  0  0  0  0  0  0  0  0
   46.1077  -14.1909   -9.6292 O   0  0  0  0  0  0  0  0  0  0  0  0
   49.2915  -14.1902   -5.9641 O   0  0  0  0  0  0  0  0  0  0  0  0
   49.2586  -13.2290   -6.9742 C   0  0  0  0  0  0  0  0  0  0  0  0
   48.4738  -13.8196   -8.1213 C   0  0  2  0  0  0  0  0  0  0  0  0
   47.2734  -14.4870   -7.6760 N   0  0  0  0  0  0  0  0  0  0  0  0
   49.3422  -14.8106   -8.7904 C   0  0  0  0  0  0  0  0  0  0  0  0
   49.0392  -16.0244   -8.7384 O   0  0  0  0  0  0  0  0  0  0  0  0
   50.4905  -14.4615   -9.4822 O   0  0  0  0  0  0  0  0  0  0  0  0
  2  1  1  1
  2  4  1  0
  2  3  1  0
  4  5  1  1
  4  6  1  0
  6  7  2  0
  8  6  1  0
  8 12  1  0
  9  8  1  0
 10  9  1  0
 10 11  1  0
 11 12  1  0
 12 13  1  6
 13 14  2  0
 15 16  1  0
 17 16  1  1
 17 19  1  0
 18 13  1  0
 18 17  1  0
 19 20  2  0
 19 21  1  0
M  END
$$$$
