TPS.pdb
     RDKit          3D

 21 21  0  0  1  0  0  0  0  0999 V2000
   21.4323  -18.4586  -15.5989 C   0  0  0  0  0  0  0  0  0  0  0  0
   21.0491  -19.4617  -14.5667 C   0  0  1  0  0  0  0  0  0  0  0  0
   20.2162  -20.4074  -15.2173 O   0  0  0  0  0  0  0  0  0  0  0  0
   22.1618  -20.2481  -13.9627 C   0  0  2  0  0  0  0  0  0  0  0  0
   22.7234  -21.0361  -15.0666 N   0  0  0  0  0  0  0  0  0  0  0  0
   21.7598  -21.1468  -12.8513 C   0  0  0  0  0  0  0  0  0  0  0  0
   21.8261  -22.4199  -13.0680 O   0  0  0  0  0  0  0  0  0  0  0  0
   21.3164  -20.7678  -11.5815 N   0  0  0  0  0  0  0  0  0  0  0  0
   21.1963  -19.4198  -11.0830 C   0  0  0  0  0  0  0  0  0  0  0  0
   21.4178  -19.5653   -9.5746 C   0  0  0  0  0  0  0  0  0  0  0  0
   20.7320  -20.8610   -9.2798 C   0  0  0  0  0  0  0  0  0  0  0  0
   20.9301  -21.6670  -10.5293 C   0  0  1  0  0  0  0  0  0  0  0  0
   19.6108  -22.3267  -10.8410 C   0  0  0  0  0  0  0  0  0  0  0  0
   18.8775  -21.7776  -11.6948 O   0  0  0  0  0  0  0  0  0  0  0  0
   18.6019  -25.6411   -8.8474 O   0  0  0  0  0  0  0  0  0  0  0  0
   17.9348  -25.6274  -10.0721 C   0  0  0  0  0  0  0  0  0  0  0  0
   17.9470  -24.2005  -10.5665 C   0  0  2  0  0  0  0  0  0  0  0  0
   19.1708  -23.5144  -10.2256 N   0  0  0  0  0  0  0  0  0  0  0  0
   16.8183  -23.4971   -9.9221 C   0  0  0  0  0  0  0  0  0  0  0  0
   15.6457  -23.8100  -10.2300 O   0  0  0  0  0  0  0  0  0  0  0  0
   16.9927  -22.4951   -8.9816 O   0  0  0  0  0  0  0  0  0  0  0  0
  2  1  1  6
  2  4  1  0
  2  3  1  0
  4  5  1  6
  4  6  1  0
  6  7  2  0
  8  6  1  0
  8 12  1  0
  9  8  1  0
 10  9  1  0
 10 11  1  0
 11 12  1  0
 12 13  1  6
 13 14  2  0
 15 16  1  0
 17 16  1  1
 17 19  1  0
 18 13  1  0
 18 17  1  0
 19 20  2  0
 19 21  1  0
M  END
$$$$
