TPS.pdb
     RDKit          3D

 21 21  0  0  1  0  0  0  0  0999 V2000
   21.8159  -10.6452  -19.7022 C   0  0  0  0  0  0  0  0  0  0  0  0
   20.6416  -11.4298  -19.2293 C   0  0  1  0  0  0  0  0  0  0  0  0
   20.4777  -12.4980  -20.1477 O   0  0  0  0  0  0  0  0  0  0  0  0
   20.7667  -12.0642  -17.8864 C   0  0  2  0  0  0  0  0  0  0  0  0
   19.5037  -12.7828  -17.6780 N   0  0  0  0  0  0  0  0  0  0  0  0
   21.0017  -11.1168  -16.7676 C   0  0  0  0  0  0  0  0  0  0  0  0
   20.0157  -10.3549  -16.4222 O   0  0  0  0  0  0  0  0  0  0  0  0
   22.1807  -10.9564  -16.0349 N   0  0  0  0  0  0  0  0  0  0  0  0
   23.4244  -11.6543  -16.2495 C   0  0  0  0  0  0  0  0  0  0  0  0
   24.0609  -11.7063  -14.8574 C   0  0  0  0  0  0  0  0  0  0  0  0
   23.6862  -10.3742  -14.2906 C   0  0  0  0  0  0  0  0  0  0  0  0
   22.3502  -10.0822  -14.9071 C   0  0  1  0  0  0  0  0  0  0  0  0
   22.3727   -8.6389  -15.3421 C   0  0  0  0  0  0  0  0  0  0  0  0
   22.8378   -8.3843  -16.4766 O   0  0  0  0  0  0  0  0  0  0  0  0
   19.6687   -6.0588  -14.4914 O   0  0  0  0  0  0  0  0  0  0  0  0
   20.6318   -5.6737  -15.4237 C   0  0  0  0  0  0  0  0  0  0  0  0
   21.9612   -6.1872  -14.9241 C   0  0  2  0  0  0  0  0  0  0  0  0
   21.9017   -7.5788  -14.5438 N   0  0  0  0  0  0  0  0  0  0  0  0
   22.3271   -5.3899  -13.7348 C   0  0  0  0  0  0  0  0  0  0  0  0
   22.3752   -5.9476  -12.6148 O   0  0  0  0  0  0  0  0  0  0  0  0
   22.6240   -4.0382  -13.7955 O   0  0  0  0  0  0  0  0  0  0  0  0
  2  1  1  6
  2  4  1  0
  2  3  1  0
  4  5  1  1
  4  6  1  0
  6  7  2  0
  8  6  1  0
  8 12  1  0
  9  8  1  0
 10  9  1  0
 10 11  1  0
 11 12  1  0
 12 13  1  6
 13 14  2  0
 15 16  1  0
 17 16  1  1
 17 19  1  0
 18 13  1  0
 18 17  1  0
 19 20  2  0
 19 21  1  0
M  END
$$$$
