TPS.pdb
     RDKit          3D

 21 21  0  0  1  0  0  0  0  0999 V2000
   15.4559   -7.5419  -13.7736 C   0  0  0  0  0  0  0  0  0  0  0  0
   15.4684   -8.1786  -12.4272 C   0  0  1  0  0  0  0  0  0  0  0  0
   14.1999   -8.7910  -12.2622 O   0  0  0  0  0  0  0  0  0  0  0  0
   16.4722   -9.2599  -12.2155 C   0  0  2  0  0  0  0  0  0  0  0  0
   16.2989   -9.6818  -10.8202 N   0  0  0  0  0  0  0  0  0  0  0  0
   17.8818   -8.8585  -12.4527 C   0  0  0  0  0  0  0  0  0  0  0  0
   18.4412   -8.1106  -11.5584 O   0  0  0  0  0  0  0  0  0  0  0  0
   18.6828   -9.2049  -13.5441 N   0  0  0  0  0  0  0  0  0  0  0  0
   18.3697  -10.1773  -14.5621 C   0  0  0  0  0  0  0  0  0  0  0  0
   19.7398  -10.6982  -15.0057 C   0  0  0  0  0  0  0  0  0  0  0  0
   20.5780   -9.4608  -14.9549 C   0  0  0  0  0  0  0  0  0  0  0  0
   19.9862   -8.6698  -13.8261 C   0  0  1  0  0  0  0  0  0  0  0  0
   19.8925   -7.2394  -14.2932 C   0  0  0  0  0  0  0  0  0  0  0  0
   18.8967   -6.9205  -14.9824 O   0  0  0  0  0  0  0  0  0  0  0  0
   22.1677   -4.3464  -12.6419 O   0  0  0  0  0  0  0  0  0  0  0  0
   21.0436   -3.9032  -13.3385 C   0  0  0  0  0  0  0  0  0  0  0  0
   20.7960   -4.8915  -14.4532 C   0  0  2  0  0  0  0  0  0  0  0  0
   20.8586   -6.2593  -13.9949 N   0  0  0  0  0  0  0  0  0  0  0  0
   21.8488   -4.6876  -15.4701 C   0  0  0  0  0  0  0  0  0  0  0  0
   21.9037   -3.5982  -16.0848 O   0  0  0  0  0  0  0  0  0  0  0  0
   22.7917   -5.6530  -15.7830 O   0  0  0  0  0  0  0  0  0  0  0  0
  2  1  1  6
  2  4  1  0
  2  3  1  0
  4  5  1  1
  4  6  1  0
  6  7  2  0
  8  6  1  0
  8 12  1  0
  9  8  1  0
 10  9  1  0
 10 11  1  0
 11 12  1  0
 12 13  1  6
 13 14  2  0
 15 16  1  0
 17 16  1  1
 17 19  1  0
 18 13  1  0
 18 17  1  0
 19 20  2  0
 19 21  1  0
M  END
$$$$
