TPS.pdb
     RDKit          3D

 21 21  0  0  1  0  0  0  0  0999 V2000
   20.9922  -13.3796  -19.2342 C   0  0  0  0  0  0  0  0  0  0  0  0
   21.3792  -12.2602  -18.3310 C   0  0  1  0  0  0  0  0  0  0  0  0
   20.1960  -11.5185  -18.0833 O   0  0  0  0  0  0  0  0  0  0  0  0
   21.9066  -12.6433  -16.9906 C   0  0  2  0  0  0  0  0  0  0  0  0
   20.8406  -13.4367  -16.3669 N   0  0  0  0  0  0  0  0  0  0  0  0
   22.2692  -11.5020  -16.1129 C   0  0  0  0  0  0  0  0  0  0  0  0
   21.3581  -11.0650  -15.3061 O   0  0  0  0  0  0  0  0  0  0  0  0
   23.4995  -10.8417  -16.0568 N   0  0  0  0  0  0  0  0  0  0  0  0
   24.6788  -11.1611  -16.8229 C   0  0  0  0  0  0  0  0  0  0  0  0
   25.8340  -10.7216  -15.9185 C   0  0  0  0  0  0  0  0  0  0  0  0
   25.2893   -9.4759  -15.2959 C   0  0  0  0  0  0  0  0  0  0  0  0
   23.8160   -9.7383  -15.1925 C   0  0  1  0  0  0  0  0  0  0  0  0
   23.1130   -8.4825  -15.6416 C   0  0  0  0  0  0  0  0  0  0  0  0
   22.8420   -8.3760  -16.8596 O   0  0  0  0  0  0  0  0  0  0  0  0
   21.1761   -6.1645  -13.0036 O   0  0  0  0  0  0  0  0  0  0  0  0
   20.8027   -6.0134  -14.3389 C   0  0  0  0  0  0  0  0  0  0  0  0
   22.0388   -6.2506  -15.1733 C   0  0  2  0  0  0  0  0  0  0  0  0
   22.7522   -7.4387  -14.7680 N   0  0  0  0  0  0  0  0  0  0  0  0
   22.9277   -5.0838  -14.9928 C   0  0  0  0  0  0  0  0  0  0  0  0
   24.0247   -5.2343  -14.4082 O   0  0  0  0  0  0  0  0  0  0  0  0
   22.6057   -3.8140  -15.4432 O   0  0  0  0  0  0  0  0  0  0  0  0
  2  1  1  6
  2  4  1  0
  2  3  1  0
  4  5  1  1
  4  6  1  0
  6  7  2  0
  8  6  1  0
  8 12  1  0
  9  8  1  0
 10  9  1  0
 10 11  1  0
 11 12  1  0
 12 13  1  6
 13 14  2  0
 15 16  1  0
 17 16  1  1
 17 19  1  0
 18 13  1  0
 18 17  1  0
 19 20  2  0
 19 21  1  0
M  END
$$$$
