TPS.pdb
     RDKit          3D

 21 21  0  0  1  0  0  0  0  0999 V2000
   20.0705  -18.9735  -14.9476 C   0  0  0  0  0  0  0  0  0  0  0  0
   19.8704  -19.9363  -13.8290 C   0  0  1  0  0  0  0  0  0  0  0  0
   18.8631  -20.8398  -14.2537 O   0  0  0  0  0  0  0  0  0  0  0  0
   21.0440  -20.7791  -13.4630 C   0  0  2  0  0  0  0  0  0  0  0  0
   21.3095  -21.6081  -14.6451 N   0  0  0  0  0  0  0  0  0  0  0  0
   20.8453  -21.6430  -12.2720 C   0  0  0  0  0  0  0  0  0  0  0  0
   20.7369  -22.9151  -12.4768 O   0  0  0  0  0  0  0  0  0  0  0  0
   20.7651  -21.2321  -10.9388 N   0  0  0  0  0  0  0  0  0  0  0  0
   20.8240  -19.8744  -10.4558 C   0  0  0  0  0  0  0  0  0  0  0  0
   21.4310  -20.0089   -9.0561 C   0  0  0  0  0  0  0  0  0  0  0  0
   20.8063  -21.2749   -8.5630 C   0  0  0  0  0  0  0  0  0  0  0  0
   20.6417  -22.1032   -9.8027 C   0  0  1  0  0  0  0  0  0  0  0  0
   19.2666  -22.7181   -9.7415 C   0  0  0  0  0  0  0  0  0  0  0  0
   18.3208  -22.0703  -10.2456 O   0  0  0  0  0  0  0  0  0  0  0  0
   18.8791  -26.3571   -8.1367 O   0  0  0  0  0  0  0  0  0  0  0  0
   17.8327  -26.1228   -9.0285 C   0  0  0  0  0  0  0  0  0  0  0  0
   17.7144  -24.6258   -9.1881 C   0  0  2  0  0  0  0  0  0  0  0  0
   18.9997  -23.9690   -9.1524 N   0  0  0  0  0  0  0  0  0  0  0  0
   16.8975  -24.1222   -8.0642 C   0  0  0  0  0  0  0  0  0  0  0  0
   17.4337  -23.4006   -7.1926 O   0  0  0  0  0  0  0  0  0  0  0  0
   15.5501  -24.4109   -7.9228 O   0  0  0  0  0  0  0  0  0  0  0  0
  2  1  1  6
  2  4  1  0
  2  3  1  0
  4  5  1  6
  4  6  1  0
  6  7  2  0
  8  6  1  0
  8 12  1  0
  9  8  1  0
 10  9  1  0
 10 11  1  0
 11 12  1  0
 12 13  1  1
 13 14  2  0
 15 16  1  0
 17 16  1  1
 17 19  1  0
 18 13  1  0
 18 17  1  0
 19 20  2  0
 19 21  1  0
M  END
$$$$
