TPS.pdb
     RDKit          3D

 21 21  0  0  1  0  0  0  0  0999 V2000
   18.1939  -11.4356  -18.8553 C   0  0  0  0  0  0  0  0  0  0  0  0
   18.7696  -10.5610  -17.7961 C   0  0  1  0  0  0  0  0  0  0  0  0
   17.9251   -9.4248  -17.7123 O   0  0  0  0  0  0  0  0  0  0  0  0
   18.8194  -11.1325  -16.4204 C   0  0  2  0  0  0  0  0  0  0  0  0
   17.4219  -11.4046  -16.0630 N   0  0  0  0  0  0  0  0  0  0  0  0
   19.4415  -10.2512  -15.4003 C   0  0  0  0  0  0  0  0  0  0  0  0
   18.6453   -9.5478  -14.6632 O   0  0  0  0  0  0  0  0  0  0  0  0
   20.8060  -10.0972  -15.1412 N   0  0  0  0  0  0  0  0  0  0  0  0
   21.8824  -10.8412  -15.7476 C   0  0  0  0  0  0  0  0  0  0  0  0
   22.9709  -10.8556  -14.6703 C   0  0  0  0  0  0  0  0  0  0  0  0
   22.8408   -9.4905  -14.0738 C   0  0  0  0  0  0  0  0  0  0  0  0
   21.3773   -9.1831  -14.1910 C   0  0  1  0  0  0  0  0  0  0  0  0
   21.2642   -7.7602  -14.6763 C   0  0  0  0  0  0  0  0  0  0  0  0
   21.3455   -7.5622  -15.9101 O   0  0  0  0  0  0  0  0  0  0  0  0
   19.6295   -3.3411  -14.1459 O   0  0  0  0  0  0  0  0  0  0  0  0
   19.7269   -4.6213  -13.6010 C   0  0  0  0  0  0  0  0  0  0  0  0
   20.8982   -5.2992  -14.2710 C   0  0  2  0  0  0  0  0  0  0  0  0
   21.0742   -6.6592  -13.8192 N   0  0  0  0  0  0  0  0  0  0  0  0
   22.1124   -4.5292  -13.9292 C   0  0  0  0  0  0  0  0  0  0  0  0
   22.3928   -3.5029  -14.5895 O   0  0  0  0  0  0  0  0  0  0  0  0
   22.9689   -4.8891  -12.9016 O   0  0  0  0  0  0  0  0  0  0  0  0
  2  1  1  6
  2  4  1  0
  2  3  1  0
  4  5  1  1
  4  6  1  0
  6  7  2  0
  8  6  1  0
  8 12  1  0
  9  8  1  0
 10  9  1  0
 10 11  1  0
 11 12  1  0
 12 13  1  6
 13 14  2  0
 15 16  1  0
 17 16  1  1
 17 19  1  0
 18 13  1  0
 18 17  1  0
 19 20  2  0
 19 21  1  0
M  END
$$$$
