TPS.pdb
     RDKit          3D

 21 21  0  0  1  0  0  0  0  0999 V2000
   22.7998  -21.0819  -12.2365 C   0  0  0  0  0  0  0  0  0  0  0  0
   23.3501  -20.6590  -10.9186 C   0  0  1  0  0  0  0  0  0  0  0  0
   22.7372  -21.4876   -9.9444 O   0  0  0  0  0  0  0  0  0  0  0  0
   24.8189  -20.8278  -10.7296 C   0  0  2  0  0  0  0  0  0  0  0  0
   25.0778  -20.4387   -9.3380 N   0  0  0  0  0  0  0  0  0  0  0  0
   25.6633  -20.0219  -11.6471 C   0  0  0  0  0  0  0  0  0  0  0  0
   25.7824  -18.7612  -11.3854 O   0  0  0  0  0  0  0  0  0  0  0  0
   26.3549  -20.4780  -12.7724 N   0  0  0  0  0  0  0  0  0  0  0  0
   26.4393  -21.8427  -13.2312 C   0  0  0  0  0  0  0  0  0  0  0  0
   27.7980  -21.9098  -13.9348 C   0  0  0  0  0  0  0  0  0  0  0  0
   27.8761  -20.5709  -14.5959 C   0  0  0  0  0  0  0  0  0  0  0  0
   27.1377  -19.6617  -13.6588 C   0  0  1  0  0  0  0  0  0  0  0  0
   26.2525  -18.7826  -14.5052 C   0  0  0  0  0  0  0  0  0  0  0  0
   25.1282  -19.2318  -14.8253 O   0  0  0  0  0  0  0  0  0  0  0  0
   25.1045  -14.3813  -16.0284 O   0  0  0  0  0  0  0  0  0  0  0  0
   25.9419  -15.1598  -15.2297 C   0  0  0  0  0  0  0  0  0  0  0  0
   25.7479  -16.5960  -15.6539 C   0  0  2  0  0  0  0  0  0  0  0  0
   26.6254  -17.4983  -14.9462 N   0  0  0  0  0  0  0  0  0  0  0  0
   26.0536  -16.6784  -17.0974 C   0  0  0  0  0  0  0  0  0  0  0  0
   27.2459  -16.7800  -17.4661 O   0  0  0  0  0  0  0  0  0  0  0  0
   25.0756  -16.6487  -18.0780 O   0  0  0  0  0  0  0  0  0  0  0  0
  2  1  1  6
  2  4  1  0
  2  3  1  0
  4  5  1  1
  4  6  1  0
  6  7  2  0
  8  6  1  0
  8 12  1  0
  9  8  1  0
 10  9  1  0
 10 11  1  0
 11 12  1  0
 12 13  1  6
 13 14  2  0
 15 16  1  0
 17 16  1  1
 17 19  1  0
 18 13  1  0
 18 17  1  0
 19 20  2  0
 19 21  1  0
M  END
$$$$
