TPS.pdb
     RDKit          3D

 21 21  0  0  1  0  0  0  0  0999 V2000
   19.6806  -10.3631  -19.0226 C   0  0  0  0  0  0  0  0  0  0  0  0
   18.7772  -11.1344  -18.1240 C   0  0  1  0  0  0  0  0  0  0  0  0
   18.2997  -12.2329  -18.8833 O   0  0  0  0  0  0  0  0  0  0  0  0
   19.4011  -11.7236  -16.9053 C   0  0  2  0  0  0  0  0  0  0  0  0
   18.3222  -12.4589  -16.2344 N   0  0  0  0  0  0  0  0  0  0  0  0
   19.9997  -10.7371  -15.9711 C   0  0  0  0  0  0  0  0  0  0  0  0
   19.1924   -9.9164  -15.3821 O   0  0  0  0  0  0  0  0  0  0  0  0
   21.3523  -10.5961  -15.6498 N   0  0  0  0  0  0  0  0  0  0  0  0
   22.4393  -11.4039  -16.1458 C   0  0  0  0  0  0  0  0  0  0  0  0
   23.4693  -11.3685  -15.0128 C   0  0  0  0  0  0  0  0  0  0  0  0
   23.3437   -9.9632  -14.5176 C   0  0  0  0  0  0  0  0  0  0  0  0
   21.8967   -9.6319  -14.7340 C   0  0  1  0  0  0  0  0  0  0  0  0
   21.8461   -8.2435  -15.3194 C   0  0  0  0  0  0  0  0  0  0  0  0
   21.8924   -8.1401  -16.5665 O   0  0  0  0  0  0  0  0  0  0  0  0
   19.6357   -5.3955  -14.1766 O   0  0  0  0  0  0  0  0  0  0  0  0
   20.3715   -5.2134  -15.3473 C   0  0  0  0  0  0  0  0  0  0  0  0
   21.7632   -5.7353  -15.0807 C   0  0  2  0  0  0  0  0  0  0  0  0
   21.7507   -7.0743  -14.5405 N   0  0  0  0  0  0  0  0  0  0  0  0
   22.3938   -4.8355  -14.0925 C   0  0  0  0  0  0  0  0  0  0  0  0
   22.6459   -5.2671  -12.9445 O   0  0  0  0  0  0  0  0  0  0  0  0
   22.7252   -3.5203  -14.3742 O   0  0  0  0  0  0  0  0  0  0  0  0
  2  1  1  6
  2  4  1  0
  2  3  1  0
  4  5  1  1
  4  6  1  0
  6  7  2  0
  8  6  1  0
  8 12  1  0
  9  8  1  0
 10  9  1  0
 10 11  1  0
 11 12  1  0
 12 13  1  6
 13 14  2  0
 15 16  1  0
 17 16  1  1
 17 19  1  0
 18 13  1  0
 18 17  1  0
 19 20  2  0
 19 21  1  0
M  END
$$$$
