TPS.pdb
     RDKit          3D

 21 21  0  0  1  0  0  0  0  0999 V2000
   17.0212   -9.4004  -16.7264 C   0  0  0  0  0  0  0  0  0  0  0  0
   17.3232  -10.7544  -16.1844 C   0  0  1  0  0  0  0  0  0  0  0  0
   16.2994  -11.6133  -16.6594 O   0  0  0  0  0  0  0  0  0  0  0  0
   18.6071  -11.3717  -16.6228 C   0  0  2  0  0  0  0  0  0  0  0  0
   18.6477  -12.6862  -15.9708 N   0  0  0  0  0  0  0  0  0  0  0  0
   19.8240  -10.5953  -16.2752 C   0  0  0  0  0  0  0  0  0  0  0  0
   20.1355  -10.5153  -15.0227 O   0  0  0  0  0  0  0  0  0  0  0  0
   20.6827   -9.9368  -17.1593 N   0  0  0  0  0  0  0  0  0  0  0  0
   20.6171   -9.9672  -18.5997 C   0  0  0  0  0  0  0  0  0  0  0  0
   22.0724   -9.7766  -19.0373 C   0  0  0  0  0  0  0  0  0  0  0  0
   22.5784   -8.7965  -18.0277 C   0  0  0  0  0  0  0  0  0  0  0  0
   21.8124   -9.1327  -16.7825 C   0  0  1  0  0  0  0  0  0  0  0  0
   21.3664   -7.8272  -16.1746 C   0  0  0  0  0  0  0  0  0  0  0  0
   20.2196   -7.4163  -16.4650 O   0  0  0  0  0  0  0  0  0  0  0  0
   21.6553   -4.5630  -12.7173 O   0  0  0  0  0  0  0  0  0  0  0  0
   22.1518   -5.7631  -13.2256 C   0  0  0  0  0  0  0  0  0  0  0  0
   21.7373   -5.8343  -14.6760 C   0  0  2  0  0  0  0  0  0  0  0  0
   22.1677   -7.0591  -15.3079 N   0  0  0  0  0  0  0  0  0  0  0  0
   22.3702   -4.6967  -15.3755 C   0  0  0  0  0  0  0  0  0  0  0  0
   23.5118   -4.8399  -15.8693 O   0  0  0  0  0  0  0  0  0  0  0  0
   21.7571   -3.4623  -15.5153 O   0  0  0  0  0  0  0  0  0  0  0  0
  2  1  1  6
  2  4  1  0
  2  3  1  0
  4  5  1  1
  4  6  1  0
  6  7  2  0
  8  6  1  0
  8 12  1  0
  9  8  1  0
 10  9  1  0
 10 11  1  0
 11 12  1  0
 12 13  1  6
 13 14  2  0
 15 16  1  0
 17 16  1  1
 17 19  1  0
 18 13  1  0
 18 17  1  0
 19 20  2  0
 19 21  1  0
M  END
$$$$
