SRA.pdb
     RDKit          3D

 23 22  0  0  1  0  0  0  0  0999 V2000
   19.7242  -15.7639   18.7138 O   0  0  0  0  0  0  0  0  0  0  0  0
   19.6153  -17.0662   18.2218 C   0  0  0  0  0  0  0  0  0  0  0  0
   18.4329  -17.1760   17.2567 C   0  0  2  0  0  0  0  0  0  0  0  0
   18.4541  -16.0143   16.4123 N   0  0  0  0  0  0  0  0  0  0  0  0
   17.2094  -17.2448   18.0962 C   0  0  0  0  0  0  0  0  0  0  0  0
   16.5068  -16.2153   18.2648 O   0  0  0  0  0  0  0  0  0  0  0  0
   17.5160  -23.8947   18.7171 N   0  0  0  0  0  0  0  0  0  0  0  0
   17.5817  -23.8591   20.1376 C   0  0  0  0  0  0  0  0  0  0  0  0
   18.4839  -24.5098   20.7864 N   0  0  0  0  0  0  0  0  0  0  0  0
   16.6575  -23.1054   20.9204 N   0  0  0  0  0  0  0  0  0  0  0  0
   15.6930  -22.2728   20.2526 C   0  0  0  0  0  0  0  0  0  0  0  0
   16.1225  -20.8085   20.2737 C   0  0  0  0  0  0  0  0  0  0  0  0
   15.1428  -19.9350   19.5764 C   0  0  0  0  0  0  0  0  0  0  0  0
   15.5006  -18.4951   19.4757 C   0  0  2  0  0  0  0  0  0  0  0  0
   16.7744  -18.4317   18.7354 N   0  0  0  0  0  0  0  0  0  0  0  0
   15.6284  -17.8024   20.7792 C   0  0  0  0  0  0  0  0  0  0  0  0
   16.7687  -17.6910   21.2852 O   0  0  0  0  0  0  0  0  0  0  0  0
   18.4686  -24.4494   21.8261 C   0  0  0  0  0  0  0  0  0  0  0  0
   13.3479  -15.9696   23.2203 C   0  0  1  0  0  0  0  0  0  0  0  0
   14.6490  -16.5279   22.7343 N   0  0  0  0  0  0  0  0  0  0  0  0
   14.5321  -17.2540   21.4942 C   0  0  0  0  0  0  0  0  0  0  0  0
   15.3092  -17.3044   23.7966 O   0  0  0  0  0  0  0  0  0  0  0  0
   15.8714  -16.6585   24.8700 O   0  0  0  0  0  0  0  0  0  0  0  0
  2  1  1  0
  3  5  1  0
  3  2  1  0
  3  4  1  6
  5  6  2  0
  7  8  1  0
  8 10  1  0
  8  9  2  0
 10 11  1  0
 11 12  1  0
 12 13  1  0
 14 13  1  1
 14 15  1  0
 14 16  1  0
 15  5  1  0
 16 20  1  0
 17 16  2  0
 19 18  1  6
 19 21  1  0
 20 19  1  0
 21 23  2  0
 21 22  1  0
M  END
$$$$
