SRA.pdb
     RDKit          3D

 23 22  0  0  1  0  0  0  0  0999 V2000
    1.2263  -20.1965   23.1477 O   0  0  0  0  0  0  0  0  0  0  0  0
    2.6168  -20.0687   23.1596 C   0  0  0  0  0  0  0  0  0  0  0  0
    3.1218  -19.5944   21.7952 C   0  0  2  0  0  0  0  0  0  0  0  0
    3.2075  -20.7462   20.9412 N   0  0  0  0  0  0  0  0  0  0  0  0
    4.4458  -18.9644   22.0323 C   0  0  0  0  0  0  0  0  0  0  0  0
    5.4539  -19.6860   22.2445 O   0  0  0  0  0  0  0  0  0  0  0  0
    8.1524  -12.3514   18.8755 N   0  0  0  0  0  0  0  0  0  0  0  0
    9.2212  -12.8298   19.6832 C   0  0  0  0  0  0  0  0  0  0  0  0
   10.3883  -12.2867   19.6462 N   0  0  0  0  0  0  0  0  0  0  0  0
    9.0628  -13.9318   20.5750 N   0  0  0  0  0  0  0  0  0  0  0  0
    7.8718  -14.7341   20.4890 C   0  0  0  0  0  0  0  0  0  0  0  0
    7.1148  -14.7382   21.8142 C   0  0  0  0  0  0  0  0  0  0  0  0
    5.8740  -15.5528   21.7396 C   0  0  0  0  0  0  0  0  0  0  0  0
    5.9894  -16.9688   22.1791 C   0  0  2  0  0  0  0  0  0  0  0  0
    4.6473  -17.5622   22.0338 N   0  0  0  0  0  0  0  0  0  0  0  0
    6.4808  -17.1422   23.5661 C   0  0  0  0  0  0  0  0  0  0  0  0
    5.7259  -16.8159   24.5106 O   0  0  0  0  0  0  0  0  0  0  0  0
   11.1282  -12.6909   20.2577 C   0  0  0  0  0  0  0  0  0  0  0  0
    7.9357  -19.1437   25.8406 C   0  0  1  0  0  0  0  0  0  0  0  0
    8.2600  -17.8130   25.2366 N   0  0  0  0  0  0  0  0  0  0  0  0
    7.7618  -17.6583   23.8925 C   0  0  0  0  0  0  0  0  0  0  0  0
    9.6993  -17.5272   25.3540 O   0  0  0  0  0  0  0  0  0  0  0  0
   10.3178  -17.6104   26.5771 O   0  0  0  0  0  0  0  0  0  0  0  0
  2  1  1  0
  3  5  1  0
  3  2  1  0
  3  4  1  6
  5  6  2  0
  7  8  1  0
  8 10  1  0
  8  9  2  0
 10 11  1  0
 11 12  1  0
 12 13  1  0
 14 13  1  1
 14 15  1  0
 14 16  1  0
 15  5  1  0
 16 20  1  0
 17 16  2  0
 19 18  1  1
 19 21  1  0
 20 19  1  0
 21 23  2  0
 21 22  1  0
M  END
$$$$
