SRA.pdb
     RDKit          3D

 23 22  0  0  1  0  0  0  0  0999 V2000
    7.0824  -14.5873   18.5175 O   0  0  0  0  0  0  0  0  0  0  0  0
    7.4506  -13.2866   18.8676 C   0  0  0  0  0  0  0  0  0  0  0  0
    8.4343  -13.3065   20.0397 C   0  0  2  0  0  0  0  0  0  0  0  0
    9.4919  -14.2177   19.7016 N   0  0  0  0  0  0  0  0  0  0  0  0
    7.6627  -13.7491   21.2292 C   0  0  0  0  0  0  0  0  0  0  0  0
    6.6910  -13.0624   21.6366 O   0  0  0  0  0  0  0  0  0  0  0  0
    8.0717  -21.3956   25.7778 N   0  0  0  0  0  0  0  0  0  0  0  0
    7.3915  -20.5068   26.6558 C   0  0  0  0  0  0  0  0  0  0  0  0
    6.9683  -20.8926   27.8093 N   0  0  0  0  0  0  0  0  0  0  0  0
    7.1405  -19.1454   26.3114 N   0  0  0  0  0  0  0  0  0  0  0  0
    7.5553  -18.6638   25.0209 C   0  0  0  0  0  0  0  0  0  0  0  0
    7.1951  -17.1916   24.8418 C   0  0  0  0  0  0  0  0  0  0  0  0
    7.5755  -16.6892   23.4957 C   0  0  0  0  0  0  0  0  0  0  0  0
    7.2949  -15.2540   23.2258 C   0  0  2  0  0  0  0  0  0  0  0  0
    7.9633  -14.9298   21.9520 N   0  0  0  0  0  0  0  0  0  0  0  0
    7.7457  -14.3299   24.2927 C   0  0  0  0  0  0  0  0  0  0  0  0
    8.9764  -14.1829   24.4724 O   0  0  0  0  0  0  0  0  0  0  0  0
    6.4571  -20.1978   28.3929 C   0  0  0  0  0  0  0  0  0  0  0  0
    6.2535  -11.6839   26.5428 C   0  0  1  0  0  0  0  0  0  0  0  0
    7.2892  -12.7000   26.1744 N   0  0  0  0  0  0  0  0  0  0  0  0
    6.8639  -13.5967   25.1286 C   0  0  0  0  0  0  0  0  0  0  0  0
    7.7758  -13.4024   27.3732 O   0  0  0  0  0  0  0  0  0  0  0  0
    8.3677  -12.6947   28.3901 O   0  0  0  0  0  0  0  0  0  0  0  0
  2  1  1  0
  3  5  1  0
  3  2  1  0
  3  4  1  6
  5  6  2  0
  7  8  1  0
  8 10  1  0
  8  9  2  0
 10 11  1  0
 11 12  1  0
 12 13  1  0
 14 13  1  1
 14 15  1  0
 14 16  1  0
 15  5  1  0
 16 20  1  0
 17 16  2  0
 19 18  1  6
 19 21  1  0
 20 19  1  0
 21 23  2  0
 21 22  1  0
M  END
$$$$
