SRA.pdb
     RDKit          3D

 23 22  0  0  1  0  0  0  0  0999 V2000
    6.1878  -21.6844   24.8185 O   0  0  0  0  0  0  0  0  0  0  0  0
    5.0628  -20.8968   24.5658 C   0  0  0  0  0  0  0  0  0  0  0  0
    4.9137  -20.6436   23.0640 C   0  0  2  0  0  0  0  0  0  0  0  0
    4.9152  -21.9211   22.4075 N   0  0  0  0  0  0  0  0  0  0  0  0
    6.0675  -19.7985   22.6631 C   0  0  0  0  0  0  0  0  0  0  0  0
    7.0972  -20.3336   22.1779 O   0  0  0  0  0  0  0  0  0  0  0  0
    8.4564  -11.7482   19.8262 N   0  0  0  0  0  0  0  0  0  0  0  0
    8.1412  -12.8840   19.0300 C   0  0  0  0  0  0  0  0  0  0  0  0
    8.5766  -13.0026   17.8238 N   0  0  0  0  0  0  0  0  0  0  0  0
    7.3295  -13.9506   19.5185 N   0  0  0  0  0  0  0  0  0  0  0  0
    7.0222  -14.0075   20.9227 C   0  0  0  0  0  0  0  0  0  0  0  0
    7.6790  -15.2178   21.5806 C   0  0  0  0  0  0  0  0  0  0  0  0
    6.6825  -16.2604   21.9399 C   0  0  0  0  0  0  0  0  0  0  0  0
    7.2309  -17.5745   22.3685 C   0  0  2  0  0  0  0  0  0  0  0  0
    6.0786  -18.3884   22.7977 N   0  0  0  0  0  0  0  0  0  0  0  0
    8.2367  -17.4948   23.4535 C   0  0  0  0  0  0  0  0  0  0  0  0
    7.8831  -17.0270   24.5602 O   0  0  0  0  0  0  0  0  0  0  0  0
    8.3186  -13.8651   17.3002 C   0  0  0  0  0  0  0  0  0  0  0  0
   11.6777  -18.8557   24.1928 C   0  0  1  0  0  0  0  0  0  0  0  0
   10.5659  -17.8692   24.3703 N   0  0  0  0  0  0  0  0  0  0  0  0
    9.5841  -17.9183   23.3156 C   0  0  0  0  0  0  0  0  0  0  0  0
   11.1034  -16.5172   24.5947 O   0  0  0  0  0  0  0  0  0  0  0  0
   11.8912  -16.2653   25.6907 O   0  0  0  0  0  0  0  0  0  0  0  0
  2  1  1  0
  3  5  1  0
  3  2  1  0
  3  4  1  6
  5  6  2  0
  7  8  1  0
  8 10  1  0
  8  9  2  0
 10 11  1  0
 11 12  1  0
 12 13  1  0
 14 13  1  1
 14 15  1  0
 14 16  1  0
 15  5  1  0
 16 20  1  0
 17 16  2  0
 19 18  1  1
 19 21  1  0
 20 19  1  0
 21 23  2  0
 21 22  1  0
M  END
$$$$
