SRA.pdb
     RDKit          3D

 23 22  0  0  1  0  0  0  0  0999 V2000
   -1.9433  -20.2753   23.6971 O   0  0  0  0  0  0  0  0  0  0  0  0
   -2.9429  -20.9523   24.3988 C   0  0  0  0  0  0  0  0  0  0  0  0
   -2.5967  -22.4377   24.5229 C   0  0  2  0  0  0  0  0  0  0  0  0
   -2.6341  -23.0025   23.2028 N   0  0  0  0  0  0  0  0  0  0  0  0
   -3.6160  -23.0336   25.4240 C   0  0  0  0  0  0  0  0  0  0  0  0
   -4.6015  -23.6452   24.9373 O   0  0  0  0  0  0  0  0  0  0  0  0
   -2.0097  -27.2185   32.8426 N   0  0  0  0  0  0  0  0  0  0  0  0
   -3.4086  -27.3946   32.6543 C   0  0  0  0  0  0  0  0  0  0  0  0
   -4.0844  -28.2271   33.3676 N   0  0  0  0  0  0  0  0  0  0  0  0
   -4.1390  -26.6640   31.6706 N   0  0  0  0  0  0  0  0  0  0  0  0
   -3.4255  -25.7935   30.7748 C   0  0  0  0  0  0  0  0  0  0  0  0
   -4.3766  -25.1181   29.7907 C   0  0  0  0  0  0  0  0  0  0  0  0
   -3.6432  -24.3371   28.7605 C   0  0  0  0  0  0  0  0  0  0  0  0
   -4.4736  -23.6948   27.7074 C   0  0  2  0  0  0  0  0  0  0  0  0
   -3.5435  -22.9527   26.8364 N   0  0  0  0  0  0  0  0  0  0  0  0
   -5.5269  -22.7899   28.2241 C   0  0  0  0  0  0  0  0  0  0  0  0
   -5.1877  -21.6599   28.6445 O   0  0  0  0  0  0  0  0  0  0  0  0
   -5.1079  -28.2968   33.1878 C   0  0  0  0  0  0  0  0  0  0  0  0
   -9.3272  -22.7581   28.4390 C   0  0  1  0  0  0  0  0  0  0  0  0
   -7.9507  -22.2220   28.6812 N   0  0  0  0  0  0  0  0  0  0  0  0
   -6.9047  -23.1262   28.2723 C   0  0  0  0  0  0  0  0  0  0  0  0
   -7.8085  -21.7689   30.0746 O   0  0  0  0  0  0  0  0  0  0  0  0
   -8.4578  -20.6351   30.4969 O   0  0  0  0  0  0  0  0  0  0  0  0
  2  1  1  0
  3  5  1  0
  3  2  1  0
  3  4  1  6
  5  6  2  0
  7  8  1  0
  8 10  1  0
  8  9  2  0
 10 11  1  0
 11 12  1  0
 12 13  1  0
 14 13  1  1
 14 15  1  0
 14 16  1  0
 15  5  1  0
 16 20  1  0
 17 16  2  0
 19 18  1  6
 19 21  1  0
 20 19  1  0
 21 23  2  0
 21 22  1  0
M  END
$$$$
