SRA.pdb
     RDKit          3D

 23 22  0  0  1  0  0  0  0  0999 V2000
    8.1322  -18.8225   28.2072 O   0  0  0  0  0  0  0  0  0  0  0  0
    6.8698  -18.8128   27.6105 C   0  0  0  0  0  0  0  0  0  0  0  0
    6.9536  -19.3322   26.1735 C   0  0  2  0  0  0  0  0  0  0  0  0
    7.5668  -20.6304   26.2177 N   0  0  0  0  0  0  0  0  0  0  0  0
    7.7666  -18.3464   25.4163 C   0  0  0  0  0  0  0  0  0  0  0  0
    8.9866  -18.5694   25.2071 O   0  0  0  0  0  0  0  0  0  0  0  0
    6.9128  -13.1854   18.9985 N   0  0  0  0  0  0  0  0  0  0  0  0
    8.0856  -12.8096   19.7104 C   0  0  0  0  0  0  0  0  0  0  0  0
    8.4804  -11.5847   19.7588 N   0  0  0  0  0  0  0  0  0  0  0  0
    8.8871  -13.7619   20.4073 N   0  0  0  0  0  0  0  0  0  0  0  0
    8.2390  -14.7989   21.1648 C   0  0  0  0  0  0  0  0  0  0  0  0
    7.7771  -14.2801   22.5237 C   0  0  0  0  0  0  0  0  0  0  0  0
    7.1520  -15.3523   23.3415 C   0  0  0  0  0  0  0  0  0  0  0  0
    8.0757  -16.1672   24.1745 C   0  0  2  0  0  0  0  0  0  0  0  0
    7.2367  -17.1377   24.9017 N   0  0  0  0  0  0  0  0  0  0  0  0
    8.8967  -15.3826   25.1263 C   0  0  0  0  0  0  0  0  0  0  0  0
    9.7149  -14.5543   24.6648 O   0  0  0  0  0  0  0  0  0  0  0  0
    9.3507  -11.3789   20.2927 C   0  0  0  0  0  0  0  0  0  0  0  0
    8.7190  -13.6423   28.1260 C   0  0  2  0  0  0  0  0  0  0  0  0
    9.5503  -14.7035   27.4752 N   0  0  0  0  0  0  0  0  0  0  0  0
    8.8127  -15.5124   26.5369 C   0  0  0  0  0  0  0  0  0  0  0  0
   10.2605  -15.5003   28.4891 O   0  0  0  0  0  0  0  0  0  0  0  0
   11.0302  -14.8739   29.4382 O   0  0  0  0  0  0  0  0  0  0  0  0
  2  1  1  0
  3  5  1  0
  3  2  1  0
  3  4  1  1
  5  6  2  0
  7  8  1  0
  8 10  1  0
  8  9  2  0
 10 11  1  0
 11 12  1  0
 12 13  1  0
 14 13  1  1
 14 15  1  0
 14 16  1  0
 15  5  1  0
 16 20  1  0
 17 16  2  0
 19 18  1  6
 19 21  1  0
 20 19  1  0
 21 23  2  0
 21 22  1  0
M  END
$$$$
