SRA.pdb
     RDKit          3D

 23 22  0  0  1  0  0  0  0  0999 V2000
   14.1316  -17.4979   17.2139 O   0  0  0  0  0  0  0  0  0  0  0  0
   14.1756  -16.8665   18.4586 C   0  0  0  0  0  0  0  0  0  0  0  0
   13.6234  -15.4431   18.3559 C   0  0  2  0  0  0  0  0  0  0  0  0
   14.7377  -14.5603   18.1506 N   0  0  0  0  0  0  0  0  0  0  0  0
   12.9141  -15.1737   19.6328 C   0  0  0  0  0  0  0  0  0  0  0  0
   13.5351  -14.6586   20.5977 O   0  0  0  0  0  0  0  0  0  0  0  0
    8.2649  -15.0371   16.6692 N   0  0  0  0  0  0  0  0  0  0  0  0
    7.8973  -13.6800   16.8844 C   0  0  0  0  0  0  0  0  0  0  0  0
    7.9726  -12.8046   15.9429 N   0  0  0  0  0  0  0  0  0  0  0  0
    7.4272  -13.2132   18.1478 N   0  0  0  0  0  0  0  0  0  0  0  0
    7.6717  -14.0087   19.3211 C   0  0  0  0  0  0  0  0  0  0  0  0
    9.1653  -14.1019   19.6208 C   0  0  0  0  0  0  0  0  0  0  0  0
    9.4394  -14.9582   20.8042 C   0  0  0  0  0  0  0  0  0  0  0  0
   10.8714  -15.2044   21.1204 C   0  0  2  0  0  0  0  0  0  0  0  0
   11.5436  -15.4697   19.8350 N   0  0  0  0  0  0  0  0  0  0  0  0
   11.1077  -16.3218   22.0643 C   0  0  0  0  0  0  0  0  0  0  0  0
   11.0876  -17.4922   21.6188 O   0  0  0  0  0  0  0  0  0  0  0  0
    7.7431  -11.8173   16.1825 C   0  0  0  0  0  0  0  0  0  0  0  0
   12.0270  -16.7867   25.7249 C   0  0  1  0  0  0  0  0  0  0  0  0
   11.4960  -17.2263   24.3961 N   0  0  0  0  0  0  0  0  0  0  0  0
   11.3568  -16.1469   23.4504 C   0  0  0  0  0  0  0  0  0  0  0  0
   10.2600  -18.0079   24.5645 O   0  0  0  0  0  0  0  0  0  0  0  0
   10.2858  -19.1909   25.2611 O   0  0  0  0  0  0  0  0  0  0  0  0
  2  1  1  0
  3  5  1  0
  3  2  1  0
  3  4  1  1
  5  6  2  0
  7  8  1  0
  8 10  1  0
  8  9  2  0
 10 11  1  0
 11 12  1  0
 12 13  1  0
 14 13  1  6
 14 15  1  0
 14 16  1  0
 15  5  1  0
 16 20  1  0
 17 16  2  0
 19 18  1  6
 19 21  1  0
 20 19  1  0
 21 23  2  0
 21 22  1  0
M  END
$$$$
