SRA.pdb
     RDKit          3D

 23 22  0  0  1  0  0  0  0  0999 V2000
   10.6432  -12.7743   19.0559 O   0  0  0  0  0  0  0  0  0  0  0  0
    9.5980  -12.7699   19.9818 C   0  0  0  0  0  0  0  0  0  0  0  0
    8.5717  -13.8506   19.6349 C   0  0  2  0  0  0  0  0  0  0  0  0
    7.5878  -13.2532   18.7757 N   0  0  0  0  0  0  0  0  0  0  0  0
    7.9945  -14.3121   20.9233 C   0  0  0  0  0  0  0  0  0  0  0  0
    6.9826  -13.7358   21.3985 O   0  0  0  0  0  0  0  0  0  0  0  0
    5.9637  -20.8343   25.6828 N   0  0  0  0  0  0  0  0  0  0  0  0
    5.9516  -20.8772   24.2611 C   0  0  0  0  0  0  0  0  0  0  0  0
    5.0227  -21.4910   23.6138 N   0  0  0  0  0  0  0  0  0  0  0  0
    6.9615  -20.2468   23.4751 N   0  0  0  0  0  0  0  0  0  0  0  0
    8.0226  -19.5382   24.1394 C   0  0  0  0  0  0  0  0  0  0  0  0
    7.7300  -18.0416   24.2007 C   0  0  0  0  0  0  0  0  0  0  0  0
    8.1234  -17.3496   22.9455 C   0  0  0  0  0  0  0  0  0  0  0  0
    7.8823  -15.8829   22.8998 C   0  0  2  0  0  0  0  0  0  0  0  0
    8.5292  -15.3912   21.6693 N   0  0  0  0  0  0  0  0  0  0  0  0
    8.3884  -15.1412   24.0784 C   0  0  0  0  0  0  0  0  0  0  0  0
    9.6273  -15.0498   24.2375 O   0  0  0  0  0  0  0  0  0  0  0  0
    5.1132  -21.5478   22.5778 C   0  0  0  0  0  0  0  0  0  0  0  0
    6.9739  -12.8985   26.7918 C   0  0  1  0  0  0  0  0  0  0  0  0
    8.0298  -13.7548   26.1653 N   0  0  0  0  0  0  0  0  0  0  0  0
    7.5512  -14.5243   25.0439 C   0  0  0  0  0  0  0  0  0  0  0  0
    8.7017  -14.5781   27.1841 O   0  0  0  0  0  0  0  0  0  0  0  0
    9.3940  -13.9757   28.2056 O   0  0  0  0  0  0  0  0  0  0  0  0
  2  1  1  0
  3  5  1  0
  3  2  1  0
  3  4  1  6
  5  6  2  0
  7  8  1  0
  8 10  1  0
  8  9  2  0
 10 11  1  0
 11 12  1  0
 12 13  1  0
 14 13  1  1
 14 15  1  0
 14 16  1  0
 15  5  1  0
 16 20  1  0
 17 16  2  0
 19 18  1  6
 19 21  1  0
 20 19  1  0
 21 23  2  0
 21 22  1  0
M  END
$$$$
