DKI.pdb
     RDKit          3D

 26 25  0  0  1  0  0  0  0  0999 V2000
   27.2642  -21.0859  -15.5239 N   0  0  0  0  0  0  0  0  0  0  0  0
   27.9096  -20.0250  -14.8062 C   0  0  1  0  0  0  0  0  0  0  0  0
   28.1223  -18.8543  -15.7435 C   0  0  0  0  0  0  0  0  0  0  0  0
   28.0057  -19.2477  -17.1694 C   0  0  0  0  0  0  0  0  0  0  0  0
   27.2964  -18.5988  -17.9848 O   0  0  0  0  0  0  0  0  0  0  0  0
   27.1463  -19.6714  -13.5989 C   0  0  0  0  0  0  0  0  0  0  0  0
   27.3845  -18.5701  -13.0114 O   0  0  0  0  0  0  0  0  0  0  0  0
   28.6775  -20.3522  -17.6621 O   0  0  0  0  0  0  0  0  0  0  0  0
   26.1415  -20.4968  -13.0384 N   0  0  0  0  0  0  0  0  0  0  0  0
   25.3757  -20.1681  -11.8529 C   0  0  1  0  0  0  0  0  0  0  0  0
   23.9951  -20.7294  -11.9959 C   0  0  0  0  0  0  0  0  0  0  0  0
   23.1706  -20.1457  -13.0891 C   0  0  0  0  0  0  0  0  0  0  0  0
   21.8616  -20.8648  -13.2034 C   0  0  0  0  0  0  0  0  0  0  0  0
   21.1053  -20.3670  -14.4173 C   0  0  0  0  0  0  0  0  0  0  0  0
   19.8654  -21.1010  -14.5530 N   0  0  0  0  0  0  0  0  0  0  0  0
   25.9968  -20.8111  -10.6503 C   0  0  0  0  0  0  0  0  0  0  0  0
   26.3840  -21.9900  -10.6924 O   0  0  0  0  0  0  0  0  0  0  0  0
   29.2059  -19.6118   -5.6916 C   0  0  0  0  0  0  0  0  0  0  0  0
   28.0731  -20.4880   -6.2445 C   0  0  0  0  0  0  0  0  0  0  0  0
   27.5374  -19.9054   -7.5286 C   0  0  2  0  0  0  0  0  0  0  0  0
   27.1538  -18.4494   -7.3668 C   0  0  0  0  0  0  0  0  0  0  0  0
   26.4317  -20.6799   -8.1534 C   0  0  2  0  0  0  0  0  0  0  0  0
   26.1532  -20.0840   -9.4436 N   0  0  0  0  0  0  0  0  0  0  0  0
   25.2336  -20.8657   -7.3384 C   0  0  0  0  0  0  0  0  0  0  0  0
   25.0966  -21.8259   -6.3380 O   0  0  0  0  0  0  0  0  0  0  0  0
   24.2326  -20.1267   -7.5212 O   0  0  0  0  0  0  0  0  0  0  0  0
  2  1  1  6
  2  3  1  0
  3  4  1  0
  4  8  1  0
  5  4  2  0
  6  7  2  0
  6  2  1  0
  9  6  1  0
 10  9  1  0
 10 11  1  6
 11 12  1  0
 13 12  1  0
 13 14  1  0
 14 15  1  0
 16 10  1  0
 17 16  2  0
 19 18  1  0
 19 20  1  0
 20 22  1  0
 20 21  1  1
 22 24  1  0
 22 23  1  6
 23 16  1  0
 24 25  1  0
 26 24  2  0
M  END
$$$$
