DKI.pdb
     RDKit          3D

 26 25  0  0  1  0  0  0  0  0999 V2000
   17.3240  -11.7959  -16.6011 N   0  0  0  0  0  0  0  0  0  0  0  0
   18.1585  -10.8218  -17.2429 C   0  0  1  0  0  0  0  0  0  0  0  0
   17.3034   -9.6489  -17.6757 C   0  0  0  0  0  0  0  0  0  0  0  0
   16.4858   -9.9614  -18.8738 C   0  0  0  0  0  0  0  0  0  0  0  0
   16.7343  -10.9534  -19.6109 O   0  0  0  0  0  0  0  0  0  0  0  0
   19.2765  -10.4343  -16.3682 C   0  0  0  0  0  0  0  0  0  0  0  0
   19.0337  -10.0376  -15.1855 O   0  0  0  0  0  0  0  0  0  0  0  0
   15.4099   -9.1681  -19.2302 O   0  0  0  0  0  0  0  0  0  0  0  0
   20.6342  -10.4768  -16.7678 N   0  0  0  0  0  0  0  0  0  0  0  0
   21.7455  -10.0373  -15.9483 C   0  0  1  0  0  0  0  0  0  0  0  0
   23.0078  -10.6457  -16.4756 C   0  0  0  0  0  0  0  0  0  0  0  0
   24.2568  -10.2613  -15.7630 C   0  0  0  0  0  0  0  0  0  0  0  0
   25.4563  -10.8272  -16.4592 C   0  0  0  0  0  0  0  0  0  0  0  0
   26.7075  -10.5133  -15.6659 C   0  0  0  0  0  0  0  0  0  0  0  0
   27.8751  -10.9247  -16.4153 N   0  0  0  0  0  0  0  0  0  0  0  0
   21.8928   -8.5492  -16.0448 C   0  0  0  0  0  0  0  0  0  0  0  0
   21.9707   -7.9916  -17.1514 O   0  0  0  0  0  0  0  0  0  0  0  0
   19.6468   -3.7870  -16.4937 C   0  0  0  0  0  0  0  0  0  0  0  0
   20.8554   -4.2457  -15.6657 C   0  0  0  0  0  0  0  0  0  0  0  0
   20.8814   -5.7504  -15.5634 C   0  0  2  0  0  0  0  0  0  0  0  0
   19.5991   -6.2945  -14.9693 C   0  0  0  0  0  0  0  0  0  0  0  0
   22.0698   -6.3094  -14.8646 C   0  0  2  0  0  0  0  0  0  0  0  0
   21.9455   -7.7523  -14.8737 N   0  0  0  0  0  0  0  0  0  0  0  0
   22.3515   -5.7677  -13.5374 C   0  0  0  0  0  0  0  0  0  0  0  0
   22.1721   -6.4630  -12.3432 O   0  0  0  0  0  0  0  0  0  0  0  0
   22.7883   -4.5942  -13.4212 O   0  0  0  0  0  0  0  0  0  0  0  0
  2  1  1  1
  2  3  1  0
  3  4  1  0
  4  8  1  0
  5  4  2  0
  6  7  2  0
  6  2  1  0
  9  6  1  0
 10  9  1  0
 10 11  1  6
 11 12  1  0
 13 12  1  0
 13 14  1  0
 14 15  1  0
 16 10  1  0
 17 16  2  0
 19 18  1  0
 19 20  1  0
 20 22  1  0
 20 21  1  1
 22 24  1  0
 22 23  1  1
 23 16  1  0
 24 25  1  0
 26 24  2  0
M  END
$$$$
