DKI.pdb
     RDKit          3D

 26 25  0  0  1  0  0  0  0  0999 V2000
   16.6351  -10.4834  -15.7606 N   0  0  0  0  0  0  0  0  0  0  0  0
   17.3150   -9.5006  -16.5538 C   0  0  1  0  0  0  0  0  0  0  0  0
   16.3788   -8.3367  -16.8052 C   0  0  0  0  0  0  0  0  0  0  0  0
   15.1632   -8.7446  -17.5518 C   0  0  0  0  0  0  0  0  0  0  0  0
   15.2286   -9.4062  -18.6228 O   0  0  0  0  0  0  0  0  0  0  0  0
   18.5808   -9.1014  -15.9184 C   0  0  0  0  0  0  0  0  0  0  0  0
   18.5937   -8.8168  -14.6800 O   0  0  0  0  0  0  0  0  0  0  0  0
   13.9004   -8.4108  -17.0961 O   0  0  0  0  0  0  0  0  0  0  0  0
   19.8115   -9.0129  -16.6130 N   0  0  0  0  0  0  0  0  0  0  0  0
   21.0711   -8.6319  -16.0064 C   0  0  1  0  0  0  0  0  0  0  0  0
   22.1932   -9.1546  -16.8486 C   0  0  0  0  0  0  0  0  0  0  0  0
   22.3388  -10.6356  -16.8837 C   0  0  0  0  0  0  0  0  0  0  0  0
   23.4685  -11.0329  -17.7834 C   0  0  0  0  0  0  0  0  0  0  0  0
   23.5630  -12.5427  -17.8547 C   0  0  0  0  0  0  0  0  0  0  0  0
   23.9918  -13.0645  -16.5748 N   0  0  0  0  0  0  0  0  0  0  0  0
   21.1922   -7.1386  -15.9781 C   0  0  0  0  0  0  0  0  0  0  0  0
   21.1118   -6.4774  -17.0259 O   0  0  0  0  0  0  0  0  0  0  0  0
   17.7067   -4.1349  -14.8178 C   0  0  0  0  0  0  0  0  0  0  0  0
   19.0703   -4.6197  -15.3301 C   0  0  0  0  0  0  0  0  0  0  0  0
   20.1015   -4.5432  -14.2319 C   0  0  2  0  0  0  0  0  0  0  0  0
   20.1627   -3.1613  -13.6152 C   0  0  0  0  0  0  0  0  0  0  0  0
   21.4594   -5.0146  -14.6149 C   0  0  2  0  0  0  0  0  0  0  0  0
   21.4006   -6.4550  -14.7539 N   0  0  0  0  0  0  0  0  0  0  0  0
   22.5609   -4.5662  -13.7666 C   0  0  0  0  0  0  0  0  0  0  0  0
   23.3695   -3.4634  -14.0345 O   0  0  0  0  0  0  0  0  0  0  0  0
   22.8312   -5.1927  -12.7101 O   0  0  0  0  0  0  0  0  0  0  0  0
  2  1  1  1
  2  3  1  0
  3  4  1  0
  4  8  1  0
  5  4  2  0
  6  7  2  0
  6  2  1  0
  9  6  1  0
 10  9  1  0
 10 11  1  6
 11 12  1  0
 13 12  1  0
 13 14  1  0
 14 15  1  0
 16 10  1  0
 17 16  2  0
 19 18  1  0
 19 20  1  0
 20 22  1  0
 20 21  1  6
 22 24  1  0
 22 23  1  1
 23 16  1  0
 24 25  1  0
 26 24  2  0
M  END
$$$$
