DKI.pdb
     RDKit          3D

 26 25  0  0  1  0  0  0  0  0999 V2000
   26.0053  -21.5150  -15.3507 N   0  0  0  0  0  0  0  0  0  0  0  0
   25.2333  -20.3454  -15.0452 C   0  0  1  0  0  0  0  0  0  0  0  0
   25.7913  -19.1703  -15.8210 C   0  0  0  0  0  0  0  0  0  0  0  0
   27.2167  -18.9113  -15.5006 C   0  0  0  0  0  0  0  0  0  0  0  0
   27.6739  -19.0485  -14.3339 O   0  0  0  0  0  0  0  0  0  0  0  0
   23.8034  -20.5826  -15.2985 C   0  0  0  0  0  0  0  0  0  0  0  0
   23.4010  -20.7467  -16.4926 O   0  0  0  0  0  0  0  0  0  0  0  0
   28.1059  -18.5055  -16.4797 O   0  0  0  0  0  0  0  0  0  0  0  0
   22.8264  -20.6419  -14.2752 N   0  0  0  0  0  0  0  0  0  0  0  0
   21.4336  -20.9799  -14.4883 C   0  0  1  0  0  0  0  0  0  0  0  0
   20.8941  -21.6204  -13.2472 C   0  0  0  0  0  0  0  0  0  0  0  0
   19.4554  -21.9997  -13.2892 C   0  0  0  0  0  0  0  0  0  0  0  0
   19.2923  -23.3909  -13.8200 C   0  0  0  0  0  0  0  0  0  0  0  0
   17.8212  -23.7400  -13.9053 C   0  0  0  0  0  0  0  0  0  0  0  0
   17.6677  -25.0704  -14.4538 N   0  0  0  0  0  0  0  0  0  0  0  0
   20.6377  -19.7334  -14.7296 C   0  0  0  0  0  0  0  0  0  0  0  0
   20.7385  -18.7605  -13.9648 O   0  0  0  0  0  0  0  0  0  0  0  0
   18.6623  -18.3719  -19.9409 C   0  0  0  0  0  0  0  0  0  0  0  0
   18.5845  -19.0266  -18.5546 C   0  0  0  0  0  0  0  0  0  0  0  0
   19.1075  -18.0848  -17.4987 C   0  0  2  0  0  0  0  0  0  0  0  0
   20.5661  -17.7450  -17.7231 C   0  0  0  0  0  0  0  0  0  0  0  0
   18.8740  -18.5248  -16.0970 C   0  0  2  0  0  0  0  0  0  0  0  0
   19.7558  -19.6435  -15.8358 N   0  0  0  0  0  0  0  0  0  0  0  0
   17.4861  -18.7919  -15.7276 C   0  0  0  0  0  0  0  0  0  0  0  0
   16.9851  -20.0453  -15.3819 O   0  0  0  0  0  0  0  0  0  0  0  0
   16.6524  -17.8506  -15.7079 O   0  0  0  0  0  0  0  0  0  0  0  0
  2  1  1  6
  2  3  1  0
  3  4  1  0
  4  8  1  0
  5  4  2  0
  6  7  2  0
  6  2  1  0
  9  6  1  0
 10  9  1  0
 10 11  1  1
 11 12  1  0
 13 12  1  0
 13 14  1  0
 14 15  1  0
 16 10  1  0
 17 16  2  0
 19 18  1  0
 19 20  1  0
 20 22  1  0
 20 21  1  6
 22 24  1  0
 22 23  1  6
 23 16  1  0
 24 25  1  0
 26 24  2  0
M  END
$$$$
