DKI.pdb
     RDKit          3D

 26 25  0  0  1  0  0  0  0  0999 V2000
   15.2216  -10.4922  -15.1349 N   0  0  0  0  0  0  0  0  0  0  0  0
   16.1218  -10.3970  -14.0224 C   0  0  1  0  0  0  0  0  0  0  0  0
   17.2530  -11.3851  -14.2179 C   0  0  0  0  0  0  0  0  0  0  0  0
   16.7920  -12.7925  -14.1257 C   0  0  0  0  0  0  0  0  0  0  0  0
   15.9591  -13.1661  -13.2565 O   0  0  0  0  0  0  0  0  0  0  0  0
   16.5847   -9.0120  -13.8422 C   0  0  0  0  0  0  0  0  0  0  0  0
   17.0102   -8.3615  -14.8475 O   0  0  0  0  0  0  0  0  0  0  0  0
   17.2638  -13.7564  -14.9987 O   0  0  0  0  0  0  0  0  0  0  0  0
   16.5858   -8.3431  -12.5942 N   0  0  0  0  0  0  0  0  0  0  0  0
   17.1122   -7.0105  -12.3772 C   0  0  1  0  0  0  0  0  0  0  0  0
   16.4100   -6.3960  -11.2064 C   0  0  0  0  0  0  0  0  0  0  0  0
   16.7665   -4.9817  -10.9090 C   0  0  0  0  0  0  0  0  0  0  0  0
   16.0326   -4.4970   -9.6965 C   0  0  0  0  0  0  0  0  0  0  0  0
   16.4289   -3.0673   -9.3925 C   0  0  0  0  0  0  0  0  0  0  0  0
   15.7941   -2.6367   -8.1653 N   0  0  0  0  0  0  0  0  0  0  0  0
   18.5688   -7.0874  -12.0343 C   0  0  0  0  0  0  0  0  0  0  0  0
   18.9398   -7.5786  -10.9560 O   0  0  0  0  0  0  0  0  0  0  0  0
   23.1580   -9.5449  -14.3209 C   0  0  0  0  0  0  0  0  0  0  0  0
   22.8505   -8.3087  -13.4643 C   0  0  0  0  0  0  0  0  0  0  0  0
   21.4000   -7.9194  -13.6054 C   0  0  2  0  0  0  0  0  0  0  0  0
   21.0155   -7.7040  -15.0543 C   0  0  0  0  0  0  0  0  0  0  0  0
   20.9774   -6.7660  -12.7664 C   0  0  2  0  0  0  0  0  0  0  0  0
   19.5486   -6.6007  -12.9356 N   0  0  0  0  0  0  0  0  0  0  0  0
   21.7233   -5.5240  -12.9547 C   0  0  0  0  0  0  0  0  0  0  0  0
   22.9607   -5.2473  -12.3769 O   0  0  0  0  0  0  0  0  0  0  0  0
   21.2495   -4.6147  -13.6828 O   0  0  0  0  0  0  0  0  0  0  0  0
  2  1  1  6
  2  3  1  0
  3  4  1  0
  4  8  1  0
  5  4  2  0
  6  7  2  0
  6  2  1  0
  9  6  1  0
 10  9  1  0
 10 11  1  1
 11 12  1  0
 13 12  1  0
 13 14  1  0
 14 15  1  0
 16 10  1  0
 17 16  2  0
 19 18  1  0
 19 20  1  0
 20 22  1  0
 20 21  1  6
 22 24  1  0
 22 23  1  6
 23 16  1  0
 24 25  1  0
 26 24  2  0
M  END
$$$$
