DKI.pdb
     RDKit          3D

 26 25  0  0  1  0  0  0  0  0999 V2000
   21.8077  -11.7878  -20.2009 N   0  0  0  0  0  0  0  0  0  0  0  0
   22.1662  -11.4634  -18.8505 C   0  0  1  0  0  0  0  0  0  0  0  0
   23.6431  -11.1314  -18.7990 C   0  0  0  0  0  0  0  0  0  0  0  0
   24.4928  -12.2909  -19.1665 C   0  0  0  0  0  0  0  0  0  0  0  0
   25.4047  -12.2020  -20.0323 O   0  0  0  0  0  0  0  0  0  0  0  0
   21.3101  -10.3871  -18.3271 C   0  0  0  0  0  0  0  0  0  0  0  0
   21.2476   -9.2817  -18.9508 O   0  0  0  0  0  0  0  0  0  0  0  0
   24.3143  -13.5248  -18.5669 O   0  0  0  0  0  0  0  0  0  0  0  0
   20.5343  -10.5071  -17.1487 N   0  0  0  0  0  0  0  0  0  0  0  0
   19.6381   -9.4844  -16.6479 C   0  0  1  0  0  0  0  0  0  0  0  0
   18.5028  -10.1438  -15.9284 C   0  0  0  0  0  0  0  0  0  0  0  0
   17.4635   -9.2275  -15.3845 C   0  0  0  0  0  0  0  0  0  0  0  0
   16.3146  -10.0076  -14.8231 C   0  0  0  0  0  0  0  0  0  0  0  0
   15.2651   -9.0600  -14.2809 C   0  0  0  0  0  0  0  0  0  0  0  0
   14.0852   -9.8066  -13.9006 N   0  0  0  0  0  0  0  0  0  0  0  0
   20.3545   -8.6205  -15.6550 C   0  0  0  0  0  0  0  0  0  0  0  0
   20.9323   -9.1247  -14.6786 O   0  0  0  0  0  0  0  0  0  0  0  0
   24.5041   -6.3619  -16.8670 C   0  0  0  0  0  0  0  0  0  0  0  0
   23.2759   -6.9515  -16.1595 C   0  0  0  0  0  0  0  0  0  0  0  0
   22.3248   -5.8528  -15.7551 C   0  0  2  0  0  0  0  0  0  0  0  0
   23.0416   -4.7241  -15.0438 C   0  0  0  0  0  0  0  0  0  0  0  0
   21.1414   -6.3054  -14.9755 C   0  0  2  0  0  0  0  0  0  0  0  0
   20.3848   -7.2122  -15.8137 N   0  0  0  0  0  0  0  0  0  0  0  0
   20.3191   -5.2535  -14.3826 C   0  0  0  0  0  0  0  0  0  0  0  0
   20.4074   -4.8305  -13.0578 O   0  0  0  0  0  0  0  0  0  0  0  0
   19.4584   -4.6629  -15.0840 O   0  0  0  0  0  0  0  0  0  0  0  0
  2  1  1  6
  2  3  1  0
  3  4  1  0
  4  8  1  0
  5  4  2  0
  6  7  2  0
  6  2  1  0
  9  6  1  0
 10  9  1  0
 10 11  1  1
 11 12  1  0
 13 12  1  0
 13 14  1  0
 14 15  1  0
 16 10  1  0
 17 16  2  0
 19 18  1  0
 19 20  1  0
 20 22  1  0
 20 21  1  1
 22 24  1  0
 22 23  1  6
 23 16  1  0
 24 25  1  0
 26 24  2  0
M  END
$$$$
