DKI.pdb
     RDKit          3D

 26 25  0  0  1  0  0  0  0  0999 V2000
   26.1976  -19.8199  -16.0537 N   0  0  0  0  0  0  0  0  0  0  0  0
   27.1921  -19.7197  -15.0250 C   0  0  1  0  0  0  0  0  0  0  0  0
   28.2263  -18.6929  -15.4378 C   0  0  0  0  0  0  0  0  0  0  0  0
   28.9401  -19.0820  -16.6790 C   0  0  0  0  0  0  0  0  0  0  0  0
   29.9319  -18.4338  -17.1093 O   0  0  0  0  0  0  0  0  0  0  0  0
   26.5700  -19.4273  -13.7239 C   0  0  0  0  0  0  0  0  0  0  0  0
   26.4452  -18.2191  -13.3505 O   0  0  0  0  0  0  0  0  0  0  0  0
   28.5400  -20.1813  -17.4175 O   0  0  0  0  0  0  0  0  0  0  0  0
   26.0907  -20.4270  -12.8432 N   0  0  0  0  0  0  0  0  0  0  0  0
   25.2096  -20.1780  -11.7200 C   0  0  1  0  0  0  0  0  0  0  0  0
   23.8687  -20.7761  -12.0130 C   0  0  0  0  0  0  0  0  0  0  0  0
   23.0565  -20.0687  -13.0404 C   0  0  0  0  0  0  0  0  0  0  0  0
   21.7093  -20.7085  -13.1794 C   0  0  0  0  0  0  0  0  0  0  0  0
   20.9509  -20.0677  -14.3229 C   0  0  0  0  0  0  0  0  0  0  0  0
   19.6499  -20.6882  -14.4524 N   0  0  0  0  0  0  0  0  0  0  0  0
   25.7425  -20.8553  -10.4942 C   0  0  0  0  0  0  0  0  0  0  0  0
   26.0357  -22.0616  -10.5149 O   0  0  0  0  0  0  0  0  0  0  0  0
   28.6005  -19.2923   -5.3263 C   0  0  0  0  0  0  0  0  0  0  0  0
   27.6752  -20.3285   -5.9794 C   0  0  0  0  0  0  0  0  0  0  0  0
   27.0998  -19.7839   -7.2631 C   0  0  2  0  0  0  0  0  0  0  0  0
   26.4052  -18.4556   -7.0473 C   0  0  0  0  0  0  0  0  0  0  0  0
   26.2219  -20.7281   -8.0052 C   0  0  2  0  0  0  0  0  0  0  0  0
   25.9211  -20.1300   -9.2894 N   0  0  0  0  0  0  0  0  0  0  0  0
   25.0315  -21.1934   -7.2978 C   0  0  0  0  0  0  0  0  0  0  0  0
   25.0360  -22.1434   -6.2784 O   0  0  0  0  0  0  0  0  0  0  0  0
   23.9029  -20.7282   -7.6002 O   0  0  0  0  0  0  0  0  0  0  0  0
  2  1  1  6
  2  3  1  0
  3  4  1  0
  4  8  1  0
  5  4  2  0
  6  7  2  0
  6  2  1  0
  9  6  1  0
 10  9  1  0
 10 11  1  6
 11 12  1  0
 13 12  1  0
 13 14  1  0
 14 15  1  0
 16 10  1  0
 17 16  2  0
 19 18  1  0
 19 20  1  0
 20 22  1  0
 20 21  1  1
 22 24  1  0
 22 23  1  6
 23 16  1  0
 24 25  1  0
 26 24  2  0
M  END
$$$$
