DKI.pdb
     RDKit          3D

 26 25  0  0  1  0  0  0  0  0999 V2000
   17.9167  -14.8813  -17.9718 N   0  0  0  0  0  0  0  0  0  0  0  0
   17.5519  -14.0569  -16.8563 C   0  0  1  0  0  0  0  0  0  0  0  0
   17.8908  -14.7863  -15.5729 C   0  0  0  0  0  0  0  0  0  0  0  0
   17.0296  -15.9753  -15.3580 C   0  0  0  0  0  0  0  0  0  0  0  0
   15.8406  -16.0218  -15.7740 O   0  0  0  0  0  0  0  0  0  0  0  0
   18.1851  -12.7324  -16.9566 C   0  0  0  0  0  0  0  0  0  0  0  0
   19.3550  -12.6365  -17.4434 O   0  0  0  0  0  0  0  0  0  0  0  0
   17.5040  -17.0880  -14.6866 O   0  0  0  0  0  0  0  0  0  0  0  0
   17.5609  -11.5326  -16.5374 N   0  0  0  0  0  0  0  0  0  0  0  0
   18.1669  -10.2190  -16.6213 C   0  0  1  0  0  0  0  0  0  0  0  0
   17.0974   -9.1810  -16.4788 C   0  0  0  0  0  0  0  0  0  0  0  0
   17.5455   -7.7685  -16.6186 C   0  0  0  0  0  0  0  0  0  0  0  0
   16.3856   -6.8312  -16.4778 C   0  0  0  0  0  0  0  0  0  0  0  0
   16.8486   -5.4045  -16.6860 C   0  0  0  0  0  0  0  0  0  0  0  0
   15.7016   -4.5238  -16.7426 N   0  0  0  0  0  0  0  0  0  0  0  0
   19.1285  -10.0279  -15.4882 C   0  0  0  0  0  0  0  0  0  0  0  0
   18.8459  -10.4224  -14.3453 O   0  0  0  0  0  0  0  0  0  0  0  0
   23.6317  -12.2113  -15.4388 C   0  0  0  0  0  0  0  0  0  0  0  0
   22.3249  -11.4711  -15.1210 C   0  0  0  0  0  0  0  0  0  0  0  0
   22.5715   -9.9858  -15.0289 C   0  0  2  0  0  0  0  0  0  0  0  0
   23.7330   -9.6659  -14.1113 C   0  0  0  0  0  0  0  0  0  0  0  0
   21.3760   -9.1740  -14.6755 C   0  0  2  0  0  0  0  0  0  0  0  0
   20.3779   -9.3933  -15.7017 N   0  0  0  0  0  0  0  0  0  0  0  0
   21.6151   -7.7588  -14.4029 C   0  0  0  0  0  0  0  0  0  0  0  0
   21.3679   -6.7253  -15.3043 O   0  0  0  0  0  0  0  0  0  0  0  0
   22.0762   -7.4064  -13.2873 O   0  0  0  0  0  0  0  0  0  0  0  0
  2  1  1  6
  2  3  1  0
  3  4  1  0
  4  8  1  0
  5  4  2  0
  6  7  2  0
  6  2  1  0
  9  6  1  0
 10  9  1  0
 10 11  1  1
 11 12  1  0
 13 12  1  0
 13 14  1  0
 14 15  1  0
 16 10  1  0
 17 16  2  0
 19 18  1  0
 19 20  1  0
 20 22  1  0
 20 21  1  1
 22 24  1  0
 22 23  1  6
 23 16  1  0
 24 25  1  0
 26 24  2  0
M  END
$$$$
