DKI.pdb
     RDKit          3D

 26 25  0  0  1  0  0  0  0  0999 V2000
   22.6596  -11.2951  -21.1698 N   0  0  0  0  0  0  0  0  0  0  0  0
   23.0601  -11.0239  -19.8195 C   0  0  1  0  0  0  0  0  0  0  0  0
   24.4794  -10.4950  -19.8233 C   0  0  0  0  0  0  0  0  0  0  0  0
   25.4561  -11.5101  -20.2895 C   0  0  0  0  0  0  0  0  0  0  0  0
   25.4186  -12.7050  -19.8896 O   0  0  0  0  0  0  0  0  0  0  0  0
   22.1042  -10.1179  -19.1633 C   0  0  0  0  0  0  0  0  0  0  0  0
   21.7089   -9.0781  -19.7776 O   0  0  0  0  0  0  0  0  0  0  0  0
   26.4539  -11.1800  -21.1891 O   0  0  0  0  0  0  0  0  0  0  0  0
   21.5850  -10.3355  -17.8641 N   0  0  0  0  0  0  0  0  0  0  0  0
   20.6213   -9.4733  -17.2099 C   0  0  1  0  0  0  0  0  0  0  0  0
   19.6585  -10.3202  -16.4370 C   0  0  0  0  0  0  0  0  0  0  0  0
   18.5301   -9.5926  -15.7942 C   0  0  0  0  0  0  0  0  0  0  0  0
   17.5346  -10.5582  -15.2283 C   0  0  0  0  0  0  0  0  0  0  0  0
   16.3701   -9.8017  -14.6242 C   0  0  0  0  0  0  0  0  0  0  0  0
   15.3018  -10.7251  -14.3071 N   0  0  0  0  0  0  0  0  0  0  0  0
   21.3189   -8.5814  -16.2286 C   0  0  0  0  0  0  0  0  0  0  0  0
   22.0936   -9.0557  -15.3821 O   0  0  0  0  0  0  0  0  0  0  0  0
   24.4137   -3.6794  -16.9175 C   0  0  0  0  0  0  0  0  0  0  0  0
   23.6199   -4.4206  -15.8326 C   0  0  0  0  0  0  0  0  0  0  0  0
   22.6901   -5.4298  -16.4590 C   0  0  2  0  0  0  0  0  0  0  0  0
   21.8081   -4.7993  -17.5162 C   0  0  0  0  0  0  0  0  0  0  0  0
   21.8799   -6.2183  -15.4922 C   0  0  2  0  0  0  0  0  0  0  0  0
   21.1064   -7.1800  -16.2500 N   0  0  0  0  0  0  0  0  0  0  0  0
   21.0712   -5.4487  -14.5499 C   0  0  0  0  0  0  0  0  0  0  0  0
   21.5411   -4.9209  -13.3490 O   0  0  0  0  0  0  0  0  0  0  0  0
   19.8601   -5.2244  -14.8036 O   0  0  0  0  0  0  0  0  0  0  0  0
  2  1  1  6
  2  3  1  0
  3  4  1  0
  4  8  1  0
  5  4  2  0
  6  7  2  0
  6  2  1  0
  9  6  1  0
 10  9  1  0
 10 11  1  1
 11 12  1  0
 13 12  1  0
 13 14  1  0
 14 15  1  0
 16 10  1  0
 17 16  2  0
 19 18  1  0
 19 20  1  0
 20 22  1  0
 20 21  1  6
 22 24  1  0
 22 23  1  6
 23 16  1  0
 24 25  1  0
 26 24  2  0
M  END
$$$$
