DKI.pdb
     RDKit          3D

 26 25  0  0  1  0  0  0  0  0999 V2000
   25.7278  -19.3564  -16.3407 N   0  0  0  0  0  0  0  0  0  0  0  0
   26.6039  -19.8020  -15.2961 C   0  0  1  0  0  0  0  0  0  0  0  0
   27.9548  -19.1394  -15.4700 C   0  0  0  0  0  0  0  0  0  0  0  0
   28.6110  -19.5268  -16.7432 C   0  0  0  0  0  0  0  0  0  0  0  0
   28.9442  -18.6731  -17.6088 O   0  0  0  0  0  0  0  0  0  0  0  0
   26.0047  -19.5615  -13.9739 C   0  0  0  0  0  0  0  0  0  0  0  0
   25.8264  -18.3670  -13.5786 O   0  0  0  0  0  0  0  0  0  0  0  0
   28.8841  -20.8522  -17.0307 O   0  0  0  0  0  0  0  0  0  0  0  0
   25.6048  -20.5976  -13.0955 N   0  0  0  0  0  0  0  0  0  0  0  0
   24.9472  -20.3861  -11.8217 C   0  0  1  0  0  0  0  0  0  0  0  0
   23.6532  -21.1390  -11.8126 C   0  0  0  0  0  0  0  0  0  0  0  0
   22.6045  -20.6321  -12.7394 C   0  0  0  0  0  0  0  0  0  0  0  0
   21.3596  -21.4578  -12.6288 C   0  0  0  0  0  0  0  0  0  0  0  0
   20.2934  -20.9076  -13.5528 C   0  0  0  0  0  0  0  0  0  0  0  0
   19.0809  -21.6854  -13.4146 N   0  0  0  0  0  0  0  0  0  0  0  0
   25.7924  -20.9374  -10.7140 C   0  0  0  0  0  0  0  0  0  0  0  0
   26.2649  -22.0831  -10.7890 O   0  0  0  0  0  0  0  0  0  0  0  0
   29.4557  -19.2979   -6.1846 C   0  0  0  0  0  0  0  0  0  0  0  0
   28.3835  -20.3093   -6.6135 C   0  0  0  0  0  0  0  0  0  0  0  0
   27.6359  -19.8019   -7.8214 C   0  0  2  0  0  0  0  0  0  0  0  0
   27.1275  -18.3906   -7.6143 C   0  0  0  0  0  0  0  0  0  0  0  0
   26.5470  -20.6936   -8.3032 C   0  0  2  0  0  0  0  0  0  0  0  0
   26.0672  -20.1598   -9.5610 N   0  0  0  0  0  0  0  0  0  0  0  0
   25.4729  -20.9714   -7.3527 C   0  0  0  0  0  0  0  0  0  0  0  0
   25.5515  -21.9007   -6.3174 O   0  0  0  0  0  0  0  0  0  0  0  0
   24.3839  -20.3487   -7.4408 O   0  0  0  0  0  0  0  0  0  0  0  0
  2  1  1  6
  2  3  1  0
  3  4  1  0
  4  8  1  0
  5  4  2  0
  6  7  2  0
  6  2  1  0
  9  6  1  0
 10  9  1  0
 10 11  1  6
 11 12  1  0
 13 12  1  0
 13 14  1  0
 14 15  1  0
 16 10  1  0
 17 16  2  0
 19 18  1  0
 19 20  1  0
 20 22  1  0
 20 21  1  1
 22 24  1  0
 22 23  1  6
 23 16  1  0
 24 25  1  0
 26 24  2  0
M  END
$$$$
