DKI.pdb
     RDKit          3D

 26 25  0  0  1  0  0  0  0  0999 V2000
   27.7279  -24.1319  -16.4753 N   0  0  0  0  0  0  0  0  0  0  0  0
   26.3439  -24.3086  -16.8081 C   0  0  1  0  0  0  0  0  0  0  0  0
   25.9232  -23.2118  -17.7641 C   0  0  0  0  0  0  0  0  0  0  0  0
   25.9585  -21.8703  -17.1309 C   0  0  0  0  0  0  0  0  0  0  0  0
   26.9952  -21.4251  -16.5687 O   0  0  0  0  0  0  0  0  0  0  0  0
   26.1018  -25.6617  -17.3333 C   0  0  0  0  0  0  0  0  0  0  0  0
   25.9572  -25.8276  -18.5849 O   0  0  0  0  0  0  0  0  0  0  0  0
   24.8443  -21.0504  -17.1338 O   0  0  0  0  0  0  0  0  0  0  0  0
   26.0186  -26.8152  -16.5163 N   0  0  0  0  0  0  0  0  0  0  0  0
   25.8772  -28.1676  -17.0171 C   0  0  1  0  0  0  0  0  0  0  0  0
   27.0485  -28.9798  -16.5589 C   0  0  0  0  0  0  0  0  0  0  0  0
   27.0227  -30.4198  -16.9348 C   0  0  0  0  0  0  0  0  0  0  0  0
   28.2521  -31.1164  -16.4378 C   0  0  0  0  0  0  0  0  0  0  0  0
   28.2207  -32.5730  -16.8508 C   0  0  0  0  0  0  0  0  0  0  0  0
   29.3276  -33.2764  -16.2390 N   0  0  0  0  0  0  0  0  0  0  0  0
   24.6449  -28.7976  -16.4429 C   0  0  0  0  0  0  0  0  0  0  0  0
   24.4334  -28.7736  -15.2196 O   0  0  0  0  0  0  0  0  0  0  0  0
   18.9083  -29.4723  -18.1192 C   0  0  0  0  0  0  0  0  0  0  0  0
   20.0020  -30.0960  -17.2409 C   0  0  0  0  0  0  0  0  0  0  0  0
   21.3553  -29.5467  -17.6178 C   0  0  2  0  0  0  0  0  0  0  0  0
   21.6204  -29.6786  -19.1030 C   0  0  0  0  0  0  0  0  0  0  0  0
   22.4925  -30.0867  -16.8252 C   0  0  2  0  0  0  0  0  0  0  0  0
   23.6989  -29.4320  -17.2867 N   0  0  0  0  0  0  0  0  0  0  0  0
   22.6130  -31.5419  -16.7791 C   0  0  0  0  0  0  0  0  0  0  0  0
   22.0157  -32.3567  -15.8194 O   0  0  0  0  0  0  0  0  0  0  0  0
   23.2954  -32.1404  -17.6496 O   0  0  0  0  0  0  0  0  0  0  0  0
  2  1  1  6
  2  3  1  0
  3  4  1  0
  4  8  1  0
  5  4  2  0
  6  7  2  0
  6  2  1  0
  9  6  1  0
 10  9  1  0
 10 11  1  1
 11 12  1  0
 13 12  1  0
 13 14  1  0
 14 15  1  0
 16 10  1  0
 17 16  2  0
 19 18  1  0
 19 20  1  0
 20 22  1  0
 20 21  1  6
 22 24  1  0
 22 23  1  6
 23 16  1  0
 24 25  1  0
 26 24  2  0
M  END
$$$$
