DKI.pdb
     RDKit          3D

 26 25  0  0  1  0  0  0  0  0999 V2000
   29.5391  -20.2790  -19.1756 N   0  0  0  0  0  0  0  0  0  0  0  0
   28.8877  -21.1871  -18.2765 C   0  0  1  0  0  0  0  0  0  0  0  0
   29.9328  -22.0656  -17.6206 C   0  0  0  0  0  0  0  0  0  0  0  0
   30.5072  -23.0559  -18.5646 C   0  0  0  0  0  0  0  0  0  0  0  0
   31.7297  -23.3627  -18.5476 O   0  0  0  0  0  0  0  0  0  0  0  0
   28.0532  -20.4562  -17.3098 C   0  0  0  0  0  0  0  0  0  0  0  0
   28.5996  -19.6271  -16.5167 O   0  0  0  0  0  0  0  0  0  0  0  0
   29.7148  -23.6854  -19.5078 O   0  0  0  0  0  0  0  0  0  0  0  0
   26.6507  -20.6203  -17.2049 N   0  0  0  0  0  0  0  0  0  0  0  0
   25.8108  -19.9193  -16.2546 C   0  0  1  0  0  0  0  0  0  0  0  0
   24.5687  -19.4587  -16.9522 C   0  0  0  0  0  0  0  0  0  0  0  0
   23.5610  -18.7775  -16.0942 C   0  0  0  0  0  0  0  0  0  0  0  0
   22.3228  -18.4694  -16.8788 C   0  0  0  0  0  0  0  0  0  0  0  0
   21.4020  -17.5874  -16.0618 C   0  0  0  0  0  0  0  0  0  0  0  0
   20.2606  -17.2008  -16.8632 N   0  0  0  0  0  0  0  0  0  0  0  0
   25.3888  -20.8531  -15.1614 C   0  0  0  0  0  0  0  0  0  0  0  0
   24.9783  -21.9943  -15.4275 O   0  0  0  0  0  0  0  0  0  0  0  0
   26.5895  -21.5019   -9.1950 C   0  0  0  0  0  0  0  0  0  0  0  0
   25.6153  -21.8573  -10.3269 C   0  0  0  0  0  0  0  0  0  0  0  0
   25.9013  -21.0197  -11.5484 C   0  0  2  0  0  0  0  0  0  0  0  0
   26.0047  -19.5478  -11.2076 C   0  0  0  0  0  0  0  0  0  0  0  0
   24.9700  -21.2370  -12.6879 C   0  0  2  0  0  0  0  0  0  0  0  0
   25.4512  -20.4495  -13.8040 N   0  0  0  0  0  0  0  0  0  0  0  0
   23.5511  -21.0283  -12.4100 C   0  0  0  0  0  0  0  0  0  0  0  0
   22.6788  -22.0156  -11.9561 O   0  0  0  0  0  0  0  0  0  0  0  0
   23.0417  -19.8911  -12.5797 O   0  0  0  0  0  0  0  0  0  0  0  0
  2  1  1  6
  2  3  1  0
  3  4  1  0
  4  8  1  0
  5  4  2  0
  6  7  2  0
  6  2  1  0
  9  6  1  0
 10  9  1  0
 10 11  1  6
 11 12  1  0
 13 12  1  0
 13 14  1  0
 14 15  1  0
 16 10  1  0
 17 16  2  0
 19 18  1  0
 19 20  1  0
 20 22  1  0
 20 21  1  1
 22 24  1  0
 22 23  1  6
 23 16  1  0
 24 25  1  0
 26 24  2  0
M  END
$$$$
