KNQ.pdb
     RDKit          3D

 27 26  0  0  1  0  0  0  0  0999 V2000
   10.8633  -17.7584   18.1496 N   0  0  0  0  0  0  0  0  0  0  0  0
   11.4248  -19.0105   18.5605 C   0  0  1  0  0  0  0  0  0  0  0  0
   11.4197  -20.0261   17.4187 C   0  0  0  0  0  0  0  0  0  0  0  0
   11.8829  -21.3812   17.8001 C   0  0  0  0  0  0  0  0  0  0  0  0
   11.9370  -22.4040   16.7161 C   0  0  0  0  0  0  0  0  0  0  0  0
   12.4064  -23.7030   17.3901 C   0  0  0  0  0  0  0  0  0  0  0  0
   12.3411  -24.7647   16.4236 N   0  0  0  0  0  0  0  0  0  0  0  0
   12.9035  -18.8545   18.8440 C   0  0  0  0  0  0  0  0  0  0  0  0
   13.4612  -19.8316   19.3915 O   0  0  0  0  0  0  0  0  0  0  0  0
   17.7860  -17.6308   18.6460 N   0  0  0  0  0  0  0  0  0  0  0  0
   17.1365  -16.9073   17.6105 C   0  0  0  0  0  0  0  0  0  0  0  0
   17.7794  -16.3434   16.6834 O   0  0  0  0  0  0  0  0  0  0  0  0
   15.6589  -16.8526   17.6827 C   0  0  0  0  0  0  0  0  0  0  0  0
   15.0732  -17.5289   18.8588 C   0  0  2  0  0  0  0  0  0  0  0  0
   13.6413  -17.7194   18.5337 N   0  0  0  0  0  0  0  0  0  0  0  0
   15.2248  -16.9168   20.1664 C   0  0  0  0  0  0  0  0  0  0  0  0
   16.2685  -16.1933   20.3588 O   0  0  0  0  0  0  0  0  0  0  0  0
   10.2468  -17.2624   24.4266 N   0  0  0  0  0  0  0  0  0  0  0  0
   10.9148  -16.4377   23.4866 C   0  0  0  0  0  0  0  0  0  0  0  0
   10.3626  -15.4067   23.0759 O   0  0  0  0  0  0  0  0  0  0  0  0
   12.2754  -16.8755   23.0397 C   0  0  0  0  0  0  0  0  0  0  0  0
   13.2577  -15.7401   22.9964 C   0  0  0  0  0  0  0  0  0  0  0  0
   14.5791  -16.2378   22.4959 C   0  0  2  0  0  0  0  0  0  0  0  0
   14.3543  -17.0158   21.2747 N   0  0  0  0  0  0  0  0  0  0  0  0
   15.2653  -17.0802   23.5202 C   0  0  0  0  0  0  0  0  0  0  0  0
   15.6598  -16.6031   24.6022 O   0  0  0  0  0  0  0  0  0  0  0  0
   15.4620  -18.4136   23.2519 O   0  0  0  0  0  0  0  0  0  0  0  0
  2  1  1  6
  2  8  1  0
  3  2  1  0
  4  3  1  0
  4  5  1  0
  5  6  1  0
  7  6  1  0
  8  9  2  0
  8 15  1  0
 10 11  1  0
 11 12  2  0
 13 11  1  0
 14 13  1  6
 14 16  1  0
 15 14  1  0
 16 17  2  0
 19 21  1  0
 19 18  1  0
 20 19  2  0
 22 21  1  0
 23 22  1  1
 24 16  1  0
 24 23  1  0
 25 23  1  0
 25 27  1  0
 26 25  2  0
M  END
$$$$
