KNQ.pdb
     RDKit          3D

 27 26  0  0  1  0  0  0  0  0999 V2000
    6.0888  -17.0336   21.7269 N   0  0  0  0  0  0  0  0  0  0  0  0
    7.3210  -16.3094   21.6323 C   0  0  1  0  0  0  0  0  0  0  0  0
    7.1413  -14.8469   22.0371 C   0  0  0  0  0  0  0  0  0  0  0  0
    7.2133  -13.8850   20.9119 C   0  0  0  0  0  0  0  0  0  0  0  0
    8.5643  -13.6187   20.3393 C   0  0  0  0  0  0  0  0  0  0  0  0
    8.3461  -12.6000   19.2094 C   0  0  0  0  0  0  0  0  0  0  0  0
    9.6149  -12.3299   18.5909 N   0  0  0  0  0  0  0  0  0  0  0  0
    8.3046  -16.8100   22.6683 C   0  0  0  0  0  0  0  0  0  0  0  0
    7.8291  -17.0569   23.7990 O   0  0  0  0  0  0  0  0  0  0  0  0
   11.3779  -20.2428   22.0355 N   0  0  0  0  0  0  0  0  0  0  0  0
   11.5594  -18.9037   21.5983 C   0  0  0  0  0  0  0  0  0  0  0  0
   11.5006  -18.5838   20.3797 O   0  0  0  0  0  0  0  0  0  0  0  0
   11.8229  -17.9033   22.6573 C   0  0  0  0  0  0  0  0  0  0  0  0
   10.6315  -17.4952   23.4305 C   0  0  2  0  0  0  0  0  0  0  0  0
    9.6592  -17.0021   22.4287 N   0  0  0  0  0  0  0  0  0  0  0  0
   10.7904  -16.5340   24.5068 C   0  0  0  0  0  0  0  0  0  0  0  0
   10.9351  -15.3012   24.1766 O   0  0  0  0  0  0  0  0  0  0  0  0
    7.2300  -13.4939   25.6614 N   0  0  0  0  0  0  0  0  0  0  0  0
    7.7117  -13.2285   26.9681 C   0  0  0  0  0  0  0  0  0  0  0  0
    7.3481  -12.2002   27.5571 O   0  0  0  0  0  0  0  0  0  0  0  0
    8.6504  -14.2303   27.5663 C   0  0  0  0  0  0  0  0  0  0  0  0
    9.0391  -15.3052   26.5919 C   0  0  0  0  0  0  0  0  0  0  0  0
   10.4438  -15.7478   26.8660 C   0  0  2  0  0  0  0  0  0  0  0  0
   10.8052  -16.7856   25.8968 N   0  0  0  0  0  0  0  0  0  0  0  0
   10.5857  -16.2740   28.2562 C   0  0  0  0  0  0  0  0  0  0  0  0
   10.4952  -17.4916   28.5074 O   0  0  0  0  0  0  0  0  0  0  0  0
   10.8210  -15.3838   29.2765 O   0  0  0  0  0  0  0  0  0  0  0  0
  2  1  1  1
  2  8  1  0
  3  2  1  0
  4  3  1  0
  4  5  1  0
  5  6  1  0
  7  6  1  0
  8  9  2  0
  8 15  1  0
 10 11  1  0
 11 12  2  0
 13 11  1  0
 14 13  1  6
 14 16  1  0
 15 14  1  0
 16 17  2  0
 19 21  1  0
 19 18  1  0
 20 19  2  0
 22 21  1  0
 23 22  1  6
 24 16  1  0
 24 23  1  0
 25 23  1  0
 25 27  1  0
 26 25  2  0
M  END
$$$$
