KNQ.pdb
     RDKit          3D

 27 26  0  0  1  0  0  0  0  0999 V2000
    9.3839  -16.2694   16.1732 N   0  0  0  0  0  0  0  0  0  0  0  0
    9.8854  -14.9288   16.2297 C   0  0  1  0  0  0  0  0  0  0  0  0
    8.9653  -13.9571   15.4919 C   0  0  0  0  0  0  0  0  0  0  0  0
    8.5328  -14.4187   14.1516 C   0  0  0  0  0  0  0  0  0  0  0  0
    7.5466  -13.5631   13.4309 C   0  0  0  0  0  0  0  0  0  0  0  0
    7.2648  -14.2796   12.1008 C   0  0  0  0  0  0  0  0  0  0  0  0
    6.2811  -13.5221   11.3770 N   0  0  0  0  0  0  0  0  0  0  0  0
    9.8296  -14.4073   17.6496 C   0  0  0  0  0  0  0  0  0  0  0  0
   10.3441  -13.2826   17.8394 O   0  0  0  0  0  0  0  0  0  0  0  0
    6.3424  -12.7289   19.7316 N   0  0  0  0  0  0  0  0  0  0  0  0
    7.2616  -13.2036   20.7048 C   0  0  0  0  0  0  0  0  0  0  0  0
    7.6032  -12.5065   21.6988 O   0  0  0  0  0  0  0  0  0  0  0  0
    7.7972  -14.5660   20.4844 C   0  0  0  0  0  0  0  0  0  0  0  0
    9.2261  -14.6142   20.1109 C   0  0  2  0  0  0  0  0  0  0  0  0
    9.2533  -15.0941   18.7104 N   0  0  0  0  0  0  0  0  0  0  0  0
   10.1398  -15.3852   20.9346 C   0  0  0  0  0  0  0  0  0  0  0  0
   10.1769  -15.1078   22.1881 O   0  0  0  0  0  0  0  0  0  0  0  0
   15.1169  -13.5659   17.7491 N   0  0  0  0  0  0  0  0  0  0  0  0
   14.8519  -14.8086   18.3779 C   0  0  0  0  0  0  0  0  0  0  0  0
   15.1065  -15.8637   17.7792 O   0  0  0  0  0  0  0  0  0  0  0  0
   14.2679  -14.7656   19.7561 C   0  0  0  0  0  0  0  0  0  0  0  0
   12.7826  -14.9882   19.7568 C   0  0  0  0  0  0  0  0  0  0  0  0
   12.4626  -16.2407   20.5140 C   0  0  2  0  0  0  0  0  0  0  0  0
   11.0085  -16.4217   20.5264 N   0  0  0  0  0  0  0  0  0  0  0  0
   12.9824  -16.1774   21.9123 C   0  0  0  0  0  0  0  0  0  0  0  0
   14.2043  -16.1308   22.1548 O   0  0  0  0  0  0  0  0  0  0  0  0
   12.0815  -16.1718   22.9502 O   0  0  0  0  0  0  0  0  0  0  0  0
  2  1  1  1
  2  8  1  0
  3  2  1  0
  4  3  1  0
  4  5  1  0
  5  6  1  0
  7  6  1  0
  8  9  2  0
  8 15  1  0
 10 11  1  0
 11 12  2  0
 13 11  1  0
 14 13  1  1
 14 16  1  0
 15 14  1  0
 16 17  2  0
 19 21  1  0
 19 18  1  0
 20 19  2  0
 22 21  1  0
 23 22  1  1
 24 16  1  0
 24 23  1  0
 25 23  1  0
 25 27  1  0
 26 25  2  0
M  END
$$$$
