KNQ.pdb
     RDKit          3D

 27 26  0  0  1  0  0  0  0  0999 V2000
    6.2652  -15.7336   19.9948 N   0  0  0  0  0  0  0  0  0  0  0  0
    7.4076  -15.0617   20.5383 C   0  0  1  0  0  0  0  0  0  0  0  0
    7.2583  -13.5437   20.4465 C   0  0  0  0  0  0  0  0  0  0  0  0
    7.2710  -13.0078   19.0648 C   0  0  0  0  0  0  0  0  0  0  0  0
    8.4126  -13.4144   18.1956 C   0  0  0  0  0  0  0  0  0  0  0  0
    8.1447  -12.7715   16.8257 C   0  0  0  0  0  0  0  0  0  0  0  0
    9.0841  -13.3096   15.8805 N   0  0  0  0  0  0  0  0  0  0  0  0
    7.4860  -15.2861   22.0332 C   0  0  0  0  0  0  0  0  0  0  0  0
    6.4649  -14.9766   22.6868 O   0  0  0  0  0  0  0  0  0  0  0  0
    6.4190  -17.5992   26.2394 N   0  0  0  0  0  0  0  0  0  0  0  0
    7.3107  -18.1489   25.2802 C   0  0  0  0  0  0  0  0  0  0  0  0
    7.9297  -19.2288   25.4836 O   0  0  0  0  0  0  0  0  0  0  0  0
    7.4726  -17.3795   24.0258 C   0  0  0  0  0  0  0  0  0  0  0  0
    8.5779  -16.3988   24.0419 C   0  0  2  0  0  0  0  0  0  0  0  0
    8.5976  -15.8022   22.6869 N   0  0  0  0  0  0  0  0  0  0  0  0
    9.9052  -16.8455   24.4245 C   0  0  0  0  0  0  0  0  0  0  0  0
   10.2685  -18.0125   24.0299 O   0  0  0  0  0  0  0  0  0  0  0  0
    8.8444  -13.2373   28.6528 N   0  0  0  0  0  0  0  0  0  0  0  0
    9.8002  -14.2421   28.9475 C   0  0  0  0  0  0  0  0  0  0  0  0
    9.9117  -14.6584   30.1098 O   0  0  0  0  0  0  0  0  0  0  0  0
   10.6327  -14.7471   27.8098 C   0  0  0  0  0  0  0  0  0  0  0  0
   10.4257  -16.2125   27.5539 C   0  0  0  0  0  0  0  0  0  0  0  0
   11.3523  -16.6689   26.4687 C   0  0  2  0  0  0  0  0  0  0  0  0
   10.8667  -16.1472   25.1884 N   0  0  0  0  0  0  0  0  0  0  0  0
   11.4345  -18.1589   26.4161 C   0  0  0  0  0  0  0  0  0  0  0  0
   10.7099  -18.8278   25.6536 O   0  0  0  0  0  0  0  0  0  0  0  0
   12.3351  -18.7981   27.2343 O   0  0  0  0  0  0  0  0  0  0  0  0
  2  1  1  1
  2  8  1  0
  3  2  1  0
  4  3  1  0
  4  5  1  0
  5  6  1  0
  7  6  1  0
  8  9  2  0
  8 15  1  0
 10 11  1  0
 11 12  2  0
 13 11  1  0
 14 13  1  6
 14 16  1  0
 15 14  1  0
 16 17  2  0
 19 21  1  0
 19 18  1  0
 20 19  2  0
 22 21  1  0
 23 22  1  1
 24 16  1  0
 24 23  1  0
 25 23  1  0
 25 27  1  0
 26 25  2  0
M  END
$$$$
