KNQ.pdb
     RDKit          3D

 27 26  0  0  1  0  0  0  0  0999 V2000
    9.4789  -12.8277   20.3188 N   0  0  0  0  0  0  0  0  0  0  0  0
    8.3134  -13.5589   20.7170 C   0  0  1  0  0  0  0  0  0  0  0  0
    7.5672  -14.1213   19.5079 C   0  0  0  0  0  0  0  0  0  0  0  0
    7.9118  -13.4761   18.2190 C   0  0  0  0  0  0  0  0  0  0  0  0
    7.1557  -13.9289   17.0160 C   0  0  0  0  0  0  0  0  0  0  0  0
    8.1761  -14.6650   16.1335 C   0  0  0  0  0  0  0  0  0  0  0  0
    7.6138  -15.9305   15.7490 N   0  0  0  0  0  0  0  0  0  0  0  0
    8.7113  -14.8158   21.4609 C   0  0  0  0  0  0  0  0  0  0  0  0
    7.7702  -15.5493   21.8374 O   0  0  0  0  0  0  0  0  0  0  0  0
   12.8157  -18.9449   21.8400 N   0  0  0  0  0  0  0  0  0  0  0  0
   12.4429  -17.8531   22.6684 C   0  0  0  0  0  0  0  0  0  0  0  0
   12.6503  -17.8559   23.9125 O   0  0  0  0  0  0  0  0  0  0  0  0
   11.7952  -16.7099   21.9864 C   0  0  0  0  0  0  0  0  0  0  0  0
   10.4282  -16.4046   22.4574 C   0  0  2  0  0  0  0  0  0  0  0  0
   10.0243  -15.1785   21.7322 N   0  0  0  0  0  0  0  0  0  0  0  0
   10.1949  -16.2574   23.8827 C   0  0  0  0  0  0  0  0  0  0  0  0
   10.6607  -17.1745   24.6518 O   0  0  0  0  0  0  0  0  0  0  0  0
    7.4208  -11.5921   26.9961 N   0  0  0  0  0  0  0  0  0  0  0  0
    6.6466  -12.5697   26.3217 C   0  0  0  0  0  0  0  0  0  0  0  0
    5.4584  -12.3343   26.0583 O   0  0  0  0  0  0  0  0  0  0  0  0
    7.3296  -13.8532   25.9630 C   0  0  0  0  0  0  0  0  0  0  0  0
    8.7644  -13.8826   26.4060 C   0  0  0  0  0  0  0  0  0  0  0  0
    9.3877  -15.1843   26.0042 C   0  0  2  0  0  0  0  0  0  0  0  0
    9.5094  -15.2143   24.5443 N   0  0  0  0  0  0  0  0  0  0  0  0
    8.5729  -16.3441   26.4738 C   0  0  0  0  0  0  0  0  0  0  0  0
    7.9475  -17.0701   25.6765 O   0  0  0  0  0  0  0  0  0  0  0  0
    8.5178  -16.6076   27.8216 O   0  0  0  0  0  0  0  0  0  0  0  0
  2  1  1  6
  2  8  1  0
  3  2  1  0
  4  3  1  0
  4  5  1  0
  5  6  1  0
  7  6  1  0
  8  9  2  0
  8 15  1  0
 10 11  1  0
 11 12  2  0
 13 11  1  0
 14 13  1  1
 14 16  1  0
 15 14  1  0
 16 17  2  0
 19 21  1  0
 19 18  1  0
 20 19  2  0
 22 21  1  0
 23 22  1  6
 24 16  1  0
 24 23  1  0
 25 23  1  0
 25 27  1  0
 26 25  2  0
M  END
$$$$
