KNQ.pdb
     RDKit          3D

 27 26  0  0  1  0  0  0  0  0999 V2000
    9.6746  -15.5835   13.5458 N   0  0  0  0  0  0  0  0  0  0  0  0
    8.9176  -16.0956   14.6487 C   0  0  1  0  0  0  0  0  0  0  0  0
    9.2901  -17.5454   14.9561 C   0  0  0  0  0  0  0  0  0  0  0  0
    8.6914  -18.5415   14.0365 C   0  0  0  0  0  0  0  0  0  0  0  0
    9.0411  -19.9718   14.2731 C   0  0  0  0  0  0  0  0  0  0  0  0
    8.3040  -20.7680   13.1847 C   0  0  0  0  0  0  0  0  0  0  0  0
    8.6112  -22.1615   13.3555 N   0  0  0  0  0  0  0  0  0  0  0  0
    9.3085  -15.3864   15.9275 C   0  0  0  0  0  0  0  0  0  0  0  0
   10.5118  -15.0575   16.0243 O   0  0  0  0  0  0  0  0  0  0  0  0
    7.4655  -11.8957   20.2035 N   0  0  0  0  0  0  0  0  0  0  0  0
    7.6024  -13.3068   20.1166 C   0  0  0  0  0  0  0  0  0  0  0  0
    7.7982  -14.0240   21.1354 O   0  0  0  0  0  0  0  0  0  0  0  0
    7.5023  -13.8882   18.7588 C   0  0  0  0  0  0  0  0  0  0  0  0
    8.7832  -14.3627   18.1950 C   0  0  2  0  0  0  0  0  0  0  0  0
    8.4247  -15.0937   16.9583 N   0  0  0  0  0  0  0  0  0  0  0  0
    9.6610  -15.1646   19.0280 C   0  0  0  0  0  0  0  0  0  0  0  0
    9.3728  -16.4096   19.1567 O   0  0  0  0  0  0  0  0  0  0  0  0
   15.4885  -15.7515   19.1132 N   0  0  0  0  0  0  0  0  0  0  0  0
   14.8298  -14.4966   19.0808 C   0  0  0  0  0  0  0  0  0  0  0  0
   15.4009  -13.5186   18.5767 O   0  0  0  0  0  0  0  0  0  0  0  0
   13.4552  -14.4316   19.6713 C   0  0  0  0  0  0  0  0  0  0  0  0
   12.9535  -15.7789   20.1060 C   0  0  0  0  0  0  0  0  0  0  0  0
   11.5484  -15.6531   20.6102 C   0  0  2  0  0  0  0  0  0  0  0  0
   10.8138  -14.7431   19.7273 N   0  0  0  0  0  0  0  0  0  0  0  0
   11.5186  -15.1407   22.0124 C   0  0  0  0  0  0  0  0  0  0  0  0
   10.9782  -14.0551   22.3012 O   0  0  0  0  0  0  0  0  0  0  0  0
   12.1059  -15.8933   23.0012 O   0  0  0  0  0  0  0  0  0  0  0  0
  2  1  1  6
  2  8  1  0
  3  2  1  0
  4  3  1  0
  4  5  1  0
  5  6  1  0
  7  6  1  0
  8  9  2  0
  8 15  1  0
 10 11  1  0
 11 12  2  0
 13 11  1  0
 14 13  1  1
 14 16  1  0
 15 14  1  0
 16 17  2  0
 19 21  1  0
 19 18  1  0
 20 19  2  0
 22 21  1  0
 23 22  1  6
 24 16  1  0
 24 23  1  0
 25 23  1  0
 25 27  1  0
 26 25  2  0
M  END
$$$$
