KNQ.pdb
     RDKit          3D

 27 26  0  0  1  0  0  0  0  0999 V2000
    8.3399  -17.7630   18.3185 N   0  0  0  0  0  0  0  0  0  0  0  0
    9.5054  -16.9606   18.0962 C   0  0  1  0  0  0  0  0  0  0  0  0
    9.3000  -15.5291   18.5899 C   0  0  0  0  0  0  0  0  0  0  0  0
    8.1192  -14.8441   18.0131 C   0  0  0  0  0  0  0  0  0  0  0  0
    7.9082  -13.4209   18.4056 C   0  0  0  0  0  0  0  0  0  0  0  0
    6.6871  -12.9428   17.6043 C   0  0  0  0  0  0  0  0  0  0  0  0
    6.4517  -11.5602   17.9178 N   0  0  0  0  0  0  0  0  0  0  0  0
   10.6463  -17.4396   18.9681 C   0  0  0  0  0  0  0  0  0  0  0  0
   10.3189  -17.9889   20.0436 O   0  0  0  0  0  0  0  0  0  0  0  0
   15.1619  -20.1266   17.9193 N   0  0  0  0  0  0  0  0  0  0  0  0
   14.2512  -19.0837   17.6026 C   0  0  0  0  0  0  0  0  0  0  0  0
   13.4800  -19.1483   16.6067 O   0  0  0  0  0  0  0  0  0  0  0  0
   14.2597  -17.9142   18.5102 C   0  0  0  0  0  0  0  0  0  0  0  0
   13.1119  -17.8452   19.4383 C   0  0  2  0  0  0  0  0  0  0  0  0
   11.9889  -17.3037   18.6396 N   0  0  0  0  0  0  0  0  0  0  0  0
   13.2590  -17.1088   20.6808 C   0  0  0  0  0  0  0  0  0  0  0  0
   13.4920  -15.8488   20.5926 O   0  0  0  0  0  0  0  0  0  0  0  0
    9.9619  -16.2210   25.6535 N   0  0  0  0  0  0  0  0  0  0  0  0
    9.7503  -15.8816   24.2934 C   0  0  0  0  0  0  0  0  0  0  0  0
    8.7229  -15.2691   23.9683 O   0  0  0  0  0  0  0  0  0  0  0  0
   10.8056  -16.2948   23.3146 C   0  0  0  0  0  0  0  0  0  0  0  0
   11.9834  -16.9456   23.9817 C   0  0  0  0  0  0  0  0  0  0  0  0
   13.2154  -16.7175   23.1605 C   0  0  2  0  0  0  0  0  0  0  0  0
   13.1757  -17.6099   21.9990 N   0  0  0  0  0  0  0  0  0  0  0  0
   14.4531  -16.9690   23.9571 C   0  0  0  0  0  0  0  0  0  0  0  0
   14.7763  -16.2368   24.9128 O   0  0  0  0  0  0  0  0  0  0  0  0
   15.2485  -18.0374   23.6183 O   0  0  0  0  0  0  0  0  0  0  0  0
  2  1  1  1
  2  8  1  0
  3  2  1  0
  4  3  1  0
  4  5  1  0
  5  6  1  0
  7  6  1  0
  8  9  2  0
  8 15  1  0
 10 11  1  0
 11 12  2  0
 13 11  1  0
 14 13  1  6
 14 16  1  0
 15 14  1  0
 16 17  2  0
 19 21  1  0
 19 18  1  0
 20 19  2  0
 22 21  1  0
 23 22  1  1
 24 16  1  0
 24 23  1  0
 25 23  1  0
 25 27  1  0
 26 25  2  0
M  END
$$$$
