KNQ.pdb
     RDKit          3D

 27 26  0  0  1  0  0  0  0  0999 V2000
    9.2236  -17.6868   16.9677 N   0  0  0  0  0  0  0  0  0  0  0  0
   10.4407  -16.9831   17.2423 C   0  0  1  0  0  0  0  0  0  0  0  0
   10.7424  -15.9467   16.1607 C   0  0  0  0  0  0  0  0  0  0  0  0
   10.1635  -16.2588   14.8325 C   0  0  0  0  0  0  0  0  0  0  0  0
   10.4052  -15.2692   13.7434 C   0  0  0  0  0  0  0  0  0  0  0  0
    9.7004  -15.8350   12.5005 C   0  0  0  0  0  0  0  0  0  0  0  0
    9.9399  -14.9443   11.3983 N   0  0  0  0  0  0  0  0  0  0  0  0
   10.2813  -16.1211   18.4763 C   0  0  0  0  0  0  0  0  0  0  0  0
   11.3015  -15.4956   18.8417 O   0  0  0  0  0  0  0  0  0  0  0  0
    6.9154  -13.1708   18.3371 N   0  0  0  0  0  0  0  0  0  0  0  0
    7.6770  -13.2266   19.5347 C   0  0  0  0  0  0  0  0  0  0  0  0
    8.3540  -12.2441   19.9435 O   0  0  0  0  0  0  0  0  0  0  0  0
    7.6307  -14.5069   20.2764 C   0  0  0  0  0  0  0  0  0  0  0  0
    8.9363  -15.1841   20.4201 C   0  0  2  0  0  0  0  0  0  0  0  0
    9.0979  -15.9966   19.1929 N   0  0  0  0  0  0  0  0  0  0  0  0
    9.1817  -15.9886   21.6034 C   0  0  0  0  0  0  0  0  0  0  0  0
    8.7116  -17.1839   21.6087 O   0  0  0  0  0  0  0  0  0  0  0  0
   14.6479  -15.6839   21.7232 N   0  0  0  0  0  0  0  0  0  0  0  0
   14.4529  -17.0432   22.0756 C   0  0  0  0  0  0  0  0  0  0  0  0
   15.3277  -17.8777   21.8023 O   0  0  0  0  0  0  0  0  0  0  0  0
   13.1731  -17.3913   22.7710 C   0  0  0  0  0  0  0  0  0  0  0  0
   11.9978  -16.6343   22.2221 C   0  0  0  0  0  0  0  0  0  0  0  0
   10.9756  -16.4423   23.3004 C   0  0  2  0  0  0  0  0  0  0  0  0
    9.8856  -15.6186   22.7709 N   0  0  0  0  0  0  0  0  0  0  0  0
   11.5721  -15.7900   24.5038 C   0  0  0  0  0  0  0  0  0  0  0  0
   11.6733  -14.5508   24.5939 O   0  0  0  0  0  0  0  0  0  0  0  0
   12.0181  -16.5861   25.5315 O   0  0  0  0  0  0  0  0  0  0  0  0
  2  1  1  6
  2  8  1  0
  3  2  1  0
  4  3  1  0
  4  5  1  0
  5  6  1  0
  7  6  1  0
  8  9  2  0
  8 15  1  0
 10 11  1  0
 11 12  2  0
 13 11  1  0
 14 13  1  1
 14 16  1  0
 15 14  1  0
 16 17  2  0
 19 21  1  0
 19 18  1  0
 20 19  2  0
 22 21  1  0
 23 22  1  6
 24 16  1  0
 24 23  1  0
 25 23  1  0
 25 27  1  0
 26 25  2  0
M  END
$$$$
