KNQ.pdb
     RDKit          3D

 27 26  0  0  1  0  0  0  0  0999 V2000
    7.7453  -17.7024   20.9574 N   0  0  0  0  0  0  0  0  0  0  0  0
    7.6293  -17.0956   22.2498 C   0  0  1  0  0  0  0  0  0  0  0  0
    6.6522  -17.8618   23.1404 C   0  0  0  0  0  0  0  0  0  0  0  0
    6.0147  -19.0306   22.4892 C   0  0  0  0  0  0  0  0  0  0  0  0
    4.5276  -19.0111   22.3780 C   0  0  0  0  0  0  0  0  0  0  0  0
    4.1383  -20.3553   21.7429 C   0  0  0  0  0  0  0  0  0  0  0  0
    2.7164  -20.3638   21.5347 N   0  0  0  0  0  0  0  0  0  0  0  0
    8.9304  -17.2306   23.0114 C   0  0  0  0  0  0  0  0  0  0  0  0
    9.0123  -18.2114   23.7840 O   0  0  0  0  0  0  0  0  0  0  0  0
   14.2419  -17.0029   23.3656 N   0  0  0  0  0  0  0  0  0  0  0  0
   13.6227  -15.7284   23.4632 C   0  0  0  0  0  0  0  0  0  0  0  0
   14.2139  -14.7341   23.9659 O   0  0  0  0  0  0  0  0  0  0  0  0
   12.2409  -15.6342   22.9406 C   0  0  0  0  0  0  0  0  0  0  0  0
   11.2413  -16.4193   23.6944 C   0  0  2  0  0  0  0  0  0  0  0  0
    9.9975  -16.3493   22.8942 N   0  0  0  0  0  0  0  0  0  0  0  0
   10.9794  -16.0740   25.0800 C   0  0  0  0  0  0  0  0  0  0  0  0
   11.9579  -16.1761   25.9057 O   0  0  0  0  0  0  0  0  0  0  0  0
    5.9386  -13.3804   27.2441 N   0  0  0  0  0  0  0  0  0  0  0  0
    6.9774  -12.7036   26.5565 C   0  0  0  0  0  0  0  0  0  0  0  0
    6.7384  -11.6237   25.9969 O   0  0  0  0  0  0  0  0  0  0  0  0
    8.3273  -13.3519   26.5502 C   0  0  0  0  0  0  0  0  0  0  0  0
    8.3487  -14.6396   27.3229 C   0  0  0  0  0  0  0  0  0  0  0  0
    9.6451  -15.3500   27.0798 C   0  0  2  0  0  0  0  0  0  0  0  0
    9.7637  -15.6305   25.6465 N   0  0  0  0  0  0  0  0  0  0  0  0
    9.7214  -16.6219   27.8583 C   0  0  0  0  0  0  0  0  0  0  0  0
    9.6700  -17.7351   27.2998 O   0  0  0  0  0  0  0  0  0  0  0  0
    9.8508  -16.5509   29.2247 O   0  0  0  0  0  0  0  0  0  0  0  0
  2  1  1  6
  2  8  1  0
  3  2  1  0
  4  3  1  0
  4  5  1  0
  5  6  1  0
  7  6  1  0
  8  9  2  0
  8 15  1  0
 10 11  1  0
 11 12  2  0
 13 11  1  0
 14 13  1  6
 14 16  1  0
 15 14  1  0
 16 17  2  0
 19 21  1  0
 19 18  1  0
 20 19  2  0
 22 21  1  0
 23 22  1  6
 24 16  1  0
 24 23  1  0
 25 23  1  0
 25 27  1  0
 26 25  2  0
M  END
$$$$
