KNQ.pdb
     RDKit          3D

 27 26  0  0  1  0  0  0  0  0999 V2000
   12.5492  -19.9477   15.9726 N   0  0  0  0  0  0  0  0  0  0  0  0
   11.4169  -20.4842   16.6668 C   0  0  1  0  0  0  0  0  0  0  0  0
   11.5400  -21.9962   16.8507 C   0  0  0  0  0  0  0  0  0  0  0  0
   12.7965  -22.5787   16.3230 C   0  0  0  0  0  0  0  0  0  0  0  0
   12.6719  -23.5140   15.1681 C   0  0  0  0  0  0  0  0  0  0  0  0
   14.0859  -24.0627   14.9201 C   0  0  0  0  0  0  0  0  0  0  0  0
   14.0177  -25.0292   13.8587 N   0  0  0  0  0  0  0  0  0  0  0  0
   11.3951  -19.9884   18.0968 C   0  0  0  0  0  0  0  0  0  0  0  0
   12.5109  -19.7441   18.6078 O   0  0  0  0  0  0  0  0  0  0  0  0
    9.1508  -17.1371   22.2055 N   0  0  0  0  0  0  0  0  0  0  0  0
    8.5255  -18.3513   21.8157 C   0  0  0  0  0  0  0  0  0  0  0  0
    7.7682  -18.9936   22.5934 O   0  0  0  0  0  0  0  0  0  0  0  0
    8.8148  -18.8208   20.4419 C   0  0  0  0  0  0  0  0  0  0  0  0
   10.1986  -19.2941   20.2303 C   0  0  2  0  0  0  0  0  0  0  0  0
   10.2363  -19.7978   18.8384 N   0  0  0  0  0  0  0  0  0  0  0  0
   10.7507  -20.2763   21.1458 C   0  0  0  0  0  0  0  0  0  0  0  0
   10.9369  -21.4631   20.6914 O   0  0  0  0  0  0  0  0  0  0  0  0
   14.1647  -21.1101   19.7900 N   0  0  0  0  0  0  0  0  0  0  0  0
   14.1566  -22.3445   20.4872 C   0  0  0  0  0  0  0  0  0  0  0  0
   14.5039  -23.3803   19.9014 O   0  0  0  0  0  0  0  0  0  0  0  0
   13.7186  -22.3171   21.9189 C   0  0  0  0  0  0  0  0  0  0  0  0
   13.3693  -20.9328   22.3854 C   0  0  0  0  0  0  0  0  0  0  0  0
   12.0851  -20.9712   23.1559 C   0  0  2  0  0  0  0  0  0  0  0  0
   11.1174  -20.0899   22.4972 N   0  0  0  0  0  0  0  0  0  0  0  0
   12.2882  -20.5413   24.5714 C   0  0  0  0  0  0  0  0  0  0  0  0
   13.0052  -21.1921   25.3565 O   0  0  0  0  0  0  0  0  0  0  0  0
   11.6632  -19.3980   25.0085 O   0  0  0  0  0  0  0  0  0  0  0  0
  2  1  1  6
  2  8  1  0
  3  2  1  0
  4  3  1  0
  4  5  1  0
  5  6  1  0
  7  6  1  0
  8  9  2  0
  8 15  1  0
 10 11  1  0
 11 12  2  0
 13 11  1  0
 14 13  1  1
 14 16  1  0
 15 14  1  0
 16 17  2  0
 19 21  1  0
 19 18  1  0
 20 19  2  0
 22 21  1  0
 23 22  1  6
 24 16  1  0
 24 23  1  0
 25 23  1  0
 25 27  1  0
 26 25  2  0
M  END
$$$$
