KNQ.pdb
     RDKit          3D

 27 26  0  0  1  0  0  0  0  0999 V2000
    9.7092  -15.5986   20.2017 N   0  0  0  0  0  0  0  0  0  0  0  0
    9.0812  -14.6086   21.0247 C   0  0  1  0  0  0  0  0  0  0  0  0
    8.0341  -13.8159   20.2434 C   0  0  0  0  0  0  0  0  0  0  0  0
    8.1171  -13.9727   18.7721 C   0  0  0  0  0  0  0  0  0  0  0  0
    7.1171  -13.2236   17.9578 C   0  0  0  0  0  0  0  0  0  0  0  0
    7.4668  -13.5192   16.4908 C   0  0  0  0  0  0  0  0  0  0  0  0
    6.5085  -12.8522   15.6527 N   0  0  0  0  0  0  0  0  0  0  0  0
    8.2453  -15.2722   22.0981 C   0  0  0  0  0  0  0  0  0  0  0  0
    7.5521  -14.5055   22.8031 O   0  0  0  0  0  0  0  0  0  0  0  0
    7.5082  -20.3627   24.4386 N   0  0  0  0  0  0  0  0  0  0  0  0
    6.4946  -19.4640   24.0115 C   0  0  0  0  0  0  0  0  0  0  0  0
    5.3246  -19.5030   24.4808 O   0  0  0  0  0  0  0  0  0  0  0  0
    6.8912  -18.4773   22.9816 C   0  0  0  0  0  0  0  0  0  0  0  0
    7.5928  -17.2869   23.5054 C   0  0  2  0  0  0  0  0  0  0  0  0
    8.2132  -16.6420   22.3257 N   0  0  0  0  0  0  0  0  0  0  0  0
    8.5677  -17.4591   24.5672 C   0  0  0  0  0  0  0  0  0  0  0  0
    9.7749  -17.7252   24.2186 O   0  0  0  0  0  0  0  0  0  0  0  0
    9.9025  -13.5092   29.0060 N   0  0  0  0  0  0  0  0  0  0  0  0
   10.2003  -14.7331   29.6566 C   0  0  0  0  0  0  0  0  0  0  0  0
   10.3370  -14.7537   30.8884 O   0  0  0  0  0  0  0  0  0  0  0  0
   10.3339  -15.9499   28.7940 C   0  0  0  0  0  0  0  0  0  0  0  0
    9.2340  -16.0553   27.7766 C   0  0  0  0  0  0  0  0  0  0  0  0
    9.4736  -17.2457   26.8992 C   0  0  2  0  0  0  0  0  0  0  0  0
    8.3548  -17.3684   25.9608 N   0  0  0  0  0  0  0  0  0  0  0  0
    9.6054  -18.4961   27.7047 C   0  0  0  0  0  0  0  0  0  0  0  0
    8.6587  -19.2977   27.8284 O   0  0  0  0  0  0  0  0  0  0  0  0
   10.8052  -18.7588   28.3214 O   0  0  0  0  0  0  0  0  0  0  0  0
  2  1  1  6
  2  8  1  0
  3  2  1  0
  4  3  1  0
  4  5  1  0
  5  6  1  0
  7  6  1  0
  8  9  2  0
  8 15  1  0
 10 11  1  0
 11 12  2  0
 13 11  1  0
 14 13  1  6
 14 16  1  0
 15 14  1  0
 16 17  2  0
 19 21  1  0
 19 18  1  0
 20 19  2  0
 22 21  1  0
 23 22  1  1
 24 16  1  0
 24 23  1  0
 25 23  1  0
 25 27  1  0
 26 25  2  0
M  END
$$$$
