KNQ.pdb
     RDKit          3D

 27 26  0  0  1  0  0  0  0  0999 V2000
    6.7138  -18.3775   18.0528 N   0  0  0  0  0  0  0  0  0  0  0  0
    8.0960  -18.2943   17.6860 C   0  0  1  0  0  0  0  0  0  0  0  0
    8.2640  -17.7853   16.2550 C   0  0  0  0  0  0  0  0  0  0  0  0
    7.1962  -18.2146   15.3212 C   0  0  0  0  0  0  0  0  0  0  0  0
    7.3306  -17.7822   13.9002 C   0  0  0  0  0  0  0  0  0  0  0  0
    6.0933  -18.3357   13.1760 C   0  0  0  0  0  0  0  0  0  0  0  0
    6.1638  -17.9454   11.7946 N   0  0  0  0  0  0  0  0  0  0  0  0
    8.7888  -17.2171   18.4926 C   0  0  0  0  0  0  0  0  0  0  0  0
   10.0123  -17.0724   18.2743 O   0  0  0  0  0  0  0  0  0  0  0  0
    6.8443  -12.4023   19.3509 N   0  0  0  0  0  0  0  0  0  0  0  0
    7.8552  -13.3995   19.3151 C   0  0  0  0  0  0  0  0  0  0  0  0
    8.6628  -13.4993   18.3515 O   0  0  0  0  0  0  0  0  0  0  0  0
    7.9058  -14.3169   20.4758 C   0  0  0  0  0  0  0  0  0  0  0  0
    8.8380  -15.4535   20.3236 C   0  0  2  0  0  0  0  0  0  0  0  0
    8.1513  -16.4113   19.4273 N   0  0  0  0  0  0  0  0  0  0  0  0
    9.3243  -16.1250   21.5152 C   0  0  0  0  0  0  0  0  0  0  0  0
    8.4503  -16.6845   22.2721 O   0  0  0  0  0  0  0  0  0  0  0  0
   13.6989  -20.8924   24.3099 N   0  0  0  0  0  0  0  0  0  0  0  0
   12.5782  -20.4561   23.5592 C   0  0  0  0  0  0  0  0  0  0  0  0
   12.1375  -21.1700   22.6467 O   0  0  0  0  0  0  0  0  0  0  0  0
   11.9857  -19.1303   23.9251 C   0  0  0  0  0  0  0  0  0  0  0  0
   11.6909  -18.2820   22.7213 C   0  0  0  0  0  0  0  0  0  0  0  0
   11.0053  -17.0211   23.1508 C   0  0  2  0  0  0  0  0  0  0  0  0
   10.6609  -16.2453   21.9565 N   0  0  0  0  0  0  0  0  0  0  0  0
   11.8755  -16.2108   24.0541 C   0  0  0  0  0  0  0  0  0  0  0  0
   12.4568  -15.1832   23.6542 O   0  0  0  0  0  0  0  0  0  0  0  0
   12.0326  -16.6186   25.3572 O   0  0  0  0  0  0  0  0  0  0  0  0
  2  1  1  1
  2  8  1  0
  3  2  1  0
  4  3  1  0
  4  5  1  0
  5  6  1  0
  7  6  1  0
  8  9  2  0
  8 15  1  0
 10 11  1  0
 11 12  2  0
 13 11  1  0
 14 13  1  1
 14 16  1  0
 15 14  1  0
 16 17  2  0
 19 21  1  0
 19 18  1  0
 20 19  2  0
 22 21  1  0
 23 22  1  6
 24 16  1  0
 24 23  1  0
 25 23  1  0
 25 27  1  0
 26 25  2  0
M  END
$$$$
