AMV.pdb
     RDKit          3D

 21 20  0  0  1  0  0  0  0  0999 V2000
    7.0558  -15.2671   19.8768 C   0  0  0  0  0  0  0  0  0  0  0  0
    7.2434  -13.8841   20.4150 C   0  0  2  0  0  0  0  0  0  0  0  0
    7.9452  -13.0059   19.4991 N   0  0  0  0  0  0  0  0  0  0  0  0
    7.9126  -13.9369   21.7364 C   0  0  0  0  0  0  0  0  0  0  0  0
    9.1628  -13.9184   21.7688 O   0  0  0  0  0  0  0  0  0  0  0  0
    7.4391  -11.5210   27.9111 C   0  0  0  0  0  0  0  0  0  0  0  0
    6.0466  -11.5448   26.7586 S   0  0  0  0  0  0  0  0  0  0  0  0
    6.5116  -12.2407   25.1596 C   0  0  0  0  0  0  0  0  0  0  0  0
    6.8547  -13.6984   25.3054 C   0  0  0  0  0  0  0  0  0  0  0  0
    7.8690  -14.1032   24.2570 C   0  0  2  0  0  0  0  0  0  0  0  0
    7.2204  -14.0071   22.9640 N   0  0  0  0  0  0  0  0  0  0  0  0
    8.3622  -15.4818   24.5037 C   0  0  0  0  0  0  0  0  0  0  0  0
    7.5637  -16.4390   24.3370 O   0  0  0  0  0  0  0  0  0  0  0  0
   11.8336  -18.8428   24.7319 C   0  0  0  0  0  0  0  0  0  0  0  0
   11.4235  -17.4183   24.4315 C   0  0  1  0  0  0  0  0  0  0  0  0
   11.3676  -17.2589   22.9500 C   0  0  0  0  0  0  0  0  0  0  0  0
   10.1071  -17.1253   25.1191 C   0  0  2  0  0  0  0  0  0  0  0  0
    9.6778  -15.7696   24.9145 N   0  0  0  0  0  0  0  0  0  0  0  0
   10.1449  -17.4940   26.5574 C   0  0  0  0  0  0  0  0  0  0  0  0
   10.1379  -16.5816   27.4224 O   0  0  0  0  0  0  0  0  0  0  0  0
   10.1883  -18.8034   27.0140 O   0  0  0  0  0  0  0  0  0  0  0  0
  2  1  1  6
  3  2  1  0
  4  2  1  0
  5  4  2  0
  6  7  1  0
  7  8  1  0
  8  9  1  0
 10  9  1  1
 10 11  1  0
 10 12  1  0
 11  4  1  0
 12 13  2  0
 12 18  1  0
 15 16  1  6
 15 14  1  0
 17 15  1  0
 17 18  1  1
 19 17  1  0
 19 21  1  0
 20 19  2  0
M  END
$$$$
