AMV.pdb
     RDKit          3D

 21 20  0  0  1  0  0  0  0  0999 V2000
    6.4381  -16.8011   20.3843 C   0  0  0  0  0  0  0  0  0  0  0  0
    7.1582  -15.4988   20.2323 C   0  0  2  0  0  0  0  0  0  0  0  0
    7.9877  -15.4409   19.0444 N   0  0  0  0  0  0  0  0  0  0  0  0
    7.9407  -15.2024   21.4556 C   0  0  0  0  0  0  0  0  0  0  0  0
    9.1493  -15.5239   21.4786 O   0  0  0  0  0  0  0  0  0  0  0  0
    5.4479  -12.4921   27.2431 C   0  0  0  0  0  0  0  0  0  0  0  0
    7.0797  -11.8057   26.8772 S   0  0  0  0  0  0  0  0  0  0  0  0
    8.0731  -12.9341   25.8786 C   0  0  0  0  0  0  0  0  0  0  0  0
    7.3185  -13.3367   24.6407 C   0  0  0  0  0  0  0  0  0  0  0  0
    8.1700  -14.2496   23.7842 C   0  0  2  0  0  0  0  0  0  0  0  0
    7.4011  -14.5769   22.5996 N   0  0  0  0  0  0  0  0  0  0  0  0
    8.5448  -15.4768   24.5312 C   0  0  0  0  0  0  0  0  0  0  0  0
    7.6417  -16.3094   24.8009 O   0  0  0  0  0  0  0  0  0  0  0  0
   11.7443  -18.9415   25.5854 C   0  0  0  0  0  0  0  0  0  0  0  0
   11.3794  -17.6718   24.8490 C   0  0  1  0  0  0  0  0  0  0  0  0
   11.1186  -18.0257   23.4242 C   0  0  0  0  0  0  0  0  0  0  0  0
   10.1960  -17.0230   25.5349 C   0  0  2  0  0  0  0  0  0  0  0  0
    9.8597  -15.7538   24.9519 N   0  0  0  0  0  0  0  0  0  0  0  0
   10.3940  -16.9341   27.0043 C   0  0  0  0  0  0  0  0  0  0  0  0
   10.5825  -15.8069   27.5283 O   0  0  0  0  0  0  0  0  0  0  0  0
   10.3838  -18.0349   27.8489 O   0  0  0  0  0  0  0  0  0  0  0  0
  2  1  1  1
  3  2  1  0
  4  2  1  0
  5  4  2  0
  6  7  1  0
  7  8  1  0
  8  9  1  0
 10  9  1  1
 10 11  1  0
 10 12  1  0
 11  4  1  0
 12 13  2  0
 12 18  1  0
 15 16  1  6
 15 14  1  0
 17 15  1  0
 17 18  1  6
 19 17  1  0
 19 21  1  0
 20 19  2  0
M  END
$$$$
