AMV.pdb
     RDKit          3D

 21 20  0  0  1  0  0  0  0  0999 V2000
    6.8043  -16.7991   20.5974 C   0  0  0  0  0  0  0  0  0  0  0  0
    7.0913  -15.3332   20.6789 C   0  0  2  0  0  0  0  0  0  0  0  0
    7.7694  -14.8186   19.5051 N   0  0  0  0  0  0  0  0  0  0  0  0
    7.8451  -15.0287   21.9182 C   0  0  0  0  0  0  0  0  0  0  0  0
    9.0939  -14.9903   21.8581 O   0  0  0  0  0  0  0  0  0  0  0  0
    7.1834  -11.7827   27.7942 C   0  0  0  0  0  0  0  0  0  0  0  0
    5.9303  -11.7933   26.4914 S   0  0  0  0  0  0  0  0  0  0  0  0
    6.4843  -12.7052   25.0358 C   0  0  0  0  0  0  0  0  0  0  0  0
    6.9865  -14.0666   25.4335 C   0  0  0  0  0  0  0  0  0  0  0  0
    7.9669  -14.5831   24.4020 C   0  0  2  0  0  0  0  0  0  0  0  0
    7.2352  -14.7789   23.1659 N   0  0  0  0  0  0  0  0  0  0  0  0
    8.5928  -15.8505   24.8563 C   0  0  0  0  0  0  0  0  0  0  0  0
    7.8808  -16.8865   24.8943 O   0  0  0  0  0  0  0  0  0  0  0  0
   12.4059  -18.7866   25.3323 C   0  0  0  0  0  0  0  0  0  0  0  0
   11.8541  -17.4430   24.9106 C   0  0  1  0  0  0  0  0  0  0  0  0
   11.7723  -17.4265   23.4218 C   0  0  0  0  0  0  0  0  0  0  0  0
   10.5199  -17.2191   25.5898 C   0  0  2  0  0  0  0  0  0  0  0  0
    9.9422  -15.9494   25.2461 N   0  0  0  0  0  0  0  0  0  0  0  0
   10.6114  -17.4181   27.0589 C   0  0  0  0  0  0  0  0  0  0  0  0
   10.4408  -16.4327   27.8207 O   0  0  0  0  0  0  0  0  0  0  0  0
   10.8775  -18.6433   27.6531 O   0  0  0  0  0  0  0  0  0  0  0  0
  2  1  1  6
  3  2  1  0
  4  2  1  0
  5  4  2  0
  6  7  1  0
  7  8  1  0
  8  9  1  0
 10  9  1  1
 10 11  1  0
 10 12  1  0
 11  4  1  0
 12 13  2  0
 12 18  1  0
 15 16  1  6
 15 14  1  0
 17 15  1  0
 17 18  1  1
 19 17  1  0
 19 21  1  0
 20 19  2  0
M  END
$$$$
