AMV.pdb
     RDKit          3D

 21 20  0  0  1  0  0  0  0  0999 V2000
    9.8790  -16.0351   19.4913 C   0  0  0  0  0  0  0  0  0  0  0  0
    9.8626  -16.8568   20.7411 C   0  0  2  0  0  0  0  0  0  0  0  0
    8.7317  -17.7614   20.8143 N   0  0  0  0  0  0  0  0  0  0  0  0
    9.9313  -15.9766   21.9317 C   0  0  0  0  0  0  0  0  0  0  0  0
   10.9501  -15.2677   22.0867 O   0  0  0  0  0  0  0  0  0  0  0  0
    5.6843  -12.3051   27.4551 C   0  0  0  0  0  0  0  0  0  0  0  0
    5.8649  -12.9842   25.7896 S   0  0  0  0  0  0  0  0  0  0  0  0
    7.5421  -13.5777   25.4859 C   0  0  0  0  0  0  0  0  0  0  0  0
    7.5483  -14.5633   24.3490 C   0  0  0  0  0  0  0  0  0  0  0  0
    8.9635  -15.0159   24.0585 C   0  0  2  0  0  0  0  0  0  0  0  0
    8.9120  -15.8909   22.9037 N   0  0  0  0  0  0  0  0  0  0  0  0
    9.5453  -15.7163   25.2313 C   0  0  0  0  0  0  0  0  0  0  0  0
    9.6889  -16.9641   25.1691 O   0  0  0  0  0  0  0  0  0  0  0  0
   11.7388  -13.6507   28.0603 C   0  0  0  0  0  0  0  0  0  0  0  0
   10.9978  -14.8497   28.6092 C   0  0  1  0  0  0  0  0  0  0  0  0
    9.8295  -14.3501   29.3894 C   0  0  0  0  0  0  0  0  0  0  0  0
   10.6120  -15.7614   27.4639 C   0  0  2  0  0  0  0  0  0  0  0  0
    9.9436  -15.0531   26.4078 N   0  0  0  0  0  0  0  0  0  0  0  0
    9.8348  -16.9362   27.9352 C   0  0  0  0  0  0  0  0  0  0  0  0
   10.4195  -17.8287   28.6002 O   0  0  0  0  0  0  0  0  0  0  0  0
    8.4819  -17.1135   27.6836 O   0  0  0  0  0  0  0  0  0  0  0  0
  2  1  1  6
  3  2  1  0
  4  2  1  0
  5  4  2  0
  6  7  1  0
  7  8  1  0
  8  9  1  0
 10  9  1  1
 10 11  1  0
 10 12  1  0
 11  4  1  0
 12 13  2  0
 12 18  1  0
 15 16  1  6
 15 14  1  0
 17 15  1  0
 17 18  1  6
 19 17  1  0
 19 21  1  0
 20 19  2  0
M  END
$$$$
