AMV.pdb
     RDKit          3D

 21 20  0  0  1  0  0  0  0  0999 V2000
    8.0579  -14.2722   19.2415 C   0  0  0  0  0  0  0  0  0  0  0  0
    7.9128  -15.4557   20.1448 C   0  0  2  0  0  0  0  0  0  0  0  0
    6.5581  -15.9698   20.1984 N   0  0  0  0  0  0  0  0  0  0  0  0
    8.4239  -15.1311   21.4976 C   0  0  0  0  0  0  0  0  0  0  0  0
    9.6539  -14.9541   21.6399 O   0  0  0  0  0  0  0  0  0  0  0  0
    7.2988  -10.9563   27.2102 C   0  0  0  0  0  0  0  0  0  0  0  0
    6.3348  -12.4420   26.8484 S   0  0  0  0  0  0  0  0  0  0  0  0
    7.3571  -13.7474   26.1354 C   0  0  0  0  0  0  0  0  0  0  0  0
    6.9593  -13.9991   24.7064 C   0  0  0  0  0  0  0  0  0  0  0  0
    8.0928  -14.6691   23.9593 C   0  0  2  0  0  0  0  0  0  0  0  0
    7.6021  -15.0095   22.6383 N   0  0  0  0  0  0  0  0  0  0  0  0
    8.5591  -15.8794   24.6820 C   0  0  0  0  0  0  0  0  0  0  0  0
    7.7192  -16.7786   24.9421 O   0  0  0  0  0  0  0  0  0  0  0  0
   12.6853  -16.7769   24.9532 C   0  0  0  0  0  0  0  0  0  0  0  0
   11.5915  -17.8042   24.7632 C   0  0  1  0  0  0  0  0  0  0  0  0
   12.1185  -19.1250   25.2116 C   0  0  0  0  0  0  0  0  0  0  0  0
   10.3570  -17.3601   25.5185 C   0  0  2  0  0  0  0  0  0  0  0  0
    9.8933  -16.0697   25.0897 N   0  0  0  0  0  0  0  0  0  0  0  0
   10.5590  -17.4270   26.9885 C   0  0  0  0  0  0  0  0  0  0  0  0
   10.6448  -16.3568   27.6427 O   0  0  0  0  0  0  0  0  0  0  0  0
   10.6607  -18.6157   27.6967 O   0  0  0  0  0  0  0  0  0  0  0  0
  2  1  1  6
  3  2  1  0
  4  2  1  0
  5  4  2  0
  6  7  1  0
  7  8  1  0
  8  9  1  0
 10  9  1  1
 10 11  1  0
 10 12  1  0
 11  4  1  0
 12 13  2  0
 12 18  1  0
 15 16  1  1
 15 14  1  0
 17 15  1  0
 17 18  1  6
 19 17  1  0
 19 21  1  0
 20 19  2  0
M  END
$$$$
