AMV.pdb
     RDKit          3D

 21 20  0  0  1  0  0  0  0  0999 V2000
    6.6775  -16.4760   20.4824 C   0  0  0  0  0  0  0  0  0  0  0  0
    7.1266  -15.0556   20.6182 C   0  0  2  0  0  0  0  0  0  0  0  0
    7.8566  -14.5750   19.4613 N   0  0  0  0  0  0  0  0  0  0  0  0
    7.9110  -14.8852   21.8641 C   0  0  0  0  0  0  0  0  0  0  0  0
    9.1509  -15.0412   21.8100 O   0  0  0  0  0  0  0  0  0  0  0  0
    7.2338  -11.8460   27.9354 C   0  0  0  0  0  0  0  0  0  0  0  0
    6.2064  -11.5466   26.4785 S   0  0  0  0  0  0  0  0  0  0  0  0
    6.8269  -12.4242   25.0287 C   0  0  0  0  0  0  0  0  0  0  0  0
    7.1716  -13.8443   25.3869 C   0  0  0  0  0  0  0  0  0  0  0  0
    8.0951  -14.4364   24.3436 C   0  0  2  0  0  0  0  0  0  0  0  0
    7.3399  -14.5563   23.1119 N   0  0  0  0  0  0  0  0  0  0  0  0
    8.6100  -15.7579   24.7828 C   0  0  0  0  0  0  0  0  0  0  0  0
    7.8233  -16.7390   24.7676 O   0  0  0  0  0  0  0  0  0  0  0  0
   12.1912  -18.9711   25.2311 C   0  0  0  0  0  0  0  0  0  0  0  0
   11.7204  -17.5942   24.8183 C   0  0  1  0  0  0  0  0  0  0  0  0
   11.6196  -17.5698   23.3309 C   0  0  0  0  0  0  0  0  0  0  0  0
   10.4124  -17.2872   25.5159 C   0  0  2  0  0  0  0  0  0  0  0  0
    9.9338  -15.9665   25.2149 N   0  0  0  0  0  0  0  0  0  0  0  0
   10.4979  -17.5367   26.9776 C   0  0  0  0  0  0  0  0  0  0  0  0
   10.4954  -16.5572   27.7658 O   0  0  0  0  0  0  0  0  0  0  0  0
   10.5818  -18.8035   27.5372 O   0  0  0  0  0  0  0  0  0  0  0  0
  2  1  1  6
  3  2  1  0
  4  2  1  0
  5  4  2  0
  6  7  1  0
  7  8  1  0
  8  9  1  0
 10  9  1  1
 10 11  1  0
 10 12  1  0
 11  4  1  0
 12 13  2  0
 12 18  1  0
 15 16  1  6
 15 14  1  0
 17 15  1  0
 17 18  1  1
 19 17  1  0
 19 21  1  0
 20 19  2  0
M  END
$$$$
