AMV.pdb
     RDKit          3D

 21 20  0  0  1  0  0  0  0  0999 V2000
    8.3307  -14.8345   19.1802 C   0  0  0  0  0  0  0  0  0  0  0  0
    8.2909  -15.8977   20.2318 C   0  0  2  0  0  0  0  0  0  0  0  0
    6.9992  -16.5479   20.3371 N   0  0  0  0  0  0  0  0  0  0  0  0
    8.7272  -15.3431   21.5351 C   0  0  0  0  0  0  0  0  0  0  0  0
    9.9388  -15.0731   21.6887 O   0  0  0  0  0  0  0  0  0  0  0  0
    6.6815  -11.4304   28.0497 C   0  0  0  0  0  0  0  0  0  0  0  0
    6.1989  -12.2434   26.5090 S   0  0  0  0  0  0  0  0  0  0  0  0
    7.5278  -13.2704   25.8481 C   0  0  0  0  0  0  0  0  0  0  0  0
    7.1278  -13.8477   24.5175 C   0  0  0  0  0  0  0  0  0  0  0  0
    8.2832  -14.6177   23.9141 C   0  0  2  0  0  0  0  0  0  0  0  0
    7.8537  -15.1009   22.6165 N   0  0  0  0  0  0  0  0  0  0  0  0
    8.6848  -15.7436   24.7949 C   0  0  0  0  0  0  0  0  0  0  0  0
    7.8579  -16.6705   24.9916 O   0  0  0  0  0  0  0  0  0  0  0  0
   11.2486  -18.0920   24.1293 C   0  0  0  0  0  0  0  0  0  0  0  0
   11.5589  -17.6616   25.5458 C   0  0  1  0  0  0  0  0  0  0  0  0
   12.7526  -16.7690   25.5038 C   0  0  0  0  0  0  0  0  0  0  0  0
   10.3344  -17.0024   26.1436 C   0  0  2  0  0  0  0  0  0  0  0  0
    9.9441  -15.8245   25.4196 N   0  0  0  0  0  0  0  0  0  0  0  0
   10.5052  -16.7411   27.5958 C   0  0  0  0  0  0  0  0  0  0  0  0
   10.8069  -17.6952   28.3569 O   0  0  0  0  0  0  0  0  0  0  0  0
   10.3504  -15.4897   28.1747 O   0  0  0  0  0  0  0  0  0  0  0  0
  2  1  1  6
  3  2  1  0
  4  2  1  0
  5  4  2  0
  6  7  1  0
  7  8  1  0
  8  9  1  0
 10  9  1  1
 10 11  1  0
 10 12  1  0
 11  4  1  0
 12 13  2  0
 12 18  1  0
 15 16  1  6
 15 14  1  0
 17 15  1  0
 17 18  1  6
 19 17  1  0
 19 21  1  0
 20 19  2  0
M  END
$$$$
