AMV.pdb
     RDKit          3D

 21 20  0  0  1  0  0  0  0  0999 V2000
    6.8789  -16.1740   19.9075 C   0  0  0  0  0  0  0  0  0  0  0  0
    7.2688  -14.7568   20.1852 C   0  0  2  0  0  0  0  0  0  0  0  0
    8.1699  -14.2076   19.1908 N   0  0  0  0  0  0  0  0  0  0  0  0
    7.8324  -14.6407   21.5511 C   0  0  0  0  0  0  0  0  0  0  0  0
    9.0601  -14.8251   21.7035 O   0  0  0  0  0  0  0  0  0  0  0  0
    8.5618  -11.7651   28.1449 C   0  0  0  0  0  0  0  0  0  0  0  0
    7.8339  -11.9807   26.5044 S   0  0  0  0  0  0  0  0  0  0  0  0
    7.0041  -13.5754   26.3435 C   0  0  0  0  0  0  0  0  0  0  0  0
    6.4906  -13.7566   24.9409 C   0  0  0  0  0  0  0  0  0  0  0  0
    7.6064  -14.2300   24.0337 C   0  0  2  0  0  0  0  0  0  0  0  0
    7.0632  -14.3336   22.6936 N   0  0  0  0  0  0  0  0  0  0  0  0
    8.1423  -15.5363   24.4931 C   0  0  0  0  0  0  0  0  0  0  0  0
    7.3589  -16.5190   24.5385 O   0  0  0  0  0  0  0  0  0  0  0  0
   10.7579  -17.5598   23.0407 C   0  0  0  0  0  0  0  0  0  0  0  0
   11.1422  -17.4897   24.5019 C   0  0  1  0  0  0  0  0  0  0  0  0
   12.3299  -16.5963   24.6225 C   0  0  0  0  0  0  0  0  0  0  0  0
    9.9496  -17.0184   25.3065 C   0  0  2  0  0  0  0  0  0  0  0  0
    9.4825  -15.7285   24.8797 N   0  0  0  0  0  0  0  0  0  0  0  0
   10.2188  -17.0660   26.7665 C   0  0  0  0  0  0  0  0  0  0  0  0
   10.5238  -18.1648   27.2960 O   0  0  0  0  0  0  0  0  0  0  0  0
   10.1538  -15.9560   27.5963 O   0  0  0  0  0  0  0  0  0  0  0  0
  2  1  1  6
  3  2  1  0
  4  2  1  0
  5  4  2  0
  6  7  1  0
  7  8  1  0
  8  9  1  0
 10  9  1  1
 10 11  1  0
 10 12  1  0
 11  4  1  0
 12 13  2  0
 12 18  1  0
 15 16  1  6
 15 14  1  0
 17 15  1  0
 17 18  1  6
 19 17  1  0
 19 21  1  0
 20 19  2  0
M  END
$$$$
