AMV.pdb
     RDKit          3D

 21 20  0  0  1  0  0  0  0  0999 V2000
    7.2613  -17.1594   20.2952 C   0  0  0  0  0  0  0  0  0  0  0  0
    7.6825  -15.7245   20.3303 C   0  0  2  0  0  0  0  0  0  0  0  0
    8.5387  -15.3539   19.2203 N   0  0  0  0  0  0  0  0  0  0  0  0
    8.3161  -15.4101   21.6328 C   0  0  0  0  0  0  0  0  0  0  0  0
    9.5583  -15.5201   21.7296 O   0  0  0  0  0  0  0  0  0  0  0  0
    6.3977  -10.8096   26.2088 C   0  0  0  0  0  0  0  0  0  0  0  0
    6.6227  -12.3906   27.0559 S   0  0  0  0  0  0  0  0  0  0  0  0
    7.7699  -13.4676   26.1720 C   0  0  0  0  0  0  0  0  0  0  0  0
    7.1916  -13.8646   24.8409 C   0  0  0  0  0  0  0  0  0  0  0  0
    8.2168  -14.6335   24.0349 C   0  0  2  0  0  0  0  0  0  0  0  0
    7.5984  -14.9929   22.7739 N   0  0  0  0  0  0  0  0  0  0  0  0
    8.6679  -15.8423   24.7698 C   0  0  0  0  0  0  0  0  0  0  0  0
    7.8720  -16.8109   24.8690 O   0  0  0  0  0  0  0  0  0  0  0  0
   12.2552  -18.8345   26.0577 C   0  0  0  0  0  0  0  0  0  0  0  0
   11.8077  -17.5418   25.4122 C   0  0  1  0  0  0  0  0  0  0  0  0
   11.9216  -17.7027   23.9342 C   0  0  0  0  0  0  0  0  0  0  0  0
   10.4043  -17.2153   25.8763 C   0  0  2  0  0  0  0  0  0  0  0  0
    9.9410  -15.9571   25.3602 N   0  0  0  0  0  0  0  0  0  0  0  0
   10.2814  -17.2984   27.3542 C   0  0  0  0  0  0  0  0  0  0  0  0
   10.2087  -16.2356   28.0220 O   0  0  0  0  0  0  0  0  0  0  0  0
   10.2412  -18.4948   28.0557 O   0  0  0  0  0  0  0  0  0  0  0  0
  2  1  1  1
  3  2  1  0
  4  2  1  0
  5  4  2  0
  6  7  1  0
  7  8  1  0
  8  9  1  0
 10  9  1  1
 10 11  1  0
 10 12  1  0
 11  4  1  0
 12 13  2  0
 12 18  1  0
 15 16  1  6
 15 14  1  0
 17 15  1  0
 17 18  1  1
 19 17  1  0
 19 21  1  0
 20 19  2  0
M  END
$$$$
