AMV.pdb
     RDKit          3D

 21 20  0  0  1  0  0  0  0  0999 V2000
   10.1261  -16.3637   19.7494 C   0  0  0  0  0  0  0  0  0  0  0  0
    9.8055  -17.0692   21.0289 C   0  0  2  0  0  0  0  0  0  0  0  0
    8.4933  -17.6862   21.0269 N   0  0  0  0  0  0  0  0  0  0  0  0
    9.9688  -16.1451   22.1762 C   0  0  0  0  0  0  0  0  0  0  0  0
   11.0826  -15.6018   22.3458 O   0  0  0  0  0  0  0  0  0  0  0  0
    4.9823  -12.8169   26.1543 C   0  0  0  0  0  0  0  0  0  0  0  0
    6.6014  -12.1974   25.6421 S   0  0  0  0  0  0  0  0  0  0  0  0
    7.8753  -13.4701   25.7633 C   0  0  0  0  0  0  0  0  0  0  0  0
    7.7503  -14.4430   24.6225 C   0  0  0  0  0  0  0  0  0  0  0  0
    9.1114  -14.9952   24.2560 C   0  0  2  0  0  0  0  0  0  0  0  0
    8.9387  -15.8411   23.0914 N   0  0  0  0  0  0  0  0  0  0  0  0
    9.6933  -15.7602   25.3877 C   0  0  0  0  0  0  0  0  0  0  0  0
    9.6876  -17.0162   25.3233 O   0  0  0  0  0  0  0  0  0  0  0  0
   11.7937  -13.8340   28.4480 C   0  0  0  0  0  0  0  0  0  0  0  0
   11.1117  -15.1317   28.8203 C   0  0  1  0  0  0  0  0  0  0  0  0
    9.8681  -14.7981   29.5723 C   0  0  0  0  0  0  0  0  0  0  0  0
   10.8582  -15.9373   27.5640 C   0  0  2  0  0  0  0  0  0  0  0  0
   10.2503  -15.1497   26.5277 N   0  0  0  0  0  0  0  0  0  0  0  0
   10.0934  -17.1776   27.8519 C   0  0  0  0  0  0  0  0  0  0  0  0
    8.9070  -17.2718   27.4465 O   0  0  0  0  0  0  0  0  0  0  0  0
   10.6143  -18.2565   28.5517 O   0  0  0  0  0  0  0  0  0  0  0  0
  2  1  1  6
  3  2  1  0
  4  2  1  0
  5  4  2  0
  6  7  1  0
  7  8  1  0
  8  9  1  0
 10  9  1  1
 10 11  1  0
 10 12  1  0
 11  4  1  0
 12 13  2  0
 12 18  1  0
 15 16  1  6
 15 14  1  0
 17 15  1  0
 17 18  1  6
 19 17  1  0
 19 21  1  0
 20 19  2  0
M  END
$$$$
