AMV.pdb
     RDKit          3D

 21 20  0  0  1  0  0  0  0  0999 V2000
    8.0578  -14.3318   19.2669 C   0  0  0  0  0  0  0  0  0  0  0  0
    7.9826  -15.5326   20.1557 C   0  0  2  0  0  0  0  0  0  0  0  0
    6.6530  -16.1066   20.2279 N   0  0  0  0  0  0  0  0  0  0  0  0
    8.5058  -15.2042   21.5030 C   0  0  0  0  0  0  0  0  0  0  0  0
    9.7331  -14.9979   21.6282 O   0  0  0  0  0  0  0  0  0  0  0  0
    6.7908  -11.4255   28.1101 C   0  0  0  0  0  0  0  0  0  0  0  0
    6.1884  -12.3493   26.6778 S   0  0  0  0  0  0  0  0  0  0  0  0
    7.4815  -13.3774   25.9510 C   0  0  0  0  0  0  0  0  0  0  0  0
    7.0497  -13.8809   24.6005 C   0  0  0  0  0  0  0  0  0  0  0  0
    8.1764  -14.6519   23.9462 C   0  0  2  0  0  0  0  0  0  0  0  0
    7.6985  -15.1101   22.6565 N   0  0  0  0  0  0  0  0  0  0  0  0
    8.5964  -15.7955   24.7950 C   0  0  0  0  0  0  0  0  0  0  0  0
    7.7425  -16.6755   25.0742 O   0  0  0  0  0  0  0  0  0  0  0  0
   11.1553  -18.1462   23.9083 C   0  0  0  0  0  0  0  0  0  0  0  0
   11.4926  -17.8046   25.3427 C   0  0  1  0  0  0  0  0  0  0  0  0
   12.7137  -16.9489   25.3363 C   0  0  0  0  0  0  0  0  0  0  0  0
   10.2954  -17.1412   25.9895 C   0  0  2  0  0  0  0  0  0  0  0  0
    9.9018  -15.9428   25.3018 N   0  0  0  0  0  0  0  0  0  0  0  0
   10.5117  -16.9134   27.4412 C   0  0  0  0  0  0  0  0  0  0  0  0
   10.4792  -15.7381   27.8867 O   0  0  0  0  0  0  0  0  0  0  0  0
   10.7513  -17.9326   28.3516 O   0  0  0  0  0  0  0  0  0  0  0  0
  2  1  1  6
  3  2  1  0
  4  2  1  0
  5  4  2  0
  6  7  1  0
  7  8  1  0
  8  9  1  0
 10  9  1  1
 10 11  1  0
 10 12  1  0
 11  4  1  0
 12 13  2  0
 12 18  1  0
 15 16  1  6
 15 14  1  0
 17 15  1  0
 17 18  1  6
 19 17  1  0
 19 21  1  0
 20 19  2  0
M  END
$$$$
