AMV.pdb
     RDKit          3D

 21 20  0  0  1  0  0  0  0  0999 V2000
    9.1973  -18.5297   21.2280 C   0  0  0  0  0  0  0  0  0  0  0  0
    9.2709  -17.0915   20.8234 C   0  0  2  0  0  0  0  0  0  0  0  0
   10.2510  -16.8405   19.7847 N   0  0  0  0  0  0  0  0  0  0  0  0
    9.5091  -16.2384   22.0118 C   0  0  0  0  0  0  0  0  0  0  0  0
   10.6871  -15.9194   22.2859 O   0  0  0  0  0  0  0  0  0  0  0  0
    4.8495  -11.9636   25.8715 C   0  0  0  0  0  0  0  0  0  0  0  0
    6.1837  -13.0427   26.4399 S   0  0  0  0  0  0  0  0  0  0  0  0
    7.5562  -13.0857   25.2687 C   0  0  0  0  0  0  0  0  0  0  0  0
    7.3654  -14.2061   24.2828 C   0  0  0  0  0  0  0  0  0  0  0  0
    8.6971  -14.8497   23.9599 C   0  0  2  0  0  0  0  0  0  0  0  0
    8.4822  -15.7634   22.8550 N   0  0  0  0  0  0  0  0  0  0  0  0
    9.2393  -15.5640   25.1433 C   0  0  0  0  0  0  0  0  0  0  0  0
    8.9455  -16.7776   25.2930 O   0  0  0  0  0  0  0  0  0  0  0  0
    9.8896  -13.8395   28.6817 C   0  0  0  0  0  0  0  0  0  0  0  0
   11.0122  -14.8003   28.3583 C   0  0  1  0  0  0  0  0  0  0  0  0
   11.3518  -15.5462   29.6039 C   0  0  0  0  0  0  0  0  0  0  0  0
   10.5840  -15.6974   27.2166 C   0  0  2  0  0  0  0  0  0  0  0  0
   10.0650  -14.9503   26.1046 N   0  0  0  0  0  0  0  0  0  0  0  0
    9.6466  -16.7558   27.6717 C   0  0  0  0  0  0  0  0  0  0  0  0
    8.4115  -16.5915   27.5038 O   0  0  0  0  0  0  0  0  0  0  0  0
   10.0549  -17.9338   28.2805 O   0  0  0  0  0  0  0  0  0  0  0  0
  2  1  1  1
  3  2  1  0
  4  2  1  0
  5  4  2  0
  6  7  1  0
  7  8  1  0
  8  9  1  0
 10  9  1  1
 10 11  1  0
 10 12  1  0
 11  4  1  0
 12 13  2  0
 12 18  1  0
 15 16  1  1
 15 14  1  0
 17 15  1  0
 17 18  1  6
 19 17  1  0
 19 21  1  0
 20 19  2  0
M  END
$$$$
