AMV.pdb
     RDKit          3D

 21 20  0  0  1  0  0  0  0  0999 V2000
    7.5675  -12.8296   19.7864 C   0  0  0  0  0  0  0  0  0  0  0  0
    7.5089  -14.2257   20.3204 C   0  0  2  0  0  0  0  0  0  0  0  0
    6.1658  -14.7717   20.3433 N   0  0  0  0  0  0  0  0  0  0  0  0
    8.1425  -14.2873   21.6589 C   0  0  0  0  0  0  0  0  0  0  0  0
    9.3741  -14.0848   21.7415 O   0  0  0  0  0  0  0  0  0  0  0  0
    7.3194  -11.5051   27.5842 C   0  0  0  0  0  0  0  0  0  0  0  0
    5.9894  -11.9392   26.4396 S   0  0  0  0  0  0  0  0  0  0  0  0
    6.6260  -12.6789   24.9215 C   0  0  0  0  0  0  0  0  0  0  0  0
    6.9789  -14.1231   25.1535 C   0  0  0  0  0  0  0  0  0  0  0  0
    8.0390  -14.5662   24.1677 C   0  0  2  0  0  0  0  0  0  0  0  0
    7.4363  -14.5619   22.8493 N   0  0  0  0  0  0  0  0  0  0  0  0
    8.5512  -15.9161   24.5142 C   0  0  0  0  0  0  0  0  0  0  0  0
    7.7432  -16.8797   24.5077 O   0  0  0  0  0  0  0  0  0  0  0  0
   11.1647  -17.9182   22.8672 C   0  0  0  0  0  0  0  0  0  0  0  0
   11.5463  -17.9030   24.3308 C   0  0  1  0  0  0  0  0  0  0  0  0
   12.7088  -16.9835   24.4931 C   0  0  0  0  0  0  0  0  0  0  0  0
   10.3408  -17.5013   25.1537 C   0  0  2  0  0  0  0  0  0  0  0  0
    9.8951  -16.1699   24.8492 N   0  0  0  0  0  0  0  0  0  0  0  0
   10.5776  -17.6983   26.6068 C   0  0  0  0  0  0  0  0  0  0  0  0
   10.5294  -16.7035   27.3740 O   0  0  0  0  0  0  0  0  0  0  0  0
   10.8532  -18.9313   27.1801 O   0  0  0  0  0  0  0  0  0  0  0  0
  2  1  1  1
  3  2  1  0
  4  2  1  0
  5  4  2  0
  6  7  1  0
  7  8  1  0
  8  9  1  0
 10  9  1  1
 10 11  1  0
 10 12  1  0
 11  4  1  0
 12 13  2  0
 12 18  1  0
 15 16  1  6
 15 14  1  0
 17 15  1  0
 17 18  1  1
 19 17  1  0
 19 21  1  0
 20 19  2  0
M  END
$$$$
