AMV.pdb
     RDKit          3D

 21 20  0  0  1  0  0  0  0  0999 V2000
    7.1137  -17.4614   20.3238 C   0  0  0  0  0  0  0  0  0  0  0  0
    7.4644  -16.0169   20.1561 C   0  0  2  0  0  0  0  0  0  0  0  0
    8.2724  -15.7589   18.9801 N   0  0  0  0  0  0  0  0  0  0  0  0
    8.1150  -15.5036   21.3848 C   0  0  0  0  0  0  0  0  0  0  0  0
    9.3638  -15.5313   21.4502 O   0  0  0  0  0  0  0  0  0  0  0  0
    7.1060  -11.4908   28.1514 C   0  0  0  0  0  0  0  0  0  0  0  0
    6.3811  -12.2502   26.6798 S   0  0  0  0  0  0  0  0  0  0  0  0
    7.5725  -13.2839   25.8028 C   0  0  0  0  0  0  0  0  0  0  0  0
    7.0054  -13.7265   24.4814 C   0  0  0  0  0  0  0  0  0  0  0  0
    8.0336  -14.5315   23.7154 C   0  0  2  0  0  0  0  0  0  0  0  0
    7.4066  -14.9837   22.4890 N   0  0  0  0  0  0  0  0  0  0  0  0
    8.5130  -15.6813   24.5233 C   0  0  0  0  0  0  0  0  0  0  0  0
    7.7055  -16.6129   24.7716 O   0  0  0  0  0  0  0  0  0  0  0  0
   12.1557  -18.5909   25.9112 C   0  0  0  0  0  0  0  0  0  0  0  0
   11.6964  -17.3530   25.1733 C   0  0  1  0  0  0  0  0  0  0  0  0
   11.7965  -17.6261   23.7108 C   0  0  0  0  0  0  0  0  0  0  0  0
   10.2963  -16.9967   25.6252 C   0  0  2  0  0  0  0  0  0  0  0  0
    9.8252  -15.7798   25.0243 N   0  0  0  0  0  0  0  0  0  0  0  0
   10.1865  -16.9738   27.1063 C   0  0  0  0  0  0  0  0  0  0  0  0
   10.2385  -15.8699   27.7057 O   0  0  0  0  0  0  0  0  0  0  0  0
   10.0275  -18.1127   27.8826 O   0  0  0  0  0  0  0  0  0  0  0  0
  2  1  1  1
  3  2  1  0
  4  2  1  0
  5  4  2  0
  6  7  1  0
  7  8  1  0
  8  9  1  0
 10  9  1  1
 10 11  1  0
 10 12  1  0
 11  4  1  0
 12 13  2  0
 12 18  1  0
 15 16  1  6
 15 14  1  0
 17 15  1  0
 17 18  1  1
 19 17  1  0
 19 21  1  0
 20 19  2  0
M  END
$$$$
