PAY.pdb
     RDKit          3D

 25 26  0  0  1  0  0  0  0  0999 V2000
    9.2376  -14.0753   18.8817 N   0  0  0  0  0  0  0  0  0  0  0  0
    8.2614  -13.9584   17.8386 C   0  0  0  0  0  0  0  0  0  0  0  0
    7.5650  -12.6602   18.1731 C   0  0  0  0  0  0  0  0  0  0  0  0
    7.5923  -12.5830   19.6796 C   0  0  0  0  0  0  0  0  0  0  0  0
    8.6587  -13.5816   20.0838 C   0  0  1  0  0  0  0  0  0  0  0  0
    8.1647  -14.5802   21.0307 C   0  0  0  0  0  0  0  0  0  0  0  0
    7.3607  -14.1926   21.9496 O   0  0  0  0  0  0  0  0  0  0  0  0
    7.9998  -18.3022   21.6281 C   0  0  0  0  0  0  0  0  0  0  0  0
    7.9207  -16.8683   22.0685 C   0  0  2  0  0  0  0  0  0  0  0  0
    8.4775  -15.9619   21.0535 N   0  0  0  0  0  0  0  0  0  0  0  0
    8.5553  -16.6368   23.3853 C   0  0  0  0  0  0  0  0  0  0  0  0
    9.7367  -16.2313   23.4063 O   0  0  0  0  0  0  0  0  0  0  0  0
    6.5601  -10.7265   26.2402 O   0  0  0  0  0  0  0  0  0  0  0  0
    6.8601  -12.0730   26.4361 C   0  0  0  0  0  0  0  0  0  0  0  0
    8.1412  -12.5104   26.6857 C   0  0  0  0  0  0  0  0  0  0  0  0
    8.4029  -13.8586   26.8759 C   0  0  0  0  0  0  0  0  0  0  0  0
    7.4042  -14.8065   26.8239 C   0  0  0  0  0  0  0  0  0  0  0  0
    7.6515  -16.2424   26.9864 C   0  0  0  0  0  0  0  0  0  0  0  0
    8.5588  -16.7287   25.9215 C   0  0  2  0  0  0  0  0  0  0  0  0
    7.9073  -16.8461   24.6238 N   0  0  0  0  0  0  0  0  0  0  0  0
    9.2417  -17.9650   26.3057 C   0  0  0  0  0  0  0  0  0  0  0  0
    9.9660  -17.9128   27.3556 O   0  0  0  0  0  0  0  0  0  0  0  0
    6.1342  -14.3503   26.5737 C   0  0  0  0  0  0  0  0  0  0  0  0
    5.8563  -13.0087   26.3818 C   0  0  0  0  0  0  0  0  0  0  0  0
    9.1874  -19.1800   25.6621 O   0  0  0  0  0  0  0  0  0  0  0  0
  1  5  1  0
  2  1  1  0
  3  2  1  0
  3  4  1  0
  4  5  1  0
  5  6  1  6
  6 10  1  0
  6  7  2  0
  9  8  1  6
  9 11  1  0
 10  9  1  0
 11 12  2  0
 13 14  1  0
 14 15  2  0
 15 16  1  0
 17 18  1  0
 17 16  2  0
 19 18  1  1
 19 21  1  0
 20 19  1  0
 20 11  1  0
 21 25  1  0
 22 21  2  0
 23 17  1  0
 24 23  2  0
 24 14  1  0
M  END
$$$$
