PAY.pdb
     RDKit          3D

 25 26  0  0  1  0  0  0  0  0999 V2000
    9.4162  -14.1583   18.7057 N   0  0  0  0  0  0  0  0  0  0  0  0
    8.3306  -14.0665   17.7740 C   0  0  0  0  0  0  0  0  0  0  0  0
    7.5866  -12.8386   18.2440 C   0  0  0  0  0  0  0  0  0  0  0  0
    7.7658  -12.8268   19.7419 C   0  0  0  0  0  0  0  0  0  0  0  0
    8.9339  -13.7621   19.9840 C   0  0  1  0  0  0  0  0  0  0  0  0
    8.6105  -14.8352   20.9231 C   0  0  0  0  0  0  0  0  0  0  0  0
    7.6436  -14.6472   21.7422 O   0  0  0  0  0  0  0  0  0  0  0  0
    9.4068  -18.4381   21.7481 C   0  0  0  0  0  0  0  0  0  0  0  0
    8.8743  -17.0701   22.0664 C   0  0  2  0  0  0  0  0  0  0  0  0
    9.2559  -16.0912   21.0378 N   0  0  0  0  0  0  0  0  0  0  0  0
    9.2695  -16.5997   23.4128 C   0  0  0  0  0  0  0  0  0  0  0  0
   10.3367  -15.9597   23.5229 O   0  0  0  0  0  0  0  0  0  0  0  0
    6.3305  -10.7154   25.8101 O   0  0  0  0  0  0  0  0  0  0  0  0
    6.6669  -12.0456   26.0526 C   0  0  0  0  0  0  0  0  0  0  0  0
    5.7138  -13.0190   26.2505 C   0  0  0  0  0  0  0  0  0  0  0  0
    6.0853  -14.3333   26.4893 C   0  0  0  0  0  0  0  0  0  0  0  0
    7.4080  -14.7165   26.5380 C   0  0  0  0  0  0  0  0  0  0  0  0
    7.8355  -16.0898   26.8219 C   0  0  0  0  0  0  0  0  0  0  0  0
    8.9522  -16.4729   25.9275 C   0  0  2  0  0  0  0  0  0  0  0  0
    8.5137  -16.8294   24.5848 N   0  0  0  0  0  0  0  0  0  0  0  0
    9.7986  -17.5094   26.5208 C   0  0  0  0  0  0  0  0  0  0  0  0
   10.3633  -17.2185   27.6281 O   0  0  0  0  0  0  0  0  0  0  0  0
    8.3426  -13.7315   26.3386 C   0  0  0  0  0  0  0  0  0  0  0  0
    7.9886  -12.4157   26.0991 C   0  0  0  0  0  0  0  0  0  0  0  0
   10.0513  -18.7653   26.0187 O   0  0  0  0  0  0  0  0  0  0  0  0
  1  5  1  0
  2  1  1  0
  3  2  1  0
  3  4  1  0
  4  5  1  0
  5  6  1  1
  6 10  1  0
  6  7  2  0
  9  8  1  6
  9 11  1  0
 10  9  1  0
 11 12  2  0
 13 14  1  0
 14 15  2  0
 15 16  1  0
 17 18  1  0
 17 16  2  0
 19 18  1  1
 19 21  1  0
 20 19  1  0
 20 11  1  0
 21 25  1  0
 22 21  2  0
 23 17  1  0
 24 23  2  0
 24 14  1  0
M  END
$$$$
