PAY.pdb
     RDKit          3D

 25 26  0  0  1  0  0  0  0  0999 V2000
    9.2575  -14.3250   18.8109 N   0  0  0  0  0  0  0  0  0  0  0  0
    8.2805  -14.2833   17.7628 C   0  0  0  0  0  0  0  0  0  0  0  0
    7.5945  -12.9575   17.9947 C   0  0  0  0  0  0  0  0  0  0  0  0
    7.6248  -12.7620   19.4903 C   0  0  0  0  0  0  0  0  0  0  0  0
    8.6843  -13.7337   19.9709 C   0  0  1  0  0  0  0  0  0  0  0  0
    8.1844  -14.6508   20.9941 C   0  0  0  0  0  0  0  0  0  0  0  0
    7.4784  -14.1639   21.9457 O   0  0  0  0  0  0  0  0  0  0  0  0
    7.8305  -18.3341   21.7701 C   0  0  0  0  0  0  0  0  0  0  0  0
    7.8043  -16.8749   22.1257 C   0  0  2  0  0  0  0  0  0  0  0  0
    8.3932  -16.0505   21.0601 N   0  0  0  0  0  0  0  0  0  0  0  0
    8.4478  -16.5901   23.4276 C   0  0  0  0  0  0  0  0  0  0  0  0
    9.6434  -16.2276   23.4265 O   0  0  0  0  0  0  0  0  0  0  0  0
    6.2418  -10.4694   25.9292 O   0  0  0  0  0  0  0  0  0  0  0  0
    6.5171  -11.8144   26.1672 C   0  0  0  0  0  0  0  0  0  0  0  0
    5.5906  -12.8053   25.9334 C   0  0  0  0  0  0  0  0  0  0  0  0
    5.8995  -14.1340   26.1816 C   0  0  0  0  0  0  0  0  0  0  0  0
    7.1316  -14.5146   26.6671 C   0  0  0  0  0  0  0  0  0  0  0  0
    7.4788  -15.9057   26.9726 C   0  0  0  0  0  0  0  0  0  0  0  0
    8.4238  -16.4311   25.9603 C   0  0  2  0  0  0  0  0  0  0  0  0
    7.7935  -16.7025   24.6753 N   0  0  0  0  0  0  0  0  0  0  0  0
    9.1737  -17.5856   26.4577 C   0  0  0  0  0  0  0  0  0  0  0  0
    8.8308  -18.7271   26.0008 O   0  0  0  0  0  0  0  0  0  0  0  0
    8.0409  -13.5119   26.8940 C   0  0  0  0  0  0  0  0  0  0  0  0
    7.7487  -12.1816   26.6513 C   0  0  0  0  0  0  0  0  0  0  0  0
   10.2107  -17.5771   27.3621 O   0  0  0  0  0  0  0  0  0  0  0  0
  1  5  1  0
  2  1  1  0
  3  2  1  0
  3  4  1  0
  4  5  1  0
  5  6  1  1
  6 10  1  0
  6  7  2  0
  9  8  1  6
  9 11  1  0
 10  9  1  0
 11 12  2  0
 13 14  1  0
 14 15  2  0
 15 16  1  0
 17 18  1  0
 17 16  2  0
 19 18  1  1
 19 21  1  0
 20 19  1  0
 20 11  1  0
 21 25  1  0
 22 21  2  0
 23 17  1  0
 24 23  2  0
 24 14  1  0
M  END
$$$$
