PAY.pdb
     RDKit          3D

 25 26  0  0  1  0  0  0  0  0999 V2000
    9.1817  -14.6096   18.1266 N   0  0  0  0  0  0  0  0  0  0  0  0
    7.9994  -14.4257   17.3372 C   0  0  0  0  0  0  0  0  0  0  0  0
    7.6037  -13.0018   17.6504 C   0  0  0  0  0  0  0  0  0  0  0  0
    8.0237  -12.7893   19.0837 C   0  0  0  0  0  0  0  0  0  0  0  0
    9.0040  -13.9134   19.3544 C   0  0  1  0  0  0  0  0  0  0  0  0
    8.6297  -14.7192   20.5157 C   0  0  0  0  0  0  0  0  0  0  0  0
    8.4238  -14.1151   21.6264 O   0  0  0  0  0  0  0  0  0  0  0  0
    8.0046  -18.3103   21.5853 C   0  0  0  0  0  0  0  0  0  0  0  0
    8.1454  -16.8317   21.8096 C   0  0  2  0  0  0  0  0  0  0  0  0
    8.4630  -16.1254   20.5597 N   0  0  0  0  0  0  0  0  0  0  0  0
    9.1299  -16.5027   22.8645 C   0  0  0  0  0  0  0  0  0  0  0  0
   10.3339  -16.4215   22.5413 O   0  0  0  0  0  0  0  0  0  0  0  0
    4.9773  -12.0761   26.8378 O   0  0  0  0  0  0  0  0  0  0  0  0
    6.1824  -12.6603   26.4534 C   0  0  0  0  0  0  0  0  0  0  0  0
    6.3667  -13.2079   25.2039 C   0  0  0  0  0  0  0  0  0  0  0  0
    7.5801  -13.7810   24.8557 C   0  0  0  0  0  0  0  0  0  0  0  0
    8.6405  -13.8265   25.7345 C   0  0  0  0  0  0  0  0  0  0  0  0
    9.9247  -14.4550   25.4105 C   0  0  0  0  0  0  0  0  0  0  0  0
    9.7530  -15.9178   25.2541 C   0  0  2  0  0  0  0  0  0  0  0  0
    8.7929  -16.2739   24.2179 N   0  0  0  0  0  0  0  0  0  0  0  0
    9.4532  -16.5737   26.5279 C   0  0  0  0  0  0  0  0  0  0  0  0
    8.3185  -17.1517   26.6176 O   0  0  0  0  0  0  0  0  0  0  0  0
    8.4366  -13.2758   26.9749 C   0  0  0  0  0  0  0  0  0  0  0  0
    7.2321  -12.7000   27.3381 C   0  0  0  0  0  0  0  0  0  0  0  0
   10.2606  -16.6393   27.6401 O   0  0  0  0  0  0  0  0  0  0  0  0
  1  5  1  0
  2  1  1  0
  3  2  1  0
  3  4  1  0
  4  5  1  0
  5  6  1  1
  6 10  1  0
  6  7  2  0
  9  8  1  6
  9 11  1  0
 10  9  1  0
 11 12  2  0
 13 14  1  0
 14 15  2  0
 15 16  1  0
 17 18  1  0
 17 16  2  0
 19 18  1  1
 19 21  1  0
 20 19  1  0
 20 11  1  0
 21 25  1  0
 22 21  2  0
 23 17  1  0
 24 23  2  0
 24 14  1  0
M  END
$$$$
