PAY.pdb
     RDKit          3D

 25 26  0  0  1  0  0  0  0  0999 V2000
    9.3801  -13.9144   18.5235 N   0  0  0  0  0  0  0  0  0  0  0  0
    8.2993  -13.8792   17.5826 C   0  0  0  0  0  0  0  0  0  0  0  0
    7.5071  -12.6713   18.0250 C   0  0  0  0  0  0  0  0  0  0  0  0
    7.6741  -12.6262   19.5237 C   0  0  0  0  0  0  0  0  0  0  0  0
    8.8736  -13.5135   19.7910 C   0  0  1  0  0  0  0  0  0  0  0  0
    8.5824  -14.5809   20.7470 C   0  0  0  0  0  0  0  0  0  0  0  0
    7.7493  -14.3349   21.6885 O   0  0  0  0  0  0  0  0  0  0  0  0
    9.1268  -18.2726   21.3516 C   0  0  0  0  0  0  0  0  0  0  0  0
    8.7459  -16.8818   21.7720 C   0  0  2  0  0  0  0  0  0  0  0  0
    9.1259  -15.8892   20.7560 N   0  0  0  0  0  0  0  0  0  0  0  0
    9.2918  -16.5134   23.0974 C   0  0  0  0  0  0  0  0  0  0  0  0
   10.3893  -15.9179   23.1371 O   0  0  0  0  0  0  0  0  0  0  0  0
    6.0307  -10.9922   26.0996 O   0  0  0  0  0  0  0  0  0  0  0  0
    6.5200  -12.2905   26.2271 C   0  0  0  0  0  0  0  0  0  0  0  0
    5.6891  -13.3875   26.2616 C   0  0  0  0  0  0  0  0  0  0  0  0
    6.2113  -14.6655   26.3893 C   0  0  0  0  0  0  0  0  0  0  0  0
    7.5675  -14.8894   26.4860 C   0  0  0  0  0  0  0  0  0  0  0  0
    8.1503  -16.2238   26.6563 C   0  0  0  0  0  0  0  0  0  0  0  0
    9.1944  -16.4602   25.6327 C   0  0  2  0  0  0  0  0  0  0  0  0
    8.6481  -16.7934   24.3241 N   0  0  0  0  0  0  0  0  0  0  0  0
   10.1866  -17.4399   26.0782 C   0  0  0  0  0  0  0  0  0  0  0  0
   10.1371  -18.5908   25.5282 O   0  0  0  0  0  0  0  0  0  0  0  0
    8.3787  -13.7830   26.4501 C   0  0  0  0  0  0  0  0  0  0  0  0
    7.8737  -12.5012   26.3229 C   0  0  0  0  0  0  0  0  0  0  0  0
   11.1701  -17.2572   27.0230 O   0  0  0  0  0  0  0  0  0  0  0  0
  1  5  1  0
  2  1  1  0
  3  2  1  0
  3  4  1  0
  4  5  1  0
  5  6  1  1
  6 10  1  0
  6  7  2  0
  9  8  1  6
  9 11  1  0
 10  9  1  0
 11 12  2  0
 13 14  1  0
 14 15  2  0
 15 16  1  0
 17 18  1  0
 17 16  2  0
 19 18  1  1
 19 21  1  0
 20 19  1  0
 20 11  1  0
 21 25  1  0
 22 21  2  0
 23 17  1  0
 24 23  2  0
 24 14  1  0
M  END
$$$$
