PAY.pdb
     RDKit          3D

 25 26  0  0  1  0  0  0  0  0999 V2000
    8.8579  -14.8151   18.1040 N   0  0  0  0  0  0  0  0  0  0  0  0
    7.6968  -14.5204   17.3166 C   0  0  0  0  0  0  0  0  0  0  0  0
    7.5197  -13.0342   17.5211 C   0  0  0  0  0  0  0  0  0  0  0  0
    7.9994  -12.7769   18.9281 C   0  0  0  0  0  0  0  0  0  0  0  0
    8.8119  -14.0087   19.2750 C   0  0  1  0  0  0  0  0  0  0  0  0
    8.3516  -14.6598   20.5006 C   0  0  0  0  0  0  0  0  0  0  0  0
    8.3295  -13.9676   21.5783 O   0  0  0  0  0  0  0  0  0  0  0  0
    7.0537  -17.9780   21.8174 C   0  0  0  0  0  0  0  0  0  0  0  0
    7.5258  -16.5578   21.9454 C   0  0  2  0  0  0  0  0  0  0  0  0
    7.9153  -16.0004   20.6418 N   0  0  0  0  0  0  0  0  0  0  0  0
    8.6186  -16.4032   22.9314 C   0  0  0  0  0  0  0  0  0  0  0  0
    9.7941  -16.5505   22.5351 O   0  0  0  0  0  0  0  0  0  0  0  0
    5.2198  -11.6653   27.3067 O   0  0  0  0  0  0  0  0  0  0  0  0
    6.3494  -12.3722   26.8996 C   0  0  0  0  0  0  0  0  0  0  0  0
    7.2118  -12.9578   27.7987 C   0  0  0  0  0  0  0  0  0  0  0  0
    8.3266  -13.6541   27.3574 C   0  0  0  0  0  0  0  0  0  0  0  0
    8.6153  -13.7880   26.0167 C   0  0  0  0  0  0  0  0  0  0  0  0
    9.8030  -14.4877   25.5178 C   0  0  0  0  0  0  0  0  0  0  0  0
    9.4883  -15.9128   25.2645 C   0  0  2  0  0  0  0  0  0  0  0  0
    8.4156  -16.0988   24.2966 N   0  0  0  0  0  0  0  0  0  0  0  0
    9.2401  -16.6480   26.5057 C   0  0  0  0  0  0  0  0  0  0  0  0
    8.0850  -17.1761   26.6335 O   0  0  0  0  0  0  0  0  0  0  0  0
    7.7438  -13.1968   25.1368 C   0  0  0  0  0  0  0  0  0  0  0  0
    6.6270  -12.4987   25.5606 C   0  0  0  0  0  0  0  0  0  0  0  0
   10.1156  -16.8362   27.5503 O   0  0  0  0  0  0  0  0  0  0  0  0
  1  5  1  0
  2  1  1  0
  3  2  1  0
  3  4  1  0
  4  5  1  0
  5  6  1  1
  6 10  1  0
  6  7  2  0
  9  8  1  6
  9 11  1  0
 10  9  1  0
 11 12  2  0
 13 14  1  0
 14 15  2  0
 15 16  1  0
 17 18  1  0
 17 16  2  0
 19 18  1  1
 19 21  1  0
 20 19  1  0
 20 11  1  0
 21 25  1  0
 22 21  2  0
 23 17  1  0
 24 23  2  0
 24 14  1  0
M  END
$$$$
