PAY.pdb
     RDKit          3D

 25 26  0  0  1  0  0  0  0  0999 V2000
    8.5506  -14.2207   18.5546 N   0  0  0  0  0  0  0  0  0  0  0  0
    7.2218  -13.7947   18.2266 C   0  0  0  0  0  0  0  0  0  0  0  0
    7.0951  -12.4854   18.9692 C   0  0  0  0  0  0  0  0  0  0  0  0
    7.9254  -12.6651   20.2159 C   0  0  0  0  0  0  0  0  0  0  0  0
    8.8083  -13.8576   19.9057 C   0  0  1  0  0  0  0  0  0  0  0  0
    8.6899  -14.9202   20.9031 C   0  0  0  0  0  0  0  0  0  0  0  0
    7.5182  -15.2248   21.3219 O   0  0  0  0  0  0  0  0  0  0  0  0
   10.3356  -17.9839   22.0647 C   0  0  0  0  0  0  0  0  0  0  0  0
    9.4903  -16.7884   22.4001 C   0  0  2  0  0  0  0  0  0  0  0  0
    9.7443  -15.6732   21.4762 N   0  0  0  0  0  0  0  0  0  0  0  0
    9.6450  -16.3527   23.8059 C   0  0  0  0  0  0  0  0  0  0  0  0
   10.4923  -15.4701   24.0587 O   0  0  0  0  0  0  0  0  0  0  0  0
    6.3730  -10.7198   26.1495 O   0  0  0  0  0  0  0  0  0  0  0  0
    6.7142  -12.0608   26.3135 C   0  0  0  0  0  0  0  0  0  0  0  0
    6.3634  -13.0246   25.3954 C   0  0  0  0  0  0  0  0  0  0  0  0
    6.7203  -14.3499   25.5911 C   0  0  0  0  0  0  0  0  0  0  0  0
    7.4326  -14.7540   26.6993 C   0  0  0  0  0  0  0  0  0  0  0  0
    7.7961  -16.1512   26.9539 C   0  0  0  0  0  0  0  0  0  0  0  0
    9.0707  -16.4799   26.2746 C   0  0  2  0  0  0  0  0  0  0  0  0
    8.8929  -16.8734   24.8833 N   0  0  0  0  0  0  0  0  0  0  0  0
    9.8548  -17.4614   27.0259 C   0  0  0  0  0  0  0  0  0  0  0  0
    9.9915  -18.6117   26.4897 O   0  0  0  0  0  0  0  0  0  0  0  0
    7.7723  -13.7783   27.6028 C   0  0  0  0  0  0  0  0  0  0  0  0
    7.4241  -12.4516   27.4222 C   0  0  0  0  0  0  0  0  0  0  0  0
   10.4644  -17.2809   28.2462 O   0  0  0  0  0  0  0  0  0  0  0  0
  1  5  1  0
  2  1  1  0
  3  2  1  0
  3  4  1  0
  4  5  1  0
  5  6  1  1
  6 10  1  0
  6  7  2  0
  9  8  1  6
  9 11  1  0
 10  9  1  0
 11 12  2  0
 13 14  1  0
 14 15  2  0
 15 16  1  0
 17 18  1  0
 17 16  2  0
 19 18  1  1
 19 21  1  0
 20 19  1  0
 20 11  1  0
 21 25  1  0
 22 21  2  0
 23 17  1  0
 24 23  2  0
 24 14  1  0
M  END
$$$$
