PAY.pdb
     RDKit          3D

 25 26  0  0  1  0  0  0  0  0999 V2000
    9.3067  -14.1202   18.6869 N   0  0  0  0  0  0  0  0  0  0  0  0
    8.3230  -14.1170   17.6443 C   0  0  0  0  0  0  0  0  0  0  0  0
    7.5950  -12.8131   17.8723 C   0  0  0  0  0  0  0  0  0  0  0  0
    7.6271  -12.6077   19.3665 C   0  0  0  0  0  0  0  0  0  0  0  0
    8.7207  -13.5411   19.8467 C   0  0  1  0  0  0  0  0  0  0  0  0
    8.2570  -14.4679   20.8782 C   0  0  0  0  0  0  0  0  0  0  0  0
    7.6190  -13.9849   21.8786 O   0  0  0  0  0  0  0  0  0  0  0  0
    7.9510  -18.1529   21.6821 C   0  0  0  0  0  0  0  0  0  0  0  0
    7.9801  -16.6935   22.0364 C   0  0  2  0  0  0  0  0  0  0  0  0
    8.4335  -15.8734   20.9035 N   0  0  0  0  0  0  0  0  0  0  0  0
    8.7864  -16.4126   23.2452 C   0  0  0  0  0  0  0  0  0  0  0  0
    9.9768  -16.0660   23.0913 O   0  0  0  0  0  0  0  0  0  0  0  0
    5.9491  -10.8527   26.0939 O   0  0  0  0  0  0  0  0  0  0  0  0
    6.5593  -12.0858   26.3144 C   0  0  0  0  0  0  0  0  0  0  0  0
    7.9179  -12.2095   26.4984 C   0  0  0  0  0  0  0  0  0  0  0  0
    8.4911  -13.4531   26.7157 C   0  0  0  0  0  0  0  0  0  0  0  0
    7.7346  -14.6041   26.7563 C   0  0  0  0  0  0  0  0  0  0  0  0
    8.3124  -15.9375   26.9497 C   0  0  0  0  0  0  0  0  0  0  0  0
    9.1057  -16.3283   25.7615 C   0  0  2  0  0  0  0  0  0  0  0  0
    8.2936  -16.5121   24.5661 N   0  0  0  0  0  0  0  0  0  0  0  0
    9.9579  -17.4880   26.0287 C   0  0  0  0  0  0  0  0  0  0  0  0
    9.5855  -18.5978   25.5195 O   0  0  0  0  0  0  0  0  0  0  0  0
    6.3826  -14.4597   26.5703 C   0  0  0  0  0  0  0  0  0  0  0  0
    5.7950  -13.2262   26.3525 C   0  0  0  0  0  0  0  0  0  0  0  0
   11.1191  -17.5147   26.7665 O   0  0  0  0  0  0  0  0  0  0  0  0
  1  5  1  0
  2  1  1  0
  3  2  1  0
  3  4  1  0
  4  5  1  0
  5  6  1  1
  6 10  1  0
  6  7  2  0
  9  8  1  6
  9 11  1  0
 10  9  1  0
 11 12  2  0
 13 14  1  0
 14 15  2  0
 15 16  1  0
 17 18  1  0
 17 16  2  0
 19 18  1  1
 19 21  1  0
 20 19  1  0
 20 11  1  0
 21 25  1  0
 22 21  2  0
 23 17  1  0
 24 23  2  0
 24 14  1  0
M  END
$$$$
