PAY.pdb
     RDKit          3D

 25 26  0  0  1  0  0  0  0  0999 V2000
    5.8746  -18.5697   21.6384 N   0  0  0  0  0  0  0  0  0  0  0  0
    4.7111  -18.2718   20.8559 C   0  0  0  0  0  0  0  0  0  0  0  0
    5.0393  -18.8887   19.5165 C   0  0  0  0  0  0  0  0  0  0  0  0
    6.5346  -18.7434   19.3791 C   0  0  0  0  0  0  0  0  0  0  0  0
    7.0128  -18.4686   20.7910 C   0  0  1  0  0  0  0  0  0  0  0  0
    7.7958  -17.2378   20.8906 C   0  0  0  0  0  0  0  0  0  0  0  0
    8.9702  -17.2285   20.3791 O   0  0  0  0  0  0  0  0  0  0  0  0
    7.6341  -13.5771   21.5453 C   0  0  0  0  0  0  0  0  0  0  0  0
    8.3335  -14.9000   21.6765 C   0  0  2  0  0  0  0  0  0  0  0  0
    7.3998  -16.0223   21.5013 N   0  0  0  0  0  0  0  0  0  0  0  0
    9.0804  -15.0306   22.9474 C   0  0  0  0  0  0  0  0  0  0  0  0
   10.0390  -14.2553   23.1491 O   0  0  0  0  0  0  0  0  0  0  0  0
    5.6691  -11.1052   26.3209 O   0  0  0  0  0  0  0  0  0  0  0  0
    6.3974  -12.2926   26.3540 C   0  0  0  0  0  0  0  0  0  0  0  0
    7.7400  -12.3216   26.6566 C   0  0  0  0  0  0  0  0  0  0  0  0
    8.4330  -13.5221   26.6805 C   0  0  0  0  0  0  0  0  0  0  0  0
    7.8152  -14.7228   26.4058 C   0  0  0  0  0  0  0  0  0  0  0  0
    8.5254  -16.0051   26.3888 C   0  0  0  0  0  0  0  0  0  0  0  0
    9.4548  -16.0597   25.2368 C   0  0  2  0  0  0  0  0  0  0  0  0
    8.7767  -15.9794   23.9499 N   0  0  0  0  0  0  0  0  0  0  0  0
   10.3534  -17.2128   25.3118 C   0  0  0  0  0  0  0  0  0  0  0  0
   11.0340  -17.3354   26.3848 O   0  0  0  0  0  0  0  0  0  0  0  0
    6.4768  -14.6726   26.1062 C   0  0  0  0  0  0  0  0  0  0  0  0
    5.7707  -13.4832   26.0783 C   0  0  0  0  0  0  0  0  0  0  0  0
   10.5443  -18.1823   24.3543 O   0  0  0  0  0  0  0  0  0  0  0  0
  1  5  1  0
  2  1  1  0
  3  2  1  0
  3  4  1  0
  4  5  1  0
  5  6  1  6
  6 10  1  0
  6  7  2  0
  9  8  1  1
  9 11  1  0
 10  9  1  0
 11 12  2  0
 13 14  1  0
 14 15  2  0
 15 16  1  0
 17 18  1  0
 17 16  2  0
 19 18  1  1
 19 21  1  0
 20 19  1  0
 20 11  1  0
 21 25  1  0
 22 21  2  0
 23 17  1  0
 24 23  2  0
 24 14  1  0
M  END
$$$$
