PAY.pdb
     RDKit          3D

 25 26  0  0  1  0  0  0  0  0999 V2000
    9.4069  -14.1108   18.7949 N   0  0  0  0  0  0  0  0  0  0  0  0
    8.4047  -14.0812   17.7705 C   0  0  0  0  0  0  0  0  0  0  0  0
    7.6322  -12.8234   18.0916 C   0  0  0  0  0  0  0  0  0  0  0  0
    7.6841  -12.7100   19.5951 C   0  0  0  0  0  0  0  0  0  0  0  0
    8.8210  -13.6281   19.9981 C   0  0  1  0  0  0  0  0  0  0  0  0
    8.4119  -14.6345   20.9767 C   0  0  0  0  0  0  0  0  0  0  0  0
    7.6695  -14.2598   21.9510 O   0  0  0  0  0  0  0  0  0  0  0  0
    8.4505  -18.3680   21.6012 C   0  0  0  0  0  0  0  0  0  0  0  0
    8.2420  -16.9353   22.0011 C   0  0  2  0  0  0  0  0  0  0  0  0
    8.7474  -16.0110   20.9754 N   0  0  0  0  0  0  0  0  0  0  0  0
    8.8217  -16.6192   23.3256 C   0  0  0  0  0  0  0  0  0  0  0  0
    9.9859  -16.1678   23.3661 O   0  0  0  0  0  0  0  0  0  0  0  0
    6.1685  -10.6375   25.8463 O   0  0  0  0  0  0  0  0  0  0  0  0
    6.5641  -11.9489   26.1018 C   0  0  0  0  0  0  0  0  0  0  0  0
    7.8544  -12.2696   26.4584 C   0  0  0  0  0  0  0  0  0  0  0  0
    8.2125  -13.5860   26.7055 C   0  0  0  0  0  0  0  0  0  0  0  0
    7.3035  -14.6168   26.6059 C   0  0  0  0  0  0  0  0  0  0  0  0
    7.6568  -16.0224   26.8267 C   0  0  0  0  0  0  0  0  0  0  0  0
    8.6895  -16.4489   25.8543 C   0  0  2  0  0  0  0  0  0  0  0  0
    8.1395  -16.7962   24.5507 N   0  0  0  0  0  0  0  0  0  0  0  0
    9.5414  -17.5115   26.3905 C   0  0  0  0  0  0  0  0  0  0  0  0
    9.3686  -18.6794   25.9051 O   0  0  0  0  0  0  0  0  0  0  0  0
    6.0228  -14.2764   26.2488 C   0  0  0  0  0  0  0  0  0  0  0  0
    5.6492  -12.9679   25.9991 C   0  0  0  0  0  0  0  0  0  0  0  0
   10.5115  -17.3910   27.3589 O   0  0  0  0  0  0  0  0  0  0  0  0
  1  5  1  0
  2  1  1  0
  3  2  1  0
  3  4  1  0
  4  5  1  0
  5  6  1  1
  6 10  1  0
  6  7  2  0
  9  8  1  6
  9 11  1  0
 10  9  1  0
 11 12  2  0
 13 14  1  0
 14 15  2  0
 15 16  1  0
 17 18  1  0
 17 16  2  0
 19 18  1  1
 19 21  1  0
 20 19  1  0
 20 11  1  0
 21 25  1  0
 22 21  2  0
 23 17  1  0
 24 23  2  0
 24 14  1  0
M  END
$$$$
