PAY.pdb
     RDKit          3D

 25 26  0  0  1  0  0  0  0  0999 V2000
    9.0743  -14.4254   18.2628 N   0  0  0  0  0  0  0  0  0  0  0  0
    7.7941  -14.5756   17.6355 C   0  0  0  0  0  0  0  0  0  0  0  0
    7.0764  -13.3052   18.0269 C   0  0  0  0  0  0  0  0  0  0  0  0
    7.6058  -12.9681   19.3987 C   0  0  0  0  0  0  0  0  0  0  0  0
    8.8771  -13.7850   19.5177 C   0  0  1  0  0  0  0  0  0  0  0  0
    8.8849  -14.6453   20.7000 C   0  0  0  0  0  0  0  0  0  0  0  0
    8.6907  -14.0997   21.8427 O   0  0  0  0  0  0  0  0  0  0  0  0
    9.2726  -18.2650   21.7735 C   0  0  0  0  0  0  0  0  0  0  0  0
    9.2457  -16.7800   21.9979 C   0  0  2  0  0  0  0  0  0  0  0  0
    9.0865  -16.0473   20.7331 N   0  0  0  0  0  0  0  0  0  0  0  0
   10.4266  -16.2912   22.7440 C   0  0  0  0  0  0  0  0  0  0  0  0
   11.0394  -15.3004   22.2926 O   0  0  0  0  0  0  0  0  0  0  0  0
    9.4539  -15.3032   30.3364 O   0  0  0  0  0  0  0  0  0  0  0  0
   10.0827  -15.2825   29.0932 C   0  0  0  0  0  0  0  0  0  0  0  0
   11.0873  -16.1643   28.7644 C   0  0  0  0  0  0  0  0  0  0  0  0
   11.6907  -16.1147   27.5171 C   0  0  0  0  0  0  0  0  0  0  0  0
   11.3152  -15.1920   26.5651 C   0  0  0  0  0  0  0  0  0  0  0  0
   11.9553  -15.0900   25.2501 C   0  0  0  0  0  0  0  0  0  0  0  0
   12.1002  -16.4348   24.6464 C   0  0  2  0  0  0  0  0  0  0  0  0
   10.9061  -16.8759   23.9380 N   0  0  0  0  0  0  0  0  0  0  0  0
   12.5572  -17.4267   25.6210 C   0  0  0  0  0  0  0  0  0  0  0  0
   13.7494  -17.2900   26.0563 O   0  0  0  0  0  0  0  0  0  0  0  0
   10.3124  -14.3217   26.9123 C   0  0  0  0  0  0  0  0  0  0  0  0
    9.7000  -14.3581   28.1524 C   0  0  0  0  0  0  0  0  0  0  0  0
   11.8426  -18.4899   26.1233 O   0  0  0  0  0  0  0  0  0  0  0  0
  1  5  1  0
  2  1  1  0
  3  2  1  0
  3  4  1  0
  4  5  1  0
  5  6  1  1
  6 10  1  0
  6  7  2  0
  9  8  1  6
  9 11  1  0
 10  9  1  0
 11 12  2  0
 13 14  1  0
 14 15  2  0
 15 16  1  0
 17 18  1  0
 17 16  2  0
 19 18  1  1
 19 21  1  0
 20 19  1  0
 20 11  1  0
 21 25  1  0
 22 21  2  0
 23 17  1  0
 24 23  2  0
 24 14  1  0
M  END
$$$$
