PAY.pdb
     RDKit          3D

 25 26  0  0  1  0  0  0  0  0999 V2000
    8.3284  -14.3236   18.7845 N   0  0  0  0  0  0  0  0  0  0  0  0
    6.9564  -13.9215   18.6800 C   0  0  0  0  0  0  0  0  0  0  0  0
    6.9203  -12.6378   19.4756 C   0  0  0  0  0  0  0  0  0  0  0  0
    7.9379  -12.8329   20.5722 C   0  0  0  0  0  0  0  0  0  0  0  0
    8.7856  -13.9936   20.0906 C   0  0  1  0  0  0  0  0  0  0  0  0
    8.8450  -15.0873   21.0592 C   0  0  0  0  0  0  0  0  0  0  0  0
    7.7798  -15.3726   21.7110 O   0  0  0  0  0  0  0  0  0  0  0  0
   11.0697  -17.8509   22.3616 C   0  0  0  0  0  0  0  0  0  0  0  0
    9.9545  -16.8519   22.4828 C   0  0  2  0  0  0  0  0  0  0  0  0
    9.9699  -15.8903   21.3706 N   0  0  0  0  0  0  0  0  0  0  0  0
    9.9525  -16.1495   23.7855 C   0  0  0  0  0  0  0  0  0  0  0  0
    9.7326  -14.9198   23.7908 O   0  0  0  0  0  0  0  0  0  0  0  0
    6.3597  -10.9542   26.5982 O   0  0  0  0  0  0  0  0  0  0  0  0
    6.7802  -12.2763   26.4697 C   0  0  0  0  0  0  0  0  0  0  0  0
    7.9986  -12.7080   26.9433 C   0  0  0  0  0  0  0  0  0  0  0  0
    8.3843  -14.0317   26.7980 C   0  0  0  0  0  0  0  0  0  0  0  0
    7.5746  -14.9604   26.1810 C   0  0  0  0  0  0  0  0  0  0  0  0
    7.9659  -16.3589   25.9806 C   0  0  0  0  0  0  0  0  0  0  0  0
    9.4151  -16.5262   26.2369 C   0  0  2  0  0  0  0  0  0  0  0  0
   10.1844  -16.7839   25.0270 N   0  0  0  0  0  0  0  0  0  0  0  0
    9.6763  -17.5241   27.2754 C   0  0  0  0  0  0  0  0  0  0  0  0
    9.2312  -17.2613   28.4426 O   0  0  0  0  0  0  0  0  0  0  0  0
    6.3645  -14.5103   25.7156 C   0  0  0  0  0  0  0  0  0  0  0  0
    5.9646  -13.1929   25.8527 C   0  0  0  0  0  0  0  0  0  0  0  0
   10.3466  -18.7173   27.1328 O   0  0  0  0  0  0  0  0  0  0  0  0
  1  5  1  0
  2  1  1  0
  3  2  1  0
  3  4  1  0
  4  5  1  0
  5  6  1  1
  6 10  1  0
  6  7  2  0
  9  8  1  1
  9 11  1  0
 10  9  1  0
 11 12  2  0
 13 14  1  0
 14 15  2  0
 15 16  1  0
 17 18  1  0
 17 16  2  0
 19 18  1  6
 19 21  1  0
 20 19  1  0
 20 11  1  0
 21 25  1  0
 22 21  2  0
 23 17  1  0
 24 23  2  0
 24 14  1  0
M  END
$$$$
