PAY.pdb
     RDKit          3D

 25 26  0  0  1  0  0  0  0  0999 V2000
    9.1248  -14.0656   18.8782 N   0  0  0  0  0  0  0  0  0  0  0  0
    8.0124  -14.0002   17.9764 C   0  0  0  0  0  0  0  0  0  0  0  0
    7.2951  -12.7459   18.4171 C   0  0  0  0  0  0  0  0  0  0  0  0
    7.5197  -12.6743   19.9072 C   0  0  0  0  0  0  0  0  0  0  0  0
    8.6853  -13.6118   20.1529 C   0  0  1  0  0  0  0  0  0  0  0  0
    8.3800  -14.6416   21.1449 C   0  0  0  0  0  0  0  0  0  0  0  0
    7.4473  -14.4052   21.9905 O   0  0  0  0  0  0  0  0  0  0  0  0
    8.8813  -18.2953   21.8303 C   0  0  0  0  0  0  0  0  0  0  0  0
    8.5475  -16.8971   22.2659 C   0  0  2  0  0  0  0  0  0  0  0  0
    9.0093  -15.9031   21.2858 N   0  0  0  0  0  0  0  0  0  0  0  0
    9.0591  -16.5798   23.6179 C   0  0  0  0  0  0  0  0  0  0  0  0
   10.1654  -16.0065   23.7091 O   0  0  0  0  0  0  0  0  0  0  0  0
    6.2618  -10.8458   25.9436 O   0  0  0  0  0  0  0  0  0  0  0  0
    6.6740  -12.1418   26.2464 C   0  0  0  0  0  0  0  0  0  0  0  0
    7.9067  -12.4097   26.7976 C   0  0  0  0  0  0  0  0  0  0  0  0
    8.2835  -13.7124   27.0862 C   0  0  0  0  0  0  0  0  0  0  0  0
    7.4505  -14.7814   26.8368 C   0  0  0  0  0  0  0  0  0  0  0  0
    7.8309  -16.1729   27.0979 C   0  0  0  0  0  0  0  0  0  0  0  0
    8.8849  -16.6015   26.1496 C   0  0  2  0  0  0  0  0  0  0  0  0
    8.3734  -16.8854   24.8154 N   0  0  0  0  0  0  0  0  0  0  0  0
    9.6803  -17.7104   26.6791 C   0  0  0  0  0  0  0  0  0  0  0  0
    9.5182  -18.8459   26.1188 O   0  0  0  0  0  0  0  0  0  0  0  0
    6.2265  -14.4934   26.2868 C   0  0  0  0  0  0  0  0  0  0  0  0
    5.8352  -13.1993   25.9931 C   0  0  0  0  0  0  0  0  0  0  0  0
   10.5870  -17.6644   27.7130 O   0  0  0  0  0  0  0  0  0  0  0  0
  1  5  1  0
  2  1  1  0
  3  2  1  0
  3  4  1  0
  4  5  1  0
  5  6  1  1
  6 10  1  0
  6  7  2  0
  9  8  1  6
  9 11  1  0
 10  9  1  0
 11 12  2  0
 13 14  1  0
 14 15  2  0
 15 16  1  0
 17 18  1  0
 17 16  2  0
 19 18  1  1
 19 21  1  0
 20 19  1  0
 20 11  1  0
 21 25  1  0
 22 21  2  0
 23 17  1  0
 24 23  2  0
 24 14  1  0
M  END
$$$$
