TCG.pdb
     RDKit          3D

 18 17  0  0  1  0  0  0  0  0999 V2000
   15.9176  -12.4383  -15.8081 C   0  0  0  0  0  0  0  0  0  0  0  0
   17.0846  -11.5968  -15.3448 C   0  0  1  0  0  0  0  0  0  0  0  0
   17.5587  -11.9601  -14.1099 O   0  0  0  0  0  0  0  0  0  0  0  0
   18.1892  -11.7202  -16.3678 C   0  0  2  0  0  0  0  0  0  0  0  0
   18.8222  -13.0265  -16.1164 N   0  0  0  0  0  0  0  0  0  0  0  0
   19.1865  -10.6446  -16.3136 C   0  0  0  0  0  0  0  0  0  0  0  0
   20.3382  -10.7844  -15.8065 O   0  0  0  0  0  0  0  0  0  0  0  0
   18.8733   -9.3683  -16.8506 N   0  0  0  0  0  0  0  0  0  0  0  0
   19.8645   -8.3037  -16.9191 C   0  0  1  0  0  0  0  0  0  0  0  0
   19.7269   -7.5649  -18.2561 C   0  0  0  0  0  0  0  0  0  0  0  0
   20.2370   -8.6784  -19.5906 S   0  0  0  0  0  0  0  0  0  0  0  0
   19.7487   -7.3683  -15.7872 C   0  0  0  0  0  0  0  0  0  0  0  0
   18.6629   -7.0713  -15.2201 O   0  0  0  0  0  0  0  0  0  0  0  0
   20.9263   -6.7514  -15.2888 N   0  0  0  0  0  0  0  0  0  0  0  0
   20.9138   -5.8345  -14.1628 C   0  0  0  0  0  0  0  0  0  0  0  0
   22.2873   -5.4929  -13.7610 C   0  0  0  0  0  0  0  0  0  0  0  0
   22.5257   -4.5496  -12.7727 O   0  0  0  0  0  0  0  0  0  0  0  0
   23.2751   -6.0439  -14.3000 O   0  0  0  0  0  0  0  0  0  0  0  0
  2  3  1  0
  2  1  1  6
  4  5  1  1
  4  2  1  0
  6  4  1  0
  7  6  2  0
  8  6  1  0
  9  8  1  0
  9 12  1  0
  9 10  1  6
 11 10  1  0
 12 14  1  0
 13 12  2  0
 14 15  1  0
 16 17  1  0
 16 15  1  0
 18 16  2  0
M  END
$$$$
