TCG.pdb
     RDKit          3D

 18 17  0  0  1  0  0  0  0  0999 V2000
   13.8566  -24.9047   -0.4972 C   0  0  0  0  0  0  0  0  0  0  0  0
   14.7464  -23.9672    0.2865 C   0  0  1  0  0  0  0  0  0  0  0  0
   16.0804  -24.2672    0.1766 O   0  0  0  0  0  0  0  0  0  0  0  0
   14.5008  -22.5614   -0.2086 C   0  0  2  0  0  0  0  0  0  0  0  0
   14.9037  -22.5609   -1.6256 N   0  0  0  0  0  0  0  0  0  0  0  0
   15.2256  -21.5235    0.5343 C   0  0  0  0  0  0  0  0  0  0  0  0
   15.8908  -20.6013   -0.0226 O   0  0  0  0  0  0  0  0  0  0  0  0
   15.1980  -21.5264    1.9537 N   0  0  0  0  0  0  0  0  0  0  0  0
   15.7627  -20.4324    2.7314 C   0  0  1  0  0  0  0  0  0  0  0  0
   15.1016  -19.1140    2.3106 C   0  0  0  0  0  0  0  0  0  0  0  0
   15.9312  -17.7491    3.1650 S   0  0  0  0  0  0  0  0  0  0  0  0
   15.6187  -20.6537    4.1805 C   0  0  0  0  0  0  0  0  0  0  0  0
   14.5195  -20.8633    4.7606 O   0  0  0  0  0  0  0  0  0  0  0  0
   16.7829  -20.6332    4.9927 N   0  0  0  0  0  0  0  0  0  0  0  0
   16.7409  -20.8527    6.4276 C   0  0  0  0  0  0  0  0  0  0  0  0
   16.5571  -19.5778    7.1387 C   0  0  0  0  0  0  0  0  0  0  0  0
   16.4157  -19.5466    8.5180 O   0  0  0  0  0  0  0  0  0  0  0  0
   16.5236  -18.4898    6.5183 O   0  0  0  0  0  0  0  0  0  0  0  0
  2  3  1  0
  2  1  1  6
  4  5  1  6
  4  2  1  0
  6  4  1  0
  7  6  2  0
  8  6  1  0
  9  8  1  0
  9 12  1  0
  9 10  1  6
 11 10  1  0
 12 14  1  0
 13 12  2  0
 14 15  1  0
 16 17  1  0
 16 15  1  0
 18 16  2  0
M  END
$$$$
