TCG.pdb
     RDKit          3D

 18 17  0  0  1  0  0  0  0  0999 V2000
   17.5960  -13.4245  -17.7180 C   0  0  0  0  0  0  0  0  0  0  0  0
   18.4038  -12.7263  -16.6481 C   0  0  1  0  0  0  0  0  0  0  0  0
   19.0581  -13.5932  -15.8103 O   0  0  0  0  0  0  0  0  0  0  0  0
   19.4071  -11.8253  -17.3288 C   0  0  2  0  0  0  0  0  0  0  0  0
   20.3221  -12.7231  -18.0548 N   0  0  0  0  0  0  0  0  0  0  0  0
   20.1560  -10.9548  -16.4145 C   0  0  0  0  0  0  0  0  0  0  0  0
   19.6130  -10.2765  -15.4936 O   0  0  0  0  0  0  0  0  0  0  0  0
   21.5656  -10.8467  -16.5440 N   0  0  0  0  0  0  0  0  0  0  0  0
   22.3585  -10.0442  -15.6232 C   0  0  1  0  0  0  0  0  0  0  0  0
   23.8027  -10.5604  -15.6112 C   0  0  0  0  0  0  0  0  0  0  0  0
   23.8284  -12.1974  -14.8362 S   0  0  0  0  0  0  0  0  0  0  0  0
   22.3150   -8.6114  -15.9619 C   0  0  0  0  0  0  0  0  0  0  0  0
   22.4828   -8.1513  -17.1234 O   0  0  0  0  0  0  0  0  0  0  0  0
   22.0693   -7.6726  -14.9257 N   0  0  0  0  0  0  0  0  0  0  0  0
   22.0076   -6.2414  -15.1638 C   0  0  0  0  0  0  0  0  0  0  0  0
   21.7956   -5.5174  -13.9006 C   0  0  0  0  0  0  0  0  0  0  0  0
   21.5543   -6.2031  -12.7195 O   0  0  0  0  0  0  0  0  0  0  0  0
   21.8274   -4.2656  -13.8591 O   0  0  0  0  0  0  0  0  0  0  0  0
  2  3  1  0
  2  1  1  6
  4  5  1  1
  4  2  1  0
  6  4  1  0
  7  6  2  0
  8  6  1  0
  9  8  1  0
  9 12  1  0
  9 10  1  6
 11 10  1  0
 12 14  1  0
 13 12  2  0
 14 15  1  0
 16 17  1  0
 16 15  1  0
 18 16  2  0
M  END
$$$$
