TCG.pdb
     RDKit          3D

 18 17  0  0  1  0  0  0  0  0999 V2000
   18.8925  -10.5863  -20.5002 C   0  0  0  0  0  0  0  0  0  0  0  0
   18.8928   -9.5446  -19.4049 C   0  0  1  0  0  0  0  0  0  0  0  0
   17.7415   -8.8001  -19.3642 O   0  0  0  0  0  0  0  0  0  0  0  0
   19.0862  -10.2510  -18.0838 C   0  0  2  0  0  0  0  0  0  0  0  0
   17.9150  -11.1306  -17.9259 N   0  0  0  0  0  0  0  0  0  0  0  0
   19.2155   -9.3520  -16.9307 C   0  0  0  0  0  0  0  0  0  0  0  0
   18.2380   -8.9965  -16.2088 O   0  0  0  0  0  0  0  0  0  0  0  0
   20.4915   -8.8375  -16.5804 N   0  0  0  0  0  0  0  0  0  0  0  0
   20.6607   -7.8950  -15.4833 C   0  0  1  0  0  0  0  0  0  0  0  0
   21.9123   -8.2686  -14.6793 C   0  0  0  0  0  0  0  0  0  0  0  0
   22.0954   -7.0959  -13.3109 S   0  0  0  0  0  0  0  0  0  0  0  0
   20.7372   -6.5029  -15.9586 C   0  0  0  0  0  0  0  0  0  0  0  0
   21.4624   -6.1185  -16.9152 O   0  0  0  0  0  0  0  0  0  0  0  0
   19.9498   -5.5161  -15.3092 N   0  0  0  0  0  0  0  0  0  0  0  0
   19.9386   -4.1247  -15.7248 C   0  0  0  0  0  0  0  0  0  0  0  0
   21.2334   -3.4895  -15.4340 C   0  0  0  0  0  0  0  0  0  0  0  0
   21.7741   -2.5485  -16.2975 O   0  0  0  0  0  0  0  0  0  0  0  0
   21.8799   -3.7814  -14.4013 O   0  0  0  0  0  0  0  0  0  0  0  0
  2  3  1  0
  2  1  1  6
  4  5  1  1
  4  2  1  0
  6  4  1  0
  7  6  2  0
  8  6  1  0
  9  8  1  0
  9 12  1  0
  9 10  1  6
 11 10  1  0
 12 14  1  0
 13 12  2  0
 14 15  1  0
 16 17  1  0
 16 15  1  0
 18 16  2  0
M  END
$$$$
