TCG.pdb
     RDKit          3D

 18 17  0  0  1  0  0  0  0  0999 V2000
   19.2318   -7.1403  -18.3562 C   0  0  0  0  0  0  0  0  0  0  0  0
   18.7528   -8.5734  -18.3200 C   0  0  1  0  0  0  0  0  0  0  0  0
   18.3292   -9.0346  -19.5405 O   0  0  0  0  0  0  0  0  0  0  0  0
   19.8867   -9.4361  -17.8183 C   0  0  2  0  0  0  0  0  0  0  0  0
   19.4327  -10.8279  -17.9828 N   0  0  0  0  0  0  0  0  0  0  0  0
   20.2706   -9.1799  -16.4249 C   0  0  0  0  0  0  0  0  0  0  0  0
   19.4887   -9.3450  -15.4429 O   0  0  0  0  0  0  0  0  0  0  0  0
   21.5818   -8.7222  -16.1301 N   0  0  0  0  0  0  0  0  0  0  0  0
   22.0067   -8.4480  -14.7645 C   0  0  1  0  0  0  0  0  0  0  0  0
   23.3451   -9.1476  -14.4973 C   0  0  0  0  0  0  0  0  0  0  0  0
   23.0347  -10.9110  -14.2235 S   0  0  0  0  0  0  0  0  0  0  0  0
   22.1062   -7.0029  -14.4973 C   0  0  0  0  0  0  0  0  0  0  0  0
   22.4210   -6.5075  -13.3818 O   0  0  0  0  0  0  0  0  0  0  0  0
   21.8333   -6.0936  -15.5529 N   0  0  0  0  0  0  0  0  0  0  0  0
   21.9760   -4.6560  -15.4048 C   0  0  0  0  0  0  0  0  0  0  0  0
   20.6880   -4.0450  -15.0409 C   0  0  0  0  0  0  0  0  0  0  0  0
   19.5605   -4.8276  -14.8412 O   0  0  0  0  0  0  0  0  0  0  0  0
   20.5764   -2.8049  -14.9022 O   0  0  0  0  0  0  0  0  0  0  0  0
  2  3  1  0
  2  1  1  6
  4  5  1  1
  4  2  1  0
  6  4  1  0
  7  6  2  0
  8  6  1  0
  9  8  1  0
  9 12  1  0
  9 10  1  6
 11 10  1  0
 12 14  1  0
 13 12  2  0
 14 15  1  0
 16 17  1  0
 16 15  1  0
 18 16  2  0
M  END
$$$$
