TCG.pdb
     RDKit          3D

 18 17  0  0  1  0  0  0  0  0999 V2000
   25.2145   -7.5074  -17.8812 C   0  0  0  0  0  0  0  0  0  0  0  0
   24.7906   -8.7475  -18.6343 C   0  0  1  0  0  0  0  0  0  0  0  0
   25.7634   -9.2331  -19.4707 O   0  0  0  0  0  0  0  0  0  0  0  0
   24.4161   -9.8064  -17.6243 C   0  0  2  0  0  0  0  0  0  0  0  0
   24.2612  -11.0540  -18.3923 N   0  0  0  0  0  0  0  0  0  0  0  0
   23.1947   -9.5129  -16.8650 C   0  0  0  0  0  0  0  0  0  0  0  0
   22.0303   -9.5969  -17.3549 O   0  0  0  0  0  0  0  0  0  0  0  0
   23.2912   -9.1114  -15.5067 N   0  0  0  0  0  0  0  0  0  0  0  0
   22.1068   -8.8456  -14.7023 C   0  0  1  0  0  0  0  0  0  0  0  0
   22.1164   -9.7533  -13.4661 C   0  0  0  0  0  0  0  0  0  0  0  0
   22.0943  -11.4801  -14.0128 S   0  0  0  0  0  0  0  0  0  0  0  0
   22.0107   -7.4282  -14.3132 C   0  0  0  0  0  0  0  0  0  0  0  0
   21.0869   -6.9485  -13.6024 O   0  0  0  0  0  0  0  0  0  0  0  0
   23.0151   -6.5290  -14.7584 N   0  0  0  0  0  0  0  0  0  0  0  0
   22.9923   -5.1114  -14.4441 C   0  0  0  0  0  0  0  0  0  0  0  0
   22.2942   -4.3608  -15.4995 C   0  0  0  0  0  0  0  0  0  0  0  0
   22.1950   -2.9786  -15.4426 O   0  0  0  0  0  0  0  0  0  0  0  0
   21.7723   -4.9491  -16.4748 O   0  0  0  0  0  0  0  0  0  0  0  0
  2  3  1  0
  2  1  1  1
  4  5  1  6
  4  2  1  0
  6  4  1  0
  7  6  2  0
  8  6  1  0
  9  8  1  0
  9 12  1  0
  9 10  1  1
 11 10  1  0
 12 14  1  0
 13 12  2  0
 14 15  1  0
 16 17  1  0
 16 15  1  0
 18 16  2  0
M  END
$$$$
