TCG.pdb
     RDKit          3D

 18 17  0  0  1  0  0  0  0  0999 V2000
   21.7232  -10.0596  -19.2641 C   0  0  0  0  0  0  0  0  0  0  0  0
   21.7384  -11.4823  -18.7538 C   0  0  1  0  0  0  0  0  0  0  0  0
   21.3238  -12.3978  -19.6874 O   0  0  0  0  0  0  0  0  0  0  0  0
   23.1459  -11.8094  -18.3137 C   0  0  2  0  0  0  0  0  0  0  0  0
   23.1368  -13.2443  -17.9802 N   0  0  0  0  0  0  0  0  0  0  0  0
   23.6222  -11.0176  -17.1732 C   0  0  0  0  0  0  0  0  0  0  0  0
   23.1367  -11.1092  -16.0075 O   0  0  0  0  0  0  0  0  0  0  0  0
   24.6829  -10.0916  -17.3548 N   0  0  0  0  0  0  0  0  0  0  0  0
   25.0900   -9.1784  -16.2960 C   0  0  1  0  0  0  0  0  0  0  0  0
   26.6032   -8.9429  -16.3804 C   0  0  0  0  0  0  0  0  0  0  0  0
   27.4562  -10.4238  -15.7802 S   0  0  0  0  0  0  0  0  0  0  0  0
   24.3553   -7.9031  -16.3546 C   0  0  0  0  0  0  0  0  0  0  0  0
   24.0795   -7.2914  -17.4216 O   0  0  0  0  0  0  0  0  0  0  0  0
   23.9215   -7.3093  -15.1402 N   0  0  0  0  0  0  0  0  0  0  0  0
   23.2909   -6.0022  -15.0889 C   0  0  0  0  0  0  0  0  0  0  0  0
   21.8291   -6.1387  -14.9926 C   0  0  0  0  0  0  0  0  0  0  0  0
   21.2184   -7.3746  -15.1442 O   0  0  0  0  0  0  0  0  0  0  0  0
   21.0997   -5.1443  -14.7715 O   0  0  0  0  0  0  0  0  0  0  0  0
  2  3  1  0
  2  1  1  6
  4  5  1  1
  4  2  1  0
  6  4  1  0
  7  6  2  0
  8  6  1  0
  9  8  1  0
  9 12  1  0
  9 10  1  6
 11 10  1  0
 12 14  1  0
 13 12  2  0
 14 15  1  0
 16 17  1  0
 16 15  1  0
 18 16  2  0
M  END
$$$$
