TCG.pdb
     RDKit          3D

 18 17  0  0  1  0  0  0  0  0999 V2000
   20.6996  -11.2286  -18.7136 C   0  0  0  0  0  0  0  0  0  0  0  0
   21.8933  -10.9951  -19.6109 C   0  0  1  0  0  0  0  0  0  0  0  0
   22.0002   -9.6981  -20.0447 O   0  0  0  0  0  0  0  0  0  0  0  0
   23.1386  -11.3778  -18.8465 C   0  0  2  0  0  0  0  0  0  0  0  0
   23.0084  -12.8182  -18.5663 N   0  0  0  0  0  0  0  0  0  0  0  0
   23.3391  -10.6260  -17.6018 C   0  0  0  0  0  0  0  0  0  0  0  0
   22.6886  -10.8485  -16.5386 O   0  0  0  0  0  0  0  0  0  0  0  0
   24.3070   -9.5885  -17.5557 N   0  0  0  0  0  0  0  0  0  0  0  0
   24.5802   -8.8520  -16.3296 C   0  0  1  0  0  0  0  0  0  0  0  0
   26.0763   -8.9422  -16.0039 C   0  0  0  0  0  0  0  0  0  0  0  0
   26.4771  -10.6579  -15.5836 S   0  0  0  0  0  0  0  0  0  0  0  0
   24.1457   -7.4475  -16.4210 C   0  0  0  0  0  0  0  0  0  0  0  0
   24.5131   -6.6484  -17.3239 O   0  0  0  0  0  0  0  0  0  0  0  0
   23.2553   -6.9435  -15.4369 N   0  0  0  0  0  0  0  0  0  0  0  0
   22.7690   -5.5752  -15.4478 C   0  0  0  0  0  0  0  0  0  0  0  0
   21.9113   -5.3238  -14.2790 C   0  0  0  0  0  0  0  0  0  0  0  0
   22.4612   -4.9706  -13.0559 O   0  0  0  0  0  0  0  0  0  0  0  0
   20.6648   -5.4220  -14.3582 O   0  0  0  0  0  0  0  0  0  0  0  0
  2  3  1  0
  2  1  1  1
  4  5  1  1
  4  2  1  0
  6  4  1  0
  7  6  2  0
  8  6  1  0
  9  8  1  0
  9 12  1  0
  9 10  1  6
 11 10  1  0
 12 14  1  0
 13 12  2  0
 14 15  1  0
 16 17  1  0
 16 15  1  0
 18 16  2  0
M  END
$$$$
