TCG.pdb
     RDKit          3D

 18 17  0  0  1  0  0  0  0  0999 V2000
   24.5767  -11.4620  -18.6875 C   0  0  0  0  0  0  0  0  0  0  0  0
   23.9678  -10.1264  -18.3269 C   0  0  1  0  0  0  0  0  0  0  0  0
   24.4290   -9.0931  -19.1022 O   0  0  0  0  0  0  0  0  0  0  0  0
   22.4684  -10.2383  -18.4718 C   0  0  2  0  0  0  0  0  0  0  0  0
   22.2145  -10.3547  -19.9182 N   0  0  0  0  0  0  0  0  0  0  0  0
   21.7203   -9.1094  -17.9058 C   0  0  0  0  0  0  0  0  0  0  0  0
   21.4226   -8.0687  -18.5626 O   0  0  0  0  0  0  0  0  0  0  0  0
   21.2934   -9.1571  -16.5526 N   0  0  0  0  0  0  0  0  0  0  0  0
   20.5766   -8.0487  -15.9377 C   0  0  1  0  0  0  0  0  0  0  0  0
   19.2042   -8.5346  -15.4552 C   0  0  0  0  0  0  0  0  0  0  0  0
   18.2316   -9.0502  -16.8936 S   0  0  0  0  0  0  0  0  0  0  0  0
   21.3391   -7.4443  -14.8318 C   0  0  0  0  0  0  0  0  0  0  0  0
   21.8889   -8.1007  -13.9069 O   0  0  0  0  0  0  0  0  0  0  0  0
   21.4741   -6.0317  -14.7884 N   0  0  0  0  0  0  0  0  0  0  0  0
   22.2343   -5.3489  -13.7565 C   0  0  0  0  0  0  0  0  0  0  0  0
   22.1711   -3.8916  -13.9489 C   0  0  0  0  0  0  0  0  0  0  0  0
   22.6952   -3.0254  -13.0010 O   0  0  0  0  0  0  0  0  0  0  0  0
   21.6435   -3.3963  -14.9717 O   0  0  0  0  0  0  0  0  0  0  0  0
  2  3  1  0
  2  1  1  6
  4  5  1  6
  4  2  1  0
  6  4  1  0
  7  6  2  0
  8  6  1  0
  9  8  1  0
  9 12  1  0
  9 10  1  1
 11 10  1  0
 12 14  1  0
 13 12  2  0
 14 15  1  0
 16 17  1  0
 16 15  1  0
 18 16  2  0
M  END
$$$$
