TCG.pdb
     RDKit          3D

 18 17  0  0  1  0  0  0  0  0999 V2000
   23.2020  -22.1503  -15.2612 C   0  0  0  0  0  0  0  0  0  0  0  0
   22.0183  -21.3640  -14.7462 C   0  0  1  0  0  0  0  0  0  0  0  0
   20.8112  -21.9424  -15.0461 O   0  0  0  0  0  0  0  0  0  0  0  0
   22.1578  -21.2306  -13.2481 C   0  0  2  0  0  0  0  0  0  0  0  0
   20.9328  -20.5513  -12.7918 N   0  0  0  0  0  0  0  0  0  0  0  0
   23.3496  -20.4911  -12.8152 C   0  0  0  0  0  0  0  0  0  0  0  0
   23.5835  -19.2903  -13.1411 O   0  0  0  0  0  0  0  0  0  0  0  0
   24.3094  -21.1288  -11.9860 N   0  0  0  0  0  0  0  0  0  0  0  0
   25.5847  -20.5005  -11.6704 C   0  0  1  0  0  0  0  0  0  0  0  0
   26.0868  -21.0188  -10.3170 C   0  0  0  0  0  0  0  0  0  0  0  0
   24.8662  -20.6010   -9.0456 S   0  0  0  0  0  0  0  0  0  0  0  0
   26.5875  -20.7273  -12.7252 C   0  0  0  0  0  0  0  0  0  0  0  0
   27.0517  -21.8584  -13.0316 O   0  0  0  0  0  0  0  0  0  0  0  0
   27.0745  -19.6110  -13.4548 N   0  0  0  0  0  0  0  0  0  0  0  0
   28.1007  -19.7297  -14.4754 C   0  0  0  0  0  0  0  0  0  0  0  0
   27.5169  -19.5606  -15.8153 C   0  0  0  0  0  0  0  0  0  0  0  0
   26.1547  -19.7183  -16.0229 O   0  0  0  0  0  0  0  0  0  0  0  0
   28.2333  -19.2703  -16.8013 O   0  0  0  0  0  0  0  0  0  0  0  0
  2  3  1  0
  2  1  1  1
  4  5  1  6
  4  2  1  0
  6  4  1  0
  7  6  2  0
  8  6  1  0
  9  8  1  0
  9 12  1  0
  9 10  1  1
 11 10  1  0
 12 14  1  0
 13 12  2  0
 14 15  1  0
 16 17  1  0
 16 15  1  0
 18 16  2  0
M  END
$$$$
