TCG.pdb
     RDKit          3D

 18 17  0  0  1  0  0  0  0  0999 V2000
   19.0342  -11.2466  -16.3072 C   0  0  0  0  0  0  0  0  0  0  0  0
   19.4479  -10.8789  -17.7137 C   0  0  1  0  0  0  0  0  0  0  0  0
   19.1292   -9.5885  -18.0529 O   0  0  0  0  0  0  0  0  0  0  0  0
   20.9402  -11.0802  -17.8331 C   0  0  2  0  0  0  0  0  0  0  0  0
   21.1762  -12.5037  -17.5363 N   0  0  0  0  0  0  0  0  0  0  0  0
   21.7384  -10.2283  -16.9433 C   0  0  0  0  0  0  0  0  0  0  0  0
   21.7819  -10.3775  -15.6868 O   0  0  0  0  0  0  0  0  0  0  0  0
   22.5141   -9.1727  -17.4906 N   0  0  0  0  0  0  0  0  0  0  0  0
   23.3099   -8.2921  -16.6470 C   0  0  1  0  0  0  0  0  0  0  0  0
   24.7026   -8.1164  -17.2650 C   0  0  0  0  0  0  0  0  0  0  0  0
   25.6286   -9.6595  -17.0594 S   0  0  0  0  0  0  0  0  0  0  0  0
   22.6576   -6.9876  -16.4409 C   0  0  0  0  0  0  0  0  0  0  0  0
   22.1254   -6.3074  -17.3589 O   0  0  0  0  0  0  0  0  0  0  0  0
   22.6160   -6.4454  -15.1295 N   0  0  0  0  0  0  0  0  0  0  0  0
   21.9747   -5.1783  -14.8258 C   0  0  0  0  0  0  0  0  0  0  0  0
   22.1657   -4.8306  -13.4090 C   0  0  0  0  0  0  0  0  0  0  0  0
   22.6896   -5.7520  -12.5147 O   0  0  0  0  0  0  0  0  0  0  0  0
   21.8608   -3.6957  -12.9745 O   0  0  0  0  0  0  0  0  0  0  0  0
  2  3  1  0
  2  1  1  1
  4  5  1  1
  4  2  1  0
  6  4  1  0
  7  6  2  0
  8  6  1  0
  9  8  1  0
  9 12  1  0
  9 10  1  6
 11 10  1  0
 12 14  1  0
 13 12  2  0
 14 15  1  0
 16 17  1  0
 16 15  1  0
 18 16  2  0
M  END
$$$$
