TCG.pdb
     RDKit          3D

 18 17  0  0  1  0  0  0  0  0999 V2000
   21.3873  -23.2560  -15.0874 C   0  0  0  0  0  0  0  0  0  0  0  0
   22.3838  -22.1347  -14.9016 C   0  0  1  0  0  0  0  0  0  0  0  0
   22.2992  -21.1680  -15.8711 O   0  0  0  0  0  0  0  0  0  0  0  0
   22.1462  -21.5139  -13.5452 C   0  0  2  0  0  0  0  0  0  0  0  0
   20.7995  -20.9199  -13.6081 N   0  0  0  0  0  0  0  0  0  0  0  0
   23.1385  -20.5031  -13.1606 C   0  0  0  0  0  0  0  0  0  0  0  0
   22.9212  -19.2567  -13.2086 O   0  0  0  0  0  0  0  0  0  0  0  0
   24.4194  -20.9132  -12.7059 N   0  0  0  0  0  0  0  0  0  0  0  0
   25.5131  -19.9653  -12.5453 C   0  0  1  0  0  0  0  0  0  0  0  0
   26.3863  -20.3914  -11.3586 C   0  0  0  0  0  0  0  0  0  0  0  0
   27.2746  -21.9057  -11.8049 S   0  0  0  0  0  0  0  0  0  0  0  0
   26.3184  -19.8388  -13.7721 C   0  0  0  0  0  0  0  0  0  0  0  0
   26.3364  -20.6915  -14.7002 O   0  0  0  0  0  0  0  0  0  0  0  0
   27.1337  -18.6884  -13.9374 N   0  0  0  0  0  0  0  0  0  0  0  0
   27.1445  -17.9052  -15.1602 C   0  0  0  0  0  0  0  0  0  0  0  0
   27.5607  -18.7362  -16.3008 C   0  0  0  0  0  0  0  0  0  0  0  0
   28.7614  -18.4992  -16.9531 O   0  0  0  0  0  0  0  0  0  0  0  0
   26.8429  -19.6774  -16.7116 O   0  0  0  0  0  0  0  0  0  0  0  0
  2  3  1  0
  2  1  1  6
  4  5  1  6
  4  2  1  0
  6  4  1  0
  7  6  2  0
  8  6  1  0
  9  8  1  0
  9 12  1  0
  9 10  1  1
 11 10  1  0
 12 14  1  0
 13 12  2  0
 14 15  1  0
 16 17  1  0
 16 15  1  0
 18 16  2  0
M  END
$$$$
