TCG.pdb
     RDKit          3D

 18 17  0  0  1  0  0  0  0  0999 V2000
   25.3368  -10.1338  -20.2987 C   0  0  0  0  0  0  0  0  0  0  0  0
   24.3331   -9.3178  -19.5167 C   0  0  1  0  0  0  0  0  0  0  0  0
   23.3270   -8.8047  -20.2952 O   0  0  0  0  0  0  0  0  0  0  0  0
   23.7425  -10.2013  -18.4432 C   0  0  2  0  0  0  0  0  0  0  0  0
   23.0115  -11.2627  -19.1569 N   0  0  0  0  0  0  0  0  0  0  0  0
   22.8540   -9.5031  -17.5065 C   0  0  0  0  0  0  0  0  0  0  0  0
   21.6111   -9.3574  -17.6990 O   0  0  0  0  0  0  0  0  0  0  0  0
   23.3865   -8.9511  -16.3118 N   0  0  0  0  0  0  0  0  0  0  0  0
   22.5433   -8.2579  -15.3480 C   0  0  1  0  0  0  0  0  0  0  0  0
   22.5932   -8.9955  -14.0042 C   0  0  0  0  0  0  0  0  0  0  0  0
   21.9547  -10.6743  -14.2387 S   0  0  0  0  0  0  0  0  0  0  0  0
   22.9336   -6.8466  -15.1879 C   0  0  0  0  0  0  0  0  0  0  0  0
   24.1183   -6.4242  -15.2706 O   0  0  0  0  0  0  0  0  0  0  0  0
   21.9232   -5.8853  -14.9229 N   0  0  0  0  0  0  0  0  0  0  0  0
   22.1970   -4.4610  -14.8494 C   0  0  0  0  0  0  0  0  0  0  0  0
   20.9435   -3.7010  -14.7232 C   0  0  0  0  0  0  0  0  0  0  0  0
   20.9601   -2.3427  -14.4437 O   0  0  0  0  0  0  0  0  0  0  0  0
   19.8311   -4.2598  -14.8647 O   0  0  0  0  0  0  0  0  0  0  0  0
  2  3  1  0
  2  1  1  6
  4  5  1  6
  4  2  1  0
  6  4  1  0
  7  6  2  0
  8  6  1  0
  9  8  1  0
  9 12  1  0
  9 10  1  1
 11 10  1  0
 12 14  1  0
 13 12  2  0
 14 15  1  0
 16 17  1  0
 16 15  1  0
 18 16  2  0
M  END
$$$$
