NRS.pdb
     RDKit          3D

 26 25  0  0  1  0  0  0  0  0999 V2000
    7.4762  -20.3355   16.9705 N   0  0  0  0  0  0  0  0  0  0  0  0
    7.4134  -18.9210   16.9933 C   0  0  0  0  0  0  0  0  0  0  0  0
    6.5538  -18.4060   16.2150 O   0  0  0  0  0  0  0  0  0  0  0  0
    8.2313  -18.0290   17.8130 C   0  0  0  0  0  0  0  0  0  0  0  0
    9.2733  -18.7902   18.5528 C   0  0  2  0  0  0  0  0  0  0  0  0
    8.7746  -19.9296   19.2669 N   0  0  0  0  0  0  0  0  0  0  0  0
    9.8939  -17.8374   19.5455 C   0  0  0  0  0  0  0  0  0  0  0  0
   10.9916  -17.2782   19.3038 O   0  0  0  0  0  0  0  0  0  0  0  0
    7.0307  -11.2580   20.3472 N   0  0  0  0  0  0  0  0  0  0  0  0
    7.4473  -12.4898   19.6673 C   0  0  0  0  0  0  0  0  0  0  0  0
    6.9663  -12.7732   18.5363 N   0  0  0  0  0  0  0  0  0  0  0  0
    8.3826  -13.3404   20.2818 N   0  0  0  0  0  0  0  0  0  0  0  0
    8.3219  -13.8800   21.5868 C   0  0  0  0  0  0  0  0  0  0  0  0
    7.6751  -15.2143   21.7839 C   0  0  0  0  0  0  0  0  0  0  0  0
    8.6220  -16.1287   22.5312 C   0  0  0  0  0  0  0  0  0  0  0  0
    9.7531  -16.5714   21.6753 C   0  0  2  0  0  0  0  0  0  0  0  0
    9.2424  -17.5673   20.7566 N   0  0  0  0  0  0  0  0  0  0  0  0
   10.7976  -17.2875   22.5163 C   0  0  0  0  0  0  0  0  0  0  0  0
   10.6007  -18.4809   22.8603 O   0  0  0  0  0  0  0  0  0  0  0  0
    7.0712  -13.5898   17.9908 O   0  0  0  0  0  0  0  0  0  0  0  0
   15.3556  -17.0580   24.1534 C   0  0  0  0  0  0  0  0  0  0  0  0
   14.3003  -16.3982   23.5598 C   0  0  2  0  0  0  0  0  0  0  0  0
   13.0612  -17.2653   23.5707 N   0  0  0  0  0  0  0  0  0  0  0  0
   11.9633  -16.5876   22.8875 C   0  0  0  0  0  0  0  0  0  0  0  0
   12.6502  -17.6341   24.9384 O   0  0  0  0  0  0  0  0  0  0  0  0
   13.3274  -18.6313   25.6052 O   0  0  0  0  0  0  0  0  0  0  0  0
  2  1  1  0
  3  2  2  0
  4  2  1  0
  5  4  1  0
  5  6  1  1
  7  5  1  0
  7  8  2  0
  9 10  1  0
 10 12  1  0
 11 10  2  0
 12 13  1  0
 13 14  1  0
 16 15  1  1
 15 14  1  0
 16 17  1  0
 17  7  1  0
 18 16  1  0
 19 18  2  0
 20 21  1  0
 22 21  1  6
 22 24  1  0
 22 23  1  0
 23 18  1  0
 24 25  1  0
 26 24  2  0
M  END
$$$$
