NRS.pdb
     RDKit          3D

 26 25  0  0  1  0  0  0  0  0999 V2000
    7.0888  -12.3651   17.0824 N   0  0  0  0  0  0  0  0  0  0  0  0
    7.4965  -13.4855   17.8464 C   0  0  0  0  0  0  0  0  0  0  0  0
    7.5470  -14.5827   17.2113 O   0  0  0  0  0  0  0  0  0  0  0  0
    7.8531  -13.4862   19.2639 C   0  0  0  0  0  0  0  0  0  0  0  0
    8.6555  -14.6893   19.6115 C   0  0  2  0  0  0  0  0  0  0  0  0
    8.3400  -15.8525   18.8341 N   0  0  0  0  0  0  0  0  0  0  0  0
    8.3832  -14.9963   21.0642 C   0  0  0  0  0  0  0  0  0  0  0  0
    8.7549  -14.2112   21.9704 O   0  0  0  0  0  0  0  0  0  0  0  0
    6.5075  -20.5634   27.6296 N   0  0  0  0  0  0  0  0  0  0  0  0
    7.0250  -20.6309   26.2583 C   0  0  0  0  0  0  0  0  0  0  0  0
    8.2706  -20.6426   26.0597 N   0  0  0  0  0  0  0  0  0  0  0  0
    6.1268  -20.6865   25.1785 N   0  0  0  0  0  0  0  0  0  0  0  0
    5.9800  -19.7425   24.1368 C   0  0  0  0  0  0  0  0  0  0  0  0
    6.7893  -18.4856   24.1860 C   0  0  0  0  0  0  0  0  0  0  0  0
    6.7430  -17.8021   22.8362 C   0  0  0  0  0  0  0  0  0  0  0  0
    7.6154  -16.6000   22.7955 C   0  0  2  0  0  0  0  0  0  0  0  0
    7.7062  -16.1723   21.4152 N   0  0  0  0  0  0  0  0  0  0  0  0
    9.0329  -16.9672   23.2044 C   0  0  0  0  0  0  0  0  0  0  0  0
    9.9017  -17.1582   22.3158 O   0  0  0  0  0  0  0  0  0  0  0  0
    8.7759  -20.7304   25.2157 O   0  0  0  0  0  0  0  0  0  0  0  0
   12.3959  -16.3385   23.5760 C   0  0  0  0  0  0  0  0  0  0  0  0
   11.4993  -15.9632   24.5541 C   0  0  2  0  0  0  0  0  0  0  0  0
   10.7148  -17.1613   25.0401 N   0  0  0  0  0  0  0  0  0  0  0  0
    9.3325  -17.0829   24.5768 C   0  0  0  0  0  0  0  0  0  0  0  0
   10.7456  -17.2900   26.5091 O   0  0  0  0  0  0  0  0  0  0  0  0
    9.5633  -17.2844   27.2160 O   0  0  0  0  0  0  0  0  0  0  0  0
  2  1  1  0
  3  2  2  0
  4  2  1  0
  5  4  1  0
  5  6  1  6
  7  5  1  0
  7  8  2  0
  9 10  1  0
 10 12  1  0
 11 10  2  0
 12 13  1  0
 13 14  1  0
 16 15  1  6
 15 14  1  0
 16 17  1  0
 17  7  1  0
 18 16  1  0
 19 18  2  0
 20 21  1  0
 22 21  1  6
 22 24  1  0
 22 23  1  0
 23 18  1  0
 24 25  1  0
 26 24  2  0
M  END
$$$$
