NRS.pdb
     RDKit          3D

 26 25  0  0  1  0  0  0  0  0999 V2000
    9.2419  -14.4780   14.9909 N   0  0  0  0  0  0  0  0  0  0  0  0
    7.9697  -15.0013   15.3270 C   0  0  0  0  0  0  0  0  0  0  0  0
    7.3507  -15.5688   14.3759 O   0  0  0  0  0  0  0  0  0  0  0  0
    7.3268  -14.9445   16.6384 C   0  0  0  0  0  0  0  0  0  0  0  0
    8.1808  -14.2242   17.6204 C   0  0  2  0  0  0  0  0  0  0  0  0
    9.0730  -13.2665   17.0342 N   0  0  0  0  0  0  0  0  0  0  0  0
    9.0027  -15.2671   18.3384 C   0  0  0  0  0  0  0  0  0  0  0  0
    8.4518  -16.2224   18.9382 O   0  0  0  0  0  0  0  0  0  0  0  0
   13.5313  -19.2456   15.5043 N   0  0  0  0  0  0  0  0  0  0  0  0
   14.1870  -18.1968   14.7150 C   0  0  0  0  0  0  0  0  0  0  0  0
   14.4994  -18.4211   13.5137 N   0  0  0  0  0  0  0  0  0  0  0  0
   14.4569  -16.9497   15.3047 N   0  0  0  0  0  0  0  0  0  0  0  0
   14.1394  -16.5367   16.6187 C   0  0  0  0  0  0  0  0  0  0  0  0
   12.7241  -16.6556   17.0876 C   0  0  0  0  0  0  0  0  0  0  0  0
   12.5973  -16.0495   18.4689 C   0  0  0  0  0  0  0  0  0  0  0  0
   11.2157  -16.1733   19.0017 C   0  0  2  0  0  0  0  0  0  0  0  0
   10.4012  -15.1753   18.3404 N   0  0  0  0  0  0  0  0  0  0  0  0
   11.1891  -15.8109   20.4779 C   0  0  0  0  0  0  0  0  0  0  0  0
   11.5620  -14.6656   20.8392 O   0  0  0  0  0  0  0  0  0  0  0  0
   14.9672  -17.8436   12.8633 O   0  0  0  0  0  0  0  0  0  0  0  0
    9.3884  -16.1446   24.7349 C   0  0  0  0  0  0  0  0  0  0  0  0
    9.3657  -16.4297   23.3860 C   0  0  2  0  0  0  0  0  0  0  0  0
   10.7732  -16.5106   22.8388 N   0  0  0  0  0  0  0  0  0  0  0  0
   10.7437  -16.7761   21.4035 C   0  0  0  0  0  0  0  0  0  0  0  0
   11.5799  -17.5384   23.5232 O   0  0  0  0  0  0  0  0  0  0  0  0
   11.9765  -17.3337   24.8264 O   0  0  0  0  0  0  0  0  0  0  0  0
  2  1  1  0
  3  2  2  0
  4  2  1  0
  5  4  1  0
  5  6  1  6
  7  5  1  0
  7  8  2  0
  9 10  1  0
 10 12  1  0
 11 10  2  0
 12 13  1  0
 13 14  1  0
 16 15  1  6
 15 14  1  0
 16 17  1  0
 17  7  1  0
 18 16  1  0
 19 18  2  0
 20 21  1  0
 22 21  1  6
 22 24  1  0
 22 23  1  0
 23 18  1  0
 24 25  1  0
 26 24  2  0
M  END
$$$$
