NRS.pdb
     RDKit          3D

 26 25  0  0  1  0  0  0  0  0999 V2000
    6.3326  -12.5458   17.7087 N   0  0  0  0  0  0  0  0  0  0  0  0
    7.0430  -13.6367   17.1515 C   0  0  0  0  0  0  0  0  0  0  0  0
    7.2084  -13.5881   15.8945 O   0  0  0  0  0  0  0  0  0  0  0  0
    7.5861  -14.7817   17.8799 C   0  0  0  0  0  0  0  0  0  0  0  0
    8.8713  -14.4320   18.5420 C   0  0  2  0  0  0  0  0  0  0  0  0
    9.9413  -14.1390   17.6331 N   0  0  0  0  0  0  0  0  0  0  0  0
    9.2706  -15.6191   19.3845 C   0  0  0  0  0  0  0  0  0  0  0  0
    8.4634  -16.1357   20.1954 O   0  0  0  0  0  0  0  0  0  0  0  0
   10.7394  -20.0972   15.1541 N   0  0  0  0  0  0  0  0  0  0  0  0
   11.7484  -20.9422   15.8029 C   0  0  0  0  0  0  0  0  0  0  0  0
   11.7907  -22.1761   15.5447 N   0  0  0  0  0  0  0  0  0  0  0  0
   12.6616  -20.3669   16.7034 N   0  0  0  0  0  0  0  0  0  0  0  0
   12.7106  -19.0205   17.1308 C   0  0  0  0  0  0  0  0  0  0  0  0
   11.5549  -18.4688   17.9036 C   0  0  0  0  0  0  0  0  0  0  0  0
   12.0306  -18.0126   19.2663 C   0  0  0  0  0  0  0  0  0  0  0  0
   10.9536  -17.3263   20.0260 C   0  0  2  0  0  0  0  0  0  0  0  0
   10.5587  -16.1586   19.2663 N   0  0  0  0  0  0  0  0  0  0  0  0
   11.4982  -16.7937   21.3417 C   0  0  0  0  0  0  0  0  0  0  0  0
   12.3790  -15.8963   21.3271 O   0  0  0  0  0  0  0  0  0  0  0  0
   12.3547  -22.8856   15.9371 O   0  0  0  0  0  0  0  0  0  0  0  0
   11.0023  -16.7652   26.1543 C   0  0  0  0  0  0  0  0  0  0  0  0
   10.4889  -17.1142   24.9230 C   0  0  1  0  0  0  0  0  0  0  0  0
   11.5161  -16.8838   23.8373 N   0  0  0  0  0  0  0  0  0  0  0  0
   10.9958  -17.3252   22.5465 C   0  0  0  0  0  0  0  0  0  0  0  0
   12.7929  -17.5645   24.1234 O   0  0  0  0  0  0  0  0  0  0  0  0
   13.7976  -16.8790   24.7702 O   0  0  0  0  0  0  0  0  0  0  0  0
  2  1  1  0
  3  2  2  0
  4  2  1  0
  5  4  1  0
  5  6  1  6
  7  5  1  0
  7  8  2  0
  9 10  1  0
 10 12  1  0
 11 10  2  0
 12 13  1  0
 13 14  1  0
 16 15  1  6
 15 14  1  0
 16 17  1  0
 17  7  1  0
 18 16  1  0
 19 18  2  0
 20 21  1  0
 22 21  1  6
 22 24  1  0
 22 23  1  0
 23 18  1  0
 24 25  1  0
 26 24  2  0
M  END
$$$$
