NRS.pdb
     RDKit          3D

 26 25  0  0  1  0  0  0  0  0999 V2000
    7.7265  -12.3257   16.6330 N   0  0  0  0  0  0  0  0  0  0  0  0
    7.2972  -13.6736   16.5704 C   0  0  0  0  0  0  0  0  0  0  0  0
    6.5166  -13.9476   15.6084 O   0  0  0  0  0  0  0  0  0  0  0  0
    7.6652  -14.7455   17.4935 C   0  0  0  0  0  0  0  0  0  0  0  0
    8.4312  -14.2124   18.6518 C   0  0  2  0  0  0  0  0  0  0  0  0
    9.7403  -13.7296   18.3201 N   0  0  0  0  0  0  0  0  0  0  0  0
    8.5746  -15.3418   19.6430 C   0  0  0  0  0  0  0  0  0  0  0  0
    7.5641  -15.9130   20.1210 O   0  0  0  0  0  0  0  0  0  0  0  0
   13.1515  -19.3131   16.1432 N   0  0  0  0  0  0  0  0  0  0  0  0
   12.0656  -20.2655   16.4015 C   0  0  0  0  0  0  0  0  0  0  0  0
   11.6828  -21.0415   15.4838 N   0  0  0  0  0  0  0  0  0  0  0  0
   11.4650  -20.3067   17.6717 N   0  0  0  0  0  0  0  0  0  0  0  0
   11.7113  -19.4442   18.7642 C   0  0  0  0  0  0  0  0  0  0  0  0
   10.5922  -18.5933   19.2751 C   0  0  0  0  0  0  0  0  0  0  0  0
   11.0881  -17.7454   20.4268 C   0  0  0  0  0  0  0  0  0  0  0  0
   10.0185  -16.8661   20.9659 C   0  0  2  0  0  0  0  0  0  0  0  0
    9.8501  -15.7651   20.0407 N   0  0  0  0  0  0  0  0  0  0  0  0
   10.4680  -16.2361   22.2745 C   0  0  0  0  0  0  0  0  0  0  0  0
   11.2418  -15.2453   22.2487 O   0  0  0  0  0  0  0  0  0  0  0  0
   10.9693  -21.7244   15.4894 O   0  0  0  0  0  0  0  0  0  0  0  0
    8.1596  -15.6410   25.3045 C   0  0  0  0  0  0  0  0  0  0  0  0
    9.4369  -15.1342   25.1901 C   0  0  1  0  0  0  0  0  0  0  0  0
   10.4014  -16.2209   24.7708 N   0  0  0  0  0  0  0  0  0  0  0  0
   10.0003  -16.7852   23.4854 C   0  0  0  0  0  0  0  0  0  0  0  0
   10.5072  -17.2926   25.7787 O   0  0  0  0  0  0  0  0  0  0  0  0
   10.1418  -18.5779   25.4439 O   0  0  0  0  0  0  0  0  0  0  0  0
  2  1  1  0
  3  2  2  0
  4  2  1  0
  5  4  1  0
  5  6  1  6
  7  5  1  0
  7  8  2  0
  9 10  1  0
 10 12  1  0
 11 10  2  0
 12 13  1  0
 13 14  1  0
 16 15  1  6
 15 14  1  0
 16 17  1  0
 17  7  1  0
 18 16  1  0
 19 18  2  0
 20 21  1  0
 22 21  1  6
 22 24  1  0
 22 23  1  0
 23 18  1  0
 24 25  1  0
 26 24  2  0
M  END
$$$$
