NRS.pdb
     RDKit          3D

 26 25  0  0  1  0  0  0  0  0999 V2000
    8.2541  -12.3576   17.4749 N   0  0  0  0  0  0  0  0  0  0  0  0
    7.8152  -13.5809   18.0373 C   0  0  0  0  0  0  0  0  0  0  0  0
    7.8082  -14.5693   17.2417 O   0  0  0  0  0  0  0  0  0  0  0  0
    7.3813  -13.7959   19.4164 C   0  0  0  0  0  0  0  0  0  0  0  0
    8.4399  -14.4772   20.2086 C   0  0  2  0  0  0  0  0  0  0  0  0
    8.9315  -15.6875   19.6165 N   0  0  0  0  0  0  0  0  0  0  0  0
    7.8387  -14.8116   21.5522 C   0  0  0  0  0  0  0  0  0  0  0  0
    7.2839  -13.9270   22.2491 O   0  0  0  0  0  0  0  0  0  0  0  0
    8.6877  -19.8532   27.2965 N   0  0  0  0  0  0  0  0  0  0  0  0
    7.2970  -20.3183   27.2450 C   0  0  0  0  0  0  0  0  0  0  0  0
    6.6368  -20.4356   28.3132 N   0  0  0  0  0  0  0  0  0  0  0  0
    6.7124  -20.6245   26.0039 N   0  0  0  0  0  0  0  0  0  0  0  0
    6.9088  -19.9535   24.7755 C   0  0  0  0  0  0  0  0  0  0  0  0
    6.9664  -18.4588   24.7737 C   0  0  0  0  0  0  0  0  0  0  0  0
    7.2254  -17.9653   23.3663 C   0  0  0  0  0  0  0  0  0  0  0  0
    7.2977  -16.4824   23.3056 C   0  0  2  0  0  0  0  0  0  0  0  0
    7.8961  -16.1256   22.0363 N   0  0  0  0  0  0  0  0  0  0  0  0
    8.2507  -15.9603   24.3687 C   0  0  0  0  0  0  0  0  0  0  0  0
    9.4849  -16.1678   24.2469 O   0  0  0  0  0  0  0  0  0  0  0  0
    5.6907  -20.6850   28.4481 O   0  0  0  0  0  0  0  0  0  0  0  0
    8.8383  -12.6447   27.7580 C   0  0  0  0  0  0  0  0  0  0  0  0
    7.9601  -13.3291   26.9446 C   0  0  2  0  0  0  0  0  0  0  0  0
    8.5937  -14.6056   26.4384 N   0  0  0  0  0  0  0  0  0  0  0  0
    7.7185  -15.2541   25.4663 C   0  0  0  0  0  0  0  0  0  0  0  0
    8.9113  -15.5430   27.5320 O   0  0  0  0  0  0  0  0  0  0  0  0
   10.0143  -15.3130   28.3246 O   0  0  0  0  0  0  0  0  0  0  0  0
  2  1  1  0
  3  2  2  0
  4  2  1  0
  5  4  1  0
  5  6  1  6
  7  5  1  0
  7  8  2  0
  9 10  1  0
 10 12  1  0
 11 10  2  0
 12 13  1  0
 13 14  1  0
 16 15  1  6
 15 14  1  0
 16 17  1  0
 17  7  1  0
 18 16  1  0
 19 18  2  0
 20 21  1  0
 22 21  1  6
 22 24  1  0
 22 23  1  0
 23 18  1  0
 24 25  1  0
 26 24  2  0
M  END
$$$$
