NRS.pdb
     RDKit          3D

 26 25  0  0  1  0  0  0  0  0999 V2000
   15.9876  -13.2185   17.4171 N   0  0  0  0  0  0  0  0  0  0  0  0
   15.1509  -14.2336   17.9411 C   0  0  0  0  0  0  0  0  0  0  0  0
   15.2496  -15.3628   17.3709 O   0  0  0  0  0  0  0  0  0  0  0  0
   14.2095  -14.0956   19.0507 C   0  0  0  0  0  0  0  0  0  0  0  0
   13.6291  -15.4129   19.4249 C   0  0  2  0  0  0  0  0  0  0  0  0
   12.7797  -15.9883   18.4228 N   0  0  0  0  0  0  0  0  0  0  0  0
   12.8134  -15.1959   20.6764 C   0  0  0  0  0  0  0  0  0  0  0  0
   13.3390  -14.7285   21.7163 O   0  0  0  0  0  0  0  0  0  0  0  0
    8.4731  -12.3677   18.0965 N   0  0  0  0  0  0  0  0  0  0  0  0
    7.8350  -13.6769   17.9177 C   0  0  0  0  0  0  0  0  0  0  0  0
    7.8019  -14.2054   16.7729 N   0  0  0  0  0  0  0  0  0  0  0  0
    7.2701  -14.3317   19.0258 N   0  0  0  0  0  0  0  0  0  0  0  0
    7.4624  -14.0245   20.3920 C   0  0  0  0  0  0  0  0  0  0  0  0
    8.8577  -13.9763   20.9288 C   0  0  0  0  0  0  0  0  0  0  0  0
    9.2302  -15.3323   21.4890 C   0  0  0  0  0  0  0  0  0  0  0  0
   10.6590  -15.3895   21.8929 C   0  0  2  0  0  0  0  0  0  0  0  0
   11.4495  -15.5180   20.6865 N   0  0  0  0  0  0  0  0  0  0  0  0
   10.9268  -16.6533   22.6943 C   0  0  0  0  0  0  0  0  0  0  0  0
   11.1106  -17.7403   22.0896 O   0  0  0  0  0  0  0  0  0  0  0  0
    7.4394  -15.0794   16.4898 O   0  0  0  0  0  0  0  0  0  0  0  0
   10.5755  -16.4961   26.8450 C   0  0  0  0  0  0  0  0  0  0  0  0
   11.5210  -17.3623   26.3379 C   0  0  1  0  0  0  0  0  0  0  0  0
   11.1702  -17.7575   24.9210 N   0  0  0  0  0  0  0  0  0  0  0  0
   10.9614  -16.5678   24.1008 C   0  0  0  0  0  0  0  0  0  0  0  0
    9.9779  -18.6237   24.8621 O   0  0  0  0  0  0  0  0  0  0  0  0
   10.0316  -19.8904   25.4009 O   0  0  0  0  0  0  0  0  0  0  0  0
  2  1  1  0
  3  2  2  0
  4  2  1  0
  5  4  1  0
  5  6  1  6
  7  5  1  0
  7  8  2  0
  9 10  1  0
 10 12  1  0
 11 10  2  0
 12 13  1  0
 13 14  1  0
 16 15  1  6
 15 14  1  0
 16 17  1  0
 17  7  1  0
 18 16  1  0
 19 18  2  0
 20 21  1  0
 22 21  1  6
 22 24  1  0
 22 23  1  0
 23 18  1  0
 24 25  1  0
 26 24  2  0
M  END
$$$$
