NRS.pdb
     RDKit          3D

 26 25  0  0  1  0  0  0  0  0999 V2000
    8.2232  -12.6035   16.8032 N   0  0  0  0  0  0  0  0  0  0  0  0
    7.9355  -13.9897   16.8342 C   0  0  0  0  0  0  0  0  0  0  0  0
    7.1282  -14.3937   15.9426 O   0  0  0  0  0  0  0  0  0  0  0  0
    8.4731  -14.9668   17.7790 C   0  0  0  0  0  0  0  0  0  0  0  0
    9.1651  -14.2913   18.9090 C   0  0  2  0  0  0  0  0  0  0  0  0
   10.2242  -13.4107   18.5093 N   0  0  0  0  0  0  0  0  0  0  0  0
    9.7486  -15.3767   19.7809 C   0  0  0  0  0  0  0  0  0  0  0  0
    9.0180  -16.2699   20.2752 O   0  0  0  0  0  0  0  0  0  0  0  0
   15.6146  -13.8703   18.5696 N   0  0  0  0  0  0  0  0  0  0  0  0
   15.6105  -14.7273   17.3786 C   0  0  0  0  0  0  0  0  0  0  0  0
   15.9639  -14.2521   16.2649 N   0  0  0  0  0  0  0  0  0  0  0  0
   15.2166  -16.0719   17.4914 N   0  0  0  0  0  0  0  0  0  0  0  0
   14.8208  -16.7530   18.6650 C   0  0  0  0  0  0  0  0  0  0  0  0
   13.3640  -16.8296   18.9954 C   0  0  0  0  0  0  0  0  0  0  0  0
   13.1628  -16.5242   20.4643 C   0  0  0  0  0  0  0  0  0  0  0  0
   11.7222  -16.4617   20.8231 C   0  0  2  0  0  0  0  0  0  0  0  0
   11.1244  -15.3951   20.0474 N   0  0  0  0  0  0  0  0  0  0  0  0
   11.5619  -16.0495   22.2776 C   0  0  0  0  0  0  0  0  0  0  0  0
   12.3623  -15.2170   22.7750 O   0  0  0  0  0  0  0  0  0  0  0  0
   15.9881  -14.6782   15.3742 O   0  0  0  0  0  0  0  0  0  0  0  0
    8.0290  -16.7411   24.3954 C   0  0  0  0  0  0  0  0  0  0  0  0
    8.9791  -15.8041   24.7429 C   0  0  1  0  0  0  0  0  0  0  0  0
   10.3682  -16.3272   24.4535 N   0  0  0  0  0  0  0  0  0  0  0  0
   10.5136  -16.6167   23.0299 C   0  0  0  0  0  0  0  0  0  0  0  0
   10.6881  -17.5295   25.2457 O   0  0  0  0  0  0  0  0  0  0  0  0
   10.8381  -17.4230   26.6109 O   0  0  0  0  0  0  0  0  0  0  0  0
  2  1  1  0
  3  2  2  0
  4  2  1  0
  5  4  1  0
  5  6  1  6
  7  5  1  0
  7  8  2  0
  9 10  1  0
 10 12  1  0
 11 10  2  0
 12 13  1  0
 13 14  1  0
 16 15  1  6
 15 14  1  0
 16 17  1  0
 17  7  1  0
 18 16  1  0
 19 18  2  0
 20 21  1  0
 22 21  1  6
 22 24  1  0
 22 23  1  0
 23 18  1  0
 24 25  1  0
 26 24  2  0
M  END
$$$$
