NRS.pdb
     RDKit          3D

 26 25  0  0  1  0  0  0  0  0999 V2000
    7.5958  -12.1567   17.3502 N   0  0  0  0  0  0  0  0  0  0  0  0
    7.6192  -13.5322   17.6860 C   0  0  0  0  0  0  0  0  0  0  0  0
    7.8518  -14.3203   16.7193 O   0  0  0  0  0  0  0  0  0  0  0  0
    7.4035  -14.1053   19.0132 C   0  0  0  0  0  0  0  0  0  0  0  0
    8.5861  -13.8851   19.8880 C   0  0  2  0  0  0  0  0  0  0  0  0
    9.8440  -14.1691   19.2603 N   0  0  0  0  0  0  0  0  0  0  0  0
    8.4291  -14.7981   21.0798 C   0  0  0  0  0  0  0  0  0  0  0  0
    7.4716  -14.6569   21.8792 O   0  0  0  0  0  0  0  0  0  0  0  0
   11.5516  -18.6742   17.9516 N   0  0  0  0  0  0  0  0  0  0  0  0
   10.6424  -19.8240   18.0172 C   0  0  0  0  0  0  0  0  0  0  0  0
   10.2552  -20.3768   16.9516 N   0  0  0  0  0  0  0  0  0  0  0  0
   10.2148  -20.3013   19.2682 N   0  0  0  0  0  0  0  0  0  0  0  0
   10.3810  -19.6773   20.5256 C   0  0  0  0  0  0  0  0  0  0  0  0
    9.6455  -18.4040   20.7994 C   0  0  0  0  0  0  0  0  0  0  0  0
    9.9661  -17.9268   22.1997 C   0  0  0  0  0  0  0  0  0  0  0  0
    9.3098  -16.6291   22.5048 C   0  0  2  0  0  0  0  0  0  0  0  0
    9.3609  -15.8206   21.3046 N   0  0  0  0  0  0  0  0  0  0  0  0
   10.1139  -15.8673   23.5460 C   0  0  0  0  0  0  0  0  0  0  0  0
   10.7195  -14.8174   23.2114 O   0  0  0  0  0  0  0  0  0  0  0  0
    9.6696  -21.1615   16.8226 O   0  0  0  0  0  0  0  0  0  0  0  0
    8.4055  -13.8776   26.8849 C   0  0  0  0  0  0  0  0  0  0  0  0
    8.6054  -14.7536   25.8389 C   0  0  2  0  0  0  0  0  0  0  0  0
    9.9177  -15.4863   26.0063 N   0  0  0  0  0  0  0  0  0  0  0  0
   10.1564  -16.3642   24.8644 C   0  0  0  0  0  0  0  0  0  0  0  0
    9.9662  -16.2657   27.2576 O   0  0  0  0  0  0  0  0  0  0  0  0
   10.0684  -17.6382   27.1990 O   0  0  0  0  0  0  0  0  0  0  0  0
  2  1  1  0
  3  2  2  0
  4  2  1  0
  5  4  1  0
  5  6  1  6
  7  5  1  0
  7  8  2  0
  9 10  1  0
 10 12  1  0
 11 10  2  0
 12 13  1  0
 13 14  1  0
 16 15  1  6
 15 14  1  0
 16 17  1  0
 17  7  1  0
 18 16  1  0
 19 18  2  0
 20 21  1  0
 22 21  1  6
 22 24  1  0
 22 23  1  0
 23 18  1  0
 24 25  1  0
 26 24  2  0
M  END
$$$$
