NRS.pdb
     RDKit          3D

 26 25  0  0  1  0  0  0  0  0999 V2000
   12.8373  -16.3629   12.9984 N   0  0  0  0  0  0  0  0  0  0  0  0
   12.2065  -17.2435   13.9103 C   0  0  0  0  0  0  0  0  0  0  0  0
   12.1341  -18.4523   13.5316 O   0  0  0  0  0  0  0  0  0  0  0  0
   11.6468  -16.8889   15.2132 C   0  0  0  0  0  0  0  0  0  0  0  0
   12.0845  -17.8494   16.2612 C   0  0  2  0  0  0  0  0  0  0  0  0
   11.2480  -19.0077   16.3849 N   0  0  0  0  0  0  0  0  0  0  0  0
   12.0696  -17.1058   17.5748 C   0  0  0  0  0  0  0  0  0  0  0  0
   13.1330  -16.8890   18.2057 O   0  0  0  0  0  0  0  0  0  0  0  0
    6.3607  -14.4781   15.4495 N   0  0  0  0  0  0  0  0  0  0  0  0
    7.2360  -13.7672   16.3884 C   0  0  0  0  0  0  0  0  0  0  0  0
    8.0865  -12.9451   15.9504 N   0  0  0  0  0  0  0  0  0  0  0  0
    7.1150  -14.0064   17.7682 N   0  0  0  0  0  0  0  0  0  0  0  0
    7.9641  -13.5379   18.7966 C   0  0  0  0  0  0  0  0  0  0  0  0
    9.3847  -14.0054   18.8251 C   0  0  0  0  0  0  0  0  0  0  0  0
    9.4590  -15.3529   19.5107 C   0  0  0  0  0  0  0  0  0  0  0  0
   10.8067  -15.9651   19.3810 C   0  0  2  0  0  0  0  0  0  0  0  0
   10.8559  -16.6474   18.1048 N   0  0  0  0  0  0  0  0  0  0  0  0
   10.9937  -17.0478   20.4316 C   0  0  0  0  0  0  0  0  0  0  0  0
   10.4208  -18.1573   20.2833 O   0  0  0  0  0  0  0  0  0  0  0  0
    8.8058  -12.4646   16.4271 O   0  0  0  0  0  0  0  0  0  0  0  0
   14.2479  -17.0681   22.8424 C   0  0  0  0  0  0  0  0  0  0  0  0
   13.4378  -18.1752   22.7028 C   0  0  1  0  0  0  0  0  0  0  0  0
   11.9866  -17.7601   22.6095 N   0  0  0  0  0  0  0  0  0  0  0  0
   11.8096  -16.7737   21.5478 C   0  0  0  0  0  0  0  0  0  0  0  0
   11.4769  -17.2221   23.8848 O   0  0  0  0  0  0  0  0  0  0  0  0
   11.3998  -18.0455   24.9865 O   0  0  0  0  0  0  0  0  0  0  0  0
  2  1  1  0
  3  2  2  0
  4  2  1  0
  5  4  1  0
  5  6  1  1
  7  5  1  0
  7  8  2  0
  9 10  1  0
 10 12  1  0
 11 10  2  0
 12 13  1  0
 13 14  1  0
 16 15  1  1
 15 14  1  0
 16 17  1  0
 17  7  1  0
 18 16  1  0
 19 18  2  0
 20 21  1  0
 22 21  1  6
 22 24  1  0
 22 23  1  0
 23 18  1  0
 24 25  1  0
 26 24  2  0
M  END
$$$$
