NRS.pdb
     RDKit          3D

 26 25  0  0  1  0  0  0  0  0999 V2000
    6.5639  -19.0599   28.6014 N   0  0  0  0  0  0  0  0  0  0  0  0
    7.6309  -19.5973   27.8412 C   0  0  0  0  0  0  0  0  0  0  0  0
    8.0583  -20.7259   28.2328 O   0  0  0  0  0  0  0  0  0  0  0  0
    8.2645  -18.9801   26.6775 C   0  0  0  0  0  0  0  0  0  0  0  0
    7.3011  -18.8505   25.5517 C   0  0  2  0  0  0  0  0  0  0  0  0
    6.8691  -20.1015   24.9992 N   0  0  0  0  0  0  0  0  0  0  0  0
    7.9941  -18.0621   24.4669 C   0  0  0  0  0  0  0  0  0  0  0  0
    8.7744  -18.6234   23.6595 O   0  0  0  0  0  0  0  0  0  0  0  0
    7.7620  -11.7404   19.7266 N   0  0  0  0  0  0  0  0  0  0  0  0
    7.7767  -13.1595   19.3541 C   0  0  0  0  0  0  0  0  0  0  0  0
    8.5922  -13.5692   18.4834 N   0  0  0  0  0  0  0  0  0  0  0  0
    6.8841  -14.0502   19.9751 N   0  0  0  0  0  0  0  0  0  0  0  0
    7.1608  -14.9365   21.0409 C   0  0  0  0  0  0  0  0  0  0  0  0
    6.7048  -14.5704   22.4175 C   0  0  0  0  0  0  0  0  0  0  0  0
    7.8949  -14.5415   23.3525 C   0  0  0  0  0  0  0  0  0  0  0  0
    8.5544  -15.8696   23.4483 C   0  0  2  0  0  0  0  0  0  0  0  0
    7.7688  -16.6836   24.3521 N   0  0  0  0  0  0  0  0  0  0  0  0
    9.9191  -15.7308   24.1038 C   0  0  0  0  0  0  0  0  0  0  0  0
   10.0293  -15.0657   25.1652 O   0  0  0  0  0  0  0  0  0  0  0  0
    8.6837  -14.4629   18.0731 O   0  0  0  0  0  0  0  0  0  0  0  0
   12.3929  -18.5977   24.3532 C   0  0  0  0  0  0  0  0  0  0  0  0
   12.6427  -17.4034   24.9957 C   0  0  1  0  0  0  0  0  0  0  0  0
   12.3641  -16.2382   24.0729 N   0  0  0  0  0  0  0  0  0  0  0  0
   11.0273  -16.3564   23.4979 C   0  0  0  0  0  0  0  0  0  0  0  0
   13.3659  -16.1271   22.9960 O   0  0  0  0  0  0  0  0  0  0  0  0
   14.6813  -15.8726   23.3162 O   0  0  0  0  0  0  0  0  0  0  0  0
  2  1  1  0
  3  2  2  0
  4  2  1  0
  5  4  1  0
  5  6  1  6
  7  5  1  0
  7  8  2  0
  9 10  1  0
 10 12  1  0
 11 10  2  0
 12 13  1  0
 13 14  1  0
 16 15  1  1
 15 14  1  0
 16 17  1  0
 17  7  1  0
 18 16  1  0
 19 18  2  0
 20 21  1  0
 22 21  1  1
 22 24  1  0
 22 23  1  0
 23 18  1  0
 24 25  1  0
 26 24  2  0
M  END
$$$$
