NRS.pdb
     RDKit          3D

 26 25  0  0  1  0  0  0  0  0999 V2000
    8.7478  -11.2957   19.4782 N   0  0  0  0  0  0  0  0  0  0  0  0
    8.4919  -12.6003   18.9905 C   0  0  0  0  0  0  0  0  0  0  0  0
    8.4110  -12.6987   17.7282 O   0  0  0  0  0  0  0  0  0  0  0  0
    8.3172  -13.8086   19.7943 C   0  0  0  0  0  0  0  0  0  0  0  0
    9.2266  -14.8917   19.3338 C   0  0  2  0  0  0  0  0  0  0  0  0
    8.8359  -15.5024   18.0963 N   0  0  0  0  0  0  0  0  0  0  0  0
    9.2314  -15.9507   20.4095 C   0  0  0  0  0  0  0  0  0  0  0  0
    8.1567  -16.3968   20.8806 O   0  0  0  0  0  0  0  0  0  0  0  0
   11.1689  -18.6735   16.6471 N   0  0  0  0  0  0  0  0  0  0  0  0
   10.9986  -20.1090   16.8990 C   0  0  0  0  0  0  0  0  0  0  0  0
   10.3383  -20.8125   16.0865 N   0  0  0  0  0  0  0  0  0  0  0  0
   11.5772  -20.6873   18.0420 N   0  0  0  0  0  0  0  0  0  0  0  0
   11.8897  -20.0455   19.2620 C   0  0  0  0  0  0  0  0  0  0  0  0
   10.8898  -19.1054   19.8568 C   0  0  0  0  0  0  0  0  0  0  0  0
   11.4055  -18.5941   21.1850 C   0  0  0  0  0  0  0  0  0  0  0  0
   10.4881  -17.5906   21.7843 C   0  0  2  0  0  0  0  0  0  0  0  0
   10.4482  -16.4486   20.8949 N   0  0  0  0  0  0  0  0  0  0  0  0
   11.0625  -17.0708   23.0924 C   0  0  0  0  0  0  0  0  0  0  0  0
   12.0671  -16.3149   23.0682 O   0  0  0  0  0  0  0  0  0  0  0  0
   10.1395  -21.7798   16.1035 O   0  0  0  0  0  0  0  0  0  0  0  0
    8.9287  -17.6005   26.5650 C   0  0  0  0  0  0  0  0  0  0  0  0
    9.9585  -16.6835   26.5631 C   0  0  1  0  0  0  0  0  0  0  0  0
   11.0373  -17.1021   25.5893 N   0  0  0  0  0  0  0  0  0  0  0  0
   10.4473  -17.4543   24.3011 C   0  0  0  0  0  0  0  0  0  0  0  0
   11.8418  -18.2288   26.0981 O   0  0  0  0  0  0  0  0  0  0  0  0
   12.5863  -18.0677   27.2459 O   0  0  0  0  0  0  0  0  0  0  0  0
  2  1  1  0
  3  2  2  0
  4  2  1  0
  5  4  1  0
  5  6  1  6
  7  5  1  0
  7  8  2  0
  9 10  1  0
 10 12  1  0
 11 10  2  0
 12 13  1  0
 13 14  1  0
 16 15  1  6
 15 14  1  0
 16 17  1  0
 17  7  1  0
 18 16  1  0
 19 18  2  0
 20 21  1  0
 22 21  1  6
 22 24  1  0
 22 23  1  0
 23 18  1  0
 24 25  1  0
 26 24  2  0
M  END
$$$$
