NRS.pdb
     RDKit          3D

 26 25  0  0  1  0  0  0  0  0999 V2000
    7.9682  -12.5220   16.0571 N   0  0  0  0  0  0  0  0  0  0  0  0
    7.3059  -13.7640   16.2127 C   0  0  0  0  0  0  0  0  0  0  0  0
    6.4025  -14.0054   15.3553 O   0  0  0  0  0  0  0  0  0  0  0  0
    7.5663  -14.7627   17.2477 C   0  0  0  0  0  0  0  0  0  0  0  0
    8.4250  -14.2027   18.3254 C   0  0  2  0  0  0  0  0  0  0  0  0
    9.6692  -13.6585   17.8642 N   0  0  0  0  0  0  0  0  0  0  0  0
    8.7219  -15.3307   19.2836 C   0  0  0  0  0  0  0  0  0  0  0  0
    7.7941  -15.9447   19.8650 O   0  0  0  0  0  0  0  0  0  0  0  0
   13.2224  -17.8745   15.7391 N   0  0  0  0  0  0  0  0  0  0  0  0
   11.8463  -18.2061   15.3527 C   0  0  0  0  0  0  0  0  0  0  0  0
   11.4555  -17.9796   14.1750 N   0  0  0  0  0  0  0  0  0  0  0  0
   10.9776  -18.7777   16.2985 N   0  0  0  0  0  0  0  0  0  0  0  0
   11.0621  -18.6833   17.7063 C   0  0  0  0  0  0  0  0  0  0  0  0
   11.5682  -17.4131   18.3128 C   0  0  0  0  0  0  0  0  0  0  0  0
   11.5340  -17.5257   19.8220 C   0  0  0  0  0  0  0  0  0  0  0  0
   10.3619  -16.8201   20.4020 C   0  0  2  0  0  0  0  0  0  0  0  0
   10.0494  -15.7046   19.5333 N   0  0  0  0  0  0  0  0  0  0  0  0
   10.7314  -16.2045   21.7420 C   0  0  0  0  0  0  0  0  0  0  0  0
   11.7249  -15.4374   21.8159 O   0  0  0  0  0  0  0  0  0  0  0  0
   10.5628  -18.1008   13.7704 O   0  0  0  0  0  0  0  0  0  0  0  0
    8.1012  -16.4512   24.9322 C   0  0  0  0  0  0  0  0  0  0  0  0
    9.1239  -15.5264   24.9431 C   0  0  1  0  0  0  0  0  0  0  0  0
   10.3288  -16.0618   24.2025 N   0  0  0  0  0  0  0  0  0  0  0  0
    9.9434  -16.5141   22.8689 C   0  0  0  0  0  0  0  0  0  0  0  0
   10.9908  -17.1589   24.9331 O   0  0  0  0  0  0  0  0  0  0  0  0
   11.6155  -16.8961   26.1323 O   0  0  0  0  0  0  0  0  0  0  0  0
  2  1  1  0
  3  2  2  0
  4  2  1  0
  5  4  1  0
  5  6  1  6
  7  5  1  0
  7  8  2  0
  9 10  1  0
 10 12  1  0
 11 10  2  0
 12 13  1  0
 13 14  1  0
 16 15  1  6
 15 14  1  0
 16 17  1  0
 17  7  1  0
 18 16  1  0
 19 18  2  0
 20 21  1  0
 22 21  1  6
 22 24  1  0
 22 23  1  0
 23 18  1  0
 24 25  1  0
 26 24  2  0
M  END
$$$$
