NRS.pdb
     RDKit          3D

 26 25  0  0  1  0  0  0  0  0999 V2000
   14.3769  -15.5277   17.2751 N   0  0  0  0  0  0  0  0  0  0  0  0
   14.3639  -14.4121   18.1471 C   0  0  0  0  0  0  0  0  0  0  0  0
   15.1219  -13.4528   17.8082 O   0  0  0  0  0  0  0  0  0  0  0  0
   13.5748  -14.2755   19.3699 C   0  0  0  0  0  0  0  0  0  0  0  0
   12.8453  -15.5347   19.6775 C   0  0  2  0  0  0  0  0  0  0  0  0
   11.6864  -15.7580   18.8626 N   0  0  0  0  0  0  0  0  0  0  0  0
   12.4071  -15.4494   21.1195 C   0  0  0  0  0  0  0  0  0  0  0  0
   13.2465  -15.3036   22.0415 O   0  0  0  0  0  0  0  0  0  0  0  0
    7.3367  -13.4761   18.0133 N   0  0  0  0  0  0  0  0  0  0  0  0
    8.4527  -13.1994   18.9249 C   0  0  0  0  0  0  0  0  0  0  0  0
    9.1353  -12.1491   18.7771 N   0  0  0  0  0  0  0  0  0  0  0  0
    8.7476  -14.1063   19.9575 N   0  0  0  0  0  0  0  0  0  0  0  0
    7.8301  -14.8654   20.7190 C   0  0  0  0  0  0  0  0  0  0  0  0
    8.3569  -15.7663   21.7905 C   0  0  0  0  0  0  0  0  0  0  0  0
    9.1752  -14.9568   22.7735 C   0  0  0  0  0  0  0  0  0  0  0  0
   10.5922  -15.4023   22.8114 C   0  0  2  0  0  0  0  0  0  0  0  0
   11.0459  -15.5332   21.4426 N   0  0  0  0  0  0  0  0  0  0  0  0
   10.6872  -16.7968   23.4093 C   0  0  0  0  0  0  0  0  0  0  0  0
   10.6511  -17.7980   22.6494 O   0  0  0  0  0  0  0  0  0  0  0  0
    9.9039  -11.8153   19.2999 O   0  0  0  0  0  0  0  0  0  0  0  0
   10.7570  -17.1459   27.5262 C   0  0  0  0  0  0  0  0  0  0  0  0
   11.5024  -18.0824   26.8415 C   0  0  1  0  0  0  0  0  0  0  0  0
   10.9883  -18.2363   25.4276 N   0  0  0  0  0  0  0  0  0  0  0  0
   10.8140  -16.9263   24.8071 C   0  0  0  0  0  0  0  0  0  0  0  0
    9.7217  -18.9902   25.3733 O   0  0  0  0  0  0  0  0  0  0  0  0
    9.7038  -20.3154   25.7491 O   0  0  0  0  0  0  0  0  0  0  0  0
  2  1  1  0
  3  2  2  0
  4  2  1  0
  5  4  1  0
  5  6  1  6
  7  5  1  0
  7  8  2  0
  9 10  1  0
 10 12  1  0
 11 10  2  0
 12 13  1  0
 13 14  1  0
 16 15  1  6
 15 14  1  0
 16 17  1  0
 17  7  1  0
 18 16  1  0
 19 18  2  0
 20 21  1  0
 22 21  1  6
 22 24  1  0
 22 23  1  0
 23 18  1  0
 24 25  1  0
 26 24  2  0
M  END
$$$$
