NMQ.pdb
     RDKit          3D

 26 25  0  0  1  0  0  0  0  0999 V2000
   29.0039  -21.0869  -16.7840 N   0  0  0  0  0  0  0  0  0  0  0  0
   27.8729  -20.2278  -16.8334 C   0  0  0  0  0  0  0  0  0  0  0  0
   27.8537  -19.3234  -17.7231 O   0  0  0  0  0  0  0  0  0  0  0  0
   26.7459  -20.4062  -15.8494 C   0  0  0  0  0  0  0  0  0  0  0  0
   27.0985  -21.5506  -14.9605 C   0  0  2  0  0  0  0  0  0  0  0  0
   27.2340  -22.7929  -15.6725 N   0  0  0  0  0  0  0  0  0  0  0  0
   26.2160  -21.6986  -13.7963 C   0  0  0  0  0  0  0  0  0  0  0  0
   25.0955  -22.2246  -13.9579 O   0  0  0  0  0  0  0  0  0  0  0  0
   27.3238  -18.9666   -7.5868 C   0  0  0  0  0  0  0  0  0  0  0  0
   26.2627  -20.4233   -7.3595 S   0  0  0  0  0  0  0  0  0  0  0  0
   25.3294  -20.7761   -8.9014 C   0  0  0  0  0  0  0  0  0  0  0  0
   26.2745  -20.8859  -10.0497 C   0  0  0  0  0  0  0  0  0  0  0  0
   25.6852  -21.1313  -11.3811 C   0  0  2  0  0  0  0  0  0  0  0  0
   26.5748  -21.2709  -12.4827 N   0  0  0  0  0  0  0  0  0  0  0  0
   24.4803  -20.2729  -11.6881 C   0  0  0  0  0  0  0  0  0  0  0  0
   24.6753  -19.1005  -12.1091 O   0  0  0  0  0  0  0  0  0  0  0  0
   22.4233  -18.8256  -16.2299 N   0  0  0  0  0  0  0  0  0  0  0  0
   22.1448  -20.1630  -15.8609 C   0  0  0  0  0  0  0  0  0  0  0  0
   22.0289  -21.0096  -16.8076 O   0  0  0  0  0  0  0  0  0  0  0  0
   21.9946  -20.6084  -14.4767 C   0  0  0  0  0  0  0  0  0  0  0  0
   22.1742  -19.5786  -13.4174 C   0  0  0  0  0  0  0  0  0  0  0  0
   21.9759  -20.0227  -12.0265 C   0  0  2  0  0  0  0  0  0  0  0  0
   23.1716  -20.7142  -11.5230 N   0  0  0  0  0  0  0  0  0  0  0  0
   20.7801  -20.7434  -11.6393 C   0  0  0  0  0  0  0  0  0  0  0  0
   20.8724  -22.0142  -11.0219 O   0  0  0  0  0  0  0  0  0  0  0  0
   19.5792  -20.3606  -11.7899 O   0  0  0  0  0  0  0  0  0  0  0  0
  2  1  1  0
  3  2  2  0
  4  2  1  0
  5  4  1  0
  5  7  1  0
  5  6  1  6
  7  8  2  0
  7 14  1  0
 10  9  1  0
 11 12  1  0
 11 10  1  0
 13 12  1  1
 14 13  1  0
 15 13  1  0
 15 23  1  0
 16 15  2  0
 17 18  1  0
 18 20  1  0
 19 18  2  0
 20 21  1  0
 22 21  1  6
 22 23  1  0
 22 24  1  0
 24 25  1  0
 26 24  2  0
M  END
$$$$
