NMQ.pdb
     RDKit          3D

 26 25  0  0  1  0  0  0  0  0999 V2000
   18.7168  -13.3747  -19.4917 N   0  0  0  0  0  0  0  0  0  0  0  0
   18.8329  -13.7428  -18.1239 C   0  0  0  0  0  0  0  0  0  0  0  0
   18.2600  -14.8103  -17.7466 O   0  0  0  0  0  0  0  0  0  0  0  0
   19.6167  -12.8762  -17.1728 C   0  0  0  0  0  0  0  0  0  0  0  0
   20.1518  -11.7211  -17.9499 C   0  0  2  0  0  0  0  0  0  0  0  0
   21.1428  -12.1074  -18.9180 N   0  0  0  0  0  0  0  0  0  0  0  0
   20.6267  -10.6083  -17.1179 C   0  0  0  0  0  0  0  0  0  0  0  0
   19.8826  -10.1785  -16.2123 O   0  0  0  0  0  0  0  0  0  0  0  0
   27.0859  -11.2693  -14.8909 C   0  0  0  0  0  0  0  0  0  0  0  0
   26.3016   -9.8015  -15.6187 S   0  0  0  0  0  0  0  0  0  0  0  0
   24.4804  -10.0262  -15.6946 C   0  0  0  0  0  0  0  0  0  0  0  0
   23.8469   -8.8162  -16.2934 C   0  0  0  0  0  0  0  0  0  0  0  0
   22.3945   -8.8789  -16.5515 C   0  0  2  0  0  0  0  0  0  0  0  0
   21.9015   -9.9900  -17.2909 N   0  0  0  0  0  0  0  0  0  0  0  0
   21.7871   -7.5610  -16.9724 C   0  0  0  0  0  0  0  0  0  0  0  0
   21.2806   -7.4790  -18.1241 O   0  0  0  0  0  0  0  0  0  0  0  0
   17.0479   -5.2677  -16.2991 N   0  0  0  0  0  0  0  0  0  0  0  0
   17.6331   -4.1728  -16.9782 C   0  0  0  0  0  0  0  0  0  0  0  0
   16.8823   -3.1667  -17.2034 O   0  0  0  0  0  0  0  0  0  0  0  0
   19.0273   -4.1410  -17.4165 C   0  0  0  0  0  0  0  0  0  0  0  0
   19.8411   -5.3588  -17.1530 C   0  0  0  0  0  0  0  0  0  0  0  0
   21.1431   -5.1514  -16.4949 C   0  0  2  0  0  0  0  0  0  0  0  0
   21.7663   -6.4381  -16.1520 N   0  0  0  0  0  0  0  0  0  0  0  0
   21.2797   -4.2194  -15.3940 C   0  0  0  0  0  0  0  0  0  0  0  0
   21.6336   -4.6770  -14.1017 O   0  0  0  0  0  0  0  0  0  0  0  0
   21.1134   -2.9617  -15.4373 O   0  0  0  0  0  0  0  0  0  0  0  0
  2  1  1  0
  3  2  2  0
  4  2  1  0
  5  4  1  0
  5  7  1  0
  5  6  1  1
  7  8  2  0
  7 14  1  0
 10  9  1  0
 11 12  1  0
 11 10  1  0
 13 12  1  6
 14 13  1  0
 15 13  1  0
 15 23  1  0
 16 15  2  0
 17 18  1  0
 18 20  1  0
 19 18  2  0
 20 21  1  0
 22 21  1  1
 22 23  1  0
 22 24  1  0
 24 25  1  0
 26 24  2  0
M  END
$$$$
