NMQ.pdb
     RDKit          3D

 26 25  0  0  1  0  0  0  0  0999 V2000
   27.1880  -16.7862  -18.4970 N   0  0  0  0  0  0  0  0  0  0  0  0
   27.3067  -17.3110  -17.1816 C   0  0  0  0  0  0  0  0  0  0  0  0
   28.2182  -16.8397  -16.4352 O   0  0  0  0  0  0  0  0  0  0  0  0
   26.3678  -18.3920  -16.7126 C   0  0  0  0  0  0  0  0  0  0  0  0
   27.1460  -19.3210  -15.8432 C   0  0  2  0  0  0  0  0  0  0  0  0
   28.0870  -20.1220  -16.5791 N   0  0  0  0  0  0  0  0  0  0  0  0
   26.3165  -20.1514  -14.9608 C   0  0  0  0  0  0  0  0  0  0  0  0
   25.7502  -21.1546  -15.4417 O   0  0  0  0  0  0  0  0  0  0  0  0
   26.9778  -21.0496   -8.5033 C   0  0  0  0  0  0  0  0  0  0  0  0
   25.1640  -21.0532   -8.6014 S   0  0  0  0  0  0  0  0  0  0  0  0
   24.6226  -21.2599  -10.3442 C   0  0  0  0  0  0  0  0  0  0  0  0
   25.5656  -20.5473  -11.2537 C   0  0  0  0  0  0  0  0  0  0  0  0
   25.2529  -20.5734  -12.6965 C   0  0  2  0  0  0  0  0  0  0  0  0
   26.1239  -19.8703  -13.5748 N   0  0  0  0  0  0  0  0  0  0  0  0
   23.7895  -20.3693  -13.0125 C   0  0  0  0  0  0  0  0  0  0  0  0
   23.3405  -19.1912  -13.0223 O   0  0  0  0  0  0  0  0  0  0  0  0
   20.3791  -22.9001  -17.4384 N   0  0  0  0  0  0  0  0  0  0  0  0
   19.3903  -22.4956  -16.5105 C   0  0  0  0  0  0  0  0  0  0  0  0
   18.1885  -22.4452  -16.9344 O   0  0  0  0  0  0  0  0  0  0  0  0
   19.6765  -22.1480  -15.1197 C   0  0  0  0  0  0  0  0  0  0  0  0
   21.1038  -22.1823  -14.6997 C   0  0  0  0  0  0  0  0  0  0  0  0
   21.4916  -21.2710  -13.6087 C   0  0  2  0  0  0  0  0  0  0  0  0
   22.9185  -21.4184  -13.2867 N   0  0  0  0  0  0  0  0  0  0  0  0
   20.7090  -21.1924  -12.3919 C   0  0  0  0  0  0  0  0  0  0  0  0
   19.4656  -20.5151  -12.3770 O   0  0  0  0  0  0  0  0  0  0  0  0
   21.0100  -21.6838  -11.2610 O   0  0  0  0  0  0  0  0  0  0  0  0
  2  1  1  0
  3  2  2  0
  4  2  1  0
  5  4  1  0
  5  7  1  0
  5  6  1  6
  7  8  2  0
  7 14  1  0
 10  9  1  0
 11 12  1  0
 11 10  1  0
 13 12  1  1
 14 13  1  0
 15 13  1  0
 15 23  1  0
 16 15  2  0
 17 18  1  0
 18 20  1  0
 19 18  2  0
 20 21  1  0
 22 21  1  6
 22 23  1  0
 22 24  1  0
 24 25  1  0
 26 24  2  0
M  END
$$$$
