NMQ.pdb
     RDKit          3D

 26 25  0  0  1  0  0  0  0  0999 V2000
   19.6247  -18.3216  -17.0759 N   0  0  0  0  0  0  0  0  0  0  0  0
   19.6703  -18.1339  -15.6679 C   0  0  0  0  0  0  0  0  0  0  0  0
   18.9722  -18.9074  -14.9438 O   0  0  0  0  0  0  0  0  0  0  0  0
   20.5280  -17.0442  -15.0789 C   0  0  0  0  0  0  0  0  0  0  0  0
   21.0484  -16.2189  -16.2070 C   0  0  2  0  0  0  0  0  0  0  0  0
   21.7811  -16.9901  -17.1749 N   0  0  0  0  0  0  0  0  0  0  0  0
   21.8093  -15.0368  -15.7828 C   0  0  0  0  0  0  0  0  0  0  0  0
   21.3762  -14.3570  -14.8295 O   0  0  0  0  0  0  0  0  0  0  0  0
   28.6472  -15.9855  -15.6847 C   0  0  0  0  0  0  0  0  0  0  0  0
   27.7110  -14.5864  -16.3671 S   0  0  0  0  0  0  0  0  0  0  0  0
   25.9657  -14.6526  -15.7990 C   0  0  0  0  0  0  0  0  0  0  0  0
   25.2204  -13.4702  -16.3189 C   0  0  0  0  0  0  0  0  0  0  0  0
   23.7613  -13.4464  -16.0942 C   0  0  2  0  0  0  0  0  0  0  0  0
   23.0248  -14.6232  -16.4062 N   0  0  0  0  0  0  0  0  0  0  0  0
   23.0879  -12.1763  -16.5591 C   0  0  0  0  0  0  0  0  0  0  0  0
   22.5026  -12.1863  -17.6759 O   0  0  0  0  0  0  0  0  0  0  0  0
   20.4808   -7.6816  -12.8691 N   0  0  0  0  0  0  0  0  0  0  0  0
   20.4004   -7.1937  -14.1950 C   0  0  0  0  0  0  0  0  0  0  0  0
   19.7291   -6.1245  -14.3757 O   0  0  0  0  0  0  0  0  0  0  0  0
   21.0423   -7.8406  -15.3380 C   0  0  0  0  0  0  0  0  0  0  0  0
   21.7397   -9.1287  -15.0752 C   0  0  0  0  0  0  0  0  0  0  0  0
   22.4367   -9.7456  -16.2176 C   0  0  2  0  0  0  0  0  0  0  0  0
   23.0892  -11.0004  -15.8162 N   0  0  0  0  0  0  0  0  0  0  0  0
   23.3238   -8.9656  -17.0566 C   0  0  0  0  0  0  0  0  0  0  0  0
   22.8025   -8.0346  -17.9873 O   0  0  0  0  0  0  0  0  0  0  0  0
   24.5923   -9.0086  -17.0686 O   0  0  0  0  0  0  0  0  0  0  0  0
  2  1  1  0
  3  2  2  0
  4  2  1  0
  5  4  1  0
  5  7  1  0
  5  6  1  6
  7  8  2  0
  7 14  1  0
 10  9  1  0
 11 12  1  0
 11 10  1  0
 13 12  1  6
 14 13  1  0
 15 13  1  0
 15 23  1  0
 16 15  2  0
 17 18  1  0
 18 20  1  0
 19 18  2  0
 20 21  1  0
 22 21  1  1
 22 23  1  0
 22 24  1  0
 24 25  1  0
 26 24  2  0
M  END
$$$$
