NMQ.pdb
     RDKit          3D

 26 25  0  0  1  0  0  0  0  0999 V2000
   19.3652   -9.6452  -23.2883 N   0  0  0  0  0  0  0  0  0  0  0  0
   19.9034   -9.8599  -21.9905 C   0  0  0  0  0  0  0  0  0  0  0  0
   21.1584  -10.0160  -21.8875 O   0  0  0  0  0  0  0  0  0  0  0  0
   18.9916   -9.8966  -20.7917 C   0  0  0  0  0  0  0  0  0  0  0  0
   19.6425  -10.7479  -19.7543 C   0  0  2  0  0  0  0  0  0  0  0  0
   19.2662  -12.1328  -19.8483 N   0  0  0  0  0  0  0  0  0  0  0  0
   19.4856  -10.2461  -18.3833 C   0  0  0  0  0  0  0  0  0  0  0  0
   18.3688  -10.3449  -17.8342 O   0  0  0  0  0  0  0  0  0  0  0  0
   22.1183   -9.0001  -11.1021 C   0  0  0  0  0  0  0  0  0  0  0  0
   22.3958   -9.6371  -12.7804 S   0  0  0  0  0  0  0  0  0  0  0  0
   21.1940   -8.8890  -13.9505 C   0  0  0  0  0  0  0  0  0  0  0  0
   21.3690   -9.4873  -15.3052 C   0  0  0  0  0  0  0  0  0  0  0  0
   20.4323   -9.0466  -16.3581 C   0  0  2  0  0  0  0  0  0  0  0  0
   20.5491   -9.6493  -17.6417 N   0  0  0  0  0  0  0  0  0  0  0  0
   20.2295   -7.5504  -16.4140 C   0  0  0  0  0  0  0  0  0  0  0  0
   21.0108   -6.8694  -17.1320 O   0  0  0  0  0  0  0  0  0  0  0  0
   15.8432   -2.4262  -18.2299 N   0  0  0  0  0  0  0  0  0  0  0  0
   16.7120   -3.5428  -18.2608 C   0  0  0  0  0  0  0  0  0  0  0  0
   16.5301   -4.3885  -19.1979 O   0  0  0  0  0  0  0  0  0  0  0  0
   17.7869   -3.7615  -17.2946 C   0  0  0  0  0  0  0  0  0  0  0  0
   18.2226   -5.1687  -17.0831 C   0  0  0  0  0  0  0  0  0  0  0  0
   18.9170   -5.4601  -15.8165 C   0  0  2  0  0  0  0  0  0  0  0  0
   19.2274   -6.8931  -15.7082 N   0  0  0  0  0  0  0  0  0  0  0  0
   18.4049   -4.9617  -14.5561 C   0  0  0  0  0  0  0  0  0  0  0  0
   18.4253   -3.5758  -14.2671 O   0  0  0  0  0  0  0  0  0  0  0  0
   17.9062   -5.6491  -13.6127 O   0  0  0  0  0  0  0  0  0  0  0  0
  2  1  1  0
  3  2  2  0
  4  2  1  0
  5  4  1  0
  5  7  1  0
  5  6  1  1
  7  8  2  0
  7 14  1  0
 10  9  1  0
 11 12  1  0
 11 10  1  0
 13 12  1  1
 14 13  1  0
 15 13  1  0
 15 23  1  0
 16 15  2  0
 17 18  1  0
 18 20  1  0
 19 18  2  0
 20 21  1  0
 22 21  1  6
 22 23  1  0
 22 24  1  0
 24 25  1  0
 26 24  2  0
M  END
$$$$
