NMQ.pdb
     RDKit          3D

 26 25  0  0  1  0  0  0  0  0999 V2000
   11.4864  -12.1910  -11.2633 N   0  0  0  0  0  0  0  0  0  0  0  0
   12.5276  -12.6301  -10.4013 C   0  0  0  0  0  0  0  0  0  0  0  0
   12.2443  -13.5054   -9.5275 O   0  0  0  0  0  0  0  0  0  0  0  0
   13.9147  -12.0588  -10.5411 C   0  0  0  0  0  0  0  0  0  0  0  0
   13.9060  -11.1305  -11.7084 C   0  0  2  0  0  0  0  0  0  0  0  0
   13.8922  -11.8180  -12.9717 N   0  0  0  0  0  0  0  0  0  0  0  0
   14.9611  -10.1101  -11.6699 C   0  0  0  0  0  0  0  0  0  0  0  0
   15.2099   -9.5475  -10.5836 O   0  0  0  0  0  0  0  0  0  0  0  0
   21.8225   -7.3560  -13.4509 C   0  0  0  0  0  0  0  0  0  0  0  0
   20.5387   -8.6300  -13.6192 S   0  0  0  0  0  0  0  0  0  0  0  0
   18.8915   -7.8471  -13.8356 C   0  0  0  0  0  0  0  0  0  0  0  0
   17.8296   -8.8941  -13.8255 C   0  0  0  0  0  0  0  0  0  0  0  0
   16.7385   -8.7321  -12.8440 C   0  0  2  0  0  0  0  0  0  0  0  0
   15.7216   -9.7268  -12.8153 N   0  0  0  0  0  0  0  0  0  0  0  0
   16.2022   -7.3228  -12.7476 C   0  0  0  0  0  0  0  0  0  0  0  0
   15.4382   -6.9120  -13.6627 O   0  0  0  0  0  0  0  0  0  0  0  0
   14.8202   -4.3064   -7.4826 N   0  0  0  0  0  0  0  0  0  0  0  0
   13.9385   -4.8399   -8.4525 C   0  0  0  0  0  0  0  0  0  0  0  0
   12.7465   -5.0879   -8.0729 O   0  0  0  0  0  0  0  0  0  0  0  0
   14.3214   -5.1066   -9.8378 C   0  0  0  0  0  0  0  0  0  0  0  0
   15.6973   -4.7085  -10.2420 C   0  0  0  0  0  0  0  0  0  0  0  0
   16.1057   -5.0517  -11.6156 C   0  0  2  0  0  0  0  0  0  0  0  0
   16.5161   -6.4608  -11.7023 N   0  0  0  0  0  0  0  0  0  0  0  0
   17.0342   -4.2135  -12.3466 C   0  0  0  0  0  0  0  0  0  0  0  0
   16.6526   -2.9195  -12.7765 O   0  0  0  0  0  0  0  0  0  0  0  0
   18.2254   -4.5046  -12.6746 O   0  0  0  0  0  0  0  0  0  0  0  0
  2  1  1  0
  3  2  2  0
  4  2  1  0
  5  4  1  0
  5  7  1  0
  5  6  1  6
  7  8  2  0
  7 14  1  0
 10  9  1  0
 11 12  1  0
 11 10  1  0
 13 12  1  6
 14 13  1  0
 15 13  1  0
 15 23  1  0
 16 15  2  0
 17 18  1  0
 18 20  1  0
 19 18  2  0
 20 21  1  0
 22 21  1  1
 22 23  1  0
 22 24  1  0
 24 25  1  0
 26 24  2  0
M  END
$$$$
