NMQ.pdb
     RDKit          3D

 26 25  0  0  1  0  0  0  0  0999 V2000
   26.9618  -19.2666  -16.7326 N   0  0  0  0  0  0  0  0  0  0  0  0
   27.4610  -19.0468  -15.4202 C   0  0  0  0  0  0  0  0  0  0  0  0
   28.5550  -18.4154  -15.3000 O   0  0  0  0  0  0  0  0  0  0  0  0
   26.6966  -19.5573  -14.2264 C   0  0  0  0  0  0  0  0  0  0  0  0
   27.5602  -20.5529  -13.5283 C   0  0  2  0  0  0  0  0  0  0  0  0
   27.9053  -21.6757  -14.3582 N   0  0  0  0  0  0  0  0  0  0  0  0
   27.0366  -20.9931  -12.2290 C   0  0  0  0  0  0  0  0  0  0  0  0
   26.2609  -21.9707  -12.1967 O   0  0  0  0  0  0  0  0  0  0  0  0
   26.9538  -20.2105   -4.2494 C   0  0  0  0  0  0  0  0  0  0  0  0
   27.7561  -19.8300   -5.8340 S   0  0  0  0  0  0  0  0  0  0  0  0
   26.7019  -20.3890   -7.2302 C   0  0  0  0  0  0  0  0  0  0  0  0
   27.4106  -20.1582   -8.5218 C   0  0  0  0  0  0  0  0  0  0  0  0
   26.6963  -20.5425   -9.7556 C   0  0  2  0  0  0  0  0  0  0  0  0
   27.3709  -20.3588  -10.9948 N   0  0  0  0  0  0  0  0  0  0  0  0
   25.2497  -20.1074   -9.7897 C   0  0  0  0  0  0  0  0  0  0  0  0
   24.9998  -18.8731   -9.8512 O   0  0  0  0  0  0  0  0  0  0  0  0
   20.2852  -22.1448  -13.1276 N   0  0  0  0  0  0  0  0  0  0  0  0
   20.9074  -20.8938  -13.3520 C   0  0  0  0  0  0  0  0  0  0  0  0
   20.3659  -20.1278  -14.2161 O   0  0  0  0  0  0  0  0  0  0  0  0
   22.1095  -20.4479  -12.6499 C   0  0  0  0  0  0  0  0  0  0  0  0
   22.6307  -21.3401  -11.5789 C   0  0  0  0  0  0  0  0  0  0  0  0
   22.8316  -20.7297  -10.2528 C   0  0  2  0  0  0  0  0  0  0  0  0
   24.1864  -21.0031   -9.7514 N   0  0  0  0  0  0  0  0  0  0  0  0
   21.8592  -20.9135   -9.1946 C   0  0  0  0  0  0  0  0  0  0  0  0
   20.5518  -20.3837   -9.3170 O   0  0  0  0  0  0  0  0  0  0  0  0
   22.0353  -21.5286   -8.0983 O   0  0  0  0  0  0  0  0  0  0  0  0
  2  1  1  0
  3  2  2  0
  4  2  1  0
  5  4  1  0
  5  7  1  0
  5  6  1  6
  7  8  2  0
  7 14  1  0
 10  9  1  0
 11 12  1  0
 11 10  1  0
 13 12  1  1
 14 13  1  0
 15 13  1  0
 15 23  1  0
 16 15  2  0
 17 18  1  0
 18 20  1  0
 19 18  2  0
 20 21  1  0
 22 21  1  6
 22 23  1  0
 22 24  1  0
 24 25  1  0
 26 24  2  0
M  END
$$$$
