NMQ.pdb
     RDKit          3D

 26 25  0  0  1  0  0  0  0  0999 V2000
   19.4503  -15.1396  -17.0360 N   0  0  0  0  0  0  0  0  0  0  0  0
   18.7926  -13.8803  -17.0736 C   0  0  0  0  0  0  0  0  0  0  0  0
   17.6485  -13.8251  -17.6195 O   0  0  0  0  0  0  0  0  0  0  0  0
   19.4541  -12.6650  -16.4774 C   0  0  0  0  0  0  0  0  0  0  0  0
   20.7769  -13.0902  -15.9356 C   0  0  2  0  0  0  0  0  0  0  0  0
   20.6668  -14.0885  -14.9061 N   0  0  0  0  0  0  0  0  0  0  0  0
   21.6344  -11.9776  -15.5078 C   0  0  0  0  0  0  0  0  0  0  0  0
   21.2450  -11.2473  -14.5731 O   0  0  0  0  0  0  0  0  0  0  0  0
   28.0752  -10.6956  -16.6611 C   0  0  0  0  0  0  0  0  0  0  0  0
   27.5685  -12.0301  -15.5378 S   0  0  0  0  0  0  0  0  0  0  0  0
   25.7841  -11.8751  -15.1315 C   0  0  0  0  0  0  0  0  0  0  0  0
   25.1857  -10.7502  -15.9064 C   0  0  0  0  0  0  0  0  0  0  0  0
   23.7239  -10.5695  -15.8043 C   0  0  2  0  0  0  0  0  0  0  0  0
   22.8966  -11.6868  -16.1073 N   0  0  0  0  0  0  0  0  0  0  0  0
   23.2215   -9.2731  -16.3958 C   0  0  0  0  0  0  0  0  0  0  0  0
   23.2676   -9.1319  -17.6479 O   0  0  0  0  0  0  0  0  0  0  0  0
   17.8994   -6.7198  -15.3268 N   0  0  0  0  0  0  0  0  0  0  0  0
   18.4314   -7.6363  -16.2645 C   0  0  0  0  0  0  0  0  0  0  0  0
   17.6059   -8.4289  -16.8275 O   0  0  0  0  0  0  0  0  0  0  0  0
   19.8491   -7.7091  -16.6136 C   0  0  0  0  0  0  0  0  0  0  0  0
   20.7705   -6.8091  -15.8681 C   0  0  0  0  0  0  0  0  0  0  0  0
   22.2088   -6.9570  -16.1522 C   0  0  2  0  0  0  0  0  0  0  0  0
   22.7176   -8.2314  -15.6242 N   0  0  0  0  0  0  0  0  0  0  0  0
   23.1389   -5.8858  -15.8579 C   0  0  0  0  0  0  0  0  0  0  0  0
   22.8556   -4.5562  -16.2537 O   0  0  0  0  0  0  0  0  0  0  0  0
   24.2489   -5.9877  -15.2507 O   0  0  0  0  0  0  0  0  0  0  0  0
  2  1  1  0
  3  2  2  0
  4  2  1  0
  5  4  1  0
  5  7  1  0
  5  6  1  1
  7  8  2  0
  7 14  1  0
 10  9  1  0
 11 12  1  0
 11 10  1  0
 13 12  1  6
 14 13  1  0
 15 13  1  0
 15 23  1  0
 16 15  2  0
 17 18  1  0
 18 20  1  0
 19 18  2  0
 20 21  1  0
 22 21  1  1
 22 23  1  0
 22 24  1  0
 24 25  1  0
 26 24  2  0
M  END
$$$$
