NMQ.pdb
     RDKit          3D

 26 25  0  0  1  0  0  0  0  0999 V2000
   28.4544  -18.2883  -17.5991 N   0  0  0  0  0  0  0  0  0  0  0  0
   28.2118  -18.3333  -16.1994 C   0  0  0  0  0  0  0  0  0  0  0  0
   28.9416  -17.6172  -15.4480 O   0  0  0  0  0  0  0  0  0  0  0  0
   27.1172  -19.2112  -15.6508 C   0  0  0  0  0  0  0  0  0  0  0  0
   27.7430  -20.1707  -14.6956 C   0  0  2  0  0  0  0  0  0  0  0  0
   28.6432  -21.0921  -15.3352 N   0  0  0  0  0  0  0  0  0  0  0  0
   26.7813  -20.8752  -13.8384 C   0  0  0  0  0  0  0  0  0  0  0  0
   26.2565  -21.9246  -14.2648 O   0  0  0  0  0  0  0  0  0  0  0  0
   28.1934  -20.4922   -7.0367 C   0  0  0  0  0  0  0  0  0  0  0  0
   26.5720  -20.3644   -7.8454 S   0  0  0  0  0  0  0  0  0  0  0  0
   26.6826  -20.9426   -9.5851 C   0  0  0  0  0  0  0  0  0  0  0  0
   25.3946  -20.6770  -10.2883 C   0  0  0  0  0  0  0  0  0  0  0  0
   25.3568  -20.9433  -11.7401 C   0  0  2  0  0  0  0  0  0  0  0  0
   26.4143  -20.4210  -12.5360 N   0  0  0  0  0  0  0  0  0  0  0  0
   23.9921  -20.7637  -12.3630 C   0  0  0  0  0  0  0  0  0  0  0  0
   23.6622  -19.6113  -12.7538 O   0  0  0  0  0  0  0  0  0  0  0  0
   20.1428  -25.3914  -14.7522 N   0  0  0  0  0  0  0  0  0  0  0  0
   19.3749  -24.2032  -14.7181 C   0  0  0  0  0  0  0  0  0  0  0  0
   18.2016  -24.2612  -15.2148 O   0  0  0  0  0  0  0  0  0  0  0  0
   19.8518  -22.9449  -14.1471 C   0  0  0  0  0  0  0  0  0  0  0  0
   21.2191  -22.9505  -13.5596 C   0  0  0  0  0  0  0  0  0  0  0  0
   21.7150  -21.6669  -13.0326 C   0  0  2  0  0  0  0  0  0  0  0  0
   23.0855  -21.8070  -12.5193 N   0  0  0  0  0  0  0  0  0  0  0  0
   20.9146  -20.8804  -12.1160 C   0  0  0  0  0  0  0  0  0  0  0  0
   19.9526  -19.9631  -12.6036 O   0  0  0  0  0  0  0  0  0  0  0  0
   20.9643  -20.9068  -10.8479 O   0  0  0  0  0  0  0  0  0  0  0  0
  2  1  1  0
  3  2  2  0
  4  2  1  0
  5  4  1  0
  5  7  1  0
  5  6  1  6
  7  8  2  0
  7 14  1  0
 10  9  1  0
 11 12  1  0
 11 10  1  0
 13 12  1  1
 14 13  1  0
 15 13  1  0
 15 23  1  0
 16 15  2  0
 17 18  1  0
 18 20  1  0
 19 18  2  0
 20 21  1  0
 22 21  1  1
 22 23  1  0
 22 24  1  0
 24 25  1  0
 26 24  2  0
M  END
$$$$
