QWF.pdb
     RDKit          3D

 35 37  0  0  1  0  0  0  0  0999 V2000
   10.6902  -16.7487   14.7052 N   0  0  0  0  0  0  0  0  0  0  0  0
   11.7177  -16.9005   15.6917 C   0  0  0  0  0  0  0  0  0  0  0  0
   12.7763  -16.2362   15.5250 O   0  0  0  0  0  0  0  0  0  0  0  0
   11.4734  -17.8112   16.8269 C   0  0  0  0  0  0  0  0  0  0  0  0
   10.8329  -17.2015   18.0090 C   0  0  0  0  0  0  0  0  0  0  0  0
   10.5675  -18.0377   19.1981 C   0  0  2  0  0  0  0  0  0  0  0  0
    9.5111  -19.0115   19.0172 N   0  0  0  0  0  0  0  0  0  0  0  0
   10.4772  -17.3323   20.4982 C   0  0  0  0  0  0  0  0  0  0  0  0
   11.3556  -16.5600   20.9481 O   0  0  0  0  0  0  0  0  0  0  0  0
    9.3254  -17.5235   21.3048 N   0  0  0  0  0  0  0  0  0  0  0  0
    9.1642  -16.9290   22.6082 C   0  0  1  0  0  0  0  0  0  0  0  0
    7.8967  -16.1391   22.6214 C   0  0  0  0  0  0  0  0  0  0  0  0
    7.5125  -15.5769   21.2932 C   0  0  0  0  0  0  0  0  0  0  0  0
    6.7878  -16.1407   20.2906 C   0  0  0  0  0  0  0  0  0  0  0  0
    6.6682  -15.2732   19.2733 N   0  0  0  0  0  0  0  0  0  0  0  0
    7.3185  -14.1147   19.5952 C   0  0  0  0  0  0  0  0  0  0  0  0
    7.4957  -12.9410   18.8939 C   0  0  0  0  0  0  0  0  0  0  0  0
    8.2354  -11.9179   19.4913 C   0  0  0  0  0  0  0  0  0  0  0  0
    8.7497  -12.1339   20.7493 C   0  0  0  0  0  0  0  0  0  0  0  0
    8.5694  -13.3214   21.4573 C   0  0  0  0  0  0  0  0  0  0  0  0
    7.8451  -14.3010   20.8529 C   0  0  0  0  0  0  0  0  0  0  0  0
    9.2003  -17.9234   23.7243 C   0  0  0  0  0  0  0  0  0  0  0  0
    8.2899  -18.7872   23.7646 O   0  0  0  0  0  0  0  0  0  0  0  0
   10.2000  -17.9458   24.7323 N   0  0  0  0  0  0  0  0  0  0  0  0
   10.5318  -16.7937   25.5755 C   0  0  1  0  0  0  0  0  0  0  0  0
    9.2979  -16.1421   26.0964 C   0  0  0  0  0  0  0  0  0  0  0  0
    9.5778  -15.0962   27.0803 C   0  0  0  0  0  0  0  0  0  0  0  0
    8.5964  -14.4581   27.8020 C   0  0  0  0  0  0  0  0  0  0  0  0
    8.8441  -13.4929   28.7394 C   0  0  0  0  0  0  0  0  0  0  0  0
   10.1759  -13.1201   28.9919 C   0  0  0  0  0  0  0  0  0  0  0  0
   11.1638  -13.7370   28.2912 C   0  0  0  0  0  0  0  0  0  0  0  0
   10.8690  -14.7113   27.3482 C   0  0  0  0  0  0  0  0  0  0  0  0
   11.4206  -17.1947   26.6844 C   0  0  0  0  0  0  0  0  0  0  0  0
   11.8122  -16.4482   27.6088 O   0  0  0  0  0  0  0  0  0  0  0  0
   11.8628  -18.5341   26.7084 O   0  0  0  0  0  0  0  0  0  0  0  0
  2  1  1  0
  3  2  2  0
  4  2  1  0
  5  4  1  0
  6  5  1  0
  6  7  1  6
  8  9  2  0
  8  6  1  0
 10  8  1  0
 11 10  1  0
 11 12  1  6
 12 13  1  0
 13 14  2  0
 13 21  1  0
 14 15  1  0
 15 16  1  0
 16 17  2  0
 18 17  1  0
 19 18  2  0
 20 19  1  0
 21 20  2  0
 21 16  1  0
 22 11  1  0
 23 22  2  0
 24 22  1  0
 25 26  1  1
 25 24  1  0
 26 27  1  0
 27 32  1  0
 28 27  2  0
 28 29  1  0
 29 30  2  0
 30 31  1  0
 32 31  2  0
 33 35  1  0
 33 25  1  0
 34 33  2  0
M  END
$$$$
