QWF.pdb
     RDKit          3D

 35 37  0  0  1  0  0  0  0  0999 V2000
    9.3058  -18.1109   17.0284 N   0  0  0  0  0  0  0  0  0  0  0  0
   10.4015  -18.9953   17.2918 C   0  0  0  0  0  0  0  0  0  0  0  0
   10.6573  -19.8681   16.4186 O   0  0  0  0  0  0  0  0  0  0  0  0
   11.1526  -18.8285   18.5509 C   0  0  0  0  0  0  0  0  0  0  0  0
   10.6401  -17.7919   19.4684 C   0  0  0  0  0  0  0  0  0  0  0  0
   10.7722  -17.9893   20.9270 C   0  0  2  0  0  0  0  0  0  0  0  0
    9.9547  -19.0595   21.4593 N   0  0  0  0  0  0  0  0  0  0  0  0
   10.7339  -16.7694   21.7674 C   0  0  0  0  0  0  0  0  0  0  0  0
   11.5187  -15.8000   21.6461 O   0  0  0  0  0  0  0  0  0  0  0  0
    9.7474  -16.6653   22.7823 N   0  0  0  0  0  0  0  0  0  0  0  0
    9.5959  -15.5039   23.6229 C   0  0  1  0  0  0  0  0  0  0  0  0
    8.1536  -15.1173   23.6509 C   0  0  0  0  0  0  0  0  0  0  0  0
    7.4932  -15.1207   22.3123 C   0  0  0  0  0  0  0  0  0  0  0  0
    6.6609  -16.0423   21.7592 C   0  0  0  0  0  0  0  0  0  0  0  0
    6.2856  -15.6389   20.5352 N   0  0  0  0  0  0  0  0  0  0  0  0
    6.8712  -14.4341   20.2629 C   0  0  0  0  0  0  0  0  0  0  0  0
    6.8134  -13.6204   19.1513 C   0  0  0  0  0  0  0  0  0  0  0  0
    7.5472  -12.4321   19.1617 C   0  0  0  0  0  0  0  0  0  0  0  0
    8.2905  -12.1343   20.2809 C   0  0  0  0  0  0  0  0  0  0  0  0
    8.3477  -12.9581   21.4042 C   0  0  0  0  0  0  0  0  0  0  0  0
    7.6238  -14.1089   21.3681 C   0  0  0  0  0  0  0  0  0  0  0  0
   10.1379  -15.6939   25.0035 C   0  0  0  0  0  0  0  0  0  0  0  0
   11.1042  -14.9730   25.3542 O   0  0  0  0  0  0  0  0  0  0  0  0
    9.6236  -16.6359   25.9329 N   0  0  0  0  0  0  0  0  0  0  0  0
   10.1139  -16.7746   27.3072 C   0  0  1  0  0  0  0  0  0  0  0  0
    9.1596  -16.1682   28.2768 C   0  0  0  0  0  0  0  0  0  0  0  0
    8.8322  -14.7779   27.9605 C   0  0  0  0  0  0  0  0  0  0  0  0
    7.6687  -14.4018   27.3314 C   0  0  0  0  0  0  0  0  0  0  0  0
    7.3398  -13.1045   27.0473 C   0  0  0  0  0  0  0  0  0  0  0  0
    8.2338  -12.0834   27.4139 C   0  0  0  0  0  0  0  0  0  0  0  0
    9.3908  -12.4302   28.0373 C   0  0  0  0  0  0  0  0  0  0  0  0
    9.6862  -13.7589   28.3066 C   0  0  0  0  0  0  0  0  0  0  0  0
   10.3625  -18.1930   27.6342 C   0  0  0  0  0  0  0  0  0  0  0  0
   10.1494  -19.1628   26.8731 O   0  0  0  0  0  0  0  0  0  0  0  0
   10.8898  -18.4809   28.9106 O   0  0  0  0  0  0  0  0  0  0  0  0
  2  1  1  0
  3  2  2  0
  4  2  1  0
  5  4  1  0
  6  5  1  0
  6  7  1  1
  8  9  2  0
  8  6  1  0
 10  8  1  0
 11 10  1  0
 11 12  1  1
 12 13  1  0
 13 14  2  0
 13 21  1  0
 14 15  1  0
 15 16  1  0
 16 17  2  0
 18 17  1  0
 19 18  2  0
 20 19  1  0
 21 20  2  0
 21 16  1  0
 22 11  1  0
 23 22  2  0
 24 22  1  0
 25 26  1  1
 25 24  1  0
 26 27  1  0
 27 32  1  0
 28 27  2  0
 28 29  1  0
 29 30  2  0
 30 31  1  0
 32 31  2  0
 33 35  1  0
 33 25  1  0
 34 33  2  0
M  END
$$$$
