QWF.pdb
     RDKit          3D

 35 37  0  0  1  0  0  0  0  0999 V2000
    8.4154  -12.7096   16.2652 N   0  0  0  0  0  0  0  0  0  0  0  0
    8.7105  -13.9819   15.6767 C   0  0  0  0  0  0  0  0  0  0  0  0
    8.8717  -14.0126   14.4266 O   0  0  0  0  0  0  0  0  0  0  0  0
    8.8084  -15.1596   16.5605 C   0  0  0  0  0  0  0  0  0  0  0  0
    8.5438  -14.9089   17.9910 C   0  0  0  0  0  0  0  0  0  0  0  0
    9.0384  -15.8725   18.9963 C   0  0  2  0  0  0  0  0  0  0  0  0
    8.4704  -17.1993   18.8790 N   0  0  0  0  0  0  0  0  0  0  0  0
    9.0944  -15.3973   20.3989 C   0  0  0  0  0  0  0  0  0  0  0  0
    9.7271  -14.3848   20.7796 O   0  0  0  0  0  0  0  0  0  0  0  0
    8.3878  -16.1176   21.3967 N   0  0  0  0  0  0  0  0  0  0  0  0
    8.4226  -15.7727   22.7961 C   0  0  1  0  0  0  0  0  0  0  0  0
    7.3717  -16.5581   23.5097 C   0  0  0  0  0  0  0  0  0  0  0  0
    6.6513  -15.7938   24.5702 C   0  0  0  0  0  0  0  0  0  0  0  0
    5.9632  -16.2495   25.6505 C   0  0  0  0  0  0  0  0  0  0  0  0
    5.4832  -15.2120   26.3540 N   0  0  0  0  0  0  0  0  0  0  0  0
    5.8524  -14.0474   25.7409 C   0  0  0  0  0  0  0  0  0  0  0  0
    5.6025  -12.7289   26.0574 C   0  0  0  0  0  0  0  0  0  0  0  0
    6.1102  -11.7379   25.2143 C   0  0  0  0  0  0  0  0  0  0  0  0
    6.8337  -12.1283   24.1106 C   0  0  0  0  0  0  0  0  0  0  0  0
    7.0856  -13.4620   23.7921 C   0  0  0  0  0  0  0  0  0  0  0  0
    6.5802  -14.4068   24.6297 C   0  0  0  0  0  0  0  0  0  0  0  0
    9.7670  -15.9629   23.4225 C   0  0  0  0  0  0  0  0  0  0  0  0
   10.7385  -15.3516   22.9136 O   0  0  0  0  0  0  0  0  0  0  0  0
   10.0038  -16.7889   24.5528 N   0  0  0  0  0  0  0  0  0  0  0  0
   11.3281  -16.9986   25.1448 C   0  0  1  0  0  0  0  0  0  0  0  0
   11.8743  -15.7257   25.6924 C   0  0  0  0  0  0  0  0  0  0  0  0
   11.2888  -15.3628   26.9830 C   0  0  0  0  0  0  0  0  0  0  0  0
   10.8432  -14.0961   27.2792 C   0  0  0  0  0  0  0  0  0  0  0  0
   10.2752  -13.7468   28.4738 C   0  0  0  0  0  0  0  0  0  0  0  0
   10.1312  -14.7300   29.4682 C   0  0  0  0  0  0  0  0  0  0  0  0
   10.5639  -15.9901   29.1989 C   0  0  0  0  0  0  0  0  0  0  0  0
   11.1350  -16.3023   27.9735 C   0  0  0  0  0  0  0  0  0  0  0  0
   11.2755  -18.0392   26.1911 C   0  0  0  0  0  0  0  0  0  0  0  0
   12.2404  -18.4125   26.8946 O   0  0  0  0  0  0  0  0  0  0  0  0
   10.0317  -18.6632   26.4224 O   0  0  0  0  0  0  0  0  0  0  0  0
  2  1  1  0
  3  2  2  0
  4  2  1  0
  5  4  1  0
  6  5  1  0
  6  7  1  1
  8  9  2  0
  8  6  1  0
 10  8  1  0
 11 10  1  0
 11 12  1  1
 12 13  1  0
 13 14  2  0
 13 21  1  0
 14 15  1  0
 15 16  1  0
 16 17  2  0
 18 17  1  0
 19 18  2  0
 20 19  1  0
 21 20  2  0
 21 16  1  0
 22 11  1  0
 23 22  2  0
 24 22  1  0
 25 26  1  1
 25 24  1  0
 26 27  1  0
 27 32  1  0
 28 27  2  0
 28 29  1  0
 29 30  2  0
 30 31  1  0
 32 31  2  0
 33 35  1  0
 33 25  1  0
 34 33  2  0
M  END
$$$$
