QWF.pdb
     RDKit          3D

 35 37  0  0  1  0  0  0  0  0999 V2000
    6.6020  -19.4421   26.8431 N   0  0  0  0  0  0  0  0  0  0  0  0
    7.3985  -20.6238   26.9890 C   0  0  0  0  0  0  0  0  0  0  0  0
    8.0012  -20.7779   28.0857 O   0  0  0  0  0  0  0  0  0  0  0  0
    7.4596  -21.5741   25.8618 C   0  0  0  0  0  0  0  0  0  0  0  0
    6.6562  -21.2130   24.6772 C   0  0  0  0  0  0  0  0  0  0  0  0
    7.3220  -21.0890   23.3637 C   0  0  2  0  0  0  0  0  0  0  0  0
    8.1439  -22.2255   23.0033 N   0  0  0  0  0  0  0  0  0  0  0  0
    7.9803  -19.7935   23.0737 C   0  0  0  0  0  0  0  0  0  0  0  0
    9.2033  -19.6571   22.8366 O   0  0  0  0  0  0  0  0  0  0  0  0
    7.1932  -18.6128   23.0521 N   0  0  0  0  0  0  0  0  0  0  0  0
    7.7555  -17.2879   22.9693 C   0  0  1  0  0  0  0  0  0  0  0  0
    6.7268  -16.3650   22.4033 C   0  0  0  0  0  0  0  0  0  0  0  0
    7.2024  -15.5574   21.2416 C   0  0  0  0  0  0  0  0  0  0  0  0
    7.3681  -15.9225   19.9426 C   0  0  0  0  0  0  0  0  0  0  0  0
    7.8045  -14.8734   19.2281 N   0  0  0  0  0  0  0  0  0  0  0  0
    7.9332  -13.7923   20.0547 C   0  0  0  0  0  0  0  0  0  0  0  0
    8.3517  -12.5012   19.8122 C   0  0  0  0  0  0  0  0  0  0  0  0
    8.3918  -11.6059   20.8835 C   0  0  0  0  0  0  0  0  0  0  0  0
    8.0117  -12.0585   22.1263 C   0  0  0  0  0  0  0  0  0  0  0  0
    7.5886  -13.3644   22.3697 C   0  0  0  0  0  0  0  0  0  0  0  0
    7.5587  -14.2155   21.3094 C   0  0  0  0  0  0  0  0  0  0  0  0
    8.2841  -16.7834   24.2740 C   0  0  0  0  0  0  0  0  0  0  0  0
    7.5931  -16.9905   25.3016 O   0  0  0  0  0  0  0  0  0  0  0  0
    9.5150  -16.0898   24.4141 N   0  0  0  0  0  0  0  0  0  0  0  0
   10.0002  -15.5409   25.6835 C   0  0  1  0  0  0  0  0  0  0  0  0
    8.8958  -15.4424   26.6780 C   0  0  0  0  0  0  0  0  0  0  0  0
    8.0174  -14.2965   26.4426 C   0  0  0  0  0  0  0  0  0  0  0  0
    6.6569  -14.4107   26.2779 C   0  0  0  0  0  0  0  0  0  0  0  0
    5.8205  -13.3468   26.0772 C   0  0  0  0  0  0  0  0  0  0  0  0
    6.3689  -12.0531   26.0344 C   0  0  0  0  0  0  0  0  0  0  0  0
    7.7115  -11.9144   26.1949 C   0  0  0  0  0  0  0  0  0  0  0  0
    8.5246  -13.0206   26.3959 C   0  0  0  0  0  0  0  0  0  0  0  0
   11.1127  -16.3538   26.2148 C   0  0  0  0  0  0  0  0  0  0  0  0
   11.7076  -16.1533   27.2969 O   0  0  0  0  0  0  0  0  0  0  0  0
   11.5390  -17.4532   25.4405 O   0  0  0  0  0  0  0  0  0  0  0  0
  2  1  1  0
  3  2  2  0
  4  2  1  0
  5  4  1  0
  6  5  1  0
  6  7  1  1
  8  9  2  0
  8  6  1  0
 10  8  1  0
 11 10  1  0
 11 12  1  1
 12 13  1  0
 13 14  2  0
 13 21  1  0
 14 15  1  0
 15 16  1  0
 16 17  2  0
 18 17  1  0
 19 18  2  0
 20 19  1  0
 21 20  2  0
 21 16  1  0
 22 11  1  0
 23 22  2  0
 24 22  1  0
 25 26  1  1
 25 24  1  0
 26 27  1  0
 27 32  1  0
 28 27  2  0
 28 29  1  0
 29 30  2  0
 30 31  1  0
 32 31  2  0
 33 35  1  0
 33 25  1  0
 34 33  2  0
M  END
$$$$
