QWF.pdb
     RDKit          3D

 35 37  0  0  1  0  0  0  0  0999 V2000
    6.0015  -17.0127   16.4409 N   0  0  0  0  0  0  0  0  0  0  0  0
    5.6443  -17.9151   17.4946 C   0  0  0  0  0  0  0  0  0  0  0  0
    5.9175  -19.1340   17.3237 O   0  0  0  0  0  0  0  0  0  0  0  0
    4.9902  -17.3666   18.6984 C   0  0  0  0  0  0  0  0  0  0  0  0
    5.8450  -16.5330   19.5665 C   0  0  0  0  0  0  0  0  0  0  0  0
    6.8622  -17.1842   20.4180 C   0  0  2  0  0  0  0  0  0  0  0  0
    6.3691  -18.3165   21.1741 N   0  0  0  0  0  0  0  0  0  0  0  0
    7.7221  -16.2884   21.2267 C   0  0  0  0  0  0  0  0  0  0  0  0
    8.0426  -15.1234   20.8943 O   0  0  0  0  0  0  0  0  0  0  0  0
    8.2252  -16.7562   22.4684 N   0  0  0  0  0  0  0  0  0  0  0  0
    9.2127  -16.0447   23.2411 C   0  0  1  0  0  0  0  0  0  0  0  0
    8.9600  -16.2973   24.6912 C   0  0  0  0  0  0  0  0  0  0  0  0
    7.7514  -15.6072   25.2307 C   0  0  0  0  0  0  0  0  0  0  0  0
    6.5287  -16.1154   25.5386 C   0  0  0  0  0  0  0  0  0  0  0  0
    5.7371  -15.1398   26.0110 N   0  0  0  0  0  0  0  0  0  0  0  0
    6.4346  -13.9642   26.0213 C   0  0  0  0  0  0  0  0  0  0  0  0
    6.0709  -12.6891   26.3993 C   0  0  0  0  0  0  0  0  0  0  0  0
    7.0164  -11.6681   26.2801 C   0  0  0  0  0  0  0  0  0  0  0  0
    8.2626  -11.9871   25.7911 C   0  0  0  0  0  0  0  0  0  0  0  0
    8.6288  -13.2771   25.4095 C   0  0  0  0  0  0  0  0  0  0  0  0
    7.6896  -14.2525   25.5360 C   0  0  0  0  0  0  0  0  0  0  0  0
   10.6197  -16.3828   22.8643 C   0  0  0  0  0  0  0  0  0  0  0  0
   10.9190  -17.5977   22.7606 O   0  0  0  0  0  0  0  0  0  0  0  0
   11.6277  -15.4137   22.6180 N   0  0  0  0  0  0  0  0  0  0  0  0
   12.8676  -15.6959   21.8891 C   0  0  1  0  0  0  0  0  0  0  0  0
   13.2072  -14.5794   20.9635 C   0  0  0  0  0  0  0  0  0  0  0  0
   12.0612  -14.1223   20.1775 C   0  0  0  0  0  0  0  0  0  0  0  0
   11.3510  -12.9824   20.4727 C   0  0  0  0  0  0  0  0  0  0  0  0
   10.2903  -12.5317   19.7355 C   0  0  0  0  0  0  0  0  0  0  0  0
    9.8902  -13.2662   18.6056 C   0  0  0  0  0  0  0  0  0  0  0  0
   10.5770  -14.3967   18.2930 C   0  0  0  0  0  0  0  0  0  0  0  0
   11.6474  -14.8192   19.0682 C   0  0  0  0  0  0  0  0  0  0  0  0
   13.9787  -15.9559   22.8263 C   0  0  0  0  0  0  0  0  0  0  0  0
   13.9340  -15.8035   24.0673 O   0  0  0  0  0  0  0  0  0  0  0  0
   15.1929  -16.4205   22.2788 O   0  0  0  0  0  0  0  0  0  0  0  0
  2  1  1  0
  3  2  2  0
  4  2  1  0
  5  4  1  0
  6  5  1  0
  6  7  1  1
  8  9  2  0
  8  6  1  0
 10  8  1  0
 11 10  1  0
 11 12  1  1
 12 13  1  0
 13 14  2  0
 13 21  1  0
 14 15  1  0
 15 16  1  0
 16 17  2  0
 18 17  1  0
 19 18  2  0
 20 19  1  0
 21 20  2  0
 21 16  1  0
 22 11  1  0
 23 22  2  0
 24 22  1  0
 25 26  1  1
 25 24  1  0
 26 27  1  0
 27 32  1  0
 28 27  2  0
 28 29  1  0
 29 30  2  0
 30 31  1  0
 32 31  2  0
 33 35  1  0
 33 25  1  0
 34 33  2  0
M  END
$$$$
