QWF.pdb
     RDKit          3D

 35 37  0  0  1  0  0  0  0  0999 V2000
   11.9692  -18.0664   17.2747 N   0  0  0  0  0  0  0  0  0  0  0  0
   10.9939  -19.0596   17.6127 C   0  0  0  0  0  0  0  0  0  0  0  0
   10.5699  -19.7897   16.6763 O   0  0  0  0  0  0  0  0  0  0  0  0
   10.5555  -19.1651   19.0178 C   0  0  0  0  0  0  0  0  0  0  0  0
   11.1761  -18.2076   19.9544 C   0  0  0  0  0  0  0  0  0  0  0  0
   10.8034  -18.2512   21.3838 C   0  0  2  0  0  0  0  0  0  0  0  0
    9.6867  -19.1237   21.6814 N   0  0  0  0  0  0  0  0  0  0  0  0
   10.7135  -16.9491   22.0856 C   0  0  0  0  0  0  0  0  0  0  0  0
   11.5761  -16.0431   22.0119 O   0  0  0  0  0  0  0  0  0  0  0  0
    9.5810  -16.6839   22.8986 N   0  0  0  0  0  0  0  0  0  0  0  0
    9.3397  -15.4098   23.5285 C   0  0  1  0  0  0  0  0  0  0  0  0
    7.8917  -15.0720   23.3878 C   0  0  0  0  0  0  0  0  0  0  0  0
    7.4087  -15.0262   21.9762 C   0  0  0  0  0  0  0  0  0  0  0  0
    6.5920  -15.8862   21.3117 C   0  0  0  0  0  0  0  0  0  0  0  0
    6.4045  -15.4548   20.0546 N   0  0  0  0  0  0  0  0  0  0  0  0
    7.1016  -14.2932   19.8722 C   0  0  0  0  0  0  0  0  0  0  0  0
    7.2421  -13.4748   18.7715 C   0  0  0  0  0  0  0  0  0  0  0  0
    8.0487  -12.3406   18.8882 C   0  0  0  0  0  0  0  0  0  0  0  0
    8.6621  -12.0980   20.0960 C   0  0  0  0  0  0  0  0  0  0  0  0
    8.5188  -12.9264   21.2082 C   0  0  0  0  0  0  0  0  0  0  0  0
    7.7279  -14.0238   21.0676 C   0  0  0  0  0  0  0  0  0  0  0  0
    9.7762  -15.3606   24.9579 C   0  0  0  0  0  0  0  0  0  0  0  0
   10.3439  -14.3146   25.3579 O   0  0  0  0  0  0  0  0  0  0  0  0
    9.5843  -16.4222   25.8809 N   0  0  0  0  0  0  0  0  0  0  0  0
    9.9433  -16.3423   27.2997 C   0  0  1  0  0  0  0  0  0  0  0  0
    8.7709  -15.9357   28.1236 C   0  0  0  0  0  0  0  0  0  0  0  0
    8.1785  -14.6714   27.6868 C   0  0  0  0  0  0  0  0  0  0  0  0
    7.0077  -14.5955   26.9696 C   0  0  0  0  0  0  0  0  0  0  0  0
    6.4313  -13.4203   26.5717 C   0  0  0  0  0  0  0  0  0  0  0  0
    7.0609  -12.2093   26.9084 C   0  0  0  0  0  0  0  0  0  0  0  0
    8.2195  -12.2583   27.6175 C   0  0  0  0  0  0  0  0  0  0  0  0
    8.7709  -13.4724   28.0011 C   0  0  0  0  0  0  0  0  0  0  0  0
   10.4963  -17.6269   27.7735 C   0  0  0  0  0  0  0  0  0  0  0  0
   10.9250  -17.8529   28.9269 O   0  0  0  0  0  0  0  0  0  0  0  0
   10.5413  -18.6927   26.8504 O   0  0  0  0  0  0  0  0  0  0  0  0
  2  1  1  0
  3  2  2  0
  4  2  1  0
  5  4  1  0
  6  5  1  0
  6  7  1  6
  8  9  2  0
  8  6  1  0
 10  8  1  0
 11 10  1  0
 11 12  1  1
 12 13  1  0
 13 14  2  0
 13 21  1  0
 14 15  1  0
 15 16  1  0
 16 17  2  0
 18 17  1  0
 19 18  2  0
 20 19  1  0
 21 20  2  0
 21 16  1  0
 22 11  1  0
 23 22  2  0
 24 22  1  0
 25 26  1  1
 25 24  1  0
 26 27  1  0
 27 32  1  0
 28 27  2  0
 28 29  1  0
 29 30  2  0
 30 31  1  0
 32 31  2  0
 33 35  1  0
 33 25  1  0
 34 33  2  0
M  END
$$$$
