QWF.pdb
     RDKit          3D

 35 37  0  0  1  0  0  0  0  0999 V2000
   13.5426  -17.5842   18.0507 N   0  0  0  0  0  0  0  0  0  0  0  0
   12.8039  -18.8083   18.1395 C   0  0  0  0  0  0  0  0  0  0  0  0
   13.0020  -19.6651   17.2360 O   0  0  0  0  0  0  0  0  0  0  0  0
   11.8723  -18.9869   19.2698 C   0  0  0  0  0  0  0  0  0  0  0  0
   11.7787  -17.8499   20.2066 C   0  0  0  0  0  0  0  0  0  0  0  0
   11.2191  -18.0707   21.5564 C   0  0  2  0  0  0  0  0  0  0  0  0
   10.1547  -19.0512   21.6065 N   0  0  0  0  0  0  0  0  0  0  0  0
   10.9180  -16.8597   22.3557 C   0  0  0  0  0  0  0  0  0  0  0  0
   11.6767  -15.8669   22.4517 O   0  0  0  0  0  0  0  0  0  0  0  0
    9.6911  -16.7930   23.0658 N   0  0  0  0  0  0  0  0  0  0  0  0
    9.2206  -15.5993   23.7230 C   0  0  1  0  0  0  0  0  0  0  0  0
    7.7350  -15.5305   23.5862 C   0  0  0  0  0  0  0  0  0  0  0  0
    7.2591  -15.3059   22.1894 C   0  0  0  0  0  0  0  0  0  0  0  0
    6.4784  -16.0935   21.4030 C   0  0  0  0  0  0  0  0  0  0  0  0
    6.2827  -15.4983   20.2159 N   0  0  0  0  0  0  0  0  0  0  0  0
    6.9380  -14.2987   20.2043 C   0  0  0  0  0  0  0  0  0  0  0  0
    7.0551  -13.3308   19.2293 C   0  0  0  0  0  0  0  0  0  0  0  0
    7.8190  -12.1960   19.5111 C   0  0  0  0  0  0  0  0  0  0  0  0
    8.4160  -12.1023   20.7476 C   0  0  0  0  0  0  0  0  0  0  0  0
    8.2964  -13.0819   21.7324 C   0  0  0  0  0  0  0  0  0  0  0  0
    7.5468  -14.1762   21.4322 C   0  0  0  0  0  0  0  0  0  0  0  0
    9.6430  -15.5021   25.1541 C   0  0  0  0  0  0  0  0  0  0  0  0
    9.6828  -14.3597   25.6734 O   0  0  0  0  0  0  0  0  0  0  0  0
    9.9974  -16.6215   25.9524 N   0  0  0  0  0  0  0  0  0  0  0  0
   10.4021  -16.5237   27.3577 C   0  0  1  0  0  0  0  0  0  0  0  0
    9.2517  -16.1276   28.2169 C   0  0  0  0  0  0  0  0  0  0  0  0
    8.6868  -14.8291   27.8496 C   0  0  0  0  0  0  0  0  0  0  0  0
    7.4469  -14.6822   27.2734 C   0  0  0  0  0  0  0  0  0  0  0  0
    6.8972  -13.4736   26.9432 C   0  0  0  0  0  0  0  0  0  0  0  0
    7.6309  -12.3027   27.2020 C   0  0  0  0  0  0  0  0  0  0  0  0
    8.8592  -12.4221   27.7716 C   0  0  0  0  0  0  0  0  0  0  0  0
    9.3803  -13.6679   28.0907 C   0  0  0  0  0  0  0  0  0  0  0  0
   10.9902  -17.7957   27.8232 C   0  0  0  0  0  0  0  0  0  0  0  0
   11.4592  -18.0055   28.9639 O   0  0  0  0  0  0  0  0  0  0  0  0
   11.0221  -18.8683   26.9075 O   0  0  0  0  0  0  0  0  0  0  0  0
  2  1  1  0
  3  2  2  0
  4  2  1  0
  5  4  1  0
  6  5  1  0
  6  7  1  6
  8  9  2  0
  8  6  1  0
 10  8  1  0
 11 10  1  0
 11 12  1  1
 12 13  1  0
 13 14  2  0
 13 21  1  0
 14 15  1  0
 15 16  1  0
 16 17  2  0
 18 17  1  0
 19 18  2  0
 20 19  1  0
 21 20  2  0
 21 16  1  0
 22 11  1  0
 23 22  2  0
 24 22  1  0
 25 26  1  1
 25 24  1  0
 26 27  1  0
 27 32  1  0
 28 27  2  0
 28 29  1  0
 29 30  2  0
 30 31  1  0
 32 31  2  0
 33 35  1  0
 33 25  1  0
 34 33  2  0
M  END
$$$$
