QWF.pdb
     RDKit          3D

 35 37  0  0  1  0  0  0  0  0999 V2000
   10.8157  -16.2492   15.1195 N   0  0  0  0  0  0  0  0  0  0  0  0
   11.8213  -16.6519   16.0570 C   0  0  0  0  0  0  0  0  0  0  0  0
   12.9842  -16.1974   15.8819 O   0  0  0  0  0  0  0  0  0  0  0  0
   11.4358  -17.5592   17.1550 C   0  0  0  0  0  0  0  0  0  0  0  0
   11.1890  -16.9146   18.4599 C   0  0  0  0  0  0  0  0  0  0  0  0
   10.8086  -17.7505   19.6177 C   0  0  2  0  0  0  0  0  0  0  0  0
    9.7788  -18.7281   19.3333 N   0  0  0  0  0  0  0  0  0  0  0  0
   10.5864  -17.0440   20.9012 C   0  0  0  0  0  0  0  0  0  0  0  0
   11.3047  -16.1112   21.3305 O   0  0  0  0  0  0  0  0  0  0  0  0
    9.4891  -17.4276   21.7153 N   0  0  0  0  0  0  0  0  0  0  0  0
    9.1842  -16.8033   22.9784 C   0  0  1  0  0  0  0  0  0  0  0  0
    7.7015  -16.7802   23.1563 C   0  0  0  0  0  0  0  0  0  0  0  0
    7.2368  -15.9593   24.3130 C   0  0  0  0  0  0  0  0  0  0  0  0
    6.6471  -16.3526   25.4731 C   0  0  0  0  0  0  0  0  0  0  0  0
    6.4061  -15.2819   26.2458 N   0  0  0  0  0  0  0  0  0  0  0  0
    6.8384  -14.1578   25.5992 C   0  0  0  0  0  0  0  0  0  0  0  0
    6.8081  -12.8273   25.9598 C   0  0  0  0  0  0  0  0  0  0  0  0
    7.3227  -11.8868   25.0647 C   0  0  0  0  0  0  0  0  0  0  0  0
    7.8335  -12.3362   23.8685 C   0  0  0  0  0  0  0  0  0  0  0  0
    7.8636  -13.6819   23.5054 C   0  0  0  0  0  0  0  0  0  0  0  0
    7.3565  -14.5768   24.3952 C   0  0  0  0  0  0  0  0  0  0  0  0
    9.8644  -17.4511   24.1419 C   0  0  0  0  0  0  0  0  0  0  0  0
    9.9346  -18.7046   24.1514 O   0  0  0  0  0  0  0  0  0  0  0  0
   10.4319  -16.7328   25.2271 N   0  0  0  0  0  0  0  0  0  0  0  0
   11.3009  -17.3397   26.2394 C   0  0  1  0  0  0  0  0  0  0  0  0
   11.7917  -16.3157   27.2032 C   0  0  0  0  0  0  0  0  0  0  0  0
   10.7100  -15.5413   27.8118 C   0  0  0  0  0  0  0  0  0  0  0  0
    9.9556  -14.6250   27.1173 C   0  0  0  0  0  0  0  0  0  0  0  0
    8.9283  -13.9084   27.6675 C   0  0  0  0  0  0  0  0  0  0  0  0
    8.6122  -14.1093   29.0225 C   0  0  0  0  0  0  0  0  0  0  0  0
    9.3435  -15.0103   29.7302 C   0  0  0  0  0  0  0  0  0  0  0  0
   10.3783  -15.7163   29.1335 C   0  0  0  0  0  0  0  0  0  0  0  0
   10.5999  -18.4306   26.9458 C   0  0  0  0  0  0  0  0  0  0  0  0
    9.3852  -18.7080   26.8321 O   0  0  0  0  0  0  0  0  0  0  0  0
   11.3636  -19.2327   27.8196 O   0  0  0  0  0  0  0  0  0  0  0  0
  2  1  1  0
  3  2  2  0
  4  2  1  0
  5  4  1  0
  6  5  1  0
  6  7  1  6
  8  9  2  0
  8  6  1  0
 10  8  1  0
 11 10  1  0
 11 12  1  1
 12 13  1  0
 13 14  2  0
 13 21  1  0
 14 15  1  0
 15 16  1  0
 16 17  2  0
 18 17  1  0
 19 18  2  0
 20 19  1  0
 21 20  2  0
 21 16  1  0
 22 11  1  0
 23 22  2  0
 24 22  1  0
 25 26  1  1
 25 24  1  0
 26 27  1  0
 27 32  1  0
 28 27  2  0
 28 29  1  0
 29 30  2  0
 30 31  1  0
 32 31  2  0
 33 35  1  0
 33 25  1  0
 34 33  2  0
M  END
$$$$
