QWF.pdb
     RDKit          3D

 35 37  0  0  1  0  0  0  0  0999 V2000
   12.0261  -20.8106   19.5735 N   0  0  0  0  0  0  0  0  0  0  0  0
   12.6218  -19.7004   18.8918 C   0  0  0  0  0  0  0  0  0  0  0  0
   13.7940  -19.8570   18.4548 O   0  0  0  0  0  0  0  0  0  0  0  0
   11.8342  -18.4612   18.7444 C   0  0  0  0  0  0  0  0  0  0  0  0
   10.4511  -18.5182   19.2571 C   0  0  0  0  0  0  0  0  0  0  0  0
    9.5856  -17.3267   19.1334 C   0  0  2  0  0  0  0  0  0  0  0  0
    9.7055  -16.6326   17.8682 N   0  0  0  0  0  0  0  0  0  0  0  0
    9.5602  -16.4025   20.2915 C   0  0  0  0  0  0  0  0  0  0  0  0
   10.3393  -15.4325   20.4416 O   0  0  0  0  0  0  0  0  0  0  0  0
    8.5940  -16.6053   21.3109 N   0  0  0  0  0  0  0  0  0  0  0  0
    8.8591  -16.3774   22.7096 C   0  0  1  0  0  0  0  0  0  0  0  0
    7.7242  -16.9287   23.5086 C   0  0  0  0  0  0  0  0  0  0  0  0
    7.1354  -15.9624   24.4822 C   0  0  0  0  0  0  0  0  0  0  0  0
    6.3528  -16.1961   25.5690 C   0  0  0  0  0  0  0  0  0  0  0  0
    6.0580  -15.0350   26.1745 N   0  0  0  0  0  0  0  0  0  0  0  0
    6.6486  -14.0108   25.4883 C   0  0  0  0  0  0  0  0  0  0  0  0
    6.6399  -12.6476   25.6951 C   0  0  0  0  0  0  0  0  0  0  0  0
    7.3393  -11.8373   24.7978 C   0  0  0  0  0  0  0  0  0  0  0  0
    8.0010  -12.4412   23.7531 C   0  0  0  0  0  0  0  0  0  0  0  0
    8.0089  -13.8198   23.5456 C   0  0  0  0  0  0  0  0  0  0  0  0
    7.3204  -14.5856   24.4339 C   0  0  0  0  0  0  0  0  0  0  0  0
   10.1699  -16.9345   23.1651 C   0  0  0  0  0  0  0  0  0  0  0  0
   10.5372  -18.0319   22.6782 O   0  0  0  0  0  0  0  0  0  0  0  0
   11.0161  -16.2955   24.1093 N   0  0  0  0  0  0  0  0  0  0  0  0
   11.1398  -16.7168   25.5077 C   0  0  1  0  0  0  0  0  0  0  0  0
    9.8436  -16.5664   26.2259 C   0  0  0  0  0  0  0  0  0  0  0  0
    9.9097  -15.6037   27.3255 C   0  0  0  0  0  0  0  0  0  0  0  0
   10.2488  -15.9510   28.6121 C   0  0  0  0  0  0  0  0  0  0  0  0
   10.3344  -15.0590   29.6459 C   0  0  0  0  0  0  0  0  0  0  0  0
   10.0628  -13.7028   29.3943 C   0  0  0  0  0  0  0  0  0  0  0  0
    9.7257  -13.3348   28.1300 C   0  0  0  0  0  0  0  0  0  0  0  0
    9.6498  -14.2721   27.1098 C   0  0  0  0  0  0  0  0  0  0  0  0
   11.6287  -18.1075   25.5947 C   0  0  0  0  0  0  0  0  0  0  0  0
   10.9526  -19.1323   25.3541 O   0  0  0  0  0  0  0  0  0  0  0  0
   12.9732  -18.2989   25.9763 O   0  0  0  0  0  0  0  0  0  0  0  0
  2  1  1  0
  3  2  2  0
  4  2  1  0
  5  4  1  0
  6  5  1  0
  6  7  1  6
  8  9  2  0
  8  6  1  0
 10  8  1  0
 11 10  1  0
 11 12  1  1
 12 13  1  0
 13 14  2  0
 13 21  1  0
 14 15  1  0
 15 16  1  0
 16 17  2  0
 18 17  1  0
 19 18  2  0
 20 19  1  0
 21 20  2  0
 21 16  1  0
 22 11  1  0
 23 22  2  0
 24 22  1  0
 25 26  1  6
 25 24  1  0
 26 27  1  0
 27 32  1  0
 28 27  2  0
 28 29  1  0
 29 30  2  0
 30 31  1  0
 32 31  2  0
 33 35  1  0
 33 25  1  0
 34 33  2  0
M  END
$$$$
