QWF.pdb
     RDKit          3D

 35 37  0  0  1  0  0  0  0  0999 V2000
    8.1681  -12.8590   16.7557 N   0  0  0  0  0  0  0  0  0  0  0  0
    8.3912  -14.2736   16.7920 C   0  0  0  0  0  0  0  0  0  0  0  0
    7.5206  -15.0061   16.2487 O   0  0  0  0  0  0  0  0  0  0  0  0
    9.6114  -14.7762   17.4522 C   0  0  0  0  0  0  0  0  0  0  0  0
    9.6315  -14.6699   18.9245 C   0  0  0  0  0  0  0  0  0  0  0  0
   10.0391  -15.8417   19.7274 C   0  0  2  0  0  0  0  0  0  0  0  0
    9.3619  -17.0714   19.3722 N   0  0  0  0  0  0  0  0  0  0  0  0
   10.1292  -15.6423   21.1930 C   0  0  0  0  0  0  0  0  0  0  0  0
   10.8052  -14.7436   21.7460 O   0  0  0  0  0  0  0  0  0  0  0  0
    9.4061  -16.5120   22.0502 N   0  0  0  0  0  0  0  0  0  0  0  0
    9.2740  -16.2953   23.4693 C   0  0  1  0  0  0  0  0  0  0  0  0
    7.8245  -16.3329   23.8271 C   0  0  0  0  0  0  0  0  0  0  0  0
    7.1030  -15.0474   23.5927 C   0  0  0  0  0  0  0  0  0  0  0  0
    6.5026  -14.5843   22.4643 C   0  0  0  0  0  0  0  0  0  0  0  0
    5.9585  -13.3803   22.7008 N   0  0  0  0  0  0  0  0  0  0  0  0
    6.1950  -13.0307   24.0010 C   0  0  0  0  0  0  0  0  0  0  0  0
    5.8583  -11.9034   24.7199 C   0  0  0  0  0  0  0  0  0  0  0  0
    6.2601  -11.8252   26.0553 C   0  0  0  0  0  0  0  0  0  0  0  0
    6.9717  -12.8773   26.5849 C   0  0  0  0  0  0  0  0  0  0  0  0
    7.3112  -14.0166   25.8566 C   0  0  0  0  0  0  0  0  0  0  0  0
    6.9075  -14.0674   24.5589 C   0  0  0  0  0  0  0  0  0  0  0  0
   10.0661  -17.2584   24.2946 C   0  0  0  0  0  0  0  0  0  0  0  0
   10.1354  -18.4470   23.8962 O   0  0  0  0  0  0  0  0  0  0  0  0
   10.7400  -16.9056   25.4934 N   0  0  0  0  0  0  0  0  0  0  0  0
   11.5842  -17.8304   26.2551 C   0  0  1  0  0  0  0  0  0  0  0  0
   12.4050  -17.0981   27.2594 C   0  0  0  0  0  0  0  0  0  0  0  0
   11.6076  -16.2206   28.1163 C   0  0  0  0  0  0  0  0  0  0  0  0
   11.2506  -16.5458   29.4039 C   0  0  0  0  0  0  0  0  0  0  0  0
   10.5228  -15.7273   30.2238 C   0  0  0  0  0  0  0  0  0  0  0  0
   10.1078  -14.4759   29.7360 C   0  0  0  0  0  0  0  0  0  0  0  0
   10.4489  -14.1316   28.4661 C   0  0  0  0  0  0  0  0  0  0  0  0
   11.1882  -14.9920   27.6671 C   0  0  0  0  0  0  0  0  0  0  0  0
   10.7649  -18.8718   26.9070 C   0  0  0  0  0  0  0  0  0  0  0  0
    9.5147  -18.8942   26.9470 O   0  0  0  0  0  0  0  0  0  0  0  0
   11.4476  -19.9352   27.5340 O   0  0  0  0  0  0  0  0  0  0  0  0
  2  1  1  0
  3  2  2  0
  4  2  1  0
  5  4  1  0
  6  5  1  0
  6  7  1  1
  8  9  2  0
  8  6  1  0
 10  8  1  0
 11 10  1  0
 11 12  1  1
 12 13  1  0
 13 14  2  0
 13 21  1  0
 14 15  1  0
 15 16  1  0
 16 17  2  0
 18 17  1  0
 19 18  2  0
 20 19  1  0
 21 20  2  0
 21 16  1  0
 22 11  1  0
 23 22  2  0
 24 22  1  0
 25 26  1  1
 25 24  1  0
 26 27  1  0
 27 32  1  0
 28 27  2  0
 28 29  1  0
 29 30  2  0
 30 31  1  0
 32 31  2  0
 33 35  1  0
 33 25  1  0
 34 33  2  0
M  END
$$$$
