QWF.pdb
     RDKit          3D

 35 37  0  0  1  0  0  0  0  0999 V2000
   11.9884  -16.7458   15.3616 N   0  0  0  0  0  0  0  0  0  0  0  0
   10.6195  -17.1477   15.4898 C   0  0  0  0  0  0  0  0  0  0  0  0
    9.9666  -17.3099   14.4235 O   0  0  0  0  0  0  0  0  0  0  0  0
   10.0689  -17.3461   16.8445 C   0  0  0  0  0  0  0  0  0  0  0  0
   11.0271  -17.1778   17.9547 C   0  0  0  0  0  0  0  0  0  0  0  0
   10.8161  -17.9278   19.2105 C   0  0  2  0  0  0  0  0  0  0  0  0
    9.7857  -18.9422   19.1320 N   0  0  0  0  0  0  0  0  0  0  0  0
   10.7359  -17.1276   20.4552 C   0  0  0  0  0  0  0  0  0  0  0  0
   11.4228  -16.1053   20.6862 O   0  0  0  0  0  0  0  0  0  0  0  0
    9.8233  -17.5223   21.4677 N   0  0  0  0  0  0  0  0  0  0  0  0
    9.7985  -16.9347   22.7840 C   0  0  1  0  0  0  0  0  0  0  0  0
    8.3897  -16.5700   23.1197 C   0  0  0  0  0  0  0  0  0  0  0  0
    7.6508  -15.8981   22.0103 C   0  0  0  0  0  0  0  0  0  0  0  0
    6.6663  -16.3821   21.2074 C   0  0  0  0  0  0  0  0  0  0  0  0
    6.2723  -15.4297   20.3475 N   0  0  0  0  0  0  0  0  0  0  0  0
    6.9987  -14.2942   20.5748 C   0  0  0  0  0  0  0  0  0  0  0  0
    6.9818  -13.0602   19.9602 C   0  0  0  0  0  0  0  0  0  0  0  0
    7.8706  -12.0826   20.4131 C   0  0  0  0  0  0  0  0  0  0  0  0
    8.7178  -12.4013   21.4497 C   0  0  0  0  0  0  0  0  0  0  0  0
    8.7334  -13.6497   22.0703 C   0  0  0  0  0  0  0  0  0  0  0  0
    7.8579  -14.5831   21.6102 C   0  0  0  0  0  0  0  0  0  0  0  0
   10.4030  -17.8078   23.8368 C   0  0  0  0  0  0  0  0  0  0  0  0
   10.0373  -19.0082   23.8785 O   0  0  0  0  0  0  0  0  0  0  0  0
   11.3610  -17.3584   24.7834 N   0  0  0  0  0  0  0  0  0  0  0  0
   11.0312  -16.5228   25.9415 C   0  0  1  0  0  0  0  0  0  0  0  0
   10.2765  -15.3083   25.5243 C   0  0  0  0  0  0  0  0  0  0  0  0
    9.8437  -14.4894   26.6567 C   0  0  0  0  0  0  0  0  0  0  0  0
    8.6714  -13.7706   26.6626 C   0  0  0  0  0  0  0  0  0  0  0  0
    8.2439  -13.0168   27.7213 C   0  0  0  0  0  0  0  0  0  0  0  0
    9.0388  -12.9637   28.8796 C   0  0  0  0  0  0  0  0  0  0  0  0
   10.2022  -13.6663   28.8979 C   0  0  0  0  0  0  0  0  0  0  0  0
   10.5994  -14.4185   27.8017 C   0  0  0  0  0  0  0  0  0  0  0  0
   10.2697  -17.2941   26.9443 C   0  0  0  0  0  0  0  0  0  0  0  0
    9.1344  -17.7904   26.7712 O   0  0  0  0  0  0  0  0  0  0  0  0
   10.8738  -17.4940   28.2033 O   0  0  0  0  0  0  0  0  0  0  0  0
  2  1  1  0
  3  2  2  0
  4  2  1  0
  5  4  1  0
  6  5  1  0
  6  7  1  6
  8  9  2  0
  8  6  1  0
 10  8  1  0
 11 10  1  0
 11 12  1  1
 12 13  1  0
 13 14  2  0
 13 21  1  0
 14 15  1  0
 15 16  1  0
 16 17  2  0
 18 17  1  0
 19 18  2  0
 20 19  1  0
 21 20  2  0
 21 16  1  0
 22 11  1  0
 23 22  2  0
 24 22  1  0
 25 26  1  6
 25 24  1  0
 26 27  1  0
 27 32  1  0
 28 27  2  0
 28 29  1  0
 29 30  2  0
 30 31  1  0
 32 31  2  0
 33 35  1  0
 33 25  1  0
 34 33  2  0
M  END
$$$$
