ANY.pdb
     RDKit          3D

 26 26  0  0  1  0  0  0  0  0999 V2000
    9.5807  -21.9596   17.4337 C   0  0  0  0  0  0  0  0  0  0  0  0
    9.9974  -21.4228   18.7916 C   0  0  2  0  0  0  0  0  0  0  0  0
    9.0021  -21.7926   19.7680 N   0  0  0  0  0  0  0  0  0  0  0  0
   10.1338  -19.9490   18.6423 C   0  0  0  0  0  0  0  0  0  0  0  0
   11.1917  -19.5245   18.1532 O   0  0  0  0  0  0  0  0  0  0  0  0
    8.5903  -16.5339   15.9613 N   0  0  0  0  0  0  0  0  0  0  0  0
    7.9197  -17.3978   16.8948 C   0  0  0  0  0  0  0  0  0  0  0  0
    7.3369  -18.3951   16.4088 O   0  0  0  0  0  0  0  0  0  0  0  0
    7.9735  -17.0418   18.3278 C   0  0  0  0  0  0  0  0  0  0  0  0
    9.2403  -17.5978   18.9275 C   0  0  2  0  0  0  0  0  0  0  0  0
    9.1197  -19.0307   19.0308 N   0  0  0  0  0  0  0  0  0  0  0  0
    9.5521  -16.9696   20.2405 C   0  0  0  0  0  0  0  0  0  0  0  0
    8.6491  -16.2990   20.7943 O   0  0  0  0  0  0  0  0  0  0  0  0
   11.1283  -16.2128   28.6733 O   0  0  0  0  0  0  0  0  0  0  0  0
   10.8962  -16.5308   27.3360 C   0  0  0  0  0  0  0  0  0  0  0  0
   10.0132  -15.8014   26.5678 C   0  0  0  0  0  0  0  0  0  0  0  0
    9.7432  -16.0654   25.2472 C   0  0  0  0  0  0  0  0  0  0  0  0
   10.3797  -17.1204   24.6217 C   0  0  0  0  0  0  0  0  0  0  0  0
   10.1225  -17.4884   23.2160 C   0  0  0  0  0  0  0  0  0  0  0  0
   10.9941  -16.7057   22.3024 C   0  0  2  0  0  0  0  0  0  0  0  0
   10.7903  -17.0750   20.9060 N   0  0  0  0  0  0  0  0  0  0  0  0
   12.4116  -16.9073   22.6204 C   0  0  0  0  0  0  0  0  0  0  0  0
   13.1531  -16.0398   23.3708 O   0  0  0  0  0  0  0  0  0  0  0  0
   11.2658  -17.8592   25.3781 C   0  0  0  0  0  0  0  0  0  0  0  0
   11.5332  -17.5842   26.7157 C   0  0  0  0  0  0  0  0  0  0  0  0
   12.9966  -17.9383   22.1790 O   0  0  0  0  0  0  0  0  0  0  0  0
  2  3  1  0
  2  1  1  6
  4  2  1  0
  5  4  2  0
  6  7  1  0
  7  8  2  0
  9  7  1  0
 10  9  1  1
 10 11  1  0
 11  4  1  0
 12 10  1  0
 12 21  1  0
 13 12  2  0
 15 14  1  0
 16 15  2  0
 17 16  1  0
 18 17  2  0
 18 24  1  0
 19 18  1  0
 20 19  1  1
 20 21  1  0
 20 22  1  0
 22 26  2  0
 22 23  1  0
 24 25  2  0
 25 15  1  0
M  END
$$$$
