ANY.pdb
     RDKit          3D

 26 26  0  0  1  0  0  0  0  0999 V2000
   11.9608  -28.4265   28.4289 C   0  0  0  0  0  0  0  0  0  0  0  0
   12.6433  -27.7218   29.5879 C   0  0  2  0  0  0  0  0  0  0  0  0
   12.6320  -28.5918   30.7384 N   0  0  0  0  0  0  0  0  0  0  0  0
   11.8932  -26.4579   29.8180 C   0  0  0  0  0  0  0  0  0  0  0  0
   12.0682  -25.5388   29.0035 O   0  0  0  0  0  0  0  0  0  0  0  0
    8.6328  -26.4811   29.7636 N   0  0  0  0  0  0  0  0  0  0  0  0
    8.1971  -26.2040   31.1056 C   0  0  0  0  0  0  0  0  0  0  0  0
    7.1165  -26.7311   31.4587 O   0  0  0  0  0  0  0  0  0  0  0  0
    9.0482  -25.3336   31.9429 C   0  0  0  0  0  0  0  0  0  0  0  0
   10.3254  -25.0305   31.2010 C   0  0  2  0  0  0  0  0  0  0  0  0
   11.0039  -26.2692   30.9116 N   0  0  0  0  0  0  0  0  0  0  0  0
   11.1920  -24.0848   31.9563 C   0  0  0  0  0  0  0  0  0  0  0  0
   11.6820  -24.4824   33.0396 O   0  0  0  0  0  0  0  0  0  0  0  0
   15.4478  -25.8050   36.2871 O   0  0  0  0  0  0  0  0  0  0  0  0
   15.0786  -25.0906   35.1484 C   0  0  0  0  0  0  0  0  0  0  0  0
   15.3857  -23.7534   35.0092 C   0  0  0  0  0  0  0  0  0  0  0  0
   15.0496  -22.9973   33.9128 C   0  0  0  0  0  0  0  0  0  0  0  0
   14.3612  -23.5842   32.8684 C   0  0  0  0  0  0  0  0  0  0  0  0
   13.9369  -22.8349   31.6701 C   0  0  0  0  0  0  0  0  0  0  0  0
   12.7032  -22.0559   31.9497 C   0  0  2  0  0  0  0  0  0  0  0  0
   11.5012  -22.7738   31.5404 N   0  0  0  0  0  0  0  0  0  0  0  0
   12.7200  -20.7674   31.2491 C   0  0  0  0  0  0  0  0  0  0  0  0
   13.5359  -19.7269   31.5911 O   0  0  0  0  0  0  0  0  0  0  0  0
   14.0469  -24.9217   32.9939 C   0  0  0  0  0  0  0  0  0  0  0  0
   14.3917  -25.6798   34.1085 C   0  0  0  0  0  0  0  0  0  0  0  0
   11.9371  -20.5931   30.2709 O   0  0  0  0  0  0  0  0  0  0  0  0
  2  3  1  0
  2  1  1  6
  4  2  1  0
  5  4  2  0
  6  7  1  0
  7  8  2  0
  9  7  1  0
 10  9  1  1
 10 11  1  0
 11  4  1  0
 12 10  1  0
 12 21  1  0
 13 12  2  0
 15 14  1  0
 16 15  2  0
 17 16  1  0
 18 17  2  0
 18 24  1  0
 19 18  1  0
 20 19  1  6
 20 21  1  0
 20 22  1  0
 22 26  2  0
 22 23  1  0
 24 25  2  0
 25 15  1  0
M  END
$$$$
