ANY.pdb
     RDKit          3D

 26 26  0  0  1  0  0  0  0  0999 V2000
    5.5654  -18.7788   19.1626 C   0  0  0  0  0  0  0  0  0  0  0  0
    6.6289  -18.8103   20.2458 C   0  0  2  0  0  0  0  0  0  0  0  0
    5.9878  -18.9671   21.5285 N   0  0  0  0  0  0  0  0  0  0  0  0
    7.3858  -17.5344   20.1357 C   0  0  0  0  0  0  0  0  0  0  0  0
    8.1288  -17.3994   19.1517 O   0  0  0  0  0  0  0  0  0  0  0  0
    8.1628  -12.5733   19.3007 N   0  0  0  0  0  0  0  0  0  0  0  0
    7.6957  -12.8455   20.6331 C   0  0  0  0  0  0  0  0  0  0  0  0
    7.9349  -11.9685   21.4956 O   0  0  0  0  0  0  0  0  0  0  0  0
    6.9833  -14.1182   20.8693 C   0  0  0  0  0  0  0  0  0  0  0  0
    7.9914  -15.2322   20.9967 C   0  0  2  0  0  0  0  0  0  0  0  0
    7.2909  -16.4884   21.0947 N   0  0  0  0  0  0  0  0  0  0  0  0
    8.9107  -15.0166   22.1474 C   0  0  0  0  0  0  0  0  0  0  0  0
    9.7318  -14.0725   22.0679 O   0  0  0  0  0  0  0  0  0  0  0  0
    5.5075  -11.3536   26.2829 O   0  0  0  0  0  0  0  0  0  0  0  0
    6.3982  -12.4183   26.1553 C   0  0  0  0  0  0  0  0  0  0  0  0
    7.7580  -12.2373   26.2971 C   0  0  0  0  0  0  0  0  0  0  0  0
    8.6839  -13.2454   26.1830 C   0  0  0  0  0  0  0  0  0  0  0  0
    8.2578  -14.5311   25.9099 C   0  0  0  0  0  0  0  0  0  0  0  0
    9.1897  -15.6629   25.7420 C   0  0  0  0  0  0  0  0  0  0  0  0
    9.8620  -15.5953   24.4190 C   0  0  2  0  0  0  0  0  0  0  0  0
    8.9241  -15.7983   23.3204 N   0  0  0  0  0  0  0  0  0  0  0  0
   10.9147  -16.6105   24.3072 C   0  0  0  0  0  0  0  0  0  0  0  0
   12.0293  -16.6397   25.0962 O   0  0  0  0  0  0  0  0  0  0  0  0
    6.8999  -14.7272   25.7652 C   0  0  0  0  0  0  0  0  0  0  0  0
    5.9690  -13.6996   25.8826 C   0  0  0  0  0  0  0  0  0  0  0  0
   10.7997  -17.5167   23.4323 O   0  0  0  0  0  0  0  0  0  0  0  0
  2  3  1  0
  2  1  1  6
  4  2  1  0
  5  4  2  0
  6  7  1  0
  7  8  2  0
  9  7  1  0
 10  9  1  1
 10 11  1  0
 11  4  1  0
 12 10  1  0
 12 21  1  0
 13 12  2  0
 15 14  1  0
 16 15  2  0
 17 16  1  0
 18 17  2  0
 18 24  1  0
 19 18  1  0
 20 19  1  1
 20 21  1  0
 20 22  1  0
 22 26  2  0
 22 23  1  0
 24 25  2  0
 25 15  1  0
M  END
$$$$
