ANY.pdb
     RDKit          3D

 26 26  0  0  1  0  0  0  0  0999 V2000
    8.0230  -12.3276   20.1829 C   0  0  0  0  0  0  0  0  0  0  0  0
    8.5036  -13.5676   19.4503 C   0  0  2  0  0  0  0  0  0  0  0  0
    7.7026  -13.7524   18.2649 N   0  0  0  0  0  0  0  0  0  0  0  0
    8.3814  -14.7005   20.4067 C   0  0  0  0  0  0  0  0  0  0  0  0
    7.2370  -15.1045   20.6632 O   0  0  0  0  0  0  0  0  0  0  0  0
   10.4868  -17.4726   18.9170 N   0  0  0  0  0  0  0  0  0  0  0  0
   11.0390  -17.0473   20.1746 C   0  0  0  0  0  0  0  0  0  0  0  0
   12.0431  -16.2998   20.1161 O   0  0  0  0  0  0  0  0  0  0  0  0
   10.3851  -17.5207   21.4121 C   0  0  0  0  0  0  0  0  0  0  0  0
    9.4166  -16.4695   21.8922 C   0  0  2  0  0  0  0  0  0  0  0  0
    9.5020  -15.3225   21.0230 N   0  0  0  0  0  0  0  0  0  0  0  0
    9.6552  -16.1075   23.3162 C   0  0  0  0  0  0  0  0  0  0  0  0
   10.6118  -15.3375   23.5689 O   0  0  0  0  0  0  0  0  0  0  0  0
    6.4612  -10.4985   26.2415 O   0  0  0  0  0  0  0  0  0  0  0  0
    6.8084  -11.8458   26.3286 C   0  0  0  0  0  0  0  0  0  0  0  0
    8.1165  -12.2390   26.5178 C   0  0  0  0  0  0  0  0  0  0  0  0
    8.5200  -13.5486   26.6115 C   0  0  0  0  0  0  0  0  0  0  0  0
    7.5805  -14.5572   26.5139 C   0  0  0  0  0  0  0  0  0  0  0  0
    7.9356  -15.9882   26.5737 C   0  0  0  0  0  0  0  0  0  0  0  0
    9.1729  -16.2533   25.7954 C   0  0  2  0  0  0  0  0  0  0  0  0
    8.8822  -16.5686   24.4012 N   0  0  0  0  0  0  0  0  0  0  0  0
    9.9265  -17.3756   26.3643 C   0  0  0  0  0  0  0  0  0  0  0  0
   10.5496  -17.3347   27.5791 O   0  0  0  0  0  0  0  0  0  0  0  0
    6.2675  -14.1787   26.3242 C   0  0  0  0  0  0  0  0  0  0  0  0
    5.8680  -12.8490   26.2306 C   0  0  0  0  0  0  0  0  0  0  0  0
   10.0162  -18.4499   25.7026 O   0  0  0  0  0  0  0  0  0  0  0  0
  2  3  1  0
  2  1  1  1
  4  2  1  0
  5  4  2  0
  6  7  1  0
  7  8  2  0
  9  7  1  0
 10  9  1  6
 10 11  1  0
 11  4  1  0
 12 10  1  0
 12 21  1  0
 13 12  2  0
 15 14  1  0
 16 15  2  0
 17 16  1  0
 18 17  2  0
 18 24  1  0
 19 18  1  0
 20 19  1  1
 20 21  1  0
 20 22  1  0
 22 26  2  0
 22 23  1  0
 24 25  2  0
 25 15  1  0
M  END
$$$$
