ANY.pdb
     RDKit          3D

 26 26  0  0  1  0  0  0  0  0999 V2000
    8.4981  -12.5106   19.2832 C   0  0  0  0  0  0  0  0  0  0  0  0
    8.5658  -13.7982   18.4812 C   0  0  2  0  0  0  0  0  0  0  0  0
    7.4503  -13.8412   17.5677 N   0  0  0  0  0  0  0  0  0  0  0  0
    8.5437  -14.9136   19.4653 C   0  0  0  0  0  0  0  0  0  0  0  0
    7.4414  -15.4215   19.7215 O   0  0  0  0  0  0  0  0  0  0  0  0
   12.8613  -17.7054   21.1376 N   0  0  0  0  0  0  0  0  0  0  0  0
   11.8865  -17.2611   20.1786 C   0  0  0  0  0  0  0  0  0  0  0  0
   12.3164  -16.5582   19.2344 O   0  0  0  0  0  0  0  0  0  0  0  0
   10.4802  -17.6650   20.3844 C   0  0  0  0  0  0  0  0  0  0  0  0
    9.7266  -16.5239   21.0196 C   0  0  2  0  0  0  0  0  0  0  0  0
    9.7125  -15.4072   20.1079 N   0  0  0  0  0  0  0  0  0  0  0  0
   10.2972  -16.1539   22.3437 C   0  0  0  0  0  0  0  0  0  0  0  0
   11.2871  -15.3847   22.3569 O   0  0  0  0  0  0  0  0  0  0  0  0
    6.0967  -11.3201   28.0122 O   0  0  0  0  0  0  0  0  0  0  0  0
    6.5999  -12.1915   27.0476 C   0  0  0  0  0  0  0  0  0  0  0  0
    7.9114  -12.1173   26.6277 C   0  0  0  0  0  0  0  0  0  0  0  0
    8.4643  -12.9465   25.6825 C   0  0  0  0  0  0  0  0  0  0  0  0
    7.6838  -13.9254   25.0979 C   0  0  0  0  0  0  0  0  0  0  0  0
    8.1929  -14.8357   24.0541 C   0  0  0  0  0  0  0  0  0  0  0  0
    9.2465  -15.7264   24.6050 C   0  0  2  0  0  0  0  0  0  0  0  0
    9.8040  -16.6068   23.5843 N   0  0  0  0  0  0  0  0  0  0  0  0
    8.7186  -16.5659   25.6857 C   0  0  0  0  0  0  0  0  0  0  0  0
    8.8821  -16.2880   27.0130 O   0  0  0  0  0  0  0  0  0  0  0  0
    6.3693  -14.0114   25.5081 C   0  0  0  0  0  0  0  0  0  0  0  0
    5.8178  -13.1668   26.4667 C   0  0  0  0  0  0  0  0  0  0  0  0
    8.0747  -17.6131   25.3876 O   0  0  0  0  0  0  0  0  0  0  0  0
  2  3  1  0
  2  1  1  1
  4  2  1  0
  5  4  2  0
  6  7  1  0
  7  8  2  0
  9  7  1  0
 10  9  1  6
 10 11  1  0
 11  4  1  0
 12 10  1  0
 12 21  1  0
 13 12  2  0
 15 14  1  0
 16 15  2  0
 17 16  1  0
 18 17  2  0
 18 24  1  0
 19 18  1  0
 20 19  1  6
 20 21  1  0
 20 22  1  0
 22 26  2  0
 22 23  1  0
 24 25  2  0
 25 15  1  0
M  END
$$$$
