ANY.pdb
     RDKit          3D

 26 26  0  0  1  0  0  0  0  0999 V2000
    8.3985  -12.0013   20.2093 C   0  0  0  0  0  0  0  0  0  0  0  0
    8.3349  -13.3065   19.4360 C   0  0  2  0  0  0  0  0  0  0  0  0
    7.2641  -13.2294   18.4726 N   0  0  0  0  0  0  0  0  0  0  0  0
    8.1268  -14.3852   20.4390 C   0  0  0  0  0  0  0  0  0  0  0  0
    6.9805  -14.8471   20.5446 O   0  0  0  0  0  0  0  0  0  0  0  0
    9.5567  -19.2250   21.0825 N   0  0  0  0  0  0  0  0  0  0  0  0
   10.5937  -18.2999   21.4516 C   0  0  0  0  0  0  0  0  0  0  0  0
   11.5354  -18.7649   22.1353 O   0  0  0  0  0  0  0  0  0  0  0  0
   10.4634  -16.8992   21.0001 C   0  0  0  0  0  0  0  0  0  0  0  0
    9.2740  -16.2697   21.6802 C   0  0  2  0  0  0  0  0  0  0  0  0
    9.1693  -14.8941   21.2617 N   0  0  0  0  0  0  0  0  0  0  0  0
    9.3534  -16.3961   23.1612 C   0  0  0  0  0  0  0  0  0  0  0  0
    9.1840  -17.5345   23.6584 O   0  0  0  0  0  0  0  0  0  0  0  0
    5.4930  -10.7302   26.5294 O   0  0  0  0  0  0  0  0  0  0  0  0
    6.1822  -11.9357   26.4077 C   0  0  0  0  0  0  0  0  0  0  0  0
    5.5422  -13.0914   26.0119 C   0  0  0  0  0  0  0  0  0  0  0  0
    6.1662  -14.3072   25.8737 C   0  0  0  0  0  0  0  0  0  0  0  0
    7.5180  -14.4109   26.1405 C   0  0  0  0  0  0  0  0  0  0  0  0
    8.2556  -15.6854   26.0456 C   0  0  0  0  0  0  0  0  0  0  0  0
    9.6181  -15.4619   25.4973 C   0  0  2  0  0  0  0  0  0  0  0  0
    9.6054  -15.3271   24.0449 N   0  0  0  0  0  0  0  0  0  0  0  0
   10.5155  -16.5703   25.8399 C   0  0  0  0  0  0  0  0  0  0  0  0
   10.8406  -16.9170   27.1204 O   0  0  0  0  0  0  0  0  0  0  0  0
    8.1715  -13.2626   26.5378 C   0  0  0  0  0  0  0  0  0  0  0  0
    7.5309  -12.0350   26.6749 C   0  0  0  0  0  0  0  0  0  0  0  0
   11.0285  -17.2526   24.9065 O   0  0  0  0  0  0  0  0  0  0  0  0
  2  3  1  0
  2  1  1  1
  4  2  1  0
  5  4  2  0
  6  7  1  0
  7  8  2  0
  9  7  1  0
 10  9  1  6
 10 11  1  0
 11  4  1  0
 12 10  1  0
 12 21  1  0
 13 12  2  0
 15 14  1  0
 16 15  2  0
 17 16  1  0
 18 17  2  0
 18 24  1  0
 19 18  1  0
 20 19  1  6
 20 21  1  0
 20 22  1  0
 22 26  2  0
 22 23  1  0
 24 25  2  0
 25 15  1  0
M  END
$$$$
