ANY.pdb
     RDKit          3D

 26 26  0  0  1  0  0  0  0  0999 V2000
    7.6653  -18.2339   15.7175 C   0  0  0  0  0  0  0  0  0  0  0  0
    8.5210  -17.1516   16.3515 C   0  0  2  0  0  0  0  0  0  0  0  0
    9.7479  -17.0251   15.6034 N   0  0  0  0  0  0  0  0  0  0  0  0
    8.7502  -17.5630   17.7626 C   0  0  0  0  0  0  0  0  0  0  0  0
    7.7506  -17.6847   18.4868 O   0  0  0  0  0  0  0  0  0  0  0  0
   10.7836  -21.1426   21.2990 N   0  0  0  0  0  0  0  0  0  0  0  0
   11.5062  -19.9540   20.9349 C   0  0  0  0  0  0  0  0  0  0  0  0
   12.2587  -19.4706   21.8127 O   0  0  0  0  0  0  0  0  0  0  0  0
   11.3035  -19.4107   19.5760 C   0  0  0  0  0  0  0  0  0  0  0  0
   10.2862  -18.2993   19.6351 C   0  0  2  0  0  0  0  0  0  0  0  0
   10.0429  -17.8159   18.2989 N   0  0  0  0  0  0  0  0  0  0  0  0
   10.7133  -17.2076   20.5526 C   0  0  0  0  0  0  0  0  0  0  0  0
   11.7813  -16.6075   20.2862 O   0  0  0  0  0  0  0  0  0  0  0  0
    7.5476  -12.8473   17.4832 O   0  0  0  0  0  0  0  0  0  0  0  0
    7.9675  -13.2978   18.7338 C   0  0  0  0  0  0  0  0  0  0  0  0
    7.1184  -13.9942   19.5679 C   0  0  0  0  0  0  0  0  0  0  0  0
    7.4735  -14.4632   20.8091 C   0  0  0  0  0  0  0  0  0  0  0  0
    8.7535  -14.2391   21.2791 C   0  0  0  0  0  0  0  0  0  0  0  0
    9.2041  -14.6829   22.6122 C   0  0  0  0  0  0  0  0  0  0  0  0
   10.3468  -15.6246   22.4916 C   0  0  2  0  0  0  0  0  0  0  0  0
   10.0024  -16.8002   21.6997 N   0  0  0  0  0  0  0  0  0  0  0  0
   10.7960  -16.0842   23.8101 C   0  0  0  0  0  0  0  0  0  0  0  0
   10.7243  -17.3828   24.2273 O   0  0  0  0  0  0  0  0  0  0  0  0
    9.6140  -13.5432   20.4553 C   0  0  0  0  0  0  0  0  0  0  0  0
    9.2454  -13.0720   19.1990 C   0  0  0  0  0  0  0  0  0  0  0  0
   11.2775  -15.2406   24.6203 O   0  0  0  0  0  0  0  0  0  0  0  0
  2  3  1  0
  2  1  1  6
  4  2  1  0
  5  4  2  0
  6  7  1  0
  7  8  2  0
  9  7  1  0
 10  9  1  6
 10 11  1  0
 11  4  1  0
 12 10  1  0
 12 21  1  0
 13 12  2  0
 15 14  1  0
 16 15  2  0
 17 16  1  0
 18 17  2  0
 18 24  1  0
 19 18  1  0
 20 19  1  1
 20 21  1  0
 20 22  1  0
 22 26  2  0
 22 23  1  0
 24 25  2  0
 25 15  1  0
M  END
$$$$
