ANY.pdb
     RDKit          3D

 26 26  0  0  1  0  0  0  0  0999 V2000
    4.2097  -16.9326   21.2966 C   0  0  0  0  0  0  0  0  0  0  0  0
    5.3681  -17.9120   21.2302 C   0  0  2  0  0  0  0  0  0  0  0  0
    5.8207  -18.1951   22.5702 N   0  0  0  0  0  0  0  0  0  0  0  0
    6.4186  -17.2718   20.3938 C   0  0  0  0  0  0  0  0  0  0  0  0
    6.0875  -16.8931   19.2600 O   0  0  0  0  0  0  0  0  0  0  0  0
    7.4540  -12.3512   19.6921 N   0  0  0  0  0  0  0  0  0  0  0  0
    8.2141  -13.5150   20.0602 C   0  0  0  0  0  0  0  0  0  0  0  0
    9.4612  -13.4012   20.0146 O   0  0  0  0  0  0  0  0  0  0  0  0
    7.4711  -14.7294   20.4554 C   0  0  0  0  0  0  0  0  0  0  0  0
    8.4540  -15.8212   20.7949 C   0  0  2  0  0  0  0  0  0  0  0  0
    7.7569  -17.0824   20.8362 N   0  0  0  0  0  0  0  0  0  0  0  0
    9.1733  -15.5411   22.0677 C   0  0  0  0  0  0  0  0  0  0  0  0
   10.1969  -14.8194   22.0115 O   0  0  0  0  0  0  0  0  0  0  0  0
    5.7146  -11.1743   26.5701 O   0  0  0  0  0  0  0  0  0  0  0  0
    6.4657  -12.3319   26.3728 C   0  0  0  0  0  0  0  0  0  0  0  0
    5.9123  -13.4573   25.7993 C   0  0  0  0  0  0  0  0  0  0  0  0
    6.6001  -14.6257   25.5791 C   0  0  0  0  0  0  0  0  0  0  0  0
    7.9302  -14.7096   25.9439 C   0  0  0  0  0  0  0  0  0  0  0  0
    8.7305  -15.9371   25.7695 C   0  0  0  0  0  0  0  0  0  0  0  0
    9.5704  -15.8448   24.5476 C   0  0  2  0  0  0  0  0  0  0  0  0
    8.7856  -16.0293   23.3320 N   0  0  0  0  0  0  0  0  0  0  0  0
   10.6324  -16.8564   24.5571 C   0  0  0  0  0  0  0  0  0  0  0  0
   10.7098  -17.8856   23.6625 O   0  0  0  0  0  0  0  0  0  0  0  0
    8.4973  -13.5913   26.5193 C   0  0  0  0  0  0  0  0  0  0  0  0
    7.7925  -12.4117   26.7383 C   0  0  0  0  0  0  0  0  0  0  0  0
   11.5349  -16.7872   25.4407 O   0  0  0  0  0  0  0  0  0  0  0  0
  2  3  1  0
  2  1  1  1
  4  2  1  0
  5  4  2  0
  6  7  1  0
  7  8  2  0
  9  7  1  0
 10  9  1  1
 10 11  1  0
 11  4  1  0
 12 10  1  0
 12 21  1  0
 13 12  2  0
 15 14  1  0
 16 15  2  0
 17 16  1  0
 18 17  2  0
 18 24  1  0
 19 18  1  0
 20 19  1  1
 20 21  1  0
 20 22  1  0
 22 26  2  0
 22 23  1  0
 24 25  2  0
 25 15  1  0
M  END
$$$$
