ANY.pdb
     RDKit          3D

 26 26  0  0  1  0  0  0  0  0999 V2000
    7.2827  -13.0206   18.8205 C   0  0  0  0  0  0  0  0  0  0  0  0
    8.3689  -13.1225   19.8766 C   0  0  2  0  0  0  0  0  0  0  0  0
    9.6575  -13.0857   19.2294 N   0  0  0  0  0  0  0  0  0  0  0  0
    8.1316  -14.3955   20.6088 C   0  0  0  0  0  0  0  0  0  0  0  0
    6.9721  -14.6253   20.9848 O   0  0  0  0  0  0  0  0  0  0  0  0
    8.5772  -19.0229   22.5223 N   0  0  0  0  0  0  0  0  0  0  0  0
    9.9120  -18.7544   22.0601 C   0  0  0  0  0  0  0  0  0  0  0  0
   10.7436  -19.6822   22.1946 O   0  0  0  0  0  0  0  0  0  0  0  0
   10.1866  -17.4262   21.4740 C   0  0  0  0  0  0  0  0  0  0  0  0
    8.9667  -16.5544   21.6335 C   0  0  2  0  0  0  0  0  0  0  0  0
    9.1611  -15.3364   20.8871 N   0  0  0  0  0  0  0  0  0  0  0  0
    8.6623  -16.2866   23.0658 C   0  0  0  0  0  0  0  0  0  0  0  0
    7.4565  -16.2337   23.4048 O   0  0  0  0  0  0  0  0  0  0  0  0
    6.1050  -10.4852   26.8967 O   0  0  0  0  0  0  0  0  0  0  0  0
    6.5173  -11.7849   26.6070 C   0  0  0  0  0  0  0  0  0  0  0  0
    7.8328  -12.1707   26.7567 C   0  0  0  0  0  0  0  0  0  0  0  0
    8.2989  -13.4345   26.4881 C   0  0  0  0  0  0  0  0  0  0  0  0
    7.4197  -14.4011   26.0385 C   0  0  0  0  0  0  0  0  0  0  0  0
    7.8457  -15.7725   25.6988 C   0  0  0  0  0  0  0  0  0  0  0  0
    9.3121  -15.8225   25.4663 C   0  0  2  0  0  0  0  0  0  0  0  0
    9.6331  -16.0881   24.0684 N   0  0  0  0  0  0  0  0  0  0  0  0
    9.9424  -16.8670   26.2805 C   0  0  0  0  0  0  0  0  0  0  0  0
   10.6522  -17.9115   25.7601 O   0  0  0  0  0  0  0  0  0  0  0  0
    6.1002  -14.0294   25.8837 C   0  0  0  0  0  0  0  0  0  0  0  0
    5.6371  -12.7464   26.1586 C   0  0  0  0  0  0  0  0  0  0  0  0
    9.8286  -16.8131   27.5391 O   0  0  0  0  0  0  0  0  0  0  0  0
  2  3  1  0
  2  1  1  6
  4  2  1  0
  5  4  2  0
  6  7  1  0
  7  8  2  0
  9  7  1  0
 10  9  1  1
 10 11  1  0
 11  4  1  0
 12 10  1  0
 12 21  1  0
 13 12  2  0
 15 14  1  0
 16 15  2  0
 17 16  1  0
 18 17  2  0
 18 24  1  0
 19 18  1  0
 20 19  1  6
 20 21  1  0
 20 22  1  0
 22 26  2  0
 22 23  1  0
 24 25  2  0
 25 15  1  0
M  END
$$$$
