ANY.pdb
     RDKit          3D

 26 26  0  0  1  0  0  0  0  0999 V2000
    8.0463  -12.4467   20.6337 C   0  0  0  0  0  0  0  0  0  0  0  0
    8.0516  -13.7080   19.7883 C   0  0  2  0  0  0  0  0  0  0  0  0
    6.7907  -13.8139   19.0956 N   0  0  0  0  0  0  0  0  0  0  0  0
    8.2907  -14.8430   20.7198 C   0  0  0  0  0  0  0  0  0  0  0  0
    7.3064  -15.2998   21.3207 O   0  0  0  0  0  0  0  0  0  0  0  0
   11.6495  -17.7418   18.9857 N   0  0  0  0  0  0  0  0  0  0  0  0
   10.8048  -17.9796   20.1247 C   0  0  0  0  0  0  0  0  0  0  0  0
    9.8860  -18.8175   19.9696 O   0  0  0  0  0  0  0  0  0  0  0  0
   11.0874  -17.2266   21.3642 C   0  0  0  0  0  0  0  0  0  0  0  0
    9.8296  -16.5281   21.8153 C   0  0  2  0  0  0  0  0  0  0  0  0
    9.5760  -15.4100   20.9413 N   0  0  0  0  0  0  0  0  0  0  0  0
    9.9101  -16.1118   23.2422 C   0  0  0  0  0  0  0  0  0  0  0  0
   10.7809  -15.2654   23.5536 O   0  0  0  0  0  0  0  0  0  0  0  0
    6.4007  -10.4005   25.9051 O   0  0  0  0  0  0  0  0  0  0  0  0
    6.7300  -11.7523   25.9901 C   0  0  0  0  0  0  0  0  0  0  0  0
    8.0276  -12.1622   26.2136 C   0  0  0  0  0  0  0  0  0  0  0  0
    8.4134  -13.4771   26.3072 C   0  0  0  0  0  0  0  0  0  0  0  0
    7.4659  -14.4739   26.1736 C   0  0  0  0  0  0  0  0  0  0  0  0
    7.8030  -15.9094   26.2309 C   0  0  0  0  0  0  0  0  0  0  0  0
    9.1504  -16.1538   25.6549 C   0  0  2  0  0  0  0  0  0  0  0  0
    9.0770  -16.6015   24.2686 N   0  0  0  0  0  0  0  0  0  0  0  0
    9.8769  -17.1725   26.4203 C   0  0  0  0  0  0  0  0  0  0  0  0
   10.2986  -18.3607   25.8951 O   0  0  0  0  0  0  0  0  0  0  0  0
    6.1633  -14.0787   25.9494 C   0  0  0  0  0  0  0  0  0  0  0  0
    5.7817  -12.7438   25.8561 C   0  0  0  0  0  0  0  0  0  0  0  0
   10.1329  -16.9541   27.6396 O   0  0  0  0  0  0  0  0  0  0  0  0
  2  3  1  0
  2  1  1  1
  4  2  1  0
  5  4  2  0
  6  7  1  0
  7  8  2  0
  9  7  1  0
 10  9  1  6
 10 11  1  0
 11  4  1  0
 12 10  1  0
 12 21  1  0
 13 12  2  0
 15 14  1  0
 16 15  2  0
 17 16  1  0
 18 17  2  0
 18 24  1  0
 19 18  1  0
 20 19  1  1
 20 21  1  0
 20 22  1  0
 22 26  2  0
 22 23  1  0
 24 25  2  0
 25 15  1  0
M  END
$$$$
