ANY.pdb
     RDKit          3D

 26 26  0  0  1  0  0  0  0  0999 V2000
    8.0958  -13.6310   19.6063 C   0  0  0  0  0  0  0  0  0  0  0  0
    7.4712  -14.5071   20.6778 C   0  0  2  0  0  0  0  0  0  0  0  0
    7.1680  -13.6946   21.8305 N   0  0  0  0  0  0  0  0  0  0  0  0
    8.4566  -15.5807   20.9767 C   0  0  0  0  0  0  0  0  0  0  0  0
    8.5458  -16.5111   20.1611 O   0  0  0  0  0  0  0  0  0  0  0  0
   11.5330  -18.9770   20.8644 N   0  0  0  0  0  0  0  0  0  0  0  0
   11.0875  -17.6929   20.3951 C   0  0  0  0  0  0  0  0  0  0  0  0
   10.5389  -17.6729   19.2687 O   0  0  0  0  0  0  0  0  0  0  0  0
   11.3110  -16.5222   21.2683 C   0  0  0  0  0  0  0  0  0  0  0  0
   10.3129  -16.5511   22.3982 C   0  0  2  0  0  0  0  0  0  0  0  0
    9.2806  -15.5795   22.1358 N   0  0  0  0  0  0  0  0  0  0  0  0
   10.9650  -16.3275   23.7175 C   0  0  0  0  0  0  0  0  0  0  0  0
   11.9759  -17.0165   23.9915 O   0  0  0  0  0  0  0  0  0  0  0  0
    6.0189  -10.6281   26.6401 O   0  0  0  0  0  0  0  0  0  0  0  0
    6.5615  -11.8865   26.3850 C   0  0  0  0  0  0  0  0  0  0  0  0
    7.8342  -12.2169   26.8010 C   0  0  0  0  0  0  0  0  0  0  0  0
    8.4226  -13.4382   26.5800 C   0  0  0  0  0  0  0  0  0  0  0  0
    7.7215  -14.4169   25.9018 C   0  0  0  0  0  0  0  0  0  0  0  0
    8.2927  -15.7431   25.5976 C   0  0  0  0  0  0  0  0  0  0  0  0
    9.7541  -15.7570   25.8642 C   0  0  2  0  0  0  0  0  0  0  0  0
   10.5271  -15.3963   24.6809 N   0  0  0  0  0  0  0  0  0  0  0  0
   10.1992  -17.0825   26.3073 C   0  0  0  0  0  0  0  0  0  0  0  0
   10.4129  -17.4146   27.6148 O   0  0  0  0  0  0  0  0  0  0  0  0
    6.4469  -14.1004   25.4793 C   0  0  0  0  0  0  0  0  0  0  0  0
    5.8589  -12.8602   25.7079 C   0  0  0  0  0  0  0  0  0  0  0  0
   10.4042  -17.9802   25.4400 O   0  0  0  0  0  0  0  0  0  0  0  0
  2  3  1  0
  2  1  1  6
  4  2  1  0
  5  4  2  0
  6  7  1  0
  7  8  2  0
  9  7  1  0
 10  9  1  6
 10 11  1  0
 11  4  1  0
 12 10  1  0
 12 21  1  0
 13 12  2  0
 15 14  1  0
 16 15  2  0
 17 16  1  0
 18 17  2  0
 18 24  1  0
 19 18  1  0
 20 19  1  6
 20 21  1  0
 20 22  1  0
 22 26  2  0
 22 23  1  0
 24 25  2  0
 25 15  1  0
M  END
$$$$
