ANY.pdb
     RDKit          3D

 26 26  0  0  1  0  0  0  0  0999 V2000
   12.3197  -16.6750   14.8788 C   0  0  0  0  0  0  0  0  0  0  0  0
   11.3712  -17.8509   14.7266 C   0  0  2  0  0  0  0  0  0  0  0  0
   10.2711  -17.4599   13.8795 N   0  0  0  0  0  0  0  0  0  0  0  0
   10.9334  -18.2243   16.0984 C   0  0  0  0  0  0  0  0  0  0  0  0
   10.1974  -19.2168   16.2078 O   0  0  0  0  0  0  0  0  0  0  0  0
   12.0197  -21.7700   18.7777 N   0  0  0  0  0  0  0  0  0  0  0  0
   11.6673  -20.4334   19.1740 C   0  0  0  0  0  0  0  0  0  0  0  0
   10.8178  -20.3313   20.0896 O   0  0  0  0  0  0  0  0  0  0  0  0
   12.3271  -19.3094   18.4782 C   0  0  0  0  0  0  0  0  0  0  0  0
   11.4499  -18.0867   18.5727 C   0  0  2  0  0  0  0  0  0  0  0  0
   11.3187  -17.5022   17.2614 N   0  0  0  0  0  0  0  0  0  0  0  0
   11.9695  -17.1094   19.5681 C   0  0  0  0  0  0  0  0  0  0  0  0
   13.0862  -16.5862   19.3422 O   0  0  0  0  0  0  0  0  0  0  0  0
    7.4184  -12.8996   17.8205 O   0  0  0  0  0  0  0  0  0  0  0  0
    8.1798  -13.3813   18.8842 C   0  0  0  0  0  0  0  0  0  0  0  0
    9.4458  -12.8968   19.1377 C   0  0  0  0  0  0  0  0  0  0  0  0
   10.2430  -13.3308   20.1687 C   0  0  0  0  0  0  0  0  0  0  0  0
    9.7757  -14.3124   21.0215 C   0  0  0  0  0  0  0  0  0  0  0  0
   10.5807  -14.8542   22.1333 C   0  0  0  0  0  0  0  0  0  0  0  0
   11.7292  -15.6399   21.6133 C   0  0  2  0  0  0  0  0  0  0  0  0
   11.2956  -16.7302   20.7467 N   0  0  0  0  0  0  0  0  0  0  0  0
   12.5144  -16.2188   22.7085 C   0  0  0  0  0  0  0  0  0  0  0  0
   13.3320  -15.4906   23.5251 O   0  0  0  0  0  0  0  0  0  0  0  0
    8.5106  -14.8068   20.7798 C   0  0  0  0  0  0  0  0  0  0  0  0
    7.7100  -14.3608   19.7327 C   0  0  0  0  0  0  0  0  0  0  0  0
   12.4432  -17.4638   22.9203 O   0  0  0  0  0  0  0  0  0  0  0  0
  2  3  1  0
  2  1  1  1
  4  2  1  0
  5  4  2  0
  6  7  1  0
  7  8  2  0
  9  7  1  0
 10  9  1  6
 10 11  1  0
 11  4  1  0
 12 10  1  0
 12 21  1  0
 13 12  2  0
 15 14  1  0
 16 15  2  0
 17 16  1  0
 18 17  2  0
 18 24  1  0
 19 18  1  0
 20 19  1  1
 20 21  1  0
 20 22  1  0
 22 26  2  0
 22 23  1  0
 24 25  2  0
 25 15  1  0
M  END
$$$$
