ANY.pdb
     RDKit          3D

 26 26  0  0  1  0  0  0  0  0999 V2000
    6.4769  -18.8666   18.9097 C   0  0  0  0  0  0  0  0  0  0  0  0
    7.0766  -18.8073   20.3034 C   0  0  2  0  0  0  0  0  0  0  0  0
    6.0093  -18.7268   21.2705 N   0  0  0  0  0  0  0  0  0  0  0  0
    7.9672  -17.6162   20.3325 C   0  0  0  0  0  0  0  0  0  0  0  0
    9.0685  -17.7183   19.7709 O   0  0  0  0  0  0  0  0  0  0  0  0
    8.2398  -12.1685   19.0820 N   0  0  0  0  0  0  0  0  0  0  0  0
    7.9727  -13.5669   19.2833 C   0  0  0  0  0  0  0  0  0  0  0  0
    8.0615  -14.3007   18.2714 O   0  0  0  0  0  0  0  0  0  0  0  0
    7.6211  -14.0142   20.6469 C   0  0  0  0  0  0  0  0  0  0  0  0
    8.4510  -15.2226   20.9996 C   0  0  2  0  0  0  0  0  0  0  0  0
    7.6108  -16.3936   20.9657 N   0  0  0  0  0  0  0  0  0  0  0  0
    9.1292  -15.0624   22.3150 C   0  0  0  0  0  0  0  0  0  0  0  0
    9.8836  -14.0723   22.4643 O   0  0  0  0  0  0  0  0  0  0  0  0
    5.7098  -10.9408   26.2173 O   0  0  0  0  0  0  0  0  0  0  0  0
    6.4127  -12.1411   26.1241 C   0  0  0  0  0  0  0  0  0  0  0  0
    7.7842  -12.1820   26.2620 C   0  0  0  0  0  0  0  0  0  0  0  0
    8.5313  -13.3318   26.1805 C   0  0  0  0  0  0  0  0  0  0  0  0
    7.8984  -14.5376   25.9468 C   0  0  0  0  0  0  0  0  0  0  0  0
    8.6307  -15.8120   25.8154 C   0  0  0  0  0  0  0  0  0  0  0  0
    9.6139  -15.7383   24.7042 C   0  0  2  0  0  0  0  0  0  0  0  0
    8.9839  -15.9445   23.4049 N   0  0  0  0  0  0  0  0  0  0  0  0
   10.6668  -16.7473   24.8605 C   0  0  0  0  0  0  0  0  0  0  0  0
   10.9043  -17.7441   23.9574 O   0  0  0  0  0  0  0  0  0  0  0  0
    6.5261  -14.5119   25.8064 C   0  0  0  0  0  0  0  0  0  0  0  0
    5.7775  -13.3420   25.8906 C   0  0  0  0  0  0  0  0  0  0  0  0
   11.4043  -16.7075   25.8874 O   0  0  0  0  0  0  0  0  0  0  0  0
  2  3  1  0
  2  1  1  6
  4  2  1  0
  5  4  2  0
  6  7  1  0
  7  8  2  0
  9  7  1  0
 10  9  1  1
 10 11  1  0
 11  4  1  0
 12 10  1  0
 12 21  1  0
 13 12  2  0
 15 14  1  0
 16 15  2  0
 17 16  1  0
 18 17  2  0
 18 24  1  0
 19 18  1  0
 20 19  1  1
 20 21  1  0
 20 22  1  0
 22 26  2  0
 22 23  1  0
 24 25  2  0
 25 15  1  0
M  END
$$$$
