MTL.pdb
     RDKit          3D

 24 23  0  0  1  0  0  0  0  0999 V2000
    7.3798  -12.0476   19.0858 C   0  0  0  0  0  0  0  0  0  0  0  0
    8.5906  -12.5341   17.8273 S   0  0  0  0  0  0  0  0  0  0  0  0
    9.1700  -14.2300   18.1090 C   0  0  0  0  0  0  0  0  0  0  0  0
    8.6822  -14.7652   19.4388 C   0  0  0  0  0  0  0  0  0  0  0  0
    9.1382  -16.2017   19.5716 C   0  0  2  0  0  0  0  0  0  0  0  0
    8.5856  -16.9781   18.4851 N   0  0  0  0  0  0  0  0  0  0  0  0
    8.7832  -16.7697   20.8974 C   0  0  0  0  0  0  0  0  0  0  0  0
    8.1297  -17.8470   20.9388 O   0  0  0  0  0  0  0  0  0  0  0  0
    8.9423  -19.0069   22.4164 C   0  0  0  0  0  0  0  0  0  0  0  0
    9.5320  -18.1562   23.5193 C   0  0  1  0  0  0  0  0  0  0  0  0
   10.9069  -17.9833   23.3463 O   0  0  0  0  0  0  0  0  0  0  0  0
    8.8451  -16.7852   23.4226 C   0  0  2  0  0  0  0  0  0  0  0  0
    9.1358  -16.1727   22.1396 N   0  0  0  0  0  0  0  0  0  0  0  0
    9.3389  -15.9798   24.5522 C   0  0  0  0  0  0  0  0  0  0  0  0
   10.4430  -15.3812   24.4730 O   0  0  0  0  0  0  0  0  0  0  0  0
    7.7722  -12.2597   25.5239 C   0  0  0  0  0  0  0  0  0  0  0  0
    7.0868  -13.2756   26.4102 C   0  0  2  0  0  0  0  0  0  0  0  0
    5.8916  -12.6368   27.0433 C   0  0  0  0  0  0  0  0  0  0  0  0
    7.9876  -14.0000   27.3325 C   0  0  0  0  0  0  0  0  0  0  0  0
    9.0311  -14.8757   26.7825 C   0  0  2  0  0  0  0  0  0  0  0  0
    8.6417  -15.8132   25.7810 N   0  0  0  0  0  0  0  0  0  0  0  0
    9.7802  -15.5241   27.8817 C   0  0  0  0  0  0  0  0  0  0  0  0
    9.9803  -16.8948   27.9049 O   0  0  0  0  0  0  0  0  0  0  0  0
   10.2611  -14.8586   28.8334 O   0  0  0  0  0  0  0  0  0  0  0  0
  1  2  1  0
  2  3  1  0
  4  3  1  0
  5  7  1  0
  5  4  1  0
  5  6  1  6
  7  8  2  0
 10  9  1  6
 10 12  1  0
 11 10  1  0
 12 13  1  6
 13  7  1  0
 14 12  1  0
 15 14  2  0
 17 16  1  1
 17 19  1  0
 18 17  1  0
 20 19  1  1
 20 21  1  0
 20 22  1  0
 21 14  1  0
 22 23  1  0
 24 22  2  0
M  END
$$$$
