MTL.pdb
     RDKit          3D

 24 23  0  0  1  0  0  0  0  0999 V2000
    5.6251  -12.4543   26.6356 C   0  0  0  0  0  0  0  0  0  0  0  0
    7.1245  -12.1373   25.6671 S   0  0  0  0  0  0  0  0  0  0  0  0
    7.5198  -13.5539   24.6050 C   0  0  0  0  0  0  0  0  0  0  0  0
    6.2634  -14.2400   24.1116 C   0  0  0  0  0  0  0  0  0  0  0  0
    6.6631  -15.3188   23.1289 C   0  0  2  0  0  0  0  0  0  0  0  0
    5.4777  -16.0066   22.6701 N   0  0  0  0  0  0  0  0  0  0  0  0
    7.6567  -16.2544   23.7152 C   0  0  0  0  0  0  0  0  0  0  0  0
    7.2959  -17.0054   24.6613 O   0  0  0  0  0  0  0  0  0  0  0  0
   10.1071  -18.4275   21.6538 C   0  0  0  0  0  0  0  0  0  0  0  0
   10.9329  -17.7732   22.7392 C   0  0  1  0  0  0  0  0  0  0  0  0
   11.6090  -16.6513   22.2553 O   0  0  0  0  0  0  0  0  0  0  0  0
    9.9427  -17.3237   23.8248 C   0  0  2  0  0  0  0  0  0  0  0  0
    9.0053  -16.3619   23.2753 N   0  0  0  0  0  0  0  0  0  0  0  0
   10.7425  -16.7603   24.9252 C   0  0  0  0  0  0  0  0  0  0  0  0
   11.4771  -15.7574   24.7300 O   0  0  0  0  0  0  0  0  0  0  0  0
   10.7845  -13.8990   27.3519 C   0  0  0  0  0  0  0  0  0  0  0  0
   10.2584  -15.0277   28.2101 C   0  0  2  0  0  0  0  0  0  0  0  0
    9.6705  -14.4518   29.4591 C   0  0  0  0  0  0  0  0  0  0  0  0
   11.2034  -16.1480   28.4066 C   0  0  0  0  0  0  0  0  0  0  0  0
   11.7064  -16.8812   27.2370 C   0  0  2  0  0  0  0  0  0  0  0  0
   10.7556  -17.2770   26.2506 N   0  0  0  0  0  0  0  0  0  0  0  0
   12.5503  -18.0155   27.6742 C   0  0  0  0  0  0  0  0  0  0  0  0
   13.6559  -17.8184   28.4856 O   0  0  0  0  0  0  0  0  0  0  0  0
   12.2978  -19.1967   27.3268 O   0  0  0  0  0  0  0  0  0  0  0  0
  1  2  1  0
  2  3  1  0
  4  3  1  0
  5  7  1  0
  5  4  1  0
  5  6  1  1
  7  8  2  0
 10  9  1  6
 10 12  1  0
 11 10  1  0
 12 13  1  6
 13  7  1  0
 14 12  1  0
 15 14  2  0
 17 16  1  1
 17 19  1  0
 18 17  1  0
 20 19  1  1
 20 21  1  0
 20 22  1  0
 21 14  1  0
 22 23  1  0
 24 22  2  0
M  END
$$$$
