MTL.pdb
     RDKit          3D

 24 23  0  0  1  0  0  0  0  0999 V2000
    7.8963  -11.6743   19.3304 C   0  0  0  0  0  0  0  0  0  0  0  0
    7.8620  -12.4650   17.6994 S   0  0  0  0  0  0  0  0  0  0  0  0
    8.3837  -14.1990   17.8104 C   0  0  0  0  0  0  0  0  0  0  0  0
    8.1877  -14.7448   19.2091 C   0  0  0  0  0  0  0  0  0  0  0  0
    8.4604  -16.2328   19.1835 C   0  0  2  0  0  0  0  0  0  0  0  0
    7.5351  -16.8700   18.2744 N   0  0  0  0  0  0  0  0  0  0  0  0
    8.3997  -16.8253   20.5443 C   0  0  0  0  0  0  0  0  0  0  0  0
    7.6988  -17.8577   20.7240 O   0  0  0  0  0  0  0  0  0  0  0  0
    9.1925  -19.0590   21.6939 C   0  0  0  0  0  0  0  0  0  0  0  0
    9.8634  -18.3152   22.8274 C   0  0  1  0  0  0  0  0  0  0  0  0
   11.2081  -18.0663   22.5449 O   0  0  0  0  0  0  0  0  0  0  0  0
    9.1287  -16.9720   22.9584 C   0  0  2  0  0  0  0  0  0  0  0  0
    9.0882  -16.3000   21.6728 N   0  0  0  0  0  0  0  0  0  0  0  0
    9.8487  -16.1894   23.9769 C   0  0  0  0  0  0  0  0  0  0  0  0
   10.6432  -15.2757   23.6340 O   0  0  0  0  0  0  0  0  0  0  0  0
    6.1005  -13.1441   26.5233 C   0  0  0  0  0  0  0  0  0  0  0  0
    7.5058  -13.6153   26.8241 C   0  0  2  0  0  0  0  0  0  0  0  0
    8.4042  -12.4236   26.9246 C   0  0  0  0  0  0  0  0  0  0  0  0
    7.9909  -14.7095   25.9557 C   0  0  0  0  0  0  0  0  0  0  0  0
    9.2615  -15.3745   26.2745 C   0  0  2  0  0  0  0  0  0  0  0  0
    9.7159  -16.3874   25.3794 N   0  0  0  0  0  0  0  0  0  0  0  0
    9.2494  -15.8451   27.6775 C   0  0  0  0  0  0  0  0  0  0  0  0
    8.6471  -17.0422   28.0292 O   0  0  0  0  0  0  0  0  0  0  0  0
    9.7823  -15.1789   28.6005 O   0  0  0  0  0  0  0  0  0  0  0  0
  1  2  1  0
  2  3  1  0
  4  3  1  0
  5  7  1  0
  5  4  1  0
  5  6  1  6
  7  8  2  0
 10  9  1  6
 10 12  1  0
 11 10  1  0
 12 13  1  6
 13  7  1  0
 14 12  1  0
 15 14  2  0
 17 16  1  6
 17 19  1  0
 18 17  1  0
 20 19  1  6
 20 21  1  0
 20 22  1  0
 21 14  1  0
 22 23  1  0
 24 22  2  0
M  END
$$$$
