MTL.pdb
     RDKit          3D

 24 23  0  0  1  0  0  0  0  0999 V2000
    8.6671  -11.6169   19.7247 C   0  0  0  0  0  0  0  0  0  0  0  0
    8.3404  -12.3858   18.1157 S   0  0  0  0  0  0  0  0  0  0  0  0
    8.2226  -14.1892   18.2728 C   0  0  0  0  0  0  0  0  0  0  0  0
    9.4528  -14.7655   18.9416 C   0  0  0  0  0  0  0  0  0  0  0  0
    9.2437  -16.2526   19.1259 C   0  0  2  0  0  0  0  0  0  0  0  0
    8.5456  -16.7805   17.9758 N   0  0  0  0  0  0  0  0  0  0  0  0
    8.5321  -16.5537   20.3945 C   0  0  0  0  0  0  0  0  0  0  0  0
    7.5095  -17.2899   20.3547 O   0  0  0  0  0  0  0  0  0  0  0  0
    7.8942  -18.7210   21.9756 C   0  0  0  0  0  0  0  0  0  0  0  0
    8.6001  -18.0119   23.1100 C   0  0  1  0  0  0  0  0  0  0  0  0
    9.9779  -18.2358   23.0687 O   0  0  0  0  0  0  0  0  0  0  0  0
    8.3369  -16.5110   22.9126 C   0  0  2  0  0  0  0  0  0  0  0  0
    8.9319  -16.0612   21.6678 N   0  0  0  0  0  0  0  0  0  0  0  0
    8.9015  -15.8210   24.0845 C   0  0  0  0  0  0  0  0  0  0  0  0
   10.1119  -15.4770   24.0992 O   0  0  0  0  0  0  0  0  0  0  0  0
    7.3792  -11.9563   25.4909 C   0  0  0  0  0  0  0  0  0  0  0  0
    6.7904  -13.0630   26.3370 C   0  0  2  0  0  0  0  0  0  0  0  0
    5.6700  -12.5028   27.1544 C   0  0  0  0  0  0  0  0  0  0  0  0
    7.7830  -13.8684   27.0805 C   0  0  0  0  0  0  0  0  0  0  0  0
    8.7008  -14.7452   26.3408 C   0  0  2  0  0  0  0  0  0  0  0  0
    8.1608  -15.4951   25.2546 N   0  0  0  0  0  0  0  0  0  0  0  0
    9.4512  -15.6044   27.2833 C   0  0  0  0  0  0  0  0  0  0  0  0
    9.4568  -16.9835   27.1508 O   0  0  0  0  0  0  0  0  0  0  0  0
   10.1093  -15.1179   28.2373 O   0  0  0  0  0  0  0  0  0  0  0  0
  1  2  1  0
  2  3  1  0
  4  3  1  0
  5  7  1  0
  5  4  1  0
  5  6  1  6
  7  8  2  0
 10  9  1  6
 10 12  1  0
 11 10  1  0
 12 13  1  6
 13  7  1  0
 14 12  1  0
 15 14  2  0
 17 16  1  1
 17 19  1  0
 18 17  1  0
 20 19  1  1
 20 21  1  0
 20 22  1  0
 21 14  1  0
 22 23  1  0
 24 22  2  0
M  END
$$$$
