MTL.pdb
     RDKit          3D

 24 23  0  0  1  0  0  0  0  0999 V2000
    8.8528  -11.4912   19.4721 C   0  0  0  0  0  0  0  0  0  0  0  0
    8.9637  -12.2355   17.8227 S   0  0  0  0  0  0  0  0  0  0  0  0
    9.2172  -14.0281   17.9380 C   0  0  0  0  0  0  0  0  0  0  0  0
    8.6424  -14.5843   19.2237 C   0  0  0  0  0  0  0  0  0  0  0  0
    8.8911  -16.0764   19.2517 C   0  0  2  0  0  0  0  0  0  0  0  0
    8.1777  -16.6977   18.1591 N   0  0  0  0  0  0  0  0  0  0  0  0
    8.5245  -16.6693   20.5634 C   0  0  0  0  0  0  0  0  0  0  0  0
    7.7469  -17.6615   20.5829 O   0  0  0  0  0  0  0  0  0  0  0  0
    8.5309  -19.0217   22.1102 C   0  0  0  0  0  0  0  0  0  0  0  0
    9.2103  -18.2045   23.1866 C   0  0  1  0  0  0  0  0  0  0  0  0
   10.5899  -18.1407   22.9800 O   0  0  0  0  0  0  0  0  0  0  0  0
    8.6289  -16.7858   23.0846 C   0  0  2  0  0  0  0  0  0  0  0  0
    8.9980  -16.1872   21.8152 N   0  0  0  0  0  0  0  0  0  0  0  0
    9.1503  -16.0273   24.2340 C   0  0  0  0  0  0  0  0  0  0  0  0
   10.2915  -15.4995   24.1840 O   0  0  0  0  0  0  0  0  0  0  0  0
    7.4722  -12.2676   25.4681 C   0  0  0  0  0  0  0  0  0  0  0  0
    6.9220  -13.4025   26.3027 C   0  0  2  0  0  0  0  0  0  0  0  0
    5.6992  -12.9261   27.0205 C   0  0  0  0  0  0  0  0  0  0  0  0
    7.9237  -14.0975   27.1395 C   0  0  0  0  0  0  0  0  0  0  0  0
    8.9048  -14.9861   26.5020 C   0  0  2  0  0  0  0  0  0  0  0  0
    8.4407  -15.8314   25.4514 N   0  0  0  0  0  0  0  0  0  0  0  0
    9.6456  -15.7462   27.5332 C   0  0  0  0  0  0  0  0  0  0  0  0
   10.3380  -15.0998   28.5442 O   0  0  0  0  0  0  0  0  0  0  0  0
    9.6755  -17.0027   27.5309 O   0  0  0  0  0  0  0  0  0  0  0  0
  1  2  1  0
  2  3  1  0
  4  3  1  0
  5  7  1  0
  5  4  1  0
  5  6  1  6
  7  8  2  0
 10  9  1  6
 10 12  1  0
 11 10  1  0
 12 13  1  6
 13  7  1  0
 14 12  1  0
 15 14  2  0
 17 16  1  1
 17 19  1  0
 18 17  1  0
 20 19  1  1
 20 21  1  0
 20 22  1  0
 21 14  1  0
 22 23  1  0
 24 22  2  0
M  END
$$$$
