MTL.pdb
     RDKit          3D

 24 23  0  0  1  0  0  0  0  0999 V2000
    8.8321  -11.2487   19.7947 C   0  0  0  0  0  0  0  0  0  0  0  0
    8.8261  -11.9130   18.1079 S   0  0  0  0  0  0  0  0  0  0  0  0
    9.0756  -13.7098   18.1197 C   0  0  0  0  0  0  0  0  0  0  0  0
    8.4717  -14.3418   19.3561 C   0  0  0  0  0  0  0  0  0  0  0  0
    8.8536  -15.8057   19.3791 C   0  0  2  0  0  0  0  0  0  0  0  0
    8.2843  -16.4636   18.2251 N   0  0  0  0  0  0  0  0  0  0  0  0
    8.4458  -16.4592   20.6491 C   0  0  0  0  0  0  0  0  0  0  0  0
    7.2618  -16.8773   20.7615 O   0  0  0  0  0  0  0  0  0  0  0  0
    8.9515  -19.4547   22.4888 C   0  0  0  0  0  0  0  0  0  0  0  0
    9.5070  -18.4189   23.4410 C   0  0  1  0  0  0  0  0  0  0  0  0
   10.8903  -18.2898   23.2992 O   0  0  0  0  0  0  0  0  0  0  0  0
    8.8446  -17.0848   23.0638 C   0  0  2  0  0  0  0  0  0  0  0  0
    9.3124  -16.6481   21.7614 N   0  0  0  0  0  0  0  0  0  0  0  0
    9.1795  -16.1256   24.1296 C   0  0  0  0  0  0  0  0  0  0  0  0
   10.2562  -15.4756   24.0862 O   0  0  0  0  0  0  0  0  0  0  0  0
    7.5832  -12.1569   25.4174 C   0  0  0  0  0  0  0  0  0  0  0  0
    6.8685  -13.3224   26.0641 C   0  0  2  0  0  0  0  0  0  0  0  0
    5.5966  -12.8293   26.6776 C   0  0  0  0  0  0  0  0  0  0  0  0
    7.7167  -14.1603   26.9388 C   0  0  0  0  0  0  0  0  0  0  0  0
    8.7462  -15.0189   26.3377 C   0  0  2  0  0  0  0  0  0  0  0  0
    8.3513  -15.8591   25.2552 N   0  0  0  0  0  0  0  0  0  0  0  0
    9.4534  -15.7775   27.3933 C   0  0  0  0  0  0  0  0  0  0  0  0
    9.5166  -17.1612   27.3648 O   0  0  0  0  0  0  0  0  0  0  0  0
   10.0211  -15.1977   28.3532 O   0  0  0  0  0  0  0  0  0  0  0  0
  1  2  1  0
  2  3  1  0
  4  3  1  0
  5  7  1  0
  5  4  1  0
  5  6  1  6
  7  8  2  0
 10  9  1  6
 10 12  1  0
 11 10  1  0
 12 13  1  6
 13  7  1  0
 14 12  1  0
 15 14  2  0
 17 16  1  1
 17 19  1  0
 18 17  1  0
 20 19  1  1
 20 21  1  0
 20 22  1  0
 21 14  1  0
 22 23  1  0
 24 22  2  0
M  END
$$$$
