MTL.pdb
     RDKit          3D

 24 23  0  0  1  0  0  0  0  0999 V2000
   14.6136  -14.0161   21.0468 C   0  0  0  0  0  0  0  0  0  0  0  0
   14.7253  -14.2980   19.2595 S   0  0  0  0  0  0  0  0  0  0  0  0
   13.1985  -15.0455   18.6261 C   0  0  0  0  0  0  0  0  0  0  0  0
   12.0120  -14.7006   19.5012 C   0  0  0  0  0  0  0  0  0  0  0  0
   10.8171  -15.4943   19.0201 C   0  0  2  0  0  0  0  0  0  0  0  0
   10.5167  -15.1213   17.6565 N   0  0  0  0  0  0  0  0  0  0  0  0
    9.6450  -15.3185   19.9155 C   0  0  0  0  0  0  0  0  0  0  0  0
    8.8039  -14.4200   19.6420 O   0  0  0  0  0  0  0  0  0  0  0  0
    6.6755  -17.2039   20.7332 C   0  0  0  0  0  0  0  0  0  0  0  0
    7.4005  -17.1137   22.0577 C   0  0  1  0  0  0  0  0  0  0  0  0
    8.2090  -18.2323   22.2704 O   0  0  0  0  0  0  0  0  0  0  0  0
    8.2935  -15.8659   21.9782 C   0  0  2  0  0  0  0  0  0  0  0  0
    9.4041  -16.1059   21.0755 N   0  0  0  0  0  0  0  0  0  0  0  0
    8.7405  -15.5728   23.3503 C   0  0  0  0  0  0  0  0  0  0  0  0
    9.9312  -15.7930   23.6930 O   0  0  0  0  0  0  0  0  0  0  0  0
    8.1535  -11.6172   25.9373 C   0  0  0  0  0  0  0  0  0  0  0  0
    7.0549  -12.6492   26.0615 C   0  0  2  0  0  0  0  0  0  0  0  0
    5.8978  -12.0387   26.7866 C   0  0  0  0  0  0  0  0  0  0  0  0
    7.4985  -13.9681   26.5621 C   0  0  0  0  0  0  0  0  0  0  0  0
    8.3376  -14.8192   25.7078 C   0  0  2  0  0  0  0  0  0  0  0  0
    7.9023  -15.0373   24.3674 N   0  0  0  0  0  0  0  0  0  0  0  0
    8.6418  -16.0905   26.4013 C   0  0  0  0  0  0  0  0  0  0  0  0
    9.3910  -16.1127   27.5665 O   0  0  0  0  0  0  0  0  0  0  0  0
    8.2344  -17.1950   25.9610 O   0  0  0  0  0  0  0  0  0  0  0  0
  1  2  1  0
  2  3  1  0
  4  3  1  0
  5  7  1  0
  5  4  1  0
  5  6  1  6
  7  8  2  0
 10  9  1  6
 10 12  1  0
 11 10  1  0
 12 13  1  6
 13  7  1  0
 14 12  1  0
 15 14  2  0
 17 16  1  1
 17 19  1  0
 18 17  1  0
 20 19  1  1
 20 21  1  0
 20 22  1  0
 21 14  1  0
 22 23  1  0
 24 22  2  0
M  END
$$$$
