MTL.pdb
     RDKit          3D

 24 23  0  0  1  0  0  0  0  0999 V2000
    9.5315  -16.1049   15.4764 C   0  0  0  0  0  0  0  0  0  0  0  0
    8.7398  -14.5000   15.1858 S   0  0  0  0  0  0  0  0  0  0  0  0
    8.1902  -13.7580   16.7473 C   0  0  0  0  0  0  0  0  0  0  0  0
    8.2046  -14.7702   17.8734 C   0  0  0  0  0  0  0  0  0  0  0  0
    7.7091  -14.0916   19.1317 C   0  0  2  0  0  0  0  0  0  0  0  0
    8.5615  -12.9633   19.4303 N   0  0  0  0  0  0  0  0  0  0  0  0
    7.6248  -15.0414   20.2706 C   0  0  0  0  0  0  0  0  0  0  0  0
    7.0023  -16.1258   20.1094 O   0  0  0  0  0  0  0  0  0  0  0  0
    8.0775  -17.6589   21.0974 C   0  0  0  0  0  0  0  0  0  0  0  0
    8.8638  -17.0611   22.2431 C   0  0  1  0  0  0  0  0  0  0  0  0
   10.1675  -16.7466   21.8538 O   0  0  0  0  0  0  0  0  0  0  0  0
    8.1385  -15.7646   22.6358 C   0  0  2  0  0  0  0  0  0  0  0  0
    8.2070  -14.8074   21.5473 N   0  0  0  0  0  0  0  0  0  0  0  0
    8.7869  -15.2671   23.8606 C   0  0  0  0  0  0  0  0  0  0  0  0
    9.8650  -14.6215   23.7934 O   0  0  0  0  0  0  0  0  0  0  0  0
    7.6964  -11.9050   25.6588 C   0  0  0  0  0  0  0  0  0  0  0  0
    7.0145  -13.0378   26.3929 C   0  0  2  0  0  0  0  0  0  0  0  0
    5.8952  -12.4784   27.2124 C   0  0  0  0  0  0  0  0  0  0  0  0
    7.9309  -13.9546   27.1045 C   0  0  0  0  0  0  0  0  0  0  0  0
    8.8193  -14.8317   26.3299 C   0  0  2  0  0  0  0  0  0  0  0  0
    8.2743  -15.4629   25.1732 N   0  0  0  0  0  0  0  0  0  0  0  0
    9.4801  -15.8046   27.2279 C   0  0  0  0  0  0  0  0  0  0  0  0
    9.5027  -17.1576   26.9305 O   0  0  0  0  0  0  0  0  0  0  0  0
   10.0435  -15.4424   28.2915 O   0  0  0  0  0  0  0  0  0  0  0  0
  1  2  1  0
  2  3  1  0
  4  3  1  0
  5  7  1  0
  5  4  1  0
  5  6  1  1
  7  8  2  0
 10  9  1  6
 10 12  1  0
 11 10  1  0
 12 13  1  6
 13  7  1  0
 14 12  1  0
 15 14  2  0
 17 16  1  1
 17 19  1  0
 18 17  1  0
 20 19  1  1
 20 21  1  0
 20 22  1  0
 21 14  1  0
 22 23  1  0
 24 22  2  0
M  END
$$$$
