MTL.pdb
     RDKit          3D

 24 23  0  0  1  0  0  0  0  0999 V2000
17969.482419656.8965-48536.7656 C   0  0  0  0  0  0  0  0  0  0  0  0
17968.584019658.4609-48536.9414 S   0  0  0  0  0  0  0  0  0  0  0  0
17967.421919658.6895-48535.5742 C   0  0  0  0  0  0  0  0  0  0  0  0
17966.052719659.1270-48536.0742 C   0  0  0  0  0  0  0  0  0  0  0  0
17965.787119660.5254-48535.5547 C   0  0  2  0  0  0  0  0  0  0  0  0
17964.871119660.4512-48534.4492 N   0  0  0  0  0  0  0  0  0  0  0  0
17965.285219661.4121-48536.6289 C   0  0  0  0  0  0  0  0  0  0  0  0
17964.363319660.9609-48537.3984 O   0  0  0  0  0  0  0  0  0  0  0  0
17966.642619665.5605-48537.7812 C   0  0  0  0  0  0  0  0  0  0  0  0
17965.255919664.9902-48537.6875 C   0  0  1  0  0  0  0  0  0  0  0  0
17964.400419665.6074-48538.6133 O   0  0  0  0  0  0  0  0  0  0  0  0
17965.375019663.5039-48538.0508 C   0  0  2  0  0  0  0  0  0  0  0  0
17965.748019662.7285-48536.8867 N   0  0  0  0  0  0  0  0  0  0  0  0
17966.373019663.4102-48539.1289 C   0  0  0  0  0  0  0  0  0  0  0  0
17966.085919663.7461-48540.3125 O   0  0  0  0  0  0  0  0  0  0  0  0
17968.320319663.7461-48542.2422 C   0  0  0  0  0  0  0  0  0  0  0  0
17968.248019662.2305-48542.2734 C   0  0  2  0  0  0  0  0  0  0  0  0
17967.642619661.7754-48543.5391 C   0  0  0  0  0  0  0  0  0  0  0  0
17967.683619661.6270-48541.0430 C   0  0  0  0  0  0  0  0  0  0  0  0
17968.310519661.9238-48539.7500 C   0  0  2  0  0  0  0  0  0  0  0  0
17967.714819662.9414-48538.9375 N   0  0  0  0  0  0  0  0  0  0  0  0
17969.763719662.1387-48539.9297 C   0  0  0  0  0  0  0  0  0  0  0  0
17970.382819661.8750-48541.1055 O   0  0  0  0  0  0  0  0  0  0  0  0
17970.466819662.5977-48539.0078 O   0  0  0  0  0  0  0  0  0  0  0  0
  1  2  1  0
  2  3  1  0
  4  3  1  0
  5  7  1  0
  5  4  1  0
  5  6  1  1
  7  8  2  0
 10  9  1  6
 10 12  1  0
 11 10  1  0
 12 13  1  1
 13  7  1  0
 14 12  1  0
 15 14  2  0
 17 16  1  1
 17 19  1  0
 18 17  1  0
 20 19  1  6
 20 21  1  0
 20 22  1  0
 21 14  1  0
 22 23  1  0
 24 22  2  0
M  END
$$$$
