MTL.pdb
     RDKit          3D

 24 23  0  0  1  0  0  0  0  0999 V2000
    6.9958  -11.8671   19.7921 C   0  0  0  0  0  0  0  0  0  0  0  0
    7.6436  -12.9421   18.4838 S   0  0  0  0  0  0  0  0  0  0  0  0
    8.7659  -14.1912   19.1701 C   0  0  0  0  0  0  0  0  0  0  0  0
    9.0508  -13.9310   20.6343 C   0  0  0  0  0  0  0  0  0  0  0  0
    9.9390  -15.0409   21.1525 C   0  0  2  0  0  0  0  0  0  0  0  0
   10.0080  -16.0943   20.1655 N   0  0  0  0  0  0  0  0  0  0  0  0
    9.4758  -15.5440   22.4711 C   0  0  0  0  0  0  0  0  0  0  0  0
    9.0586  -14.7136   23.3230 O   0  0  0  0  0  0  0  0  0  0  0  0
    7.8819  -19.3012   23.2222 C   0  0  0  0  0  0  0  0  0  0  0  0
    8.9923  -18.9153   24.1742 C   0  0  1  0  0  0  0  0  0  0  0  0
   10.2215  -19.4278   23.7539 O   0  0  0  0  0  0  0  0  0  0  0  0
    9.0641  -17.3805   24.1559 C   0  0  2  0  0  0  0  0  0  0  0  0
    9.4705  -16.9173   22.8421 N   0  0  0  0  0  0  0  0  0  0  0  0
   10.0155  -16.9853   25.2080 C   0  0  0  0  0  0  0  0  0  0  0  0
   11.2262  -16.7850   24.9295 O   0  0  0  0  0  0  0  0  0  0  0  0
   10.2127  -13.4365   26.5646 C   0  0  0  0  0  0  0  0  0  0  0  0
    9.5526  -14.1379   27.7306 C   0  0  2  0  0  0  0  0  0  0  0  0
    9.0251  -13.1081   28.6786 C   0  0  0  0  0  0  0  0  0  0  0  0
   10.3599  -15.2153   28.3423 C   0  0  0  0  0  0  0  0  0  0  0  0
   10.6089  -16.4492   27.5847 C   0  0  2  0  0  0  0  0  0  0  0  0
    9.6659  -16.8019   26.5748 N   0  0  0  0  0  0  0  0  0  0  0  0
   10.8656  -17.5717   28.5141 C   0  0  0  0  0  0  0  0  0  0  0  0
   10.1169  -18.7362   28.4594 O   0  0  0  0  0  0  0  0  0  0  0  0
   11.7688  -17.5117   29.3862 O   0  0  0  0  0  0  0  0  0  0  0  0
  1  2  1  0
  2  3  1  0
  4  3  1  0
  5  7  1  0
  5  4  1  0
  5  6  1  6
  7  8  2  0
 10  9  1  6
 10 12  1  0
 11 10  1  0
 12 13  1  6
 13  7  1  0
 14 12  1  0
 15 14  2  0
 17 16  1  6
 17 19  1  0
 18 17  1  0
 20 19  1  1
 20 21  1  0
 20 22  1  0
 21 14  1  0
 22 23  1  0
 24 22  2  0
M  END
$$$$
