MTL.pdb
     RDKit          3D

 24 23  0  0  1  0  0  0  0  0999 V2000
    8.1781  -11.6184   19.4912 C   0  0  0  0  0  0  0  0  0  0  0  0
    8.4953  -12.4135   17.8931 S   0  0  0  0  0  0  0  0  0  0  0  0
    8.8911  -14.1703   18.1122 C   0  0  0  0  0  0  0  0  0  0  0  0
    8.3077  -14.7099   19.4011 C   0  0  0  0  0  0  0  0  0  0  0  0
    8.6953  -16.1670   19.5274 C   0  0  2  0  0  0  0  0  0  0  0  0
    8.0718  -16.9187   18.4621 N   0  0  0  0  0  0  0  0  0  0  0  0
    8.3531  -16.7117   20.8663 C   0  0  0  0  0  0  0  0  0  0  0  0
    7.5815  -17.7063   20.9357 O   0  0  0  0  0  0  0  0  0  0  0  0
    8.3021  -18.9645   22.4482 C   0  0  0  0  0  0  0  0  0  0  0  0
    8.9984  -18.1601   23.5235 C   0  0  1  0  0  0  0  0  0  0  0  0
   10.3828  -18.1600   23.3404 O   0  0  0  0  0  0  0  0  0  0  0  0
    8.4817  -16.7193   23.3890 C   0  0  2  0  0  0  0  0  0  0  0  0
    8.8437  -16.1803   22.0912 N   0  0  0  0  0  0  0  0  0  0  0  0
    9.0692  -15.9499   24.4986 C   0  0  0  0  0  0  0  0  0  0  0  0
   10.2751  -15.5925   24.4575 O   0  0  0  0  0  0  0  0  0  0  0  0
    7.8134  -12.0829   25.1954 C   0  0  0  0  0  0  0  0  0  0  0  0
    7.1082  -12.9093   26.2475 C   0  0  2  0  0  0  0  0  0  0  0  0
    6.0511  -12.0706   26.8928 C   0  0  0  0  0  0  0  0  0  0  0  0
    8.0076  -13.6286   27.1751 C   0  0  0  0  0  0  0  0  0  0  0  0
    8.8919  -14.6794   26.6532 C   0  0  2  0  0  0  0  0  0  0  0  0
    8.3566  -15.5583   25.6659 N   0  0  0  0  0  0  0  0  0  0  0  0
    9.5124  -15.4220   27.7727 C   0  0  0  0  0  0  0  0  0  0  0  0
   10.2852  -14.7756   28.7237 O   0  0  0  0  0  0  0  0  0  0  0  0
    9.3635  -16.6632   27.9027 O   0  0  0  0  0  0  0  0  0  0  0  0
  1  2  1  0
  2  3  1  0
  4  3  1  0
  5  7  1  0
  5  4  1  0
  5  6  1  6
  7  8  2  0
 10  9  1  6
 10 12  1  0
 11 10  1  0
 12 13  1  6
 13  7  1  0
 14 12  1  0
 15 14  2  0
 17 16  1  1
 17 19  1  0
 18 17  1  0
 20 19  1  1
 20 21  1  0
 20 22  1  0
 21 14  1  0
 22 23  1  0
 24 22  2  0
M  END
$$$$
