MTL.pdb
     RDKit          3D

 24 23  0  0  1  0  0  0  0  0999 V2000
    8.2591  -11.5534   19.6289 C   0  0  0  0  0  0  0  0  0  0  0  0
    8.4034  -12.4419   18.0552 S   0  0  0  0  0  0  0  0  0  0  0  0
    8.0783  -14.2124   18.2801 C   0  0  0  0  0  0  0  0  0  0  0  0
    8.6188  -14.7079   19.6049 C   0  0  0  0  0  0  0  0  0  0  0  0
    8.2700  -16.1735   19.7448 C   0  0  2  0  0  0  0  0  0  0  0  0
    7.2485  -16.5130   18.7804 N   0  0  0  0  0  0  0  0  0  0  0  0
    7.8586  -16.5097   21.1319 C   0  0  0  0  0  0  0  0  0  0  0  0
    6.6466  -16.3766   21.4527 O   0  0  0  0  0  0  0  0  0  0  0  0
    8.2447  -18.9775   25.2519 C   0  0  0  0  0  0  0  0  0  0  0  0
    8.8082  -18.6995   23.8759 C   0  0  1  0  0  0  0  0  0  0  0  0
    8.3275  -19.6143   22.9367 O   0  0  0  0  0  0  0  0  0  0  0  0
    8.3271  -17.2929   23.4874 C   0  0  2  0  0  0  0  0  0  0  0  0
    8.7511  -16.9781   22.1357 N   0  0  0  0  0  0  0  0  0  0  0  0
    8.8862  -16.3610   24.4810 C   0  0  0  0  0  0  0  0  0  0  0  0
   10.1002  -16.0328   24.4340 O   0  0  0  0  0  0  0  0  0  0  0  0
    7.4100  -12.3392   25.0327 C   0  0  0  0  0  0  0  0  0  0  0  0
    6.8189  -13.1817   26.1410 C   0  0  2  0  0  0  0  0  0  0  0  0
    5.7521  -12.3928   26.8315 C   0  0  0  0  0  0  0  0  0  0  0  0
    7.8130  -13.8243   27.0273 C   0  0  0  0  0  0  0  0  0  0  0  0
    8.6952  -14.8669   26.4858 C   0  0  2  0  0  0  0  0  0  0  0  0
    8.1361  -15.7733   25.5373 N   0  0  0  0  0  0  0  0  0  0  0  0
    9.3774  -15.5776   27.5900 C   0  0  0  0  0  0  0  0  0  0  0  0
    9.2844  -16.9532   27.7259 O   0  0  0  0  0  0  0  0  0  0  0  0
   10.0642  -14.9626   28.4443 O   0  0  0  0  0  0  0  0  0  0  0  0
  1  2  1  0
  2  3  1  0
  4  3  1  0
  5  7  1  0
  5  4  1  0
  5  6  1  6
  7  8  2  0
 10  9  1  1
 10 12  1  0
 11 10  1  0
 12 13  1  6
 13  7  1  0
 14 12  1  0
 15 14  2  0
 17 16  1  6
 17 19  1  0
 18 17  1  0
 20 19  1  1
 20 21  1  0
 20 22  1  0
 21 14  1  0
 22 23  1  0
 24 22  2  0
M  END
$$$$
