MTL.pdb
     RDKit          3D

 24 23  0  0  1  0  0  0  0  0999 V2000
    7.0576  -11.9975   17.7462 C   0  0  0  0  0  0  0  0  0  0  0  0
    7.8779  -13.3037   16.7936 S   0  0  0  0  0  0  0  0  0  0  0  0
    8.6433  -14.5244   17.8960 C   0  0  0  0  0  0  0  0  0  0  0  0
    8.2575  -14.2811   19.3398 C   0  0  0  0  0  0  0  0  0  0  0  0
    8.9663  -15.3026   20.2020 C   0  0  2  0  0  0  0  0  0  0  0  0
    9.0782  -16.5449   19.4721 N   0  0  0  0  0  0  0  0  0  0  0  0
    8.2846  -15.4852   21.5090 C   0  0  0  0  0  0  0  0  0  0  0  0
    7.8935  -14.4634   22.1355 O   0  0  0  0  0  0  0  0  0  0  0  0
    6.0566  -18.7952   22.6217 C   0  0  0  0  0  0  0  0  0  0  0  0
    7.0792  -18.3860   23.6586 C   0  0  1  0  0  0  0  0  0  0  0  0
    8.2580  -19.1229   23.5266 O   0  0  0  0  0  0  0  0  0  0  0  0
    7.3905  -16.9041   23.3981 C   0  0  2  0  0  0  0  0  0  0  0  0
    8.0397  -16.7515   22.1092 N   0  0  0  0  0  0  0  0  0  0  0  0
    8.2389  -16.4443   24.5103 C   0  0  0  0  0  0  0  0  0  0  0  0
    9.4895  -16.3945   24.3790 O   0  0  0  0  0  0  0  0  0  0  0  0
    8.2054  -12.4037   25.7530 C   0  0  0  0  0  0  0  0  0  0  0  0
    7.3270  -13.2180   26.6764 C   0  0  2  0  0  0  0  0  0  0  0  0
    6.4602  -12.2877   27.4642 C   0  0  0  0  0  0  0  0  0  0  0  0
    8.0416  -14.2458   27.4636 C   0  0  0  0  0  0  0  0  0  0  0  0
    8.5596  -15.4424   26.7865 C   0  0  2  0  0  0  0  0  0  0  0  0
    7.7420  -16.0326   25.7781 N   0  0  0  0  0  0  0  0  0  0  0  0
    9.0047  -16.4381   27.7866 C   0  0  0  0  0  0  0  0  0  0  0  0
   10.0154  -16.1488   28.6889 O   0  0  0  0  0  0  0  0  0  0  0  0
    8.4852  -17.5806   27.8552 O   0  0  0  0  0  0  0  0  0  0  0  0
  1  2  1  0
  2  3  1  0
  4  3  1  0
  5  7  1  0
  5  4  1  0
  5  6  1  6
  7  8  2  0
 10  9  1  6
 10 12  1  0
 11 10  1  0
 12 13  1  6
 13  7  1  0
 14 12  1  0
 15 14  2  0
 17 16  1  1
 17 19  1  0
 18 17  1  0
 20 19  1  1
 20 21  1  0
 20 22  1  0
 21 14  1  0
 22 23  1  0
 24 22  2  0
M  END
$$$$
