MTL.pdb
     RDKit          3D

 24 23  0  0  1  0  0  0  0  0999 V2000
    6.9645  -12.0957   18.8767 C   0  0  0  0  0  0  0  0  0  0  0  0
    8.3401  -12.4659   17.7553 S   0  0  0  0  0  0  0  0  0  0  0  0
    8.8679  -14.1930   17.9276 C   0  0  0  0  0  0  0  0  0  0  0  0
    8.5302  -14.7380   19.2994 C   0  0  0  0  0  0  0  0  0  0  0  0
    8.8895  -16.2074   19.3310 C   0  0  2  0  0  0  0  0  0  0  0  0
    8.1823  -16.8925   18.2731 N   0  0  0  0  0  0  0  0  0  0  0  0
    8.6189  -16.8099   20.6615 C   0  0  0  0  0  0  0  0  0  0  0  0
    7.9179  -17.8562   20.7207 O   0  0  0  0  0  0  0  0  0  0  0  0
    8.9524  -19.1076   22.0504 C   0  0  0  0  0  0  0  0  0  0  0  0
    9.5970  -18.3114   23.1633 C   0  0  1  0  0  0  0  0  0  0  0  0
   10.9620  -18.1291   22.9315 O   0  0  0  0  0  0  0  0  0  0  0  0
    8.9084  -16.9378   23.1677 C   0  0  2  0  0  0  0  0  0  0  0  0
    9.1037  -16.2795   21.8892 N   0  0  0  0  0  0  0  0  0  0  0  0
    9.4875  -16.1735   24.2852 C   0  0  0  0  0  0  0  0  0  0  0  0
   10.5511  -15.5199   24.1263 O   0  0  0  0  0  0  0  0  0  0  0  0
    7.0264  -13.6180   25.0000 C   0  0  0  0  0  0  0  0  0  0  0  0
    7.3751  -13.7483   26.4658 C   0  0  2  0  0  0  0  0  0  0  0  0
    6.6988  -12.6500   27.2232 C   0  0  0  0  0  0  0  0  0  0  0  0
    8.8165  -13.9237   26.7458 C   0  0  0  0  0  0  0  0  0  0  0  0
    9.4192  -15.2575   26.6185 C   0  0  2  0  0  0  0  0  0  0  0  0
    8.9206  -16.1083   25.5883 N   0  0  0  0  0  0  0  0  0  0  0  0
    9.4326  -15.9355   27.9337 C   0  0  0  0  0  0  0  0  0  0  0  0
   10.0060  -15.3385   29.0447 O   0  0  0  0  0  0  0  0  0  0  0  0
    8.9268  -17.0751   28.0926 O   0  0  0  0  0  0  0  0  0  0  0  0
  1  2  1  0
  2  3  1  0
  4  3  1  0
  5  7  1  0
  5  4  1  0
  5  6  1  6
  7  8  2  0
 10  9  1  6
 10 12  1  0
 11 10  1  0
 12 13  1  6
 13  7  1  0
 14 12  1  0
 15 14  2  0
 17 16  1  6
 17 19  1  0
 18 17  1  0
 20 19  1  1
 20 21  1  0
 20 22  1  0
 21 14  1  0
 22 23  1  0
 24 22  2  0
M  END
$$$$
