MTL.pdb
     RDKit          3D

 24 23  0  0  1  0  0  0  0  0999 V2000
    8.8416  -11.5318   19.4710 C   0  0  0  0  0  0  0  0  0  0  0  0
    8.7280  -12.4035   17.8855 S   0  0  0  0  0  0  0  0  0  0  0  0
    8.8754  -14.1962   18.1212 C   0  0  0  0  0  0  0  0  0  0  0  0
    8.3292  -14.6216   19.4679 C   0  0  0  0  0  0  0  0  0  0  0  0
    8.5186  -16.1160   19.6095 C   0  0  2  0  0  0  0  0  0  0  0  0
    7.8129  -16.7877   18.5421 N   0  0  0  0  0  0  0  0  0  0  0  0
    8.0922  -16.5987   20.9479 C   0  0  0  0  0  0  0  0  0  0  0  0
    6.8693  -16.8336   21.1451 O   0  0  0  0  0  0  0  0  0  0  0  0
    8.5576  -19.4775   23.0762 C   0  0  0  0  0  0  0  0  0  0  0  0
    9.1316  -18.3660   23.9267 C   0  0  1  0  0  0  0  0  0  0  0  0
   10.5214  -18.3016   23.8065 O   0  0  0  0  0  0  0  0  0  0  0  0
    8.5280  -17.0574   23.3935 C   0  0  2  0  0  0  0  0  0  0  0  0
    8.9819  -16.8172   22.0362 N   0  0  0  0  0  0  0  0  0  0  0  0
    8.9402  -15.9889   24.3191 C   0  0  0  0  0  0  0  0  0  0  0  0
    9.9765  -15.3126   24.0902 O   0  0  0  0  0  0  0  0  0  0  0  0
    5.6640  -12.4093   27.1536 C   0  0  0  0  0  0  0  0  0  0  0  0
    7.0286  -12.7392   26.5909 C   0  0  2  0  0  0  0  0  0  0  0  0
    6.9487  -12.7387   25.0973 C   0  0  0  0  0  0  0  0  0  0  0  0
    7.6778  -13.9222   27.1955 C   0  0  0  0  0  0  0  0  0  0  0  0
    8.6933  -14.6580   26.4300 C   0  0  2  0  0  0  0  0  0  0  0  0
    8.2340  -15.6404   25.5039 N   0  0  0  0  0  0  0  0  0  0  0  0
    9.7218  -15.2021   27.3443 C   0  0  0  0  0  0  0  0  0  0  0  0
   10.4898  -14.3680   28.1405 O   0  0  0  0  0  0  0  0  0  0  0  0
    9.9379  -16.4371   27.4327 O   0  0  0  0  0  0  0  0  0  0  0  0
  1  2  1  0
  2  3  1  0
  4  3  1  0
  5  7  1  0
  5  4  1  0
  5  6  1  6
  7  8  2  0
 10  9  1  6
 10 12  1  0
 11 10  1  0
 12 13  1  6
 13  7  1  0
 14 12  1  0
 15 14  2  0
 17 16  1  1
 17 19  1  0
 18 17  1  0
 20 19  1  1
 20 21  1  0
 20 22  1  0
 21 14  1  0
 22 23  1  0
 24 22  2  0
M  END
$$$$
