NSY.pdb
     RDKit          3D

 27 27  0  0  1  0  0  0  0  0999 V2000
    9.2322  -21.4063   17.7645 N   0  0  0  0  0  0  0  0  0  0  0  0
    8.1976  -20.6678   18.4450 C   0  0  0  0  0  0  0  0  0  0  0  0
    7.2310  -21.3568   18.8267 O   0  0  0  0  0  0  0  0  0  0  0  0
    8.2932  -19.2285   18.6582 C   0  0  0  0  0  0  0  0  0  0  0  0
    8.5576  -18.7538   20.0590 C   0  0  2  0  0  0  0  0  0  0  0  0
    7.4414  -19.2461   20.8817 N   0  0  0  0  0  0  0  0  0  0  0  0
    8.6927  -17.2916   20.2094 C   0  0  0  0  0  0  0  0  0  0  0  0
    9.6343  -16.7022   19.6469 O   0  0  0  0  0  0  0  0  0  0  0  0
    5.8483  -14.8793   22.0170 O   0  0  0  0  0  0  0  0  0  0  0  0
    6.7209  -14.3730   21.0575 C   0  0  0  0  0  0  0  0  0  0  0  0
    8.0296  -15.1282   21.1879 C   0  0  2  0  0  0  0  0  0  0  0  0
    7.7673  -16.5203   20.9905 N   0  0  0  0  0  0  0  0  0  0  0  0
    8.6402  -14.8459   22.5107 C   0  0  0  0  0  0  0  0  0  0  0  0
    8.2709  -13.9049   23.2603 O   0  0  0  0  0  0  0  0  0  0  0  0
   11.0160  -14.8050   30.6244 O   0  0  0  0  0  0  0  0  0  0  0  0
   10.5857  -14.9782   29.3125 C   0  0  0  0  0  0  0  0  0  0  0  0
   10.3877  -13.8573   28.5222 C   0  0  0  0  0  0  0  0  0  0  0  0
    9.9627  -13.9964   27.2231 C   0  0  0  0  0  0  0  0  0  0  0  0
    9.7215  -15.2593   26.6697 C   0  0  0  0  0  0  0  0  0  0  0  0
    9.2619  -15.3912   25.2878 C   0  0  0  0  0  0  0  0  0  0  0  0
   10.3643  -15.3437   24.2452 C   0  0  2  0  0  0  0  0  0  0  0  0
    9.6912  -15.6678   22.9683 N   0  0  0  0  0  0  0  0  0  0  0  0
   11.3523  -16.4075   24.5529 C   0  0  0  0  0  0  0  0  0  0  0  0
   11.1251  -17.7618   24.3679 O   0  0  0  0  0  0  0  0  0  0  0  0
    9.9258  -16.3431   27.4750 C   0  0  0  0  0  0  0  0  0  0  0  0
   10.3554  -16.2244   28.7913 C   0  0  0  0  0  0  0  0  0  0  0  0
   12.4685  -16.0603   25.0114 O   0  0  0  0  0  0  0  0  0  0  0  0
  2  1  1  0
  2  3  2  0
  4  2  1  0
  5  4  1  0
  5  6  1  1
  7  5  1  0
  7  8  2  0
 10  9  1  0
 11 10  1  1
 11 12  1  0
 12  7  1  0
 13 22  1  0
 13 11  1  0
 14 13  2  0
 16 15  1  0
 16 26  2  0
 17 16  1  0
 18 17  2  0
 18 19  1  0
 19 20  1  0
 19 25  2  0
 21 20  1  1
 21 22  1  0
 21 23  1  0
 23 27  2  0
 23 24  1  0
 25 26  1  0
M  END
$$$$
