NSY.pdb
     RDKit          3D

 27 27  0  0  1  0  0  0  0  0999 V2000
   11.9349  -16.7701   18.5309 N   0  0  0  0  0  0  0  0  0  0  0  0
   11.3081  -15.6254   19.1440 C   0  0  0  0  0  0  0  0  0  0  0  0
   11.5435  -14.5384   18.5802 O   0  0  0  0  0  0  0  0  0  0  0  0
   10.4700  -15.7509   20.3305 C   0  0  0  0  0  0  0  0  0  0  0  0
   10.2411  -17.1338   20.8716 C   0  0  2  0  0  0  0  0  0  0  0  0
    9.4507  -17.8503   19.8583 N   0  0  0  0  0  0  0  0  0  0  0  0
    9.5595  -17.1893   22.1797 C   0  0  0  0  0  0  0  0  0  0  0  0
    8.3909  -17.6143   22.2441 O   0  0  0  0  0  0  0  0  0  0  0  0
   10.8430  -19.0584   24.9163 O   0  0  0  0  0  0  0  0  0  0  0  0
    9.5369  -18.6002   24.7669 C   0  0  0  0  0  0  0  0  0  0  0  0
    9.5952  -17.0898   24.6427 C   0  0  2  0  0  0  0  0  0  0  0  0
   10.2043  -16.7646   23.3901 N   0  0  0  0  0  0  0  0  0  0  0  0
   10.3317  -16.5210   25.7988 C   0  0  0  0  0  0  0  0  0  0  0  0
   11.5872  -16.4632   25.8629 O   0  0  0  0  0  0  0  0  0  0  0  0
    6.3061  -11.4481   24.8602 O   0  0  0  0  0  0  0  0  0  0  0  0
    7.0747  -12.1650   25.7721 C   0  0  0  0  0  0  0  0  0  0  0  0
    6.4335  -12.9940   26.6785 C   0  0  0  0  0  0  0  0  0  0  0  0
    7.1655  -13.7141   27.5913 C   0  0  0  0  0  0  0  0  0  0  0  0
    8.5623  -13.6304   27.6295 C   0  0  0  0  0  0  0  0  0  0  0  0
    9.3274  -14.3969   28.6120 C   0  0  0  0  0  0  0  0  0  0  0  0
   10.3219  -15.3774   28.0170 C   0  0  2  0  0  0  0  0  0  0  0  0
    9.6004  -16.0119   26.8921 N   0  0  0  0  0  0  0  0  0  0  0  0
   10.6329  -16.4117   29.0349 C   0  0  0  0  0  0  0  0  0  0  0  0
   10.3119  -17.7537   28.9082 O   0  0  0  0  0  0  0  0  0  0  0  0
    9.1631  -12.8043   26.7233 C   0  0  0  0  0  0  0  0  0  0  0  0
    8.4415  -12.0676   25.7918 C   0  0  0  0  0  0  0  0  0  0  0  0
   11.2257  -16.0497   30.0809 O   0  0  0  0  0  0  0  0  0  0  0  0
  2  1  1  0
  2  3  2  0
  4  2  1  0
  5  4  1  0
  5  6  1  6
  7  5  1  0
  7  8  2  0
 10  9  1  0
 11 10  1  1
 11 12  1  0
 12  7  1  0
 13 22  1  0
 13 11  1  0
 14 13  2  0
 16 15  1  0
 16 26  2  0
 17 16  1  0
 18 17  2  0
 18 19  1  0
 19 20  1  0
 19 25  2  0
 21 20  1  1
 21 22  1  0
 21 23  1  0
 23 27  2  0
 23 24  1  0
 25 26  1  0
M  END
$$$$
