NSY.pdb
     RDKit          3D

 27 27  0  0  1  0  0  0  0  0999 V2000
    8.9933  -12.6156   18.2254 N   0  0  0  0  0  0  0  0  0  0  0  0
    7.7866  -13.3576   18.4942 C   0  0  0  0  0  0  0  0  0  0  0  0
    6.8625  -13.1618   17.6802 O   0  0  0  0  0  0  0  0  0  0  0  0
    7.6760  -14.2593   19.6346 C   0  0  0  0  0  0  0  0  0  0  0  0
    8.8226  -14.2896   20.6052 C   0  0  2  0  0  0  0  0  0  0  0  0
   10.0060  -14.7069   19.8367 N   0  0  0  0  0  0  0  0  0  0  0  0
    8.6343  -15.1775   21.7692 C   0  0  0  0  0  0  0  0  0  0  0  0
    7.6308  -15.0350   22.4925 O   0  0  0  0  0  0  0  0  0  0  0  0
   11.3386  -18.0689   22.6268 O   0  0  0  0  0  0  0  0  0  0  0  0
   10.0485  -18.3369   23.0764 C   0  0  0  0  0  0  0  0  0  0  0  0
    9.3449  -17.0063   23.2619 C   0  0  2  0  0  0  0  0  0  0  0  0
    9.5784  -16.2079   22.0984 N   0  0  0  0  0  0  0  0  0  0  0  0
    9.8264  -16.3550   24.5054 C   0  0  0  0  0  0  0  0  0  0  0  0
   10.7645  -15.5165   24.5327 O   0  0  0  0  0  0  0  0  0  0  0  0
    6.2988  -10.9686   25.4391 O   0  0  0  0  0  0  0  0  0  0  0  0
    6.8361  -12.1239   25.9984 C   0  0  0  0  0  0  0  0  0  0  0  0
    8.0097  -12.0278   26.7288 C   0  0  0  0  0  0  0  0  0  0  0  0
    8.5644  -13.1511   27.2927 C   0  0  0  0  0  0  0  0  0  0  0  0
    7.9657  -14.4079   27.1462 C   0  0  0  0  0  0  0  0  0  0  0  0
    8.5722  -15.5958   27.7456 C   0  0  0  0  0  0  0  0  0  0  0  0
    9.7695  -16.1460   26.9917 C   0  0  2  0  0  0  0  0  0  0  0  0
    9.2094  -16.6808   25.7311 N   0  0  0  0  0  0  0  0  0  0  0  0
   10.3480  -17.2656   27.7754 C   0  0  0  0  0  0  0  0  0  0  0  0
   11.1124  -17.1049   28.9200 O   0  0  0  0  0  0  0  0  0  0  0  0
    6.8106  -14.4683   26.4204 C   0  0  0  0  0  0  0  0  0  0  0  0
    6.2330  -13.3445   25.8420 C   0  0  0  0  0  0  0  0  0  0  0  0
   10.1324  -18.4368   27.3774 O   0  0  0  0  0  0  0  0  0  0  0  0
  2  1  1  0
  2  3  2  0
  4  2  1  0
  5  4  1  0
  5  6  1  6
  7  5  1  0
  7  8  2  0
 10  9  1  0
 11 10  1  6
 11 12  1  0
 12  7  1  0
 13 22  1  0
 13 11  1  0
 14 13  2  0
 16 15  1  0
 16 26  2  0
 17 16  1  0
 18 17  2  0
 18 19  1  0
 19 20  1  0
 19 25  2  0
 21 20  1  1
 21 22  1  0
 21 23  1  0
 23 27  2  0
 23 24  1  0
 25 26  1  0
M  END
$$$$
