NSY.pdb
     RDKit          3D

 27 27  0  0  1  0  0  0  0  0999 V2000
    8.6622  -20.1144   16.8878 N   0  0  0  0  0  0  0  0  0  0  0  0
    9.4613  -20.2278   18.0826 C   0  0  0  0  0  0  0  0  0  0  0  0
    9.8129  -21.3902   18.3656 O   0  0  0  0  0  0  0  0  0  0  0  0
    9.8177  -19.0625   18.8832 C   0  0  0  0  0  0  0  0  0  0  0  0
    9.2768  -17.7312   18.4443 C   0  0  2  0  0  0  0  0  0  0  0  0
   10.2088  -17.2195   17.4272 N   0  0  0  0  0  0  0  0  0  0  0  0
    9.1073  -16.7379   19.5230 C   0  0  0  0  0  0  0  0  0  0  0  0
   10.1021  -16.1252   19.9536 O   0  0  0  0  0  0  0  0  0  0  0  0
    5.5427  -16.2550   21.4660 O   0  0  0  0  0  0  0  0  0  0  0  0
    6.2902  -15.0892   21.3227 C   0  0  0  0  0  0  0  0  0  0  0  0
    7.7418  -15.4961   21.1572 C   0  0  2  0  0  0  0  0  0  0  0  0
    7.8227  -16.4536   20.0978 N   0  0  0  0  0  0  0  0  0  0  0  0
    8.2629  -16.0238   22.4427 C   0  0  0  0  0  0  0  0  0  0  0  0
    8.4155  -17.2502   22.6800 O   0  0  0  0  0  0  0  0  0  0  0  0
   10.9273  -15.4080   30.9135 O   0  0  0  0  0  0  0  0  0  0  0  0
   10.4282  -15.1450   29.6416 C   0  0  0  0  0  0  0  0  0  0  0  0
   10.8448  -15.9383   28.5846 C   0  0  0  0  0  0  0  0  0  0  0  0
   10.3698  -15.7028   27.3171 C   0  0  0  0  0  0  0  0  0  0  0  0
    9.4627  -14.6674   27.0628 C   0  0  0  0  0  0  0  0  0  0  0  0
    8.9720  -14.4239   25.7071 C   0  0  0  0  0  0  0  0  0  0  0  0
    9.0173  -15.6322   24.7892 C   0  0  2  0  0  0  0  0  0  0  0  0
    8.6122  -15.1153   23.4635 N   0  0  0  0  0  0  0  0  0  0  0  0
    8.0072  -16.6159   25.2523 C   0  0  0  0  0  0  0  0  0  0  0  0
    6.6372  -16.4194   25.1848 O   0  0  0  0  0  0  0  0  0  0  0  0
    9.0727  -13.9041   28.1258 C   0  0  0  0  0  0  0  0  0  0  0  0
    9.5409  -14.1255   29.4154 C   0  0  0  0  0  0  0  0  0  0  0  0
    8.4182  -17.6984   25.7379 O   0  0  0  0  0  0  0  0  0  0  0  0
  2  1  1  0
  2  3  2  0
  4  2  1  0
  5  4  1  0
  5  6  1  6
  7  5  1  0
  7  8  2  0
 10  9  1  0
 11 10  1  1
 11 12  1  0
 12  7  1  0
 13 22  1  0
 13 11  1  0
 14 13  2  0
 16 15  1  0
 16 26  2  0
 17 16  1  0
 18 17  2  0
 18 19  1  0
 19 20  1  0
 19 25  2  0
 21 20  1  1
 21 22  1  0
 21 23  1  0
 23 27  2  0
 23 24  1  0
 25 26  1  0
M  END
$$$$
