NSY.pdb
     RDKit          3D

 27 27  0  0  1  0  0  0  0  0999 V2000
   10.8579  -20.3692   18.3646 N   0  0  0  0  0  0  0  0  0  0  0  0
   11.0612  -19.1346   17.6479 C   0  0  0  0  0  0  0  0  0  0  0  0
   11.5176  -19.2705   16.4955 O   0  0  0  0  0  0  0  0  0  0  0  0
   10.7522  -17.8399   18.2430 C   0  0  0  0  0  0  0  0  0  0  0  0
   10.4058  -17.8164   19.7049 C   0  0  2  0  0  0  0  0  0  0  0  0
    9.2910  -18.7603   19.8824 N   0  0  0  0  0  0  0  0  0  0  0  0
   10.0385  -16.4907   20.2400 C   0  0  0  0  0  0  0  0  0  0  0  0
   10.8260  -15.5358   20.1046 O   0  0  0  0  0  0  0  0  0  0  0  0
    6.3007  -15.7163   21.7167 O   0  0  0  0  0  0  0  0  0  0  0  0
    7.0159  -14.6805   21.1218 C   0  0  0  0  0  0  0  0  0  0  0  0
    8.4888  -14.9422   21.3704 C   0  0  2  0  0  0  0  0  0  0  0  0
    8.7935  -16.2644   20.9183 N   0  0  0  0  0  0  0  0  0  0  0  0
    8.7954  -14.7477   22.8094 C   0  0  0  0  0  0  0  0  0  0  0  0
    8.4928  -13.7077   23.4503 O   0  0  0  0  0  0  0  0  0  0  0  0
    5.5952  -11.1214   27.0520 O   0  0  0  0  0  0  0  0  0  0  0  0
    6.2217  -12.3035   26.6694 C   0  0  0  0  0  0  0  0  0  0  0  0
    7.5362  -12.5159   27.0528 C   0  0  0  0  0  0  0  0  0  0  0  0
    8.1816  -13.6732   26.6897 C   0  0  0  0  0  0  0  0  0  0  0  0
    7.5359  -14.6571   25.9319 C   0  0  0  0  0  0  0  0  0  0  0  0
    8.2383  -15.8802   25.5462 C   0  0  0  0  0  0  0  0  0  0  0  0
    9.6286  -15.6610   24.9774 C   0  0  2  0  0  0  0  0  0  0  0  0
    9.4597  -15.7745   23.5120 N   0  0  0  0  0  0  0  0  0  0  0  0
   10.5103  -16.7584   25.4474 C   0  0  0  0  0  0  0  0  0  0  0  0
   11.1705  -16.7625   26.6657 O   0  0  0  0  0  0  0  0  0  0  0  0
    6.2413  -14.4168   25.5700 C   0  0  0  0  0  0  0  0  0  0  0  0
    5.5702  -13.2533   25.9268 C   0  0  0  0  0  0  0  0  0  0  0  0
   10.6705  -17.7496   24.6935 O   0  0  0  0  0  0  0  0  0  0  0  0
  2  1  1  0
  2  3  2  0
  4  2  1  0
  5  4  1  0
  5  6  1  6
  7  5  1  0
  7  8  2  0
 10  9  1  0
 11 10  1  1
 11 12  1  0
 12  7  1  0
 13 22  1  0
 13 11  1  0
 14 13  2  0
 16 15  1  0
 16 26  2  0
 17 16  1  0
 18 17  2  0
 18 19  1  0
 19 20  1  0
 19 25  2  0
 21 20  1  1
 21 22  1  0
 21 23  1  0
 23 27  2  0
 23 24  1  0
 25 26  1  0
M  END
$$$$
