NSY.pdb
     RDKit          3D

 27 27  0  0  1  0  0  0  0  0999 V2000
   10.3012  -18.3683   15.6615 N   0  0  0  0  0  0  0  0  0  0  0  0
   11.0968  -17.4026   16.3780 C   0  0  0  0  0  0  0  0  0  0  0  0
   12.3197  -17.4563   16.1405 O   0  0  0  0  0  0  0  0  0  0  0  0
   10.4986  -16.4482   17.3039 C   0  0  0  0  0  0  0  0  0  0  0  0
    9.0232  -16.5675   17.5616 C   0  0  2  0  0  0  0  0  0  0  0  0
    8.3496  -16.1157   16.3339 N   0  0  0  0  0  0  0  0  0  0  0  0
    8.5269  -15.8040   18.7233 C   0  0  0  0  0  0  0  0  0  0  0  0
    7.8938  -14.7481   18.5373 O   0  0  0  0  0  0  0  0  0  0  0  0
    6.2393  -16.8991   21.1082 O   0  0  0  0  0  0  0  0  0  0  0  0
    6.6331  -15.5733   20.9490 C   0  0  0  0  0  0  0  0  0  0  0  0
    8.1365  -15.5184   21.1406 C   0  0  2  0  0  0  0  0  0  0  0  0
    8.7531  -16.2417   20.0719 N   0  0  0  0  0  0  0  0  0  0  0  0
    8.4907  -16.0624   22.4752 C   0  0  0  0  0  0  0  0  0  0  0  0
    8.7388  -17.2778   22.6869 O   0  0  0  0  0  0  0  0  0  0  0  0
   10.4962  -15.4519   31.1571 O   0  0  0  0  0  0  0  0  0  0  0  0
   10.0988  -15.2477   29.8393 C   0  0  0  0  0  0  0  0  0  0  0  0
    9.5315  -14.0314   29.4946 C   0  0  0  0  0  0  0  0  0  0  0  0
    9.1289  -13.8004   28.2015 C   0  0  0  0  0  0  0  0  0  0  0  0
    9.2795  -14.7762   27.2093 C   0  0  0  0  0  0  0  0  0  0  0  0
    8.8390  -14.5187   25.8390 C   0  0  0  0  0  0  0  0  0  0  0  0
    8.9507  -15.7082   24.9025 C   0  0  2  0  0  0  0  0  0  0  0  0
    8.5589  -15.1832   23.5760 N   0  0  0  0  0  0  0  0  0  0  0  0
    7.9665  -16.7359   25.3240 C   0  0  0  0  0  0  0  0  0  0  0  0
    6.6157  -16.6961   25.0176 O   0  0  0  0  0  0  0  0  0  0  0  0
    9.8416  -15.9637   27.5818 C   0  0  0  0  0  0  0  0  0  0  0  0
   10.2556  -16.2176   28.8839 C   0  0  0  0  0  0  0  0  0  0  0  0
    8.3823  -17.7066   26.0033 O   0  0  0  0  0  0  0  0  0  0  0  0
  2  1  1  0
  2  3  2  0
  4  2  1  0
  5  4  1  0
  5  6  1  6
  7  5  1  0
  7  8  2  0
 10  9  1  0
 11 10  1  6
 11 12  1  0
 12  7  1  0
 13 22  1  0
 13 11  1  0
 14 13  2  0
 16 15  1  0
 16 26  2  0
 17 16  1  0
 18 17  2  0
 18 19  1  0
 19 20  1  0
 19 25  2  0
 21 20  1  1
 21 22  1  0
 21 23  1  0
 23 27  2  0
 23 24  1  0
 25 26  1  0
M  END
$$$$
