NSY.pdb
     RDKit          3D

 27 27  0  0  1  0  0  0  0  0999 V2000
   10.6093  -20.7023   17.1124 N   0  0  0  0  0  0  0  0  0  0  0  0
   10.5921  -20.9090   18.5392 C   0  0  0  0  0  0  0  0  0  0  0  0
   10.9589  -22.0431   18.9056 O   0  0  0  0  0  0  0  0  0  0  0  0
   10.1737  -19.8616   19.4633 C   0  0  0  0  0  0  0  0  0  0  0  0
    9.5877  -18.6113   18.8709 C   0  0  2  0  0  0  0  0  0  0  0  0
   10.4641  -18.2322   17.7515 N   0  0  0  0  0  0  0  0  0  0  0  0
    9.4454  -17.4811   19.8095 C   0  0  0  0  0  0  0  0  0  0  0  0
   10.4356  -16.7724   20.0698 O   0  0  0  0  0  0  0  0  0  0  0  0
    5.8898  -16.4530   21.9389 O   0  0  0  0  0  0  0  0  0  0  0  0
    6.7850  -15.5146   21.4325 C   0  0  0  0  0  0  0  0  0  0  0  0
    8.1625  -16.1489   21.4395 C   0  0  2  0  0  0  0  0  0  0  0  0
    8.1928  -17.1700   20.4385 N   0  0  0  0  0  0  0  0  0  0  0  0
    8.4656  -16.6713   22.7951 C   0  0  0  0  0  0  0  0  0  0  0  0
    7.8641  -17.6469   23.3147 O   0  0  0  0  0  0  0  0  0  0  0  0
    5.9364  -11.0737   28.4245 O   0  0  0  0  0  0  0  0  0  0  0  0
    6.4460  -11.8661   27.4004 C   0  0  0  0  0  0  0  0  0  0  0  0
    7.8188  -12.0254   27.3006 C   0  0  0  0  0  0  0  0  0  0  0  0
    8.3517  -12.8014   26.2998 C   0  0  0  0  0  0  0  0  0  0  0  0
    7.5314  -13.4443   25.3654 C   0  0  0  0  0  0  0  0  0  0  0  0
    8.1134  -14.2607   24.3009 C   0  0  0  0  0  0  0  0  0  0  0  0
    9.1184  -15.2960   24.7728 C   0  0  2  0  0  0  0  0  0  0  0  0
    9.4809  -16.0536   23.5549 N   0  0  0  0  0  0  0  0  0  0  0  0
    8.4426  -16.2107   25.7262 C   0  0  0  0  0  0  0  0  0  0  0  0
    7.3089  -16.9501   25.4293 O   0  0  0  0  0  0  0  0  0  0  0  0
    6.1833  -13.2666   25.4914 C   0  0  0  0  0  0  0  0  0  0  0  0
    5.6240  -12.4862   26.4960 C   0  0  0  0  0  0  0  0  0  0  0  0
    8.9278  -16.3240   26.8788 O   0  0  0  0  0  0  0  0  0  0  0  0
  2  1  1  0
  2  3  2  0
  4  2  1  0
  5  4  1  0
  5  6  1  6
  7  5  1  0
  7  8  2  0
 10  9  1  0
 11 10  1  1
 11 12  1  0
 12  7  1  0
 13 22  1  0
 13 11  1  0
 14 13  2  0
 16 15  1  0
 16 26  2  0
 17 16  1  0
 18 17  2  0
 18 19  1  0
 19 20  1  0
 19 25  2  0
 21 20  1  6
 21 22  1  0
 21 23  1  0
 23 27  2  0
 23 24  1  0
 25 26  1  0
M  END
$$$$
