NSY.pdb
     RDKit          3D

 27 27  0  0  1  0  0  0  0  0999 V2000
    9.4804  -19.4468   15.4629 N   0  0  0  0  0  0  0  0  0  0  0  0
   10.7943  -19.5585   16.0461 C   0  0  0  0  0  0  0  0  0  0  0  0
   11.6260  -20.1665   15.3436 O   0  0  0  0  0  0  0  0  0  0  0  0
   11.1046  -18.9986   17.3562 C   0  0  0  0  0  0  0  0  0  0  0  0
   11.9006  -19.8529   18.3017 C   0  0  2  0  0  0  0  0  0  0  0  0
   11.4578  -21.2387   18.0818 N   0  0  0  0  0  0  0  0  0  0  0  0
   11.7684  -19.4981   19.7284 C   0  0  0  0  0  0  0  0  0  0  0  0
   12.0759  -18.3520   20.1057 O   0  0  0  0  0  0  0  0  0  0  0  0
    9.2213  -21.2852   22.0579 O   0  0  0  0  0  0  0  0  0  0  0  0
    9.7409  -20.0647   22.4806 C   0  0  0  0  0  0  0  0  0  0  0  0
   11.2000  -20.0235   22.0689 C   0  0  2  0  0  0  0  0  0  0  0  0
   11.2942  -20.4391   20.7036 N   0  0  0  0  0  0  0  0  0  0  0  0
   12.0011  -20.8776   22.9807 C   0  0  0  0  0  0  0  0  0  0  0  0
   12.2805  -22.0807   22.7397 O   0  0  0  0  0  0  0  0  0  0  0  0
   18.9062  -23.9748   24.3098 O   0  0  0  0  0  0  0  0  0  0  0  0
   17.8229  -23.1331   24.5429 C   0  0  0  0  0  0  0  0  0  0  0  0
   17.5436  -22.7508   25.8452 C   0  0  0  0  0  0  0  0  0  0  0  0
   16.4805  -21.9208   26.1068 C   0  0  0  0  0  0  0  0  0  0  0  0
   15.6608  -21.4447   25.0768 C   0  0  0  0  0  0  0  0  0  0  0  0
   14.5281  -20.5683   25.3715 C   0  0  0  0  0  0  0  0  0  0  0  0
   13.1644  -21.2025   25.1646 C   0  0  2  0  0  0  0  0  0  0  0  0
   12.4846  -20.3263   24.1855 N   0  0  0  0  0  0  0  0  0  0  0  0
   12.4222  -21.1573   26.4489 C   0  0  0  0  0  0  0  0  0  0  0  0
   12.5351  -22.1084   27.4503 O   0  0  0  0  0  0  0  0  0  0  0  0
   15.9629  -21.8405   23.8052 C   0  0  0  0  0  0  0  0  0  0  0  0
   17.0334  -22.6791   23.5190 C   0  0  0  0  0  0  0  0  0  0  0  0
   11.6393  -20.1951   26.6436 O   0  0  0  0  0  0  0  0  0  0  0  0
  2  1  1  0
  2  3  2  0
  4  2  1  0
  5  4  1  0
  5  6  1  1
  7  5  1  0
  7  8  2  0
 10  9  1  0
 11 10  1  1
 11 12  1  0
 12  7  1  0
 13 22  1  0
 13 11  1  0
 14 13  2  0
 16 15  1  0
 16 26  2  0
 17 16  1  0
 18 17  2  0
 18 19  1  0
 19 20  1  0
 19 25  2  0
 21 20  1  1
 21 22  1  0
 21 23  1  0
 23 27  2  0
 23 24  1  0
 25 26  1  0
M  END
$$$$
