NSY.pdb
     RDKit          3D

 27 27  0  0  1  0  0  0  0  0999 V2000
    8.2627  -17.1322   15.4813 N   0  0  0  0  0  0  0  0  0  0  0  0
    8.0916  -16.3283   16.6660 C   0  0  0  0  0  0  0  0  0  0  0  0
    8.4937  -15.1527   16.5602 O   0  0  0  0  0  0  0  0  0  0  0  0
    7.4945  -16.8676   17.8819 C   0  0  0  0  0  0  0  0  0  0  0  0
    7.5819  -16.0287   19.1254 C   0  0  2  0  0  0  0  0  0  0  0  0
    8.9905  -15.6233   19.2543 N   0  0  0  0  0  0  0  0  0  0  0  0
    7.1299  -16.6945   20.3628 C   0  0  0  0  0  0  0  0  0  0  0  0
    6.1323  -17.4387   20.3288 O   0  0  0  0  0  0  0  0  0  0  0  0
    9.8799  -19.4305   21.8279 O   0  0  0  0  0  0  0  0  0  0  0  0
    9.4195  -18.2400   21.2719 C   0  0  0  0  0  0  0  0  0  0  0  0
    8.4161  -17.6432   22.2398 C   0  0  2  0  0  0  0  0  0  0  0  0
    7.8076  -16.5096   21.6150 N   0  0  0  0  0  0  0  0  0  0  0  0
    9.0950  -17.2955   23.5129 C   0  0  0  0  0  0  0  0  0  0  0  0
    9.6821  -18.1380   24.2403 O   0  0  0  0  0  0  0  0  0  0  0  0
    5.0050  -12.0612   26.6554 O   0  0  0  0  0  0  0  0  0  0  0  0
    6.2520  -12.5196   26.2417 C   0  0  0  0  0  0  0  0  0  0  0  0
    6.3413  -13.2307   25.0557 C   0  0  0  0  0  0  0  0  0  0  0  0
    7.5587  -13.6965   24.6215 C   0  0  0  0  0  0  0  0  0  0  0  0
    8.7275  -13.4678   25.3568 C   0  0  0  0  0  0  0  0  0  0  0  0
   10.0149  -13.9766   24.8859 C   0  0  0  0  0  0  0  0  0  0  0  0
   10.1371  -15.4898   24.8848 C   0  0  2  0  0  0  0  0  0  0  0  0
    9.0929  -15.9527   23.9445 N   0  0  0  0  0  0  0  0  0  0  0  0
    9.8178  -15.9910   26.2446 C   0  0  0  0  0  0  0  0  0  0  0  0
    8.7342  -16.8011   26.5441 O   0  0  0  0  0  0  0  0  0  0  0  0
    8.6051  -12.7643   26.5209 C   0  0  0  0  0  0  0  0  0  0  0  0
    7.3836  -12.2843   26.9778 C   0  0  0  0  0  0  0  0  0  0  0  0
   10.5777  -15.6606   27.1880 O   0  0  0  0  0  0  0  0  0  0  0  0
  2  1  1  0
  2  3  2  0
  4  2  1  0
  5  4  1  0
  5  6  1  1
  7  5  1  0
  7  8  2  0
 10  9  1  0
 11 10  1  6
 11 12  1  0
 12  7  1  0
 13 22  1  0
 13 11  1  0
 14 13  2  0
 16 15  1  0
 16 26  2  0
 17 16  1  0
 18 17  2  0
 18 19  1  0
 19 20  1  0
 19 25  2  0
 21 20  1  1
 21 22  1  0
 21 23  1  0
 23 27  2  0
 23 24  1  0
 25 26  1  0
M  END
$$$$
