NSY.pdb
     RDKit          3D

 27 27  0  0  1  0  0  0  0  0999 V2000
   10.8473  -18.0723   15.8165 N   0  0  0  0  0  0  0  0  0  0  0  0
   11.3761  -17.5289   17.0430 C   0  0  0  0  0  0  0  0  0  0  0  0
   12.1792  -18.2736   17.6390 O   0  0  0  0  0  0  0  0  0  0  0  0
   10.9879  -16.2108   17.5307 C   0  0  0  0  0  0  0  0  0  0  0  0
    9.5220  -15.9556   17.7396 C   0  0  2  0  0  0  0  0  0  0  0  0
    9.0488  -15.2481   16.5394 N   0  0  0  0  0  0  0  0  0  0  0  0
    9.1878  -15.1805   18.9505 C   0  0  0  0  0  0  0  0  0  0  0  0
    8.7682  -14.0139   18.8348 O   0  0  0  0  0  0  0  0  0  0  0  0
    6.7067  -16.2436   21.5105 O   0  0  0  0  0  0  0  0  0  0  0  0
    7.2252  -15.0085   21.1310 C   0  0  0  0  0  0  0  0  0  0  0  0
    8.7225  -15.0505   21.3680 C   0  0  2  0  0  0  0  0  0  0  0  0
    9.3331  -15.7315   20.2684 N   0  0  0  0  0  0  0  0  0  0  0  0
    9.0046  -15.7043   22.6701 C   0  0  0  0  0  0  0  0  0  0  0  0
    8.6436  -16.8764   22.9522 O   0  0  0  0  0  0  0  0  0  0  0  0
    5.5176  -10.8727   26.8411 O   0  0  0  0  0  0  0  0  0  0  0  0
    6.2061  -12.0263   26.4784 C   0  0  0  0  0  0  0  0  0  0  0  0
    5.5018  -13.2137   26.3596 C   0  0  0  0  0  0  0  0  0  0  0  0
    6.1541  -14.3692   26.0035 C   0  0  0  0  0  0  0  0  0  0  0  0
    7.5314  -14.3776   25.7540 C   0  0  0  0  0  0  0  0  0  0  0  0
    8.2134  -15.6170   25.3835 C   0  0  0  0  0  0  0  0  0  0  0  0
    9.6874  -15.4572   25.0578 C   0  0  2  0  0  0  0  0  0  0  0  0
    9.7160  -14.9880   23.6551 N   0  0  0  0  0  0  0  0  0  0  0  0
   10.3356  -16.7900   25.1336 C   0  0  0  0  0  0  0  0  0  0  0  0
   10.6858  -17.5522   24.0306 O   0  0  0  0  0  0  0  0  0  0  0  0
    8.1959  -13.1913   25.8802 C   0  0  0  0  0  0  0  0  0  0  0  0
    7.5553  -12.0115   26.2391 C   0  0  0  0  0  0  0  0  0  0  0  0
   10.5841  -17.2607   26.2708 O   0  0  0  0  0  0  0  0  0  0  0  0
  2  1  1  0
  2  3  2  0
  4  2  1  0
  5  4  1  0
  5  6  1  6
  7  5  1  0
  7  8  2  0
 10  9  1  0
 11 10  1  6
 11 12  1  0
 12  7  1  0
 13 22  1  0
 13 11  1  0
 14 13  2  0
 16 15  1  0
 16 26  2  0
 17 16  1  0
 18 17  2  0
 18 19  1  0
 19 20  1  0
 19 25  2  0
 21 20  1  6
 21 22  1  0
 21 23  1  0
 23 27  2  0
 23 24  1  0
 25 26  1  0
M  END
$$$$
