NSY.pdb
     RDKit          3D

 27 27  0  0  1  0  0  0  0  0999 V2000
    8.4208  -12.3109   17.8065 N   0  0  0  0  0  0  0  0  0  0  0  0
    7.5851  -13.4787   17.6765 C   0  0  0  0  0  0  0  0  0  0  0  0
    6.9512  -13.5488   16.6050 O   0  0  0  0  0  0  0  0  0  0  0  0
    7.5013  -14.4855   18.7277 C   0  0  0  0  0  0  0  0  0  0  0  0
    8.2693  -14.2285   19.9933 C   0  0  2  0  0  0  0  0  0  0  0  0
    9.6947  -14.2826   19.6321 N   0  0  0  0  0  0  0  0  0  0  0  0
    7.9894  -15.1677   21.0971 C   0  0  0  0  0  0  0  0  0  0  0  0
    6.8771  -15.1420   21.6562 O   0  0  0  0  0  0  0  0  0  0  0  0
   10.4677  -18.2514   22.0013 O   0  0  0  0  0  0  0  0  0  0  0  0
    9.1420  -18.3371   22.4178 C   0  0  0  0  0  0  0  0  0  0  0  0
    8.6579  -16.9260   22.6905 C   0  0  2  0  0  0  0  0  0  0  0  0
    8.9659  -16.1167   21.5521 N   0  0  0  0  0  0  0  0  0  0  0  0
    9.2808  -16.4158   23.9372 C   0  0  0  0  0  0  0  0  0  0  0  0
   10.3380  -15.7334   23.9572 O   0  0  0  0  0  0  0  0  0  0  0  0
    6.1561  -10.7202   25.4014 O   0  0  0  0  0  0  0  0  0  0  0  0
    6.6807  -11.9248   25.8599 C   0  0  0  0  0  0  0  0  0  0  0  0
    5.8598  -13.0406   25.8916 C   0  0  0  0  0  0  0  0  0  0  0  0
    6.3491  -14.2437   26.3396 C   0  0  0  0  0  0  0  0  0  0  0  0
    7.6746  -14.3728   26.7706 C   0  0  0  0  0  0  0  0  0  0  0  0
    8.1791  -15.6580   27.2522 C   0  0  0  0  0  0  0  0  0  0  0  0
    9.3097  -16.2454   26.4269 C   0  0  2  0  0  0  0  0  0  0  0  0
    8.6668  -16.7006   25.1746 N   0  0  0  0  0  0  0  0  0  0  0  0
    9.8559  -17.4241   27.1444 C   0  0  0  0  0  0  0  0  0  0  0  0
    9.7251  -18.7332   26.7091 O   0  0  0  0  0  0  0  0  0  0  0  0
    8.4569  -13.2543   26.7270 C   0  0  0  0  0  0  0  0  0  0  0  0
    7.9818  -12.0282   26.2775 C   0  0  0  0  0  0  0  0  0  0  0  0
   10.4778  -17.2252   28.2168 O   0  0  0  0  0  0  0  0  0  0  0  0
  2  1  1  0
  2  3  2  0
  4  2  1  0
  5  4  1  0
  5  6  1  6
  7  5  1  0
  7  8  2  0
 10  9  1  0
 11 10  1  6
 11 12  1  0
 12  7  1  0
 13 22  1  0
 13 11  1  0
 14 13  2  0
 16 15  1  0
 16 26  2  0
 17 16  1  0
 18 17  2  0
 18 19  1  0
 19 20  1  0
 19 25  2  0
 21 20  1  1
 21 22  1  0
 21 23  1  0
 23 27  2  0
 23 24  1  0
 25 26  1  0
M  END
$$$$
