NSY.pdb
     RDKit          3D

 27 27  0  0  1  0  0  0  0  0999 V2000
    9.7829  -16.4522   13.3035 N   0  0  0  0  0  0  0  0  0  0  0  0
    8.4579  -16.6196   13.8468 C   0  0  0  0  0  0  0  0  0  0  0  0
    7.5335  -16.4460   13.0282 O   0  0  0  0  0  0  0  0  0  0  0  0
    8.2382  -16.9637   15.2466 C   0  0  0  0  0  0  0  0  0  0  0  0
    9.4487  -17.0678   16.1306 C   0  0  2  0  0  0  0  0  0  0  0  0
   10.2023  -18.2429   15.6656 N   0  0  0  0  0  0  0  0  0  0  0  0
    9.1618  -17.1873   17.5735 C   0  0  0  0  0  0  0  0  0  0  0  0
    8.4718  -16.3161   18.1352 O   0  0  0  0  0  0  0  0  0  0  0  0
   10.8331  -20.1280   19.8208 O   0  0  0  0  0  0  0  0  0  0  0  0
    9.5493  -19.7713   20.2244 C   0  0  0  0  0  0  0  0  0  0  0  0
    9.2959  -18.3568   19.7396 C   0  0  2  0  0  0  0  0  0  0  0  0
    9.6572  -18.2833   18.3576 N   0  0  0  0  0  0  0  0  0  0  0  0
   10.0556  -17.3969   20.5786 C   0  0  0  0  0  0  0  0  0  0  0  0
   11.2021  -16.9709   20.2826 O   0  0  0  0  0  0  0  0  0  0  0  0
    7.6137  -12.3678   17.8260 O   0  0  0  0  0  0  0  0  0  0  0  0
    8.0282  -12.9485   19.0207 C   0  0  0  0  0  0  0  0  0  0  0  0
    7.0999  -13.6370   19.7849 C   0  0  0  0  0  0  0  0  0  0  0  0
    7.4792  -14.2207   20.9694 C   0  0  0  0  0  0  0  0  0  0  0  0
    8.7983  -14.1365   21.4302 C   0  0  0  0  0  0  0  0  0  0  0  0
    9.1853  -14.7561   22.6969 C   0  0  0  0  0  0  0  0  0  0  0  0
   10.1806  -15.8952   22.5680 C   0  0  2  0  0  0  0  0  0  0  0  0
    9.4752  -16.9256   21.7746 N   0  0  0  0  0  0  0  0  0  0  0  0
   10.4584  -16.4358   23.9219 C   0  0  0  0  0  0  0  0  0  0  0  0
   11.3648  -15.8836   24.8127 O   0  0  0  0  0  0  0  0  0  0  0  0
    9.6881  -13.4507   20.6539 C   0  0  0  0  0  0  0  0  0  0  0  0
    9.3252  -12.8533   19.4528 C   0  0  0  0  0  0  0  0  0  0  0  0
    9.8324  -17.4613   24.2869 O   0  0  0  0  0  0  0  0  0  0  0  0
  2  1  1  0
  2  3  2  0
  4  2  1  0
  5  4  1  0
  5  6  1  6
  7  5  1  0
  7  8  2  0
 10  9  1  0
 11 10  1  1
 11 12  1  0
 12  7  1  0
 13 22  1  0
 13 11  1  0
 14 13  2  0
 16 15  1  0
 16 26  2  0
 17 16  1  0
 18 17  2  0
 18 19  1  0
 19 20  1  0
 19 25  2  0
 21 20  1  1
 21 22  1  0
 21 23  1  0
 23 27  2  0
 23 24  1  0
 25 26  1  0
M  END
$$$$
