HTE.pdb
     RDKit          3D

 27 27  0  0  1  0  0  0  0  0999 V2000
    9.1933  -17.0311   16.4686 N   0  0  0  0  0  0  0  0  0  0  0  0
    8.9221  -17.6979   17.7467 C   0  0  1  0  0  0  0  0  0  0  0  0
    9.8666  -18.8945   17.8036 C   0  0  0  0  0  0  0  0  0  0  0  0
    9.3938  -20.0092   16.9455 C   0  0  0  0  0  0  0  0  0  0  0  0
    8.2329  -20.1098   16.2092 C   0  0  0  0  0  0  0  0  0  0  0  0
    8.2202  -21.2919   15.5869 N   0  0  0  0  0  0  0  0  0  0  0  0
    9.3433  -21.9262   15.9186 C   0  0  0  0  0  0  0  0  0  0  0  0
   10.0648  -21.1505   16.7471 N   0  0  0  0  0  0  0  0  0  0  0  0
    9.3429  -16.7821   18.8399 C   0  0  0  0  0  0  0  0  0  0  0  0
   10.3833  -16.1185   18.6662 O   0  0  0  0  0  0  0  0  0  0  0  0
    7.1061  -14.0717   20.8490 C   0  0  0  0  0  0  0  0  0  0  0  0
    7.8489  -15.0310   21.7832 C   0  0  1  0  0  0  0  0  0  0  0  0
    6.9849  -15.8608   22.4547 O   0  0  0  0  0  0  0  0  0  0  0  0
    8.9825  -15.7071   21.1053 C   0  0  2  0  0  0  0  0  0  0  0  0
    8.6573  -16.6103   20.0489 N   0  0  0  0  0  0  0  0  0  0  0  0
    9.8417  -16.3815   22.1311 C   0  0  0  0  0  0  0  0  0  0  0  0
    9.7535  -17.6341   22.2784 O   0  0  0  0  0  0  0  0  0  0  0  0
   10.7562  -15.6857   22.9524 N   0  0  0  0  0  0  0  0  0  0  0  0
   11.4764  -16.3191   24.0459 C   0  0  1  0  0  0  0  0  0  0  0  0
   12.8909  -15.8832   24.0855 C   0  0  0  0  0  0  0  0  0  0  0  0
   13.7594  -16.3091   22.9592 C   0  0  0  0  0  0  0  0  0  0  0  0
   15.1446  -15.9189   22.9339 C   0  0  0  0  0  0  0  0  0  0  0  0
   15.6795  -15.0631   22.2148 O   0  0  0  0  0  0  0  0  0  0  0  0
   10.6935  -16.2689   25.2627 C   0  0  0  0  0  0  0  0  0  0  0  0
   11.0905  -16.9131   26.3000 O   0  0  0  0  0  0  0  0  0  0  0  0
   16.0390  -16.5695   23.8257 O   0  0  0  0  0  0  0  0  0  0  0  0
    9.5117  -15.5387   25.3483 O   0  0  0  0  0  0  0  0  0  0  0  0
  2  9  1  0
  2  1  1  6
  3  2  1  0
  4  8  1  0
  4  3  1  0
  5  4  2  0
  6  5  1  0
  6  7  1  0
  7  8  2  0
  9 10  2  0
 12 11  1  6
 13 12  1  0
 14 12  1  0
 15  9  1  0
 14 15  1  6
 16 17  2  0
 16 14  1  0
 18 16  1  0
 19 18  1  0
 19 20  1  1
 21 20  1  0
 22 21  1  0
 22 23  2  0
 24 19  1  0
 24 27  1  0
 25 24  2  0
 26 22  1  0
M  END
$$$$
