HTE.pdb
     RDKit          3D

 27 27  0  0  1  0  0  0  0  0999 V2000
   13.4554  -13.3678   16.1762 N   0  0  0  0  0  0  0  0  0  0  0  0
   12.5068  -14.4272   16.5364 C   0  0  1  0  0  0  0  0  0  0  0  0
   13.3205  -15.7163   16.5937 C   0  0  0  0  0  0  0  0  0  0  0  0
   13.7006  -16.1870   15.2386 C   0  0  0  0  0  0  0  0  0  0  0  0
   13.2651  -15.7434   14.0083 C   0  0  0  0  0  0  0  0  0  0  0  0
   13.8737  -16.4549   13.0553 N   0  0  0  0  0  0  0  0  0  0  0  0
   14.6750  -17.3278   13.6635 C   0  0  0  0  0  0  0  0  0  0  0  0
   14.5752  -17.1709   14.9954 N   0  0  0  0  0  0  0  0  0  0  0  0
   12.0363  -14.1690   17.9230 C   0  0  0  0  0  0  0  0  0  0  0  0
   12.8517  -13.6734   18.7245 O   0  0  0  0  0  0  0  0  0  0  0  0
    8.4560  -12.5648   18.9896 C   0  0  0  0  0  0  0  0  0  0  0  0
    8.7931  -13.8231   19.7945 C   0  0  1  0  0  0  0  0  0  0  0  0
    7.9141  -14.8458   19.5349 O   0  0  0  0  0  0  0  0  0  0  0  0
   10.2304  -14.1801   19.6995 C   0  0  2  0  0  0  0  0  0  0  0  0
   10.7459  -14.4414   18.3944 N   0  0  0  0  0  0  0  0  0  0  0  0
   10.5174  -15.3269   20.6203 C   0  0  0  0  0  0  0  0  0  0  0  0
   10.9013  -16.4271   20.1295 O   0  0  0  0  0  0  0  0  0  0  0  0
   10.3812  -15.2449   22.0237 N   0  0  0  0  0  0  0  0  0  0  0  0
   11.2797  -15.9220   22.9456 C   0  0  1  0  0  0  0  0  0  0  0  0
   12.6936  -15.7659   22.5347 C   0  0  0  0  0  0  0  0  0  0  0  0
   13.7205  -16.4032   23.3971 C   0  0  0  0  0  0  0  0  0  0  0  0
   15.1125  -16.3113   23.0428 C   0  0  0  0  0  0  0  0  0  0  0  0
   16.0160  -15.7281   23.6587 O   0  0  0  0  0  0  0  0  0  0  0  0
   10.9119  -15.6306   24.3153 C   0  0  0  0  0  0  0  0  0  0  0  0
   11.4191  -16.3235   25.2698 O   0  0  0  0  0  0  0  0  0  0  0  0
   15.5429  -16.9531   21.8506 O   0  0  0  0  0  0  0  0  0  0  0  0
   10.0172  -14.6142   24.6371 O   0  0  0  0  0  0  0  0  0  0  0  0
  2  9  1  0
  2  1  1  1
  3  2  1  0
  4  8  1  0
  4  3  1  0
  5  4  2  0
  6  5  1  0
  6  7  1  0
  7  8  2  0
  9 10  2  0
 12 11  1  6
 13 12  1  0
 14 12  1  0
 15  9  1  0
 14 15  1  6
 16 17  2  0
 16 14  1  0
 18 16  1  0
 19 18  1  0
 19 20  1  6
 21 20  1  0
 22 21  1  0
 22 23  2  0
 24 19  1  0
 24 27  1  0
 25 24  2  0
 26 22  1  0
M  END
$$$$
