HTE.pdb
     RDKit          3D

 27 27  0  0  1  0  0  0  0  0999 V2000
   11.5021  -15.8233   13.5452 N   0  0  0  0  0  0  0  0  0  0  0  0
   10.8668  -16.4889   14.6876 C   0  0  1  0  0  0  0  0  0  0  0  0
   11.7261  -17.7124   14.9907 C   0  0  0  0  0  0  0  0  0  0  0  0
   11.4818  -18.8092   14.0213 C   0  0  0  0  0  0  0  0  0  0  0  0
   11.0433  -20.0953   14.2532 C   0  0  0  0  0  0  0  0  0  0  0  0
   10.9661  -20.7397   13.0855 N   0  0  0  0  0  0  0  0  0  0  0  0
   11.3455  -19.8862   12.1362 C   0  0  0  0  0  0  0  0  0  0  0  0
   11.6618  -18.7063   12.6987 N   0  0  0  0  0  0  0  0  0  0  0  0
   10.9886  -15.5913   15.8668 C   0  0  0  0  0  0  0  0  0  0  0  0
   12.0961  -15.0584   16.0724 O   0  0  0  0  0  0  0  0  0  0  0  0
    8.9019  -12.8970   19.5322 C   0  0  0  0  0  0  0  0  0  0  0  0
    8.7121  -13.9255   18.4138 C   0  0  1  0  0  0  0  0  0  0  0  0
    7.8265  -13.4858   17.4608 O   0  0  0  0  0  0  0  0  0  0  0  0
   10.0062  -14.4326   17.8940 C   0  0  2  0  0  0  0  0  0  0  0  0
    9.9519  -15.3009   16.7625 N   0  0  0  0  0  0  0  0  0  0  0  0
   10.7734  -15.0696   19.0124 C   0  0  0  0  0  0  0  0  0  0  0  0
   10.5619  -16.2854   19.2876 O   0  0  0  0  0  0  0  0  0  0  0  0
   11.7321  -14.3778   19.7852 N   0  0  0  0  0  0  0  0  0  0  0  0
   12.6324  -15.0467   20.7112 C   0  0  1  0  0  0  0  0  0  0  0  0
   13.9735  -14.4190   20.7095 C   0  0  0  0  0  0  0  0  0  0  0  0
   15.0048  -15.0298   21.5856 C   0  0  0  0  0  0  0  0  0  0  0  0
   16.3375  -14.4865   21.6116 C   0  0  0  0  0  0  0  0  0  0  0  0
   17.1773  -14.5782   22.5182 O   0  0  0  0  0  0  0  0  0  0  0  0
   11.9711  -15.2828   21.9773 C   0  0  0  0  0  0  0  0  0  0  0  0
   11.0264  -14.5001   22.3557 O   0  0  0  0  0  0  0  0  0  0  0  0
   16.7815  -13.7498   20.4809 O   0  0  0  0  0  0  0  0  0  0  0  0
   12.3281  -16.3407   22.8084 O   0  0  0  0  0  0  0  0  0  0  0  0
  2  9  1  0
  2  1  1  6
  3  2  1  0
  4  8  1  0
  4  3  1  0
  5  4  2  0
  6  5  1  0
  6  7  1  0
  7  8  2  0
  9 10  2  0
 12 11  1  1
 13 12  1  0
 14 12  1  0
 15  9  1  0
 14 15  1  6
 16 17  2  0
 16 14  1  0
 18 16  1  0
 19 18  1  0
 19 20  1  1
 21 20  1  0
 22 21  1  0
 22 23  2  0
 24 19  1  0
 24 27  1  0
 25 24  2  0
 26 22  1  0
M  END
$$$$
