HTE.pdb
     RDKit          3D

 27 27  0  0  1  0  0  0  0  0999 V2000
    5.7010  -15.8589   25.0892 N   0  0  0  0  0  0  0  0  0  0  0  0
    6.9113  -15.2317   24.5474 C   0  0  1  0  0  0  0  0  0  0  0  0
    7.6470  -14.6374   25.7444 C   0  0  0  0  0  0  0  0  0  0  0  0
    6.9649  -13.4254   26.2623 C   0  0  0  0  0  0  0  0  0  0  0  0
    5.7958  -12.8337   25.8341 C   0  0  0  0  0  0  0  0  0  0  0  0
    5.5563  -11.7592   26.5910 N   0  0  0  0  0  0  0  0  0  0  0  0
    6.5467  -11.6699   27.4769 C   0  0  0  0  0  0  0  0  0  0  0  0
    7.4102  -12.6826   27.2831 N   0  0  0  0  0  0  0  0  0  0  0  0
    7.7860  -16.3090   24.0133 C   0  0  0  0  0  0  0  0  0  0  0  0
    7.2464  -17.3900   23.7079 O   0  0  0  0  0  0  0  0  0  0  0  0
    7.9833  -16.5705   21.1549 C   0  0  0  0  0  0  0  0  0  0  0  0
    9.4709  -16.2761   21.3667 C   0  0  1  0  0  0  0  0  0  0  0  0
    9.7979  -14.9982   20.9847 O   0  0  0  0  0  0  0  0  0  0  0  0
    9.9333  -16.6736   22.7196 C   0  0  2  0  0  0  0  0  0  0  0  0
    9.1698  -16.1988   23.8282 N   0  0  0  0  0  0  0  0  0  0  0  0
   11.3775  -16.3064   22.8768 C   0  0  0  0  0  0  0  0  0  0  0  0
   11.6976  -15.0847   22.9353 O   0  0  0  0  0  0  0  0  0  0  0  0
   12.4135  -17.2624   22.9648 N   0  0  0  0  0  0  0  0  0  0  0  0
   13.6662  -17.0083   23.6587 C   0  0  1  0  0  0  0  0  0  0  0  0
   14.1323  -18.2088   24.3894 C   0  0  0  0  0  0  0  0  0  0  0  0
   13.1116  -18.9744   25.1486 C   0  0  0  0  0  0  0  0  0  0  0  0
   13.2185  -19.0897   26.5793 C   0  0  0  0  0  0  0  0  0  0  0  0
   14.0599  -18.5652   27.3227 O   0  0  0  0  0  0  0  0  0  0  0  0
   14.5929  -16.3131   22.7903 C   0  0  0  0  0  0  0  0  0  0  0  0
   14.3552  -16.2482   21.5302 O   0  0  0  0  0  0  0  0  0  0  0  0
   12.2632  -19.8923   27.2588 O   0  0  0  0  0  0  0  0  0  0  0  0
   15.7460  -15.7060   23.2792 O   0  0  0  0  0  0  0  0  0  0  0  0
  2  9  1  0
  2  1  1  1
  3  2  1  0
  4  8  1  0
  4  3  1  0
  5  4  2  0
  6  5  1  0
  6  7  1  0
  7  8  2  0
  9 10  2  0
 12 11  1  1
 13 12  1  0
 14 12  1  0
 15  9  1  0
 14 15  1  1
 16 17  2  0
 16 14  1  0
 18 16  1  0
 19 18  1  0
 19 20  1  6
 21 20  1  0
 22 21  1  0
 22 23  2  0
 24 19  1  0
 24 27  1  0
 25 24  2  0
 26 22  1  0
M  END
$$$$
