HTE.pdb
     RDKit          3D

 27 27  0  0  1  0  0  0  0  0999 V2000
   10.4490  -14.7819   15.3244 N   0  0  0  0  0  0  0  0  0  0  0  0
   11.3018  -15.4243   16.3304 C   0  0  1  0  0  0  0  0  0  0  0  0
   12.7347  -15.2532   15.8358 C   0  0  0  0  0  0  0  0  0  0  0  0
   13.0325  -16.1515   14.6927 C   0  0  0  0  0  0  0  0  0  0  0  0
   13.6942  -17.3607   14.6842 C   0  0  0  0  0  0  0  0  0  0  0  0
   13.7325  -17.8204   13.4305 N   0  0  0  0  0  0  0  0  0  0  0  0
   13.1117  -16.9273   12.6620 C   0  0  0  0  0  0  0  0  0  0  0  0
   12.6818  -15.9062   13.4242 N   0  0  0  0  0  0  0  0  0  0  0  0
   11.1982  -14.6385   17.5884 C   0  0  0  0  0  0  0  0  0  0  0  0
   11.1188  -13.3990   17.4878 O   0  0  0  0  0  0  0  0  0  0  0  0
    9.0751  -12.9552   18.9955 C   0  0  0  0  0  0  0  0  0  0  0  0
    9.2240  -14.1277   19.9690 C   0  0  1  0  0  0  0  0  0  0  0  0
    8.2805  -15.1001   19.7451 O   0  0  0  0  0  0  0  0  0  0  0  0
   10.6251  -14.6088   20.0558 C   0  0  2  0  0  0  0  0  0  0  0  0
   11.1832  -15.1878   18.8766 N   0  0  0  0  0  0  0  0  0  0  0  0
   10.7554  -15.5466   21.2173 C   0  0  0  0  0  0  0  0  0  0  0  0
   10.2011  -16.6813   21.1554 O   0  0  0  0  0  0  0  0  0  0  0  0
   11.4726  -15.2284   22.3917 N   0  0  0  0  0  0  0  0  0  0  0  0
   11.7556  -16.2033   23.4332 C   0  0  1  0  0  0  0  0  0  0  0  0
   13.2124  -16.4130   23.5957 C   0  0  0  0  0  0  0  0  0  0  0  0
   14.0883  -15.2279   23.4149 C   0  0  0  0  0  0  0  0  0  0  0  0
   15.5148  -15.3625   23.5515 C   0  0  0  0  0  0  0  0  0  0  0  0
   16.1551  -16.3746   23.8698 O   0  0  0  0  0  0  0  0  0  0  0  0
   10.9511  -15.9368   24.6070 C   0  0  0  0  0  0  0  0  0  0  0  0
   11.0124  -16.7327   25.6127 O   0  0  0  0  0  0  0  0  0  0  0  0
   16.3214  -14.2205   23.2995 O   0  0  0  0  0  0  0  0  0  0  0  0
   10.1034  -14.8356   24.6841 O   0  0  0  0  0  0  0  0  0  0  0  0
  2  9  1  0
  2  1  1  6
  3  2  1  0
  4  8  1  0
  4  3  1  0
  5  4  2  0
  6  5  1  0
  6  7  1  0
  7  8  2  0
  9 10  2  0
 12 11  1  6
 13 12  1  0
 14 12  1  0
 15  9  1  0
 14 15  1  6
 16 17  2  0
 16 14  1  0
 18 16  1  0
 19 18  1  0
 19 20  1  1
 21 20  1  0
 22 21  1  0
 22 23  2  0
 24 19  1  0
 24 27  1  0
 25 24  2  0
 26 22  1  0
M  END
$$$$
