HTE.pdb
     RDKit          3D

 27 27  0  0  1  0  0  0  0  0999 V2000
    5.0707  -19.6499   20.3825 N   0  0  0  0  0  0  0  0  0  0  0  0
    4.8931  -18.9207   21.6428 C   0  0  1  0  0  0  0  0  0  0  0  0
    4.0474  -19.8247   22.5343 C   0  0  0  0  0  0  0  0  0  0  0  0
    2.6189  -19.8122   22.1323 C   0  0  0  0  0  0  0  0  0  0  0  0
    2.0175  -19.1663   21.0734 C   0  0  0  0  0  0  0  0  0  0  0  0
    0.7090  -19.4349   21.0939 N   0  0  0  0  0  0  0  0  0  0  0  0
    0.4843  -20.2306   22.1380 C   0  0  0  0  0  0  0  0  0  0  0  0
    1.6442  -20.4655   22.7767 N   0  0  0  0  0  0  0  0  0  0  0  0
    6.2222  -18.8117   22.3005 C   0  0  0  0  0  0  0  0  0  0  0  0
    7.0783  -19.6707   22.0138 O   0  0  0  0  0  0  0  0  0  0  0  0
    8.7033  -16.0849   21.8879 C   0  0  0  0  0  0  0  0  0  0  0  0
    8.4958  -16.2468   23.3964 C   0  0  1  0  0  0  0  0  0  0  0  0
    7.8845  -15.1479   23.9484 O   0  0  0  0  0  0  0  0  0  0  0  0
    7.8847  -17.5546   23.7403 C   0  0  2  0  0  0  0  0  0  0  0  0
    6.5827  -17.8163   23.2174 N   0  0  0  0  0  0  0  0  0  0  0  0
    7.9023  -17.7332   25.2279 C   0  0  0  0  0  0  0  0  0  0  0  0
    6.9890  -17.2003   25.9211 O   0  0  0  0  0  0  0  0  0  0  0  0
    8.8953  -18.4738   25.9064 N   0  0  0  0  0  0  0  0  0  0  0  0
    8.9161  -18.6279   27.3525 C   0  0  1  0  0  0  0  0  0  0  0  0
    9.1180  -20.0420   27.7425 C   0  0  0  0  0  0  0  0  0  0  0  0
    7.9124  -20.8085   28.1466 C   0  0  0  0  0  0  0  0  0  0  0  0
    8.0499  -22.1524   28.6435 C   0  0  0  0  0  0  0  0  0  0  0  0
    8.3437  -23.1722   28.0037 O   0  0  0  0  0  0  0  0  0  0  0  0
    9.7478  -17.6088   27.9574 C   0  0  0  0  0  0  0  0  0  0  0  0
   10.5016  -16.8815   27.2149 O   0  0  0  0  0  0  0  0  0  0  0  0
    7.8305  -22.3789   30.0288 O   0  0  0  0  0  0  0  0  0  0  0  0
    9.7593  -17.3877   29.3315 O   0  0  0  0  0  0  0  0  0  0  0  0
  2  9  1  0
  2  1  1  6
  3  2  1  0
  4  8  1  0
  4  3  1  0
  5  4  2  0
  6  5  1  0
  6  7  1  0
  7  8  2  0
  9 10  2  0
 12 11  1  6
 13 12  1  0
 14 12  1  0
 15  9  1  0
 14 15  1  1
 16 17  2  0
 16 14  1  0
 18 16  1  0
 19 18  1  0
 19 20  1  6
 21 20  1  0
 22 21  1  0
 22 23  2  0
 24 19  1  0
 24 27  1  0
 25 24  2  0
 26 22  1  0
M  END
$$$$
