HTE.pdb
     RDKit          3D

 27 27  0  0  1  0  0  0  0  0999 V2000
    8.4752  -17.3349   17.4574 N   0  0  0  0  0  0  0  0  0  0  0  0
    9.4005  -16.9477   18.5278 C   0  0  1  0  0  0  0  0  0  0  0  0
    8.5350  -16.3572   19.6365 C   0  0  0  0  0  0  0  0  0  0  0  0
    8.1316  -14.9614   19.3344 C   0  0  0  0  0  0  0  0  0  0  0  0
    8.3915  -14.2027   18.2132 C   0  0  0  0  0  0  0  0  0  0  0  0
    7.8340  -12.9990   18.3707 N   0  0  0  0  0  0  0  0  0  0  0  0
    7.2354  -12.9922   19.5604 C   0  0  0  0  0  0  0  0  0  0  0  0
    7.4122  -14.1856   20.1547 N   0  0  0  0  0  0  0  0  0  0  0  0
   10.0023  -18.1883   19.0844 C   0  0  0  0  0  0  0  0  0  0  0  0
    9.2535  -19.1724   19.2378 O   0  0  0  0  0  0  0  0  0  0  0  0
   12.5665  -20.5385   17.6537 C   0  0  0  0  0  0  0  0  0  0  0  0
   13.0917  -20.0387   19.0024 C   0  0  1  0  0  0  0  0  0  0  0  0
   14.1688  -19.2001   18.8517 O   0  0  0  0  0  0  0  0  0  0  0  0
   12.0037  -19.5267   19.8719 C   0  0  2  0  0  0  0  0  0  0  0  0
   11.3469  -18.3322   19.4488 N   0  0  0  0  0  0  0  0  0  0  0  0
   12.5169  -19.3797   21.2721 C   0  0  0  0  0  0  0  0  0  0  0  0
   12.8910  -18.2403   21.6725 O   0  0  0  0  0  0  0  0  0  0  0  0
   12.6061  -20.4577   22.1804 N   0  0  0  0  0  0  0  0  0  0  0  0
   13.1856  -20.3264   23.5079 C   0  0  1  0  0  0  0  0  0  0  0  0
   12.6448  -21.3450   24.4367 C   0  0  0  0  0  0  0  0  0  0  0  0
   11.1700  -21.3920   24.6011 C   0  0  0  0  0  0  0  0  0  0  0  0
   10.5798  -22.3329   25.5166 C   0  0  0  0  0  0  0  0  0  0  0  0
   10.6552  -22.3384   26.7535 O   0  0  0  0  0  0  0  0  0  0  0  0
   14.6200  -20.1514   23.4182 C   0  0  0  0  0  0  0  0  0  0  0  0
   15.2465  -20.5683   22.3779 O   0  0  0  0  0  0  0  0  0  0  0  0
    9.8104  -23.3984   24.9769 O   0  0  0  0  0  0  0  0  0  0  0  0
   15.3520  -19.5403   24.4321 O   0  0  0  0  0  0  0  0  0  0  0  0
  2  9  1  0
  2  1  1  6
  3  2  1  0
  4  8  1  0
  4  3  1  0
  5  4  2  0
  6  5  1  0
  6  7  1  0
  7  8  2  0
  9 10  2  0
 12 11  1  6
 13 12  1  0
 14 12  1  0
 15  9  1  0
 14 15  1  6
 16 17  2  0
 16 14  1  0
 18 16  1  0
 19 18  1  0
 19 20  1  1
 21 20  1  0
 22 21  1  0
 22 23  2  0
 24 19  1  0
 24 27  1  0
 25 24  2  0
 26 22  1  0
M  END
$$$$
