HTE.pdb
     RDKit          3D

 27 27  0  0  1  0  0  0  0  0999 V2000
   10.0543  -16.9494   14.3798 N   0  0  0  0  0  0  0  0  0  0  0  0
    9.0347  -16.9432   15.4344 C   0  0  1  0  0  0  0  0  0  0  0  0
    8.9772  -18.3705   15.9699 C   0  0  0  0  0  0  0  0  0  0  0  0
    8.2258  -19.2694   15.0590 C   0  0  0  0  0  0  0  0  0  0  0  0
    7.3657  -18.9471   14.0311 C   0  0  0  0  0  0  0  0  0  0  0  0
    6.9152  -20.0767   13.4782 N   0  0  0  0  0  0  0  0  0  0  0  0
    7.4738  -21.0904   14.1370 C   0  0  0  0  0  0  0  0  0  0  0  0
    8.2747  -20.6065   15.1029 N   0  0  0  0  0  0  0  0  0  0  0  0
    9.5354  -16.0987   16.5511 C   0  0  0  0  0  0  0  0  0  0  0  0
   10.7632  -16.0948   16.7639 O   0  0  0  0  0  0  0  0  0  0  0  0
    8.8304  -12.6943   20.1599 C   0  0  0  0  0  0  0  0  0  0  0  0
    8.2587  -13.4529   18.9589 C   0  0  1  0  0  0  0  0  0  0  0  0
    7.8596  -12.6000   17.9594 O   0  0  0  0  0  0  0  0  0  0  0  0
    9.1392  -14.5677   18.5301 C   0  0  2  0  0  0  0  0  0  0  0  0
    8.7301  -15.3081   17.3804 N   0  0  0  0  0  0  0  0  0  0  0  0
    9.3784  -15.4842   19.6911 C   0  0  0  0  0  0  0  0  0  0  0  0
    8.7554  -16.5831   19.7445 O   0  0  0  0  0  0  0  0  0  0  0  0
   10.2733  -15.1842   20.7419 N   0  0  0  0  0  0  0  0  0  0  0  0
   10.5760  -16.1200   21.8133 C   0  0  1  0  0  0  0  0  0  0  0  0
   10.9478  -17.4503   21.2799 C   0  0  0  0  0  0  0  0  0  0  0  0
   12.3776  -17.6662   20.9435 C   0  0  0  0  0  0  0  0  0  0  0  0
   12.7356  -18.5498   19.8651 C   0  0  0  0  0  0  0  0  0  0  0  0
   13.6836  -18.4385   19.0750 O   0  0  0  0  0  0  0  0  0  0  0  0
   11.4317  -15.4974   22.8014 C   0  0  0  0  0  0  0  0  0  0  0  0
   11.9763  -14.3633   22.5452 O   0  0  0  0  0  0  0  0  0  0  0  0
   11.9300  -19.6997   19.6474 O   0  0  0  0  0  0  0  0  0  0  0  0
   11.6880  -16.0924   24.0333 O   0  0  0  0  0  0  0  0  0  0  0  0
  2  9  1  0
  2  1  1  6
  3  2  1  0
  4  8  1  0
  4  3  1  0
  5  4  2  0
  6  5  1  0
  6  7  1  0
  7  8  2  0
  9 10  2  0
 12 11  1  1
 13 12  1  0
 14 12  1  0
 15  9  1  0
 14 15  1  6
 16 17  2  0
 16 14  1  0
 18 16  1  0
 19 18  1  0
 19 20  1  6
 21 20  1  0
 22 21  1  0
 22 23  2  0
 24 19  1  0
 24 27  1  0
 25 24  2  0
 26 22  1  0
M  END
$$$$
