HTE.pdb
     RDKit          3D

 27 27  0  0  1  0  0  0  0  0999 V2000
    8.2233  -16.9555   18.7933 N   0  0  0  0  0  0  0  0  0  0  0  0
    8.9438  -16.3690   19.9285 C   0  0  1  0  0  0  0  0  0  0  0  0
    7.9817  -15.3706   20.5647 C   0  0  0  0  0  0  0  0  0  0  0  0
    8.1964  -13.9956   20.0493 C   0  0  0  0  0  0  0  0  0  0  0  0
    9.1309  -13.5406   19.1439 C   0  0  0  0  0  0  0  0  0  0  0  0
    8.9585  -12.2270   18.9725 N   0  0  0  0  0  0  0  0  0  0  0  0
    7.9414  -11.8564   19.7482 C   0  0  0  0  0  0  0  0  0  0  0  0
    7.4709  -12.9293   20.4084 N   0  0  0  0  0  0  0  0  0  0  0  0
    9.1602  -17.4401   20.9368 C   0  0  0  0  0  0  0  0  0  0  0  0
    8.2595  -18.2900   21.0759 O   0  0  0  0  0  0  0  0  0  0  0  0
   10.3211  -20.5978   21.0263 C   0  0  0  0  0  0  0  0  0  0  0  0
   11.2931  -19.8303   21.9269 C   0  0  1  0  0  0  0  0  0  0  0  0
   12.4798  -19.5657   21.2885 O   0  0  0  0  0  0  0  0  0  0  0  0
   10.6486  -18.6645   22.5808 C   0  0  2  0  0  0  0  0  0  0  0  0
   10.3000  -17.5643   21.7410 N   0  0  0  0  0  0  0  0  0  0  0  0
   11.4998  -18.2062   23.7257 C   0  0  0  0  0  0  0  0  0  0  0  0
   12.3522  -17.2931   23.5302 O   0  0  0  0  0  0  0  0  0  0  0  0
   11.4003  -18.7448   25.0277 N   0  0  0  0  0  0  0  0  0  0  0  0
   12.1684  -18.2371   26.1536 C   0  0  1  0  0  0  0  0  0  0  0  0
   11.3016  -17.9765   27.3254 C   0  0  0  0  0  0  0  0  0  0  0  0
   11.9727  -17.5456   28.5777 C   0  0  0  0  0  0  0  0  0  0  0  0
   11.2006  -17.3599   29.7782 C   0  0  0  0  0  0  0  0  0  0  0  0
    9.9879  -17.5574   29.9393 O   0  0  0  0  0  0  0  0  0  0  0  0
   13.3753  -19.0162   26.3344 C   0  0  0  0  0  0  0  0  0  0  0  0
   13.3860  -20.2563   26.0019 O   0  0  0  0  0  0  0  0  0  0  0  0
   11.8729  -16.8955   30.9405 O   0  0  0  0  0  0  0  0  0  0  0  0
   14.5375  -18.4616   26.8625 O   0  0  0  0  0  0  0  0  0  0  0  0
  2  9  1  0
  2  1  1  6
  3  2  1  0
  4  8  1  0
  4  3  1  0
  5  4  2  0
  6  5  1  0
  6  7  1  0
  7  8  2  0
  9 10  2  0
 12 11  1  6
 13 12  1  0
 14 12  1  0
 15  9  1  0
 14 15  1  6
 16 17  2  0
 16 14  1  0
 18 16  1  0
 19 18  1  0
 19 20  1  1
 21 20  1  0
 22 21  1  0
 22 23  2  0
 24 19  1  0
 24 27  1  0
 25 24  2  0
 26 22  1  0
M  END
$$$$
