HTE.pdb
     RDKit          3D

 27 27  0  0  1  0  0  0  0  0999 V2000
    9.0345  -16.6908   17.4189 N   0  0  0  0  0  0  0  0  0  0  0  0
    9.0926  -15.6630   18.4639 C   0  0  1  0  0  0  0  0  0  0  0  0
    7.9307  -14.7149   18.1840 C   0  0  0  0  0  0  0  0  0  0  0  0
    8.0086  -14.1383   16.8187 C   0  0  0  0  0  0  0  0  0  0  0  0
    8.9338  -14.3748   15.8246 C   0  0  0  0  0  0  0  0  0  0  0  0
    8.6150  -13.6374   14.7572 N   0  0  0  0  0  0  0  0  0  0  0  0
    7.5163  -12.9502   15.0643 C   0  0  0  0  0  0  0  0  0  0  0  0
    7.1399  -13.2500   16.3201 N   0  0  0  0  0  0  0  0  0  0  0  0
    8.7937  -16.3157   19.7660 C   0  0  0  0  0  0  0  0  0  0  0  0
    7.6853  -16.8716   19.8901 O   0  0  0  0  0  0  0  0  0  0  0  0
    8.4077  -19.1441   21.0455 C   0  0  0  0  0  0  0  0  0  0  0  0
    9.5863  -18.6180   21.8694 C   0  0  1  0  0  0  0  0  0  0  0  0
   10.7849  -19.1175   21.4224 O   0  0  0  0  0  0  0  0  0  0  0  0
    9.5356  -17.1450   22.0418 C   0  0  2  0  0  0  0  0  0  0  0  0
    9.6647  -16.3520   20.8621 N   0  0  0  0  0  0  0  0  0  0  0  0
   10.5452  -16.7319   23.0691 C   0  0  0  0  0  0  0  0  0  0  0  0
   11.6654  -16.2884   22.6856 O   0  0  0  0  0  0  0  0  0  0  0  0
   10.3108  -16.8114   24.4597 N   0  0  0  0  0  0  0  0  0  0  0  0
   11.2963  -16.4102   25.4513 C   0  0  1  0  0  0  0  0  0  0  0  0
   10.6497  -15.9732   26.7096 C   0  0  0  0  0  0  0  0  0  0  0  0
   11.5444  -15.6373   27.8459 C   0  0  0  0  0  0  0  0  0  0  0  0
   10.9881  -15.1205   29.0687 C   0  0  0  0  0  0  0  0  0  0  0  0
    9.7922  -14.9583   29.3499 O   0  0  0  0  0  0  0  0  0  0  0  0
   12.3715  -17.3777   25.5155 C   0  0  0  0  0  0  0  0  0  0  0  0
   13.5525  -16.9936   25.8412 O   0  0  0  0  0  0  0  0  0  0  0  0
   11.8848  -14.7392   30.1026 O   0  0  0  0  0  0  0  0  0  0  0  0
   12.1673  -18.7252   25.2327 O   0  0  0  0  0  0  0  0  0  0  0  0
  2  9  1  0
  2  1  1  6
  3  2  1  0
  4  8  1  0
  4  3  1  0
  5  4  2  0
  6  5  1  0
  6  7  1  0
  7  8  2  0
  9 10  2  0
 12 11  1  6
 13 12  1  0
 14 12  1  0
 15  9  1  0
 14 15  1  6
 16 17  2  0
 16 14  1  0
 18 16  1  0
 19 18  1  0
 19 20  1  1
 21 20  1  0
 22 21  1  0
 22 23  2  0
 24 19  1  0
 24 27  1  0
 25 24  2  0
 26 22  1  0
M  END
$$$$
