HTE.pdb
     RDKit          3D

 27 27  0  0  1  0  0  0  0  0999 V2000
   10.2379  -16.8991   16.0219 N   0  0  0  0  0  0  0  0  0  0  0  0
    9.1593  -17.1314   16.9885 C   0  0  1  0  0  0  0  0  0  0  0  0
    9.1874  -18.6252   17.2967 C   0  0  0  0  0  0  0  0  0  0  0  0
    8.6413  -19.4282   16.1745 C   0  0  0  0  0  0  0  0  0  0  0  0
    7.4978  -19.2236   15.4324 C   0  0  0  0  0  0  0  0  0  0  0  0
    7.3970  -20.1963   14.5222 N   0  0  0  0  0  0  0  0  0  0  0  0
    8.4484  -20.9981   14.6812 C   0  0  0  0  0  0  0  0  0  0  0  0
    9.2124  -20.5366   15.6872 N   0  0  0  0  0  0  0  0  0  0  0  0
    9.5200  -16.4378   18.2533 C   0  0  0  0  0  0  0  0  0  0  0  0
   10.7261  -16.3988   18.5644 O   0  0  0  0  0  0  0  0  0  0  0  0
    7.8024  -12.9415   19.7161 C   0  0  0  0  0  0  0  0  0  0  0  0
    7.9207  -14.0750   20.7388 C   0  0  1  0  0  0  0  0  0  0  0  0
    6.6895  -14.5498   21.1192 O   0  0  0  0  0  0  0  0  0  0  0  0
    8.8990  -15.1085   20.3184 C   0  0  2  0  0  0  0  0  0  0  0  0
    8.6056  -15.8258   19.1197 N   0  0  0  0  0  0  0  0  0  0  0  0
    9.1383  -16.0550   21.4552 C   0  0  0  0  0  0  0  0  0  0  0  0
    8.8460  -17.2764   21.3092 O   0  0  0  0  0  0  0  0  0  0  0  0
    9.6796  -15.6524   22.6961 N   0  0  0  0  0  0  0  0  0  0  0  0
    9.9764  -16.5879   23.7695 C   0  0  1  0  0  0  0  0  0  0  0  0
   10.9736  -17.5973   23.3462 C   0  0  0  0  0  0  0  0  0  0  0  0
   12.3946  -17.1685   23.3132 C   0  0  0  0  0  0  0  0  0  0  0  0
   13.4111  -18.0867   22.8713 C   0  0  0  0  0  0  0  0  0  0  0  0
   13.8248  -19.0994   23.4536 O   0  0  0  0  0  0  0  0  0  0  0  0
   10.1824  -15.8791   25.0150 C   0  0  0  0  0  0  0  0  0  0  0  0
   10.3695  -16.5415   26.0989 O   0  0  0  0  0  0  0  0  0  0  0  0
   14.0404  -17.8372   21.6222 O   0  0  0  0  0  0  0  0  0  0  0  0
   10.1844  -14.4887   25.0794 O   0  0  0  0  0  0  0  0  0  0  0  0
  2  9  1  0
  2  1  1  6
  3  2  1  0
  4  8  1  0
  4  3  1  0
  5  4  2  0
  6  5  1  0
  6  7  1  0
  7  8  2  0
  9 10  2  0
 12 11  1  6
 13 12  1  0
 14 12  1  0
 15  9  1  0
 14 15  1  6
 16 17  2  0
 16 14  1  0
 18 16  1  0
 19 18  1  0
 19 20  1  6
 21 20  1  0
 22 21  1  0
 22 23  2  0
 24 19  1  0
 24 27  1  0
 25 24  2  0
 26 22  1  0
M  END
$$$$
