FRM.pdb
     RDKit          3D

 31 31  0  0  1  0  0  0  0  0999 V2000
    5.1953  -17.1092   23.8752 N   0  0  0  0  0  0  0  0  0  0  0  0
    6.3191  -16.2042   24.0552 C   0  0  1  0  0  0  0  0  0  0  0  0
    6.5755  -15.9480   25.5295 C   0  0  0  0  0  0  0  0  0  0  0  0
    6.5826  -14.4809   25.8155 C   0  0  0  0  0  0  0  0  0  0  0  0
    7.0814  -13.9633   26.9878 C   0  0  0  0  0  0  0  0  0  0  0  0
    7.1061  -12.6214   27.2702 C   0  0  0  0  0  0  0  0  0  0  0  0
    6.6118  -11.7089   26.3520 C   0  0  0  0  0  0  0  0  0  0  0  0
    6.1078  -12.2117   25.1722 C   0  0  0  0  0  0  0  0  0  0  0  0
    6.0899  -13.5738   24.9008 C   0  0  0  0  0  0  0  0  0  0  0  0
    7.5354  -16.6988   23.3712 C   0  0  0  0  0  0  0  0  0  0  0  0
    7.4662  -17.5510   22.4253 O   0  0  0  0  0  0  0  0  0  0  0  0
    7.3469  -12.6851   18.5020 N   0  0  0  0  0  0  0  0  0  0  0  0
    8.1125  -13.7531   17.9700 C   0  0  0  0  0  0  0  0  0  0  0  0
    8.5056  -13.6892   16.7589 N   0  0  0  0  0  0  0  0  0  0  0  0
    8.4351  -14.8806   18.7786 N   0  0  0  0  0  0  0  0  0  0  0  0
    7.7659  -15.0851   20.0407 C   0  0  0  0  0  0  0  0  0  0  0  0
    8.4697  -16.1720   20.8359 C   0  0  0  0  0  0  0  0  0  0  0  0
    9.6286  -15.6024   21.5578 C   0  0  0  0  0  0  0  0  0  0  0  0
    9.9778  -16.4319   22.7941 C   0  0  2  0  0  0  0  0  0  0  0  0
    8.8437  -16.2572   23.7200 N   0  0  0  0  0  0  0  0  0  0  0  0
   11.2310  -15.9308   23.3792 C   0  0  0  0  0  0  0  0  0  0  0  0
   12.3312  -15.9605   22.7327 O   0  0  0  0  0  0  0  0  0  0  0  0
    9.0381  -14.3907   16.2431 C   0  0  0  0  0  0  0  0  0  0  0  0
   10.9326  -14.8992   30.2220 S   0  0  0  0  0  0  0  0  0  0  0  0
    9.8746  -15.0308   28.7916 C   0  0  0  0  0  0  0  0  0  0  0  0
   10.6559  -14.9456   27.2020 C   0  0  0  0  0  0  0  0  0  0  0  0
   11.6920  -15.9827   26.9404 C   0  0  2  0  0  0  0  0  0  0  0  0
   12.3869  -15.8204   25.6119 N   0  0  0  0  0  0  0  0  0  0  0  0
   11.3266  -15.3784   24.6865 C   0  0  0  0  0  0  0  0  0  0  0  0
   12.8231  -17.1410   25.0984 O   0  0  0  0  0  0  0  0  0  0  0  0
   14.1280  -17.5695   25.1879 O   0  0  0  0  0  0  0  0  0  0  0  0
  2  1  1  1
  2 10  1  0
  3  2  1  0
  3  4  1  0
  4  9  2  0
  4  5  1  0
  5  6  2  0
  6  7  1  0
  8  7  2  0
  9  8  1  0
 10 11  2  0
 13 15  1  0
 13 12  1  0
 14 13  2  0
 16 15  1  0
 16 17  1  0
 17 18  1  0
 19 18  1  6
 20 10  1  0
 20 19  1  0
 21 19  1  0
 21 22  2  0
 23 24  1  0
 24 25  1  0
 25 26  1  0
 27 26  1  1
 27 28  1  0
 28 21  1  0
 29 30  1  0
 29 27  1  0
 31 29  2  0
M  END
$$$$
