FRM.pdb
     RDKit          3D

 31 31  0  0  1  0  0  0  0  0999 V2000
    6.6510  -18.7689   26.0700 N   0  0  0  0  0  0  0  0  0  0  0  0
    6.4816  -17.3512   25.7948 C   0  0  1  0  0  0  0  0  0  0  0  0
    6.5729  -16.5381   27.0737 C   0  0  0  0  0  0  0  0  0  0  0  0
    6.2183  -15.1091   26.8154 C   0  0  0  0  0  0  0  0  0  0  0  0
    4.9172  -14.6637   26.8140 C   0  0  0  0  0  0  0  0  0  0  0  0
    4.5670  -13.3572   26.5875 C   0  0  0  0  0  0  0  0  0  0  0  0
    5.5463  -12.4076   26.3434 C   0  0  0  0  0  0  0  0  0  0  0  0
    6.8552  -12.8381   26.3409 C   0  0  0  0  0  0  0  0  0  0  0  0
    7.1939  -14.1651   26.5722 C   0  0  0  0  0  0  0  0  0  0  0  0
    7.4448  -16.8720   24.7776 C   0  0  0  0  0  0  0  0  0  0  0  0
    8.6359  -17.3239   24.7247 O   0  0  0  0  0  0  0  0  0  0  0  0
    8.8947  -14.9240   17.7479 N   0  0  0  0  0  0  0  0  0  0  0  0
    8.7723  -13.5117   17.7301 C   0  0  0  0  0  0  0  0  0  0  0  0
    9.4903  -12.8386   16.9198 N   0  0  0  0  0  0  0  0  0  0  0  0
    7.8605  -12.8568   18.6071 N   0  0  0  0  0  0  0  0  0  0  0  0
    7.1240  -13.6160   19.5888 C   0  0  0  0  0  0  0  0  0  0  0  0
    8.0691  -14.1560   20.6491 C   0  0  0  0  0  0  0  0  0  0  0  0
    7.3162  -14.4857   21.8792 C   0  0  0  0  0  0  0  0  0  0  0  0
    8.0084  -15.5915   22.6771 C   0  0  2  0  0  0  0  0  0  0  0  0
    7.1051  -15.8901   23.8035 N   0  0  0  0  0  0  0  0  0  0  0  0
    9.3145  -15.1068   23.1497 C   0  0  0  0  0  0  0  0  0  0  0  0
    9.4666  -13.9221   23.5998 O   0  0  0  0  0  0  0  0  0  0  0  0
    9.5396  -11.8229   16.8333 C   0  0  0  0  0  0  0  0  0  0  0  0
   10.6319  -14.5617   28.4192 S   0  0  0  0  0  0  0  0  0  0  0  0
   12.2014  -15.2478   27.9202 C   0  0  0  0  0  0  0  0  0  0  0  0
   12.5544  -15.2693   26.1825 C   0  0  0  0  0  0  0  0  0  0  0  0
   11.3709  -15.4084   25.2894 C   0  0  1  0  0  0  0  0  0  0  0  0
   11.7195  -15.4180   23.8223 N   0  0  0  0  0  0  0  0  0  0  0  0
   10.4969  -15.8974   23.1503 C   0  0  0  0  0  0  0  0  0  0  0  0
   12.7439  -16.4538   23.5470 O   0  0  0  0  0  0  0  0  0  0  0  0
   14.0678  -16.2852   23.8833 O   0  0  0  0  0  0  0  0  0  0  0  0
  2  1  1  1
  2 10  1  0
  3  2  1  0
  3  4  1  0
  4  9  2  0
  4  5  1  0
  5  6  2  0
  6  7  1  0
  8  7  2  0
  9  8  1  0
 10 11  2  0
 13 15  1  0
 13 12  1  0
 14 13  2  0
 16 15  1  0
 16 17  1  0
 17 18  1  0
 19 18  1  6
 20 10  1  0
 20 19  1  0
 21 19  1  0
 21 22  2  0
 23 24  1  0
 24 25  1  0
 25 26  1  0
 27 26  1  6
 27 28  1  0
 28 21  1  0
 29 30  1  0
 29 27  1  0
 31 29  2  0
M  END
$$$$
