FRM.pdb
     RDKit          3D

 31 31  0  0  1  0  0  0  0  0999 V2000
    7.0586  -16.6133   26.2698 N   0  0  0  0  0  0  0  0  0  0  0  0
    6.2160  -16.6641   25.0859 C   0  0  1  0  0  0  0  0  0  0  0  0
    5.1688  -15.5654   25.1208 C   0  0  0  0  0  0  0  0  0  0  0  0
    5.7495  -14.3019   25.6691 C   0  0  0  0  0  0  0  0  0  0  0  0
    5.4594  -13.8486   26.9347 C   0  0  0  0  0  0  0  0  0  0  0  0
    5.9851  -12.6974   27.4630 C   0  0  0  0  0  0  0  0  0  0  0  0
    6.8571  -11.9238   26.7135 C   0  0  0  0  0  0  0  0  0  0  0  0
    7.1575  -12.3642   25.4429 C   0  0  0  0  0  0  0  0  0  0  0  0
    6.6168  -13.5327   24.9219 C   0  0  0  0  0  0  0  0  0  0  0  0
    7.0164  -16.6111   23.8415 C   0  0  0  0  0  0  0  0  0  0  0  0
    7.2666  -17.6635   23.1665 O   0  0  0  0  0  0  0  0  0  0  0  0
    7.5011  -14.7398   17.5374 N   0  0  0  0  0  0  0  0  0  0  0  0
    8.7841  -14.1761   17.3232 C   0  0  0  0  0  0  0  0  0  0  0  0
    9.5509  -14.6978   16.4486 N   0  0  0  0  0  0  0  0  0  0  0  0
    9.2081  -13.0440   18.0768 N   0  0  0  0  0  0  0  0  0  0  0  0
    8.6922  -12.8210   19.4059 C   0  0  0  0  0  0  0  0  0  0  0  0
    9.1730  -13.9154   20.3441 C   0  0  0  0  0  0  0  0  0  0  0  0
    8.0801  -14.3175   21.2566 C   0  0  0  0  0  0  0  0  0  0  0  0
    8.5387  -15.4026   22.2316 C   0  0  2  0  0  0  0  0  0  0  0  0
    7.5486  -15.3956   23.3242 N   0  0  0  0  0  0  0  0  0  0  0  0
    9.8857  -15.0768   22.7252 C   0  0  0  0  0  0  0  0  0  0  0  0
   10.2404  -13.8732   22.9594 O   0  0  0  0  0  0  0  0  0  0  0  0
   10.5052  -14.4196   16.2170 C   0  0  0  0  0  0  0  0  0  0  0  0
   10.3643  -13.9598   28.4124 S   0  0  0  0  0  0  0  0  0  0  0  0
   11.1084  -15.5447   28.0701 C   0  0  0  0  0  0  0  0  0  0  0  0
   11.9767  -15.7111   26.5329 C   0  0  0  0  0  0  0  0  0  0  0  0
   11.1207  -15.7658   25.3156 C   0  0  1  0  0  0  0  0  0  0  0  0
   11.9044  -15.8246   24.0286 N   0  0  0  0  0  0  0  0  0  0  0  0
   10.8894  -16.0512   22.9824 C   0  0  0  0  0  0  0  0  0  0  0  0
   12.7603  -17.0349   24.0060 O   0  0  0  0  0  0  0  0  0  0  0  0
   12.4936  -18.1080   23.1865 O   0  0  0  0  0  0  0  0  0  0  0  0
  2  1  1  1
  2 10  1  0
  3  2  1  0
  3  4  1  0
  4  9  2  0
  4  5  1  0
  5  6  2  0
  6  7  1  0
  8  7  2  0
  9  8  1  0
 10 11  2  0
 13 15  1  0
 13 12  1  0
 14 13  2  0
 16 15  1  0
 16 17  1  0
 17 18  1  0
 19 18  1  6
 20 10  1  0
 20 19  1  0
 21 19  1  0
 21 22  2  0
 23 24  1  0
 24 25  1  0
 25 26  1  0
 27 26  1  6
 27 28  1  0
 28 21  1  0
 29 30  1  0
 29 27  1  0
 31 29  2  0
M  END
$$$$
