FRM.pdb
     RDKit          3D

 31 31  0  0  1  0  0  0  0  0999 V2000
    5.8941  -16.3146   25.5563 N   0  0  0  0  0  0  0  0  0  0  0  0
    6.6268  -15.4735   24.6235 C   0  0  1  0  0  0  0  0  0  0  0  0
    7.5278  -14.5023   25.3651 C   0  0  0  0  0  0  0  0  0  0  0  0
    6.7154  -13.4664   26.0732 C   0  0  0  0  0  0  0  0  0  0  0  0
    6.5428  -13.4741   27.4375 C   0  0  0  0  0  0  0  0  0  0  0  0
    5.8090  -12.5311   28.1108 C   0  0  0  0  0  0  0  0  0  0  0  0
    5.1944  -11.5021   27.4152 C   0  0  0  0  0  0  0  0  0  0  0  0
    5.3574  -11.4806   26.0471 C   0  0  0  0  0  0  0  0  0  0  0  0
    6.1039  -12.4430   25.3796 C   0  0  0  0  0  0  0  0  0  0  0  0
    7.3887  -16.2789   23.6423 C   0  0  0  0  0  0  0  0  0  0  0  0
    8.0186  -17.3310   23.9918 O   0  0  0  0  0  0  0  0  0  0  0  0
    8.9285  -13.1632   16.8948 N   0  0  0  0  0  0  0  0  0  0  0  0
    8.5991  -14.5243   16.6745 C   0  0  0  0  0  0  0  0  0  0  0  0
    9.2470  -15.1833   15.7964 N   0  0  0  0  0  0  0  0  0  0  0  0
    7.5578  -15.1436   17.4238 N   0  0  0  0  0  0  0  0  0  0  0  0
    7.3502  -14.7917   18.8078 C   0  0  0  0  0  0  0  0  0  0  0  0
    8.6691  -14.3961   19.4504 C   0  0  0  0  0  0  0  0  0  0  0  0
    8.4981  -14.2537   20.9130 C   0  0  0  0  0  0  0  0  0  0  0  0
    8.7489  -15.5781   21.6352 C   0  0  2  0  0  0  0  0  0  0  0  0
    7.4631  -15.9354   22.2622 N   0  0  0  0  0  0  0  0  0  0  0  0
    9.8043  -15.3916   22.6429 C   0  0  0  0  0  0  0  0  0  0  0  0
    9.9649  -14.2785   23.2467 O   0  0  0  0  0  0  0  0  0  0  0  0
    9.1361  -16.1689   15.5555 C   0  0  0  0  0  0  0  0  0  0  0  0
   11.3819  -13.3343   28.3600 S   0  0  0  0  0  0  0  0  0  0  0  0
   11.3349  -15.0642   27.9263 C   0  0  0  0  0  0  0  0  0  0  0  0
   12.0837  -15.5287   26.3874 C   0  0  0  0  0  0  0  0  0  0  0  0
   11.1368  -15.8172   25.2749 C   0  0  1  0  0  0  0  0  0  0  0  0
   11.8190  -16.1185   23.9642 N   0  0  0  0  0  0  0  0  0  0  0  0
   10.7176  -16.4118   23.0278 C   0  0  0  0  0  0  0  0  0  0  0  0
   12.5870  -17.3825   24.0664 O   0  0  0  0  0  0  0  0  0  0  0  0
   13.8525  -17.4315   24.6054 O   0  0  0  0  0  0  0  0  0  0  0  0
  2  1  1  1
  2 10  1  0
  3  2  1  0
  3  4  1  0
  4  9  2  0
  4  5  1  0
  5  6  2  0
  6  7  1  0
  8  7  2  0
  9  8  1  0
 10 11  2  0
 13 15  1  0
 13 12  1  0
 14 13  2  0
 16 15  1  0
 16 17  1  0
 17 18  1  0
 19 18  1  1
 20 10  1  0
 20 19  1  0
 21 19  1  0
 21 22  2  0
 23 24  1  0
 24 25  1  0
 25 26  1  0
 27 26  1  6
 27 28  1  0
 28 21  1  0
 29 30  1  0
 29 27  1  0
 31 29  2  0
M  END
$$$$
