FRM.pdb
     RDKit          3D

 31 31  0  0  1  0  0  0  0  0999 V2000
    6.7955  -15.7229   25.8677 N   0  0  0  0  0  0  0  0  0  0  0  0
    6.5529  -15.4482   24.4606 C   0  0  1  0  0  0  0  0  0  0  0  0
    6.8662  -13.9996   24.1313 C   0  0  0  0  0  0  0  0  0  0  0  0
    6.5347  -13.1131   25.2883 C   0  0  0  0  0  0  0  0  0  0  0  0
    7.0464  -11.8426   25.4107 C   0  0  0  0  0  0  0  0  0  0  0  0
    6.7516  -11.0078   26.4580 C   0  0  0  0  0  0  0  0  0  0  0  0
    5.8982  -11.4306   27.4647 C   0  0  0  0  0  0  0  0  0  0  0  0
    5.3773  -12.7017   27.3570 C   0  0  0  0  0  0  0  0  0  0  0  0
    5.6856  -13.5354   26.2897 C   0  0  0  0  0  0  0  0  0  0  0  0
    7.3015  -16.3776   23.5844 C   0  0  0  0  0  0  0  0  0  0  0  0
    6.7023  -17.2568   22.8816 O   0  0  0  0  0  0  0  0  0  0  0  0
    7.8390  -13.6489   18.9601 N   0  0  0  0  0  0  0  0  0  0  0  0
    9.1263  -13.1373   19.2616 C   0  0  0  0  0  0  0  0  0  0  0  0
    9.2963  -11.8744   19.3011 N   0  0  0  0  0  0  0  0  0  0  0  0
   10.2124  -14.0236   19.5148 N   0  0  0  0  0  0  0  0  0  0  0  0
    9.9687  -15.4305   19.7239 C   0  0  0  0  0  0  0  0  0  0  0  0
    9.7843  -15.7148   21.2052 C   0  0  0  0  0  0  0  0  0  0  0  0
    9.6582  -17.1716   21.4301 C   0  0  0  0  0  0  0  0  0  0  0  0
    9.4639  -17.4921   22.9127 C   0  0  2  0  0  0  0  0  0  0  0  0
    8.7207  -16.3471   23.4699 N   0  0  0  0  0  0  0  0  0  0  0  0
   10.7787  -17.6430   23.5550 C   0  0  0  0  0  0  0  0  0  0  0  0
   11.6382  -18.4867   23.1321 O   0  0  0  0  0  0  0  0  0  0  0  0
   10.1708  -11.3722   19.4585 C   0  0  0  0  0  0  0  0  0  0  0  0
   10.1989  -13.7646   29.1462 S   0  0  0  0  0  0  0  0  0  0  0  0
   11.6427  -14.3637   28.2864 C   0  0  0  0  0  0  0  0  0  0  0  0
   11.4053  -15.7080   27.1545 C   0  0  0  0  0  0  0  0  0  0  0  0
   12.6220  -16.1481   26.4174 C   0  0  1  0  0  0  0  0  0  0  0  0
   12.3727  -17.2955   25.4712 N   0  0  0  0  0  0  0  0  0  0  0  0
   11.2016  -16.8783   24.6773 C   0  0  0  0  0  0  0  0  0  0  0  0
   11.9236  -18.4909   26.2245 O   0  0  0  0  0  0  0  0  0  0  0  0
   12.8008  -19.2975   26.9133 O   0  0  0  0  0  0  0  0  0  0  0  0
  2  1  1  1
  2 10  1  0
  3  2  1  0
  3  4  1  0
  4  9  2  0
  4  5  1  0
  5  6  2  0
  6  7  1  0
  8  7  2  0
  9  8  1  0
 10 11  2  0
 13 15  1  0
 13 12  1  0
 14 13  2  0
 16 15  1  0
 16 17  1  0
 17 18  1  0
 19 18  1  6
 20 10  1  0
 20 19  1  0
 21 19  1  0
 21 22  2  0
 23 24  1  0
 24 25  1  0
 25 26  1  0
 27 26  1  6
 27 28  1  0
 28 21  1  0
 29 30  1  0
 29 27  1  0
 31 29  2  0
M  END
$$$$
