FRM.pdb
     RDKit          3D

 31 31  0  0  1  0  0  0  0  0999 V2000
    5.8755  -18.7597   25.0791 N   0  0  0  0  0  0  0  0  0  0  0  0
    6.1254  -17.3296   24.9971 C   0  0  1  0  0  0  0  0  0  0  0  0
    6.3888  -16.7475   26.3743 C   0  0  0  0  0  0  0  0  0  0  0  0
    6.3446  -15.2540   26.3319 C   0  0  0  0  0  0  0  0  0  0  0  0
    5.1611  -14.5536   26.3358 C   0  0  0  0  0  0  0  0  0  0  0  0
    5.0945  -13.1841   26.3051 C   0  0  0  0  0  0  0  0  0  0  0  0
    6.2581  -12.4325   26.2675 C   0  0  0  0  0  0  0  0  0  0  0  0
    7.4525  -13.1195   26.2625 C   0  0  0  0  0  0  0  0  0  0  0  0
    7.5035  -14.5072   26.2940 C   0  0  0  0  0  0  0  0  0  0  0  0
    7.2266  -17.0193   24.0575 C   0  0  0  0  0  0  0  0  0  0  0  0
    8.2117  -17.8137   23.9019 O   0  0  0  0  0  0  0  0  0  0  0  0
    7.6229  -15.2742   17.6521 N   0  0  0  0  0  0  0  0  0  0  0  0
    8.3247  -14.1267   17.2043 C   0  0  0  0  0  0  0  0  0  0  0  0
    8.8160  -14.1220   16.0280 N   0  0  0  0  0  0  0  0  0  0  0  0
    8.4783  -12.9974   18.0590 N   0  0  0  0  0  0  0  0  0  0  0  0
    7.9638  -13.0307   19.4068 C   0  0  0  0  0  0  0  0  0  0  0  0
    8.4212  -14.2977   20.1102 C   0  0  0  0  0  0  0  0  0  0  0  0
    7.8068  -14.3821   21.4533 C   0  0  0  0  0  0  0  0  0  0  0  0
    8.2245  -15.6623   22.1780 C   0  0  2  0  0  0  0  0  0  0  0  0
    7.2536  -15.8296   23.2750 N   0  0  0  0  0  0  0  0  0  0  0  0
    9.5941  -15.5067   22.6918 C   0  0  0  0  0  0  0  0  0  0  0  0
   10.5805  -15.2837   21.9131 O   0  0  0  0  0  0  0  0  0  0  0  0
    9.3304  -13.3657   15.5750 C   0  0  0  0  0  0  0  0  0  0  0  0
   12.0812  -14.1476   29.1001 S   0  0  0  0  0  0  0  0  0  0  0  0
   10.5923  -13.8146   28.1755 C   0  0  0  0  0  0  0  0  0  0  0  0
   10.6544  -14.0871   26.4244 C   0  0  0  0  0  0  0  0  0  0  0  0
   11.2835  -15.3673   25.9966 C   0  0  2  0  0  0  0  0  0  0  0  0
   11.3444  -15.5395   24.4997 N   0  0  0  0  0  0  0  0  0  0  0  0
    9.9338  -15.5864   24.0707 C   0  0  0  0  0  0  0  0  0  0  0  0
   11.8966  -16.8730   24.1606 O   0  0  0  0  0  0  0  0  0  0  0  0
   11.1143  -17.8836   23.6497 O   0  0  0  0  0  0  0  0  0  0  0  0
  2  1  1  1
  2 10  1  0
  3  2  1  0
  3  4  1  0
  4  9  2  0
  4  5  1  0
  5  6  2  0
  6  7  1  0
  8  7  2  0
  9  8  1  0
 10 11  2  0
 13 15  1  0
 13 12  1  0
 14 13  2  0
 16 15  1  0
 16 17  1  0
 17 18  1  0
 19 18  1  1
 20 10  1  0
 20 19  1  0
 21 19  1  0
 21 22  2  0
 23 24  1  0
 24 25  1  0
 25 26  1  0
 27 26  1  6
 27 28  1  0
 28 21  1  0
 29 30  1  0
 29 27  1  0
 31 29  2  0
M  END
$$$$
