FRM.pdb
     RDKit          3D

 31 31  0  0  1  0  0  0  0  0999 V2000
    5.6213  -16.7065   25.2913 N   0  0  0  0  0  0  0  0  0  0  0  0
    6.8000  -15.9213   24.9619 C   0  0  1  0  0  0  0  0  0  0  0  0
    7.3054  -15.1688   26.1798 C   0  0  0  0  0  0  0  0  0  0  0  0
    6.9223  -13.7260   26.1035 C   0  0  0  0  0  0  0  0  0  0  0  0
    5.7648  -13.2424   26.6670 C   0  0  0  0  0  0  0  0  0  0  0  0
    5.3952  -11.9226   26.6172 C   0  0  0  0  0  0  0  0  0  0  0  0
    6.2035  -10.9984   25.9747 C   0  0  0  0  0  0  0  0  0  0  0  0
    7.3669  -11.4673   25.4043 C   0  0  0  0  0  0  0  0  0  0  0  0
    7.7275  -12.8073   25.4633 C   0  0  0  0  0  0  0  0  0  0  0  0
    7.8640  -16.7570   24.3606 C   0  0  0  0  0  0  0  0  0  0  0  0
    8.1897  -17.8824   24.8638 O   0  0  0  0  0  0  0  0  0  0  0  0
    7.0149  -12.8110   19.8366 N   0  0  0  0  0  0  0  0  0  0  0  0
    7.9336  -13.4981   19.0037 C   0  0  0  0  0  0  0  0  0  0  0  0
    8.8622  -12.8386   18.4311 N   0  0  0  0  0  0  0  0  0  0  0  0
    7.8174  -14.9046   18.8101 N   0  0  0  0  0  0  0  0  0  0  0  0
    8.8636  -15.7894   19.2630 C   0  0  0  0  0  0  0  0  0  0  0  0
    8.7340  -16.0306   20.7577 C   0  0  0  0  0  0  0  0  0  0  0  0
    9.8584  -16.8646   21.2362 C   0  0  0  0  0  0  0  0  0  0  0  0
    9.7687  -17.1101   22.7429 C   0  0  2  0  0  0  0  0  0  0  0  0
    8.5804  -16.3630   23.1945 N   0  0  0  0  0  0  0  0  0  0  0  0
   10.9929  -16.6148   23.3911 C   0  0  0  0  0  0  0  0  0  0  0  0
   11.2603  -15.3683   23.4543 O   0  0  0  0  0  0  0  0  0  0  0  0
    9.5936  -13.2029   17.8195 C   0  0  0  0  0  0  0  0  0  0  0  0
   10.0917  -13.9817   28.0249 S   0  0  0  0  0  0  0  0  0  0  0  0
   11.0225  -15.4029   28.5696 C   0  0  0  0  0  0  0  0  0  0  0  0
   12.2232  -16.0592   27.4417 C   0  0  0  0  0  0  0  0  0  0  0  0
   11.6711  -16.6650   26.1984 C   0  0  2  0  0  0  0  0  0  0  0  0
   12.7241  -17.0080   25.1748 N   0  0  0  0  0  0  0  0  0  0  0  0
   11.9647  -17.4606   23.9939 C   0  0  0  0  0  0  0  0  0  0  0  0
   13.4978  -18.1936   25.6150 O   0  0  0  0  0  0  0  0  0  0  0  0
   14.8320  -18.1190   25.9447 O   0  0  0  0  0  0  0  0  0  0  0  0
  2  1  1  1
  2 10  1  0
  3  2  1  0
  3  4  1  0
  4  9  2  0
  4  5  1  0
  5  6  2  0
  6  7  1  0
  8  7  2  0
  9  8  1  0
 10 11  2  0
 13 15  1  0
 13 12  1  0
 14 13  2  0
 16 15  1  0
 16 17  1  0
 17 18  1  0
 19 18  1  6
 20 10  1  0
 20 19  1  0
 21 19  1  0
 21 22  2  0
 23 24  1  0
 24 25  1  0
 25 26  1  0
 27 26  1  6
 27 28  1  0
 28 21  1  0
 29 30  1  0
 29 27  1  0
 31 29  2  0
M  END
$$$$
