FRM.pdb
     RDKit          3D

 31 31  0  0  1  0  0  0  0  0999 V2000
    6.9457  -17.4234   27.0052 N   0  0  0  0  0  0  0  0  0  0  0  0
    6.2951  -17.1273   25.7390 C   0  0  1  0  0  0  0  0  0  0  0  0
    5.4309  -15.8842   25.8535 C   0  0  0  0  0  0  0  0  0  0  0  0
    6.2705  -14.6856   26.1580 C   0  0  0  0  0  0  0  0  0  0  0  0
    5.7274  -13.4357   26.3420 C   0  0  0  0  0  0  0  0  0  0  0  0
    6.4753  -12.3227   26.6296 C   0  0  0  0  0  0  0  0  0  0  0  0
    7.8524  -12.4225   26.7488 C   0  0  0  0  0  0  0  0  0  0  0  0
    8.4121  -13.6684   26.5668 C   0  0  0  0  0  0  0  0  0  0  0  0
    7.6410  -14.7864   26.2759 C   0  0  0  0  0  0  0  0  0  0  0  0
    7.2744  -17.0071   24.6352 C   0  0  0  0  0  0  0  0  0  0  0  0
    8.3567  -17.6812   24.6302 O   0  0  0  0  0  0  0  0  0  0  0  0
   10.0315  -14.1051   17.7728 N   0  0  0  0  0  0  0  0  0  0  0  0
    8.8310  -13.3546   17.7004 C   0  0  0  0  0  0  0  0  0  0  0  0
    8.8767  -12.1540   17.2743 N   0  0  0  0  0  0  0  0  0  0  0  0
    7.5933  -13.9357   18.1000 N   0  0  0  0  0  0  0  0  0  0  0  0
    7.5769  -15.1803   18.8302 C   0  0  0  0  0  0  0  0  0  0  0  0
    8.2386  -15.0000   20.1862 C   0  0  0  0  0  0  0  0  0  0  0  0
    7.3021  -15.3894   21.2632 C   0  0  0  0  0  0  0  0  0  0  0  0
    8.0285  -16.1090   22.4004 C   0  0  2  0  0  0  0  0  0  0  0  0
    7.0707  -16.1439   23.5209 N   0  0  0  0  0  0  0  0  0  0  0  0
    9.2430  -15.3584   22.7550 C   0  0  0  0  0  0  0  0  0  0  0  0
    9.2506  -14.0831   22.8092 O   0  0  0  0  0  0  0  0  0  0  0  0
    8.1018  -11.4942   17.1981 C   0  0  0  0  0  0  0  0  0  0  0  0
   11.0263  -13.6737   29.2926 S   0  0  0  0  0  0  0  0  0  0  0  0
   10.2142  -14.3372   27.8494 C   0  0  0  0  0  0  0  0  0  0  0  0
   11.2496  -15.0573   26.6028 C   0  0  0  0  0  0  0  0  0  0  0  0
   10.5430  -15.5495   25.3879 C   0  0  1  0  0  0  0  0  0  0  0  0
   11.3541  -15.4195   24.1234 N   0  0  0  0  0  0  0  0  0  0  0  0
   10.4882  -15.9721   23.0648 C   0  0  0  0  0  0  0  0  0  0  0  0
   12.5283  -16.3233   24.1740 O   0  0  0  0  0  0  0  0  0  0  0  0
   13.7141  -15.9545   24.7675 O   0  0  0  0  0  0  0  0  0  0  0  0
  2  1  1  1
  2 10  1  0
  3  2  1  0
  3  4  1  0
  4  9  2  0
  4  5  1  0
  5  6  2  0
  6  7  1  0
  8  7  2  0
  9  8  1  0
 10 11  2  0
 13 15  1  0
 13 12  1  0
 14 13  2  0
 16 15  1  0
 16 17  1  0
 17 18  1  0
 19 18  1  6
 20 10  1  0
 20 19  1  0
 21 19  1  0
 21 22  2  0
 23 24  1  0
 24 25  1  0
 25 26  1  0
 27 26  1  6
 27 28  1  0
 28 21  1  0
 29 30  1  0
 29 27  1  0
 31 29  2  0
M  END
$$$$
