FRM.pdb
     RDKit          3D

 31 31  0  0  1  0  0  0  0  0999 V2000
    5.7684  -15.9706   25.6285 N   0  0  0  0  0  0  0  0  0  0  0  0
    6.8483  -15.4088   24.8330 C   0  0  1  0  0  0  0  0  0  0  0  0
    7.5839  -14.3294   25.6067 C   0  0  0  0  0  0  0  0  0  0  0  0
    6.7226  -13.1187   25.7696 C   0  0  0  0  0  0  0  0  0  0  0  0
    6.6167  -12.1556   24.7936 C   0  0  0  0  0  0  0  0  0  0  0  0
    5.8277  -11.0405   24.9161 C   0  0  0  0  0  0  0  0  0  0  0  0
    5.0842  -10.8384   26.0679 C   0  0  0  0  0  0  0  0  0  0  0  0
    5.1798  -11.7943   27.0557 C   0  0  0  0  0  0  0  0  0  0  0  0
    5.9834  -12.9186   26.9167 C   0  0  0  0  0  0  0  0  0  0  0  0
    7.7753  -16.4574   24.3502 C   0  0  0  0  0  0  0  0  0  0  0  0
    8.0393  -17.4871   25.0544 O   0  0  0  0  0  0  0  0  0  0  0  0
    9.8845  -13.3755   18.6345 N   0  0  0  0  0  0  0  0  0  0  0  0
    8.5255  -13.5866   18.9784 C   0  0  0  0  0  0  0  0  0  0  0  0
    7.7642  -12.5768   19.1398 N   0  0  0  0  0  0  0  0  0  0  0  0
    8.0210  -14.9087   19.1420 N   0  0  0  0  0  0  0  0  0  0  0  0
    8.0824  -15.5557   20.4305 C   0  0  0  0  0  0  0  0  0  0  0  0
    9.5154  -15.5804   20.9356 C   0  0  0  0  0  0  0  0  0  0  0  0
    9.9022  -16.9620   21.2962 C   0  0  0  0  0  0  0  0  0  0  0  0
    9.5431  -17.2806   22.7481 C   0  0  2  0  0  0  0  0  0  0  0  0
    8.4208  -16.3848   23.0828 N   0  0  0  0  0  0  0  0  0  0  0  0
   10.7098  -17.0236   23.6064 C   0  0  0  0  0  0  0  0  0  0  0  0
   11.3877  -15.9462   23.5108 O   0  0  0  0  0  0  0  0  0  0  0  0
    6.7709  -12.5816   19.3746 C   0  0  0  0  0  0  0  0  0  0  0  0
   10.1318  -15.4906   29.7924 S   0  0  0  0  0  0  0  0  0  0  0  0
   10.0037  -14.8262   28.1417 C   0  0  0  0  0  0  0  0  0  0  0  0
   11.1165  -15.4765   26.9237 C   0  0  0  0  0  0  0  0  0  0  0  0
   11.0819  -16.9548   26.7479 C   0  0  2  0  0  0  0  0  0  0  0  0
   12.0392  -17.4605   25.6981 N   0  0  0  0  0  0  0  0  0  0  0  0
   11.1750  -17.9303   24.5988 C   0  0  0  0  0  0  0  0  0  0  0  0
   12.7385  -18.6734   26.1859 O   0  0  0  0  0  0  0  0  0  0  0  0
   13.8540  -18.6051   26.9893 O   0  0  0  0  0  0  0  0  0  0  0  0
  2  1  1  1
  2 10  1  0
  3  2  1  0
  3  4  1  0
  4  9  2  0
  4  5  1  0
  5  6  2  0
  6  7  1  0
  8  7  2  0
  9  8  1  0
 10 11  2  0
 13 15  1  0
 13 12  1  0
 14 13  2  0
 16 15  1  0
 16 17  1  0
 17 18  1  0
 19 18  1  6
 20 10  1  0
 20 19  1  0
 21 19  1  0
 21 22  2  0
 23 24  1  0
 24 25  1  0
 25 26  1  0
 27 26  1  6
 27 28  1  0
 28 21  1  0
 29 30  1  0
 29 27  1  0
 31 29  2  0
M  END
$$$$
