FRM.pdb
     RDKit          3D

 31 31  0  0  1  0  0  0  0  0999 V2000
    6.5434  -16.0250   26.6294 N   0  0  0  0  0  0  0  0  0  0  0  0
    6.6506  -15.3345   25.3543 C   0  0  1  0  0  0  0  0  0  0  0  0
    7.3554  -14.0000   25.5203 C   0  0  0  0  0  0  0  0  0  0  0  0
    6.5095  -13.0524   26.3083 C   0  0  0  0  0  0  0  0  0  0  0  0
    5.1920  -12.8109   25.9972 C   0  0  0  0  0  0  0  0  0  0  0  0
    4.3936  -11.9524   26.7089 C   0  0  0  0  0  0  0  0  0  0  0  0
    4.9048  -11.2749   27.8044 C   0  0  0  0  0  0  0  0  0  0  0  0
    6.2239  -11.5057   28.1289 C   0  0  0  0  0  0  0  0  0  0  0  0
    7.0198  -12.3785   27.3981 C   0  0  0  0  0  0  0  0  0  0  0  0
    7.3136  -16.1743   24.3310 C   0  0  0  0  0  0  0  0  0  0  0  0
    8.0187  -17.1858   24.6558 O   0  0  0  0  0  0  0  0  0  0  0  0
   10.4905  -14.4546   17.2795 N   0  0  0  0  0  0  0  0  0  0  0  0
    9.4109  -13.8304   17.9538 C   0  0  0  0  0  0  0  0  0  0  0  0
    9.5777  -12.6648   18.4425 N   0  0  0  0  0  0  0  0  0  0  0  0
    8.1596  -14.4988   18.0831 N   0  0  0  0  0  0  0  0  0  0  0  0
    8.1119  -15.9367   18.1950 C   0  0  0  0  0  0  0  0  0  0  0  0
    8.6635  -16.3752   19.5413 C   0  0  0  0  0  0  0  0  0  0  0  0
    7.8471  -15.8032   20.6344 C   0  0  0  0  0  0  0  0  0  0  0  0
    8.2021  -16.4314   21.9827 C   0  0  2  0  0  0  0  0  0  0  0  0
    7.2046  -15.9107   22.9356 N   0  0  0  0  0  0  0  0  0  0  0  0
    9.5664  -16.0329   22.3620 C   0  0  0  0  0  0  0  0  0  0  0  0
    9.8670  -14.8155   22.6005 O   0  0  0  0  0  0  0  0  0  0  0  0
    8.8915  -12.0998   18.9441 C   0  0  0  0  0  0  0  0  0  0  0  0
   10.5496  -15.9530   28.5139 S   0  0  0  0  0  0  0  0  0  0  0  0
   10.4133  -15.1336   26.9350 C   0  0  0  0  0  0  0  0  0  0  0  0
   11.5783  -15.6009   25.6825 C   0  0  0  0  0  0  0  0  0  0  0  0
   11.1506  -16.7157   24.7927 C   0  0  2  0  0  0  0  0  0  0  0  0
   11.7641  -16.6590   23.4163 N   0  0  0  0  0  0  0  0  0  0  0  0
   10.6474  -16.9475   22.4966 C   0  0  0  0  0  0  0  0  0  0  0  0
   12.7154  -17.7814   23.2340 O   0  0  0  0  0  0  0  0  0  0  0  0
   12.2948  -19.0664   22.9764 O   0  0  0  0  0  0  0  0  0  0  0  0
  2  1  1  1
  2 10  1  0
  3  2  1  0
  3  4  1  0
  4  9  2  0
  4  5  1  0
  5  6  2  0
  6  7  1  0
  8  7  2  0
  9  8  1  0
 10 11  2  0
 13 15  1  0
 13 12  1  0
 14 13  2  0
 16 15  1  0
 16 17  1  0
 17 18  1  0
 19 18  1  6
 20 10  1  0
 20 19  1  0
 21 19  1  0
 21 22  2  0
 23 24  1  0
 24 25  1  0
 25 26  1  0
 27 26  1  6
 27 28  1  0
 28 21  1  0
 29 30  1  0
 29 27  1  0
 31 29  2  0
M  END
$$$$
