FRM.pdb
     RDKit          3D

 31 31  0  0  1  0  0  0  0  0999 V2000
    6.3846  -17.8756   20.5906 N   0  0  0  0  0  0  0  0  0  0  0  0
    7.0448  -16.8241   21.3476 C   0  0  1  0  0  0  0  0  0  0  0  0
    6.1899  -15.5702   21.3890 C   0  0  0  0  0  0  0  0  0  0  0  0
    6.9589  -14.3919   20.8845 C   0  0  0  0  0  0  0  0  0  0  0  0
    7.4215  -13.4035   21.7213 C   0  0  0  0  0  0  0  0  0  0  0  0
    8.1355  -12.3173   21.2840 C   0  0  0  0  0  0  0  0  0  0  0  0
    8.4253  -12.1728   19.9366 C   0  0  0  0  0  0  0  0  0  0  0  0
    7.9682  -13.1547   19.0848 C   0  0  0  0  0  0  0  0  0  0  0  0
    7.2463  -14.2492   19.5431 C   0  0  0  0  0  0  0  0  0  0  0  0
    7.4102  -17.2766   22.7091 C   0  0  0  0  0  0  0  0  0  0  0  0
    6.6511  -18.0527   23.3779 O   0  0  0  0  0  0  0  0  0  0  0  0
   11.7306  -18.8030   20.6305 N   0  0  0  0  0  0  0  0  0  0  0  0
   12.9582  -18.9960   21.3128 C   0  0  0  0  0  0  0  0  0  0  0  0
   14.0510  -18.7763   20.6941 N   0  0  0  0  0  0  0  0  0  0  0  0
   12.9675  -19.4306   22.6694 N   0  0  0  0  0  0  0  0  0  0  0  0
   11.7265  -19.7011   23.3544 C   0  0  0  0  0  0  0  0  0  0  0  0
   11.0038  -18.4000   23.6607 C   0  0  0  0  0  0  0  0  0  0  0  0
    9.7725  -18.6737   24.4339 C   0  0  0  0  0  0  0  0  0  0  0  0
    8.9757  -17.3928   24.6852 C   0  0  2  0  0  0  0  0  0  0  0  0
    8.6194  -16.8810   23.3492 N   0  0  0  0  0  0  0  0  0  0  0  0
    9.8139  -16.4341   25.4217 C   0  0  0  0  0  0  0  0  0  0  0  0
   10.8776  -15.9451   24.9130 O   0  0  0  0  0  0  0  0  0  0  0  0
   14.9981  -18.8373   21.0697 C   0  0  0  0  0  0  0  0  0  0  0  0
    5.9984  -12.1558   25.8196 S   0  0  0  0  0  0  0  0  0  0  0  0
    7.0785  -12.6906   27.1350 C   0  0  0  0  0  0  0  0  0  0  0  0
    8.6427  -13.3793   26.6622 C   0  0  0  0  0  0  0  0  0  0  0  0
    9.4978  -13.8580   27.7834 C   0  0  2  0  0  0  0  0  0  0  0  0
   10.4040  -15.0026   27.4056 N   0  0  0  0  0  0  0  0  0  0  0  0
    9.5196  -15.9744   26.7352 C   0  0  0  0  0  0  0  0  0  0  0  0
   10.8874  -15.6954   28.6239 O   0  0  0  0  0  0  0  0  0  0  0  0
   11.8514  -15.1537   29.4434 O   0  0  0  0  0  0  0  0  0  0  0  0
  2  1  1  1
  2 10  1  0
  3  2  1  0
  3  4  1  0
  4  9  2  0
  4  5  1  0
  5  6  2  0
  6  7  1  0
  8  7  2  0
  9  8  1  0
 10 11  2  0
 13 15  1  0
 13 12  1  0
 14 13  2  0
 16 15  1  0
 16 17  1  0
 17 18  1  0
 19 18  1  6
 20 10  1  0
 20 19  1  0
 21 19  1  0
 21 22  2  0
 23 24  1  0
 24 25  1  0
 25 26  1  0
 27 26  1  6
 27 28  1  0
 28 21  1  0
 29 30  1  0
 29 27  1  0
 31 29  2  0
M  END
$$$$
