WGM.pdb
     RDKit          3D

 27 28  0  0  1  0  0  0  0  0999 V2000
   10.5792  -21.3786   -6.4037 N   0  0  0  0  0  0  0  0  0  0  0  0
   11.9514  -21.5647   -5.9782 C   0  0  1  0  0  0  0  0  0  0  0  0
   12.8764  -20.6609   -6.7589 C   0  0  0  0  0  0  0  0  0  0  0  0
   12.9062  -20.9979   -8.2063 C   0  0  0  0  0  0  0  0  0  0  0  0
   12.2303  -22.0086   -8.8535 C   0  0  0  0  0  0  0  0  0  0  0  0
   12.5178  -21.9907  -10.1650 N   0  0  0  0  0  0  0  0  0  0  0  0
   13.3736  -20.9893  -10.4170 C   0  0  0  0  0  0  0  0  0  0  0  0
   13.9659  -20.5538  -11.5803 C   0  0  0  0  0  0  0  0  0  0  0  0
   14.8342  -19.4585  -11.5280 C   0  0  0  0  0  0  0  0  0  0  0  0
   15.0952  -18.8247  -10.3418 C   0  0  0  0  0  0  0  0  0  0  0  0
   14.4969  -19.2727   -9.1968 C   0  0  0  0  0  0  0  0  0  0  0  0
   13.6259  -20.3587   -9.1998 C   0  0  0  0  0  0  0  0  0  0  0  0
   12.0348  -21.1496   -4.5564 C   0  0  0  0  0  0  0  0  0  0  0  0
   11.3761  -20.1407   -4.2027 O   0  0  0  0  0  0  0  0  0  0  0  0
   12.8259  -21.8539   -3.6111 N   0  0  0  0  0  0  0  0  0  0  0  0
   12.8667  -21.4105   -2.2439 C   0  0  0  0  0  0  0  0  0  0  0  0
   13.9155  -22.1087   -1.4617 C   0  0  0  0  0  0  0  0  0  0  0  0
   14.5801  -23.0042   -2.0355 O   0  0  0  0  0  0  0  0  0  0  0  0
   18.6902  -22.5899    4.8757 C   0  0  0  0  0  0  0  0  0  0  0  0
   17.4567  -21.5980    4.0013 S   0  0  0  0  0  0  0  0  0  0  0  0
   16.7786  -22.5360    2.6285 C   0  0  0  0  0  0  0  0  0  0  0  0
   15.7458  -21.8083    1.8457 C   0  0  0  0  0  0  0  0  0  0  0  0
   15.2279  -22.5136    0.6266 C   0  0  2  0  0  0  0  0  0  0  0  0
   14.2043  -21.8163   -0.1012 N   0  0  0  0  0  0  0  0  0  0  0  0
   14.7973  -23.8934    0.9757 C   0  0  0  0  0  0  0  0  0  0  0  0
   15.7016  -24.9433    1.0824 O   0  0  0  0  0  0  0  0  0  0  0  0
   13.5979  -24.1229    1.1793 O   0  0  0  0  0  0  0  0  0  0  0  0
  2 13  1  0
  2  1  1  6
  3  2  1  0
  4  3  1  0
  4  5  2  0
  6  5  1  0
  7  6  1  0
  8  7  2  0
  9  8  1  0
 10  9  2  0
 10 11  1  0
 11 12  2  0
 12  7  1  0
 12  4  1  0
 13 14  2  0
 15 16  1  0
 15 13  1  0
 17 18  2  0
 17 16  1  0
 19 20  1  0
 20 21  1  0
 23 22  1  1
 22 21  1  0
 23 24  1  0
 24 17  1  0
 25 23  1  0
 26 25  1  0
 27 25  2  0
M  END
$$$$
