WGM.pdb
     RDKit          3D

 27 28  0  0  1  0  0  0  0  0999 V2000
   15.6553  -23.0250   -9.9860 N   0  0  0  0  0  0  0  0  0  0  0  0
   17.0356  -23.4258  -10.1667 C   0  0  1  0  0  0  0  0  0  0  0  0
   17.8626  -22.2675  -10.6730 C   0  0  0  0  0  0  0  0  0  0  0  0
   17.4414  -21.8221  -12.0270 C   0  0  0  0  0  0  0  0  0  0  0  0
   16.4692  -20.9013  -12.3500 C   0  0  0  0  0  0  0  0  0  0  0  0
   16.3820  -20.7703  -13.6836 N   0  0  0  0  0  0  0  0  0  0  0  0
   17.2745  -21.5832  -14.2677 C   0  0  0  0  0  0  0  0  0  0  0  0
   17.5794  -21.8200  -15.5886 C   0  0  0  0  0  0  0  0  0  0  0  0
   18.5815  -22.7462  -15.8957 C   0  0  0  0  0  0  0  0  0  0  0  0
   19.2527  -23.4102  -14.9030 C   0  0  0  0  0  0  0  0  0  0  0  0
   18.9350  -23.1610  -13.5967 C   0  0  0  0  0  0  0  0  0  0  0  0
   17.9453  -22.2482  -13.2427 C   0  0  0  0  0  0  0  0  0  0  0  0
   17.5695  -23.7912   -8.8317 C   0  0  0  0  0  0  0  0  0  0  0  0
   17.3762  -22.9887   -7.8854 O   0  0  0  0  0  0  0  0  0  0  0  0
   18.2776  -25.0014   -8.6089 N   0  0  0  0  0  0  0  0  0  0  0  0
   19.2776  -25.0631   -7.5776 C   0  0  0  0  0  0  0  0  0  0  0  0
   18.6829  -25.0153   -6.2200 C   0  0  0  0  0  0  0  0  0  0  0  0
   19.4585  -25.0587   -5.2353 O   0  0  0  0  0  0  0  0  0  0  0  0
   12.9289  -22.8514   -1.2802 C   0  0  0  0  0  0  0  0  0  0  0  0
   13.3539  -23.1287   -3.0159 S   0  0  0  0  0  0  0  0  0  0  0  0
   14.9005  -24.0338   -3.1301 C   0  0  0  0  0  0  0  0  0  0  0  0
   15.4443  -24.1375   -4.5093 C   0  0  0  0  0  0  0  0  0  0  0  0
   16.7438  -24.8747   -4.6492 C   0  0  2  0  0  0  0  0  0  0  0  0
   17.2853  -24.9236   -5.9788 N   0  0  0  0  0  0  0  0  0  0  0  0
   16.6271  -26.2367   -4.0636 C   0  0  0  0  0  0  0  0  0  0  0  0
   16.9449  -26.4982   -2.7362 O   0  0  0  0  0  0  0  0  0  0  0  0
   16.2355  -27.1723   -4.7733 O   0  0  0  0  0  0  0  0  0  0  0  0
  2 13  1  0
  2  1  1  1
  3  2  1  0
  4  3  1  0
  4  5  2  0
  6  5  1  0
  7  6  1  0
  8  7  2  0
  9  8  1  0
 10  9  2  0
 10 11  1  0
 11 12  2  0
 12  7  1  0
 12  4  1  0
 13 14  2  0
 15 16  1  0
 15 13  1  0
 17 18  2  0
 17 16  1  0
 19 20  1  0
 20 21  1  0
 23 22  1  6
 22 21  1  0
 23 24  1  0
 24 17  1  0
 25 23  1  0
 26 25  1  0
 27 25  2  0
M  END
$$$$
