WGM.pdb
     RDKit          3D

 27 28  0  0  1  0  0  0  0  0999 V2000
   23.0558  -19.4860  -16.6493 N   0  0  0  0  0  0  0  0  0  0  0  0
   23.4161  -19.0704  -15.3091 C   0  0  1  0  0  0  0  0  0  0  0  0
   22.9501  -20.0880  -14.2946 C   0  0  0  0  0  0  0  0  0  0  0  0
   21.6200  -19.7487  -13.7244 C   0  0  0  0  0  0  0  0  0  0  0  0
   20.4939  -19.3281  -14.3969 C   0  0  0  0  0  0  0  0  0  0  0  0
   19.4891  -19.1207  -13.5306 N   0  0  0  0  0  0  0  0  0  0  0  0
   19.9129  -19.3923  -12.2875 C   0  0  0  0  0  0  0  0  0  0  0  0
   19.2813  -19.3391  -11.0661 C   0  0  0  0  0  0  0  0  0  0  0  0
   19.9992  -19.6891   -9.9178 C   0  0  0  0  0  0  0  0  0  0  0  0
   21.3098  -20.0796  -10.0003 C   0  0  0  0  0  0  0  0  0  0  0  0
   21.9195  -20.1260  -11.2233 C   0  0  0  0  0  0  0  0  0  0  0  0
   21.2456  -19.7868  -12.3933 C   0  0  0  0  0  0  0  0  0  0  0  0
   24.8975  -19.0334  -15.2397 C   0  0  0  0  0  0  0  0  0  0  0  0
   25.5350  -19.8911  -15.8993 O   0  0  0  0  0  0  0  0  0  0  0  0
   25.5914  -18.0704  -14.4608 N   0  0  0  0  0  0  0  0  0  0  0  0
   26.9940  -18.2439  -14.1961 C   0  0  0  0  0  0  0  0  0  0  0  0
   27.2591  -19.4296  -13.3459 C   0  0  0  0  0  0  0  0  0  0  0  0
   27.5779  -20.5018  -13.9131 O   0  0  0  0  0  0  0  0  0  0  0  0
   28.5076  -20.0711   -6.6268 C   0  0  0  0  0  0  0  0  0  0  0  0
   26.9490  -19.3636   -7.2102 S   0  0  0  0  0  0  0  0  0  0  0  0
   26.5591  -20.0040   -8.8418 C   0  0  0  0  0  0  0  0  0  0  0  0
   27.7502  -20.2977   -9.6806 C   0  0  0  0  0  0  0  0  0  0  0  0
   27.4808  -20.5683  -11.1319 C   0  0  2  0  0  0  0  0  0  0  0  0
   27.1704  -19.4132  -11.9275 N   0  0  0  0  0  0  0  0  0  0  0  0
   26.4366  -21.6176  -11.2734 C   0  0  0  0  0  0  0  0  0  0  0  0
   26.6844  -22.9504  -10.9676 O   0  0  0  0  0  0  0  0  0  0  0  0
   25.3088  -21.3028  -11.6752 O   0  0  0  0  0  0  0  0  0  0  0  0
  2 13  1  0
  2  1  1  6
  3  2  1  0
  4  3  1  0
  4  5  2  0
  6  5  1  0
  7  6  1  0
  8  7  2  0
  9  8  1  0
 10  9  2  0
 10 11  1  0
 11 12  2  0
 12  7  1  0
 12  4  1  0
 13 14  2  0
 15 16  1  0
 15 13  1  0
 17 18  2  0
 17 16  1  0
 19 20  1  0
 20 21  1  0
 23 22  1  1
 22 21  1  0
 23 24  1  0
 24 17  1  0
 25 23  1  0
 26 25  1  0
 27 25  2  0
M  END
$$$$
