WGM.pdb
     RDKit          3D

 27 28  0  0  1  0  0  0  0  0999 V2000
   26.5434  -22.1787  -10.7225 N   0  0  0  0  0  0  0  0  0  0  0  0
   25.9153  -21.1161   -9.9641 C   0  0  1  0  0  0  0  0  0  0  0  0
   26.8861  -19.9815   -9.7360 C   0  0  0  0  0  0  0  0  0  0  0  0
   27.9830  -20.3552   -8.8052 C   0  0  0  0  0  0  0  0  0  0  0  0
   29.0601  -21.1771   -9.0539 C   0  0  0  0  0  0  0  0  0  0  0  0
   29.8325  -21.2701   -7.9594 N   0  0  0  0  0  0  0  0  0  0  0  0
   29.2997  -20.5286   -6.9771 C   0  0  0  0  0  0  0  0  0  0  0  0
   29.6981  -20.2919   -5.6813 C   0  0  0  0  0  0  0  0  0  0  0  0
   28.9187  -19.4543   -4.8766 C   0  0  0  0  0  0  0  0  0  0  0  0
   27.7766  -18.8755   -5.3639 C   0  0  0  0  0  0  0  0  0  0  0  0
   27.3977  -19.1231   -6.6541 C   0  0  0  0  0  0  0  0  0  0  0  0
   28.1411  -19.9497   -7.4922 C   0  0  0  0  0  0  0  0  0  0  0  0
   24.8047  -20.5798  -10.7885 C   0  0  0  0  0  0  0  0  0  0  0  0
   24.1021  -19.6626  -10.2967 O   0  0  0  0  0  0  0  0  0  0  0  0
   24.5279  -21.0716  -12.0913 N   0  0  0  0  0  0  0  0  0  0  0  0
   23.3861  -20.5776  -12.8123 C   0  0  0  0  0  0  0  0  0  0  0  0
   22.2419  -21.5195  -12.7589 C   0  0  0  0  0  0  0  0  0  0  0  0
   22.1718  -22.4116  -13.6376 O   0  0  0  0  0  0  0  0  0  0  0  0
   20.0301  -24.9193   -7.9266 C   0  0  0  0  0  0  0  0  0  0  0  0
   18.4405  -24.7340   -8.7684 S   0  0  0  0  0  0  0  0  0  0  0  0
   18.6806  -23.9421  -10.3620 C   0  0  0  0  0  0  0  0  0  0  0  0
   19.8212  -22.9902  -10.4025 C   0  0  0  0  0  0  0  0  0  0  0  0
   20.1317  -22.3941  -11.7442 C   0  0  2  0  0  0  0  0  0  0  0  0
   21.2253  -21.4628  -11.7674 N   0  0  0  0  0  0  0  0  0  0  0  0
   18.9047  -21.8006  -12.3388 C   0  0  0  0  0  0  0  0  0  0  0  0
   18.0616  -22.5287  -13.1698 O   0  0  0  0  0  0  0  0  0  0  0  0
   18.6178  -20.6222  -12.0912 O   0  0  0  0  0  0  0  0  0  0  0  0
  2 13  1  0
  2  1  1  6
  3  2  1  0
  4  3  1  0
  4  5  2  0
  6  5  1  0
  7  6  1  0
  8  7  2  0
  9  8  1  0
 10  9  2  0
 10 11  1  0
 11 12  2  0
 12  7  1  0
 12  4  1  0
 13 14  2  0
 15 16  1  0
 15 13  1  0
 17 18  2  0
 17 16  1  0
 19 20  1  0
 20 21  1  0
 23 22  1  1
 22 21  1  0
 23 24  1  0
 24 17  1  0
 25 23  1  0
 26 25  1  0
 27 25  2  0
M  END
$$$$
