WGM.pdb
     RDKit          3D

 27 28  0  0  1  0  0  0  0  0999 V2000
   25.4434  -20.2744   -9.7569 N   0  0  0  0  0  0  0  0  0  0  0  0
   26.8671  -20.4721   -9.9376 C   0  0  1  0  0  0  0  0  0  0  0  0
   27.4631  -21.1670   -8.7360 C   0  0  0  0  0  0  0  0  0  0  0  0
   27.7040  -20.2328   -7.6052 C   0  0  0  0  0  0  0  0  0  0  0  0
   27.1513  -18.9871   -7.4049 C   0  0  0  0  0  0  0  0  0  0  0  0
   27.6193  -18.4519   -6.2658 N   0  0  0  0  0  0  0  0  0  0  0  0
   28.4763  -19.3097   -5.6928 C   0  0  0  0  0  0  0  0  0  0  0  0
   29.2144  -19.2390   -4.5336 C   0  0  0  0  0  0  0  0  0  0  0  0
   30.0388  -20.3155   -4.1902 C   0  0  0  0  0  0  0  0  0  0  0  0
   30.1148  -21.4253   -4.9899 C   0  0  0  0  0  0  0  0  0  0  0  0
   29.3735  -21.4763   -6.1377 C   0  0  0  0  0  0  0  0  0  0  0  0
   28.5393  -20.4295   -6.5204 C   0  0  0  0  0  0  0  0  0  0  0  0
   27.0450  -21.3793  -11.0978 C   0  0  0  0  0  0  0  0  0  0  0  0
   26.7214  -22.5839  -10.9525 O   0  0  0  0  0  0  0  0  0  0  0  0
   27.5614  -20.9228  -12.3389 N   0  0  0  0  0  0  0  0  0  0  0  0
   26.8657  -19.8961  -13.0665 C   0  0  0  0  0  0  0  0  0  0  0  0
   25.7353  -20.4406  -13.8570 C   0  0  0  0  0  0  0  0  0  0  0  0
   25.7011  -20.1905  -15.0855 O   0  0  0  0  0  0  0  0  0  0  0  0
   22.4200  -25.2807  -17.2735 C   0  0  0  0  0  0  0  0  0  0  0  0
   22.1495  -24.7028  -15.5814 S   0  0  0  0  0  0  0  0  0  0  0  0
   22.9785  -23.1296  -15.3323 C   0  0  0  0  0  0  0  0  0  0  0  0
   22.6803  -22.4848  -14.0269 C   0  0  0  0  0  0  0  0  0  0  0  0
   23.3431  -21.1610  -13.7817 C   0  0  2  0  0  0  0  0  0  0  0  0
   24.6933  -21.2277  -13.2960 N   0  0  0  0  0  0  0  0  0  0  0  0
   22.4935  -20.3168  -12.9002 C   0  0  0  0  0  0  0  0  0  0  0  0
   21.2700  -19.8097  -13.3212 O   0  0  0  0  0  0  0  0  0  0  0  0
   22.8804  -20.0529  -11.7543 O   0  0  0  0  0  0  0  0  0  0  0  0
  2 13  1  0
  2  1  1  1
  3  2  1  0
  4  3  1  0
  4  5  2  0
  6  5  1  0
  7  6  1  0
  8  7  2  0
  9  8  1  0
 10  9  2  0
 10 11  1  0
 11 12  2  0
 12  7  1  0
 12  4  1  0
 13 14  2  0
 15 16  1  0
 15 13  1  0
 17 18  2  0
 17 16  1  0
 19 20  1  0
 20 21  1  0
 23 22  1  1
 22 21  1  0
 23 24  1  0
 24 17  1  0
 25 23  1  0
 26 25  1  0
 27 25  2  0
M  END
$$$$
