WGM.pdb
     RDKit          3D

 27 28  0  0  1  0  0  0  0  0999 V2000
   22.3182  -20.1187  -16.5100 N   0  0  0  0  0  0  0  0  0  0  0  0
   21.8951  -19.6477  -15.2070 C   0  0  1  0  0  0  0  0  0  0  0  0
   20.5305  -20.1960  -14.8619 C   0  0  0  0  0  0  0  0  0  0  0  0
   19.8966  -19.4643  -13.7340 C   0  0  0  0  0  0  0  0  0  0  0  0
   19.0315  -18.3944  -13.7997 C   0  0  0  0  0  0  0  0  0  0  0  0
   18.6771  -18.0104  -12.5627 N   0  0  0  0  0  0  0  0  0  0  0  0
   19.2847  -18.7982  -11.6633 C   0  0  0  0  0  0  0  0  0  0  0  0
   19.2549  -18.8198  -10.2877 C   0  0  0  0  0  0  0  0  0  0  0  0
   20.0116  -19.7814   -9.6100 C   0  0  0  0  0  0  0  0  0  0  0  0
   20.7719  -20.6900  -10.2980 C   0  0  0  0  0  0  0  0  0  0  0  0
   20.7882  -20.6520  -11.6647 C   0  0  0  0  0  0  0  0  0  0  0  0
   20.0517  -19.7135  -12.3822 C   0  0  0  0  0  0  0  0  0  0  0  0
   22.8480  -20.1911  -14.2082 C   0  0  0  0  0  0  0  0  0  0  0  0
   23.2538  -21.3686  -14.3683 O   0  0  0  0  0  0  0  0  0  0  0  0
   23.2988  -19.4240  -13.1019 N   0  0  0  0  0  0  0  0  0  0  0  0
   24.1866  -20.0160  -12.1381 C   0  0  0  0  0  0  0  0  0  0  0  0
   25.6095  -19.8821  -12.5338 C   0  0  0  0  0  0  0  0  0  0  0  0
   25.8849  -19.1246  -13.4946 O   0  0  0  0  0  0  0  0  0  0  0  0
   29.4573  -21.6030   -7.1372 C   0  0  0  0  0  0  0  0  0  0  0  0
   29.9499  -20.7011   -8.6252 S   0  0  0  0  0  0  0  0  0  0  0  0
   28.7693  -21.0045   -9.9436 C   0  0  0  0  0  0  0  0  0  0  0  0
   29.0318  -20.2311  -11.1852 C   0  0  0  0  0  0  0  0  0  0  0  0
   28.0398  -20.4156  -12.2959 C   0  0  2  0  0  0  0  0  0  0  0  0
   26.6721  -20.5656  -11.8829 N   0  0  0  0  0  0  0  0  0  0  0  0
   28.4619  -21.5335  -13.1810 C   0  0  0  0  0  0  0  0  0  0  0  0
   29.5721  -21.4375  -14.0115 O   0  0  0  0  0  0  0  0  0  0  0  0
   27.8100  -22.5859  -13.1844 O   0  0  0  0  0  0  0  0  0  0  0  0
  2 13  1  0
  2  1  1  6
  3  2  1  0
  4  3  1  0
  4  5  2  0
  6  5  1  0
  7  6  1  0
  8  7  2  0
  9  8  1  0
 10  9  2  0
 10 11  1  0
 11 12  2  0
 12  7  1  0
 12  4  1  0
 13 14  2  0
 15 16  1  0
 15 13  1  0
 17 18  2  0
 17 16  1  0
 19 20  1  0
 20 21  1  0
 23 22  1  1
 22 21  1  0
 23 24  1  0
 24 17  1  0
 25 23  1  0
 26 25  1  0
 27 25  2  0
M  END
$$$$
