WGM.pdb
     RDKit          3D

 27 28  0  0  1  0  0  0  0  0999 V2000
   26.7940  -22.5753  -12.3941 N   0  0  0  0  0  0  0  0  0  0  0  0
   25.9714  -21.4864  -11.9080 C   0  0  1  0  0  0  0  0  0  0  0  0
   26.7971  -20.2332  -11.7363 C   0  0  0  0  0  0  0  0  0  0  0  0
   27.9073  -20.4170  -10.7651 C   0  0  0  0  0  0  0  0  0  0  0  0
   29.1802  -20.8808  -11.0136 C   0  0  0  0  0  0  0  0  0  0  0  0
   29.8934  -20.9047   -9.8761 N   0  0  0  0  0  0  0  0  0  0  0  0
   29.1289  -20.4671   -8.8649 C   0  0  0  0  0  0  0  0  0  0  0  0
   29.3820  -20.3026   -7.5223 C   0  0  0  0  0  0  0  0  0  0  0  0
   28.3631  -19.8161   -6.6967 C   0  0  0  0  0  0  0  0  0  0  0  0
   27.1311  -19.5062   -7.2095 C   0  0  0  0  0  0  0  0  0  0  0  0
   26.8993  -19.6767   -8.5462 C   0  0  0  0  0  0  0  0  0  0  0  0
   27.8824  -20.1579   -9.4065 C   0  0  0  0  0  0  0  0  0  0  0  0
   24.9554  -21.1990  -12.9500 C   0  0  0  0  0  0  0  0  0  0  0  0
   25.2868  -21.3625  -14.1501 O   0  0  0  0  0  0  0  0  0  0  0  0
   23.6473  -20.7534  -12.6243 N   0  0  0  0  0  0  0  0  0  0  0  0
   22.6837  -20.5449  -13.6709 C   0  0  0  0  0  0  0  0  0  0  0  0
   21.3613  -20.1359  -13.1388 C   0  0  0  0  0  0  0  0  0  0  0  0
   21.1764  -20.2090  -11.9005 O   0  0  0  0  0  0  0  0  0  0  0  0
   13.8993  -17.5749  -14.2001 C   0  0  0  0  0  0  0  0  0  0  0  0
   15.4660  -17.9459  -15.0235 S   0  0  0  0  0  0  0  0  0  0  0  0
   16.6112  -18.6859  -13.8550 C   0  0  0  0  0  0  0  0  0  0  0  0
   17.9680  -18.9351  -14.4077 C   0  0  0  0  0  0  0  0  0  0  0  0
   18.9453  -19.5926  -13.4779 C   0  0  2  0  0  0  0  0  0  0  0  0
   20.2976  -19.6677  -13.9568 N   0  0  0  0  0  0  0  0  0  0  0  0
   18.4430  -20.9307  -13.0674 C   0  0  0  0  0  0  0  0  0  0  0  0
   18.8223  -22.0944  -13.7256 O   0  0  0  0  0  0  0  0  0  0  0  0
   17.6625  -21.0199  -12.1107 O   0  0  0  0  0  0  0  0  0  0  0  0
  2 13  1  0
  2  1  1  6
  3  2  1  0
  4  3  1  0
  4  5  2  0
  6  5  1  0
  7  6  1  0
  8  7  2  0
  9  8  1  0
 10  9  2  0
 10 11  1  0
 11 12  2  0
 12  7  1  0
 12  4  1  0
 13 14  2  0
 15 16  1  0
 15 13  1  0
 17 18  2  0
 17 16  1  0
 19 20  1  0
 20 21  1  0
 23 22  1  6
 22 21  1  0
 23 24  1  0
 24 17  1  0
 25 23  1  0
 26 25  1  0
 27 25  2  0
M  END
$$$$
