WGM.pdb
     RDKit          3D

 27 28  0  0  1  0  0  0  0  0999 V2000
   20.7668  -16.5779  -18.2904 N   0  0  0  0  0  0  0  0  0  0  0  0
   20.3081  -16.0582  -17.0183 C   0  0  1  0  0  0  0  0  0  0  0  0
   21.4792  -15.7764  -16.1067 C   0  0  0  0  0  0  0  0  0  0  0  0
   21.9210  -16.9861  -15.3646 C   0  0  0  0  0  0  0  0  0  0  0  0
   22.9078  -17.8805  -15.7161 C   0  0  0  0  0  0  0  0  0  0  0  0
   23.0101  -18.8442  -14.7866 N   0  0  0  0  0  0  0  0  0  0  0  0
   22.1132  -18.6196  -13.8152 C   0  0  0  0  0  0  0  0  0  0  0  0
   21.8181  -19.3022  -12.6573 C   0  0  0  0  0  0  0  0  0  0  0  0
   20.8068  -18.8138  -11.8235 C   0  0  0  0  0  0  0  0  0  0  0  0
   20.1176  -17.6750  -12.1477 C   0  0  0  0  0  0  0  0  0  0  0  0
   20.4258  -17.0111  -13.3026 C   0  0  0  0  0  0  0  0  0  0  0  0
   21.4240  -17.4592  -14.1635 C   0  0  0  0  0  0  0  0  0  0  0  0
   19.6411  -14.7600  -17.2843 C   0  0  0  0  0  0  0  0  0  0  0  0
   20.1443  -14.0132  -18.1594 O   0  0  0  0  0  0  0  0  0  0  0  0
   18.4734  -14.3558  -16.5853 N   0  0  0  0  0  0  0  0  0  0  0  0
   17.8388  -13.1092  -16.9180 C   0  0  0  0  0  0  0  0  0  0  0  0
   16.6371  -12.8553  -16.0869 C   0  0  0  0  0  0  0  0  0  0  0  0
   16.2996  -13.7319  -15.2560 O   0  0  0  0  0  0  0  0  0  0  0  0
   10.8819   -8.0255  -13.4688 C   0  0  0  0  0  0  0  0  0  0  0  0
   12.1761   -8.2412  -14.7133 S   0  0  0  0  0  0  0  0  0  0  0  0
   12.8711   -9.8926  -14.5935 C   0  0  0  0  0  0  0  0  0  0  0  0
   14.0682  -10.1122  -15.4463 C   0  0  0  0  0  0  0  0  0  0  0  0
   14.6490  -11.4955  -15.4191 C   0  0  2  0  0  0  0  0  0  0  0  0
   15.8518  -11.6747  -16.1839 N   0  0  0  0  0  0  0  0  0  0  0  0
   13.6146  -12.4943  -15.7982 C   0  0  0  0  0  0  0  0  0  0  0  0
   12.8838  -13.1963  -14.8472 O   0  0  0  0  0  0  0  0  0  0  0  0
   13.3910  -12.7134  -16.9959 O   0  0  0  0  0  0  0  0  0  0  0  0
  2 13  1  0
  2  1  1  6
  3  2  1  0
  4  3  1  0
  4  5  2  0
  6  5  1  0
  7  6  1  0
  8  7  2  0
  9  8  1  0
 10  9  2  0
 10 11  1  0
 11 12  2  0
 12  7  1  0
 12  4  1  0
 13 14  2  0
 15 16  1  0
 15 13  1  0
 17 18  2  0
 17 16  1  0
 19 20  1  0
 20 21  1  0
 23 22  1  6
 22 21  1  0
 23 24  1  0
 24 17  1  0
 25 23  1  0
 26 25  1  0
 27 25  2  0
M  END
$$$$
