WGM.pdb
     RDKit          3D

 27 28  0  0  1  0  0  0  0  0999 V2000
   26.3205  -22.2138  -13.1020 N   0  0  0  0  0  0  0  0  0  0  0  0
   25.5981  -21.6393  -11.9855 C   0  0  1  0  0  0  0  0  0  0  0  0
   26.3012  -20.4022  -11.4785 C   0  0  0  0  0  0  0  0  0  0  0  0
   27.4720  -20.7287  -10.6230 C   0  0  0  0  0  0  0  0  0  0  0  0
   28.7294  -21.1223  -11.0248 C   0  0  0  0  0  0  0  0  0  0  0  0
   29.5137  -21.3260   -9.9540 N   0  0  0  0  0  0  0  0  0  0  0  0
   28.8125  -21.0785   -8.8380 C   0  0  0  0  0  0  0  0  0  0  0  0
   29.1497  -21.1390   -7.5052 C   0  0  0  0  0  0  0  0  0  0  0  0
   28.1824  -20.8164   -6.5477 C   0  0  0  0  0  0  0  0  0  0  0  0
   26.9183  -20.4452   -6.9234 C   0  0  0  0  0  0  0  0  0  0  0  0
   26.6029  -20.3912   -8.2527 C   0  0  0  0  0  0  0  0  0  0  0  0
   27.5321  -20.7034   -9.2413 C   0  0  0  0  0  0  0  0  0  0  0  0
   24.2708  -21.2097  -12.4902 C   0  0  0  0  0  0  0  0  0  0  0  0
   24.1927  -20.0865  -13.0461 O   0  0  0  0  0  0  0  0  0  0  0  0
   23.1154  -22.0244  -12.3598 N   0  0  0  0  0  0  0  0  0  0  0  0
   21.8139  -21.4579  -12.5888 C   0  0  0  0  0  0  0  0  0  0  0  0
   20.7307  -22.4526  -12.3975 C   0  0  0  0  0  0  0  0  0  0  0  0
   20.7983  -23.5279  -13.0393 O   0  0  0  0  0  0  0  0  0  0  0  0
   16.4950  -23.7217   -7.3401 C   0  0  0  0  0  0  0  0  0  0  0  0
   18.0441  -24.6460   -7.4666 S   0  0  0  0  0  0  0  0  0  0  0  0
   18.7144  -24.4928   -9.1254 C   0  0  0  0  0  0  0  0  0  0  0  0
   18.1119  -23.3952   -9.9260 C   0  0  0  0  0  0  0  0  0  0  0  0
   18.6166  -23.2546  -11.3322 C   0  0  2  0  0  0  0  0  0  0  0  0
   19.6247  -22.2501  -11.5282 N   0  0  0  0  0  0  0  0  0  0  0  0
   17.4780  -23.0668  -12.2701 C   0  0  0  0  0  0  0  0  0  0  0  0
   16.8995  -24.1318  -12.9501 O   0  0  0  0  0  0  0  0  0  0  0  0
   17.0252  -21.9299  -12.4568 O   0  0  0  0  0  0  0  0  0  0  0  0
  2 13  1  0
  2  1  1  6
  3  2  1  0
  4  3  1  0
  4  5  2  0
  6  5  1  0
  7  6  1  0
  8  7  2  0
  9  8  1  0
 10  9  2  0
 10 11  1  0
 11 12  2  0
 12  7  1  0
 12  4  1  0
 13 14  2  0
 15 16  1  0
 15 13  1  0
 17 18  2  0
 17 16  1  0
 19 20  1  0
 20 21  1  0
 23 22  1  1
 22 21  1  0
 23 24  1  0
 24 17  1  0
 25 23  1  0
 26 25  1  0
 27 25  2  0
M  END
$$$$
