WGM.pdb
     RDKit          3D

 27 28  0  0  1  0  0  0  0  0999 V2000
   24.8705  -20.3772   -9.6471 N   0  0  0  0  0  0  0  0  0  0  0  0
   26.1838  -20.6767  -10.1800 C   0  0  1  0  0  0  0  0  0  0  0  0
   27.0900  -21.2047   -9.0928 C   0  0  0  0  0  0  0  0  0  0  0  0
   27.2196  -20.2563   -7.9557 C   0  0  0  0  0  0  0  0  0  0  0  0
   26.5274  -19.0834   -7.7494 C   0  0  0  0  0  0  0  0  0  0  0  0
   26.9283  -18.5055   -6.6056 N   0  0  0  0  0  0  0  0  0  0  0  0
   27.8766  -19.2632   -6.0352 C   0  0  0  0  0  0  0  0  0  0  0  0
   28.5990  -19.1159   -4.8733 C   0  0  0  0  0  0  0  0  0  0  0  0
   29.5405  -20.0932   -4.5340 C   0  0  0  0  0  0  0  0  0  0  0  0
   29.7450  -21.1818   -5.3402 C   0  0  0  0  0  0  0  0  0  0  0  0
   29.0171  -21.3100   -6.4906 C   0  0  0  0  0  0  0  0  0  0  0  0
   28.0694  -20.3631   -6.8694 C   0  0  0  0  0  0  0  0  0  0  0  0
   26.0206  -21.7634  -11.1767 C   0  0  0  0  0  0  0  0  0  0  0  0
   25.0086  -22.5002  -11.0772 O   0  0  0  0  0  0  0  0  0  0  0  0
   26.9637  -21.9809  -12.2154 N   0  0  0  0  0  0  0  0  0  0  0  0
   26.6777  -21.5186  -13.5465 C   0  0  0  0  0  0  0  0  0  0  0  0
   25.5274  -22.2335  -14.1506 C   0  0  0  0  0  0  0  0  0  0  0  0
   25.6418  -22.6424  -15.3307 O   0  0  0  0  0  0  0  0  0  0  0  0
   20.8927  -26.1550  -11.4881 C   0  0  0  0  0  0  0  0  0  0  0  0
   19.9293  -25.2628  -12.7315 S   0  0  0  0  0  0  0  0  0  0  0  0
   21.0315  -24.4036  -13.8589 C   0  0  0  0  0  0  0  0  0  0  0  0
   22.2124  -23.7851  -13.2020 C   0  0  0  0  0  0  0  0  0  0  0  0
   23.1765  -23.0816  -14.1116 C   0  0  2  0  0  0  0  0  0  0  0  0
   24.3074  -22.4775  -13.4636 N   0  0  0  0  0  0  0  0  0  0  0  0
   22.4549  -22.0998  -14.9642 C   0  0  0  0  0  0  0  0  0  0  0  0
   22.0206  -22.4153  -16.2460 O   0  0  0  0  0  0  0  0  0  0  0  0
   22.2299  -20.9640  -14.5262 O   0  0  0  0  0  0  0  0  0  0  0  0
  2 13  1  0
  2  1  1  1
  3  2  1  0
  4  3  1  0
  4  5  2  0
  6  5  1  0
  7  6  1  0
  8  7  2  0
  9  8  1  0
 10  9  2  0
 10 11  1  0
 11 12  2  0
 12  7  1  0
 12  4  1  0
 13 14  2  0
 15 16  1  0
 15 13  1  0
 17 18  2  0
 17 16  1  0
 19 20  1  0
 20 21  1  0
 23 22  1  1
 22 21  1  0
 23 24  1  0
 24 17  1  0
 25 23  1  0
 26 25  1  0
 27 25  2  0
M  END
$$$$
