WGM.pdb
     RDKit          3D

 27 28  0  0  1  0  0  0  0  0999 V2000
   27.4194  -21.1241  -11.0349 N   0  0  0  0  0  0  0  0  0  0  0  0
   26.2781  -21.0304  -10.1475 C   0  0  1  0  0  0  0  0  0  0  0  0
   26.5809  -20.1097   -8.9888 C   0  0  0  0  0  0  0  0  0  0  0  0
   27.8393  -20.4781   -8.2888 C   0  0  0  0  0  0  0  0  0  0  0  0
   28.8994  -21.2064   -8.7819 C   0  0  0  0  0  0  0  0  0  0  0  0
   29.8519  -21.3289   -7.8434 N   0  0  0  0  0  0  0  0  0  0  0  0
   29.4574  -20.6989   -6.7271 C   0  0  0  0  0  0  0  0  0  0  0  0
   30.0591  -20.5330   -5.5007 C   0  0  0  0  0  0  0  0  0  0  0  0
   29.3865  -19.8105   -4.5097 C   0  0  0  0  0  0  0  0  0  0  0  0
   28.1489  -19.2738   -4.7492 C   0  0  0  0  0  0  0  0  0  0  0  0
   27.5679  -19.4498   -5.9743 C   0  0  0  0  0  0  0  0  0  0  0  0
   28.1988  -20.1612   -6.9911 C   0  0  0  0  0  0  0  0  0  0  0  0
   25.1689  -20.4133  -10.9155 C   0  0  0  0  0  0  0  0  0  0  0  0
   24.9019  -19.2073  -10.6895 O   0  0  0  0  0  0  0  0  0  0  0  0
   24.4218  -21.1425  -11.8776 N   0  0  0  0  0  0  0  0  0  0  0  0
   23.1288  -20.6653  -12.2874 C   0  0  0  0  0  0  0  0  0  0  0  0
   22.0325  -21.5397  -11.8049 C   0  0  0  0  0  0  0  0  0  0  0  0
   22.2044  -22.1606  -10.7290 O   0  0  0  0  0  0  0  0  0  0  0  0
   20.1349  -23.2175   -7.8391 C   0  0  0  0  0  0  0  0  0  0  0  0
   18.6392  -23.8793   -8.6106 S   0  0  0  0  0  0  0  0  0  0  0  0
   18.1501  -22.8385   -9.9895 C   0  0  0  0  0  0  0  0  0  0  0  0
   19.2616  -22.0475  -10.5789 C   0  0  0  0  0  0  0  0  0  0  0  0
   19.7174  -22.4714  -11.9444 C   0  0  2  0  0  0  0  0  0  0  0  0
   20.8026  -21.7094  -12.4967 N   0  0  0  0  0  0  0  0  0  0  0  0
   18.5618  -22.5207  -12.8791 C   0  0  0  0  0  0  0  0  0  0  0  0
   18.0106  -23.7224  -13.3074 O   0  0  0  0  0  0  0  0  0  0  0  0
   18.0694  -21.4631  -13.2934 O   0  0  0  0  0  0  0  0  0  0  0  0
  2 13  1  0
  2  1  1  6
  3  2  1  0
  4  3  1  0
  4  5  2  0
  6  5  1  0
  7  6  1  0
  8  7  2  0
  9  8  1  0
 10  9  2  0
 10 11  1  0
 11 12  2  0
 12  7  1  0
 12  4  1  0
 13 14  2  0
 15 16  1  0
 15 13  1  0
 17 18  2  0
 17 16  1  0
 19 20  1  0
 20 21  1  0
 23 22  1  1
 22 21  1  0
 23 24  1  0
 24 17  1  0
 25 23  1  0
 26 25  1  0
 27 25  2  0
M  END
$$$$
