WGM.pdb
     RDKit          3D

 27 28  0  0  1  0  0  0  0  0999 V2000
   26.6850  -21.7489  -10.6312 N   0  0  0  0  0  0  0  0  0  0  0  0
   25.8122  -21.1416   -9.6473 C   0  0  1  0  0  0  0  0  0  0  0  0
   26.4620  -19.9183   -9.0445 C   0  0  0  0  0  0  0  0  0  0  0  0
   27.7375  -20.2396   -8.3523 C   0  0  0  0  0  0  0  0  0  0  0  0
   28.8471  -20.8683   -8.8727 C   0  0  0  0  0  0  0  0  0  0  0  0
   29.7995  -20.9777   -7.9324 N   0  0  0  0  0  0  0  0  0  0  0  0
   29.3563  -20.4363   -6.7882 C   0  0  0  0  0  0  0  0  0  0  0  0
   29.9375  -20.2971   -5.5486 C   0  0  0  0  0  0  0  0  0  0  0  0
   29.2115  -19.6753   -4.5274 C   0  0  0  0  0  0  0  0  0  0  0  0
   27.9425  -19.2099   -4.7506 C   0  0  0  0  0  0  0  0  0  0  0  0
   27.3826  -19.3578   -5.9892 C   0  0  0  0  0  0  0  0  0  0  0  0
   28.0664  -19.9699   -7.0360 C   0  0  0  0  0  0  0  0  0  0  0  0
   24.5944  -20.6818  -10.3588 C   0  0  0  0  0  0  0  0  0  0  0  0
   24.5802  -20.7720  -11.6112 O   0  0  0  0  0  0  0  0  0  0  0  0
   23.4719  -20.1546   -9.6676 N   0  0  0  0  0  0  0  0  0  0  0  0
   22.3239  -19.7069  -10.4086 C   0  0  0  0  0  0  0  0  0  0  0  0
   21.4030  -20.8215  -10.7383 C   0  0  0  0  0  0  0  0  0  0  0  0
   21.4958  -21.3460  -11.8738 O   0  0  0  0  0  0  0  0  0  0  0  0
   17.2599  -24.7452   -7.0224 C   0  0  0  0  0  0  0  0  0  0  0  0
   18.9816  -24.4109   -6.5817 S   0  0  0  0  0  0  0  0  0  0  0  0
   19.8229  -23.6204   -7.9570 C   0  0  0  0  0  0  0  0  0  0  0  0
   18.9126  -23.1140   -9.0170 C   0  0  0  0  0  0  0  0  0  0  0  0
   19.5729  -22.4288  -10.1773 C   0  0  2  0  0  0  0  0  0  0  0  0
   20.4249  -21.3233   -9.8375 N   0  0  0  0  0  0  0  0  0  0  0  0
   18.5554  -22.0353  -11.1880 C   0  0  0  0  0  0  0  0  0  0  0  0
   18.2989  -22.8068  -12.3151 O   0  0  0  0  0  0  0  0  0  0  0  0
   17.9123  -20.9897  -11.0282 O   0  0  0  0  0  0  0  0  0  0  0  0
  2 13  1  0
  2  1  1  6
  3  2  1  0
  4  3  1  0
  4  5  2  0
  6  5  1  0
  7  6  1  0
  8  7  2  0
  9  8  1  0
 10  9  2  0
 10 11  1  0
 11 12  2  0
 12  7  1  0
 12  4  1  0
 13 14  2  0
 15 16  1  0
 15 13  1  0
 17 18  2  0
 17 16  1  0
 19 20  1  0
 20 21  1  0
 23 22  1  1
 22 21  1  0
 23 24  1  0
 24 17  1  0
 25 23  1  0
 26 25  1  0
 27 25  2  0
M  END
$$$$
