VYW.pdb
     RDKit          3D

 34 36  0  0  1  0  0  0  0  0999 V2000
   25.5454  -18.9165  -16.6531 C   0  0  0  0  0  0  0  0  0  0  0  0
   24.1836  -19.0690  -15.9663 C   0  0  2  0  0  0  0  0  0  0  0  0
   23.2301  -18.0151  -16.3914 C   0  0  0  0  0  0  0  0  0  0  0  0
   24.3962  -19.2355  -14.5150 C   0  0  2  0  0  0  0  0  0  0  0  0
   24.6384  -17.9699  -13.8488 N   0  0  0  0  0  0  0  0  0  0  0  0
   25.3784  -20.2583  -14.1063 C   0  0  0  0  0  0  0  0  0  0  0  0
   25.3795  -21.4378  -14.5068 O   0  0  0  0  0  0  0  0  0  0  0  0
   33.0278  -23.0709  -10.3886 O   0  0  0  0  0  0  0  0  0  0  0  0
   31.9399  -22.3224  -10.8235 C   0  0  0  0  0  0  0  0  0  0  0  0
   31.5682  -22.3556  -12.1630 C   0  0  0  0  0  0  0  0  0  0  0  0
   30.4918  -21.6240  -12.6301 C   0  0  0  0  0  0  0  0  0  0  0  0
   29.7320  -20.8242  -11.7926 C   0  0  0  0  0  0  0  0  0  0  0  0
   28.5801  -20.0377  -12.2840 C   0  0  0  0  0  0  0  0  0  0  0  0
   27.3758  -20.8457  -12.6565 C   0  0  2  0  0  0  0  0  0  0  0  0
   26.3979  -19.8768  -13.1899 N   0  0  0  0  0  0  0  0  0  0  0  0
   26.8270  -21.4961  -11.4378 C   0  0  0  0  0  0  0  0  0  0  0  0
   27.1008  -22.7179  -11.2704 O   0  0  0  0  0  0  0  0  0  0  0  0
   30.1135  -20.7998  -10.4569 C   0  0  0  0  0  0  0  0  0  0  0  0
   31.1839  -21.5272   -9.9915 C   0  0  0  0  0  0  0  0  0  0  0  0
   26.0321  -20.8036  -10.4962 N   0  0  0  0  0  0  0  0  0  0  0  0
   25.7376  -21.4417   -9.2156 C   0  0  1  0  0  0  0  0  0  0  0  0
   26.9556  -21.5297   -8.3698 C   0  0  0  0  0  0  0  0  0  0  0  0
   27.1381  -20.3451   -7.5123 C   0  0  0  0  0  0  0  0  0  0  0  0
   26.7217  -19.0320   -7.7894 C   0  0  0  0  0  0  0  0  0  0  0  0
   27.1134  -18.2227   -6.7933 N   0  0  0  0  0  0  0  0  0  0  0  0
   27.7678  -18.9264   -5.8664 C   0  0  0  0  0  0  0  0  0  0  0  0
   28.3320  -18.5315   -4.6697 C   0  0  0  0  0  0  0  0  0  0  0  0
   28.9499  -19.4632   -3.8459 C   0  0  0  0  0  0  0  0  0  0  0  0
   28.9714  -20.7768   -4.2739 C   0  0  0  0  0  0  0  0  0  0  0  0
   28.4052  -21.1590   -5.4721 C   0  0  0  0  0  0  0  0  0  0  0  0
   27.7888  -20.2445   -6.3019 C   0  0  0  0  0  0  0  0  0  0  0  0
   24.6179  -20.8041   -8.5215 C   0  0  0  0  0  0  0  0  0  0  0  0
   24.0474  -19.6607   -9.0369 O   0  0  0  0  0  0  0  0  0  0  0  0
   24.1650  -21.2779   -7.4646 O   0  0  0  0  0  0  0  0  0  0  0  0
  2  1  1  6
  2  3  1  0
  2  4  1  0
  4  5  1  6
  6 15  1  0
  6  4  1  0
  7  6  2  0
  8  9  1  0
  9 19  2  0
 10  9  1  0
 10 11  2  0
 11 12  1  0
 12 18  2  0
 12 13  1  0
 14 13  1  1
 14 16  1  0
 14 15  1  0
 16 20  1  0
 17 16  2  0
 19 18  1  0
 20 21  1  0
 21 32  1  0
 21 22  1  1
 23 22  1  0
 23 24  2  0
 25 24  1  0
 26 31  2  0
 26 25  1  0
 27 26  1  0
 28 29  1  0
 28 27  2  0
 29 30  2  0
 30 31  1  0
 31 23  1  0
 32 33  1  0
 34 32  2  0
M  END
$$$$
