VYW.pdb
     RDKit          3D

 34 36  0  0  1  0  0  0  0  0999 V2000
   26.6004  -18.7359  -18.8536 C   0  0  0  0  0  0  0  0  0  0  0  0
   27.9896  -18.4885  -18.2550 C   0  0  2  0  0  0  0  0  0  0  0  0
   28.8571  -17.7134  -19.1754 C   0  0  0  0  0  0  0  0  0  0  0  0
   28.5249  -19.7664  -17.7454 C   0  0  2  0  0  0  0  0  0  0  0  0
   28.8959  -20.6705  -18.8173 N   0  0  0  0  0  0  0  0  0  0  0  0
   27.7229  -20.4516  -16.7133 C   0  0  0  0  0  0  0  0  0  0  0  0
   26.9950  -21.4402  -16.9238 O   0  0  0  0  0  0  0  0  0  0  0  0
   24.5557  -21.1159   -8.3033 O   0  0  0  0  0  0  0  0  0  0  0  0
   25.2968  -20.8555   -9.4504 C   0  0  0  0  0  0  0  0  0  0  0  0
   25.7874  -21.9106  -10.2117 C   0  0  0  0  0  0  0  0  0  0  0  0
   26.5279  -21.6884  -11.3581 C   0  0  0  0  0  0  0  0  0  0  0  0
   26.8182  -20.4100  -11.8052 C   0  0  0  0  0  0  0  0  0  0  0  0
   27.6105  -20.1634  -13.0295 C   0  0  0  0  0  0  0  0  0  0  0  0
   26.9013  -20.4659  -14.3129 C   0  0  2  0  0  0  0  0  0  0  0  0
   27.7802  -19.9520  -15.3821 N   0  0  0  0  0  0  0  0  0  0  0  0
   25.6031  -19.7421  -14.3369 C   0  0  0  0  0  0  0  0  0  0  0  0
   25.6507  -18.4900  -14.4966 O   0  0  0  0  0  0  0  0  0  0  0  0
   26.3224  -19.3647  -11.0361 C   0  0  0  0  0  0  0  0  0  0  0  0
   25.5857  -19.5849   -9.8958 C   0  0  0  0  0  0  0  0  0  0  0  0
   24.3608  -20.3998  -14.1884 N   0  0  0  0  0  0  0  0  0  0  0  0
   23.1503  -19.5963  -14.0365 C   0  0  1  0  0  0  0  0  0  0  0  0
   22.9251  -18.7388  -15.2284 C   0  0  0  0  0  0  0  0  0  0  0  0
   22.8415  -19.5150  -16.4784 C   0  0  0  0  0  0  0  0  0  0  0  0
   22.4705  -20.8639  -16.6097 C   0  0  0  0  0  0  0  0  0  0  0  0
   22.5646  -21.2268  -17.8981 N   0  0  0  0  0  0  0  0  0  0  0  0
   22.9776  -20.1915  -18.6331 C   0  0  0  0  0  0  0  0  0  0  0  0
   23.1991  -20.0847  -19.9916 C   0  0  0  0  0  0  0  0  0  0  0  0
   23.6108  -18.8776  -20.5410 C   0  0  0  0  0  0  0  0  0  0  0  0
   23.7838  -17.8115  -19.6793 C   0  0  0  0  0  0  0  0  0  0  0  0
   23.5603  -17.9307  -18.3235 C   0  0  0  0  0  0  0  0  0  0  0  0
   23.1522  -19.1239  -17.7626 C   0  0  0  0  0  0  0  0  0  0  0  0
   21.9810  -20.4107  -13.7025 C   0  0  0  0  0  0  0  0  0  0  0  0
   20.7526  -19.8134  -13.5224 O   0  0  0  0  0  0  0  0  0  0  0  0
   22.0737  -21.6445  -13.5767 O   0  0  0  0  0  0  0  0  0  0  0  0
  2  1  1  6
  2  3  1  0
  2  4  1  0
  4  5  1  6
  6 15  1  0
  6  4  1  0
  7  6  2  0
  8  9  1  0
  9 19  2  0
 10  9  1  0
 10 11  2  0
 11 12  1  0
 12 18  2  0
 12 13  1  0
 14 13  1  1
 14 16  1  0
 14 15  1  0
 16 20  1  0
 17 16  2  0
 19 18  1  0
 20 21  1  0
 21 32  1  0
 21 22  1  6
 23 22  1  0
 23 24  2  0
 25 24  1  0
 26 31  2  0
 26 25  1  0
 27 26  1  0
 28 29  1  0
 28 27  2  0
 29 30  2  0
 30 31  1  0
 31 23  1  0
 32 33  1  0
 34 32  2  0
M  END
$$$$
