VYW.pdb
     RDKit          3D

 34 36  0  0  1  0  0  0  0  0999 V2000
   28.5173  -18.4374  -16.7626 C   0  0  0  0  0  0  0  0  0  0  0  0
   27.9271  -18.3624  -15.3500 C   0  0  2  0  0  0  0  0  0  0  0  0
   28.9774  -18.4621  -14.3072 C   0  0  0  0  0  0  0  0  0  0  0  0
   26.7951  -19.3050  -15.2543 C   0  0  2  0  0  0  0  0  0  0  0  0
   25.9275  -19.2378  -16.4149 N   0  0  0  0  0  0  0  0  0  0  0  0
   26.0209  -19.2791  -13.9982 C   0  0  0  0  0  0  0  0  0  0  0  0
   25.3408  -18.3119  -13.6063 O   0  0  0  0  0  0  0  0  0  0  0  0
   19.6777  -20.3048  -15.3557 O   0  0  0  0  0  0  0  0  0  0  0  0
   20.7824  -20.6326  -14.5778 C   0  0  0  0  0  0  0  0  0  0  0  0
   21.8783  -21.2587  -15.1613 C   0  0  0  0  0  0  0  0  0  0  0  0
   22.9935  -21.5988  -14.4179 C   0  0  0  0  0  0  0  0  0  0  0  0
   23.0764  -21.3353  -13.0606 C   0  0  0  0  0  0  0  0  0  0  0  0
   24.2648  -21.6968  -12.2579 C   0  0  0  0  0  0  0  0  0  0  0  0
   25.2015  -20.5647  -11.9703 C   0  0  2  0  0  0  0  0  0  0  0  0
   26.0498  -20.4371  -13.1718 N   0  0  0  0  0  0  0  0  0  0  0  0
   26.0423  -20.9119  -10.7947 C   0  0  0  0  0  0  0  0  0  0  0  0
   27.2489  -21.2078  -11.0235 O   0  0  0  0  0  0  0  0  0  0  0  0
   21.9752  -20.7095  -12.4898 C   0  0  0  0  0  0  0  0  0  0  0  0
   20.8657  -20.3707  -13.2285 C   0  0  0  0  0  0  0  0  0  0  0  0
   25.5397  -20.9202   -9.4736 N   0  0  0  0  0  0  0  0  0  0  0  0
   26.4687  -21.1310   -8.3661 C   0  0  1  0  0  0  0  0  0  0  0  0
   27.5715  -20.1363   -8.3971 C   0  0  0  0  0  0  0  0  0  0  0  0
   27.8145  -19.5170   -7.0821 C   0  0  0  0  0  0  0  0  0  0  0  0
   27.2716  -18.3120   -6.6048 C   0  0  0  0  0  0  0  0  0  0  0  0
   27.7682  -18.0536   -5.3853 N   0  0  0  0  0  0  0  0  0  0  0  0
   28.6125  -19.0226   -5.0236 C   0  0  0  0  0  0  0  0  0  0  0  0
   29.3397  -19.1945   -3.8627 C   0  0  0  0  0  0  0  0  0  0  0  0
   30.1461  -20.3134   -3.7009 C   0  0  0  0  0  0  0  0  0  0  0  0
   30.1837  -21.2266   -4.7371 C   0  0  0  0  0  0  0  0  0  0  0  0
   29.4535  -21.0434   -5.8928 C   0  0  0  0  0  0  0  0  0  0  0  0
   28.6486  -19.9361   -6.0686 C   0  0  0  0  0  0  0  0  0  0  0  0
   25.7886  -21.1740   -7.0709 C   0  0  0  0  0  0  0  0  0  0  0  0
   24.4842  -20.7438   -6.9616 O   0  0  0  0  0  0  0  0  0  0  0  0
   26.3695  -21.5957   -6.0553 O   0  0  0  0  0  0  0  0  0  0  0  0
  2  1  1  6
  2  3  1  0
  2  4  1  0
  4  5  1  6
  6 15  1  0
  6  4  1  0
  7  6  2  0
  8  9  1  0
  9 19  2  0
 10  9  1  0
 10 11  2  0
 11 12  1  0
 12 18  2  0
 12 13  1  0
 14 13  1  6
 14 16  1  0
 14 15  1  0
 16 20  1  0
 17 16  2  0
 19 18  1  0
 20 21  1  0
 21 32  1  0
 21 22  1  1
 23 22  1  0
 23 24  2  0
 25 24  1  0
 26 31  2  0
 26 25  1  0
 27 26  1  0
 28 29  1  0
 28 27  2  0
 29 30  2  0
 30 31  1  0
 31 23  1  0
 32 33  1  0
 34 32  2  0
M  END
$$$$
