VYW.pdb
     RDKit          3D

 34 36  0  0  1  0  0  0  0  0999 V2000
   27.3129  -24.1176  -18.4424 C   0  0  0  0  0  0  0  0  0  0  0  0
   27.7404  -24.8139  -17.1456 C   0  0  2  0  0  0  0  0  0  0  0  0
   29.0038  -25.5723  -17.3170 C   0  0  0  0  0  0  0  0  0  0  0  0
   26.5854  -25.5502  -16.5952 C   0  0  2  0  0  0  0  0  0  0  0  0
   26.1787  -26.6487  -17.4508 N   0  0  0  0  0  0  0  0  0  0  0  0
   25.4284  -24.7384  -16.1707 C   0  0  0  0  0  0  0  0  0  0  0  0
   24.4344  -24.4976  -16.8816 O   0  0  0  0  0  0  0  0  0  0  0  0
   20.4883  -20.4091  -10.0443 O   0  0  0  0  0  0  0  0  0  0  0  0
   21.4368  -21.1490  -10.7414 C   0  0  0  0  0  0  0  0  0  0  0  0
   22.7878  -20.8525  -10.5980 C   0  0  0  0  0  0  0  0  0  0  0  0
   23.7580  -21.5675  -11.2758 C   0  0  0  0  0  0  0  0  0  0  0  0
   23.4364  -22.6105  -12.1284 C   0  0  0  0  0  0  0  0  0  0  0  0
   24.4676  -23.3796  -12.8581 C   0  0  0  0  0  0  0  0  0  0  0  0
   24.3470  -23.3411  -14.3500 C   0  0  2  0  0  0  0  0  0  0  0  0
   25.4438  -24.1886  -14.8583 N   0  0  0  0  0  0  0  0  0  0  0  0
   24.5319  -21.9429  -14.8199 C   0  0  0  0  0  0  0  0  0  0  0  0
   25.6200  -21.3779  -14.5160 O   0  0  0  0  0  0  0  0  0  0  0  0
   22.0836  -22.8969  -12.2629 C   0  0  0  0  0  0  0  0  0  0  0  0
   21.1180  -22.1862  -11.5891 C   0  0  0  0  0  0  0  0  0  0  0  0
   23.5515  -21.2551  -15.5707 N   0  0  0  0  0  0  0  0  0  0  0  0
   23.6311  -19.7998  -15.6705 C   0  0  1  0  0  0  0  0  0  0  0  0
   24.1243  -19.3821  -17.0079 C   0  0  0  0  0  0  0  0  0  0  0  0
   25.5441  -19.7161  -17.2191 C   0  0  0  0  0  0  0  0  0  0  0  0
   26.0694  -20.5911  -18.1849 C   0  0  0  0  0  0  0  0  0  0  0  0
   27.3997  -20.6755  -18.0307 N   0  0  0  0  0  0  0  0  0  0  0  0
   27.7895  -19.9025  -17.0142 C   0  0  0  0  0  0  0  0  0  0  0  0
   29.0480  -19.6577  -16.5019 C   0  0  0  0  0  0  0  0  0  0  0  0
   29.2121  -18.7815  -15.4371 C   0  0  0  0  0  0  0  0  0  0  0  0
   28.0779  -18.1798  -14.9267 C   0  0  0  0  0  0  0  0  0  0  0  0
   26.8256  -18.4332  -15.4463 C   0  0  0  0  0  0  0  0  0  0  0  0
   26.6465  -19.3022  -16.5035 C   0  0  0  0  0  0  0  0  0  0  0  0
   22.3714  -19.1484  -15.3088 C   0  0  0  0  0  0  0  0  0  0  0  0
   22.2947  -17.7737  -15.2592 O   0  0  0  0  0  0  0  0  0  0  0  0
   21.3571  -19.8170  -15.0424 O   0  0  0  0  0  0  0  0  0  0  0  0
  2  1  1  6
  2  3  1  0
  2  4  1  0
  4  5  1  6
  6 15  1  0
  6  4  1  0
  7  6  2  0
  8  9  1  0
  9 19  2  0
 10  9  1  0
 10 11  2  0
 11 12  1  0
 12 18  2  0
 12 13  1  0
 14 13  1  1
 14 16  1  0
 14 15  1  0
 16 20  1  0
 17 16  2  0
 19 18  1  0
 20 21  1  0
 21 32  1  0
 21 22  1  6
 23 22  1  0
 23 24  2  0
 25 24  1  0
 26 31  2  0
 26 25  1  0
 27 26  1  0
 28 29  1  0
 28 27  2  0
 29 30  2  0
 30 31  1  0
 31 23  1  0
 32 33  1  0
 34 32  2  0
M  END
$$$$
