VYW.pdb
     RDKit          3D

 34 36  0  0  1  0  0  0  0  0999 V2000
   25.1582  -16.1830  -25.2515 C   0  0  0  0  0  0  0  0  0  0  0  0
   26.5033  -15.7185  -25.8209 C   0  0  2  0  0  0  0  0  0  0  0  0
   26.6263  -16.0257  -27.2669 C   0  0  0  0  0  0  0  0  0  0  0  0
   27.5863  -16.1966  -24.9390 C   0  0  2  0  0  0  0  0  0  0  0  0
   27.8737  -17.6043  -25.1393 N   0  0  0  0  0  0  0  0  0  0  0  0
   27.4616  -15.8688  -23.5056 C   0  0  0  0  0  0  0  0  0  0  0  0
   27.0797  -16.6663  -22.6283 O   0  0  0  0  0  0  0  0  0  0  0  0
   33.3541  -16.5278  -19.8052 O   0  0  0  0  0  0  0  0  0  0  0  0
   32.2735  -15.7548  -20.2150 C   0  0  0  0  0  0  0  0  0  0  0  0
   31.4442  -15.1665  -19.2664 C   0  0  0  0  0  0  0  0  0  0  0  0
   30.3610  -14.3918  -19.6382 C   0  0  0  0  0  0  0  0  0  0  0  0
   30.0471  -14.1627  -20.9676 C   0  0  0  0  0  0  0  0  0  0  0  0
   28.8898  -13.3364  -21.3740 C   0  0  0  0  0  0  0  0  0  0  0  0
   27.6446  -14.1051  -21.6910 C   0  0  2  0  0  0  0  0  0  0  0  0
   27.7990  -14.5504  -23.0901 N   0  0  0  0  0  0  0  0  0  0  0  0
   26.4695  -13.2019  -21.5767 C   0  0  0  0  0  0  0  0  0  0  0  0
   26.2441  -12.4325  -22.5528 O   0  0  0  0  0  0  0  0  0  0  0  0
   30.8832  -14.7558  -21.9053 C   0  0  0  0  0  0  0  0  0  0  0  0
   31.9609  -15.5265  -21.5364 C   0  0  0  0  0  0  0  0  0  0  0  0
   25.6296  -13.1837  -20.4400 N   0  0  0  0  0  0  0  0  0  0  0  0
   24.4577  -12.3117  -20.4419 C   0  0  1  0  0  0  0  0  0  0  0  0
   23.5810  -12.5974  -21.6066 C   0  0  0  0  0  0  0  0  0  0  0  0
   22.6156  -13.6782  -21.3388 C   0  0  0  0  0  0  0  0  0  0  0  0
   21.3827  -13.5616  -20.6750 C   0  0  0  0  0  0  0  0  0  0  0  0
   20.8134  -14.7730  -20.5799 N   0  0  0  0  0  0  0  0  0  0  0  0
   21.6006  -15.6910  -21.1458 C   0  0  0  0  0  0  0  0  0  0  0  0
   21.4261  -17.0515  -21.3032 C   0  0  0  0  0  0  0  0  0  0  0  0
   22.3879  -17.8095  -21.9579 C   0  0  0  0  0  0  0  0  0  0  0  0
   23.5042  -17.1490  -22.4340 C   0  0  0  0  0  0  0  0  0  0  0  0
   23.6679  -15.7893  -22.2698 C   0  0  0  0  0  0  0  0  0  0  0  0
   22.7215  -15.0229  -21.6203 C   0  0  0  0  0  0  0  0  0  0  0  0
   23.7328  -12.3521  -19.1711 C   0  0  0  0  0  0  0  0  0  0  0  0
   24.1337  -13.2155  -18.1751 O   0  0  0  0  0  0  0  0  0  0  0  0
   22.7517  -11.6152  -18.9688 O   0  0  0  0  0  0  0  0  0  0  0  0
  2  1  1  1
  2  3  1  0
  2  4  1  0
  4  5  1  1
  6 15  1  0
  6  4  1  0
  7  6  2  0
  8  9  1  0
  9 19  2  0
 10  9  1  0
 10 11  2  0
 11 12  1  0
 12 18  2  0
 12 13  1  0
 14 13  1  6
 14 16  1  0
 14 15  1  0
 16 20  1  0
 17 16  2  0
 19 18  1  0
 20 21  1  0
 21 32  1  0
 21 22  1  6
 23 22  1  0
 23 24  2  0
 25 24  1  0
 26 31  2  0
 26 25  1  0
 27 26  1  0
 28 29  1  0
 28 27  2  0
 29 30  2  0
 30 31  1  0
 31 23  1  0
 32 33  1  0
 34 32  2  0
M  END
$$$$
