VYW.pdb
     RDKit          3D

 34 36  0  0  1  0  0  0  0  0999 V2000
   21.9341  -19.4285  -16.1985 C   0  0  0  0  0  0  0  0  0  0  0  0
   23.3680  -18.9893  -16.5155 C   0  0  2  0  0  0  0  0  0  0  0  0
   23.6896  -19.1520  -17.9545 C   0  0  0  0  0  0  0  0  0  0  0  0
   24.2863  -19.6205  -15.5473 C   0  0  2  0  0  0  0  0  0  0  0  0
   24.4837  -21.0314  -15.8202 N   0  0  0  0  0  0  0  0  0  0  0  0
   24.0040  -19.3803  -14.1189 C   0  0  0  0  0  0  0  0  0  0  0  0
   23.7727  -18.2619  -13.6219 O   0  0  0  0  0  0  0  0  0  0  0  0
   17.3123  -19.3483  -12.7198 O   0  0  0  0  0  0  0  0  0  0  0  0
   18.5855  -19.8474  -12.4691 C   0  0  0  0  0  0  0  0  0  0  0  0
   19.1817  -19.6324  -11.2314 C   0  0  0  0  0  0  0  0  0  0  0  0
   20.4463  -20.1143  -10.9478 C   0  0  0  0  0  0  0  0  0  0  0  0
   21.1812  -20.8322  -11.8768 C   0  0  0  0  0  0  0  0  0  0  0  0
   22.5348  -21.3502  -11.5822 C   0  0  0  0  0  0  0  0  0  0  0  0
   23.6482  -20.3761  -11.8126 C   0  0  2  0  0  0  0  0  0  0  0  0
   23.9948  -20.5012  -13.2423 N   0  0  0  0  0  0  0  0  0  0  0  0
   24.8154  -20.7602  -10.9761 C   0  0  0  0  0  0  0  0  0  0  0  0
   25.4667  -21.7799  -11.3389 O   0  0  0  0  0  0  0  0  0  0  0  0
   20.5744  -21.0403  -13.1092 C   0  0  0  0  0  0  0  0  0  0  0  0
   19.3166  -20.5613  -13.3921 C   0  0  0  0  0  0  0  0  0  0  0  0
   25.1983  -20.0371   -9.8235 N   0  0  0  0  0  0  0  0  0  0  0  0
   26.3125  -20.5308   -9.0180 C   0  0  1  0  0  0  0  0  0  0  0  0
   27.3642  -19.4926   -8.8675 C   0  0  0  0  0  0  0  0  0  0  0  0
   28.4809  -19.9355   -8.0138 C   0  0  0  0  0  0  0  0  0  0  0  0
   29.5588  -20.7532   -8.3931 C   0  0  0  0  0  0  0  0  0  0  0  0
   30.3423  -20.9777   -7.3272 N   0  0  0  0  0  0  0  0  0  0  0  0
   29.8449  -20.3524   -6.2575 C   0  0  0  0  0  0  0  0  0  0  0  0
   30.3115  -20.2805   -4.9601 C   0  0  0  0  0  0  0  0  0  0  0  0
   29.6250  -19.5367   -4.0094 C   0  0  0  0  0  0  0  0  0  0  0  0
   28.4765  -18.8860   -4.4175 C   0  0  0  0  0  0  0  0  0  0  0  0
   28.0195  -18.9662   -5.7163 C   0  0  0  0  0  0  0  0  0  0  0  0
   28.6902  -19.7023   -6.6720 C   0  0  0  0  0  0  0  0  0  0  0  0
   25.8712  -21.0726   -7.7321 C   0  0  0  0  0  0  0  0  0  0  0  0
   26.6012  -22.0642   -7.1139 O   0  0  0  0  0  0  0  0  0  0  0  0
   24.8397  -20.6520   -7.1790 O   0  0  0  0  0  0  0  0  0  0  0  0
  2  1  1  6
  2  3  1  0
  2  4  1  0
  4  5  1  1
  6 15  1  0
  6  4  1  0
  7  6  2  0
  8  9  1  0
  9 19  2  0
 10  9  1  0
 10 11  2  0
 11 12  1  0
 12 18  2  0
 12 13  1  0
 14 13  1  1
 14 16  1  0
 14 15  1  0
 16 20  1  0
 17 16  2  0
 19 18  1  0
 20 21  1  0
 21 32  1  0
 21 22  1  1
 23 22  1  0
 23 24  2  0
 25 24  1  0
 26 31  2  0
 26 25  1  0
 27 26  1  0
 28 29  1  0
 28 27  2  0
 29 30  2  0
 30 31  1  0
 31 23  1  0
 32 33  1  0
 34 32  2  0
M  END
$$$$
