VYW.pdb
     RDKit          3D

 34 36  0  0  1  0  0  0  0  0999 V2000
   22.5820  -21.5755  -15.6281 C   0  0  0  0  0  0  0  0  0  0  0  0
   23.2550  -20.3006  -16.1489 C   0  0  2  0  0  0  0  0  0  0  0  0
   22.4025  -19.5888  -17.1324 C   0  0  0  0  0  0  0  0  0  0  0  0
   24.6335  -20.6240  -16.5661 C   0  0  2  0  0  0  0  0  0  0  0  0
   24.6669  -21.3926  -17.7959 N   0  0  0  0  0  0  0  0  0  0  0  0
   25.5123  -21.2124  -15.5368 C   0  0  0  0  0  0  0  0  0  0  0  0
   25.7184  -22.4327  -15.3962 O   0  0  0  0  0  0  0  0  0  0  0  0
   32.4453  -21.7325  -10.1258 O   0  0  0  0  0  0  0  0  0  0  0  0
   31.4050  -21.2644  -10.9206 C   0  0  0  0  0  0  0  0  0  0  0  0
   30.9136  -22.0550  -11.9537 C   0  0  0  0  0  0  0  0  0  0  0  0
   29.8802  -21.6212  -12.7635 C   0  0  0  0  0  0  0  0  0  0  0  0
   29.2841  -20.3833  -12.5890 C   0  0  0  0  0  0  0  0  0  0  0  0
   28.1792  -19.9111  -13.4514 C   0  0  0  0  0  0  0  0  0  0  0  0
   26.9925  -20.8219  -13.5136 C   0  0  2  0  0  0  0  0  0  0  0  0
   26.1728  -20.3287  -14.6381 N   0  0  0  0  0  0  0  0  0  0  0  0
   26.2250  -20.7130  -12.2452 C   0  0  0  0  0  0  0  0  0  0  0  0
   25.3494  -19.8046  -12.1843 O   0  0  0  0  0  0  0  0  0  0  0  0
   29.7839  -19.6032  -11.5538 C   0  0  0  0  0  0  0  0  0  0  0  0
   30.8116  -20.0339  -10.7477 C   0  0  0  0  0  0  0  0  0  0  0  0
   26.4464  -21.5711  -11.1441 N   0  0  0  0  0  0  0  0  0  0  0  0
   25.7116  -21.3326   -9.9042 C   0  0  1  0  0  0  0  0  0  0  0  0
   26.5223  -21.7168   -8.7203 C   0  0  0  0  0  0  0  0  0  0  0  0
   26.9679  -20.5520   -7.9352 C   0  0  0  0  0  0  0  0  0  0  0  0
   26.7299  -19.1982   -8.2268 C   0  0  0  0  0  0  0  0  0  0  0  0
   27.3380  -18.4326   -7.3077 N   0  0  0  0  0  0  0  0  0  0  0  0
   27.9680  -19.2038   -6.4183 C   0  0  0  0  0  0  0  0  0  0  0  0
   28.7031  -18.8688   -5.2987 C   0  0  0  0  0  0  0  0  0  0  0  0
   29.2522  -19.8622   -4.4987 C   0  0  0  0  0  0  0  0  0  0  0  0
   29.0310  -21.1744   -4.8706 C   0  0  0  0  0  0  0  0  0  0  0  0
   28.2956  -21.4967   -5.9922 C   0  0  0  0  0  0  0  0  0  0  0  0
   27.7447  -20.5206   -6.7976 C   0  0  0  0  0  0  0  0  0  0  0  0
   25.2023  -19.9635   -9.8148 C   0  0  0  0  0  0  0  0  0  0  0  0
   23.9839  -19.7179   -9.2203 O   0  0  0  0  0  0  0  0  0  0  0  0
   25.8534  -19.0061  -10.2688 O   0  0  0  0  0  0  0  0  0  0  0  0
  2  1  1  6
  2  3  1  0
  2  4  1  0
  4  5  1  6
  6 15  1  0
  6  4  1  0
  7  6  2  0
  8  9  1  0
  9 19  2  0
 10  9  1  0
 10 11  2  0
 11 12  1  0
 12 18  2  0
 12 13  1  0
 14 13  1  1
 14 16  1  0
 14 15  1  0
 16 20  1  0
 17 16  2  0
 19 18  1  0
 20 21  1  0
 21 32  1  0
 21 22  1  1
 23 22  1  0
 23 24  2  0
 25 24  1  0
 26 31  2  0
 26 25  1  0
 27 26  1  0
 28 29  1  0
 28 27  2  0
 29 30  2  0
 30 31  1  0
 31 23  1  0
 32 33  1  0
 34 32  2  0
M  END
$$$$
