VYW.pdb
     RDKit          3D

 34 36  0  0  1  0  0  0  0  0999 V2000
   25.2795  -20.8213  -17.6098 C   0  0  0  0  0  0  0  0  0  0  0  0
   26.7836  -20.6500  -17.3694 C   0  0  2  0  0  0  0  0  0  0  0  0
   27.5141  -20.3607  -18.6277 C   0  0  0  0  0  0  0  0  0  0  0  0
   27.2698  -21.7824  -16.5567 C   0  0  2  0  0  0  0  0  0  0  0  0
   27.4156  -22.9949  -17.3395 N   0  0  0  0  0  0  0  0  0  0  0  0
   26.5562  -22.0387  -15.2907 C   0  0  0  0  0  0  0  0  0  0  0  0
   25.6224  -22.8522  -15.1572 O   0  0  0  0  0  0  0  0  0  0  0  0
   24.8243  -20.3904   -6.6127 O   0  0  0  0  0  0  0  0  0  0  0  0
   25.3559  -20.4996   -7.8927 C   0  0  0  0  0  0  0  0  0  0  0  0
   26.5056  -19.7926   -8.2272 C   0  0  0  0  0  0  0  0  0  0  0  0
   27.0615  -19.8778   -9.4904 C   0  0  0  0  0  0  0  0  0  0  0  0
   26.5050  -20.6672  -10.4830 C   0  0  0  0  0  0  0  0  0  0  0  0
   27.0923  -20.7630  -11.8370 C   0  0  0  0  0  0  0  0  0  0  0  0
   26.1866  -21.3418  -12.8793 C   0  0  2  0  0  0  0  0  0  0  0  0
   26.9578  -21.3076  -14.1378 N   0  0  0  0  0  0  0  0  0  0  0  0
   24.9774  -20.4865  -13.0063 C   0  0  0  0  0  0  0  0  0  0  0  0
   25.1591  -19.2929  -13.3777 O   0  0  0  0  0  0  0  0  0  0  0  0
   25.3569  -21.3685  -10.1363 C   0  0  0  0  0  0  0  0  0  0  0  0
   24.8034  -21.2844   -8.8801 C   0  0  0  0  0  0  0  0  0  0  0  0
   23.6752  -20.9613  -12.7289 N   0  0  0  0  0  0  0  0  0  0  0  0
   22.5285  -20.2268  -13.2576 C   0  0  1  0  0  0  0  0  0  0  0  0
   22.6417  -20.0453  -14.7275 C   0  0  0  0  0  0  0  0  0  0  0  0
   21.5556  -19.2182  -15.2826 C   0  0  0  0  0  0  0  0  0  0  0  0
   21.1031  -17.9815  -14.7922 C   0  0  0  0  0  0  0  0  0  0  0  0
   20.0655  -17.5630  -15.5330 N   0  0  0  0  0  0  0  0  0  0  0  0
   19.8026  -18.4542  -16.4918 C   0  0  0  0  0  0  0  0  0  0  0  0
   18.8502  -18.4450  -17.4913 C   0  0  0  0  0  0  0  0  0  0  0  0
   18.7825  -19.4899  -18.4034 C   0  0  0  0  0  0  0  0  0  0  0  0
   19.6960  -20.5172  -18.2641 C   0  0  0  0  0  0  0  0  0  0  0  0
   20.6423  -20.5158  -17.2607 C   0  0  0  0  0  0  0  0  0  0  0  0
   20.7212  -19.4851  -16.3462 C   0  0  0  0  0  0  0  0  0  0  0  0
   21.2538  -20.8282  -12.8633 C   0  0  0  0  0  0  0  0  0  0  0  0
   20.2954  -20.0639  -12.2343 O   0  0  0  0  0  0  0  0  0  0  0  0
   21.0144  -22.0279  -13.0868 O   0  0  0  0  0  0  0  0  0  0  0  0
  2  1  1  6
  2  3  1  0
  2  4  1  0
  4  5  1  6
  6 15  1  0
  6  4  1  0
  7  6  2  0
  8  9  1  0
  9 19  2  0
 10  9  1  0
 10 11  2  0
 11 12  1  0
 12 18  2  0
 12 13  1  0
 14 13  1  1
 14 16  1  0
 14 15  1  0
 16 20  1  0
 17 16  2  0
 19 18  1  0
 20 21  1  0
 21 32  1  0
 21 22  1  6
 23 22  1  0
 23 24  2  0
 25 24  1  0
 26 31  2  0
 26 25  1  0
 27 26  1  0
 28 29  1  0
 28 27  2  0
 29 30  2  0
 30 31  1  0
 31 23  1  0
 32 33  1  0
 34 32  2  0
M  END
$$$$
