VYW.pdb
     RDKit          3D

 34 36  0  0  1  0  0  0  0  0999 V2000
   26.7221  -19.1720  -15.2743 C   0  0  0  0  0  0  0  0  0  0  0  0
   27.8536  -18.7794  -14.3176 C   0  0  2  0  0  0  0  0  0  0  0  0
   28.8918  -17.9651  -14.9955 C   0  0  0  0  0  0  0  0  0  0  0  0
   28.3104  -19.9844  -13.5975 C   0  0  2  0  0  0  0  0  0  0  0  0
   29.0687  -20.8780  -14.4523 N   0  0  0  0  0  0  0  0  0  0  0  0
   27.2892  -20.7150  -12.8221 C   0  0  0  0  0  0  0  0  0  0  0  0
   26.7466  -21.7745  -13.1888 O   0  0  0  0  0  0  0  0  0  0  0  0
   29.7680  -20.6116   -5.7636 O   0  0  0  0  0  0  0  0  0  0  0  0
   28.7453  -20.4021   -6.6818 C   0  0  0  0  0  0  0  0  0  0  0  0
   28.6802  -21.1777   -7.8341 C   0  0  0  0  0  0  0  0  0  0  0  0
   27.6771  -20.9967   -8.7685 C   0  0  0  0  0  0  0  0  0  0  0  0
   26.6903  -20.0384   -8.6063 C   0  0  0  0  0  0  0  0  0  0  0  0
   25.6147  -19.8373   -9.6011 C   0  0  0  0  0  0  0  0  0  0  0  0
   25.7210  -20.6892  -10.8278 C   0  0  2  0  0  0  0  0  0  0  0  0
   26.8915  -20.1758  -11.5667 N   0  0  0  0  0  0  0  0  0  0  0  0
   24.4934  -20.5202  -11.6489 C   0  0  0  0  0  0  0  0  0  0  0  0
   24.4270  -19.4851  -12.3697 O   0  0  0  0  0  0  0  0  0  0  0  0
   26.7664  -19.2703   -7.4511 C   0  0  0  0  0  0  0  0  0  0  0  0
   27.7637  -19.4498   -6.5212 C   0  0  0  0  0  0  0  0  0  0  0  0
   23.4354  -21.4574  -11.6401 N   0  0  0  0  0  0  0  0  0  0  0  0
   22.2852  -21.2319  -12.5120 C   0  0  1  0  0  0  0  0  0  0  0  0
   22.3487  -22.1001  -13.7156 C   0  0  0  0  0  0  0  0  0  0  0  0
   21.2333  -21.8598  -14.6484 C   0  0  0  0  0  0  0  0  0  0  0  0
   21.1219  -20.8107  -15.5764 C   0  0  0  0  0  0  0  0  0  0  0  0
   19.9411  -20.8998  -16.2076 N   0  0  0  0  0  0  0  0  0  0  0  0
   19.2597  -21.9530  -15.7505 C   0  0  0  0  0  0  0  0  0  0  0  0
   18.0216  -22.4475  -16.1093 C   0  0  0  0  0  0  0  0  0  0  0  0
   17.5212  -23.5910  -15.5006 C   0  0  0  0  0  0  0  0  0  0  0  0
   18.3069  -24.1963  -14.5387 C   0  0  0  0  0  0  0  0  0  0  0  0
   19.5419  -23.6922  -14.1878 C   0  0  0  0  0  0  0  0  0  0  0  0
   20.0520  -22.5563  -14.7830 C   0  0  0  0  0  0  0  0  0  0  0  0
   21.0138  -21.3556  -11.7977 C   0  0  0  0  0  0  0  0  0  0  0  0
   19.9094  -20.6531  -12.2277 O   0  0  0  0  0  0  0  0  0  0  0  0
   20.9078  -22.0901  -10.7997 O   0  0  0  0  0  0  0  0  0  0  0  0
  2  1  1  6
  2  3  1  0
  2  4  1  0
  4  5  1  6
  6 15  1  0
  6  4  1  0
  7  6  2  0
  8  9  1  0
  9 19  2  0
 10  9  1  0
 10 11  2  0
 11 12  1  0
 12 18  2  0
 12 13  1  0
 14 13  1  1
 14 16  1  0
 14 15  1  0
 16 20  1  0
 17 16  2  0
 19 18  1  0
 20 21  1  0
 21 32  1  0
 21 22  1  6
 23 22  1  0
 23 24  2  0
 25 24  1  0
 26 31  2  0
 26 25  1  0
 27 26  1  0
 28 29  1  0
 28 27  2  0
 29 30  2  0
 30 31  1  0
 31 23  1  0
 32 33  1  0
 34 32  2  0
M  END
$$$$
