VYW.pdb
     RDKit          3D

 34 36  0  0  1  0  0  0  0  0999 V2000
   21.4809  -19.4731  -16.1405 C   0  0  0  0  0  0  0  0  0  0  0  0
   22.8243  -18.8100  -16.4642 C   0  0  2  0  0  0  0  0  0  0  0  0
   23.1351  -18.8716  -17.9134 C   0  0  0  0  0  0  0  0  0  0  0  0
   23.8488  -19.3274  -15.5359 C   0  0  2  0  0  0  0  0  0  0  0  0
   24.2412  -20.6867  -15.8565 N   0  0  0  0  0  0  0  0  0  0  0  0
   23.5715  -19.1704  -14.0950 C   0  0  0  0  0  0  0  0  0  0  0  0
   23.2136  -18.1062  -13.5555 O   0  0  0  0  0  0  0  0  0  0  0  0
   17.0195  -19.1735  -11.9450 O   0  0  0  0  0  0  0  0  0  0  0  0
   18.3122  -19.6741  -11.8384 C   0  0  0  0  0  0  0  0  0  0  0  0
   18.8619  -20.4002  -12.8892 C   0  0  0  0  0  0  0  0  0  0  0  0
   20.1442  -20.9125  -12.8173 C   0  0  0  0  0  0  0  0  0  0  0  0
   20.9435  -20.7304  -11.7009 C   0  0  0  0  0  0  0  0  0  0  0  0
   22.3154  -21.2759  -11.6152 C   0  0  0  0  0  0  0  0  0  0  0  0
   23.4083  -20.2723  -11.8155 C   0  0  2  0  0  0  0  0  0  0  0  0
   23.7225  -20.3109  -13.2576 N   0  0  0  0  0  0  0  0  0  0  0  0
   24.6008  -20.6839  -11.0292 C   0  0  0  0  0  0  0  0  0  0  0  0
   25.2703  -21.6577  -11.4754 O   0  0  0  0  0  0  0  0  0  0  0  0
   20.3828  -20.0033  -10.6583 C   0  0  0  0  0  0  0  0  0  0  0  0
   19.1075  -19.4932  -10.7290 C   0  0  0  0  0  0  0  0  0  0  0  0
   24.9876  -20.0346   -9.8347 N   0  0  0  0  0  0  0  0  0  0  0  0
   26.1704  -20.5121   -9.1227 C   0  0  1  0  0  0  0  0  0  0  0  0
   27.0281  -19.3787   -8.6912 C   0  0  0  0  0  0  0  0  0  0  0  0
   28.2425  -19.8229   -7.9842 C   0  0  0  0  0  0  0  0  0  0  0  0
   29.2971  -20.5834   -8.5168 C   0  0  0  0  0  0  0  0  0  0  0  0
   30.1968  -20.8314   -7.5526 N   0  0  0  0  0  0  0  0  0  0  0  0
   29.7986  -20.2759   -6.4056 C   0  0  0  0  0  0  0  0  0  0  0  0
   30.3994  -20.2501   -5.1628 C   0  0  0  0  0  0  0  0  0  0  0  0
   29.7972  -19.5772   -4.1079 C   0  0  0  0  0  0  0  0  0  0  0  0
   28.5928  -18.9480   -4.3583 C   0  0  0  0  0  0  0  0  0  0  0  0
   28.0017  -18.9816   -5.6040 C   0  0  0  0  0  0  0  0  0  0  0  0
   28.5875  -19.6472   -6.6618 C   0  0  0  0  0  0  0  0  0  0  0  0
   25.8294  -21.4096   -8.0182 C   0  0  0  0  0  0  0  0  0  0  0  0
   26.6577  -22.4654   -7.7059 O   0  0  0  0  0  0  0  0  0  0  0  0
   24.7963  -21.2374   -7.3475 O   0  0  0  0  0  0  0  0  0  0  0  0
  2  1  1  6
  2  3  1  0
  2  4  1  0
  4  5  1  1
  6 15  1  0
  6  4  1  0
  7  6  2  0
  8  9  1  0
  9 19  2  0
 10  9  1  0
 10 11  2  0
 11 12  1  0
 12 18  2  0
 12 13  1  0
 14 13  1  6
 14 16  1  0
 14 15  1  0
 16 20  1  0
 17 16  2  0
 19 18  1  0
 20 21  1  0
 21 32  1  0
 21 22  1  1
 23 22  1  0
 23 24  2  0
 25 24  1  0
 26 31  2  0
 26 25  1  0
 27 26  1  0
 28 29  1  0
 28 27  2  0
 29 30  2  0
 30 31  1  0
 31 23  1  0
 32 33  1  0
 34 32  2  0
M  END
$$$$
