VYW.pdb
     RDKit          3D

 34 36  0  0  1  0  0  0  0  0999 V2000
   20.4409  -19.2960  -15.4570 C   0  0  0  0  0  0  0  0  0  0  0  0
   21.5221  -18.4824  -16.1769 C   0  0  2  0  0  0  0  0  0  0  0  0
   21.3041  -18.4511  -17.6439 C   0  0  0  0  0  0  0  0  0  0  0  0
   22.8484  -18.9271  -15.7052 C   0  0  2  0  0  0  0  0  0  0  0  0
   23.2030  -20.2350  -16.2228 N   0  0  0  0  0  0  0  0  0  0  0  0
   23.0960  -18.8350  -14.2533 C   0  0  0  0  0  0  0  0  0  0  0  0
   22.9382  -17.8036  -13.5729 O   0  0  0  0  0  0  0  0  0  0  0  0
   17.5321  -19.5826  -10.6543 O   0  0  0  0  0  0  0  0  0  0  0  0
   18.8636  -19.9298  -10.8536 C   0  0  0  0  0  0  0  0  0  0  0  0
   19.1928  -20.8965  -11.7974 C   0  0  0  0  0  0  0  0  0  0  0  0
   20.5062  -21.2663  -12.0216 C   0  0  0  0  0  0  0  0  0  0  0  0
   21.5565  -20.6962  -11.3215 C   0  0  0  0  0  0  0  0  0  0  0  0
   22.9639  -21.0866  -11.5542 C   0  0  0  0  0  0  0  0  0  0  0  0
   23.8317  -20.0102  -12.1286 C   0  0  2  0  0  0  0  0  0  0  0  0
   23.5476  -20.0028  -13.5773 N   0  0  0  0  0  0  0  0  0  0  0  0
   25.2587  -20.3564  -11.8970 C   0  0  0  0  0  0  0  0  0  0  0  0
   25.8080  -21.1114  -12.7477 O   0  0  0  0  0  0  0  0  0  0  0  0
   21.2144  -19.7318  -10.3818 C   0  0  0  0  0  0  0  0  0  0  0  0
   19.9084  -19.3634  -10.1582 C   0  0  0  0  0  0  0  0  0  0  0  0
   25.9884  -19.8784  -10.7848 N   0  0  0  0  0  0  0  0  0  0  0  0
   27.3989  -20.2368  -10.6589 C   0  0  1  0  0  0  0  0  0  0  0  0
   28.0430  -19.4898   -9.5481 C   0  0  0  0  0  0  0  0  0  0  0  0
   27.5682  -19.9235   -8.2221 C   0  0  0  0  0  0  0  0  0  0  0  0
   26.4240  -20.6910   -7.9461 C   0  0  0  0  0  0  0  0  0  0  0  0
   26.2967  -20.8366   -6.6183 N   0  0  0  0  0  0  0  0  0  0  0  0
   27.2956  -20.2078   -5.9942 C   0  0  0  0  0  0  0  0  0  0  0  0
   27.5889  -20.0990   -4.6494 C   0  0  0  0  0  0  0  0  0  0  0  0
   28.7154  -19.4021   -4.2327 C   0  0  0  0  0  0  0  0  0  0  0  0
   29.5112  -18.8351   -5.2096 C   0  0  0  0  0  0  0  0  0  0  0  0
   29.2073  -18.9496   -6.5501 C   0  0  0  0  0  0  0  0  0  0  0  0
   28.0908  -19.6380   -6.9795 C   0  0  0  0  0  0  0  0  0  0  0  0
   27.5973  -21.6829  -10.5514 C   0  0  0  0  0  0  0  0  0  0  0  0
   28.8721  -22.2053  -10.5347 O   0  0  0  0  0  0  0  0  0  0  0  0
   26.6287  -22.4590  -10.4736 O   0  0  0  0  0  0  0  0  0  0  0  0
  2  1  1  1
  2  3  1  0
  2  4  1  0
  4  5  1  1
  6 15  1  0
  6  4  1  0
  7  6  2  0
  8  9  1  0
  9 19  2  0
 10  9  1  0
 10 11  2  0
 11 12  1  0
 12 18  2  0
 12 13  1  0
 14 13  1  1
 14 16  1  0
 14 15  1  0
 16 20  1  0
 17 16  2  0
 19 18  1  0
 20 21  1  0
 21 32  1  0
 21 22  1  1
 23 22  1  0
 23 24  2  0
 25 24  1  0
 26 31  2  0
 26 25  1  0
 27 26  1  0
 28 29  1  0
 28 27  2  0
 29 30  2  0
 30 31  1  0
 31 23  1  0
 32 33  1  0
 34 32  2  0
M  END
$$$$
