VYW.pdb
     RDKit          3D

 34 36  0  0  1  0  0  0  0  0999 V2000
   24.0039  -14.1094  -19.9723 C   0  0  0  0  0  0  0  0  0  0  0  0
   24.2179  -14.7579  -18.6001 C   0  0  2  0  0  0  0  0  0  0  0  0
   25.6064  -15.2528  -18.4341 C   0  0  0  0  0  0  0  0  0  0  0  0
   23.1280  -15.7221  -18.3519 C   0  0  2  0  0  0  0  0  0  0  0  0
   21.8183  -15.1293  -18.5461 N   0  0  0  0  0  0  0  0  0  0  0  0
   23.1957  -16.4818  -17.0885 C   0  0  0  0  0  0  0  0  0  0  0  0
   22.8720  -16.0306  -15.9736 O   0  0  0  0  0  0  0  0  0  0  0  0
   21.2538  -21.6570  -10.8335 O   0  0  0  0  0  0  0  0  0  0  0  0
   21.6606  -21.2064  -12.0843 C   0  0  0  0  0  0  0  0  0  0  0  0
   21.2285  -19.9688  -12.5482 C   0  0  0  0  0  0  0  0  0  0  0  0
   21.6134  -19.4895  -13.7868 C   0  0  0  0  0  0  0  0  0  0  0  0
   22.4448  -20.2133  -14.6254 C   0  0  0  0  0  0  0  0  0  0  0  0
   22.8603  -19.7087  -15.9520 C   0  0  0  0  0  0  0  0  0  0  0  0
   23.8919  -18.6239  -15.9209 C   0  0  2  0  0  0  0  0  0  0  0  0
   23.6636  -17.8246  -17.1410 N   0  0  0  0  0  0  0  0  0  0  0  0
   25.2462  -19.2352  -15.9655 C   0  0  0  0  0  0  0  0  0  0  0  0
   25.5980  -19.7639  -17.0574 O   0  0  0  0  0  0  0  0  0  0  0  0
   22.8696  -21.4478  -14.1503 C   0  0  0  0  0  0  0  0  0  0  0  0
   22.4873  -21.9252  -12.9185 C   0  0  0  0  0  0  0  0  0  0  0  0
   26.1176  -19.2398  -14.8525 N   0  0  0  0  0  0  0  0  0  0  0  0
   27.4072  -19.9162  -14.9683 C   0  0  1  0  0  0  0  0  0  0  0  0
   28.1896  -19.7936  -13.7116 C   0  0  0  0  0  0  0  0  0  0  0  0
   27.5197  -20.4267  -12.5618 C   0  0  0  0  0  0  0  0  0  0  0  0
   27.2190  -21.7907  -12.4079 C   0  0  0  0  0  0  0  0  0  0  0  0
   26.5613  -21.9727  -11.2525 N   0  0  0  0  0  0  0  0  0  0  0  0
   26.4084  -20.8029  -10.6273 C   0  0  0  0  0  0  0  0  0  0  0  0
   25.8187  -20.5011   -9.4160 C   0  0  0  0  0  0  0  0  0  0  0  0
   25.8007  -19.1921   -8.9529 C   0  0  0  0  0  0  0  0  0  0  0  0
   26.3898  -18.2272   -9.7475 C   0  0  0  0  0  0  0  0  0  0  0  0
   26.9749  -18.5408  -10.9564 C   0  0  0  0  0  0  0  0  0  0  0  0
   26.9996  -19.8368  -11.4304 C   0  0  0  0  0  0  0  0  0  0  0  0
   27.2687  -21.3048  -15.4095 C   0  0  0  0  0  0  0  0  0  0  0  0
   28.3506  -21.9707  -15.9427 O   0  0  0  0  0  0  0  0  0  0  0  0
   26.1829  -21.9034  -15.3119 O   0  0  0  0  0  0  0  0  0  0  0  0
  2  1  1  6
  2  3  1  0
  2  4  1  0
  4  5  1  1
  6 15  1  0
  6  4  1  0
  7  6  2  0
  8  9  1  0
  9 19  2  0
 10  9  1  0
 10 11  2  0
 11 12  1  0
 12 18  2  0
 12 13  1  0
 14 13  1  6
 14 16  1  0
 14 15  1  0
 16 20  1  0
 17 16  2  0
 19 18  1  0
 20 21  1  0
 21 32  1  0
 21 22  1  1
 23 22  1  0
 23 24  2  0
 25 24  1  0
 26 31  2  0
 26 25  1  0
 27 26  1  0
 28 29  1  0
 28 27  2  0
 29 30  2  0
 30 31  1  0
 31 23  1  0
 32 33  1  0
 34 32  2  0
M  END
$$$$
