SCC.pdb
     RDKit          3D

 19 18  0  0  1  0  0  0  0  0999 V2000
   21.7950  -12.6656  -20.9173 O   0  0  0  0  0  0  0  0  0  0  0  0
   21.4898  -12.2642  -19.6137 C   0  0  0  0  0  0  0  0  0  0  0  0
   22.5568  -12.8535  -18.7171 C   0  0  2  0  0  0  0  0  0  0  0  0
   22.1467  -14.1636  -18.3298 N   0  0  0  0  0  0  0  0  0  0  0  0
   22.8493  -11.9676  -17.5575 C   0  0  0  0  0  0  0  0  0  0  0  0
   22.0880  -11.9198  -16.5815 O   0  0  0  0  0  0  0  0  0  0  0  0
   24.0279  -11.1787  -17.6039 N   0  0  0  0  0  0  0  0  0  0  0  0
   24.4386  -10.2110  -16.6348 C   0  0  1  0  0  0  0  0  0  0  0  0
   25.9213  -10.1190  -16.4854 C   0  0  0  0  0  0  0  0  0  0  0  0
   26.4204   -9.0000  -15.1543 S   0  0  0  0  0  0  0  0  0  0  0  0
   23.7503   -8.8895  -16.7567 C   0  0  0  0  0  0  0  0  0  0  0  0
   23.6472   -8.3015  -17.8556 O   0  0  0  0  0  0  0  0  0  0  0  0
   23.1945   -8.2707  -15.6171 N   0  0  0  0  0  0  0  0  0  0  0  0
   22.4535   -7.0287  -15.6121 C   0  0  1  0  0  0  0  0  0  0  0  0
   21.2498   -7.0210  -14.7478 C   0  0  0  0  0  0  0  0  0  0  0  0
   20.4213   -5.4358  -14.6551 S   0  0  0  0  0  0  0  0  0  0  0  0
   23.3686   -5.8636  -15.4170 C   0  0  0  0  0  0  0  0  0  0  0  0
   24.5141   -5.9793  -14.9337 O   0  0  0  0  0  0  0  0  0  0  0  0
   22.9277   -4.6273  -15.7807 O   0  0  0  0  0  0  0  0  0  0  0  0
  1  2  1  0
  2  3  1  0
  3  5  1  0
  3  4  1  1
  5  6  2  0
  7  8  1  0
  7  5  1  0
  9 10  1  0
  8  9  1  6
 11  8  1  0
 11 12  2  0
 13 11  1  0
 14 13  1  0
 14 17  1  0
 14 15  1  1
 16 15  1  0
 17 18  2  0
 17 19  1  0
M  END
$$$$
