SCC.pdb
     RDKit          3D

 19 18  0  0  1  0  0  0  0  0999 V2000
   13.8087   -9.7897  -11.8687 O   0  0  0  0  0  0  0  0  0  0  0  0
   14.8558   -8.9041  -11.5989 C   0  0  0  0  0  0  0  0  0  0  0  0
   16.1020   -9.7449  -11.4270 C   0  0  2  0  0  0  0  0  0  0  0  0
   16.1095  -10.2736  -10.1022 N   0  0  0  0  0  0  0  0  0  0  0  0
   17.3328   -8.9746  -11.7540 C   0  0  0  0  0  0  0  0  0  0  0  0
   17.8395   -8.1997  -10.9311 O   0  0  0  0  0  0  0  0  0  0  0  0
   17.9086   -9.1549  -13.0384 N   0  0  0  0  0  0  0  0  0  0  0  0
   19.0371   -8.4540  -13.5672 C   0  0  1  0  0  0  0  0  0  0  0  0
   20.2105   -9.3389  -13.8298 C   0  0  0  0  0  0  0  0  0  0  0  0
   21.6598   -8.4230  -14.4071 S   0  0  0  0  0  0  0  0  0  0  0  0
   18.7097   -7.5194  -14.6871 C   0  0  0  0  0  0  0  0  0  0  0  0
   18.1913   -7.9245  -15.7506 O   0  0  0  0  0  0  0  0  0  0  0  0
   18.9827   -6.1406  -14.5640 N   0  0  0  0  0  0  0  0  0  0  0  0
   18.8341   -5.1571  -15.6139 C   0  0  1  0  0  0  0  0  0  0  0  0
   17.8471   -4.0875  -15.3349 C   0  0  0  0  0  0  0  0  0  0  0  0
   16.2663   -4.6828  -14.7394 S   0  0  0  0  0  0  0  0  0  0  0  0
   20.1676   -4.6692  -16.0789 C   0  0  0  0  0  0  0  0  0  0  0  0
   21.2423   -5.0726  -15.5875 O   0  0  0  0  0  0  0  0  0  0  0  0
   20.2052   -3.7443  -17.0781 O   0  0  0  0  0  0  0  0  0  0  0  0
  1  2  1  0
  2  3  1  0
  3  5  1  0
  3  4  1  1
  5  6  2  0
  7  8  1  0
  7  5  1  0
  9 10  1  0
  8  9  1  6
 11  8  1  0
 11 12  2  0
 13 11  1  0
 14 13  1  0
 14 17  1  0
 14 15  1  1
 16 15  1  0
 17 18  2  0
 17 19  1  0
M  END
$$$$
