SCC.pdb
     RDKit          3D

 19 18  0  0  1  0  0  0  0  0999 V2000
   22.0831  -12.8287  -18.4106 O   0  0  0  0  0  0  0  0  0  0  0  0
   21.7529  -11.4761  -18.2872 C   0  0  0  0  0  0  0  0  0  0  0  0
   20.4402  -11.4166  -17.5369 C   0  0  2  0  0  0  0  0  0  0  0  0
   19.3881  -11.7427  -18.4432 N   0  0  0  0  0  0  0  0  0  0  0  0
   20.2485  -10.0994  -16.8710 C   0  0  0  0  0  0  0  0  0  0  0  0
   20.1048   -9.0629  -17.5339 O   0  0  0  0  0  0  0  0  0  0  0  0
   20.2353  -10.0670  -15.4524 N   0  0  0  0  0  0  0  0  0  0  0  0
   20.1886   -8.8970  -14.6318 C   0  0  1  0  0  0  0  0  0  0  0  0
   19.9418   -9.1975  -13.1904 C   0  0  0  0  0  0  0  0  0  0  0  0
   19.8564   -7.7052  -12.1712 S   0  0  0  0  0  0  0  0  0  0  0  0
   21.3031   -7.9310  -14.8759 C   0  0  0  0  0  0  0  0  0  0  0  0
   22.5009   -8.2893  -14.8481 O   0  0  0  0  0  0  0  0  0  0  0  0
   21.0211   -6.5755  -15.1474 N   0  0  0  0  0  0  0  0  0  0  0  0
   22.0061   -5.5362  -15.3506 C   0  0  1  0  0  0  0  0  0  0  0  0
   22.4341   -5.3452  -16.7564 C   0  0  0  0  0  0  0  0  0  0  0  0
   21.8560   -6.6147  -17.8799 S   0  0  0  0  0  0  0  0  0  0  0  0
   21.6092   -4.2810  -14.6437 C   0  0  0  0  0  0  0  0  0  0  0  0
   20.4709   -4.1108  -14.1594 O   0  0  0  0  0  0  0  0  0  0  0  0
   22.5308   -3.2846  -14.5291 O   0  0  0  0  0  0  0  0  0  0  0  0
  1  2  1  0
  2  3  1  0
  3  5  1  0
  3  4  1  6
  5  6  2  0
  7  8  1  0
  7  5  1  0
  9 10  1  0
  8  9  1  1
 11  8  1  0
 11 12  2  0
 13 11  1  0
 14 13  1  0
 14 17  1  0
 14 15  1  6
 16 15  1  0
 17 18  2  0
 17 19  1  0
M  END
$$$$
