SCC.pdb
     RDKit          3D

 19 18  0  0  1  0  0  0  0  0999 V2000
   16.5418   -7.3232  -15.5190 O   0  0  0  0  0  0  0  0  0  0  0  0
   16.1910   -7.9165  -14.3031 C   0  0  0  0  0  0  0  0  0  0  0  0
   17.3969   -8.7054  -13.8413 C   0  0  2  0  0  0  0  0  0  0  0  0
   17.0330   -9.4440  -12.6766 N   0  0  0  0  0  0  0  0  0  0  0  0
   18.5786   -7.8261  -13.6282 C   0  0  0  0  0  0  0  0  0  0  0  0
   18.6451   -7.0707  -12.6488 O   0  0  0  0  0  0  0  0  0  0  0  0
   19.6279   -7.8794  -14.5821 N   0  0  0  0  0  0  0  0  0  0  0  0
   20.7644   -7.0137  -14.6411 C   0  0  1  0  0  0  0  0  0  0  0  0
   21.9759   -7.6699  -15.2161 C   0  0  0  0  0  0  0  0  0  0  0  0
   22.6197   -8.9921  -14.1626 S   0  0  0  0  0  0  0  0  0  0  0  0
   20.4752   -5.6584  -15.2019 C   0  0  0  0  0  0  0  0  0  0  0  0
   19.7699   -5.5068  -16.2233 O   0  0  0  0  0  0  0  0  0  0  0  0
   21.0000   -4.5059  -14.5797 N   0  0  0  0  0  0  0  0  0  0  0  0
   20.6608   -3.1408  -14.9157 C   0  0  1  0  0  0  0  0  0  0  0  0
   19.2095   -2.8416  -14.9309 C   0  0  0  0  0  0  0  0  0  0  0  0
   18.8135   -1.1093  -14.7070 S   0  0  0  0  0  0  0  0  0  0  0  0
   21.4878   -2.1774  -14.1279 C   0  0  0  0  0  0  0  0  0  0  0  0
   22.1684   -2.5235  -13.1399 O   0  0  0  0  0  0  0  0  0  0  0  0
   21.4926   -0.8690  -14.5068 O   0  0  0  0  0  0  0  0  0  0  0  0
  1  2  1  0
  2  3  1  0
  3  5  1  0
  3  4  1  1
  5  6  2  0
  7  8  1  0
  7  5  1  0
  9 10  1  0
  8  9  1  6
 11  8  1  0
 11 12  2  0
 13 11  1  0
 14 13  1  0
 14 17  1  0
 14 15  1  1
 16 15  1  0
 17 18  2  0
 17 19  1  0
M  END
$$$$
