SCC.pdb
     RDKit          3D

 19 18  0  0  1  0  0  0  0  0999 V2000
   17.1811   -9.6540  -19.7972 O   0  0  0  0  0  0  0  0  0  0  0  0
   17.3570   -9.1981  -18.4876 C   0  0  0  0  0  0  0  0  0  0  0  0
   18.4797  -10.0178  -17.8899 C   0  0  2  0  0  0  0  0  0  0  0  0
   17.9469  -11.2721  -17.4688 N   0  0  0  0  0  0  0  0  0  0  0  0
   19.1735   -9.2830  -16.7973 C   0  0  0  0  0  0  0  0  0  0  0  0
   18.5385   -8.7885  -15.8558 O   0  0  0  0  0  0  0  0  0  0  0  0
   20.5860   -9.1660  -16.8671 N   0  0  0  0  0  0  0  0  0  0  0  0
   21.4327   -8.5342  -15.9036 C   0  0  1  0  0  0  0  0  0  0  0  0
   22.7581   -9.2049  -15.7537 C   0  0  0  0  0  0  0  0  0  0  0  0
   23.0115   -9.8874  -14.0976 S   0  0  0  0  0  0  0  0  0  0  0  0
   21.5081   -7.0468  -16.0341 C   0  0  0  0  0  0  0  0  0  0  0  0
   21.9206   -6.4992  -17.0799 O   0  0  0  0  0  0  0  0  0  0  0  0
   21.1086   -6.2190  -14.9637 N   0  0  0  0  0  0  0  0  0  0  0  0
   21.1016   -4.7729  -14.9765 C   0  0  1  0  0  0  0  0  0  0  0  0
   19.7794   -4.1508  -14.7302 C   0  0  0  0  0  0  0  0  0  0  0  0
   18.4493   -4.8367  -15.7144 S   0  0  0  0  0  0  0  0  0  0  0  0
   22.2128   -4.2277  -14.1393 C   0  0  0  0  0  0  0  0  0  0  0  0
   22.9200   -4.9485  -13.4048 O   0  0  0  0  0  0  0  0  0  0  0  0
   22.4569   -2.8883  -14.1817 O   0  0  0  0  0  0  0  0  0  0  0  0
  1  2  1  0
  2  3  1  0
  3  5  1  0
  3  4  1  1
  5  6  2  0
  7  8  1  0
  7  5  1  0
  9 10  1  0
  8  9  1  6
 11  8  1  0
 11 12  2  0
 13 11  1  0
 14 13  1  0
 14 17  1  0
 14 15  1  1
 16 15  1  0
 17 18  2  0
 17 19  1  0
M  END
$$$$
