SCC.pdb
     RDKit          3D

 19 18  0  0  1  0  0  0  0  0999 V2000
   16.6563  -11.5639  -12.5156 O   0  0  0  0  0  0  0  0  0  0  0  0
   16.1734  -10.2578  -12.3946 C   0  0  0  0  0  0  0  0  0  0  0  0
   15.2318  -10.2512  -11.2101 C   0  0  2  0  0  0  0  0  0  0  0  0
   14.0698  -11.0035  -11.5542 N   0  0  0  0  0  0  0  0  0  0  0  0
   14.9188   -8.8656  -10.7661 C   0  0  0  0  0  0  0  0  0  0  0  0
   14.1604   -8.1396  -11.4236 O   0  0  0  0  0  0  0  0  0  0  0  0
   15.5160   -8.4010   -9.5657 N   0  0  0  0  0  0  0  0  0  0  0  0
   15.3192   -7.1200   -8.9618 C   0  0  1  0  0  0  0  0  0  0  0  0
   15.3081   -7.1672   -7.4696 C   0  0  0  0  0  0  0  0  0  0  0  0
   13.9652   -8.1867   -6.8137 S   0  0  0  0  0  0  0  0  0  0  0  0
   16.1706   -6.0333   -9.5357 C   0  0  0  0  0  0  0  0  0  0  0  0
   17.3575   -6.2374   -9.8725 O   0  0  0  0  0  0  0  0  0  0  0  0
   15.6434   -4.7366   -9.7119 N   0  0  0  0  0  0  0  0  0  0  0  0
   16.2563   -3.6774  -10.4826 C   0  0  1  0  0  0  0  0  0  0  0  0
   16.7391   -4.0785  -11.8250 C   0  0  0  0  0  0  0  0  0  0  0  0
   17.5821   -2.7775  -12.7222 S   0  0  0  0  0  0  0  0  0  0  0  0
   15.4074   -2.4479  -10.4670 C   0  0  0  0  0  0  0  0  0  0  0  0
   14.1594   -2.4899  -10.4689 O   0  0  0  0  0  0  0  0  0  0  0  0
   16.0267   -1.2348  -10.4532 O   0  0  0  0  0  0  0  0  0  0  0  0
  1  2  1  0
  2  3  1  0
  3  5  1  0
  3  4  1  6
  5  6  2  0
  7  8  1  0
  7  5  1  0
  9 10  1  0
  8  9  1  1
 11  8  1  0
 11 12  2  0
 13 11  1  0
 14 13  1  0
 14 17  1  0
 14 15  1  6
 16 15  1  0
 17 18  2  0
 17 19  1  0
M  END
$$$$
