SCC.pdb
     RDKit          3D

 19 18  0  0  1  0  0  0  0  0999 V2000
   21.2770  -13.6284  -20.6388 O   0  0  0  0  0  0  0  0  0  0  0  0
   21.0510  -13.4887  -19.2666 C   0  0  0  0  0  0  0  0  0  0  0  0
   22.4078  -13.5223  -18.5976 C   0  0  2  0  0  0  0  0  0  0  0  0
   22.6233  -14.8344  -18.0816 N   0  0  0  0  0  0  0  0  0  0  0  0
   22.5351  -12.4607  -17.5622 C   0  0  0  0  0  0  0  0  0  0  0  0
   21.6777  -12.3232  -16.6788 O   0  0  0  0  0  0  0  0  0  0  0  0
   23.6696  -11.6101  -17.6179 N   0  0  0  0  0  0  0  0  0  0  0  0
   23.9874  -10.5602  -16.7007 C   0  0  1  0  0  0  0  0  0  0  0  0
   25.4559  -10.3540  -16.5266 C   0  0  0  0  0  0  0  0  0  0  0  0
   26.2735  -11.7735  -15.7588 S   0  0  0  0  0  0  0  0  0  0  0  0
   23.2117   -9.3006  -16.9166 C   0  0  0  0  0  0  0  0  0  0  0  0
   23.0442   -8.8199  -18.0589 O   0  0  0  0  0  0  0  0  0  0  0  0
   22.6439   -8.6195  -15.8192 N   0  0  0  0  0  0  0  0  0  0  0  0
   21.7859   -7.4584  -15.9028 C   0  0  1  0  0  0  0  0  0  0  0  0
   20.3462   -7.7556  -16.0896 C   0  0  0  0  0  0  0  0  0  0  0  0
   19.2716   -6.3352  -15.9005 S   0  0  0  0  0  0  0  0  0  0  0  0
   22.0857   -6.4944  -14.8012 C   0  0  0  0  0  0  0  0  0  0  0  0
   22.3155   -6.8595  -13.6294 O   0  0  0  0  0  0  0  0  0  0  0  0
   22.1048   -5.1641  -15.0935 O   0  0  0  0  0  0  0  0  0  0  0  0
  1  2  1  0
  2  3  1  0
  3  5  1  0
  3  4  1  1
  5  6  2  0
  7  8  1  0
  7  5  1  0
  9 10  1  0
  8  9  1  6
 11  8  1  0
 11 12  2  0
 13 11  1  0
 14 13  1  0
 14 17  1  0
 14 15  1  1
 16 15  1  0
 17 18  2  0
 17 19  1  0
M  END
$$$$
