SCC.pdb
     RDKit          3D

 19 18  0  0  1  0  0  0  0  0999 V2000
   18.7824  -11.4121  -20.0922 O   0  0  0  0  0  0  0  0  0  0  0  0
   18.3453  -11.1206  -18.7970 C   0  0  0  0  0  0  0  0  0  0  0  0
   19.5817  -11.0491  -17.9275 C   0  0  2  0  0  0  0  0  0  0  0  0
   19.6841  -12.2651  -17.1891 N   0  0  0  0  0  0  0  0  0  0  0  0
   19.5731   -9.8395  -17.0604 C   0  0  0  0  0  0  0  0  0  0  0  0
   18.5220   -9.4237  -16.5536 O   0  0  0  0  0  0  0  0  0  0  0  0
   20.8066   -9.1765  -16.8315 N   0  0  0  0  0  0  0  0  0  0  0  0
   20.9929   -7.9614  -16.1011 C   0  0  1  0  0  0  0  0  0  0  0  0
   22.1974   -7.9825  -15.2192 C   0  0  0  0  0  0  0  0  0  0  0  0
   21.9962   -9.0723  -13.7893 S   0  0  0  0  0  0  0  0  0  0  0  0
   20.8574   -6.7222  -16.9263 C   0  0  0  0  0  0  0  0  0  0  0  0
   21.2999   -6.6589  -18.0942 O   0  0  0  0  0  0  0  0  0  0  0  0
   20.2170   -5.5824  -16.3956 N   0  0  0  0  0  0  0  0  0  0  0  0
   19.9079   -4.3743  -17.1280 C   0  0  1  0  0  0  0  0  0  0  0  0
   18.9809   -4.5542  -18.2701 C   0  0  0  0  0  0  0  0  0  0  0  0
   19.7794   -5.0535  -19.7937 S   0  0  0  0  0  0  0  0  0  0  0  0
   19.5410   -3.2657  -16.1959 C   0  0  0  0  0  0  0  0  0  0  0  0
   19.3095   -3.4530  -14.9832 O   0  0  0  0  0  0  0  0  0  0  0  0
   19.4546   -2.0019  -16.6966 O   0  0  0  0  0  0  0  0  0  0  0  0
  1  2  1  0
  2  3  1  0
  3  5  1  0
  3  4  1  1
  5  6  2  0
  7  8  1  0
  7  5  1  0
  9 10  1  0
  8  9  1  6
 11  8  1  0
 11 12  2  0
 13 11  1  0
 14 13  1  0
 14 17  1  0
 14 15  1  6
 16 15  1  0
 17 18  2  0
 17 19  1  0
M  END
$$$$
