SCC.pdb
     RDKit          3D

 19 18  0  0  1  0  0  0  0  0999 V2000
   27.3203   -9.8050  -19.0285 O   0  0  0  0  0  0  0  0  0  0  0  0
   27.2907  -10.8252  -18.0736 C   0  0  0  0  0  0  0  0  0  0  0  0
   25.8920  -11.4019  -18.0978 C   0  0  2  0  0  0  0  0  0  0  0  0
   25.6432  -11.9259  -19.4009 N   0  0  0  0  0  0  0  0  0  0  0  0
   24.8783  -10.3999  -17.6693 C   0  0  0  0  0  0  0  0  0  0  0  0
   24.4036   -9.5864  -18.4739 O   0  0  0  0  0  0  0  0  0  0  0  0
   24.4718  -10.4048  -16.3097 N   0  0  0  0  0  0  0  0  0  0  0  0
   23.5343   -9.5123  -15.7023 C   0  0  1  0  0  0  0  0  0  0  0  0
   22.9730  -10.0306  -14.4195 C   0  0  0  0  0  0  0  0  0  0  0  0
   21.6738   -8.9670  -13.7462 S   0  0  0  0  0  0  0  0  0  0  0  0
   23.9905   -8.0899  -15.6429 C   0  0  0  0  0  0  0  0  0  0  0  0
   25.1652   -7.7889  -15.3376 O   0  0  0  0  0  0  0  0  0  0  0  0
   23.0910   -7.0430  -15.9355 N   0  0  0  0  0  0  0  0  0  0  0  0
   23.4041   -5.6315  -15.9021 C   0  0  1  0  0  0  0  0  0  0  0  0
   23.5414   -4.9888  -17.2303 C   0  0  0  0  0  0  0  0  0  0  0  0
   23.6520   -3.2020  -17.1746 S   0  0  0  0  0  0  0  0  0  0  0  0
   22.5070   -4.9096  -14.9499 C   0  0  0  0  0  0  0  0  0  0  0  0
   22.8279   -3.8324  -14.4059 O   0  0  0  0  0  0  0  0  0  0  0  0
   21.2920   -5.4558  -14.6658 O   0  0  0  0  0  0  0  0  0  0  0  0
  1  2  1  0
  2  3  1  0
  3  5  1  0
  3  4  1  6
  5  6  2  0
  7  8  1  0
  7  5  1  0
  9 10  1  0
  8  9  1  1
 11  8  1  0
 11 12  2  0
 13 11  1  0
 14 13  1  0
 14 17  1  0
 14 15  1  6
 16 15  1  0
 17 18  2  0
 17 19  1  0
M  END
$$$$
