SCC.pdb
     RDKit          3D

 19 18  0  0  1  0  0  0  0  0999 V2000
   21.9203  -13.7125  -20.7579 O   0  0  0  0  0  0  0  0  0  0  0  0
   20.9784  -13.5221  -19.7430 C   0  0  0  0  0  0  0  0  0  0  0  0
   21.6843  -13.8104  -18.4360 C   0  0  2  0  0  0  0  0  0  0  0  0
   21.1781  -15.0364  -17.9114 N   0  0  0  0  0  0  0  0  0  0  0  0
   21.5604  -12.6736  -17.4834 C   0  0  0  0  0  0  0  0  0  0  0  0
   20.4815  -12.4165  -16.9318 O   0  0  0  0  0  0  0  0  0  0  0  0
   22.7168  -11.8925  -17.2261 N   0  0  0  0  0  0  0  0  0  0  0  0
   22.7846  -10.7236  -16.4055 C   0  0  1  0  0  0  0  0  0  0  0  0
   24.1284  -10.5123  -15.7902 C   0  0  0  0  0  0  0  0  0  0  0  0
   24.5530  -11.7928  -14.5848 S   0  0  0  0  0  0  0  0  0  0  0  0
   22.1959   -9.4997  -17.0305 C   0  0  0  0  0  0  0  0  0  0  0  0
   22.1451   -9.3555  -18.2716 O   0  0  0  0  0  0  0  0  0  0  0  0
   21.6774   -8.4679  -16.2198 N   0  0  0  0  0  0  0  0  0  0  0  0
   20.9262   -7.3255  -16.6911 C   0  0  1  0  0  0  0  0  0  0  0  0
   19.7258   -7.6538  -17.4956 C   0  0  0  0  0  0  0  0  0  0  0  0
   20.0821   -8.4782  -19.0452 S   0  0  0  0  0  0  0  0  0  0  0  0
   20.6871   -6.3517  -15.5833 C   0  0  0  0  0  0  0  0  0  0  0  0
   20.9717   -6.6007  -14.3933 O   0  0  0  0  0  0  0  0  0  0  0  0
   20.1330   -5.1460  -15.8908 O   0  0  0  0  0  0  0  0  0  0  0  0
  1  2  1  0
  2  3  1  0
  3  5  1  0
  3  4  1  1
  5  6  2  0
  7  8  1  0
  7  5  1  0
  9 10  1  0
  8  9  1  6
 11  8  1  0
 11 12  2  0
 13 11  1  0
 14 13  1  0
 14 17  1  0
 14 15  1  1
 16 15  1  0
 17 18  2  0
 17 19  1  0
M  END
$$$$
