SCC.pdb
     RDKit          3D

 19 18  0  0  1  0  0  0  0  0999 V2000
   22.3114  -12.6800  -20.5875 O   0  0  0  0  0  0  0  0  0  0  0  0
   22.0671  -12.3282  -19.2570 C   0  0  0  0  0  0  0  0  0  0  0  0
   23.3889  -12.4398  -18.5289 C   0  0  2  0  0  0  0  0  0  0  0  0
   23.5124  -13.7666  -18.0203 N   0  0  0  0  0  0  0  0  0  0  0  0
   23.5245  -11.3969  -17.4757 C   0  0  0  0  0  0  0  0  0  0  0  0
   22.7854  -11.3923  -16.4817 O   0  0  0  0  0  0  0  0  0  0  0  0
   24.5272  -10.4072  -17.6451 N   0  0  0  0  0  0  0  0  0  0  0  0
   24.8140   -9.3296  -16.7501 C   0  0  1  0  0  0  0  0  0  0  0  0
   26.2759   -9.0809  -16.5763 C   0  0  0  0  0  0  0  0  0  0  0  0
   27.1100  -10.4170  -15.6864 S   0  0  0  0  0  0  0  0  0  0  0  0
   24.0060   -8.0960  -16.9956 C   0  0  0  0  0  0  0  0  0  0  0  0
   23.8449   -7.6345  -18.1467 O   0  0  0  0  0  0  0  0  0  0  0  0
   23.3995   -7.4182  -15.9170 N   0  0  0  0  0  0  0  0  0  0  0  0
   22.6101   -6.2109  -16.0199 C   0  0  1  0  0  0  0  0  0  0  0  0
   21.2024   -6.4163  -16.4351 C   0  0  0  0  0  0  0  0  0  0  0  0
   20.1669   -4.9647  -16.2669 S   0  0  0  0  0  0  0  0  0  0  0  0
   22.7838   -5.3562  -14.8066 C   0  0  0  0  0  0  0  0  0  0  0  0
   22.6853   -4.1118  -14.8385 O   0  0  0  0  0  0  0  0  0  0  0  0
   23.0636   -5.9657  -13.6211 O   0  0  0  0  0  0  0  0  0  0  0  0
  1  2  1  0
  2  3  1  0
  3  5  1  0
  3  4  1  1
  5  6  2  0
  7  8  1  0
  7  5  1  0
  9 10  1  0
  8  9  1  6
 11  8  1  0
 11 12  2  0
 13 11  1  0
 14 13  1  0
 14 17  1  0
 14 15  1  1
 16 15  1  0
 17 18  2  0
 17 19  1  0
M  END
$$$$
