SCC.pdb
     RDKit          3D

 19 18  0  0  1  0  0  0  0  0999 V2000
   27.9767  -18.5464  -15.4853 O   0  0  0  0  0  0  0  0  0  0  0  0
   27.2028  -19.5788  -16.0229 C   0  0  0  0  0  0  0  0  0  0  0  0
   27.6437  -20.8537  -15.3374 C   0  0  2  0  0  0  0  0  0  0  0  0
   28.1675  -21.7387  -16.3258 N   0  0  0  0  0  0  0  0  0  0  0  0
   26.5411  -21.4572  -14.5403 C   0  0  0  0  0  0  0  0  0  0  0  0
   25.7462  -22.2575  -15.0522 O   0  0  0  0  0  0  0  0  0  0  0  0
   26.4282  -21.0876  -13.1750 N   0  0  0  0  0  0  0  0  0  0  0  0
   25.2596  -21.2039  -12.3594 C   0  0  1  0  0  0  0  0  0  0  0  0
   25.5138  -20.9046  -10.9189 C   0  0  0  0  0  0  0  0  0  0  0  0
   24.0013  -20.9147   -9.9266 S   0  0  0  0  0  0  0  0  0  0  0  0
   24.0487  -20.5315  -12.9221 C   0  0  0  0  0  0  0  0  0  0  0  0
   24.0576  -19.3225  -13.2416 O   0  0  0  0  0  0  0  0  0  0  0  0
   22.8542  -21.2590  -13.1072 N   0  0  0  0  0  0  0  0  0  0  0  0
   21.6248  -20.7311  -13.6564 C   0  0  1  0  0  0  0  0  0  0  0  0
   21.6195  -20.5587  -15.1282 C   0  0  0  0  0  0  0  0  0  0  0  0
   21.2495  -22.0538  -16.0423 S   0  0  0  0  0  0  0  0  0  0  0  0
   20.4410  -21.4609  -13.1098 C   0  0  0  0  0  0  0  0  0  0  0  0
   20.5452  -22.5117  -12.4433 O   0  0  0  0  0  0  0  0  0  0  0  0
   19.2002  -20.9554  -13.3549 O   0  0  0  0  0  0  0  0  0  0  0  0
  1  2  1  0
  2  3  1  0
  3  5  1  0
  3  4  1  6
  5  6  2  0
  7  8  1  0
  7  5  1  0
  9 10  1  0
  8  9  1  1
 11  8  1  0
 11 12  2  0
 13 11  1  0
 14 13  1  0
 14 17  1  0
 14 15  1  6
 16 15  1  0
 17 18  2  0
 17 19  1  0
M  END
$$$$
