SCC.pdb
     RDKit          3D

 19 18  0  0  1  0  0  0  0  0999 V2000
   28.1435  -18.1721  -15.2463 O   0  0  0  0  0  0  0  0  0  0  0  0
   27.1813  -19.1797  -15.3574 C   0  0  0  0  0  0  0  0  0  0  0  0
   27.7173  -20.3767  -14.6027 C   0  0  2  0  0  0  0  0  0  0  0  0
   28.4121  -21.2157  -15.5235 N   0  0  0  0  0  0  0  0  0  0  0  0
   26.6379  -21.0887  -13.8658 C   0  0  0  0  0  0  0  0  0  0  0  0
   26.0324  -22.0393  -14.3799 O   0  0  0  0  0  0  0  0  0  0  0  0
   26.3230  -20.6450  -12.5552 N   0  0  0  0  0  0  0  0  0  0  0  0
   25.1366  -20.9522  -11.8186 C   0  0  1  0  0  0  0  0  0  0  0  0
   25.2311  -20.5933  -10.3725 C   0  0  0  0  0  0  0  0  0  0  0  0
   26.7030  -21.2816   -9.5774 S   0  0  0  0  0  0  0  0  0  0  0  0
   23.8713  -20.5092  -12.4802 C   0  0  0  0  0  0  0  0  0  0  0  0
   23.6889  -19.3194  -12.8190 O   0  0  0  0  0  0  0  0  0  0  0  0
   22.8427  -21.4393  -12.7399 N   0  0  0  0  0  0  0  0  0  0  0  0
   21.5899  -21.1449  -13.3998 C   0  0  1  0  0  0  0  0  0  0  0  0
   21.2464  -22.0479  -14.5234 C   0  0  0  0  0  0  0  0  0  0  0  0
   22.5877  -22.3300  -15.6764 S   0  0  0  0  0  0  0  0  0  0  0  0
   20.4958  -20.9478  -12.4014 C   0  0  0  0  0  0  0  0  0  0  0  0
   20.6435  -21.1820  -11.1839 O   0  0  0  0  0  0  0  0  0  0  0  0
   19.2895  -20.4966  -12.8449 O   0  0  0  0  0  0  0  0  0  0  0  0
  1  2  1  0
  2  3  1  0
  3  5  1  0
  3  4  1  6
  5  6  2  0
  7  8  1  0
  7  5  1  0
  9 10  1  0
  8  9  1  1
 11  8  1  0
 11 12  2  0
 13 11  1  0
 14 13  1  0
 14 17  1  0
 14 15  1  6
 16 15  1  0
 17 18  2  0
 17 19  1  0
M  END
$$$$
