SCC.pdb
     RDKit          3D

 19 18  0  0  1  0  0  0  0  0999 V2000
   26.4731  -18.7754  -15.9041 O   0  0  0  0  0  0  0  0  0  0  0  0
   27.7090  -18.8322  -15.2539 C   0  0  0  0  0  0  0  0  0  0  0  0
   28.0102  -20.2968  -15.0214 C   0  0  2  0  0  0  0  0  0  0  0  0
   28.2650  -20.9103  -16.2836 N   0  0  0  0  0  0  0  0  0  0  0  0
   26.9223  -20.9657  -14.2572 C   0  0  0  0  0  0  0  0  0  0  0  0
   26.1672  -21.7826  -14.8022 O   0  0  0  0  0  0  0  0  0  0  0  0
   26.7761  -20.6390  -12.8840 N   0  0  0  0  0  0  0  0  0  0  0  0
   25.6984  -21.0305  -12.0298 C   0  0  1  0  0  0  0  0  0  0  0  0
   25.9339  -20.6979  -10.5935 C   0  0  0  0  0  0  0  0  0  0  0  0
   24.4550  -20.9171   -9.5749 S   0  0  0  0  0  0  0  0  0  0  0  0
   24.3444  -20.6476  -12.5350 C   0  0  0  0  0  0  0  0  0  0  0  0
   24.0614  -19.4642  -12.8237 O   0  0  0  0  0  0  0  0  0  0  0  0
   23.3442  -21.6290  -12.6991 N   0  0  0  0  0  0  0  0  0  0  0  0
   21.9810  -21.3792  -13.1123 C   0  0  1  0  0  0  0  0  0  0  0  0
   21.3242  -22.5047  -13.8181 C   0  0  0  0  0  0  0  0  0  0  0  0
   19.5523  -22.3218  -14.0047 S   0  0  0  0  0  0  0  0  0  0  0  0
   21.1834  -20.7956  -11.9916 C   0  0  0  0  0  0  0  0  0  0  0  0
   21.3080  -21.1722  -10.8076 O   0  0  0  0  0  0  0  0  0  0  0  0
   20.2833  -19.8151  -12.2808 O   0  0  0  0  0  0  0  0  0  0  0  0
  1  2  1  0
  2  3  1  0
  3  5  1  0
  3  4  1  6
  5  6  2  0
  7  8  1  0
  7  5  1  0
  9 10  1  0
  8  9  1  1
 11  8  1  0
 11 12  2  0
 13 11  1  0
 14 13  1  0
 14 17  1  0
 14 15  1  1
 16 15  1  0
 17 18  2  0
 17 19  1  0
M  END
$$$$
