SCC.pdb
     RDKit          3D

 19 18  0  0  1  0  0  0  0  0999 V2000
   23.9948  -11.8823  -18.8231 O   0  0  0  0  0  0  0  0  0  0  0  0
   23.3748  -10.6776  -18.4797 C   0  0  0  0  0  0  0  0  0  0  0  0
   21.9483  -11.0152  -18.1045 C   0  0  2  0  0  0  0  0  0  0  0  0
   21.2702  -11.4691  -19.2744 N   0  0  0  0  0  0  0  0  0  0  0  0
   21.2683   -9.8672  -17.4452 C   0  0  0  0  0  0  0  0  0  0  0  0
   20.9146   -8.8743  -18.0959 O   0  0  0  0  0  0  0  0  0  0  0  0
   21.0373   -9.9447  -16.0472 N   0  0  0  0  0  0  0  0  0  0  0  0
   20.4326   -8.9384  -15.2311 C   0  0  1  0  0  0  0  0  0  0  0  0
   19.7473   -9.4907  -14.0251 C   0  0  0  0  0  0  0  0  0  0  0  0
   18.4295  -10.6571  -14.4443 S   0  0  0  0  0  0  0  0  0  0  0  0
   21.3130   -7.7626  -14.9529 C   0  0  0  0  0  0  0  0  0  0  0  0
   22.5475   -7.8885  -14.7977 O   0  0  0  0  0  0  0  0  0  0  0  0
   20.7600   -6.4680  -14.8592 N   0  0  0  0  0  0  0  0  0  0  0  0
   21.5125   -5.2340  -14.8094 C   0  0  1  0  0  0  0  0  0  0  0  0
   22.5378   -5.0824  -15.8685 C   0  0  0  0  0  0  0  0  0  0  0  0
   23.4886   -3.5684  -15.7602 S   0  0  0  0  0  0  0  0  0  0  0  0
   20.6009   -4.0606  -14.6516 C   0  0  0  0  0  0  0  0  0  0  0  0
   20.8804   -3.0818  -13.9284 O   0  0  0  0  0  0  0  0  0  0  0  0
   19.4169   -4.0666  -15.3249 O   0  0  0  0  0  0  0  0  0  0  0  0
  1  2  1  0
  2  3  1  0
  3  5  1  0
  3  4  1  6
  5  6  2  0
  7  8  1  0
  7  5  1  0
  9 10  1  0
  8  9  1  1
 11  8  1  0
 11 12  2  0
 13 11  1  0
 14 13  1  0
 14 17  1  0
 14 15  1  6
 16 15  1  0
 17 18  2  0
 17 19  1  0
M  END
$$$$
