IKG.pdb
     RDKit          3D

 22 21  0  0  1  0  0  0  0  0999 V2000
   23.8329  -14.1163  -18.4652 C   0  0  0  0  0  0  0  0  0  0  0  0
   23.3372  -13.6749  -17.0855 C   0  0  0  0  0  0  0  0  0  0  0  0
   22.9920  -12.2051  -17.1094 C   0  0  2  0  0  0  0  0  0  0  0  0
   24.1261  -11.4056  -17.6596 C   0  0  0  0  0  0  0  0  0  0  0  0
   22.4819  -11.6893  -15.7885 C   0  0  2  0  0  0  0  0  0  0  0  0
   21.3824  -12.5204  -15.3088 N   0  0  0  0  0  0  0  0  0  0  0  0
   22.0421  -10.2956  -15.8016 C   0  0  0  0  0  0  0  0  0  0  0  0
   22.7978   -9.3440  -16.1578 O   0  0  0  0  0  0  0  0  0  0  0  0
   20.7213   -9.9516  -15.4062 N   0  0  0  0  0  0  0  0  0  0  0  0
   20.2062   -8.5696  -15.4751 C   0  0  1  0  0  0  0  0  0  0  0  0
   18.7028   -8.5900  -15.4384 C   0  0  0  0  0  0  0  0  0  0  0  0
   18.0422   -9.2087  -16.6324 C   0  0  0  0  0  0  0  0  0  0  0  0
   16.9924  -10.2353  -16.1793 C   0  0  0  0  0  0  0  0  0  0  0  0
   16.2718  -10.8103  -17.3804 C   0  0  0  0  0  0  0  0  0  0  0  0
   15.2289  -11.7086  -16.9238 N   0  0  0  0  0  0  0  0  0  0  0  0
   20.7759   -7.7654  -14.3779 C   0  0  0  0  0  0  0  0  0  0  0  0
   20.9140   -8.1885  -13.2141 O   0  0  0  0  0  0  0  0  0  0  0  0
   21.2206   -6.4065  -14.5843 N   0  0  0  0  0  0  0  0  0  0  0  0
   21.8028   -5.6228  -13.5286 C   0  0  0  0  0  0  0  0  0  0  0  0
   22.2339   -4.2894  -13.9557 C   0  0  0  0  0  0  0  0  0  0  0  0
   22.7762   -3.4372  -13.0056 O   0  0  0  0  0  0  0  0  0  0  0  0
   22.1443   -3.8635  -15.1336 O   0  0  0  0  0  0  0  0  0  0  0  0
  2  1  1  0
  3  2  1  0
  3  5  1  0
  3  4  1  1
  5  6  1  6
  7  5  1  0
  7  8  2  0
  9  7  1  0
 10  9  1  0
 10 11  1  1
 12 11  1  0
 12 13  1  0
 13 14  1  0
 14 15  1  0
 16 10  1  0
 17 16  2  0
 18 16  1  0
 19 20  1  0
 19 18  1  0
 20 21  1  0
 22 20  2  0
M  END
$$$$
