IKG.pdb
     RDKit          3D

 22 21  0  0  1  0  0  0  0  0999 V2000
   28.1055  -34.9837  -19.0848 C   0  0  0  0  0  0  0  0  0  0  0  0
   29.0610  -33.8107  -18.8498 C   0  0  0  0  0  0  0  0  0  0  0  0
   28.3421  -32.7000  -18.1222 C   0  0  2  0  0  0  0  0  0  0  0  0
   27.1273  -32.2740  -18.8779 C   0  0  0  0  0  0  0  0  0  0  0  0
   29.2429  -31.5532  -17.7422 C   0  0  2  0  0  0  0  0  0  0  0  0
   30.3268  -32.0212  -16.8844 N   0  0  0  0  0  0  0  0  0  0  0  0
   28.5709  -30.4379  -17.0786 C   0  0  0  0  0  0  0  0  0  0  0  0
   28.4497  -30.3643  -15.8203 O   0  0  0  0  0  0  0  0  0  0  0  0
   28.0175  -29.3728  -17.8391 N   0  0  0  0  0  0  0  0  0  0  0  0
   27.3144  -28.2336  -17.2161 C   0  0  1  0  0  0  0  0  0  0  0  0
   28.1593  -26.9950  -17.3337 C   0  0  0  0  0  0  0  0  0  0  0  0
   27.6973  -25.8259  -16.5186 C   0  0  0  0  0  0  0  0  0  0  0  0
   26.8798  -24.8642  -17.3950 C   0  0  0  0  0  0  0  0  0  0  0  0
   26.4245  -23.6728  -16.5790 C   0  0  0  0  0  0  0  0  0  0  0  0
   25.6227  -22.8017  -17.4164 N   0  0  0  0  0  0  0  0  0  0  0  0
   25.9883  -28.0604  -17.8379 C   0  0  0  0  0  0  0  0  0  0  0  0
   25.8074  -28.0042  -19.0693 O   0  0  0  0  0  0  0  0  0  0  0  0
   24.7872  -27.9420  -17.0439 N   0  0  0  0  0  0  0  0  0  0  0  0
   23.4958  -27.7231  -17.6373 C   0  0  0  0  0  0  0  0  0  0  0  0
   22.4313  -27.4892  -16.6584 C   0  0  0  0  0  0  0  0  0  0  0  0
   21.1468  -27.2560  -17.1259 O   0  0  0  0  0  0  0  0  0  0  0  0
   22.6058  -27.4858  -15.4149 O   0  0  0  0  0  0  0  0  0  0  0  0
  2  1  1  0
  3  2  1  0
  3  5  1  0
  3  4  1  6
  5  6  1  1
  7  5  1  0
  7  8  2  0
  9  7  1  0
 10  9  1  0
 10 11  1  6
 12 11  1  0
 12 13  1  0
 13 14  1  0
 14 15  1  0
 16 10  1  0
 17 16  2  0
 18 16  1  0
 19 20  1  0
 19 18  1  0
 20 21  1  0
 22 20  2  0
M  END
$$$$
