IKG.pdb
     RDKit          3D

 22 21  0  0  1  0  0  0  0  0999 V2000
   29.1035  -19.6712  -19.7376 C   0  0  0  0  0  0  0  0  0  0  0  0
   28.5780  -18.7909  -18.6003 C   0  0  0  0  0  0  0  0  0  0  0  0
   27.3988  -19.4599  -17.9356 C   0  0  2  0  0  0  0  0  0  0  0  0
   26.4046  -19.9104  -18.9538 C   0  0  0  0  0  0  0  0  0  0  0  0
   26.7907  -18.6374  -16.8289 C   0  0  2  0  0  0  0  0  0  0  0  0
   27.8374  -18.0228  -16.0186 N   0  0  0  0  0  0  0  0  0  0  0  0
   25.8859  -19.3697  -15.9451 C   0  0  0  0  0  0  0  0  0  0  0  0
   24.8317  -19.9338  -16.3621 O   0  0  0  0  0  0  0  0  0  0  0  0
   26.1635  -19.4769  -14.5557 N   0  0  0  0  0  0  0  0  0  0  0  0
   25.1882  -20.0222  -13.5906 C   0  0  1  0  0  0  0  0  0  0  0  0
   25.8472  -20.1907  -12.2493 C   0  0  0  0  0  0  0  0  0  0  0  0
   24.9477  -20.6679  -11.1502 C   0  0  0  0  0  0  0  0  0  0  0  0
   25.6875  -20.6130   -9.8043 C   0  0  0  0  0  0  0  0  0  0  0  0
   24.8231  -21.2005   -8.7089 C   0  0  0  0  0  0  0  0  0  0  0  0
   25.4563  -20.9646   -7.4258 N   0  0  0  0  0  0  0  0  0  0  0  0
   24.0057  -19.1436  -13.5201 C   0  0  0  0  0  0  0  0  0  0  0  0
   24.0741  -17.9061  -13.3928 O   0  0  0  0  0  0  0  0  0  0  0  0
   22.6627  -19.6706  -13.5957 N   0  0  0  0  0  0  0  0  0  0  0  0
   22.3533  -20.8776  -14.3135 C   0  0  0  0  0  0  0  0  0  0  0  0
   21.5493  -21.8297  -13.5433 C   0  0  0  0  0  0  0  0  0  0  0  0
   20.6066  -22.5915  -14.2171 O   0  0  0  0  0  0  0  0  0  0  0  0
   21.6576  -22.0032  -12.3043 O   0  0  0  0  0  0  0  0  0  0  0  0
  2  1  1  0
  3  2  1  0
  3  5  1  0
  3  4  1  6
  5  6  1  1
  7  5  1  0
  7  8  2  0
  9  7  1  0
 10  9  1  0
 10 11  1  1
 12 11  1  0
 12 13  1  0
 13 14  1  0
 14 15  1  0
 16 10  1  0
 17 16  2  0
 18 16  1  0
 19 20  1  0
 19 18  1  0
 20 21  1  0
 22 20  2  0
M  END
$$$$
