IKG.pdb
     RDKit          3D

 22 21  0  0  1  0  0  0  0  0999 V2000
   23.1528  -12.5357  -20.2920 C   0  0  0  0  0  0  0  0  0  0  0  0
   21.6299  -12.3842  -20.2455 C   0  0  0  0  0  0  0  0  0  0  0  0
   21.2642  -11.0580  -19.6231 C   0  0  2  0  0  0  0  0  0  0  0  0
   21.7215   -9.9272  -20.4835 C   0  0  0  0  0  0  0  0  0  0  0  0
   21.7012  -10.9312  -18.1864 C   0  0  2  0  0  0  0  0  0  0  0  0
   21.3849  -12.1505  -17.4495 N   0  0  0  0  0  0  0  0  0  0  0  0
   21.1323   -9.7918  -17.4694 C   0  0  0  0  0  0  0  0  0  0  0  0
   21.2193   -8.6030  -17.8968 O   0  0  0  0  0  0  0  0  0  0  0  0
   20.4460   -9.9821  -16.2399 N   0  0  0  0  0  0  0  0  0  0  0  0
   19.7816   -8.8763  -15.5216 C   0  0  1  0  0  0  0  0  0  0  0  0
   18.5598   -9.3964  -14.8156 C   0  0  0  0  0  0  0  0  0  0  0  0
   17.3799   -9.6709  -15.6973 C   0  0  0  0  0  0  0  0  0  0  0  0
   16.1876  -10.1404  -14.8490 C   0  0  0  0  0  0  0  0  0  0  0  0
   14.9962  -10.4296  -15.7373 C   0  0  0  0  0  0  0  0  0  0  0  0
   13.9357  -11.0098  -14.9362 N   0  0  0  0  0  0  0  0  0  0  0  0
   20.7310   -8.2402  -14.5894 C   0  0  0  0  0  0  0  0  0  0  0  0
   21.4537   -8.8787  -13.8005 O   0  0  0  0  0  0  0  0  0  0  0  0
   20.8889   -6.8054  -14.5281 N   0  0  0  0  0  0  0  0  0  0  0  0
   21.7862   -6.1730  -13.5994 C   0  0  0  0  0  0  0  0  0  0  0  0
   21.9305   -4.7306  -13.8113 C   0  0  0  0  0  0  0  0  0  0  0  0
   22.6742   -4.0019  -12.8954 O   0  0  0  0  0  0  0  0  0  0  0  0
   21.4218   -4.1054  -14.7742 O   0  0  0  0  0  0  0  0  0  0  0  0
  2  1  1  0
  3  2  1  0
  3  5  1  0
  3  4  1  6
  5  6  1  1
  7  5  1  0
  7  8  2  0
  9  7  1  0
 10  9  1  0
 10 11  1  1
 12 11  1  0
 12 13  1  0
 13 14  1  0
 14 15  1  0
 16 10  1  0
 17 16  2  0
 18 16  1  0
 19 20  1  0
 19 18  1  0
 20 21  1  0
 22 20  2  0
M  END
$$$$
