IKG.pdb
     RDKit          3D

 22 21  0  0  1  0  0  0  0  0999 V2000
   26.8518  -20.9798   -8.3946 C   0  0  0  0  0  0  0  0  0  0  0  0
   25.5881  -20.2870   -8.9117 C   0  0  0  0  0  0  0  0  0  0  0  0
   25.3816  -20.6169  -10.3706 C   0  0  2  0  0  0  0  0  0  0  0  0
   26.6539  -20.4530  -11.1339 C   0  0  0  0  0  0  0  0  0  0  0  0
   24.2153  -19.8898  -10.9887 C   0  0  2  0  0  0  0  0  0  0  0  0
   22.9860  -20.1907  -10.2621 N   0  0  0  0  0  0  0  0  0  0  0  0
   23.9992  -20.1684  -12.4070 C   0  0  0  0  0  0  0  0  0  0  0  0
   24.9272  -20.1001  -13.2659 O   0  0  0  0  0  0  0  0  0  0  0  0
   22.7112  -20.5342  -12.8828 N   0  0  0  0  0  0  0  0  0  0  0  0
   22.4125  -20.6991  -14.3194 C   0  0  1  0  0  0  0  0  0  0  0  0
   21.1776  -21.5417  -14.4836 C   0  0  0  0  0  0  0  0  0  0  0  0
   21.4257  -22.9882  -14.7851 C   0  0  0  0  0  0  0  0  0  0  0  0
   21.1440  -23.8409  -13.5381 C   0  0  0  0  0  0  0  0  0  0  0  0
   21.3483  -25.3080  -13.8516 C   0  0  0  0  0  0  0  0  0  0  0  0
   21.1662  -26.0829  -12.6394 N   0  0  0  0  0  0  0  0  0  0  0  0
   22.2700  -19.3774  -14.9582 C   0  0  0  0  0  0  0  0  0  0  0  0
   21.2653  -18.6528  -14.8244 O   0  0  0  0  0  0  0  0  0  0  0  0
   23.3072  -18.8245  -15.7983 N   0  0  0  0  0  0  0  0  0  0  0  0
   23.1714  -18.7410  -17.2274 C   0  0  0  0  0  0  0  0  0  0  0  0
   22.0042  -17.9701  -17.6628 C   0  0  0  0  0  0  0  0  0  0  0  0
   20.7793  -18.6158  -17.7374 O   0  0  0  0  0  0  0  0  0  0  0  0
   22.0393  -16.7544  -17.9753 O   0  0  0  0  0  0  0  0  0  0  0  0
  2  1  1  0
  3  2  1  0
  3  5  1  0
  3  4  1  6
  5  6  1  1
  7  5  1  0
  7  8  2  0
  9  7  1  0
 10  9  1  0
 10 11  1  1
 12 11  1  0
 12 13  1  0
 13 14  1  0
 14 15  1  0
 16 10  1  0
 17 16  2  0
 18 16  1  0
 19 20  1  0
 19 18  1  0
 20 21  1  0
 22 20  2  0
M  END
$$$$
