IKG.pdb
     RDKit          3D

 22 21  0  0  1  0  0  0  0  0999 V2000
   19.5048  -19.7473    1.0334 C   0  0  0  0  0  0  0  0  0  0  0  0
   18.2413  -19.4784    1.8553 C   0  0  0  0  0  0  0  0  0  0  0  0
   18.2378  -18.0481    2.3393 C   0  0  2  0  0  0  0  0  0  0  0  0
   19.3995  -17.7934    3.2414 C   0  0  0  0  0  0  0  0  0  0  0  0
   16.9183  -17.6194    2.9276 C   0  0  2  0  0  0  0  0  0  0  0  0
   15.8239  -17.9632    2.0253 N   0  0  0  0  0  0  0  0  0  0  0  0
   16.8243  -16.1981    3.2548 C   0  0  0  0  0  0  0  0  0  0  0  0
   16.3842  -15.3365    2.4378 O   0  0  0  0  0  0  0  0  0  0  0  0
   17.2326  -15.7222    4.5299 N   0  0  0  0  0  0  0  0  0  0  0  0
   17.0981  -14.3074    4.9301 C   0  0  1  0  0  0  0  0  0  0  0  0
   16.0740  -14.1888    6.0251 C   0  0  0  0  0  0  0  0  0  0  0  0
   15.7285  -12.7879    6.4288 C   0  0  0  0  0  0  0  0  0  0  0  0
   14.4915  -12.7935    7.3405 C   0  0  0  0  0  0  0  0  0  0  0  0
   14.1572  -11.3825    7.7760 C   0  0  0  0  0  0  0  0  0  0  0  0
   12.9897  -11.4143    8.6356 N   0  0  0  0  0  0  0  0  0  0  0  0
   18.4107  -13.7738    5.3395 C   0  0  0  0  0  0  0  0  0  0  0  0
   19.2571  -14.4363    5.9696 O   0  0  0  0  0  0  0  0  0  0  0  0
   18.8097  -12.4201    5.0305 N   0  0  0  0  0  0  0  0  0  0  0  0
   20.0989  -11.8994    5.3973 C   0  0  0  0  0  0  0  0  0  0  0  0
   20.3081  -11.8137    6.8447 C   0  0  0  0  0  0  0  0  0  0  0  0
   21.4900  -11.2551    7.3071 O   0  0  0  0  0  0  0  0  0  0  0  0
   19.4821  -12.2154    7.7011 O   0  0  0  0  0  0  0  0  0  0  0  0
  2  1  1  0
  3  2  1  0
  3  5  1  0
  3  4  1  1
  5  6  1  6
  7  5  1  0
  7  8  2  0
  9  7  1  0
 10  9  1  0
 10 11  1  1
 12 11  1  0
 12 13  1  0
 13 14  1  0
 14 15  1  0
 16 10  1  0
 17 16  2  0
 18 16  1  0
 19 20  1  0
 19 18  1  0
 20 21  1  0
 22 20  2  0
M  END
$$$$
