IKG.pdb
     RDKit          3D

 22 21  0  0  1  0  0  0  0  0999 V2000
   20.2230  -14.0082  -17.6268 C   0  0  0  0  0  0  0  0  0  0  0  0
   19.2108  -14.1387  -16.4855 C   0  0  0  0  0  0  0  0  0  0  0  0
   18.4081  -12.8657  -16.3624 C   0  0  2  0  0  0  0  0  0  0  0  0
   19.3080  -11.6751  -16.3350 C   0  0  0  0  0  0  0  0  0  0  0  0
   17.4159  -12.8919  -15.2285 C   0  0  2  0  0  0  0  0  0  0  0  0
   16.6903  -14.1580  -15.2173 N   0  0  0  0  0  0  0  0  0  0  0  0
   16.4464  -11.7984  -15.2350 C   0  0  0  0  0  0  0  0  0  0  0  0
   15.7590  -11.5008  -16.2560 O   0  0  0  0  0  0  0  0  0  0  0  0
   16.2361  -11.0130  -14.0697 N   0  0  0  0  0  0  0  0  0  0  0  0
   15.2840   -9.8850  -14.0332 C   0  0  1  0  0  0  0  0  0  0  0  0
   14.2987  -10.0934  -12.9162 C   0  0  0  0  0  0  0  0  0  0  0  0
   13.0775  -10.8818  -13.2794 C   0  0  0  0  0  0  0  0  0  0  0  0
   12.1808  -11.0607  -12.0444 C   0  0  0  0  0  0  0  0  0  0  0  0
   10.8823  -11.7344  -12.4348 C   0  0  0  0  0  0  0  0  0  0  0  0
   10.1034  -11.9941  -11.2395 N   0  0  0  0  0  0  0  0  0  0  0  0
   16.0171   -8.6127  -13.8947 C   0  0  0  0  0  0  0  0  0  0  0  0
   15.4615   -7.5173  -13.6857 O   0  0  0  0  0  0  0  0  0  0  0  0
   17.4571   -8.5514  -13.9944 N   0  0  0  0  0  0  0  0  0  0  0  0
   18.1785   -7.3108  -13.9053 C   0  0  0  0  0  0  0  0  0  0  0  0
   18.2198   -6.5632  -15.1645 C   0  0  0  0  0  0  0  0  0  0  0  0
   18.9450   -5.3820  -15.2053 O   0  0  0  0  0  0  0  0  0  0  0  0
   17.6378   -6.9235  -16.2173 O   0  0  0  0  0  0  0  0  0  0  0  0
  2  1  1  0
  3  2  1  0
  3  5  1  0
  3  4  1  1
  5  6  1  6
  7  5  1  0
  7  8  2  0
  9  7  1  0
 10  9  1  0
 10 11  1  1
 12 11  1  0
 12 13  1  0
 13 14  1  0
 14 15  1  0
 16 10  1  0
 17 16  2  0
 18 16  1  0
 19 20  1  0
 19 18  1  0
 20 21  1  0
 22 20  2  0
M  END
$$$$
