IKG.pdb
     RDKit          3D

 22 21  0  0  1  0  0  0  0  0999 V2000
   24.1591  -21.4492   -5.9615 C   0  0  0  0  0  0  0  0  0  0  0  0
   25.4154  -21.0397   -6.7349 C   0  0  0  0  0  0  0  0  0  0  0  0
   25.0740  -20.8169   -8.1888 C   0  0  2  0  0  0  0  0  0  0  0  0
   24.3191  -21.9817   -8.7381 C   0  0  0  0  0  0  0  0  0  0  0  0
   26.2622  -20.4245   -9.0285 C   0  0  2  0  0  0  0  0  0  0  0  0
   26.8981  -19.2298   -8.4824 N   0  0  0  0  0  0  0  0  0  0  0  0
   25.9666  -20.1917  -10.4407 C   0  0  0  0  0  0  0  0  0  0  0  0
   25.4257  -19.1258  -10.8588 O   0  0  0  0  0  0  0  0  0  0  0  0
   26.2829  -21.1752  -11.4162 N   0  0  0  0  0  0  0  0  0  0  0  0
   25.9775  -20.9988  -12.8500 C   0  0  1  0  0  0  0  0  0  0  0  0
   26.8122  -21.9493  -13.6634 C   0  0  0  0  0  0  0  0  0  0  0  0
   26.5679  -21.9113  -15.1412 C   0  0  0  0  0  0  0  0  0  0  0  0
   27.6594  -21.0799  -15.8332 C   0  0  0  0  0  0  0  0  0  0  0  0
   27.4344  -21.0654  -17.3304 C   0  0  0  0  0  0  0  0  0  0  0  0
   28.4571  -20.2502  -17.9568 N   0  0  0  0  0  0  0  0  0  0  0  0
   24.5339  -21.1903  -13.0838 C   0  0  0  0  0  0  0  0  0  0  0  0
   23.8232  -21.9594  -12.4087 O   0  0  0  0  0  0  0  0  0  0  0  0
   23.8345  -20.4844  -14.1324 N   0  0  0  0  0  0  0  0  0  0  0  0
   22.3995  -20.4751  -14.2237 C   0  0  0  0  0  0  0  0  0  0  0  0
   21.8901  -19.7668  -15.4005 C   0  0  0  0  0  0  0  0  0  0  0  0
   22.8013  -19.1417  -16.2382 O   0  0  0  0  0  0  0  0  0  0  0  0
   20.6740  -19.6872  -15.7034 O   0  0  0  0  0  0  0  0  0  0  0  0
  2  1  1  0
  3  2  1  0
  3  5  1  0
  3  4  1  6
  5  6  1  1
  7  5  1  0
  7  8  2  0
  9  7  1  0
 10  9  1  0
 10 11  1  6
 12 11  1  0
 12 13  1  0
 13 14  1  0
 14 15  1  0
 16 10  1  0
 17 16  2  0
 18 16  1  0
 19 20  1  0
 19 18  1  0
 20 21  1  0
 22 20  2  0
M  END
$$$$
