IKG.pdb
     RDKit          3D

 22 21  0  0  1  0  0  0  0  0999 V2000
   29.7645  -21.2139  -11.1426 C   0  0  0  0  0  0  0  0  0  0  0  0
   28.2875  -21.0332  -10.7819 C   0  0  0  0  0  0  0  0  0  0  0  0
   27.4792  -20.7870  -12.0334 C   0  0  2  0  0  0  0  0  0  0  0  0
   28.0961  -19.7045  -12.8555 C   0  0  0  0  0  0  0  0  0  0  0  0
   26.0121  -20.5717  -11.7647 C   0  0  2  0  0  0  0  0  0  0  0  0
   25.5039  -21.6017  -10.8644 N   0  0  0  0  0  0  0  0  0  0  0  0
   25.1678  -20.5363  -12.9572 C   0  0  0  0  0  0  0  0  0  0  0  0
   25.1706  -19.5633  -13.7676 O   0  0  0  0  0  0  0  0  0  0  0  0
   24.2946  -21.6167  -13.2558 N   0  0  0  0  0  0  0  0  0  0  0  0
   23.4246  -21.6283  -14.4488 C   0  0  1  0  0  0  0  0  0  0  0  0
   23.5280  -22.9628  -15.1345 C   0  0  0  0  0  0  0  0  0  0  0  0
   24.9176  -23.3898  -15.4970 C   0  0  0  0  0  0  0  0  0  0  0  0
   24.8864  -24.7791  -16.1529 C   0  0  0  0  0  0  0  0  0  0  0  0
   26.2823  -25.1912  -16.5702 C   0  0  0  0  0  0  0  0  0  0  0  0
   26.2565  -26.5697  -17.0198 N   0  0  0  0  0  0  0  0  0  0  0  0
   22.0373  -21.3102  -14.0625 C   0  0  0  0  0  0  0  0  0  0  0  0
   21.5710  -21.5298  -12.9282 O   0  0  0  0  0  0  0  0  0  0  0  0
   21.1086  -20.7108  -14.9927 N   0  0  0  0  0  0  0  0  0  0  0  0
   19.7328  -20.4685  -14.6520 C   0  0  0  0  0  0  0  0  0  0  0  0
   19.4836  -19.1199  -14.1370 C   0  0  0  0  0  0  0  0  0  0  0  0
   18.2016  -18.8033  -13.7137 O   0  0  0  0  0  0  0  0  0  0  0  0
   20.3602  -18.2247  -14.0527 O   0  0  0  0  0  0  0  0  0  0  0  0
  2  1  1  0
  3  2  1  0
  3  5  1  0
  3  4  1  1
  5  6  1  1
  7  5  1  0
  7  8  2  0
  9  7  1  0
 10  9  1  0
 10 11  1  1
 12 11  1  0
 12 13  1  0
 13 14  1  0
 14 15  1  0
 16 10  1  0
 17 16  2  0
 18 16  1  0
 19 20  1  0
 19 18  1  0
 20 21  1  0
 22 20  2  0
M  END
$$$$
