IKG.pdb
     RDKit          3D

 22 21  0  0  1  0  0  0  0  0999 V2000
   27.8159  -15.7564  -17.3089 C   0  0  0  0  0  0  0  0  0  0  0  0
   27.2605  -14.8395  -16.2157 C   0  0  0  0  0  0  0  0  0  0  0  0
   26.0779  -14.0650  -16.7464 C   0  0  2  0  0  0  0  0  0  0  0  0
   26.4253  -13.3843  -18.0286 C   0  0  0  0  0  0  0  0  0  0  0  0
   25.4617  -13.1420  -15.7269 C   0  0  2  0  0  0  0  0  0  0  0  0
   25.2399  -13.8490  -14.4696 N   0  0  0  0  0  0  0  0  0  0  0  0
   24.2052  -12.5206  -16.1407 C   0  0  0  0  0  0  0  0  0  0  0  0
   24.1463  -11.6331  -17.0420 O   0  0  0  0  0  0  0  0  0  0  0  0
   22.9780  -12.8989  -15.5326 N   0  0  0  0  0  0  0  0  0  0  0  0
   21.7019  -12.2177  -15.8282 C   0  0  1  0  0  0  0  0  0  0  0  0
   20.5547  -13.1362  -15.5085 C   0  0  0  0  0  0  0  0  0  0  0  0
   19.1970  -12.6114  -15.8634 C   0  0  0  0  0  0  0  0  0  0  0  0
   18.1261  -13.6672  -15.5474 C   0  0  0  0  0  0  0  0  0  0  0  0
   16.7618  -13.1730  -15.9796 C   0  0  0  0  0  0  0  0  0  0  0  0
   15.7696  -14.1836  -15.6680 N   0  0  0  0  0  0  0  0  0  0  0  0
   21.6226  -10.9507  -15.0773 C   0  0  0  0  0  0  0  0  0  0  0  0
   21.9949  -10.8269  -13.8948 O   0  0  0  0  0  0  0  0  0  0  0  0
   21.0973   -9.7453  -15.6756 N   0  0  0  0  0  0  0  0  0  0  0  0
   20.8460   -8.5560  -14.9073 C   0  0  0  0  0  0  0  0  0  0  0  0
   21.9518   -7.5955  -14.9325 C   0  0  0  0  0  0  0  0  0  0  0  0
   21.8190   -6.4198  -14.2094 O   0  0  0  0  0  0  0  0  0  0  0  0
   23.0200   -7.7672  -15.5700 O   0  0  0  0  0  0  0  0  0  0  0  0
  2  1  1  0
  3  2  1  0
  3  5  1  0
  3  4  1  6
  5  6  1  1
  7  5  1  0
  7  8  2  0
  9  7  1  0
 10  9  1  0
 10 11  1  1
 12 11  1  0
 12 13  1  0
 13 14  1  0
 14 15  1  0
 16 10  1  0
 17 16  2  0
 18 16  1  0
 19 20  1  0
 19 18  1  0
 20 21  1  0
 22 20  2  0
M  END
$$$$
