HRI.pdb
     RDKit          3D

 30 30  0  0  1  0  0  0  0  0999 V2000
   27.5190  -21.1505  -14.4389 N   0  0  0  0  0  0  0  0  0  0  0  0
   26.5056  -21.0930  -13.4345 C   0  0  1  0  0  0  0  0  0  0  0  0
   26.9412  -20.0504  -12.4004 C   0  0  0  0  0  0  0  0  0  0  0  0
   28.0682  -20.5742  -11.5915 C   0  0  0  0  0  0  0  0  0  0  0  0
   28.7883  -21.7230  -11.6875 C   0  0  0  0  0  0  0  0  0  0  0  0
   29.7037  -21.7115  -10.7008 N   0  0  0  0  0  0  0  0  0  0  0  0
   29.5647  -20.5764   -9.9943 C   0  0  0  0  0  0  0  0  0  0  0  0
   28.5677  -19.8838  -10.5376 N   0  0  0  0  0  0  0  0  0  0  0  0
   25.1959  -20.7048  -14.0341 C   0  0  0  0  0  0  0  0  0  0  0  0
   25.1330  -19.8516  -14.9571 O   0  0  0  0  0  0  0  0  0  0  0  0
   24.1960  -25.9780  -16.0334 N   0  0  0  0  0  0  0  0  0  0  0  0
   23.2761  -26.3505  -15.0485 C   0  0  0  0  0  0  0  0  0  0  0  0
   23.5151  -27.3144  -14.2035 N   0  0  0  0  0  0  0  0  0  0  0  0
   22.0416  -25.6941  -14.9213 N   0  0  0  0  0  0  0  0  0  0  0  0
   21.6529  -24.5442  -15.6865 C   0  0  0  0  0  0  0  0  0  0  0  0
   22.4576  -23.2990  -15.4340 C   0  0  0  0  0  0  0  0  0  0  0  0
   21.9142  -22.3913  -14.3997 C   0  0  0  0  0  0  0  0  0  0  0  0
   22.6923  -21.1406  -14.1374 C   0  0  2  0  0  0  0  0  0  0  0  0
   23.9837  -21.2976  -13.5692 N   0  0  0  0  0  0  0  0  0  0  0  0
   21.8680  -20.0358  -13.6279 C   0  0  0  0  0  0  0  0  0  0  0  0
   21.8387  -19.8868  -12.3623 O   0  0  0  0  0  0  0  0  0  0  0  0
   22.7888  -27.5168  -13.4883 C   0  0  0  0  0  0  0  0  0  0  0  0
   20.1651  -14.5681  -14.1257 C   0  0  0  0  0  0  0  0  0  0  0  0
   19.3258  -15.7837  -14.2531 C   0  0  2  0  0  0  0  0  0  0  0  0
   19.9591  -17.0308  -14.7215 C   0  0  0  0  0  0  0  0  0  0  0  0
   19.3327  -17.4695  -16.0300 C   0  0  2  0  0  0  0  0  0  0  0  0
   20.2344  -18.1107  -13.7520 N   0  0  0  0  0  0  0  0  0  0  0  0
   21.1071  -19.1326  -14.3939 C   0  0  0  0  0  0  0  0  0  0  0  0
   19.1125  -18.8424  -13.1873 O   0  0  0  0  0  0  0  0  0  0  0  0
   18.4874  -18.4393  -12.0040 O   0  0  0  0  0  0  0  0  0  0  0  0
  2  9  1  0
  2  3  1  0
  2  1  1  6
  3  4  1  0
  4  8  1  0
  5  6  1  0
  5  4  2  0
  6  7  1  0
  7  8  2  0
  9 10  2  0
 11 12  1  0
 12 14  1  0
 12 13  2  0
 14 15  1  0
 15 16  1  0
 16 17  1  0
 18 17  1  1
 18 20  1  0
 19 18  1  0
 19  9  1  0
 20 21  2  0
 22 23  1  0
 23 24  1  0
 24 25  1  1
 24 26  1  0
 26 28  1  0
 27 20  1  0
 26 27  1  1
 28 30  2  0
 28 29  1  0
M  END
$$$$
