HRI.pdb
     RDKit          3D

 30 30  0  0  1  0  0  0  0  0999 V2000
   19.8175  -11.2727  -17.3182 N   0  0  0  0  0  0  0  0  0  0  0  0
   19.2521  -10.7371  -16.1214 C   0  0  1  0  0  0  0  0  0  0  0  0
   18.8873  -11.9176  -15.2161 C   0  0  0  0  0  0  0  0  0  0  0  0
   17.8469  -12.7535  -15.8624 C   0  0  0  0  0  0  0  0  0  0  0  0
   17.9047  -13.9911  -16.4213 C   0  0  0  0  0  0  0  0  0  0  0  0
   16.6713  -14.2922  -16.8683 N   0  0  0  0  0  0  0  0  0  0  0  0
   15.8492  -13.2640  -16.5967 C   0  0  0  0  0  0  0  0  0  0  0  0
   16.5664  -12.3265  -15.9837 N   0  0  0  0  0  0  0  0  0  0  0  0
   20.2310   -9.8462  -15.4332 C   0  0  0  0  0  0  0  0  0  0  0  0
   19.9923   -9.3834  -14.2875 O   0  0  0  0  0  0  0  0  0  0  0  0
   28.3078  -11.8547  -16.8870 N   0  0  0  0  0  0  0  0  0  0  0  0
   27.2960  -12.6747  -16.3783 C   0  0  0  0  0  0  0  0  0  0  0  0
   27.4531  -13.9605  -16.2285 N   0  0  0  0  0  0  0  0  0  0  0  0
   26.0528  -12.1444  -15.9984 N   0  0  0  0  0  0  0  0  0  0  0  0
   25.6879  -10.7627  -16.1273 C   0  0  0  0  0  0  0  0  0  0  0  0
   24.2845  -10.4239  -15.7057 C   0  0  0  0  0  0  0  0  0  0  0  0
   23.8913   -9.0093  -15.8883 C   0  0  0  0  0  0  0  0  0  0  0  0
   22.4790   -8.6613  -15.5378 C   0  0  2  0  0  0  0  0  0  0  0  0
   21.4632   -9.5009  -16.0653 N   0  0  0  0  0  0  0  0  0  0  0  0
   22.2169   -7.2153  -15.5366 C   0  0  0  0  0  0  0  0  0  0  0  0
   22.1345   -6.6527  -16.6775 O   0  0  0  0  0  0  0  0  0  0  0  0
   26.6551  -14.4992  -15.8374 C   0  0  0  0  0  0  0  0  0  0  0  0
   18.2598   -3.2611  -14.9912 C   0  0  0  0  0  0  0  0  0  0  0  0
   19.7228   -3.4107  -14.8020 C   0  0  2  0  0  0  0  0  0  0  0  0
   20.2835   -4.7707  -14.6948 C   0  0  0  0  0  0  0  0  0  0  0  0
   19.4236   -5.6139  -13.7746 C   0  0  2  0  0  0  0  0  0  0  0  0
   21.7424   -4.9415  -14.5391 N   0  0  0  0  0  0  0  0  0  0  0  0
   22.0532   -6.3920  -14.4066 C   0  0  0  0  0  0  0  0  0  0  0  0
   22.4049   -4.2882  -13.4222 O   0  0  0  0  0  0  0  0  0  0  0  0
   22.6210   -2.9076  -13.3957 O   0  0  0  0  0  0  0  0  0  0  0  0
  2  9  1  0
  2  3  1  0
  2  1  1  6
  3  4  1  0
  4  8  1  0
  5  6  1  0
  5  4  2  0
  6  7  1  0
  7  8  2  0
  9 10  2  0
 11 12  1  0
 12 14  1  0
 12 13  2  0
 14 15  1  0
 15 16  1  0
 16 17  1  0
 18 17  1  6
 18 20  1  0
 19 18  1  0
 19  9  1  0
 20 21  2  0
 22 23  1  0
 23 24  1  0
 24 25  1  6
 24 26  1  0
 26 28  1  0
 27 20  1  0
 26 27  1  1
 28 30  2  0
 28 29  1  0
M  END
$$$$
