HRI.pdb
     RDKit          3D

 30 30  0  0  1  0  0  0  0  0999 V2000
   18.5570  -19.7264  -14.4137 N   0  0  0  0  0  0  0  0  0  0  0  0
   19.7139  -19.0247  -14.8699 C   0  0  1  0  0  0  0  0  0  0  0  0
   19.7775  -17.6974  -14.1080 C   0  0  0  0  0  0  0  0  0  0  0  0
   18.7441  -16.7654  -14.6201 C   0  0  0  0  0  0  0  0  0  0  0  0
   18.7759  -15.8479  -15.6224 C   0  0  0  0  0  0  0  0  0  0  0  0
   17.5646  -15.2633  -15.6756 N   0  0  0  0  0  0  0  0  0  0  0  0
   16.7818  -15.8016  -14.7246 C   0  0  0  0  0  0  0  0  0  0  0  0
   17.5013  -16.7169  -14.0817 N   0  0  0  0  0  0  0  0  0  0  0  0
   20.9467  -19.8242  -14.6114 C   0  0  0  0  0  0  0  0  0  0  0  0
   21.1764  -20.3118  -13.4742 O   0  0  0  0  0  0  0  0  0  0  0  0
   26.9199  -24.0216  -18.2369 N   0  0  0  0  0  0  0  0  0  0  0  0
   27.3570  -23.9207  -16.9126 C   0  0  0  0  0  0  0  0  0  0  0  0
   28.6201  -23.9690  -16.5922 N   0  0  0  0  0  0  0  0  0  0  0  0
   26.4461  -23.7577  -15.8569 N   0  0  0  0  0  0  0  0  0  0  0  0
   25.1434  -23.1719  -15.9940 C   0  0  0  0  0  0  0  0  0  0  0  0
   25.1079  -21.8285  -16.6691 C   0  0  0  0  0  0  0  0  0  0  0  0
   23.7664  -21.2174  -16.7957 C   0  0  0  0  0  0  0  0  0  0  0  0
   23.1466  -20.7067  -15.5333 C   0  0  2  0  0  0  0  0  0  0  0  0
   21.8931  -20.0518  -15.6552 N   0  0  0  0  0  0  0  0  0  0  0  0
   24.1192  -20.1199  -14.6009 C   0  0  0  0  0  0  0  0  0  0  0  0
   24.4160  -18.8944  -14.7878 O   0  0  0  0  0  0  0  0  0  0  0  0
   28.8667  -23.8392  -15.5910 C   0  0  0  0  0  0  0  0  0  0  0  0
   26.3580  -20.4818   -8.8521 C   0  0  0  0  0  0  0  0  0  0  0  0
   26.4430  -19.9331  -10.2269 C   0  0  2  0  0  0  0  0  0  0  0  0
   25.6370  -20.5651  -11.2883 C   0  0  0  0  0  0  0  0  0  0  0  0
   25.6515  -22.0715  -11.1214 C   0  0  2  0  0  0  0  0  0  0  0  0
   25.7580  -20.0758  -12.6768 N   0  0  0  0  0  0  0  0  0  0  0  0
   24.7566  -20.7739  -13.5298 C   0  0  0  0  0  0  0  0  0  0  0  0
   27.0336  -20.2223  -13.3583 O   0  0  0  0  0  0  0  0  0  0  0  0
   28.0568  -19.2799  -13.2226 O   0  0  0  0  0  0  0  0  0  0  0  0
  2  9  1  0
  2  3  1  0
  2  1  1  1
  3  4  1  0
  4  8  1  0
  5  6  1  0
  5  4  2  0
  6  7  1  0
  7  8  2  0
  9 10  2  0
 11 12  1  0
 12 14  1  0
 12 13  2  0
 14 15  1  0
 15 16  1  0
 16 17  1  0
 18 17  1  6
 18 20  1  0
 19 18  1  0
 19  9  1  0
 20 21  2  0
 22 23  1  0
 23 24  1  0
 24 25  1  1
 24 26  1  0
 26 28  1  0
 27 20  1  0
 26 27  1  6
 28 30  2  0
 28 29  1  0
M  END
$$$$
