HRI.pdb
     RDKit          3D

 30 30  0  0  1  0  0  0  0  0999 V2000
   25.6909  -15.3181  -18.5679 N   0  0  0  0  0  0  0  0  0  0  0  0
   25.4381  -15.6565  -17.2039 C   0  0  1  0  0  0  0  0  0  0  0  0
   24.8715  -14.4097  -16.5177 C   0  0  0  0  0  0  0  0  0  0  0  0
   25.9162  -13.3619  -16.4204 C   0  0  0  0  0  0  0  0  0  0  0  0
   26.0313  -12.1464  -17.0177 C   0  0  0  0  0  0  0  0  0  0  0  0
   27.1771  -11.5886  -16.5846 N   0  0  0  0  0  0  0  0  0  0  0  0
   27.7751  -12.4358  -15.7293 C   0  0  0  0  0  0  0  0  0  0  0  0
   27.0061  -13.5164  -15.6297 N   0  0  0  0  0  0  0  0  0  0  0  0
   24.4601  -16.7796  -17.1159 C   0  0  0  0  0  0  0  0  0  0  0  0
   23.3178  -16.6867  -17.6358 O   0  0  0  0  0  0  0  0  0  0  0  0
   27.1649  -24.3174  -16.6079 N   0  0  0  0  0  0  0  0  0  0  0  0
   25.7895  -24.0739  -16.5449 C   0  0  0  0  0  0  0  0  0  0  0  0
   24.9867  -24.8053  -15.8232 N   0  0  0  0  0  0  0  0  0  0  0  0
   25.2048  -23.0174  -17.2611 N   0  0  0  0  0  0  0  0  0  0  0  0
   25.9431  -21.9696  -17.9061 C   0  0  0  0  0  0  0  0  0  0  0  0
   25.7722  -20.5991  -17.3109 C   0  0  0  0  0  0  0  0  0  0  0  0
   24.6690  -20.4647  -16.3343 C   0  0  0  0  0  0  0  0  0  0  0  0
   23.9843  -19.1353  -16.2835 C   0  0  2  0  0  0  0  0  0  0  0  0
   24.8044  -17.9868  -16.4367 N   0  0  0  0  0  0  0  0  0  0  0  0
   22.9184  -19.0654  -15.2742 C   0  0  0  0  0  0  0  0  0  0  0  0
   23.2922  -18.9330  -14.0628 O   0  0  0  0  0  0  0  0  0  0  0  0
   23.9662  -24.6310  -15.9145 C   0  0  0  0  0  0  0  0  0  0  0  0
   19.3938  -16.3013  -12.6933 C   0  0  0  0  0  0  0  0  0  0  0  0
   18.8249  -17.3883  -13.5258 C   0  0  2  0  0  0  0  0  0  0  0  0
   19.6330  -17.9183  -14.6401 C   0  0  0  0  0  0  0  0  0  0  0  0
   18.7843  -18.0213  -15.8916 C   0  0  2  0  0  0  0  0  0  0  0  0
   20.5485  -19.0513  -14.3949 N   0  0  0  0  0  0  0  0  0  0  0  0
   21.5324  -19.1346  -15.5098 C   0  0  0  0  0  0  0  0  0  0  0  0
   19.9857  -20.3847  -14.2593 O   0  0  0  0  0  0  0  0  0  0  0  0
   19.4064  -20.8248  -13.0660 O   0  0  0  0  0  0  0  0  0  0  0  0
  2  9  1  0
  2  3  1  0
  2  1  1  6
  3  4  1  0
  4  8  1  0
  5  6  1  0
  5  4  2  0
  6  7  1  0
  7  8  2  0
  9 10  2  0
 11 12  1  0
 12 14  1  0
 12 13  2  0
 14 15  1  0
 15 16  1  0
 16 17  1  0
 18 17  1  1
 18 20  1  0
 19 18  1  0
 19  9  1  0
 20 21  2  0
 22 23  1  0
 23 24  1  0
 24 25  1  1
 24 26  1  0
 26 28  1  0
 27 20  1  0
 26 27  1  1
 28 30  2  0
 28 29  1  0
M  END
$$$$
