HRI.pdb
     RDKit          3D

 30 30  0  0  1  0  0  0  0  0999 V2000
   26.1784  -18.0151  -16.1492 N   0  0  0  0  0  0  0  0  0  0  0  0
   26.8020  -18.0000  -14.8648 C   0  0  1  0  0  0  0  0  0  0  0  0
   26.9734  -16.5345  -14.4535 C   0  0  0  0  0  0  0  0  0  0  0  0
   26.5938  -15.6422  -15.5753 C   0  0  0  0  0  0  0  0  0  0  0  0
   26.0930  -15.9108  -16.8100 C   0  0  0  0  0  0  0  0  0  0  0  0
   25.9237  -14.7352  -17.4435 N   0  0  0  0  0  0  0  0  0  0  0  0
   26.3101  -13.7422  -16.6241 C   0  0  0  0  0  0  0  0  0  0  0  0
   26.7185  -14.2957  -15.4857 N   0  0  0  0  0  0  0  0  0  0  0  0
   25.9589  -18.7181  -13.8652 C   0  0  0  0  0  0  0  0  0  0  0  0
   24.8112  -18.2986  -13.5644 O   0  0  0  0  0  0  0  0  0  0  0  0
   23.7730  -26.2316  -15.4498 N   0  0  0  0  0  0  0  0  0  0  0  0
   23.0975  -25.0745  -15.0500 C   0  0  0  0  0  0  0  0  0  0  0  0
   21.7992  -24.9712  -15.1125 N   0  0  0  0  0  0  0  0  0  0  0  0
   23.7940  -23.9608  -14.5545 N   0  0  0  0  0  0  0  0  0  0  0  0
   25.2152  -23.7867  -14.6482 C   0  0  0  0  0  0  0  0  0  0  0  0
   25.7376  -22.4662  -14.1529 C   0  0  0  0  0  0  0  0  0  0  0  0
   25.1860  -22.0115  -12.8575 C   0  0  0  0  0  0  0  0  0  0  0  0
   25.7271  -20.7245  -12.3195 C   0  0  2  0  0  0  0  0  0  0  0  0
   26.4415  -19.9009  -13.2285 N   0  0  0  0  0  0  0  0  0  0  0  0
   26.2673  -20.8418  -10.9579 C   0  0  0  0  0  0  0  0  0  0  0  0
   27.3842  -21.4448  -10.8407 O   0  0  0  0  0  0  0  0  0  0  0  0
   21.3739  -24.0733  -14.8077 C   0  0  0  0  0  0  0  0  0  0  0  0
   27.9942  -19.2961   -5.5310 C   0  0  0  0  0  0  0  0  0  0  0  0
   27.2322  -20.3060   -6.3041 C   0  0  2  0  0  0  0  0  0  0  0  0
   26.7366  -19.9399   -7.6442 C   0  0  0  0  0  0  0  0  0  0  0  0
   26.1166  -18.5573   -7.6067 C   0  0  2  0  0  0  0  0  0  0  0  0
   26.0080  -20.9444   -8.4454 N   0  0  0  0  0  0  0  0  0  0  0  0
   25.6752  -20.3612   -9.7747 C   0  0  0  0  0  0  0  0  0  0  0  0
   24.7627  -21.4822   -7.9229 O   0  0  0  0  0  0  0  0  0  0  0  0
   24.7301  -22.3139   -6.8001 O   0  0  0  0  0  0  0  0  0  0  0  0
  2  9  1  0
  2  3  1  0
  2  1  1  6
  3  4  1  0
  4  8  1  0
  5  6  1  0
  5  4  2  0
  6  7  1  0
  7  8  2  0
  9 10  2  0
 11 12  1  0
 12 14  1  0
 12 13  2  0
 14 15  1  0
 15 16  1  0
 16 17  1  0
 18 17  1  6
 18 20  1  0
 19 18  1  0
 19  9  1  0
 20 21  2  0
 22 23  1  0
 23 24  1  0
 24 25  1  6
 24 26  1  0
 26 28  1  0
 27 20  1  0
 26 27  1  1
 28 30  2  0
 28 29  1  0
M  END
$$$$
