HRI.pdb
     RDKit          3D

 30 30  0  0  1  0  0  0  0  0999 V2000
   29.5542  -22.4819  -17.6080 N   0  0  0  0  0  0  0  0  0  0  0  0
   28.3570  -23.0092  -17.0355 C   0  0  1  0  0  0  0  0  0  0  0  0
   28.7613  -24.1352  -16.0790 C   0  0  0  0  0  0  0  0  0  0  0  0
   28.6091  -25.4505  -16.7464 C   0  0  0  0  0  0  0  0  0  0  0  0
   29.4764  -26.1910  -17.4859 C   0  0  0  0  0  0  0  0  0  0  0  0
   28.8345  -27.3134  -17.8603 N   0  0  0  0  0  0  0  0  0  0  0  0
   27.5848  -27.2827  -17.3664 C   0  0  0  0  0  0  0  0  0  0  0  0
   27.4480  -26.1471  -16.6877 N   0  0  0  0  0  0  0  0  0  0  0  0
   27.6193  -21.9458  -16.2935 C   0  0  0  0  0  0  0  0  0  0  0  0
   28.2358  -21.0660  -15.6382 O   0  0  0  0  0  0  0  0  0  0  0  0
   20.4303  -17.0044  -18.1912 N   0  0  0  0  0  0  0  0  0  0  0  0
   20.7004  -16.8133  -16.8327 C   0  0  0  0  0  0  0  0  0  0  0  0
   20.0757  -15.9184  -16.1192 N   0  0  0  0  0  0  0  0  0  0  0  0
   21.6646  -17.5871  -16.1674 N   0  0  0  0  0  0  0  0  0  0  0  0
   22.5080  -18.5559  -16.8070 C   0  0  0  0  0  0  0  0  0  0  0  0
   23.4796  -19.2628  -15.9025 C   0  0  0  0  0  0  0  0  0  0  0  0
   24.3875  -20.2205  -16.5715 C   0  0  0  0  0  0  0  0  0  0  0  0
   25.3634  -20.9367  -15.6922 C   0  0  2  0  0  0  0  0  0  0  0  0
   26.1927  -21.9069  -16.3138 N   0  0  0  0  0  0  0  0  0  0  0  0
   24.8204  -21.2715  -14.3683 C   0  0  0  0  0  0  0  0  0  0  0  0
   24.1086  -22.3265  -14.2973 O   0  0  0  0  0  0  0  0  0  0  0  0
   20.3171  -15.8547  -15.1104 C   0  0  0  0  0  0  0  0  0  0  0  0
   27.5961  -20.3196   -9.6657 C   0  0  0  0  0  0  0  0  0  0  0  0
   26.7391  -20.9209  -10.7156 C   0  0  2  0  0  0  0  0  0  0  0  0
   25.3207  -20.5216  -10.7808 C   0  0  0  0  0  0  0  0  0  0  0  0
   24.7049  -20.5718   -9.3968 C   0  0  2  0  0  0  0  0  0  0  0  0
   24.4735  -21.0376  -11.8753 N   0  0  0  0  0  0  0  0  0  0  0  0
   25.0029  -20.5443  -13.1769 C   0  0  0  0  0  0  0  0  0  0  0  0
   23.0567  -20.7124  -11.8720 O   0  0  0  0  0  0  0  0  0  0  0  0
   22.1103  -21.5374  -11.2578 O   0  0  0  0  0  0  0  0  0  0  0  0
  2  9  1  0
  2  3  1  0
  2  1  1  1
  3  4  1  0
  4  8  1  0
  5  6  1  0
  5  4  2  0
  6  7  1  0
  7  8  2  0
  9 10  2  0
 11 12  1  0
 12 14  1  0
 12 13  2  0
 14 15  1  0
 15 16  1  0
 16 17  1  0
 18 17  1  6
 18 20  1  0
 19 18  1  0
 19  9  1  0
 20 21  2  0
 22 23  1  0
 23 24  1  0
 24 25  1  6
 24 26  1  0
 26 28  1  0
 27 20  1  0
 26 27  1  6
 28 30  2  0
 28 29  1  0
M  END
$$$$
