HRI.pdb
     RDKit          3D

 30 30  0  0  1  0  0  0  0  0999 V2000
   26.9115  -21.6403  -15.7082 N   0  0  0  0  0  0  0  0  0  0  0  0
   25.7569  -21.2898  -16.4717 C   0  0  1  0  0  0  0  0  0  0  0  0
   25.3737  -22.5107  -17.3135 C   0  0  0  0  0  0  0  0  0  0  0  0
   26.4496  -22.8173  -18.2866 C   0  0  0  0  0  0  0  0  0  0  0  0
   26.8759  -22.1573  -19.3957 C   0  0  0  0  0  0  0  0  0  0  0  0
   27.8902  -22.8664  -19.9249 N   0  0  0  0  0  0  0  0  0  0  0  0
   28.1012  -23.9544  -19.1641 C   0  0  0  0  0  0  0  0  0  0  0  0
   27.2228  -23.9238  -18.1659 N   0  0  0  0  0  0  0  0  0  0  0  0
   24.6287  -20.9129  -15.5712 C   0  0  0  0  0  0  0  0  0  0  0  0
   24.3917  -21.5650  -14.5213 O   0  0  0  0  0  0  0  0  0  0  0  0
   21.6684  -16.5406  -19.5880 N   0  0  0  0  0  0  0  0  0  0  0  0
   20.4320  -16.0620  -19.1439 C   0  0  0  0  0  0  0  0  0  0  0  0
   19.4650  -15.7663  -19.9671 N   0  0  0  0  0  0  0  0  0  0  0  0
   20.1719  -15.8795  -17.7765 N   0  0  0  0  0  0  0  0  0  0  0  0
   21.1071  -16.1710  -16.7279 C   0  0  0  0  0  0  0  0  0  0  0  0
   21.4047  -17.6299  -16.5160 C   0  0  0  0  0  0  0  0  0  0  0  0
   22.2391  -17.9421  -15.3348 C   0  0  0  0  0  0  0  0  0  0  0  0
   22.6460  -19.3721  -15.1673 C   0  0  2  0  0  0  0  0  0  0  0  0
   23.7932  -19.7995  -15.8860 N   0  0  0  0  0  0  0  0  0  0  0  0
   21.5081  -20.3004  -15.1119 C   0  0  0  0  0  0  0  0  0  0  0  0
   21.1608  -20.8385  -16.2140 O   0  0  0  0  0  0  0  0  0  0  0  0
   18.5924  -15.3738  -19.5615 C   0  0  0  0  0  0  0  0  0  0  0  0
   18.6956  -24.5385  -11.7102 C   0  0  0  0  0  0  0  0  0  0  0  0
   18.6423  -23.6084  -12.8636 C   0  0  2  0  0  0  0  0  0  0  0  0
   19.7062  -22.5960  -13.0015 C   0  0  0  0  0  0  0  0  0  0  0  0
   20.1211  -22.0918  -11.6338 C   0  0  2  0  0  0  0  0  0  0  0  0
   19.5924  -21.5658  -14.0539 N   0  0  0  0  0  0  0  0  0  0  0  0
   20.7636  -20.6497  -13.9695 C   0  0  0  0  0  0  0  0  0  0  0  0
   18.4172  -20.7103  -14.0671 O   0  0  0  0  0  0  0  0  0  0  0  0
   18.5019  -19.3343  -13.8376 O   0  0  0  0  0  0  0  0  0  0  0  0
  2  9  1  0
  2  3  1  0
  2  1  1  1
  3  4  1  0
  4  8  1  0
  5  6  1  0
  5  4  2  0
  6  7  1  0
  7  8  2  0
  9 10  2  0
 11 12  1  0
 12 14  1  0
 12 13  2  0
 14 15  1  0
 15 16  1  0
 16 17  1  0
 18 17  1  6
 18 20  1  0
 19 18  1  0
 19  9  1  0
 20 21  2  0
 22 23  1  0
 23 24  1  0
 24 25  1  6
 24 26  1  0
 26 28  1  0
 27 20  1  0
 26 27  1  1
 28 30  2  0
 28 29  1  0
M  END
$$$$
