HRI.pdb
     RDKit          3D

 30 30  0  0  1  0  0  0  0  0999 V2000
   25.5732  -14.7131  -18.9042 N   0  0  0  0  0  0  0  0  0  0  0  0
   25.0028  -14.8006  -17.5980 C   0  0  1  0  0  0  0  0  0  0  0  0
   23.5283  -14.4019  -17.7120 C   0  0  0  0  0  0  0  0  0  0  0  0
   23.4089  -12.9345  -17.8890 C   0  0  0  0  0  0  0  0  0  0  0  0
   23.4003  -11.9164  -16.9885 C   0  0  0  0  0  0  0  0  0  0  0  0
   23.2666  -10.7674  -17.6767 N   0  0  0  0  0  0  0  0  0  0  0  0
   23.1923  -11.0541  -18.9879 C   0  0  0  0  0  0  0  0  0  0  0  0
   23.2790  -12.3750  -19.1165 N   0  0  0  0  0  0  0  0  0  0  0  0
   25.1190  -16.1903  -17.0682 C   0  0  0  0  0  0  0  0  0  0  0  0
   24.6565  -17.1693  -17.7096 O   0  0  0  0  0  0  0  0  0  0  0  0
   26.3416  -21.2798  -11.0750 N   0  0  0  0  0  0  0  0  0  0  0  0
   25.9887  -21.8475  -12.3030 C   0  0  0  0  0  0  0  0  0  0  0  0
   25.0430  -22.7389  -12.4103 N   0  0  0  0  0  0  0  0  0  0  0  0
   26.6413  -21.4770  -13.4895 N   0  0  0  0  0  0  0  0  0  0  0  0
   27.3177  -20.2268  -13.6856 C   0  0  0  0  0  0  0  0  0  0  0  0
   26.6072  -19.0169  -13.1442 C   0  0  0  0  0  0  0  0  0  0  0  0
   26.7162  -17.7945  -13.9706 C   0  0  0  0  0  0  0  0  0  0  0  0
   25.6967  -17.6308  -15.0533 C   0  0  2  0  0  0  0  0  0  0  0  0
   25.7608  -16.4361  -15.8173 N   0  0  0  0  0  0  0  0  0  0  0  0
   24.3604  -18.1111  -14.6749 C   0  0  0  0  0  0  0  0  0  0  0  0
   23.7547  -17.4484  -13.7700 O   0  0  0  0  0  0  0  0  0  0  0  0
   24.8526  -23.1252  -13.3561 C   0  0  0  0  0  0  0  0  0  0  0  0
   20.4604  -21.0189  -17.8295 C   0  0  0  0  0  0  0  0  0  0  0  0
   21.5225  -20.8365  -16.8112 C   0  0  2  0  0  0  0  0  0  0  0  0
   21.4136  -19.7013  -15.8757 C   0  0  0  0  0  0  0  0  0  0  0  0
   21.2184  -18.4116  -16.6475 C   0  0  1  0  0  0  0  0  0  0  0  0
   22.3347  -19.6224  -14.7236 N   0  0  0  0  0  0  0  0  0  0  0  0
   23.6873  -19.2275  -15.2058 C   0  0  0  0  0  0  0  0  0  0  0  0
   22.5329  -20.8090  -13.9077 O   0  0  0  0  0  0  0  0  0  0  0  0
   21.5437  -21.2851  -13.0427 O   0  0  0  0  0  0  0  0  0  0  0  0
  2  9  1  0
  2  3  1  0
  2  1  1  6
  3  4  1  0
  4  8  1  0
  5  6  1  0
  5  4  2  0
  6  7  1  0
  7  8  2  0
  9 10  2  0
 11 12  1  0
 12 14  1  0
 12 13  2  0
 14 15  1  0
 15 16  1  0
 16 17  1  0
 18 17  1  1
 18 20  1  0
 19 18  1  0
 19  9  1  0
 20 21  2  0
 22 23  1  0
 23 24  1  0
 24 25  1  1
 24 26  1  0
 26 28  1  0
 27 20  1  0
 26 27  1  6
 28 30  2  0
 28 29  1  0
M  END
$$$$
