HRI.pdb
     RDKit          3D

 30 30  0  0  1  0  0  0  0  0999 V2000
   21.6672  -20.6718  -14.7582 N   0  0  0  0  0  0  0  0  0  0  0  0
   22.5820  -19.6721  -14.3080 C   0  0  1  0  0  0  0  0  0  0  0  0
   21.8173  -18.7407  -13.3625 C   0  0  0  0  0  0  0  0  0  0  0  0
   20.7634  -18.0108  -14.1076 C   0  0  0  0  0  0  0  0  0  0  0  0
   20.8163  -17.2602  -15.2395 C   0  0  0  0  0  0  0  0  0  0  0  0
   19.5698  -16.8195  -15.4925 N   0  0  0  0  0  0  0  0  0  0  0  0
   18.7445  -17.2832  -14.5382 C   0  0  0  0  0  0  0  0  0  0  0  0
   19.4726  -18.0091  -13.6945 N   0  0  0  0  0  0  0  0  0  0  0  0
   23.7314  -20.2986  -13.5923 C   0  0  0  0  0  0  0  0  0  0  0  0
   23.5953  -20.7662  -12.4319 O   0  0  0  0  0  0  0  0  0  0  0  0
   31.5159  -24.6216  -15.8202 N   0  0  0  0  0  0  0  0  0  0  0  0
   30.2800  -24.0340  -16.1074 C   0  0  0  0  0  0  0  0  0  0  0  0
   29.4462  -24.5534  -16.9648 N   0  0  0  0  0  0  0  0  0  0  0  0
   29.8752  -22.8472  -15.4761 N   0  0  0  0  0  0  0  0  0  0  0  0
   29.0640  -22.7945  -14.2936 C   0  0  0  0  0  0  0  0  0  0  0  0
   28.6591  -21.4158  -13.8498 C   0  0  0  0  0  0  0  0  0  0  0  0
   27.4312  -20.8819  -14.4791 C   0  0  0  0  0  0  0  0  0  0  0  0
   26.2360  -20.7407  -13.5903 C   0  0  2  0  0  0  0  0  0  0  0  0
   25.0133  -20.3796  -14.2146 N   0  0  0  0  0  0  0  0  0  0  0  0
   26.5396  -20.1074  -12.2994 C   0  0  0  0  0  0  0  0  0  0  0  0
   26.7281  -18.8469  -12.3163 O   0  0  0  0  0  0  0  0  0  0  0  0
   28.5036  -24.1221  -17.0394 C   0  0  0  0  0  0  0  0  0  0  0  0
   26.3878  -19.7327   -6.2126 C   0  0  0  0  0  0  0  0  0  0  0  0
   27.1707  -19.5983   -7.4645 C   0  0  2  0  0  0  0  0  0  0  0  0
   26.6162  -20.1692   -8.7064 C   0  0  0  0  0  0  0  0  0  0  0  0
   25.9055  -21.4733   -8.4042 C   0  0  2  0  0  0  0  0  0  0  0  0
   27.4349  -20.1587   -9.9359 N   0  0  0  0  0  0  0  0  0  0  0  0
   26.6473  -20.7514  -11.0523 C   0  0  0  0  0  0  0  0  0  0  0  0
   28.7086  -20.8591   -9.9307 O   0  0  0  0  0  0  0  0  0  0  0  0
   29.8452  -20.3219   -9.3199 O   0  0  0  0  0  0  0  0  0  0  0  0
  2  9  1  0
  2  3  1  0
  2  1  1  1
  3  4  1  0
  4  8  1  0
  5  6  1  0
  5  4  2  0
  6  7  1  0
  7  8  2  0
  9 10  2  0
 11 12  1  0
 12 14  1  0
 12 13  2  0
 14 15  1  0
 15 16  1  0
 16 17  1  0
 18 17  1  6
 18 20  1  0
 19 18  1  0
 19  9  1  0
 20 21  2  0
 22 23  1  0
 23 24  1  0
 24 25  1  6
 24 26  1  0
 26 28  1  0
 27 20  1  0
 26 27  1  1
 28 30  2  0
 28 29  1  0
M  END
$$$$
