HRI.pdb
     RDKit          3D

 30 30  0  0  1  0  0  0  0  0999 V2000
   23.1147  -23.2336  -16.6990 N   0  0  0  0  0  0  0  0  0  0  0  0
   22.8894  -22.1249  -15.8278 C   0  0  1  0  0  0  0  0  0  0  0  0
   21.4952  -22.2955  -15.2169 C   0  0  0  0  0  0  0  0  0  0  0  0
   20.4544  -22.0246  -16.2377 C   0  0  0  0  0  0  0  0  0  0  0  0
   19.8767  -20.8652  -16.6494 C   0  0  0  0  0  0  0  0  0  0  0  0
   18.9838  -21.1750  -17.6078 N   0  0  0  0  0  0  0  0  0  0  0  0
   18.9972  -22.5056  -17.7984 C   0  0  0  0  0  0  0  0  0  0  0  0
   19.8936  -23.0227  -16.9630 N   0  0  0  0  0  0  0  0  0  0  0  0
   23.9207  -22.0879  -14.7504 C   0  0  0  0  0  0  0  0  0  0  0  0
   24.3009  -23.1436  -14.1806 O   0  0  0  0  0  0  0  0  0  0  0  0
   27.5478  -19.3553  -17.5542 N   0  0  0  0  0  0  0  0  0  0  0  0
   28.7529  -20.0239  -17.3183 C   0  0  0  0  0  0  0  0  0  0  0  0
   29.8038  -19.8481  -18.0701 N   0  0  0  0  0  0  0  0  0  0  0  0
   28.8884  -20.9220  -16.2478 N   0  0  0  0  0  0  0  0  0  0  0  0
   28.1954  -20.8021  -14.9971 C   0  0  0  0  0  0  0  0  0  0  0  0
   27.2772  -19.6169  -14.8792 C   0  0  0  0  0  0  0  0  0  0  0  0
   26.4893  -19.5466  -13.6289 C   0  0  0  0  0  0  0  0  0  0  0  0
   25.5285  -20.6673  -13.3847 C   0  0  2  0  0  0  0  0  0  0  0  0
   24.4981  -20.8475  -14.3443 N   0  0  0  0  0  0  0  0  0  0  0  0
   25.1593  -20.8224  -11.9707 C   0  0  0  0  0  0  0  0  0  0  0  0
   23.9168  -20.7452  -11.6971 O   0  0  0  0  0  0  0  0  0  0  0  0
   30.6728  -20.3532  -17.8060 C   0  0  0  0  0  0  0  0  0  0  0  0
   27.3155  -18.9207   -6.8264 C   0  0  0  0  0  0  0  0  0  0  0  0
   26.5525  -19.2417   -8.0564 C   0  0  2  0  0  0  0  0  0  0  0  0
   26.6128  -20.6181   -8.5833 C   0  0  0  0  0  0  0  0  0  0  0  0
   28.0290  -20.9465   -9.0118 C   0  0  1  0  0  0  0  0  0  0  0  0
   25.5459  -21.0939   -9.4874 N   0  0  0  0  0  0  0  0  0  0  0  0
   26.0370  -21.0421  -10.8924 C   0  0  0  0  0  0  0  0  0  0  0  0
   24.2695  -20.3985   -9.4853 O   0  0  0  0  0  0  0  0  0  0  0  0
   23.2464  -20.7337   -8.5940 O   0  0  0  0  0  0  0  0  0  0  0  0
  2  9  1  0
  2  3  1  0
  2  1  1  6
  3  4  1  0
  4  8  1  0
  5  6  1  0
  5  4  2  0
  6  7  1  0
  7  8  2  0
  9 10  2  0
 11 12  1  0
 12 14  1  0
 12 13  2  0
 14 15  1  0
 15 16  1  0
 16 17  1  0
 18 17  1  1
 18 20  1  0
 19 18  1  0
 19  9  1  0
 20 21  2  0
 22 23  1  0
 23 24  1  0
 24 25  1  1
 24 26  1  0
 26 28  1  0
 27 20  1  0
 26 27  1  6
 28 30  2  0
 28 29  1  0
M  END
$$$$
