HRI.pdb
     RDKit          3D

 30 30  0  0  1  0  0  0  0  0999 V2000
   24.7510  -36.0288  -10.1742 N   0  0  0  0  0  0  0  0  0  0  0  0
   25.0969  -34.7389   -9.6688 C   0  0  1  0  0  0  0  0  0  0  0  0
   23.8324  -33.8753   -9.7072 C   0  0  0  0  0  0  0  0  0  0  0  0
   23.4891  -33.5356  -11.1092 C   0  0  0  0  0  0  0  0  0  0  0  0
   23.4802  -34.2871  -12.2417 C   0  0  0  0  0  0  0  0  0  0  0  0
   23.0886  -33.4908  -13.2538 N   0  0  0  0  0  0  0  0  0  0  0  0
   22.8540  -32.2589  -12.7697 C   0  0  0  0  0  0  0  0  0  0  0  0
   23.0985  -32.2869  -11.4626 N   0  0  0  0  0  0  0  0  0  0  0  0
   25.6043  -34.8438   -8.2698 C   0  0  0  0  0  0  0  0  0  0  0  0
   25.1051  -35.6669   -7.4593 O   0  0  0  0  0  0  0  0  0  0  0  0
   34.0080  -33.6790   -5.6043 N   0  0  0  0  0  0  0  0  0  0  0  0
   33.4286  -34.8975   -5.2376 C   0  0  0  0  0  0  0  0  0  0  0  0
   34.1305  -35.8811   -4.7473 N   0  0  0  0  0  0  0  0  0  0  0  0
   32.0494  -35.1184   -5.3790 N   0  0  0  0  0  0  0  0  0  0  0  0
   31.1158  -34.1361   -5.8507 C   0  0  0  0  0  0  0  0  0  0  0  0
   29.6747  -34.5661   -5.8569 C   0  0  0  0  0  0  0  0  0  0  0  0
   28.7328  -33.6192   -6.4935 C   0  0  0  0  0  0  0  0  0  0  0  0
   27.2995  -34.0445   -6.5506 C   0  0  2  0  0  0  0  0  0  0  0  0
   26.6713  -34.0078   -7.8230 N   0  0  0  0  0  0  0  0  0  0  0  0
   26.5077  -33.5850   -5.4010 C   0  0  0  0  0  0  0  0  0  0  0  0
   26.1713  -32.3555   -5.3989 O   0  0  0  0  0  0  0  0  0  0  0  0
   33.6271  -36.7591   -4.5115 C   0  0  0  0  0  0  0  0  0  0  0  0
   22.9364  -36.6484   -2.0687 C   0  0  0  0  0  0  0  0  0  0  0  0
   24.1772  -35.9463   -2.4760 C   0  0  2  0  0  0  0  0  0  0  0  0
   24.0696  -34.5688   -2.9925 C   0  0  0  0  0  0  0  0  0  0  0  0
   23.0677  -34.5190   -4.1286 C   0  0  1  0  0  0  0  0  0  0  0  0
   25.2978  -33.7721   -3.1894 N   0  0  0  0  0  0  0  0  0  0  0  0
   26.0893  -34.3621   -4.3045 C   0  0  0  0  0  0  0  0  0  0  0  0
   26.2217  -33.6299   -2.0762 O   0  0  0  0  0  0  0  0  0  0  0  0
   27.5114  -34.1675   -2.1126 O   0  0  0  0  0  0  0  0  0  0  0  0
  2  9  1  0
  2  3  1  0
  2  1  1  1
  3  4  1  0
  4  8  1  0
  5  6  1  0
  5  4  2  0
  6  7  1  0
  7  8  2  0
  9 10  2  0
 11 12  1  0
 12 14  1  0
 12 13  2  0
 14 15  1  0
 15 16  1  0
 16 17  1  0
 18 17  1  6
 18 20  1  0
 19 18  1  0
 19  9  1  0
 20 21  2  0
 22 23  1  0
 23 24  1  0
 24 25  1  1
 24 26  1  0
 26 28  1  0
 27 20  1  0
 26 27  1  6
 28 30  2  0
 28 29  1  0
M  END
$$$$
