HRI.pdb
     RDKit          3D

 30 30  0  0  1  0  0  0  0  0999 V2000
   15.8911  -25.7337  -12.4612 N   0  0  0  0  0  0  0  0  0  0  0  0
   14.6158  -25.1650  -12.1626 C   0  0  1  0  0  0  0  0  0  0  0  0
   13.8657  -26.1594  -11.2712 C   0  0  0  0  0  0  0  0  0  0  0  0
   13.5891  -27.4085  -12.0209 C   0  0  0  0  0  0  0  0  0  0  0  0
   12.6691  -27.6993  -12.9783 C   0  0  0  0  0  0  0  0  0  0  0  0
   12.8433  -28.9868  -13.3303 N   0  0  0  0  0  0  0  0  0  0  0  0
   13.8548  -29.5000  -12.6089 C   0  0  0  0  0  0  0  0  0  0  0  0
   14.3087  -28.5375  -11.8110 N   0  0  0  0  0  0  0  0  0  0  0  0
   14.7767  -23.8617  -11.4548 C   0  0  0  0  0  0  0  0  0  0  0  0
   15.8257  -23.5987  -10.8113 O   0  0  0  0  0  0  0  0  0  0  0  0
   15.1754  -15.9840  -14.8223 N   0  0  0  0  0  0  0  0  0  0  0  0
   14.8326  -15.7293  -13.4909 C   0  0  0  0  0  0  0  0  0  0  0  0
   14.7834  -14.5201  -13.0052 N   0  0  0  0  0  0  0  0  0  0  0  0
   14.5191  -16.7749  -12.6082 N   0  0  0  0  0  0  0  0  0  0  0  0
   14.5541  -18.1667  -12.9559 C   0  0  0  0  0  0  0  0  0  0  0  0
   14.2081  -19.1185  -11.8441 C   0  0  0  0  0  0  0  0  0  0  0  0
   14.1641  -20.5479  -12.2233 C   0  0  0  0  0  0  0  0  0  0  0  0
   13.8473  -21.5169  -11.1282 C   0  0  2  0  0  0  0  0  0  0  0  0
   13.7378  -22.8838  -11.4951 N   0  0  0  0  0  0  0  0  0  0  0  0
   12.8677  -21.0044  -10.1601 C   0  0  0  0  0  0  0  0  0  0  0  0
   11.6479  -21.0099  -10.5304 O   0  0  0  0  0  0  0  0  0  0  0  0
   14.5125  -14.4143  -12.0075 C   0  0  0  0  0  0  0  0  0  0  0  0
   13.3317  -21.4474   -4.5384 C   0  0  0  0  0  0  0  0  0  0  0  0
   13.2065  -20.5852   -5.7381 C   0  0  2  0  0  0  0  0  0  0  0  0
   12.1334  -20.8781   -6.7068 C   0  0  0  0  0  0  0  0  0  0  0  0
   11.9792  -22.3769   -6.8707 C   0  0  1  0  0  0  0  0  0  0  0  0
   12.0472  -20.0878   -7.9517 N   0  0  0  0  0  0  0  0  0  0  0  0
   13.1407  -20.5057   -8.8724 C   0  0  0  0  0  0  0  0  0  0  0  0
   12.1312  -18.6392   -7.8645 O   0  0  0  0  0  0  0  0  0  0  0  0
   11.1439  -17.8782   -7.2325 O   0  0  0  0  0  0  0  0  0  0  0  0
  2  9  1  0
  2  3  1  0
  2  1  1  1
  3  4  1  0
  4  8  1  0
  5  6  1  0
  5  4  2  0
  6  7  1  0
  7  8  2  0
  9 10  2  0
 11 12  1  0
 12 14  1  0
 12 13  2  0
 14 15  1  0
 15 16  1  0
 16 17  1  0
 18 17  1  6
 18 20  1  0
 19 18  1  0
 19  9  1  0
 20 21  2  0
 22 23  1  0
 23 24  1  0
 24 25  1  1
 24 26  1  0
 26 28  1  0
 27 20  1  0
 26 27  1  6
 28 30  2  0
 28 29  1  0
M  END
$$$$
