HRI.pdb
     RDKit          3D

 30 30  0  0  1  0  0  0  0  0999 V2000
   19.2891  -17.7630  -15.6261 N   0  0  0  0  0  0  0  0  0  0  0  0
   20.4479  -18.3845  -16.1826 C   0  0  1  0  0  0  0  0  0  0  0  0
   20.9032  -17.5303  -17.3697 C   0  0  0  0  0  0  0  0  0  0  0  0
   19.9330  -17.6484  -18.4849 C   0  0  0  0  0  0  0  0  0  0  0  0
   18.9527  -16.8126  -18.9182 C   0  0  0  0  0  0  0  0  0  0  0  0
   18.3578  -17.3983  -19.9741 N   0  0  0  0  0  0  0  0  0  0  0  0
   18.9514  -18.5822  -20.2038 C   0  0  0  0  0  0  0  0  0  0  0  0
   19.9112  -18.7340  -19.2958 N   0  0  0  0  0  0  0  0  0  0  0  0
   21.5355  -18.4700  -15.1650 C   0  0  0  0  0  0  0  0  0  0  0  0
   22.1589  -17.4414  -14.7946 O   0  0  0  0  0  0  0  0  0  0  0  0
   18.0977  -22.3836  -11.4257 N   0  0  0  0  0  0  0  0  0  0  0  0
   18.1536  -21.3359  -10.5016 C   0  0  0  0  0  0  0  0  0  0  0  0
   17.0815  -20.8333   -9.9553 N   0  0  0  0  0  0  0  0  0  0  0  0
   19.3800  -20.7738  -10.1133 N   0  0  0  0  0  0  0  0  0  0  0  0
   20.6523  -21.1473  -10.6619 C   0  0  0  0  0  0  0  0  0  0  0  0
   21.1086  -20.3364  -11.8434 C   0  0  0  0  0  0  0  0  0  0  0  0
   22.4521  -20.6735  -12.3633 C   0  0  0  0  0  0  0  0  0  0  0  0
   22.8848  -19.9557  -13.6027 C   0  0  2  0  0  0  0  0  0  0  0  0
   21.8906  -19.7270  -14.5899 N   0  0  0  0  0  0  0  0  0  0  0  0
   24.2164  -20.3584  -14.0762 C   0  0  0  0  0  0  0  0  0  0  0  0
   24.2481  -21.2237  -15.0117 O   0  0  0  0  0  0  0  0  0  0  0  0
   17.2094  -20.0750   -9.2563 C   0  0  0  0  0  0  0  0  0  0  0  0
   29.5699  -19.9375  -12.3325 C   0  0  0  0  0  0  0  0  0  0  0  0
   28.3616  -19.1381  -12.6475 C   0  0  2  0  0  0  0  0  0  0  0  0
   27.7591  -19.2707  -13.9873 C   0  0  0  0  0  0  0  0  0  0  0  0
   27.4345  -17.8999  -14.5466 C   0  0  1  0  0  0  0  0  0  0  0  0
   26.7396  -20.3134  -14.2221 N   0  0  0  0  0  0  0  0  0  0  0  0
   25.4550  -19.8899  -13.5991 C   0  0  0  0  0  0  0  0  0  0  0  0
   26.9945  -21.6591  -13.7349 O   0  0  0  0  0  0  0  0  0  0  0  0
   27.9331  -22.4992  -14.3405 O   0  0  0  0  0  0  0  0  0  0  0  0
  2  9  1  0
  2  3  1  0
  2  1  1  1
  3  4  1  0
  4  8  1  0
  5  6  1  0
  5  4  2  0
  6  7  1  0
  7  8  2  0
  9 10  2  0
 11 12  1  0
 12 14  1  0
 12 13  2  0
 14 15  1  0
 15 16  1  0
 16 17  1  0
 18 17  1  1
 18 20  1  0
 19 18  1  0
 19  9  1  0
 20 21  2  0
 22 23  1  0
 23 24  1  0
 24 25  1  6
 24 26  1  0
 26 28  1  0
 27 20  1  0
 26 27  1  1
 28 30  2  0
 28 29  1  0
M  END
$$$$
