HRI.pdb
     RDKit          3D

 30 30  0  0  1  0  0  0  0  0999 V2000
   25.6796  -16.4846  -17.6071 N   0  0  0  0  0  0  0  0  0  0  0  0
   26.5015  -16.7486  -16.4697 C   0  0  1  0  0  0  0  0  0  0  0  0
   26.8444  -15.4012  -15.8269 C   0  0  0  0  0  0  0  0  0  0  0  0
   27.5470  -14.5344  -16.8034 C   0  0  0  0  0  0  0  0  0  0  0  0
   27.3319  -13.2472  -17.1833 C   0  0  0  0  0  0  0  0  0  0  0  0
   28.2593  -12.9369  -18.1082 N   0  0  0  0  0  0  0  0  0  0  0  0
   29.0461  -14.0081  -18.3089 C   0  0  0  0  0  0  0  0  0  0  0  0
   28.6114  -14.9814  -17.5135 N   0  0  0  0  0  0  0  0  0  0  0  0
   25.7800  -17.6145  -15.4922 C   0  0  0  0  0  0  0  0  0  0  0  0
   25.0672  -17.1127  -14.5845 O   0  0  0  0  0  0  0  0  0  0  0  0
   26.5666  -25.4288  -16.2658 N   0  0  0  0  0  0  0  0  0  0  0  0
   25.2222  -25.5958  -15.9196 C   0  0  0  0  0  0  0  0  0  0  0  0
   24.5352  -26.6419  -16.2858 N   0  0  0  0  0  0  0  0  0  0  0  0
   24.5450  -24.6359  -15.1509 N   0  0  0  0  0  0  0  0  0  0  0  0
   25.1585  -23.4648  -14.5931 C   0  0  0  0  0  0  0  0  0  0  0  0
   25.4483  -22.3601  -15.5716 C   0  0  0  0  0  0  0  0  0  0  0  0
   24.5988  -21.1561  -15.4389 C   0  0  0  0  0  0  0  0  0  0  0  0
   25.2150  -19.9802  -14.7489 C   0  0  2  0  0  0  0  0  0  0  0  0
   25.8854  -19.0357  -15.5696 N   0  0  0  0  0  0  0  0  0  0  0  0
   25.8490  -20.3211  -13.4677 C   0  0  0  0  0  0  0  0  0  0  0  0
   27.1132  -20.4830  -13.4857 O   0  0  0  0  0  0  0  0  0  0  0  0
   23.5694  -26.7361  -15.9138 C   0  0  0  0  0  0  0  0  0  0  0  0
   26.2110  -18.1964   -8.6130 C   0  0  0  0  0  0  0  0  0  0  0  0
   26.4138  -19.0431   -9.8130 C   0  0  2  0  0  0  0  0  0  0  0  0
   25.7341  -20.3507   -9.8752 C   0  0  0  0  0  0  0  0  0  0  0  0
   25.9024  -21.0844   -8.5597 C   0  0  2  0  0  0  0  0  0  0  0  0
   25.8702  -21.1797  -11.0902 N   0  0  0  0  0  0  0  0  0  0  0  0
   25.2022  -20.4906  -12.2290 C   0  0  0  0  0  0  0  0  0  0  0  0
   25.3369  -22.5319  -11.0742 O   0  0  0  0  0  0  0  0  0  0  0  0
   26.0656  -23.6078  -10.5595 O   0  0  0  0  0  0  0  0  0  0  0  0
  2  9  1  0
  2  3  1  0
  2  1  1  6
  3  4  1  0
  4  8  1  0
  5  6  1  0
  5  4  2  0
  6  7  1  0
  7  8  2  0
  9 10  2  0
 11 12  1  0
 12 14  1  0
 12 13  2  0
 14 15  1  0
 15 16  1  0
 16 17  1  0
 18 17  1  6
 18 20  1  0
 19 18  1  0
 19  9  1  0
 20 21  2  0
 22 23  1  0
 23 24  1  0
 24 25  1  6
 24 26  1  0
 26 28  1  0
 27 20  1  0
 26 27  1  6
 28 30  2  0
 28 29  1  0
M  END
$$$$
