LMK.pdb
     RDKit          3D

 26 25  0  0  1  0  0  0  0  0999 V2000
   30.3147  -22.4777  -17.9503 C   0  0  0  0  0  0  0  0  0  0  0  0
   29.3330  -21.4982  -17.3789 C   0  0  1  0  0  0  0  0  0  0  0  0
   28.5934  -20.7769  -18.4745 C   0  0  0  0  0  0  0  0  0  0  0  0
   28.3996  -22.0978  -16.3600 C   0  0  0  0  0  0  0  0  0  0  0  0
   27.5015  -21.0169  -15.8410 C   0  0  2  0  0  0  0  0  0  0  0  0
   28.2627  -19.8956  -15.3594 N   0  0  0  0  0  0  0  0  0  0  0  0
   26.5717  -21.4836  -14.7924 C   0  0  0  0  0  0  0  0  0  0  0  0
   25.7645  -22.4345  -14.9633 O   0  0  0  0  0  0  0  0  0  0  0  0
   25.5617  -20.8223   -6.9128 C   0  0  0  0  0  0  0  0  0  0  0  0
   26.4900  -20.5833   -8.4343 S   0  0  0  0  0  0  0  0  0  0  0  0
   25.5404  -21.0503   -9.9032 C   0  0  0  0  0  0  0  0  0  0  0  0
   26.2646  -20.9131  -11.1759 C   0  0  0  0  0  0  0  0  0  0  0  0
   25.6031  -21.2591  -12.4549 C   0  0  2  0  0  0  0  0  0  0  0  0
   26.5585  -20.8580  -13.5254 N   0  0  0  0  0  0  0  0  0  0  0  0
   24.3124  -20.6408  -12.7541 C   0  0  0  0  0  0  0  0  0  0  0  0
   24.1686  -19.3979  -12.9665 O   0  0  0  0  0  0  0  0  0  0  0  0
   23.1196  -21.4325  -12.8356 N   0  0  0  0  0  0  0  0  0  0  0  0
   21.8541  -20.7340  -13.1539 C   0  0  1  0  0  0  0  0  0  0  0  0
   21.0694  -21.8382  -13.9124 C   0  0  0  0  0  0  0  0  0  0  0  0
   19.7050  -21.3992  -14.3114 C   0  0  0  0  0  0  0  0  0  0  0  0
   18.9400  -22.4894  -15.0387 C   0  0  0  0  0  0  0  0  0  0  0  0
   17.5907  -21.9919  -15.5112 C   0  0  0  0  0  0  0  0  0  0  0  0
   16.9252  -23.0392  -16.2608 N   0  0  0  0  0  0  0  0  0  0  0  0
   21.0577  -20.4396  -11.9536 C   0  0  0  0  0  0  0  0  0  0  0  0
   20.2166  -19.3384  -11.9588 O   0  0  0  0  0  0  0  0  0  0  0  0
   21.0709  -21.1104  -10.8947 O   0  0  0  0  0  0  0  0  0  0  0  0
  2  1  1  6
  3  2  1  0
  4  2  1  0
  5  4  1  0
  5  6  1  1
  7  8  2  0
  7  5  1  0
 10  9  1  0
 11 12  1  0
 11 10  1  0
 13 12  1  1
 13 14  1  0
 14  7  1  0
 15 13  1  0
 15 16  2  0
 17 15  1  0
 18 19  1  6
 18 24  1  0
 18 17  1  0
 20 21  1  0
 20 19  1  0
 22 23  1  0
 22 21  1  0
 24 25  1  0
 26 24  2  0
M  END
$$$$
