LMK.pdb
     RDKit          3D

 26 25  0  0  1  0  0  0  0  0999 V2000
   18.7848  -15.2465  -19.3670 C   0  0  0  0  0  0  0  0  0  0  0  0
   19.4276  -14.0358  -18.7584 C   0  0  1  0  0  0  0  0  0  0  0  0
   20.4621  -13.4533  -19.6846 C   0  0  0  0  0  0  0  0  0  0  0  0
   18.4430  -13.0008  -18.2804 C   0  0  0  0  0  0  0  0  0  0  0  0
   19.2031  -11.8737  -17.6510 C   0  0  2  0  0  0  0  0  0  0  0  0
   20.1274  -12.3588  -16.6617 N   0  0  0  0  0  0  0  0  0  0  0  0
   18.3302  -10.8381  -17.0615 C   0  0  0  0  0  0  0  0  0  0  0  0
   17.3936  -10.2860  -17.6962 O   0  0  0  0  0  0  0  0  0  0  0  0
   16.8631  -11.2254  -10.8269 C   0  0  0  0  0  0  0  0  0  0  0  0
   16.9104   -9.4349  -10.9885 S   0  0  0  0  0  0  0  0  0  0  0  0
   16.8443   -8.8954  -12.7153 C   0  0  0  0  0  0  0  0  0  0  0  0
   17.6272   -9.7183  -13.6496 C   0  0  0  0  0  0  0  0  0  0  0  0
   17.6737   -9.3771  -15.0899 C   0  0  2  0  0  0  0  0  0  0  0  0
   18.5252  -10.4215  -15.7253 N   0  0  0  0  0  0  0  0  0  0  0  0
   18.2083   -8.0714  -15.4734 C   0  0  0  0  0  0  0  0  0  0  0  0
   19.4494   -7.8080  -15.4998 O   0  0  0  0  0  0  0  0  0  0  0  0
   17.3326   -7.0033  -15.8591 N   0  0  0  0  0  0  0  0  0  0  0  0
   17.9495   -5.7041  -16.2088 C   0  0  1  0  0  0  0  0  0  0  0  0
   17.0643   -5.2479  -17.3998 C   0  0  0  0  0  0  0  0  0  0  0  0
   17.4806   -3.9299  -17.9505 C   0  0  0  0  0  0  0  0  0  0  0  0
   16.6861   -3.5457  -19.1849 C   0  0  0  0  0  0  0  0  0  0  0  0
   17.1849   -2.2445  -19.7761 C   0  0  0  0  0  0  0  0  0  0  0  0
   16.5344   -2.0124  -21.0507 N   0  0  0  0  0  0  0  0  0  0  0  0
   17.7543   -4.6898  -15.1625 C   0  0  0  0  0  0  0  0  0  0  0  0
   18.7097   -3.6993  -15.0003 O   0  0  0  0  0  0  0  0  0  0  0  0
   16.7767   -4.6376  -14.3796 O   0  0  0  0  0  0  0  0  0  0  0  0
  2  1  1  6
  3  2  1  0
  4  2  1  0
  5  4  1  0
  5  6  1  1
  7  8  2  0
  7  5  1  0
 10  9  1  0
 11 12  1  0
 11 10  1  0
 13 12  1  1
 13 14  1  0
 14  7  1  0
 15 13  1  0
 15 16  2  0
 17 15  1  0
 18 19  1  6
 18 24  1  0
 18 17  1  0
 20 21  1  0
 20 19  1  0
 22 23  1  0
 22 21  1  0
 24 25  1  0
 26 24  2  0
M  END
$$$$
