LMK.pdb
     RDKit          3D

 26 25  0  0  1  0  0  0  0  0999 V2000
   29.9228  -18.5648  -18.4783 C   0  0  0  0  0  0  0  0  0  0  0  0
   28.6808  -18.1606  -17.7410 C   0  0  1  0  0  0  0  0  0  0  0  0
   27.6200  -17.6817  -18.6965 C   0  0  0  0  0  0  0  0  0  0  0  0
   28.1642  -19.2151  -16.7974 C   0  0  0  0  0  0  0  0  0  0  0  0
   26.8988  -18.7154  -16.1699 C   0  0  2  0  0  0  0  0  0  0  0  0
   27.1165  -17.4723  -15.4803 N   0  0  0  0  0  0  0  0  0  0  0  0
   26.2724  -19.6952  -15.2590 C   0  0  0  0  0  0  0  0  0  0  0  0
   25.9367  -20.8532  -15.6210 O   0  0  0  0  0  0  0  0  0  0  0  0
   25.6071  -20.9724   -7.4395 C   0  0  0  0  0  0  0  0  0  0  0  0
   26.2975  -20.1543   -8.8845 S   0  0  0  0  0  0  0  0  0  0  0  0
   25.4656  -20.6410  -10.4170 C   0  0  0  0  0  0  0  0  0  0  0  0
   25.9895  -20.0022  -11.6337 C   0  0  0  0  0  0  0  0  0  0  0  0
   25.3952  -20.3078  -12.9552 C   0  0  2  0  0  0  0  0  0  0  0  0
   26.0225  -19.3526  -13.9110 N   0  0  0  0  0  0  0  0  0  0  0  0
   23.9446  -20.1980  -13.1019 C   0  0  0  0  0  0  0  0  0  0  0  0
   23.3289  -19.0884  -13.1207 O   0  0  0  0  0  0  0  0  0  0  0  0
   23.1300  -21.3691  -13.2474 N   0  0  0  0  0  0  0  0  0  0  0  0
   21.6650  -21.1779  -13.3367 C   0  0  1  0  0  0  0  0  0  0  0  0
   21.1599  -22.6453  -13.3808 C   0  0  0  0  0  0  0  0  0  0  0  0
   19.6797  -22.7379  -13.4981 C   0  0  0  0  0  0  0  0  0  0  0  0
   19.2080  -24.1644  -13.7114 C   0  0  0  0  0  0  0  0  0  0  0  0
   17.7248  -24.2135  -14.0101 C   0  0  0  0  0  0  0  0  0  0  0  0
   17.3495  -25.5664  -14.3714 N   0  0  0  0  0  0  0  0  0  0  0  0
   21.0975  -20.6033  -12.1081 C   0  0  0  0  0  0  0  0  0  0  0  0
   21.6814  -20.9121  -10.8900 O   0  0  0  0  0  0  0  0  0  0  0  0
   20.1046  -19.8397  -12.0587 O   0  0  0  0  0  0  0  0  0  0  0  0
  2  1  1  6
  3  2  1  0
  4  2  1  0
  5  4  1  0
  5  6  1  1
  7  8  2  0
  7  5  1  0
 10  9  1  0
 11 12  1  0
 11 10  1  0
 13 12  1  1
 13 14  1  0
 14  7  1  0
 15 13  1  0
 15 16  2  0
 17 15  1  0
 18 19  1  1
 18 24  1  0
 18 17  1  0
 20 21  1  0
 20 19  1  0
 22 23  1  0
 22 21  1  0
 24 25  1  0
 26 24  2  0
M  END
$$$$
