LMK.pdb
     RDKit          3D

 26 25  0  0  1  0  0  0  0  0999 V2000
   23.5883  -21.2729  -20.3142 C   0  0  0  0  0  0  0  0  0  0  0  0
   23.1958  -20.4984  -19.0913 C   0  0  1  0  0  0  0  0  0  0  0  0
   21.9200  -19.7336  -19.3256 C   0  0  0  0  0  0  0  0  0  0  0  0
   23.1393  -21.3310  -17.8372 C   0  0  0  0  0  0  0  0  0  0  0  0
   22.5910  -20.4864  -16.7279 C   0  0  2  0  0  0  0  0  0  0  0  0
   23.5951  -19.5993  -16.2053 N   0  0  0  0  0  0  0  0  0  0  0  0
   21.9958  -21.2773  -15.6314 C   0  0  0  0  0  0  0  0  0  0  0  0
   21.5874  -22.4589  -15.7795 O   0  0  0  0  0  0  0  0  0  0  0  0
   25.0358  -21.2118   -9.1728 C   0  0  0  0  0  0  0  0  0  0  0  0
   23.5770  -20.4651   -9.9132 S   0  0  0  0  0  0  0  0  0  0  0  0
   23.0315  -21.3421  -11.4001 C   0  0  0  0  0  0  0  0  0  0  0  0
   21.7718  -20.8512  -11.9792 C   0  0  0  0  0  0  0  0  0  0  0  0
   21.2297  -21.4584  -13.2163 C   0  0  2  0  0  0  0  0  0  0  0  0
   21.8620  -20.7149  -14.3419 N   0  0  0  0  0  0  0  0  0  0  0  0
   19.7823  -21.4323  -13.4214 C   0  0  0  0  0  0  0  0  0  0  0  0
   19.1615  -20.4220  -13.8736 O   0  0  0  0  0  0  0  0  0  0  0  0
   18.9773  -22.5812  -13.1247 N   0  0  0  0  0  0  0  0  0  0  0  0
   17.5133  -22.4571  -13.3049 C   0  0  1  0  0  0  0  0  0  0  0  0
   17.0611  -23.9400  -13.2229 C   0  0  0  0  0  0  0  0  0  0  0  0
   15.5824  -24.0918  -13.2864 C   0  0  0  0  0  0  0  0  0  0  0  0
   15.1384  -25.5165  -13.0110 C   0  0  0  0  0  0  0  0  0  0  0  0
   13.6291  -25.6320  -13.0160 C   0  0  0  0  0  0  0  0  0  0  0  0
   13.2436  -26.9447  -12.5366 N   0  0  0  0  0  0  0  0  0  0  0  0
   16.8628  -21.7841  -12.1711 C   0  0  0  0  0  0  0  0  0  0  0  0
   15.7119  -21.0466  -12.3980 O   0  0  0  0  0  0  0  0  0  0  0  0
   17.2654  -21.8149  -10.9844 O   0  0  0  0  0  0  0  0  0  0  0  0
  2  1  1  6
  3  2  1  0
  4  2  1  0
  5  4  1  0
  5  6  1  1
  7  8  2  0
  7  5  1  0
 10  9  1  0
 11 12  1  0
 11 10  1  0
 13 12  1  1
 13 14  1  0
 14  7  1  0
 15 13  1  0
 15 16  2  0
 17 15  1  0
 18 19  1  1
 18 24  1  0
 18 17  1  0
 20 21  1  0
 20 19  1  0
 22 23  1  0
 22 21  1  0
 24 25  1  0
 26 24  2  0
M  END
$$$$
