LMK.pdb
     RDKit          3D

 26 25  0  0  1  0  0  0  0  0999 V2000
   20.6872  -13.1927  -22.5078 C   0  0  0  0  0  0  0  0  0  0  0  0
   21.2178  -13.4409  -21.1271 C   0  0  1  0  0  0  0  0  0  0  0  0
   22.7233  -13.4754  -21.1277 C   0  0  0  0  0  0  0  0  0  0  0  0
   20.6696  -12.4992  -20.0871 C   0  0  0  0  0  0  0  0  0  0  0  0
   21.2587  -12.8606  -18.7579 C   0  0  2  0  0  0  0  0  0  0  0  0
   20.8070  -14.1553  -18.3241 N   0  0  0  0  0  0  0  0  0  0  0  0
   20.9927  -11.8555  -17.7086 C   0  0  0  0  0  0  0  0  0  0  0  0
   19.8328  -11.5579  -17.3201 O   0  0  0  0  0  0  0  0  0  0  0  0
   22.1336   -8.7046  -11.1929 C   0  0  0  0  0  0  0  0  0  0  0  0
   21.8702   -9.6983  -12.6685 S   0  0  0  0  0  0  0  0  0  0  0  0
   23.1225   -9.3926  -13.9395 C   0  0  0  0  0  0  0  0  0  0  0  0
   23.0202  -10.2544  -15.1269 C   0  0  0  0  0  0  0  0  0  0  0  0
   21.8462  -10.1564  -16.0243 C   0  0  2  0  0  0  0  0  0  0  0  0
   22.0652  -11.1752  -17.0889 N   0  0  0  0  0  0  0  0  0  0  0  0
   21.5827   -8.8760  -16.6793 C   0  0  0  0  0  0  0  0  0  0  0  0
   22.2267   -8.4676  -17.6937 O   0  0  0  0  0  0  0  0  0  0  0  0
   20.5492   -8.0048  -16.2008 N   0  0  0  0  0  0  0  0  0  0  0  0
   20.4444   -6.6630  -16.8170 C   0  0  1  0  0  0  0  0  0  0  0  0
   19.0167   -6.7087  -17.4253 C   0  0  0  0  0  0  0  0  0  0  0  0
   18.6245   -5.4226  -18.0621 C   0  0  0  0  0  0  0  0  0  0  0  0
   17.3028   -5.5262  -18.8003 C   0  0  0  0  0  0  0  0  0  0  0  0
   16.9412   -4.2155  -19.4658 C   0  0  0  0  0  0  0  0  0  0  0  0
   15.7789   -4.4073  -20.3108 N   0  0  0  0  0  0  0  0  0  0  0  0
   20.4114   -5.5863  -15.8164 C   0  0  0  0  0  0  0  0  0  0  0  0
   20.8318   -4.3173  -16.1808 O   0  0  0  0  0  0  0  0  0  0  0  0
   20.0291   -5.7139  -14.6294 O   0  0  0  0  0  0  0  0  0  0  0  0
  2  1  1  6
  3  2  1  0
  4  2  1  0
  5  4  1  0
  5  6  1  1
  7  8  2  0
  7  5  1  0
 10  9  1  0
 11 12  1  0
 11 10  1  0
 13 12  1  1
 13 14  1  0
 14  7  1  0
 15 13  1  0
 15 16  2  0
 17 15  1  0
 18 19  1  1
 18 24  1  0
 18 17  1  0
 20 21  1  0
 20 19  1  0
 22 23  1  0
 22 21  1  0
 24 25  1  0
 26 24  2  0
M  END
$$$$
