LMK.pdb
     RDKit          3D

 26 25  0  0  1  0  0  0  0  0999 V2000
   29.6733  -17.1541  -16.9056 C   0  0  0  0  0  0  0  0  0  0  0  0
   28.2196  -17.1955  -16.5387 C   0  0  1  0  0  0  0  0  0  0  0  0
   27.3556  -16.8620  -17.7260 C   0  0  0  0  0  0  0  0  0  0  0  0
   27.7984  -18.4775  -15.8692 C   0  0  0  0  0  0  0  0  0  0  0  0
   26.3496  -18.3710  -15.5030 C   0  0  2  0  0  0  0  0  0  0  0  0
   26.0947  -17.1848  -14.7308 N   0  0  0  0  0  0  0  0  0  0  0  0
   25.8394  -19.5585  -14.7877 C   0  0  0  0  0  0  0  0  0  0  0  0
   25.9403  -20.7291  -15.2398 O   0  0  0  0  0  0  0  0  0  0  0  0
   26.2683  -19.2800   -8.5182 C   0  0  0  0  0  0  0  0  0  0  0  0
   25.8916  -21.0239   -8.7440 S   0  0  0  0  0  0  0  0  0  0  0  0
   25.0342  -21.3488  -10.3050 C   0  0  0  0  0  0  0  0  0  0  0  0
   25.3455  -20.4042  -11.3885 C   0  0  0  0  0  0  0  0  0  0  0  0
   24.7546  -20.5871  -12.7340 C   0  0  2  0  0  0  0  0  0  0  0  0
   25.2022  -19.4132  -13.5348 N   0  0  0  0  0  0  0  0  0  0  0  0
   23.2991  -20.6730  -12.8432 C   0  0  0  0  0  0  0  0  0  0  0  0
   22.5358  -19.6608  -12.7849 O   0  0  0  0  0  0  0  0  0  0  0  0
   22.6502  -21.9368  -13.0383 N   0  0  0  0  0  0  0  0  0  0  0  0
   21.1748  -21.9382  -13.1572 C   0  0  1  0  0  0  0  0  0  0  0  0
   20.8789  -23.4484  -13.3621 C   0  0  0  0  0  0  0  0  0  0  0  0
   19.4370  -23.7209  -13.6077 C   0  0  0  0  0  0  0  0  0  0  0  0
   19.1694  -25.1874  -13.8917 C   0  0  0  0  0  0  0  0  0  0  0  0
   17.6988  -25.4374  -14.1492 C   0  0  0  0  0  0  0  0  0  0  0  0
   17.4827  -26.8521  -14.3805 N   0  0  0  0  0  0  0  0  0  0  0  0
   20.5094  -21.5743  -11.8977 C   0  0  0  0  0  0  0  0  0  0  0  0
   19.2781  -20.9406  -11.9470 O   0  0  0  0  0  0  0  0  0  0  0  0
   20.9666  -21.7885  -10.7503 O   0  0  0  0  0  0  0  0  0  0  0  0
  2  1  1  6
  3  2  1  0
  4  2  1  0
  5  4  1  0
  5  6  1  1
  7  8  2  0
  7  5  1  0
 10  9  1  0
 11 12  1  0
 11 10  1  0
 13 12  1  1
 13 14  1  0
 14  7  1  0
 15 13  1  0
 15 16  2  0
 17 15  1  0
 18 19  1  1
 18 24  1  0
 18 17  1  0
 20 21  1  0
 20 19  1  0
 22 23  1  0
 22 21  1  0
 24 25  1  0
 26 24  2  0
M  END
$$$$
