LMK.pdb
     RDKit          3D

 26 25  0  0  1  0  0  0  0  0999 V2000
   30.1498  -20.0553  -17.8123 C   0  0  0  0  0  0  0  0  0  0  0  0
   29.1429  -19.3851  -16.9255 C   0  0  1  0  0  0  0  0  0  0  0  0
   28.2563  -18.4629  -17.7199 C   0  0  0  0  0  0  0  0  0  0  0  0
   28.3518  -20.3422  -16.0729 C   0  0  0  0  0  0  0  0  0  0  0  0
   27.3886  -19.5542  -15.2388 C   0  0  2  0  0  0  0  0  0  0  0  0
   28.0732  -18.5686  -14.4461 N   0  0  0  0  0  0  0  0  0  0  0  0
   26.5400  -20.3980  -14.3728 C   0  0  0  0  0  0  0  0  0  0  0  0
   25.8899  -21.3871  -14.8015 O   0  0  0  0  0  0  0  0  0  0  0  0
   27.7802  -20.8721   -7.9607 C   0  0  0  0  0  0  0  0  0  0  0  0
   25.9858  -20.7524   -7.9519 S   0  0  0  0  0  0  0  0  0  0  0  0
   25.2595  -21.1481   -9.5622 C   0  0  0  0  0  0  0  0  0  0  0  0
   25.9780  -20.5897  -10.7176 C   0  0  0  0  0  0  0  0  0  0  0  0
   25.5256  -20.8872  -12.0959 C   0  0  2  0  0  0  0  0  0  0  0  0
   26.4278  -20.1124  -12.9934 N   0  0  0  0  0  0  0  0  0  0  0  0
   24.1474  -20.5581  -12.4564 C   0  0  0  0  0  0  0  0  0  0  0  0
   23.7240  -19.3675  -12.5738 O   0  0  0  0  0  0  0  0  0  0  0  0
   23.1879  -21.5925  -12.7126 N   0  0  0  0  0  0  0  0  0  0  0  0
   21.8090  -21.1781  -13.0559 C   0  0  1  0  0  0  0  0  0  0  0  0
   21.3684  -22.3188  -14.0125 C   0  0  0  0  0  0  0  0  0  0  0  0
   19.9560  -22.1783  -14.4585 C   0  0  0  0  0  0  0  0  0  0  0  0
   19.4910  -23.3677  -15.2781 C   0  0  0  0  0  0  0  0  0  0  0  0
   18.1236  -23.1200  -15.8785 C   0  0  0  0  0  0  0  0  0  0  0  0
   17.7413  -24.2558  -16.6942 N   0  0  0  0  0  0  0  0  0  0  0  0
   20.8965  -21.2550  -11.9056 C   0  0  0  0  0  0  0  0  0  0  0  0
   19.7714  -20.4464  -11.8853 O   0  0  0  0  0  0  0  0  0  0  0  0
   21.0473  -22.0042  -10.9120 O   0  0  0  0  0  0  0  0  0  0  0  0
  2  1  1  6
  3  2  1  0
  4  2  1  0
  5  4  1  0
  5  6  1  1
  7  8  2  0
  7  5  1  0
 10  9  1  0
 11 12  1  0
 11 10  1  0
 13 12  1  1
 13 14  1  0
 14  7  1  0
 15 13  1  0
 15 16  2  0
 17 15  1  0
 18 19  1  6
 18 24  1  0
 18 17  1  0
 20 21  1  0
 20 19  1  0
 22 23  1  0
 22 21  1  0
 24 25  1  0
 26 24  2  0
M  END
$$$$
