LMK.pdb
     RDKit          3D

 26 25  0  0  1  0  0  0  0  0999 V2000
   30.1501  -19.7735  -18.1191 C   0  0  0  0  0  0  0  0  0  0  0  0
   29.1199  -19.1598  -17.2182 C   0  0  1  0  0  0  0  0  0  0  0  0
   28.2048  -18.2472  -17.9910 C   0  0  0  0  0  0  0  0  0  0  0  0
   28.3593  -20.1642  -16.3926 C   0  0  0  0  0  0  0  0  0  0  0  0
   27.3532  -19.4321  -15.5581 C   0  0  2  0  0  0  0  0  0  0  0  0
   27.9890  -18.4552  -14.7157 N   0  0  0  0  0  0  0  0  0  0  0  0
   26.5078  -20.3281  -14.7430 C   0  0  0  0  0  0  0  0  0  0  0  0
   25.8286  -21.2673  -15.2344 O   0  0  0  0  0  0  0  0  0  0  0  0
   26.5106  -19.4495   -8.0418 C   0  0  0  0  0  0  0  0  0  0  0  0
   26.1205  -21.1768   -8.3556 S   0  0  0  0  0  0  0  0  0  0  0  0
   25.3393  -21.4260   -9.9695 C   0  0  0  0  0  0  0  0  0  0  0  0
   26.0638  -20.8340  -11.1042 C   0  0  0  0  0  0  0  0  0  0  0  0
   25.5573  -21.0017  -12.4857 C   0  0  2  0  0  0  0  0  0  0  0  0
   26.4325  -20.1537  -13.3427 N   0  0  0  0  0  0  0  0  0  0  0  0
   24.1698  -20.6328  -12.7620 C   0  0  0  0  0  0  0  0  0  0  0  0
   23.7592  -19.4321  -12.7803 O   0  0  0  0  0  0  0  0  0  0  0  0
   23.1849  -21.6362  -13.0443 N   0  0  0  0  0  0  0  0  0  0  0  0
   21.8023  -21.1822  -13.3145 C   0  0  1  0  0  0  0  0  0  0  0  0
   21.2972  -22.2802  -14.2890 C   0  0  0  0  0  0  0  0  0  0  0  0
   19.9032  -22.0394  -14.7497 C   0  0  0  0  0  0  0  0  0  0  0  0
   19.3925  -23.1543  -15.6435 C   0  0  0  0  0  0  0  0  0  0  0  0
   17.9788  -22.8801  -16.1102 C   0  0  0  0  0  0  0  0  0  0  0  0
   17.5613  -23.9239  -17.0254 N   0  0  0  0  0  0  0  0  0  0  0  0
   20.9373  -21.2797  -12.1297 C   0  0  0  0  0  0  0  0  0  0  0  0
   19.9093  -20.3641  -11.9711 O   0  0  0  0  0  0  0  0  0  0  0  0
   21.0479  -22.1377  -11.2225 O   0  0  0  0  0  0  0  0  0  0  0  0
  2  1  1  6
  3  2  1  0
  4  2  1  0
  5  4  1  0
  5  6  1  1
  7  8  2  0
  7  5  1  0
 10  9  1  0
 11 12  1  0
 11 10  1  0
 13 12  1  1
 13 14  1  0
 14  7  1  0
 15 13  1  0
 15 16  2  0
 17 15  1  0
 18 19  1  6
 18 24  1  0
 18 17  1  0
 20 21  1  0
 20 19  1  0
 22 23  1  0
 22 21  1  0
 24 25  1  0
 26 24  2  0
M  END
$$$$
