LMK.pdb
     RDKit          3D

 26 25  0  0  1  0  0  0  0  0999 V2000
   30.5511  -20.2902  -18.1945 C   0  0  0  0  0  0  0  0  0  0  0  0
   29.4271  -19.6317  -17.4512 C   0  0  1  0  0  0  0  0  0  0  0  0
   28.4644  -18.9743  -18.4044 C   0  0  0  0  0  0  0  0  0  0  0  0
   28.7300  -20.5413  -16.4737 C   0  0  0  0  0  0  0  0  0  0  0  0
   27.6288  -19.7733  -15.8089 C   0  0  2  0  0  0  0  0  0  0  0  0
   28.1371  -18.5987  -15.1530 N   0  0  0  0  0  0  0  0  0  0  0  0
   26.8443  -20.5844  -14.8556 C   0  0  0  0  0  0  0  0  0  0  0  0
   26.3232  -21.6894  -15.1596 O   0  0  0  0  0  0  0  0  0  0  0  0
   25.7209  -21.0680   -6.9840 C   0  0  0  0  0  0  0  0  0  0  0  0
   26.6000  -20.5184   -8.4534 S   0  0  0  0  0  0  0  0  0  0  0  0
   25.7494  -20.9850   -9.9819 C   0  0  0  0  0  0  0  0  0  0  0  0
   26.4454  -20.5982  -11.2185 C   0  0  0  0  0  0  0  0  0  0  0  0
   25.8521  -20.9074  -12.5397 C   0  0  2  0  0  0  0  0  0  0  0  0
   26.6479  -20.1313  -13.5315 N   0  0  0  0  0  0  0  0  0  0  0  0
   24.4409  -20.5909  -12.7540 C   0  0  0  0  0  0  0  0  0  0  0  0
   24.0109  -19.4094  -12.9261 O   0  0  0  0  0  0  0  0  0  0  0  0
   23.4526  -21.6292  -12.7927 N   0  0  0  0  0  0  0  0  0  0  0  0
   22.0511  -21.2317  -13.0547 C   0  0  1  0  0  0  0  0  0  0  0  0
   21.4181  -22.5821  -13.4859 C   0  0  0  0  0  0  0  0  0  0  0  0
   19.9590  -22.4705  -13.7545 C   0  0  0  0  0  0  0  0  0  0  0  0
   19.3267  -23.8151  -14.0626 C   0  0  0  0  0  0  0  0  0  0  0  0
   17.8525  -23.6701  -14.3745 C   0  0  0  0  0  0  0  0  0  0  0  0
   17.3190  -24.9516  -14.7924 N   0  0  0  0  0  0  0  0  0  0  0  0
   21.3405  -20.8376  -11.8294 C   0  0  0  0  0  0  0  0  0  0  0  0
   20.2437  -19.9968  -11.9296 O   0  0  0  0  0  0  0  0  0  0  0  0
   21.6448  -21.2006  -10.6688 O   0  0  0  0  0  0  0  0  0  0  0  0
  2  1  1  6
  3  2  1  0
  4  2  1  0
  5  4  1  0
  5  6  1  1
  7  8  2  0
  7  5  1  0
 10  9  1  0
 11 12  1  0
 11 10  1  0
 13 12  1  1
 13 14  1  0
 14  7  1  0
 15 13  1  0
 15 16  2  0
 17 15  1  0
 18 19  1  1
 18 24  1  0
 18 17  1  0
 20 21  1  0
 20 19  1  0
 22 23  1  0
 22 21  1  0
 24 25  1  0
 26 24  2  0
M  END
$$$$
