LMK.pdb
     RDKit          3D

 26 25  0  0  1  0  0  0  0  0999 V2000
   23.2465  -15.5631  -17.5957 C   0  0  0  0  0  0  0  0  0  0  0  0
   22.4057  -16.6706  -17.0336 C   0  0  1  0  0  0  0  0  0  0  0  0
   21.4512  -17.2006  -18.0707 C   0  0  0  0  0  0  0  0  0  0  0  0
   23.2044  -17.7679  -16.3802 C   0  0  0  0  0  0  0  0  0  0  0  0
   22.2603  -18.8368  -15.9211 C   0  0  2  0  0  0  0  0  0  0  0  0
   21.2404  -18.2960  -15.0634 N   0  0  0  0  0  0  0  0  0  0  0  0
   22.9376  -19.9654  -15.2506 C   0  0  0  0  0  0  0  0  0  0  0  0
   24.0129  -20.4684  -15.6695 O   0  0  0  0  0  0  0  0  0  0  0  0
   27.6168  -20.8079  -13.5561 C   0  0  0  0  0  0  0  0  0  0  0  0
   26.9634  -20.7523  -11.8816 S   0  0  0  0  0  0  0  0  0  0  0  0
   25.2570  -21.3492  -11.7860 C   0  0  0  0  0  0  0  0  0  0  0  0
   24.3351  -20.7417  -12.7575 C   0  0  0  0  0  0  0  0  0  0  0  0
   23.1442  -21.4866  -13.2267 C   0  0  2  0  0  0  0  0  0  0  0  0
   22.3825  -20.5335  -14.0818 N   0  0  0  0  0  0  0  0  0  0  0  0
   22.2238  -22.0198  -12.2236 C   0  0  0  0  0  0  0  0  0  0  0  0
   22.6025  -22.7119  -11.2296 O   0  0  0  0  0  0  0  0  0  0  0  0
   20.8147  -21.7688  -12.3121 N   0  0  0  0  0  0  0  0  0  0  0  0
   19.9018  -22.9228  -12.1513 C   0  0  1  0  0  0  0  0  0  0  0  0
   19.6454  -22.9080  -10.6202 C   0  0  0  0  0  0  0  0  0  0  0  0
   18.7508  -24.0119  -10.1790 C   0  0  0  0  0  0  0  0  0  0  0  0
   18.4458  -23.9460   -8.6939 C   0  0  0  0  0  0  0  0  0  0  0  0
   17.5456  -25.0857   -8.2671 C   0  0  0  0  0  0  0  0  0  0  0  0
   17.2521  -24.9655   -6.8525 N   0  0  0  0  0  0  0  0  0  0  0  0
   18.5894  -22.6916  -12.7722 C   0  0  0  0  0  0  0  0  0  0  0  0
   17.7134  -23.7566  -12.9080 O   0  0  0  0  0  0  0  0  0  0  0  0
   18.1782  -21.5891  -13.2044 O   0  0  0  0  0  0  0  0  0  0  0  0
  2  1  1  6
  3  2  1  0
  4  2  1  0
  5  4  1  0
  5  6  1  1
  7  8  2  0
  7  5  1  0
 10  9  1  0
 11 12  1  0
 11 10  1  0
 13 12  1  1
 13 14  1  0
 14  7  1  0
 15 13  1  0
 15 16  2  0
 17 15  1  0
 18 19  1  1
 18 24  1  0
 18 17  1  0
 20 21  1  0
 20 19  1  0
 22 23  1  0
 22 21  1  0
 24 25  1  0
 26 24  2  0
M  END
$$$$
