LMK.pdb
     RDKit          3D

 26 25  0  0  1  0  0  0  0  0999 V2000
   29.5066  -33.2262  -18.1969 C   0  0  0  0  0  0  0  0  0  0  0  0
   29.0059  -32.3765  -17.0670 C   0  0  1  0  0  0  0  0  0  0  0  0
   28.4823  -31.0594  -17.5757 C   0  0  0  0  0  0  0  0  0  0  0  0
   28.0162  -33.0764  -16.1728 C   0  0  0  0  0  0  0  0  0  0  0  0
   27.5688  -32.1169  -15.1128 C   0  0  2  0  0  0  0  0  0  0  0  0
   28.6782  -31.6712  -14.3136 N   0  0  0  0  0  0  0  0  0  0  0  0
   26.5064  -32.6616  -14.2429 C   0  0  0  0  0  0  0  0  0  0  0  0
   25.3442  -32.9160  -14.6546 O   0  0  0  0  0  0  0  0  0  0  0  0
   24.2871  -36.6951  -15.6970 C   0  0  0  0  0  0  0  0  0  0  0  0
   24.0915  -36.9235  -13.9239 S   0  0  0  0  0  0  0  0  0  0  0  0
   24.1936  -35.3633  -13.0113 C   0  0  0  0  0  0  0  0  0  0  0  0
   25.5577  -34.9447  -12.6550 C   0  0  0  0  0  0  0  0  0  0  0  0
   25.7936  -33.6340  -12.0072 C   0  0  2  0  0  0  0  0  0  0  0  0
   26.7695  -32.9221  -12.8792 N   0  0  0  0  0  0  0  0  0  0  0  0
   26.3221  -33.6227  -10.6440 C   0  0  0  0  0  0  0  0  0  0  0  0
   27.5467  -33.8134  -10.3706 O   0  0  0  0  0  0  0  0  0  0  0  0
   25.4610  -33.3772   -9.5240 N   0  0  0  0  0  0  0  0  0  0  0  0
   26.0679  -33.4039   -8.1743 C   0  0  1  0  0  0  0  0  0  0  0  0
   24.8200  -33.2334   -7.2665 C   0  0  0  0  0  0  0  0  0  0  0  0
   25.1604  -33.2410   -5.8182 C   0  0  0  0  0  0  0  0  0  0  0  0
   23.9353  -33.0713   -4.9389 C   0  0  0  0  0  0  0  0  0  0  0  0
   24.3091  -33.0627   -3.4720 C   0  0  0  0  0  0  0  0  0  0  0  0
   23.1084  -32.9446   -2.6684 N   0  0  0  0  0  0  0  0  0  0  0  0
   26.6243  -34.7217   -7.8345 C   0  0  0  0  0  0  0  0  0  0  0  0
   27.6969  -34.7931   -6.9601 O   0  0  0  0  0  0  0  0  0  0  0  0
   26.2077  -35.8182   -8.2768 O   0  0  0  0  0  0  0  0  0  0  0  0
  2  1  1  6
  3  2  1  0
  4  2  1  0
  5  4  1  0
  5  6  1  1
  7  8  2  0
  7  5  1  0
 10  9  1  0
 11 12  1  0
 11 10  1  0
 13 12  1  6
 13 14  1  0
 14  7  1  0
 15 13  1  0
 15 16  2  0
 17 15  1  0
 18 19  1  1
 18 24  1  0
 18 17  1  0
 20 21  1  0
 20 19  1  0
 22 23  1  0
 22 21  1  0
 24 25  1  0
 26 24  2  0
M  END
$$$$
