QFV.pdb
     RDKit          3D

 28 28  0  0  1  0  0  0  0  0999 V2000
    9.1966  -18.4788   17.9659 N   0  0  0  0  0  0  0  0  0  0  0  0
   10.4393  -17.8087   17.8835 C   0  0  0  0  0  0  0  0  0  0  0  0
   10.6207  -16.8869   17.0588 O   0  0  0  0  0  0  0  0  0  0  0  0
   11.5331  -18.2526   18.8295 C   0  0  0  0  0  0  0  0  0  0  0  0
   11.7333  -17.1587   19.8306 C   0  0  0  0  0  0  0  0  0  0  0  0
   11.3352  -17.5086   21.2124 C   0  0  2  0  0  0  0  0  0  0  0  0
   10.2186  -18.4947   21.1669 N   0  0  0  0  0  0  0  0  0  0  0  0
   10.9465  -16.4645   22.1290 C   0  0  0  0  0  0  0  0  0  0  0  0
   11.7289  -15.4636   22.2725 O   0  0  0  0  0  0  0  0  0  0  0  0
    9.7676  -16.4713   22.8703 N   0  0  0  0  0  0  0  0  0  0  0  0
    9.4386  -15.4141   23.8645 C   0  0  1  0  0  0  0  0  0  0  0  0
    8.0020  -15.1288   23.6377 C   0  0  0  0  0  0  0  0  0  0  0  0
    7.3534  -14.1116   24.4377 C   0  0  0  0  0  0  0  0  0  0  0  0
    7.5183  -12.7478   24.3151 C   0  0  0  0  0  0  0  0  0  0  0  0
    6.8714  -11.8333   25.0829 C   0  0  0  0  0  0  0  0  0  0  0  0
    5.9924  -12.2258   26.0523 C   0  0  0  0  0  0  0  0  0  0  0  0
    5.7912  -13.5951   26.2155 C   0  0  0  0  0  0  0  0  0  0  0  0
    6.4539  -14.5083   25.4292 C   0  0  0  0  0  0  0  0  0  0  0  0
    9.7796  -15.9897   25.1855 C   0  0  0  0  0  0  0  0  0  0  0  0
   10.2490  -17.1752   25.3141 O   0  0  0  0  0  0  0  0  0  0  0  0
   11.1122  -14.9247   29.8757 C   0  0  0  0  0  0  0  0  0  0  0  0
   10.2188  -14.6141   28.7089 C   0  0  1  0  0  0  0  0  0  0  0  0
   10.5594  -13.2241   28.2205 C   0  0  0  0  0  0  0  0  0  0  0  0
   10.3677  -15.6694   27.6256 C   0  0  2  0  0  0  0  0  0  0  0  0
    9.6341  -15.3078   26.4320 N   0  0  0  0  0  0  0  0  0  0  0  0
   10.1367  -17.0274   28.1108 C   0  0  0  0  0  0  0  0  0  0  0  0
    8.8732  -17.6169   28.0117 O   0  0  0  0  0  0  0  0  0  0  0  0
   11.0392  -17.7246   28.6325 O   0  0  0  0  0  0  0  0  0  0  0  0
  2  1  1  0
  3  2  2  0
  4  2  1  0
  5  4  1  0
  5  6  1  0
  6  8  1  0
  6  7  1  6
  8  9  2  0
 10 11  1  0
 10  8  1  0
 11 12  1  1
 13 12  1  0
 14 13  2  0
 15 14  1  0
 16 17  1  0
 16 15  2  0
 17 18  2  0
 18 13  1  0
 19 11  1  0
 20 19  2  0
 22 21  1  1
 23 22  1  0
 24 22  1  0
 24 25  1  6
 25 19  1  0
 26 27  1  0
 26 24  1  0
 28 26  2  0
M  END
$$$$
