QFV.pdb
     RDKit          3D

 28 28  0  0  1  0  0  0  0  0999 V2000
   10.2723  -20.7378   20.7897 N   0  0  0  0  0  0  0  0  0  0  0  0
   10.4872  -20.3945   19.4347 C   0  0  0  0  0  0  0  0  0  0  0  0
   11.1290  -21.1496   18.6728 O   0  0  0  0  0  0  0  0  0  0  0  0
    9.9114  -19.0823   18.9499 C   0  0  0  0  0  0  0  0  0  0  0  0
    9.0999  -18.5068   20.0674 C   0  0  0  0  0  0  0  0  0  0  0  0
    8.9179  -17.0395   20.0036 C   0  0  2  0  0  0  0  0  0  0  0  0
    9.7416  -16.4904   18.8895 N   0  0  0  0  0  0  0  0  0  0  0  0
    9.1872  -16.2355   21.1709 C   0  0  0  0  0  0  0  0  0  0  0  0
   10.3990  -15.9076   21.4129 O   0  0  0  0  0  0  0  0  0  0  0  0
    8.2101  -15.7866   22.0557 N   0  0  0  0  0  0  0  0  0  0  0  0
    8.5318  -14.9852   23.2676 C   0  0  1  0  0  0  0  0  0  0  0  0
    7.3053  -14.1931   23.5223 C   0  0  0  0  0  0  0  0  0  0  0  0
    7.2202  -13.3994   24.7299 C   0  0  0  0  0  0  0  0  0  0  0  0
    6.4631  -13.6892   25.8458 C   0  0  0  0  0  0  0  0  0  0  0  0
    6.4314  -12.9168   26.9625 C   0  0  0  0  0  0  0  0  0  0  0  0
    7.1714  -11.7715   27.0456 C   0  0  0  0  0  0  0  0  0  0  0  0
    7.9539  -11.4351   25.9426 C   0  0  0  0  0  0  0  0  0  0  0  0
    7.9753  -12.2284   24.8194 C   0  0  0  0  0  0  0  0  0  0  0  0
    8.8899  -15.9707   24.3131 C   0  0  0  0  0  0  0  0  0  0  0  0
    8.1966  -17.0281   24.5222 O   0  0  0  0  0  0  0  0  0  0  0  0
   12.2942  -18.3799   26.8250 C   0  0  0  0  0  0  0  0  0  0  0  0
   11.8854  -17.2940   25.8713 C   0  0  1  0  0  0  0  0  0  0  0  0
   12.1609  -17.7818   24.4667 C   0  0  0  0  0  0  0  0  0  0  0  0
   10.4298  -16.9141   26.0856 C   0  0  2  0  0  0  0  0  0  0  0  0
   10.0198  -15.8626   25.1801 N   0  0  0  0  0  0  0  0  0  0  0  0
   10.0945  -16.6924   27.4896 C   0  0  0  0  0  0  0  0  0  0  0  0
    9.8843  -17.7709   28.3536 O   0  0  0  0  0  0  0  0  0  0  0  0
    9.9786  -15.5470   27.9871 O   0  0  0  0  0  0  0  0  0  0  0  0
  2  1  1  0
  3  2  2  0
  4  2  1  0
  5  4  1  0
  5  6  1  0
  6  8  1  0
  6  7  1  6
  8  9  2  0
 10 11  1  0
 10  8  1  0
 11 12  1  1
 13 12  1  0
 14 13  2  0
 15 14  1  0
 16 17  1  0
 16 15  2  0
 17 18  2  0
 18 13  1  0
 19 11  1  0
 20 19  2  0
 22 21  1  1
 23 22  1  0
 24 22  1  0
 24 25  1  6
 25 19  1  0
 26 27  1  0
 26 24  1  0
 28 26  2  0
M  END
$$$$
