QFV.pdb
     RDKit          3D

 28 28  0  0  1  0  0  0  0  0999 V2000
    8.6574  -18.7952   18.3965 N   0  0  0  0  0  0  0  0  0  0  0  0
    9.9792  -18.8168   17.8939 C   0  0  0  0  0  0  0  0  0  0  0  0
   10.3675  -19.7367   17.1418 O   0  0  0  0  0  0  0  0  0  0  0  0
   10.8975  -17.6865   18.3031 C   0  0  0  0  0  0  0  0  0  0  0  0
   10.1728  -16.8644   19.3218 C   0  0  0  0  0  0  0  0  0  0  0  0
   10.4802  -17.2141   20.7266 C   0  0  2  0  0  0  0  0  0  0  0  0
    9.6669  -18.3969   21.1275 N   0  0  0  0  0  0  0  0  0  0  0  0
   10.3259  -16.2191   21.7598 C   0  0  0  0  0  0  0  0  0  0  0  0
   11.1457  -15.2382   21.7820 O   0  0  0  0  0  0  0  0  0  0  0  0
    9.3362  -16.2529   22.7389 N   0  0  0  0  0  0  0  0  0  0  0  0
    9.2440  -15.2370   23.8222 C   0  0  1  0  0  0  0  0  0  0  0  0
    7.8003  -15.1804   24.1529 C   0  0  0  0  0  0  0  0  0  0  0  0
    7.3146  -14.1090   24.9965 C   0  0  0  0  0  0  0  0  0  0  0  0
    6.6967  -14.2503   26.2215 C   0  0  0  0  0  0  0  0  0  0  0  0
    6.2733  -13.2080   26.9823 C   0  0  0  0  0  0  0  0  0  0  0  0
    6.4405  -11.9186   26.5628 C   0  0  0  0  0  0  0  0  0  0  0  0
    7.0604  -11.7233   25.3301 C   0  0  0  0  0  0  0  0  0  0  0  0
    7.4839  -12.7897   24.5720 C   0  0  0  0  0  0  0  0  0  0  0  0
   10.1327  -15.7242   24.9017 C   0  0  0  0  0  0  0  0  0  0  0  0
   11.3980  -15.5212   24.8895 O   0  0  0  0  0  0  0  0  0  0  0  0
   10.6414  -14.6947   29.2496 C   0  0  0  0  0  0  0  0  0  0  0  0
   10.0871  -14.8468   27.8620 C   0  0  1  0  0  0  0  0  0  0  0  0
   10.7723  -13.8320   26.9746 C   0  0  0  0  0  0  0  0  0  0  0  0
   10.2651  -16.2730   27.3684 C   0  0  2  0  0  0  0  0  0  0  0  0
    9.6942  -16.4506   26.0507 N   0  0  0  0  0  0  0  0  0  0  0  0
    9.8752  -17.2757   28.3560 C   0  0  0  0  0  0  0  0  0  0  0  0
   10.8272  -17.8593   29.1967 O   0  0  0  0  0  0  0  0  0  0  0  0
    8.6905  -17.6608   28.5013 O   0  0  0  0  0  0  0  0  0  0  0  0
  2  1  1  0
  3  2  2  0
  4  2  1  0
  5  4  1  0
  5  6  1  0
  6  8  1  0
  6  7  1  1
  8  9  2  0
 10 11  1  0
 10  8  1  0
 11 12  1  1
 13 12  1  0
 14 13  2  0
 15 14  1  0
 16 17  1  0
 16 15  2  0
 17 18  2  0
 18 13  1  0
 19 11  1  0
 20 19  2  0
 22 21  1  1
 23 22  1  0
 24 22  1  0
 24 25  1  6
 25 19  1  0
 26 27  1  0
 26 24  1  0
 28 26  2  0
M  END
$$$$
