QFV.pdb
     RDKit          3D

 28 28  0  0  1  0  0  0  0  0999 V2000
    7.7166  -13.0587   18.7815 N   0  0  0  0  0  0  0  0  0  0  0  0
    8.4511  -14.0354   18.0697 C   0  0  0  0  0  0  0  0  0  0  0  0
    9.0722  -13.7403   17.0257 O   0  0  0  0  0  0  0  0  0  0  0  0
    8.4525  -15.4438   18.6216 C   0  0  0  0  0  0  0  0  0  0  0  0
    9.8617  -15.7785   18.9971 C   0  0  0  0  0  0  0  0  0  0  0  0
   10.0084  -16.4322   20.3167 C   0  0  2  0  0  0  0  0  0  0  0  0
    9.0186  -17.5407   20.4283 N   0  0  0  0  0  0  0  0  0  0  0  0
    9.9036  -15.6427   21.5197 C   0  0  0  0  0  0  0  0  0  0  0  0
   10.5491  -14.5406   21.5779 O   0  0  0  0  0  0  0  0  0  0  0  0
    9.1393  -16.0002   22.6276 N   0  0  0  0  0  0  0  0  0  0  0  0
    8.9648  -15.1064   23.8044 C   0  0  1  0  0  0  0  0  0  0  0  0
    7.5011  -14.8884   23.8881 C   0  0  0  0  0  0  0  0  0  0  0  0
    6.9890  -13.9143   24.8285 C   0  0  0  0  0  0  0  0  0  0  0  0
    6.2200  -14.1803   25.9422 C   0  0  0  0  0  0  0  0  0  0  0  0
    5.7775  -13.2282   26.8036 C   0  0  0  0  0  0  0  0  0  0  0  0
    6.0786  -11.9099   26.6086 C   0  0  0  0  0  0  0  0  0  0  0  0
    6.8540  -11.5897   25.4958 C   0  0  0  0  0  0  0  0  0  0  0  0
    7.2947  -12.5661   24.6333 C   0  0  0  0  0  0  0  0  0  0  0  0
    9.5743  -15.8268   24.9455 C   0  0  0  0  0  0  0  0  0  0  0  0
    9.9392  -17.0526   24.8639 O   0  0  0  0  0  0  0  0  0  0  0  0
   11.2427  -13.7329   28.0739 C   0  0  0  0  0  0  0  0  0  0  0  0
   10.7093  -15.0683   28.5076 C   0  0  1  0  0  0  0  0  0  0  0  0
    9.4490  -14.8271   29.3077 C   0  0  0  0  0  0  0  0  0  0  0  0
   10.4776  -15.9678   27.3049 C   0  0  2  0  0  0  0  0  0  0  0  0
    9.8238  -15.2536   26.2297 N   0  0  0  0  0  0  0  0  0  0  0  0
    9.8764  -17.2518   27.6553 C   0  0  0  0  0  0  0  0  0  0  0  0
   10.6349  -18.2530   28.2687 O   0  0  0  0  0  0  0  0  0  0  0  0
    8.6727  -17.5219   27.4296 O   0  0  0  0  0  0  0  0  0  0  0  0
  2  1  1  0
  3  2  2  0
  4  2  1  0
  5  4  1  0
  5  6  1  0
  6  8  1  0
  6  7  1  1
  8  9  2  0
 10 11  1  0
 10  8  1  0
 11 12  1  1
 13 12  1  0
 14 13  2  0
 15 14  1  0
 16 17  1  0
 16 15  2  0
 17 18  2  0
 18 13  1  0
 19 11  1  0
 20 19  2  0
 22 21  1  6
 23 22  1  0
 24 22  1  0
 24 25  1  6
 25 19  1  0
 26 27  1  0
 26 24  1  0
 28 26  2  0
M  END
$$$$
