QFV.pdb
     RDKit          3D

 28 28  0  0  1  0  0  0  0  0999 V2000
   10.2394  -20.3363   18.6838 N   0  0  0  0  0  0  0  0  0  0  0  0
    9.9047  -19.2286   17.8707 C   0  0  0  0  0  0  0  0  0  0  0  0
   10.5624  -18.9630   16.8414 O   0  0  0  0  0  0  0  0  0  0  0  0
    8.7246  -18.3839   18.2974 C   0  0  0  0  0  0  0  0  0  0  0  0
    9.0265  -17.8447   19.6601 C   0  0  0  0  0  0  0  0  0  0  0  0
    8.3572  -16.5634   19.9772 C   0  0  2  0  0  0  0  0  0  0  0  0
    8.5360  -15.6206   18.8369 N   0  0  0  0  0  0  0  0  0  0  0  0
    8.7125  -15.8513   21.1805 C   0  0  0  0  0  0  0  0  0  0  0  0
    9.9376  -15.5284   21.3527 O   0  0  0  0  0  0  0  0  0  0  0  0
    7.8053  -15.4864   22.1720 N   0  0  0  0  0  0  0  0  0  0  0  0
    8.2219  -14.8175   23.4343 C   0  0  1  0  0  0  0  0  0  0  0  0
    6.9835  -14.1789   23.9394 C   0  0  0  0  0  0  0  0  0  0  0  0
    7.0113  -13.5113   25.2235 C   0  0  0  0  0  0  0  0  0  0  0  0
    5.9429  -13.3423   26.0793 C   0  0  0  0  0  0  0  0  0  0  0  0
    6.0266  -12.7204   27.2838 C   0  0  0  0  0  0  0  0  0  0  0  0
    7.2127  -12.2099   27.7297 C   0  0  0  0  0  0  0  0  0  0  0  0
    8.3230  -12.3555   26.9002 C   0  0  0  0  0  0  0  0  0  0  0  0
    8.2214  -12.9885   25.6835 C   0  0  0  0  0  0  0  0  0  0  0  0
    8.7864  -15.8896   24.2855 C   0  0  0  0  0  0  0  0  0  0  0  0
    8.1880  -17.0091   24.4616 O   0  0  0  0  0  0  0  0  0  0  0  0
   12.6386  -18.3183   26.0258 C   0  0  0  0  0  0  0  0  0  0  0  0
   12.0638  -17.1333   25.3038 C   0  0  1  0  0  0  0  0  0  0  0  0
   12.2311  -17.3684   23.8193 C   0  0  0  0  0  0  0  0  0  0  0  0
   10.6141  -16.9150   25.7035 C   0  0  2  0  0  0  0  0  0  0  0  0
   10.0295  -15.8043   24.9836 N   0  0  0  0  0  0  0  0  0  0  0  0
   10.4140  -16.8937   27.1500 C   0  0  0  0  0  0  0  0  0  0  0  0
   10.2911  -18.0839   27.8726 O   0  0  0  0  0  0  0  0  0  0  0  0
   10.3423  -15.8295   27.8098 O   0  0  0  0  0  0  0  0  0  0  0  0
  2  1  1  0
  3  2  2  0
  4  2  1  0
  5  4  1  0
  5  6  1  0
  6  8  1  0
  6  7  1  6
  8  9  2  0
 10 11  1  0
 10  8  1  0
 11 12  1  1
 13 12  1  0
 14 13  2  0
 15 14  1  0
 16 17  1  0
 16 15  2  0
 17 18  2  0
 18 13  1  0
 19 11  1  0
 20 19  2  0
 22 21  1  1
 23 22  1  0
 24 22  1  0
 24 25  1  1
 25 19  1  0
 26 27  1  0
 26 24  1  0
 28 26  2  0
M  END
$$$$
