QFV.pdb
     RDKit          3D

 28 28  0  0  1  0  0  0  0  0999 V2000
   11.3190  -21.2802   21.7369 N   0  0  0  0  0  0  0  0  0  0  0  0
   11.7638  -20.8259   20.4736 C   0  0  0  0  0  0  0  0  0  0  0  0
   12.2863  -21.6116   19.6537 O   0  0  0  0  0  0  0  0  0  0  0  0
   11.5819  -19.3575   20.1590 C   0  0  0  0  0  0  0  0  0  0  0  0
   10.9716  -18.7117   21.3629 C   0  0  0  0  0  0  0  0  0  0  0  0
   10.0923  -17.5594   21.0639 C   0  0  2  0  0  0  0  0  0  0  0  0
   10.5254  -16.9301   19.7843 N   0  0  0  0  0  0  0  0  0  0  0  0
    9.9485  -16.5010   22.0337 C   0  0  0  0  0  0  0  0  0  0  0  0
   10.8051  -15.5519   22.0245 O   0  0  0  0  0  0  0  0  0  0  0  0
    8.9314  -16.4407   22.9830 N   0  0  0  0  0  0  0  0  0  0  0  0
    8.7884  -15.3061   23.9351 C   0  0  1  0  0  0  0  0  0  0  0  0
    7.3401  -14.9915   23.9191 C   0  0  0  0  0  0  0  0  0  0  0  0
    6.8508  -13.8953   24.7281 C   0  0  0  0  0  0  0  0  0  0  0  0
    5.9700  -13.9904   25.7853 C   0  0  0  0  0  0  0  0  0  0  0  0
    5.5541  -12.9293   26.5239 C   0  0  0  0  0  0  0  0  0  0  0  0
    5.9989  -11.6665   26.2519 C   0  0  0  0  0  0  0  0  0  0  0  0
    6.8913  -11.5182   25.1919 C   0  0  0  0  0  0  0  0  0  0  0  0
    7.3031  -12.6032   24.4540 C   0  0  0  0  0  0  0  0  0  0  0  0
    9.3257  -15.7979   25.2242 C   0  0  0  0  0  0  0  0  0  0  0  0
    9.3547  -17.0440   25.5221 O   0  0  0  0  0  0  0  0  0  0  0  0
   10.6778  -14.8889   29.9190 C   0  0  0  0  0  0  0  0  0  0  0  0
    9.9393  -14.5260   28.6625 C   0  0  1  0  0  0  0  0  0  0  0  0
   10.2503  -13.0813   28.3420 C   0  0  0  0  0  0  0  0  0  0  0  0
   10.3110  -15.4709   27.5319 C   0  0  2  0  0  0  0  0  0  0  0  0
    9.8634  -14.9649   26.2523 N   0  0  0  0  0  0  0  0  0  0  0  0
    9.9623  -16.8620   27.8076 C   0  0  0  0  0  0  0  0  0  0  0  0
   10.9413  -17.7815   28.1946 O   0  0  0  0  0  0  0  0  0  0  0  0
    8.7907  -17.2995   27.7141 O   0  0  0  0  0  0  0  0  0  0  0  0
  2  1  1  0
  3  2  2  0
  4  2  1  0
  5  4  1  0
  5  6  1  0
  6  8  1  0
  6  7  1  6
  8  9  2  0
 10 11  1  0
 10  8  1  0
 11 12  1  1
 13 12  1  0
 14 13  2  0
 15 14  1  0
 16 17  1  0
 16 15  2  0
 17 18  2  0
 18 13  1  0
 19 11  1  0
 20 19  2  0
 22 21  1  1
 23 22  1  0
 24 22  1  0
 24 25  1  6
 25 19  1  0
 26 27  1  0
 26 24  1  0
 28 26  2  0
M  END
$$$$
