QFV.pdb
     RDKit          3D

 28 28  0  0  1  0  0  0  0  0999 V2000
   11.0228  -21.2487   21.6387 N   0  0  0  0  0  0  0  0  0  0  0  0
   10.8311  -20.7012   20.3489 C   0  0  0  0  0  0  0  0  0  0  0  0
   10.8039  -21.4330   19.3358 O   0  0  0  0  0  0  0  0  0  0  0  0
   10.6619  -19.2013   20.2480 C   0  0  0  0  0  0  0  0  0  0  0  0
    9.2140  -18.8960   20.4695 C   0  0  0  0  0  0  0  0  0  0  0  0
    8.8707  -17.4581   20.4006 C   0  0  2  0  0  0  0  0  0  0  0  0
    9.5811  -16.8383   19.2464 N   0  0  0  0  0  0  0  0  0  0  0  0
    9.1008  -16.6137   21.5476 C   0  0  0  0  0  0  0  0  0  0  0  0
   10.2998  -16.2471   21.7979 O   0  0  0  0  0  0  0  0  0  0  0  0
    8.0986  -16.1652   22.4042 N   0  0  0  0  0  0  0  0  0  0  0  0
    8.3716  -15.2645   23.5568 C   0  0  1  0  0  0  0  0  0  0  0  0
    7.0813  -14.5777   23.8020 C   0  0  0  0  0  0  0  0  0  0  0  0
    6.9643  -13.6879   24.9377 C   0  0  0  0  0  0  0  0  0  0  0  0
    6.2571  -13.9316   26.0966 C   0  0  0  0  0  0  0  0  0  0  0  0
    6.1927  -13.0672   27.1420 C   0  0  0  0  0  0  0  0  0  0  0  0
    6.8457  -11.8678   27.1031 C   0  0  0  0  0  0  0  0  0  0  0  0
    7.5749  -11.5747   25.9522 C   0  0  0  0  0  0  0  0  0  0  0  0
    7.6304  -12.4614   24.9024 C   0  0  0  0  0  0  0  0  0  0  0  0
    8.8485  -16.1460   24.6467 C   0  0  0  0  0  0  0  0  0  0  0  0
    8.2753  -17.2573   24.9276 O   0  0  0  0  0  0  0  0  0  0  0  0
   12.4053  -18.0209   27.3996 C   0  0  0  0  0  0  0  0  0  0  0  0
   11.9392  -17.0412   26.3609 C   0  0  1  0  0  0  0  0  0  0  0  0
   12.3107  -17.5927   25.0027 C   0  0  0  0  0  0  0  0  0  0  0  0
   10.4485  -16.7818   26.5011 C   0  0  2  0  0  0  0  0  0  0  0  0
    9.9732  -15.8703   25.4828 N   0  0  0  0  0  0  0  0  0  0  0  0
   10.0486  -16.4530   27.8667 C   0  0  0  0  0  0  0  0  0  0  0  0
    9.7581  -17.4619   28.7894 O   0  0  0  0  0  0  0  0  0  0  0  0
    9.9452  -15.2728   28.2783 O   0  0  0  0  0  0  0  0  0  0  0  0
  2  1  1  0
  3  2  2  0
  4  2  1  0
  5  4  1  0
  5  6  1  0
  6  8  1  0
  6  7  1  6
  8  9  2  0
 10 11  1  0
 10  8  1  0
 11 12  1  1
 13 12  1  0
 14 13  2  0
 15 14  1  0
 16 17  1  0
 16 15  2  0
 17 18  2  0
 18 13  1  0
 19 11  1  0
 20 19  2  0
 22 21  1  1
 23 22  1  0
 24 22  1  0
 24 25  1  6
 25 19  1  0
 26 27  1  0
 26 24  1  0
 28 26  2  0
M  END
$$$$
