QFV.pdb
     RDKit          3D

 28 28  0  0  1  0  0  0  0  0999 V2000
   12.8690  -16.9340   17.7313 N   0  0  0  0  0  0  0  0  0  0  0  0
   12.0028  -18.0387   17.5595 C   0  0  0  0  0  0  0  0  0  0  0  0
   12.2084  -18.8853   16.6630 O   0  0  0  0  0  0  0  0  0  0  0  0
   10.8238  -18.1512   18.5006 C   0  0  0  0  0  0  0  0  0  0  0  0
   10.8950  -16.9976   19.4508 C   0  0  0  0  0  0  0  0  0  0  0  0
   10.7197  -17.3612   20.8746 C   0  0  2  0  0  0  0  0  0  0  0  0
    9.6869  -18.4301   20.9848 N   0  0  0  0  0  0  0  0  0  0  0  0
   10.3819  -16.3396   21.8356 C   0  0  0  0  0  0  0  0  0  0  0  0
   11.0393  -15.2433   21.8091 O   0  0  0  0  0  0  0  0  0  0  0  0
    9.3797  -16.4660   22.7942 N   0  0  0  0  0  0  0  0  0  0  0  0
    9.0962  -15.4095   23.8031 C   0  0  1  0  0  0  0  0  0  0  0  0
    7.6210  -15.2678   23.7841 C   0  0  0  0  0  0  0  0  0  0  0  0
    7.0021  -14.2567   24.6149 C   0  0  0  0  0  0  0  0  0  0  0  0
    6.1890  -14.4819   25.7060 C   0  0  0  0  0  0  0  0  0  0  0  0
    5.6452  -13.4945   26.4635 C   0  0  0  0  0  0  0  0  0  0  0  0
    5.8802  -12.1794   26.1774 C   0  0  0  0  0  0  0  0  0  0  0  0
    6.6965  -11.8998   25.0831 C   0  0  0  0  0  0  0  0  0  0  0  0
    7.2399  -12.9115   24.3264 C   0  0  0  0  0  0  0  0  0  0  0  0
    9.6789  -15.9035   25.0715 C   0  0  0  0  0  0  0  0  0  0  0  0
   10.1906  -17.0736   25.1789 O   0  0  0  0  0  0  0  0  0  0  0  0
   10.9078  -15.1330   29.8595 C   0  0  0  0  0  0  0  0  0  0  0  0
   10.1072  -14.6981   28.6654 C   0  0  1  0  0  0  0  0  0  0  0  0
   10.5425  -13.2967   28.3001 C   0  0  0  0  0  0  0  0  0  0  0  0
   10.2771  -15.6824   27.5202 C   0  0  2  0  0  0  0  0  0  0  0  0
    9.7414  -15.1527   26.2849 N   0  0  0  0  0  0  0  0  0  0  0  0
    9.8438  -17.0358   27.8569 C   0  0  0  0  0  0  0  0  0  0  0  0
   10.7580  -17.9837   28.3253 O   0  0  0  0  0  0  0  0  0  0  0  0
    8.6534  -17.4147   27.7463 O   0  0  0  0  0  0  0  0  0  0  0  0
  2  1  1  0
  3  2  2  0
  4  2  1  0
  5  4  1  0
  5  6  1  0
  6  8  1  0
  6  7  1  6
  8  9  2  0
 10 11  1  0
 10  8  1  0
 11 12  1  1
 13 12  1  0
 14 13  2  0
 15 14  1  0
 16 17  1  0
 16 15  2  0
 17 18  2  0
 18 13  1  0
 19 11  1  0
 20 19  2  0
 22 21  1  1
 23 22  1  0
 24 22  1  0
 24 25  1  6
 25 19  1  0
 26 27  1  0
 26 24  1  0
 28 26  2  0
M  END
$$$$
