QFV.pdb
     RDKit          3D

 28 28  0  0  1  0  0  0  0  0999 V2000
    8.3315  -20.5875   20.0085 N   0  0  0  0  0  0  0  0  0  0  0  0
    9.4897  -20.0539   19.3970 C   0  0  0  0  0  0  0  0  0  0  0  0
   10.4862  -20.7728   19.1673 O   0  0  0  0  0  0  0  0  0  0  0  0
    9.4716  -18.5851   19.0355 C   0  0  0  0  0  0  0  0  0  0  0  0
    8.1251  -18.0474   19.4052 C   0  0  0  0  0  0  0  0  0  0  0  0
    8.0498  -16.5710   19.4744 C   0  0  2  0  0  0  0  0  0  0  0  0
    8.8077  -15.9865   18.3320 N   0  0  0  0  0  0  0  0  0  0  0  0
    8.4848  -15.8895   20.6693 C   0  0  0  0  0  0  0  0  0  0  0  0
    9.7293  -15.6256   20.7960 O   0  0  0  0  0  0  0  0  0  0  0  0
    7.6350  -15.4939   21.6992 N   0  0  0  0  0  0  0  0  0  0  0  0
    8.1180  -14.7637   22.9025 C   0  0  1  0  0  0  0  0  0  0  0  0
    6.9041  -14.1145   23.4518 C   0  0  0  0  0  0  0  0  0  0  0  0
    6.9824  -13.4526   24.7368 C   0  0  0  0  0  0  0  0  0  0  0  0
    6.4563  -13.9129   25.9259 C   0  0  0  0  0  0  0  0  0  0  0  0
    6.5721  -13.2587   27.1104 C   0  0  0  0  0  0  0  0  0  0  0  0
    7.2378  -12.0685   27.1934 C   0  0  0  0  0  0  0  0  0  0  0  0
    7.7880  -11.5611   26.0179 C   0  0  0  0  0  0  0  0  0  0  0  0
    7.6621  -12.2364   24.8263 C   0  0  0  0  0  0  0  0  0  0  0  0
    8.7454  -15.7900   23.7658 C   0  0  0  0  0  0  0  0  0  0  0  0
    8.2199  -16.9446   23.9478 O   0  0  0  0  0  0  0  0  0  0  0  0
   12.8151  -17.8421   25.5701 C   0  0  0  0  0  0  0  0  0  0  0  0
   12.1240  -16.7511   24.8032 C   0  0  1  0  0  0  0  0  0  0  0  0
   12.3533  -17.0025   23.3298 C   0  0  0  0  0  0  0  0  0  0  0  0
   10.6494  -16.6939   25.1661 C   0  0  2  0  0  0  0  0  0  0  0  0
    9.9759  -15.6186   24.4705 N   0  0  0  0  0  0  0  0  0  0  0  0
   10.4094  -16.7507   26.6055 C   0  0  0  0  0  0  0  0  0  0  0  0
   10.0427  -15.6037   27.3152 O   0  0  0  0  0  0  0  0  0  0  0  0
   10.5171  -17.8086   27.2705 O   0  0  0  0  0  0  0  0  0  0  0  0
  2  1  1  0
  3  2  2  0
  4  2  1  0
  5  4  1  0
  5  6  1  0
  6  8  1  0
  6  7  1  6
  8  9  2  0
 10 11  1  0
 10  8  1  0
 11 12  1  1
 13 12  1  0
 14 13  2  0
 15 14  1  0
 16 17  1  0
 16 15  2  0
 17 18  2  0
 18 13  1  0
 19 11  1  0
 20 19  2  0
 22 21  1  1
 23 22  1  0
 24 22  1  0
 24 25  1  1
 25 19  1  0
 26 27  1  0
 26 24  1  0
 28 26  2  0
M  END
$$$$
