QFV.pdb
     RDKit          3D

 28 28  0  0  1  0  0  0  0  0999 V2000
    8.8890  -20.8835   20.3397 N   0  0  0  0  0  0  0  0  0  0  0  0
    8.6521  -20.5078   18.9969 C   0  0  0  0  0  0  0  0  0  0  0  0
    8.3800  -21.3634   18.1271 O   0  0  0  0  0  0  0  0  0  0  0  0
    8.7420  -19.0358   18.6602 C   0  0  0  0  0  0  0  0  0  0  0  0
    9.0563  -18.3030   19.9264 C   0  0  0  0  0  0  0  0  0  0  0  0
    8.4911  -16.9375   20.0037 C   0  0  2  0  0  0  0  0  0  0  0  0
    8.8503  -16.1866   18.7674 N   0  0  0  0  0  0  0  0  0  0  0  0
    8.8171  -16.0928   21.1269 C   0  0  0  0  0  0  0  0  0  0  0  0
   10.0161  -15.6616   21.2313 O   0  0  0  0  0  0  0  0  0  0  0  0
    7.9076  -15.7098   22.1094 N   0  0  0  0  0  0  0  0  0  0  0  0
    8.3121  -14.9590   23.3288 C   0  0  1  0  0  0  0  0  0  0  0  0
    7.0708  -14.2829   23.7745 C   0  0  0  0  0  0  0  0  0  0  0  0
    7.0600  -13.6076   25.0548 C   0  0  0  0  0  0  0  0  0  0  0  0
    6.4586  -14.0589   26.2111 C   0  0  0  0  0  0  0  0  0  0  0  0
    6.4920  -13.3921   27.3937 C   0  0  0  0  0  0  0  0  0  0  0  0
    7.1442  -12.1970   27.5081 C   0  0  0  0  0  0  0  0  0  0  0  0
    7.7684  -11.6983   26.3664 C   0  0  0  0  0  0  0  0  0  0  0  0
    7.7256  -12.3863   25.1763 C   0  0  0  0  0  0  0  0  0  0  0  0
    8.8612  -15.9734   24.2572 C   0  0  0  0  0  0  0  0  0  0  0  0
    8.2584  -17.0787   24.4964 O   0  0  0  0  0  0  0  0  0  0  0  0
   12.7600  -18.1442   26.3130 C   0  0  0  0  0  0  0  0  0  0  0  0
   12.1783  -17.0037   25.5275 C   0  0  1  0  0  0  0  0  0  0  0  0
   12.5443  -17.2066   24.0744 C   0  0  0  0  0  0  0  0  0  0  0  0
   10.6774  -16.9134   25.7474 C   0  0  2  0  0  0  0  0  0  0  0  0
   10.0931  -15.8433   24.9682 N   0  0  0  0  0  0  0  0  0  0  0  0
   10.3013  -16.9330   27.1585 C   0  0  0  0  0  0  0  0  0  0  0  0
    9.9621  -15.7520   27.8246 O   0  0  0  0  0  0  0  0  0  0  0  0
   10.2632  -17.9876   27.8363 O   0  0  0  0  0  0  0  0  0  0  0  0
  2  1  1  0
  3  2  2  0
  4  2  1  0
  5  4  1  0
  5  6  1  0
  6  8  1  0
  6  7  1  6
  8  9  2  0
 10 11  1  0
 10  8  1  0
 11 12  1  1
 13 12  1  0
 14 13  2  0
 15 14  1  0
 16 17  1  0
 16 15  2  0
 17 18  2  0
 18 13  1  0
 19 11  1  0
 20 19  2  0
 22 21  1  1
 23 22  1  0
 24 22  1  0
 24 25  1  1
 25 19  1  0
 26 27  1  0
 26 24  1  0
 28 26  2  0
M  END
$$$$
