QFV.pdb
     RDKit          3D

 28 28  0  0  1  0  0  0  0  0999 V2000
    9.9592  -15.4135   16.3299 N   0  0  0  0  0  0  0  0  0  0  0  0
    8.6015  -15.2452   16.6886 C   0  0  0  0  0  0  0  0  0  0  0  0
    7.8167  -14.6038   15.9570 O   0  0  0  0  0  0  0  0  0  0  0  0
    8.1427  -15.8699   17.9876 C   0  0  0  0  0  0  0  0  0  0  0  0
    9.3028  -16.6221   18.5596 C   0  0  0  0  0  0  0  0  0  0  0  0
    9.0576  -17.2081   19.8963 C   0  0  2  0  0  0  0  0  0  0  0  0
    7.6608  -17.7239   19.9576 N   0  0  0  0  0  0  0  0  0  0  0  0
    9.2695  -16.4062   21.0768 C   0  0  0  0  0  0  0  0  0  0  0  0
   10.4200  -15.8757   21.2490 O   0  0  0  0  0  0  0  0  0  0  0  0
    8.2986  -16.1663   22.0458 N   0  0  0  0  0  0  0  0  0  0  0  0
    8.5659  -15.3595   23.2673 C   0  0  1  0  0  0  0  0  0  0  0  0
    7.3134  -14.5987   23.4882 C   0  0  0  0  0  0  0  0  0  0  0  0
    7.2133  -13.7308   24.6424 C   0  0  0  0  0  0  0  0  0  0  0  0
    7.8092  -12.4955   24.7894 C   0  0  0  0  0  0  0  0  0  0  0  0
    7.6696  -11.7120   25.8899 C   0  0  0  0  0  0  0  0  0  0  0  0
    6.9066  -12.1170   26.9483 C   0  0  0  0  0  0  0  0  0  0  0  0
    6.2831  -13.3592   26.8479 C   0  0  0  0  0  0  0  0  0  0  0  0
    6.4342  -14.1404   25.7261 C   0  0  0  0  0  0  0  0  0  0  0  0
    8.9190  -16.3378   24.3212 C   0  0  0  0  0  0  0  0  0  0  0  0
    8.2506  -17.4156   24.5052 O   0  0  0  0  0  0  0  0  0  0  0  0
   12.1900  -18.8189   26.8466 C   0  0  0  0  0  0  0  0  0  0  0  0
   11.7898  -17.7742   25.8445 C   0  0  1  0  0  0  0  0  0  0  0  0
   11.8692  -18.3964   24.4685 C   0  0  0  0  0  0  0  0  0  0  0  0
   10.4075  -17.2293   26.1631 C   0  0  2  0  0  0  0  0  0  0  0  0
   10.0167  -16.1997   25.2245 N   0  0  0  0  0  0  0  0  0  0  0  0
   10.2365  -16.8848   27.5720 C   0  0  0  0  0  0  0  0  0  0  0  0
   10.0150  -17.8787   28.5294 O   0  0  0  0  0  0  0  0  0  0  0  0
   10.2774  -15.7037   27.9918 O   0  0  0  0  0  0  0  0  0  0  0  0
  2  1  1  0
  3  2  2  0
  4  2  1  0
  5  4  1  0
  5  6  1  0
  6  8  1  0
  6  7  1  6
  8  9  2  0
 10 11  1  0
 10  8  1  0
 11 12  1  1
 13 12  1  0
 14 13  2  0
 15 14  1  0
 16 17  1  0
 16 15  2  0
 17 18  2  0
 18 13  1  0
 19 11  1  0
 20 19  2  0
 22 21  1  1
 23 22  1  0
 24 22  1  0
 24 25  1  6
 25 19  1  0
 26 27  1  0
 26 24  1  0
 28 26  2  0
M  END
$$$$
