QFV.pdb
     RDKit          3D

 28 28  0  0  1  0  0  0  0  0999 V2000
   11.1097  -20.3465   22.1207 N   0  0  0  0  0  0  0  0  0  0  0  0
   11.3105  -20.4578   20.7252 C   0  0  0  0  0  0  0  0  0  0  0  0
   10.8251  -21.4111   20.0785 O   0  0  0  0  0  0  0  0  0  0  0  0
   12.1330  -19.3810   20.0527 C   0  0  0  0  0  0  0  0  0  0  0  0
   12.1146  -18.1787   20.9432 C   0  0  0  0  0  0  0  0  0  0  0  0
   10.8363  -17.4329   20.9439 C   0  0  2  0  0  0  0  0  0  0  0  0
   10.6508  -16.7751   19.6195 N   0  0  0  0  0  0  0  0  0  0  0  0
   10.5939  -16.4332   21.9555 C   0  0  0  0  0  0  0  0  0  0  0  0
   11.4033  -15.4469   22.0372 O   0  0  0  0  0  0  0  0  0  0  0  0
    9.5293  -16.4681   22.8525 N   0  0  0  0  0  0  0  0  0  0  0  0
    9.3114  -15.4148   23.8807 C   0  0  1  0  0  0  0  0  0  0  0  0
    7.8557  -15.1416   23.8261 C   0  0  0  0  0  0  0  0  0  0  0  0
    7.3119  -14.0685   24.6313 C   0  0  0  0  0  0  0  0  0  0  0  0
    7.5284  -12.7189   24.4469 C   0  0  0  0  0  0  0  0  0  0  0  0
    6.9795  -11.7495   25.2236 C   0  0  0  0  0  0  0  0  0  0  0  0
    6.1554  -12.0671   26.2659 C   0  0  0  0  0  0  0  0  0  0  0  0
    5.9054  -13.4191   26.4934 C   0  0  0  0  0  0  0  0  0  0  0  0
    6.4688  -14.3886   25.6971 C   0  0  0  0  0  0  0  0  0  0  0  0
    9.8111  -15.9887   25.1509 C   0  0  0  0  0  0  0  0  0  0  0  0
    9.9726  -17.2494   25.3148 O   0  0  0  0  0  0  0  0  0  0  0  0
   11.7538  -13.6583   27.9891 C   0  0  0  0  0  0  0  0  0  0  0  0
   10.9283  -14.7612   28.5874 C   0  0  1  0  0  0  0  0  0  0  0  0
    9.6837  -14.1401   29.1804 C   0  0  0  0  0  0  0  0  0  0  0  0
   10.6152  -15.8210   27.5443 C   0  0  2  0  0  0  0  0  0  0  0  0
   10.1658  -15.2251   26.3047 N   0  0  0  0  0  0  0  0  0  0  0  0
    9.7756  -16.9007   28.0563 C   0  0  0  0  0  0  0  0  0  0  0  0
   10.2924  -17.8494   28.9432 O   0  0  0  0  0  0  0  0  0  0  0  0
    8.5705  -17.0340   27.7353 O   0  0  0  0  0  0  0  0  0  0  0  0
  2  1  1  0
  3  2  2  0
  4  2  1  0
  5  4  1  0
  5  6  1  0
  6  8  1  0
  6  7  1  6
  8  9  2  0
 10 11  1  0
 10  8  1  0
 11 12  1  1
 13 12  1  0
 14 13  2  0
 15 14  1  0
 16 17  1  0
 16 15  2  0
 17 18  2  0
 18 13  1  0
 19 11  1  0
 20 19  2  0
 22 21  1  6
 23 22  1  0
 24 22  1  0
 24 25  1  6
 25 19  1  0
 26 27  1  0
 26 24  1  0
 28 26  2  0
M  END
$$$$
