QFV.pdb
     RDKit          3D

 28 28  0  0  1  0  0  0  0  0999 V2000
   11.3225  -16.2304   17.2577 N   0  0  0  0  0  0  0  0  0  0  0  0
   11.2535  -17.6425   17.2946 C   0  0  0  0  0  0  0  0  0  0  0  0
   11.4812  -18.3255   16.2727 O   0  0  0  0  0  0  0  0  0  0  0  0
   10.8940  -18.2871   18.6150 C   0  0  0  0  0  0  0  0  0  0  0  0
   10.6102  -17.1879   19.5897 C   0  0  0  0  0  0  0  0  0  0  0  0
   10.4586  -17.6334   20.9928 C   0  0  2  0  0  0  0  0  0  0  0  0
    9.3001  -18.5659   21.0895 N   0  0  0  0  0  0  0  0  0  0  0  0
   10.3070  -16.6531   22.0404 C   0  0  0  0  0  0  0  0  0  0  0  0
   11.2765  -15.8495   22.2615 O   0  0  0  0  0  0  0  0  0  0  0  0
    9.1676  -16.5197   22.8299 N   0  0  0  0  0  0  0  0  0  0  0  0
    9.0447  -15.4863   23.8935 C   0  0  1  0  0  0  0  0  0  0  0  0
    7.5889  -15.2244   23.9869 C   0  0  0  0  0  0  0  0  0  0  0  0
    7.1265  -14.1023   24.7760 C   0  0  0  0  0  0  0  0  0  0  0  0
    7.3792  -12.7695   24.5268 C   0  0  0  0  0  0  0  0  0  0  0  0
    6.9066  -11.7518   25.2919 C   0  0  0  0  0  0  0  0  0  0  0  0
    6.1293  -11.9993   26.3878 C   0  0  0  0  0  0  0  0  0  0  0  0
    5.8454  -13.3316   26.6818 C   0  0  0  0  0  0  0  0  0  0  0  0
    6.3314  -14.3506   25.8964 C   0  0  0  0  0  0  0  0  0  0  0  0
    9.6705  -16.0782   25.0980 C   0  0  0  0  0  0  0  0  0  0  0  0
   10.5474  -17.0099   25.0250 O   0  0  0  0  0  0  0  0  0  0  0  0
   11.1862  -14.7932   29.6282 C   0  0  0  0  0  0  0  0  0  0  0  0
   10.1626  -14.6803   28.5349 C   0  0  1  0  0  0  0  0  0  0  0  0
   10.2973  -13.3087   27.9126 C   0  0  0  0  0  0  0  0  0  0  0  0
   10.3335  -15.8023   27.5243 C   0  0  2  0  0  0  0  0  0  0  0  0
    9.3816  -15.6863   26.4407 N   0  0  0  0  0  0  0  0  0  0  0  0
   10.4164  -17.1235   28.1413 C   0  0  0  0  0  0  0  0  0  0  0  0
   11.6406  -17.6281   28.5889 O   0  0  0  0  0  0  0  0  0  0  0  0
    9.4157  -17.8627   28.2998 O   0  0  0  0  0  0  0  0  0  0  0  0
  2  1  1  0
  3  2  2  0
  4  2  1  0
  5  4  1  0
  5  6  1  0
  6  8  1  0
  6  7  1  6
  8  9  2  0
 10 11  1  0
 10  8  1  0
 11 12  1  1
 13 12  1  0
 14 13  2  0
 15 14  1  0
 16 17  1  0
 16 15  2  0
 17 18  2  0
 18 13  1  0
 19 11  1  0
 20 19  2  0
 22 21  1  1
 23 22  1  0
 24 22  1  0
 24 25  1  6
 25 19  1  0
 26 27  1  0
 26 24  1  0
 28 26  2  0
M  END
$$$$
