QFV.pdb
     RDKit          3D

 28 28  0  0  1  0  0  0  0  0999 V2000
   11.3391  -20.7664   21.4497 N   0  0  0  0  0  0  0  0  0  0  0  0
   11.0335  -20.6453   20.0742 C   0  0  0  0  0  0  0  0  0  0  0  0
   10.9732  -21.6526   19.3365 O   0  0  0  0  0  0  0  0  0  0  0  0
   10.7849  -19.2532   19.5368 C   0  0  0  0  0  0  0  0  0  0  0  0
   10.8318  -18.3084   20.6962 C   0  0  0  0  0  0  0  0  0  0  0  0
    9.8246  -17.2252   20.6486 C   0  0  2  0  0  0  0  0  0  0  0  0
    9.9223  -16.5209   19.3389 N   0  0  0  0  0  0  0  0  0  0  0  0
    9.8145  -16.2144   21.6779 C   0  0  0  0  0  0  0  0  0  0  0  0
   10.7622  -15.3565   21.6923 O   0  0  0  0  0  0  0  0  0  0  0  0
    8.8342  -16.1070   22.6612 N   0  0  0  0  0  0  0  0  0  0  0  0
    8.8968  -15.0942   23.7496 C   0  0  1  0  0  0  0  0  0  0  0  0
    7.5215  -14.5466   23.8234 C   0  0  0  0  0  0  0  0  0  0  0  0
    7.1735  -13.6677   24.9197 C   0  0  0  0  0  0  0  0  0  0  0  0
    6.4907  -14.0214   26.0647 C   0  0  0  0  0  0  0  0  0  0  0  0
    6.2030  -13.1588   27.0734 C   0  0  0  0  0  0  0  0  0  0  0  0
    6.5860  -11.8490   27.0083 C   0  0  0  0  0  0  0  0  0  0  0  0
    7.2795  -11.4422   25.8701 C   0  0  0  0  0  0  0  0  0  0  0  0
    7.5634  -12.3285   24.8575 C   0  0  0  0  0  0  0  0  0  0  0  0
    9.3628  -15.8268   24.9490 C   0  0  0  0  0  0  0  0  0  0  0  0
    8.9211  -16.9906   25.2538 O   0  0  0  0  0  0  0  0  0  0  0  0
   12.8994  -16.6886   28.2838 C   0  0  0  0  0  0  0  0  0  0  0  0
   12.3317  -15.7928   27.2202 C   0  0  1  0  0  0  0  0  0  0  0  0
   13.1979  -15.9287   25.9881 C   0  0  0  0  0  0  0  0  0  0  0  0
   10.8752  -16.1350   26.9541 C   0  0  2  0  0  0  0  0  0  0  0  0
   10.3343  -15.3376   25.8746 N   0  0  0  0  0  0  0  0  0  0  0  0
   10.0632  -16.1730   28.1673 C   0  0  0  0  0  0  0  0  0  0  0  0
    9.0410  -15.2422   28.3732 O   0  0  0  0  0  0  0  0  0  0  0  0
   10.2344  -17.0241   29.0724 O   0  0  0  0  0  0  0  0  0  0  0  0
  2  1  1  0
  3  2  2  0
  4  2  1  0
  5  4  1  0
  5  6  1  0
  6  8  1  0
  6  7  1  6
  8  9  2  0
 10 11  1  0
 10  8  1  0
 11 12  1  1
 13 12  1  0
 14 13  2  0
 15 14  1  0
 16 17  1  0
 16 15  2  0
 17 18  2  0
 18 13  1  0
 19 11  1  0
 20 19  2  0
 22 21  1  1
 23 22  1  0
 24 22  1  0
 24 25  1  6
 25 19  1  0
 26 27  1  0
 26 24  1  0
 28 26  2  0
M  END
$$$$
