QFV.pdb
     RDKit          3D

 28 28  0  0  1  0  0  0  0  0999 V2000
   13.0802  -16.8935   17.6238 N   0  0  0  0  0  0  0  0  0  0  0  0
   12.0115  -17.7909   17.3940 C   0  0  0  0  0  0  0  0  0  0  0  0
   11.9249  -18.4286   16.3224 O   0  0  0  0  0  0  0  0  0  0  0  0
   10.9837  -17.9446   18.4932 C   0  0  0  0  0  0  0  0  0  0  0  0
   11.3916  -17.0475   19.6192 C   0  0  0  0  0  0  0  0  0  0  0  0
   10.8720  -17.4492   20.9454 C   0  0  2  0  0  0  0  0  0  0  0  0
    9.6440  -18.2736   20.7625 N   0  0  0  0  0  0  0  0  0  0  0  0
   10.5659  -16.4382   21.9280 C   0  0  0  0  0  0  0  0  0  0  0  0
   11.3887  -15.4711   22.0771 O   0  0  0  0  0  0  0  0  0  0  0  0
    9.4259  -16.4425   22.7278 N   0  0  0  0  0  0  0  0  0  0  0  0
    9.1472  -15.3818   23.7336 C   0  0  1  0  0  0  0  0  0  0  0  0
    7.7005  -15.0988   23.5798 C   0  0  0  0  0  0  0  0  0  0  0  0
    7.0761  -14.1348   24.4609 C   0  0  0  0  0  0  0  0  0  0  0  0
    7.3721  -12.7900   24.5410 C   0  0  0  0  0  0  0  0  0  0  0  0
    6.7431  -11.9233   25.3762 C   0  0  0  0  0  0  0  0  0  0  0  0
    5.7496  -12.3488   26.2119 C   0  0  0  0  0  0  0  0  0  0  0  0
    5.4136  -13.7005   26.1683 C   0  0  0  0  0  0  0  0  0  0  0  0
    6.0600  -14.5652   25.3162 C   0  0  0  0  0  0  0  0  0  0  0  0
    9.5562  -15.9519   25.0375 C   0  0  0  0  0  0  0  0  0  0  0  0
   10.0666  -17.1228   25.1418 O   0  0  0  0  0  0  0  0  0  0  0  0
   10.7804  -15.1243   29.8056 C   0  0  0  0  0  0  0  0  0  0  0  0
    9.9353  -14.7299   28.6283 C   0  0  1  0  0  0  0  0  0  0  0  0
   10.3430  -13.3348   28.2108 C   0  0  0  0  0  0  0  0  0  0  0  0
   10.0768  -15.7434   27.5049 C   0  0  2  0  0  0  0  0  0  0  0  0
    9.4379  -15.2799   26.2922 N   0  0  0  0  0  0  0  0  0  0  0  0
    9.7304  -17.1029   27.9106 C   0  0  0  0  0  0  0  0  0  0  0  0
   10.7119  -17.9822   28.3767 O   0  0  0  0  0  0  0  0  0  0  0  0
    8.5586  -17.5474   27.8639 O   0  0  0  0  0  0  0  0  0  0  0  0
  2  1  1  0
  3  2  2  0
  4  2  1  0
  5  4  1  0
  5  6  1  0
  6  8  1  0
  6  7  1  6
  8  9  2  0
 10 11  1  0
 10  8  1  0
 11 12  1  1
 13 12  1  0
 14 13  2  0
 15 14  1  0
 16 17  1  0
 16 15  2  0
 17 18  2  0
 18 13  1  0
 19 11  1  0
 20 19  2  0
 22 21  1  1
 23 22  1  0
 24 22  1  0
 24 25  1  6
 25 19  1  0
 26 27  1  0
 26 24  1  0
 28 26  2  0
M  END
$$$$
