QFV.pdb
     RDKit          3D

 28 28  0  0  1  0  0  0  0  0999 V2000
    8.4705  -12.4265   16.8340 N   0  0  0  0  0  0  0  0  0  0  0  0
    7.7295  -13.5614   16.4300 C   0  0  0  0  0  0  0  0  0  0  0  0
    7.0500  -13.5471   15.3810 O   0  0  0  0  0  0  0  0  0  0  0  0
    7.7936  -14.7855   17.3165 C   0  0  0  0  0  0  0  0  0  0  0  0
    8.6629  -14.4486   18.4868 C   0  0  0  0  0  0  0  0  0  0  0  0
    8.8077  -15.5367   19.4793 C   0  0  2  0  0  0  0  0  0  0  0  0
    7.5697  -16.3665   19.4825 N   0  0  0  0  0  0  0  0  0  0  0  0
    9.1097  -15.2142   20.8527 C   0  0  0  0  0  0  0  0  0  0  0  0
   10.2549  -14.7113   21.1180 O   0  0  0  0  0  0  0  0  0  0  0  0
    8.2317  -15.4116   21.9154 N   0  0  0  0  0  0  0  0  0  0  0  0
    8.5213  -14.9350   23.2950 C   0  0  1  0  0  0  0  0  0  0  0  0
    7.2454  -14.3367   23.7540 C   0  0  0  0  0  0  0  0  0  0  0  0
    7.1724  -13.7751   25.0862 C   0  0  0  0  0  0  0  0  0  0  0  0
    6.5556  -14.3455   26.1802 C   0  0  0  0  0  0  0  0  0  0  0  0
    6.5299  -13.7824   27.4157 C   0  0  0  0  0  0  0  0  0  0  0  0
    7.1329  -12.5795   27.6522 C   0  0  0  0  0  0  0  0  0  0  0  0
    7.7703  -11.9624   26.5775 C   0  0  0  0  0  0  0  0  0  0  0  0
    7.7877  -12.5463   25.3324 C   0  0  0  0  0  0  0  0  0  0  0  0
    8.9772  -16.1297   24.0416 C   0  0  0  0  0  0  0  0  0  0  0  0
    8.4157  -17.2740   23.9092 O   0  0  0  0  0  0  0  0  0  0  0  0
   12.3441  -18.9815   25.9578 C   0  0  0  0  0  0  0  0  0  0  0  0
   11.9177  -17.7266   25.2511 C   0  0  1  0  0  0  0  0  0  0  0  0
   12.0548  -17.9621   23.7637 C   0  0  0  0  0  0  0  0  0  0  0  0
   10.5055  -17.3384   25.6560 C   0  0  2  0  0  0  0  0  0  0  0  0
   10.0672  -16.1453   24.9644 N   0  0  0  0  0  0  0  0  0  0  0  0
   10.3047  -17.3286   27.1025 C   0  0  0  0  0  0  0  0  0  0  0  0
   10.0293  -18.5116   27.7943 O   0  0  0  0  0  0  0  0  0  0  0  0
   10.3662  -16.2811   27.7894 O   0  0  0  0  0  0  0  0  0  0  0  0
  2  1  1  0
  3  2  2  0
  4  2  1  0
  5  4  1  0
  5  6  1  0
  6  8  1  0
  6  7  1  1
  8  9  2  0
 10 11  1  0
 10  8  1  0
 11 12  1  1
 13 12  1  0
 14 13  2  0
 15 14  1  0
 16 17  1  0
 16 15  2  0
 17 18  2  0
 18 13  1  0
 19 11  1  0
 20 19  2  0
 22 21  1  1
 23 22  1  0
 24 22  1  0
 24 25  1  1
 25 19  1  0
 26 27  1  0
 26 24  1  0
 28 26  2  0
M  END
$$$$
