WYT.pdb
     RDKit          3D

 34 36  0  0  1  0  0  0  0  0999 V2000
    5.7550  -17.8575   23.6927 N   0  0  0  0  0  0  0  0  0  0  0  0
    6.6126  -16.7127   23.9242 C   0  0  1  0  0  0  0  0  0  0  0  0
    6.8970  -16.5521   25.4025 C   0  0  0  0  0  0  0  0  0  0  0  0
    6.3634  -15.2660   25.9194 C   0  0  0  0  0  0  0  0  0  0  0  0
    5.0427  -14.9752   26.2652 C   0  0  0  0  0  0  0  0  0  0  0  0
    4.9651  -13.7039   26.6896 N   0  0  0  0  0  0  0  0  0  0  0  0
    6.1791  -13.1210   26.6457 C   0  0  0  0  0  0  0  0  0  0  0  0
    6.5880  -11.8448   26.9791 C   0  0  0  0  0  0  0  0  0  0  0  0
    7.9209  -11.5218   26.8291 C   0  0  0  0  0  0  0  0  0  0  0  0
    8.8011  -12.4740   26.3544 C   0  0  0  0  0  0  0  0  0  0  0  0
    8.3743  -13.7440   26.0264 C   0  0  0  0  0  0  0  0  0  0  0  0
    7.0503  -14.0881   26.1678 C   0  0  0  0  0  0  0  0  0  0  0  0
    7.8517  -16.7767   23.1240 C   0  0  0  0  0  0  0  0  0  0  0  0
    8.2906  -17.9161   22.7984 O   0  0  0  0  0  0  0  0  0  0  0  0
    6.6242  -13.7310   16.8880 O   0  0  0  0  0  0  0  0  0  0  0  0
    7.4949  -13.9176   17.9564 C   0  0  0  0  0  0  0  0  0  0  0  0
    8.3213  -15.0209   18.0037 C   0  0  0  0  0  0  0  0  0  0  0  0
    9.1868  -15.1970   19.0755 C   0  0  0  0  0  0  0  0  0  0  0  0
    9.2588  -14.2952   20.1213 C   0  0  0  0  0  0  0  0  0  0  0  0
   10.1953  -14.5482   21.2163 C   0  0  0  0  0  0  0  0  0  0  0  0
    9.8505  -15.7572   22.0491 C   0  0  2  0  0  0  0  0  0  0  0  0
    8.5790  -15.6489   22.6984 N   0  0  0  0  0  0  0  0  0  0  0  0
   10.9629  -15.9662   23.0142 C   0  0  0  0  0  0  0  0  0  0  0  0
   11.9998  -15.2561   22.9682 O   0  0  0  0  0  0  0  0  0  0  0  0
    8.4430  -13.2049   20.0758 C   0  0  0  0  0  0  0  0  0  0  0  0
    7.5727  -13.0209   19.0053 C   0  0  0  0  0  0  0  0  0  0  0  0
   10.9681  -15.8300   26.7310 C   0  0  0  0  0  0  0  0  0  0  0  0
   11.4886  -17.2157   26.4040 C   0  0  1  0  0  0  0  0  0  0  0  0
   10.3888  -18.0730   26.4220 O   0  0  0  0  0  0  0  0  0  0  0  0
   11.9930  -17.1732   24.9797 C   0  0  2  0  0  0  0  0  0  0  0  0
   10.9202  -16.9657   24.0304 N   0  0  0  0  0  0  0  0  0  0  0  0
   12.8250  -18.3411   24.6431 C   0  0  0  0  0  0  0  0  0  0  0  0
   13.9490  -18.6252   25.3770 O   0  0  0  0  0  0  0  0  0  0  0  0
   12.5047  -19.0721   23.6879 O   0  0  0  0  0  0  0  0  0  0  0  0
  2  1  1  1
  2  3  1  0
  3  4  1  0
  4  5  2  0
  6  5  1  0
  7  6  1  0
  8  7  2  0
  9  8  1  0
 10  9  2  0
 10 11  1  0
 11 12  2  0
 12  7  1  0
 12  4  1  0
 13  2  1  0
 13 14  2  0
 15 16  1  0
 16 26  2  0
 16 17  1  0
 17 18  2  0
 18 19  1  0
 19 20  1  0
 21 20  1  1
 22 21  1  0
 22 13  1  0
 23 21  1  0
 24 23  2  0
 25 19  2  0
 26 25  1  0
 28 27  1  6
 28 30  1  0
 29 28  1  0
 30 32  1  0
 30 31  1  6
 31 23  1  0
 32 33  1  0
 34 32  2  0
M  END
$$$$
