WYT.pdb
     RDKit          3D

 34 36  0  0  1  0  0  0  0  0999 V2000
    6.2874  -18.2698   21.3354 N   0  0  0  0  0  0  0  0  0  0  0  0
    6.9233  -17.1872   22.0585 C   0  0  1  0  0  0  0  0  0  0  0  0
    6.0922  -15.9252   21.9650 C   0  0  0  0  0  0  0  0  0  0  0  0
    6.8521  -14.7407   22.4401 C   0  0  0  0  0  0  0  0  0  0  0  0
    7.7532  -13.9642   21.7097 C   0  0  0  0  0  0  0  0  0  0  0  0
    8.2312  -12.9847   22.4935 N   0  0  0  0  0  0  0  0  0  0  0  0
    7.6910  -13.0653   23.7252 C   0  0  0  0  0  0  0  0  0  0  0  0
    7.8748  -12.2882   24.8519 C   0  0  0  0  0  0  0  0  0  0  0  0
    7.1741  -12.6126   25.9952 C   0  0  0  0  0  0  0  0  0  0  0  0
    6.3166  -13.6947   25.9821 C   0  0  0  0  0  0  0  0  0  0  0  0
    6.1457  -14.4597   24.8471 C   0  0  0  0  0  0  0  0  0  0  0  0
    6.8338  -14.1548   23.6961 C   0  0  0  0  0  0  0  0  0  0  0  0
    7.2210  -17.5536   23.4575 C   0  0  0  0  0  0  0  0  0  0  0  0
    6.4391  -18.3572   24.0405 O   0  0  0  0  0  0  0  0  0  0  0  0
    5.3482  -23.0053   26.5820 O   0  0  0  0  0  0  0  0  0  0  0  0
    6.2768  -22.0093   26.2989 C   0  0  0  0  0  0  0  0  0  0  0  0
    7.5803  -22.1206   26.7360 C   0  0  0  0  0  0  0  0  0  0  0  0
    8.4991  -21.1199   26.4475 C   0  0  0  0  0  0  0  0  0  0  0  0
    8.1579  -19.9911   25.7251 C   0  0  0  0  0  0  0  0  0  0  0  0
    9.1807  -18.9791   25.4606 C   0  0  0  0  0  0  0  0  0  0  0  0
    8.6616  -17.5635   25.4860 C   0  0  2  0  0  0  0  0  0  0  0  0
    8.3216  -17.0657   24.1873 N   0  0  0  0  0  0  0  0  0  0  0  0
    9.6861  -16.7245   26.1634 C   0  0  0  0  0  0  0  0  0  0  0  0
   10.8414  -16.6017   25.6819 O   0  0  0  0  0  0  0  0  0  0  0  0
    6.8707  -19.8800   25.2929 C   0  0  0  0  0  0  0  0  0  0  0  0
    5.9436  -20.8784   25.5777 C   0  0  0  0  0  0  0  0  0  0  0  0
    9.5393  -13.0931   27.5113 C   0  0  0  0  0  0  0  0  0  0  0  0
    9.8920  -13.9955   28.6773 C   0  0  1  0  0  0  0  0  0  0  0  0
    8.6938  -14.3148   29.3153 O   0  0  0  0  0  0  0  0  0  0  0  0
   10.4377  -15.2785   28.0933 C   0  0  2  0  0  0  0  0  0  0  0  0
    9.4240  -16.0224   27.3765 N   0  0  0  0  0  0  0  0  0  0  0  0
   11.1356  -16.1004   29.0968 C   0  0  0  0  0  0  0  0  0  0  0  0
   12.1501  -15.5627   29.8481 O   0  0  0  0  0  0  0  0  0  0  0  0
   10.8014  -17.2880   29.2620 O   0  0  0  0  0  0  0  0  0  0  0  0
  2  1  1  1
  2  3  1  0
  3  4  1  0
  4  5  2  0
  6  5  1  0
  7  6  1  0
  8  7  2  0
  9  8  1  0
 10  9  2  0
 10 11  1  0
 11 12  2  0
 12  7  1  0
 12  4  1  0
 13  2  1  0
 13 14  2  0
 15 16  1  0
 16 26  2  0
 16 17  1  0
 17 18  2  0
 18 19  1  0
 19 20  1  0
 21 20  1  6
 22 21  1  0
 22 13  1  0
 23 21  1  0
 24 23  2  0
 25 19  2  0
 26 25  1  0
 28 27  1  6
 28 30  1  0
 29 28  1  0
 30 32  1  0
 30 31  1  1
 31 23  1  0
 32 33  1  0
 34 32  2  0
M  END
$$$$
