WYT.pdb
     RDKit          3D

 34 36  0  0  1  0  0  0  0  0999 V2000
    5.9230  -18.1742   23.8198 N   0  0  0  0  0  0  0  0  0  0  0  0
    6.6391  -16.9204   23.9414 C   0  0  1  0  0  0  0  0  0  0  0  0
    6.9547  -16.6273   25.3928 C   0  0  0  0  0  0  0  0  0  0  0  0
    6.3744  -15.3287   25.8209 C   0  0  0  0  0  0  0  0  0  0  0  0
    5.0286  -15.0368   26.0488 C   0  0  0  0  0  0  0  0  0  0  0  0
    4.9106  -13.7526   26.4221 N   0  0  0  0  0  0  0  0  0  0  0  0
    6.1212  -13.1621   26.4565 C   0  0  0  0  0  0  0  0  0  0  0  0
    6.4954  -11.8723   26.7781 C   0  0  0  0  0  0  0  0  0  0  0  0
    7.8344  -11.5442   26.7252 C   0  0  0  0  0  0  0  0  0  0  0  0
    8.7549  -12.5048   26.3558 C   0  0  0  0  0  0  0  0  0  0  0  0
    8.3625  -13.7884   26.0378 C   0  0  0  0  0  0  0  0  0  0  0  0
    7.0331  -14.1378   26.0837 C   0  0  0  0  0  0  0  0  0  0  0  0
    7.8469  -16.8864   23.0927 C   0  0  0  0  0  0  0  0  0  0  0  0
    8.3569  -17.9877   22.7406 O   0  0  0  0  0  0  0  0  0  0  0  0
    6.6646  -13.3960   16.7575 O   0  0  0  0  0  0  0  0  0  0  0  0
    7.4893  -13.6596   17.8461 C   0  0  0  0  0  0  0  0  0  0  0  0
    7.4462  -12.8596   18.9690 C   0  0  0  0  0  0  0  0  0  0  0  0
    8.2743  -13.1323   20.0500 C   0  0  0  0  0  0  0  0  0  0  0  0
    9.1604  -14.1939   20.0512 C   0  0  0  0  0  0  0  0  0  0  0  0
   10.0012  -14.4181   21.2272 C   0  0  0  0  0  0  0  0  0  0  0  0
    9.7167  -15.7136   21.9447 C   0  0  2  0  0  0  0  0  0  0  0  0
    8.4699  -15.7047   22.6484 N   0  0  0  0  0  0  0  0  0  0  0  0
   10.8708  -15.9899   22.8414 C   0  0  0  0  0  0  0  0  0  0  0  0
   11.6896  -15.0827   23.1383 O   0  0  0  0  0  0  0  0  0  0  0  0
    9.2040  -14.9847   18.9427 C   0  0  0  0  0  0  0  0  0  0  0  0
    8.3774  -14.7185   17.8549 C   0  0  0  0  0  0  0  0  0  0  0  0
   11.4229  -16.7143   26.2795 C   0  0  0  0  0  0  0  0  0  0  0  0
   11.9554  -17.9641   25.6067 C   0  0  1  0  0  0  0  0  0  0  0  0
   10.8976  -18.8711   25.5484 O   0  0  0  0  0  0  0  0  0  0  0  0
   12.2947  -17.5883   24.1824 C   0  0  2  0  0  0  0  0  0  0  0  0
   11.1127  -17.2761   23.4075 N   0  0  0  0  0  0  0  0  0  0  0  0
   13.1504  -18.5911   23.5254 C   0  0  0  0  0  0  0  0  0  0  0  0
   14.3920  -18.8811   24.0325 O   0  0  0  0  0  0  0  0  0  0  0  0
   12.7428  -19.1768   22.5054 O   0  0  0  0  0  0  0  0  0  0  0  0
  2  1  1  1
  2  3  1  0
  3  4  1  0
  4  5  2  0
  6  5  1  0
  7  6  1  0
  8  7  2  0
  9  8  1  0
 10  9  2  0
 10 11  1  0
 11 12  2  0
 12  7  1  0
 12  4  1  0
 13  2  1  0
 13 14  2  0
 15 16  1  0
 16 26  2  0
 16 17  1  0
 17 18  2  0
 18 19  1  0
 19 20  1  0
 21 20  1  1
 22 21  1  0
 22 13  1  0
 23 21  1  0
 24 23  2  0
 25 19  2  0
 26 25  1  0
 28 27  1  1
 28 30  1  0
 29 28  1  0
 30 32  1  0
 30 31  1  6
 31 23  1  0
 32 33  1  0
 34 32  2  0
M  END
$$$$
