WYT.pdb
     RDKit          3D

 34 36  0  0  1  0  0  0  0  0999 V2000
    6.5245  -18.9072   25.7247 N   0  0  0  0  0  0  0  0  0  0  0  0
    6.9213  -17.5200   25.5920 C   0  0  1  0  0  0  0  0  0  0  0  0
    8.0981  -17.2152   26.4944 C   0  0  0  0  0  0  0  0  0  0  0  0
    7.7943  -16.0933   27.4192 C   0  0  0  0  0  0  0  0  0  0  0  0
    7.2251  -16.1749   28.6911 C   0  0  0  0  0  0  0  0  0  0  0  0
    7.1119  -14.9404   29.2062 N   0  0  0  0  0  0  0  0  0  0  0  0
    7.5809  -14.0252   28.3356 C   0  0  0  0  0  0  0  0  0  0  0  0
    7.6704  -12.6498   28.4216 C   0  0  0  0  0  0  0  0  0  0  0  0
    8.2058  -11.9583   27.3546 C   0  0  0  0  0  0  0  0  0  0  0  0
    8.6334  -12.6532   26.2407 C   0  0  0  0  0  0  0  0  0  0  0  0
    8.5360  -14.0274   26.1726 C   0  0  0  0  0  0  0  0  0  0  0  0
    8.0057  -14.7374   27.2243 C   0  0  0  0  0  0  0  0  0  0  0  0
    7.1884  -17.1510   24.1875 C   0  0  0  0  0  0  0  0  0  0  0  0
    7.5681  -18.0601   23.3962 O   0  0  0  0  0  0  0  0  0  0  0  0
    8.0266  -13.0453   16.4423 O   0  0  0  0  0  0  0  0  0  0  0  0
    7.7720  -13.3061   17.7846 C   0  0  0  0  0  0  0  0  0  0  0  0
    6.8826  -14.2947   18.1509 C   0  0  0  0  0  0  0  0  0  0  0  0
    6.6362  -14.5464   19.4943 C   0  0  0  0  0  0  0  0  0  0  0  0
    7.2566  -13.8340   20.5042 C   0  0  0  0  0  0  0  0  0  0  0  0
    6.9460  -14.1561   21.8970 C   0  0  0  0  0  0  0  0  0  0  0  0
    7.4535  -15.5051   22.3407 C   0  0  2  0  0  0  0  0  0  0  0  0
    7.0475  -15.8494   23.6698 N   0  0  0  0  0  0  0  0  0  0  0  0
    8.9327  -15.4989   22.1845 C   0  0  0  0  0  0  0  0  0  0  0  0
    9.6570  -14.7835   22.9228 O   0  0  0  0  0  0  0  0  0  0  0  0
    8.1352  -12.8572   20.1437 C   0  0  0  0  0  0  0  0  0  0  0  0
    8.3879  -12.5986   18.7996 C   0  0  0  0  0  0  0  0  0  0  0  0
   11.4803  -18.1308   22.6875 C   0  0  0  0  0  0  0  0  0  0  0  0
   11.5704  -17.7578   21.2209 C   0  0  1  0  0  0  0  0  0  0  0  0
   10.6801  -18.5873   20.5396 O   0  0  0  0  0  0  0  0  0  0  0  0
   11.0466  -16.3458   21.0914 C   0  0  2  0  0  0  0  0  0  0  0  0
    9.6049  -16.2894   21.2064 N   0  0  0  0  0  0  0  0  0  0  0  0
   11.5418  -15.6717   19.8790 C   0  0  0  0  0  0  0  0  0  0  0  0
   12.8859  -15.4567   19.7062 O   0  0  0  0  0  0  0  0  0  0  0  0
   10.7350  -15.2964   19.0087 O   0  0  0  0  0  0  0  0  0  0  0  0
  2  1  1  6
  2  3  1  0
  3  4  1  0
  4  5  2  0
  6  5  1  0
  7  6  1  0
  8  7  2  0
  9  8  1  0
 10  9  2  0
 10 11  1  0
 11 12  2  0
 12  7  1  0
 12  4  1  0
 13  2  1  0
 13 14  2  0
 15 16  1  0
 16 26  2  0
 16 17  1  0
 17 18  2  0
 18 19  1  0
 19 20  1  0
 21 20  1  1
 22 21  1  0
 22 13  1  0
 23 21  1  0
 24 23  2  0
 25 19  2  0
 26 25  1  0
 28 27  1  1
 28 30  1  0
 29 28  1  0
 30 32  1  0
 30 31  1  6
 31 23  1  0
 32 33  1  0
 34 32  2  0
M  END
$$$$
