WYT.pdb
     RDKit          3D

 34 36  0  0  1  0  0  0  0  0999 V2000
    7.0050  -19.1035   25.8674 N   0  0  0  0  0  0  0  0  0  0  0  0
    6.9474  -17.6806   25.6002 C   0  0  1  0  0  0  0  0  0  0  0  0
    7.6392  -16.9047   26.7009 C   0  0  0  0  0  0  0  0  0  0  0  0
    7.1645  -15.4982   26.7518 C   0  0  0  0  0  0  0  0  0  0  0  0
    5.8516  -15.0425   26.6216 C   0  0  0  0  0  0  0  0  0  0  0  0
    5.8347  -13.7041   26.7243 N   0  0  0  0  0  0  0  0  0  0  0  0
    7.0822  -13.2338   26.9188 C   0  0  0  0  0  0  0  0  0  0  0  0
    7.5543  -11.9459   27.0795 C   0  0  0  0  0  0  0  0  0  0  0  0
    8.9087  -11.7611   27.2654 C   0  0  0  0  0  0  0  0  0  0  0  0
    9.7473  -12.8579   27.2855 C   0  0  0  0  0  0  0  0  0  0  0  0
    9.2578  -14.1372   27.1231 C   0  0  0  0  0  0  0  0  0  0  0  0
    7.9112  -14.3452   26.9364 C   0  0  0  0  0  0  0  0  0  0  0  0
    7.4802  -17.3445   24.2648 C   0  0  0  0  0  0  0  0  0  0  0  0
    8.3935  -18.0763   23.7880 O   0  0  0  0  0  0  0  0  0  0  0  0
    8.8780  -13.3568   16.4180 O   0  0  0  0  0  0  0  0  0  0  0  0
    8.4613  -13.6785   17.7054 C   0  0  0  0  0  0  0  0  0  0  0  0
    7.5249  -12.9011   18.3546 C   0  0  0  0  0  0  0  0  0  0  0  0
    7.1162  -13.2318   19.6401 C   0  0  0  0  0  0  0  0  0  0  0  0
    7.6174  -14.3305   20.3138 C   0  0  0  0  0  0  0  0  0  0  0  0
    7.1388  -14.6154   21.6665 C   0  0  0  0  0  0  0  0  0  0  0  0
    7.6346  -15.9242   22.2279 C   0  0  2  0  0  0  0  0  0  0  0  0
    7.0368  -16.2596   23.4849 N   0  0  0  0  0  0  0  0  0  0  0  0
    9.1175  -15.8411   22.3107 C   0  0  0  0  0  0  0  0  0  0  0  0
    9.6764  -14.9874   23.0457 O   0  0  0  0  0  0  0  0  0  0  0  0
    8.5424  -15.0991   19.6736 C   0  0  0  0  0  0  0  0  0  0  0  0
    8.9574  -14.7747   18.3853 C   0  0  0  0  0  0  0  0  0  0  0  0
   11.7420  -18.1498   23.5376 C   0  0  0  0  0  0  0  0  0  0  0  0
   12.0275  -17.9665   22.0601 C   0  0  1  0  0  0  0  0  0  0  0  0
   11.3203  -18.9626   21.3873 O   0  0  0  0  0  0  0  0  0  0  0  0
   11.4212  -16.6427   21.6541 C   0  0  2  0  0  0  0  0  0  0  0  0
    9.9774  -16.7088   21.5752 N   0  0  0  0  0  0  0  0  0  0  0  0
   12.0281  -16.0994   20.4269 C   0  0  0  0  0  0  0  0  0  0  0  0
   13.3681  -15.8065   20.3881 O   0  0  0  0  0  0  0  0  0  0  0  0
   11.3199  -15.9061   19.4217 O   0  0  0  0  0  0  0  0  0  0  0  0
  2  1  1  1
  2  3  1  0
  3  4  1  0
  4  5  2  0
  6  5  1  0
  7  6  1  0
  8  7  2  0
  9  8  1  0
 10  9  2  0
 10 11  1  0
 11 12  2  0
 12  7  1  0
 12  4  1  0
 13  2  1  0
 13 14  2  0
 15 16  1  0
 16 26  2  0
 16 17  1  0
 17 18  2  0
 18 19  1  0
 19 20  1  0
 21 20  1  1
 22 21  1  0
 22 13  1  0
 23 21  1  0
 24 23  2  0
 25 19  2  0
 26 25  1  0
 28 27  1  1
 28 30  1  0
 29 28  1  0
 30 32  1  0
 30 31  1  6
 31 23  1  0
 32 33  1  0
 34 32  2  0
M  END
$$$$
