WYT.pdb
     RDKit          3D

 34 36  0  0  1  0  0  0  0  0999 V2000
    6.9436  -19.2815   25.5793 N   0  0  0  0  0  0  0  0  0  0  0  0
    6.9144  -17.8385   25.4515 C   0  0  1  0  0  0  0  0  0  0  0  0
    7.6653  -17.1884   26.5942 C   0  0  0  0  0  0  0  0  0  0  0  0
    7.3140  -15.7511   26.7240 C   0  0  0  0  0  0  0  0  0  0  0  0
    6.0677  -15.1612   26.5068 C   0  0  0  0  0  0  0  0  0  0  0  0
    6.1581  -13.8400   26.7270 N   0  0  0  0  0  0  0  0  0  0  0  0
    7.4146  -13.5101   27.0846 C   0  0  0  0  0  0  0  0  0  0  0  0
    7.9787  -12.2912   27.4058 C   0  0  0  0  0  0  0  0  0  0  0  0
    9.3167  -12.2541   27.7398 C   0  0  0  0  0  0  0  0  0  0  0  0
   10.0484  -13.4251   27.7438 C   0  0  0  0  0  0  0  0  0  0  0  0
    9.4678  -14.6337   27.4200 C   0  0  0  0  0  0  0  0  0  0  0  0
    8.1356  -14.6945   27.0839 C   0  0  0  0  0  0  0  0  0  0  0  0
    7.4080  -17.3877   24.1349 C   0  0  0  0  0  0  0  0  0  0  0  0
    8.1680  -18.1629   23.4881 O   0  0  0  0  0  0  0  0  0  0  0  0
    9.0463  -12.6850   16.7916 O   0  0  0  0  0  0  0  0  0  0  0  0
    8.5447  -13.1250   18.0120 C   0  0  0  0  0  0  0  0  0  0  0  0
    8.9060  -12.4979   19.1862 C   0  0  0  0  0  0  0  0  0  0  0  0
    8.3989  -12.9458   20.3991 C   0  0  0  0  0  0  0  0  0  0  0  0
    7.5282  -14.0168   20.4843 C   0  0  0  0  0  0  0  0  0  0  0  0
    7.0360  -14.4313   21.7981 C   0  0  0  0  0  0  0  0  0  0  0  0
    7.6014  -15.7448   22.2766 C   0  0  2  0  0  0  0  0  0  0  0  0
    7.0871  -16.1478   23.5506 N   0  0  0  0  0  0  0  0  0  0  0  0
    9.0834  -15.6185   22.2787 C   0  0  0  0  0  0  0  0  0  0  0  0
    9.6673  -14.8789   23.1117 O   0  0  0  0  0  0  0  0  0  0  0  0
    7.1706  -14.6370   19.3251 C   0  0  0  0  0  0  0  0  0  0  0  0
    7.6742  -14.1944   18.1054 C   0  0  0  0  0  0  0  0  0  0  0  0
   11.7115  -17.8898   23.1355 C   0  0  0  0  0  0  0  0  0  0  0  0
   11.9907  -17.5831   21.6773 C   0  0  1  0  0  0  0  0  0  0  0  0
   11.2998  -18.5342   20.9270 O   0  0  0  0  0  0  0  0  0  0  0  0
   11.3602  -16.2419   21.3797 C   0  0  2  0  0  0  0  0  0  0  0  0
    9.9149  -16.3157   21.3537 N   0  0  0  0  0  0  0  0  0  0  0  0
   11.9143  -15.6175   20.1662 C   0  0  0  0  0  0  0  0  0  0  0  0
   13.2516  -15.3203   20.0892 O   0  0  0  0  0  0  0  0  0  0  0  0
   11.1636  -15.3592   19.2075 O   0  0  0  0  0  0  0  0  0  0  0  0
  2  1  1  6
  2  3  1  0
  3  4  1  0
  4  5  2  0
  6  5  1  0
  7  6  1  0
  8  7  2  0
  9  8  1  0
 10  9  2  0
 10 11  1  0
 11 12  2  0
 12  7  1  0
 12  4  1  0
 13  2  1  0
 13 14  2  0
 15 16  1  0
 16 26  2  0
 16 17  1  0
 17 18  2  0
 18 19  1  0
 19 20  1  0
 21 20  1  1
 22 21  1  0
 22 13  1  0
 23 21  1  0
 24 23  2  0
 25 19  2  0
 26 25  1  0
 28 27  1  1
 28 30  1  0
 29 28  1  0
 30 32  1  0
 30 31  1  6
 31 23  1  0
 32 33  1  0
 34 32  2  0
M  END
$$$$
