WYT.pdb
     RDKit          3D

 34 36  0  0  1  0  0  0  0  0999 V2000
    8.1800  -17.0233   24.6818 N   0  0  0  0  0  0  0  0  0  0  0  0
    9.2965  -16.1068   24.5675 C   0  0  1  0  0  0  0  0  0  0  0  0
    9.2531  -15.0755   25.6750 C   0  0  0  0  0  0  0  0  0  0  0  0
    7.8583  -14.6615   25.9741 C   0  0  0  0  0  0  0  0  0  0  0  0
    6.7613  -15.4913   26.2113 C   0  0  0  0  0  0  0  0  0  0  0  0
    5.6759  -14.7359   26.4427 N   0  0  0  0  0  0  0  0  0  0  0  0
    5.9922  -13.4281   26.3721 C   0  0  0  0  0  0  0  0  0  0  0  0
    5.2197  -12.2951   26.5358 C   0  0  0  0  0  0  0  0  0  0  0  0
    5.8250  -11.0625   26.4036 C   0  0  0  0  0  0  0  0  0  0  0  0
    7.1735  -10.9957   26.1141 C   0  0  0  0  0  0  0  0  0  0  0  0
    7.9293  -12.1383   25.9539 C   0  0  0  0  0  0  0  0  0  0  0  0
    7.3470  -13.3777   26.0812 C   0  0  0  0  0  0  0  0  0  0  0  0
   10.5919  -16.8136   24.5174 C   0  0  0  0  0  0  0  0  0  0  0  0
   11.5612  -16.3242   25.1638 O   0  0  0  0  0  0  0  0  0  0  0  0
   10.2817  -20.1348   29.7353 O   0  0  0  0  0  0  0  0  0  0  0  0
   10.7442  -20.1002   28.4240 C   0  0  0  0  0  0  0  0  0  0  0  0
    9.8892  -20.3526   27.3715 C   0  0  0  0  0  0  0  0  0  0  0  0
   10.3621  -20.3154   26.0662 C   0  0  0  0  0  0  0  0  0  0  0  0
   11.6819  -20.0301   25.7676 C   0  0  0  0  0  0  0  0  0  0  0  0
   12.1066  -20.0093   24.3678 C   0  0  0  0  0  0  0  0  0  0  0  0
   12.1022  -18.6347   23.7476 C   0  0  2  0  0  0  0  0  0  0  0  0
   10.8195  -18.0004   23.7951 N   0  0  0  0  0  0  0  0  0  0  0  0
   12.6155  -18.7704   22.3581 C   0  0  0  0  0  0  0  0  0  0  0  0
   13.6839  -19.3902   22.1221 O   0  0  0  0  0  0  0  0  0  0  0  0
   12.5274  -19.7807   26.8064 C   0  0  0  0  0  0  0  0  0  0  0  0
   12.0616  -19.8160   28.1175 C   0  0  0  0  0  0  0  0  0  0  0  0
   11.9526  -18.4071   17.4968 C   0  0  0  0  0  0  0  0  0  0  0  0
   11.3608  -18.0727   18.8518 C   0  0  1  0  0  0  0  0  0  0  0  0
   10.3515  -19.0049   19.0908 O   0  0  0  0  0  0  0  0  0  0  0  0
   12.4423  -18.3188   19.8789 C   0  0  2  0  0  0  0  0  0  0  0  0
   11.9387  -18.2162   21.2320 N   0  0  0  0  0  0  0  0  0  0  0  0
   13.6313  -17.4787   19.6551 C   0  0  0  0  0  0  0  0  0  0  0  0
   14.4886  -17.7538   18.6197 O   0  0  0  0  0  0  0  0  0  0  0  0
   13.8570  -16.5153   20.4103 O   0  0  0  0  0  0  0  0  0  0  0  0
  2  1  1  1
  2  3  1  0
  3  4  1  0
  4  5  2  0
  6  5  1  0
  7  6  1  0
  8  7  2  0
  9  8  1  0
 10  9  2  0
 10 11  1  0
 11 12  2  0
 12  7  1  0
 12  4  1  0
 13  2  1  0
 13 14  2  0
 15 16  1  0
 16 26  2  0
 16 17  1  0
 17 18  2  0
 18 19  1  0
 19 20  1  0
 21 20  1  6
 22 21  1  0
 22 13  1  0
 23 21  1  0
 24 23  2  0
 25 19  2  0
 26 25  1  0
 28 27  1  6
 28 30  1  0
 29 28  1  0
 30 32  1  0
 30 31  1  1
 31 23  1  0
 32 33  1  0
 34 32  2  0
M  END
$$$$
