WYT.pdb
     RDKit          3D

 34 36  0  0  1  0  0  0  0  0999 V2000
    5.9687  -18.0596   24.1836 N   0  0  0  0  0  0  0  0  0  0  0  0
    6.7529  -16.8597   24.3948 C   0  0  1  0  0  0  0  0  0  0  0  0
    6.8580  -16.5467   25.8724 C   0  0  0  0  0  0  0  0  0  0  0  0
    6.2772  -15.2162   26.1861 C   0  0  0  0  0  0  0  0  0  0  0  0
    4.9254  -14.8890   26.3042 C   0  0  0  0  0  0  0  0  0  0  0  0
    4.8089  -13.5838   26.5959 N   0  0  0  0  0  0  0  0  0  0  0  0
    6.0264  -13.0128   26.6804 C   0  0  0  0  0  0  0  0  0  0  0  0
    6.4046  -11.7131   26.9542 C   0  0  0  0  0  0  0  0  0  0  0  0
    7.7506  -11.4112   26.9753 C   0  0  0  0  0  0  0  0  0  0  0  0
    8.6739  -12.4068   26.7244 C   0  0  0  0  0  0  0  0  0  0  0  0
    8.2774  -13.6997   26.4526 C   0  0  0  0  0  0  0  0  0  0  0  0
    6.9410  -14.0235   26.4264 C   0  0  0  0  0  0  0  0  0  0  0  0
    8.0781  -16.9418   23.7490 C   0  0  0  0  0  0  0  0  0  0  0  0
    8.6127  -18.0809   23.6324 O   0  0  0  0  0  0  0  0  0  0  0  0
    7.3238  -13.8113   17.4208 O   0  0  0  0  0  0  0  0  0  0  0  0
    8.1274  -14.0570   18.5291 C   0  0  0  0  0  0  0  0  0  0  0  0
    8.1577  -13.1694   19.5845 C   0  0  0  0  0  0  0  0  0  0  0  0
    8.9639  -13.4250   20.6861 C   0  0  0  0  0  0  0  0  0  0  0  0
    9.7558  -14.5553   20.7743 C   0  0  0  0  0  0  0  0  0  0  0  0
   10.5793  -14.7563   21.9666 C   0  0  0  0  0  0  0  0  0  0  0  0
   10.1487  -15.9244   22.8176 C   0  0  2  0  0  0  0  0  0  0  0  0
    8.7878  -15.8318   23.2528 N   0  0  0  0  0  0  0  0  0  0  0  0
   11.1015  -16.0226   23.9556 C   0  0  0  0  0  0  0  0  0  0  0  0
   12.3430  -16.0527   23.7576 O   0  0  0  0  0  0  0  0  0  0  0  0
    9.7268  -15.4327   19.7324 C   0  0  0  0  0  0  0  0  0  0  0  0
    8.9216  -15.1841   18.6247 C   0  0  0  0  0  0  0  0  0  0  0  0
   10.6459  -14.1344   27.4116 C   0  0  0  0  0  0  0  0  0  0  0  0
   10.9850  -15.5845   27.6947 C   0  0  1  0  0  0  0  0  0  0  0  0
    9.7755  -16.2474   27.9011 O   0  0  0  0  0  0  0  0  0  0  0  0
   11.5898  -16.1514   26.4306 C   0  0  2  0  0  0  0  0  0  0  0  0
   10.6715  -16.0870   25.3137 N   0  0  0  0  0  0  0  0  0  0  0  0
   12.1420  -17.5025   26.6288 C   0  0  0  0  0  0  0  0  0  0  0  0
   13.0283  -17.7458   27.6477 O   0  0  0  0  0  0  0  0  0  0  0  0
   11.8012  -18.4260   25.8670 O   0  0  0  0  0  0  0  0  0  0  0  0
  2  1  1  1
  2  3  1  0
  3  4  1  0
  4  5  2  0
  6  5  1  0
  7  6  1  0
  8  7  2  0
  9  8  1  0
 10  9  2  0
 10 11  1  0
 11 12  2  0
 12  7  1  0
 12  4  1  0
 13  2  1  0
 13 14  2  0
 15 16  1  0
 16 26  2  0
 16 17  1  0
 17 18  2  0
 18 19  1  0
 19 20  1  0
 21 20  1  1
 22 21  1  0
 22 13  1  0
 23 21  1  0
 24 23  2  0
 25 19  2  0
 26 25  1  0
 28 27  1  6
 28 30  1  0
 29 28  1  0
 30 32  1  0
 30 31  1  6
 31 23  1  0
 32 33  1  0
 34 32  2  0
M  END
$$$$
