WYT.pdb
     RDKit          3D

 34 36  0  0  1  0  0  0  0  0999 V2000
    5.8837  -17.9607   23.8498 N   0  0  0  0  0  0  0  0  0  0  0  0
    6.7497  -16.8083   23.9970 C   0  0  1  0  0  0  0  0  0  0  0  0
    7.1761  -16.6450   25.4405 C   0  0  0  0  0  0  0  0  0  0  0  0
    6.5652  -15.4369   26.0516 C   0  0  0  0  0  0  0  0  0  0  0  0
    5.2546  -15.2901   26.5089 C   0  0  0  0  0  0  0  0  0  0  0  0
    5.0902  -14.0487   26.9926 N   0  0  0  0  0  0  0  0  0  0  0  0
    6.2357  -13.3479   26.8819 C   0  0  0  0  0  0  0  0  0  0  0  0
    6.5464  -12.0503   27.2382 C   0  0  0  0  0  0  0  0  0  0  0  0
    7.8261  -11.5926   27.0015 C   0  0  0  0  0  0  0  0  0  0  0  0
    8.7524  -12.4358   26.4206 C   0  0  0  0  0  0  0  0  0  0  0  0
    8.4239  -13.7291   26.0713 C   0  0  0  0  0  0  0  0  0  0  0  0
    7.1543  -14.2068   26.2979 C   0  0  0  0  0  0  0  0  0  0  0  0
    7.9051  -16.8614   23.0793 C   0  0  0  0  0  0  0  0  0  0  0  0
    8.2830  -17.9937   22.6646 O   0  0  0  0  0  0  0  0  0  0  0  0
    6.4980  -13.7540   16.6489 O   0  0  0  0  0  0  0  0  0  0  0  0
    7.3725  -13.9712   17.7085 C   0  0  0  0  0  0  0  0  0  0  0  0
    7.4114  -13.0989   18.7763 C   0  0  0  0  0  0  0  0  0  0  0  0
    8.2886  -13.3257   19.8288 C   0  0  0  0  0  0  0  0  0  0  0  0
    9.1444  -14.4117   19.8550 C   0  0  0  0  0  0  0  0  0  0  0  0
   10.0406  -14.5844   20.9982 C   0  0  0  0  0  0  0  0  0  0  0  0
    9.7753  -15.8334   21.8004 C   0  0  2  0  0  0  0  0  0  0  0  0
    8.6158  -15.7306   22.6341 N   0  0  0  0  0  0  0  0  0  0  0  0
   11.0069  -16.1344   22.5782 C   0  0  0  0  0  0  0  0  0  0  0  0
   11.4924  -15.2881   23.3716 O   0  0  0  0  0  0  0  0  0  0  0  0
    9.1069  -15.2740   18.8008 C   0  0  0  0  0  0  0  0  0  0  0  0
    8.2307  -15.0540   17.7420 C   0  0  0  0  0  0  0  0  0  0  0  0
   11.8480  -19.0654   24.9478 C   0  0  0  0  0  0  0  0  0  0  0  0
   12.8475  -19.0842   23.8081 C   0  0  1  0  0  0  0  0  0  0  0  0
   12.3170  -19.9151   22.8217 O   0  0  0  0  0  0  0  0  0  0  0  0
   12.8888  -17.6865   23.2339 C   0  0  2  0  0  0  0  0  0  0  0  0
   11.6973  -17.3776   22.4725 N   0  0  0  0  0  0  0  0  0  0  0  0
   14.1248  -17.4266   22.4761 C   0  0  0  0  0  0  0  0  0  0  0  0
   15.3479  -17.5306   23.0893 O   0  0  0  0  0  0  0  0  0  0  0  0
   14.0566  -17.1113   21.2739 O   0  0  0  0  0  0  0  0  0  0  0  0
  2  1  1  1
  2  3  1  0
  3  4  1  0
  4  5  2  0
  6  5  1  0
  7  6  1  0
  8  7  2  0
  9  8  1  0
 10  9  2  0
 10 11  1  0
 11 12  2  0
 12  7  1  0
 12  4  1  0
 13  2  1  0
 13 14  2  0
 15 16  1  0
 16 26  2  0
 16 17  1  0
 17 18  2  0
 18 19  1  0
 19 20  1  0
 21 20  1  1
 22 21  1  0
 22 13  1  0
 23 21  1  0
 24 23  2  0
 25 19  2  0
 26 25  1  0
 28 27  1  1
 28 30  1  0
 29 28  1  0
 30 32  1  0
 30 31  1  6
 31 23  1  0
 32 33  1  0
 34 32  2  0
M  END
$$$$
