WYT.pdb
     RDKit          3D

 34 36  0  0  1  0  0  0  0  0999 V2000
    6.9075  -19.0116   25.0989 N   0  0  0  0  0  0  0  0  0  0  0  0
    6.9362  -17.5658   25.0072 C   0  0  1  0  0  0  0  0  0  0  0  0
    7.6599  -16.9722   26.1972 C   0  0  0  0  0  0  0  0  0  0  0  0
    6.9928  -15.7333   26.6729 C   0  0  0  0  0  0  0  0  0  0  0  0
    5.6404  -15.5616   26.9730 C   0  0  0  0  0  0  0  0  0  0  0  0
    5.4316  -14.2964   27.3704 N   0  0  0  0  0  0  0  0  0  0  0  0
    6.5869  -13.6034   27.3520 C   0  0  0  0  0  0  0  0  0  0  0  0
    6.8647  -12.2893   27.6730 C   0  0  0  0  0  0  0  0  0  0  0  0
    8.1659  -11.8456   27.5571 C   0  0  0  0  0  0  0  0  0  0  0  0
    9.1454  -12.7189   27.1276 C   0  0  0  0  0  0  0  0  0  0  0  0
    8.8492  -14.0284   26.8113 C   0  0  0  0  0  0  0  0  0  0  0  0
    7.5590  -14.4924   26.9193 C   0  0  0  0  0  0  0  0  0  0  0  0
    7.5026  -17.1021   23.7250 C   0  0  0  0  0  0  0  0  0  0  0  0
    8.3417  -17.8460   23.1424 O   0  0  0  0  0  0  0  0  0  0  0  0
    8.6279  -12.9607   16.0072 O   0  0  0  0  0  0  0  0  0  0  0  0
    8.2881  -13.2437   17.3259 C   0  0  0  0  0  0  0  0  0  0  0  0
    7.2878  -14.1488   17.6139 C   0  0  0  0  0  0  0  0  0  0  0  0
    6.9570  -14.4236   18.9345 C   0  0  0  0  0  0  0  0  0  0  0  0
    7.6000  -13.8168   19.9978 C   0  0  0  0  0  0  0  0  0  0  0  0
    7.1961  -14.1570   21.3620 C   0  0  0  0  0  0  0  0  0  0  0  0
    7.6952  -15.5006   21.8308 C   0  0  2  0  0  0  0  0  0  0  0  0
    7.1688  -15.8823   23.1064 N   0  0  0  0  0  0  0  0  0  0  0  0
    9.1818  -15.4517   21.8235 C   0  0  0  0  0  0  0  0  0  0  0  0
    9.8098  -14.7733   22.6761 O   0  0  0  0  0  0  0  0  0  0  0  0
    8.5882  -12.9227   19.7145 C   0  0  0  0  0  0  0  0  0  0  0  0
    8.9260  -12.6415   18.3938 C   0  0  0  0  0  0  0  0  0  0  0  0
   11.7057  -17.8418   22.6352 C   0  0  0  0  0  0  0  0  0  0  0  0
   11.9660  -17.5508   21.1704 C   0  0  1  0  0  0  0  0  0  0  0  0
   11.1960  -18.4539   20.4380 O   0  0  0  0  0  0  0  0  0  0  0  0
   11.4159  -16.1711   20.8897 C   0  0  2  0  0  0  0  0  0  0  0  0
    9.9687  -16.1585   20.8672 N   0  0  0  0  0  0  0  0  0  0  0  0
   12.0033  -15.5670   19.6816 C   0  0  0  0  0  0  0  0  0  0  0  0
   13.3517  -15.3212   19.6159 O   0  0  0  0  0  0  0  0  0  0  0  0
   11.2709  -15.2790   18.7173 O   0  0  0  0  0  0  0  0  0  0  0  0
  2  1  1  1
  2  3  1  0
  3  4  1  0
  4  5  2  0
  6  5  1  0
  7  6  1  0
  8  7  2  0
  9  8  1  0
 10  9  2  0
 10 11  1  0
 11 12  2  0
 12  7  1  0
 12  4  1  0
 13  2  1  0
 13 14  2  0
 15 16  1  0
 16 26  2  0
 16 17  1  0
 17 18  2  0
 18 19  1  0
 19 20  1  0
 21 20  1  1
 22 21  1  0
 22 13  1  0
 23 21  1  0
 24 23  2  0
 25 19  2  0
 26 25  1  0
 28 27  1  1
 28 30  1  0
 29 28  1  0
 30 32  1  0
 30 31  1  6
 31 23  1  0
 32 33  1  0
 34 32  2  0
M  END
$$$$
