WYT.pdb
     RDKit          3D

 34 36  0  0  1  0  0  0  0  0999 V2000
    6.9819  -19.3150   26.6045 N   0  0  0  0  0  0  0  0  0  0  0  0
    7.6974  -18.0735   26.3897 C   0  0  1  0  0  0  0  0  0  0  0  0
    9.1515  -18.2229   26.7841 C   0  0  0  0  0  0  0  0  0  0  0  0
    9.4700  -17.4177   27.9908 C   0  0  0  0  0  0  0  0  0  0  0  0
    9.7305  -17.8890   29.2786 C   0  0  0  0  0  0  0  0  0  0  0  0
    9.9741  -16.8482   30.0908 N   0  0  0  0  0  0  0  0  0  0  0  0
    9.8894  -15.6907   29.4064 C   0  0  0  0  0  0  0  0  0  0  0  0
   10.0576  -14.3808   29.8100 C   0  0  0  0  0  0  0  0  0  0  0  0
    9.9072  -13.3800   28.8724 C   0  0  0  0  0  0  0  0  0  0  0  0
    9.5957  -13.7119   27.5688 C   0  0  0  0  0  0  0  0  0  0  0  0
    9.4313  -15.0262   27.1839 C   0  0  0  0  0  0  0  0  0  0  0  0
    9.5765  -16.0402   28.1016 C   0  0  0  0  0  0  0  0  0  0  0  0
    7.5452  -17.5772   25.0074 C   0  0  0  0  0  0  0  0  0  0  0  0
    7.5160  -18.4255   24.0713 O   0  0  0  0  0  0  0  0  0  0  0  0
    7.4346  -12.6275   17.7165 O   0  0  0  0  0  0  0  0  0  0  0  0
    7.3588  -13.0397   19.0427 C   0  0  0  0  0  0  0  0  0  0  0  0
    6.4890  -14.0427   19.4172 C   0  0  0  0  0  0  0  0  0  0  0  0
    6.4218  -14.4462   20.7443 C   0  0  0  0  0  0  0  0  0  0  0  0
    7.2056  -13.8746   21.7298 C   0  0  0  0  0  0  0  0  0  0  0  0
    7.0790  -14.3524   23.1067 C   0  0  0  0  0  0  0  0  0  0  0  0
    7.6039  -15.7498   23.3200 C   0  0  2  0  0  0  0  0  0  0  0  0
    7.4300  -16.2172   24.6621 N   0  0  0  0  0  0  0  0  0  0  0  0
    9.0301  -15.7602   22.8975 C   0  0  0  0  0  0  0  0  0  0  0  0
    9.8948  -15.0983   23.5265 O   0  0  0  0  0  0  0  0  0  0  0  0
    8.0651  -12.8838   21.3612 C   0  0  0  0  0  0  0  0  0  0  0  0
    8.1387  -12.4734   20.0332 C   0  0  0  0  0  0  0  0  0  0  0  0
   11.4741  -18.4737   22.8927 C   0  0  0  0  0  0  0  0  0  0  0  0
   11.3648  -18.0578   21.4390 C   0  0  1  0  0  0  0  0  0  0  0  0
   10.3472  -18.8275   20.8760 O   0  0  0  0  0  0  0  0  0  0  0  0
   10.8927  -16.6219   21.4249 C   0  0  2  0  0  0  0  0  0  0  0  0
    9.4929  -16.5077   21.7748 N   0  0  0  0  0  0  0  0  0  0  0  0
   11.2153  -15.9368   20.1615 C   0  0  0  0  0  0  0  0  0  0  0  0
   12.5218  -15.7784   19.7736 O   0  0  0  0  0  0  0  0  0  0  0  0
   10.2963  -15.5005   19.4442 O   0  0  0  0  0  0  0  0  0  0  0  0
  2  1  1  6
  2  3  1  0
  3  4  1  0
  4  5  2  0
  6  5  1  0
  7  6  1  0
  8  7  2  0
  9  8  1  0
 10  9  2  0
 10 11  1  0
 11 12  2  0
 12  7  1  0
 12  4  1  0
 13  2  1  0
 13 14  2  0
 15 16  1  0
 16 26  2  0
 16 17  1  0
 17 18  2  0
 18 19  1  0
 19 20  1  0
 21 20  1  1
 22 21  1  0
 22 13  1  0
 23 21  1  0
 24 23  2  0
 25 19  2  0
 26 25  1  0
 28 27  1  1
 28 30  1  0
 29 28  1  0
 30 32  1  0
 30 31  1  6
 31 23  1  0
 32 33  1  0
 34 32  2  0
M  END
$$$$
