EQW.pdb
     RDKit          3D

 33 34  0  0  1  0  0  0  0  0999 V2000
   27.3158  -20.7388  -17.4127 N   0  0  0  0  0  0  0  0  0  0  0  0
   27.5167  -21.4675  -16.2106 C   0  0  1  0  0  0  0  0  0  0  0  0
   28.9280  -21.6725  -15.7767 C   0  0  0  0  0  0  0  0  0  0  0  0
   29.6518  -22.8134  -16.3923 C   0  0  0  0  0  0  0  0  0  0  0  0
   29.8889  -22.7585  -17.8295 C   0  0  0  0  0  0  0  0  0  0  0  0
   30.6523  -21.9336  -18.3554 O   0  0  0  0  0  0  0  0  0  0  0  0
   26.8262  -20.7540  -15.0670 C   0  0  0  0  0  0  0  0  0  0  0  0
   27.0799  -19.5565  -14.8719 O   0  0  0  0  0  0  0  0  0  0  0  0
   29.2338  -23.6691  -18.6741 O   0  0  0  0  0  0  0  0  0  0  0  0
   24.1043  -17.5166  -14.6830 N   0  0  0  0  0  0  0  0  0  0  0  0
   23.2618  -18.4909  -14.0283 C   0  0  0  0  0  0  0  0  0  0  0  0
   22.5090  -18.0815  -13.1356 O   0  0  0  0  0  0  0  0  0  0  0  0
   23.3151  -19.8930  -14.4253 C   0  0  0  0  0  0  0  0  0  0  0  0
   23.6856  -20.8667  -13.3721 C   0  0  0  0  0  0  0  0  0  0  0  0
   25.1876  -20.9524  -13.1464 C   0  0  2  0  0  0  0  0  0  0  0  0
   25.9150  -21.4814  -14.2632 N   0  0  0  0  0  0  0  0  0  0  0  0
   25.5323  -21.5576  -11.8606 C   0  0  0  0  0  0  0  0  0  0  0  0
   25.5356  -22.8337  -11.7377 O   0  0  0  0  0  0  0  0  0  0  0  0
   25.8762  -20.8430  -10.6927 N   0  0  0  0  0  0  0  0  0  0  0  0
   26.0574  -21.4468   -9.3779 C   0  0  1  0  0  0  0  0  0  0  0  0
   27.4536  -21.3066   -8.8965 C   0  0  0  0  0  0  0  0  0  0  0  0
   27.6388  -20.1167   -8.0491 C   0  0  0  0  0  0  0  0  0  0  0  0
   27.0464  -18.8584   -8.2302 C   0  0  0  0  0  0  0  0  0  0  0  0
   27.4793  -18.0119   -7.2833 N   0  0  0  0  0  0  0  0  0  0  0  0
   28.3383  -18.6411   -6.4676 C   0  0  0  0  0  0  0  0  0  0  0  0
   29.0318  -18.1966   -5.3413 C   0  0  0  0  0  0  0  0  0  0  0  0
   29.8319  -19.1048   -4.6990 C   0  0  0  0  0  0  0  0  0  0  0  0
   29.9649  -20.4283   -5.1344 C   0  0  0  0  0  0  0  0  0  0  0  0
   29.2659  -20.8099   -6.2404 C   0  0  0  0  0  0  0  0  0  0  0  0
   28.4433  -19.9388   -6.9312 C   0  0  0  0  0  0  0  0  0  0  0  0
   25.0180  -21.1098   -8.4391 C   0  0  0  0  0  0  0  0  0  0  0  0
   24.8839  -21.6611   -7.1606 O   0  0  0  0  0  0  0  0  0  0  0  0
   24.1059  -20.2530   -8.7221 O   0  0  0  0  0  0  0  0  0  0  0  0
  2  3  1  0
  2  1  1  6
  3  4  1  0
  4  5  1  0
  5  9  1  0
  6  5  2  0
  7  8  2  0
  7  2  1  0
 10 11  1  0
 11 13  1  0
 12 11  2  0
 13 14  1  0
 15 14  1  6
 15 16  1  0
 16  7  1  0
 17 15  1  0
 17 19  1  0
 18 17  2  0
 20 19  1  0
 20 31  1  0
 20 21  1  1
 22 21  1  0
 23 22  2  0
 24 25  1  0
 24 23  1  0
 25 30  2  0
 26 25  1  0
 26 27  2  0
 27 28  1  0
 28 29  2  0
 30 22  1  0
 30 29  1  0
 31 32  1  0
 33 31  2  0
M  END
$$$$
