EQW.pdb
     RDKit          3D

 33 34  0  0  1  0  0  0  0  0999 V2000
   29.0445  -19.2874  -17.5714 N   0  0  0  0  0  0  0  0  0  0  0  0
   29.0593  -18.1061  -16.7835 C   0  0  1  0  0  0  0  0  0  0  0  0
   29.0781  -16.8088  -17.5174 C   0  0  0  0  0  0  0  0  0  0  0  0
   30.2239  -16.5823  -18.4341 C   0  0  0  0  0  0  0  0  0  0  0  0
   30.2531  -17.3517  -19.6718 C   0  0  0  0  0  0  0  0  0  0  0  0
   29.2978  -17.3919  -20.4629 O   0  0  0  0  0  0  0  0  0  0  0  0
   27.8273  -18.0718  -15.9033 C   0  0  0  0  0  0  0  0  0  0  0  0
   27.7083  -17.1524  -15.0804 O   0  0  0  0  0  0  0  0  0  0  0  0
   31.4022  -18.0881  -20.0018 O   0  0  0  0  0  0  0  0  0  0  0  0
   24.4469  -15.5064  -16.0421 N   0  0  0  0  0  0  0  0  0  0  0  0
   23.6916  -16.7304  -16.1806 C   0  0  0  0  0  0  0  0  0  0  0  0
   22.5569  -16.7558  -15.6875 O   0  0  0  0  0  0  0  0  0  0  0  0
   24.2666  -17.8732  -16.8803 C   0  0  0  0  0  0  0  0  0  0  0  0
   24.3786  -19.1341  -16.1107 C   0  0  0  0  0  0  0  0  0  0  0  0
   25.6527  -19.2118  -15.2830 C   0  0  2  0  0  0  0  0  0  0  0  0
   26.8560  -19.0913  -16.0536 N   0  0  0  0  0  0  0  0  0  0  0  0
   25.6482  -20.3314  -14.3424 C   0  0  0  0  0  0  0  0  0  0  0  0
   26.4903  -21.2873  -14.4860 O   0  0  0  0  0  0  0  0  0  0  0  0
   24.7697  -20.4674  -13.2457 N   0  0  0  0  0  0  0  0  0  0  0  0
   24.8254  -21.5511  -12.2718 C   0  0  1  0  0  0  0  0  0  0  0  0
   26.1981  -21.7454  -11.7438 C   0  0  0  0  0  0  0  0  0  0  0  0
   26.4410  -20.9744  -10.5131 C   0  0  0  0  0  0  0  0  0  0  0  0
   25.5095  -20.1881   -9.8192 C   0  0  0  0  0  0  0  0  0  0  0  0
   26.1020  -19.6062   -8.7651 N   0  0  0  0  0  0  0  0  0  0  0  0
   27.3936  -19.9641   -8.7132 C   0  0  0  0  0  0  0  0  0  0  0  0
   28.4033  -19.6387   -7.8067 C   0  0  0  0  0  0  0  0  0  0  0  0
   29.6383  -20.1932   -8.0183 C   0  0  0  0  0  0  0  0  0  0  0  0
   29.9015  -21.0527   -9.0911 C   0  0  0  0  0  0  0  0  0  0  0  0
   28.8798  -21.3368   -9.9472 C   0  0  0  0  0  0  0  0  0  0  0  0
   27.6123  -20.8072   -9.7862 C   0  0  0  0  0  0  0  0  0  0  0  0
   23.7637  -21.5091  -11.2991 C   0  0  0  0  0  0  0  0  0  0  0  0
   23.2848  -22.6141  -10.5879 O   0  0  0  0  0  0  0  0  0  0  0  0
   23.1571  -20.4160  -11.0102 O   0  0  0  0  0  0  0  0  0  0  0  0
  2  3  1  0
  2  1  1  6
  3  4  1  0
  4  5  1  0
  5  9  1  0
  6  5  2  0
  7  8  2  0
  7  2  1  0
 10 11  1  0
 11 13  1  0
 12 11  2  0
 13 14  1  0
 15 14  1  6
 15 16  1  0
 16  7  1  0
 17 15  1  0
 17 19  1  0
 18 17  2  0
 20 19  1  0
 20 31  1  0
 20 21  1  1
 22 21  1  0
 23 22  2  0
 24 25  1  0
 24 23  1  0
 25 30  2  0
 26 25  1  0
 26 27  2  0
 27 28  1  0
 28 29  2  0
 30 22  1  0
 30 29  1  0
 31 32  1  0
 33 31  2  0
M  END
$$$$
