EQW.pdb
     RDKit          3D

 33 34  0  0  1  0  0  0  0  0999 V2000
   15.3339  -13.9371  -17.5029 N   0  0  0  0  0  0  0  0  0  0  0  0
   15.7366  -13.4402  -16.2351 C   0  0  1  0  0  0  0  0  0  0  0  0
   15.5697  -14.3555  -15.0704 C   0  0  0  0  0  0  0  0  0  0  0  0
   14.1809  -14.7674  -14.7447 C   0  0  0  0  0  0  0  0  0  0  0  0
   13.9868  -15.5828  -13.5521 C   0  0  0  0  0  0  0  0  0  0  0  0
   13.4503  -16.7014  -13.5807 O   0  0  0  0  0  0  0  0  0  0  0  0
   17.2073  -13.0810  -16.2783 C   0  0  0  0  0  0  0  0  0  0  0  0
   18.0185  -13.8208  -15.7030 O   0  0  0  0  0  0  0  0  0  0  0  0
   14.4175  -15.0997  -12.3061 O   0  0  0  0  0  0  0  0  0  0  0  0
   20.7171  -12.1384  -21.1128 N   0  0  0  0  0  0  0  0  0  0  0  0
   21.4940  -11.5385  -20.0525 C   0  0  0  0  0  0  0  0  0  0  0  0
   22.6642  -11.2301  -20.3112 O   0  0  0  0  0  0  0  0  0  0  0  0
   20.8973  -11.3148  -18.7410 C   0  0  0  0  0  0  0  0  0  0  0  0
   19.4815  -11.7196  -18.5788 C   0  0  0  0  0  0  0  0  0  0  0  0
   18.9543  -11.4802  -17.1720 C   0  0  2  0  0  0  0  0  0  0  0  0
   17.6014  -11.9131  -16.9756 N   0  0  0  0  0  0  0  0  0  0  0  0
   19.2318  -10.1289  -16.6868 C   0  0  0  0  0  0  0  0  0  0  0  0
   18.4540   -9.1631  -17.0120 O   0  0  0  0  0  0  0  0  0  0  0  0
   20.3186   -9.7698  -15.8604 N   0  0  0  0  0  0  0  0  0  0  0  0
   20.7092   -8.3978  -15.5587 C   0  0  1  0  0  0  0  0  0  0  0  0
   21.7955   -8.3448  -14.5498 C   0  0  0  0  0  0  0  0  0  0  0  0
   22.2802   -6.9739  -14.3178 C   0  0  0  0  0  0  0  0  0  0  0  0
   21.8106   -6.0710  -13.3527 C   0  0  0  0  0  0  0  0  0  0  0  0
   22.4659   -4.9053  -13.4642 N   0  0  0  0  0  0  0  0  0  0  0  0
   23.3598   -4.9785  -14.4615 C   0  0  0  0  0  0  0  0  0  0  0  0
   24.2771   -4.0452  -14.9459 C   0  0  0  0  0  0  0  0  0  0  0  0
   25.0827   -4.4378  -15.9825 C   0  0  0  0  0  0  0  0  0  0  0  0
   25.0080   -5.7154  -16.5491 C   0  0  0  0  0  0  0  0  0  0  0  0
   24.0938   -6.5878  -16.0386 C   0  0  0  0  0  0  0  0  0  0  0  0
   23.2531   -6.2493  -14.9939 C   0  0  0  0  0  0  0  0  0  0  0  0
   20.8794   -7.5749  -16.7287 C   0  0  0  0  0  0  0  0  0  0  0  0
   20.3867   -6.2736  -16.8713 O   0  0  0  0  0  0  0  0  0  0  0  0
   21.5134   -7.9952  -17.7621 O   0  0  0  0  0  0  0  0  0  0  0  0
  2  3  1  0
  2  1  1  6
  3  4  1  0
  4  5  1  0
  5  9  1  0
  6  5  2  0
  7  8  2  0
  7  2  1  0
 10 11  1  0
 11 13  1  0
 12 11  2  0
 13 14  1  0
 15 14  1  6
 15 16  1  0
 16  7  1  0
 17 15  1  0
 17 19  1  0
 18 17  2  0
 20 19  1  0
 20 31  1  0
 20 21  1  6
 22 21  1  0
 23 22  2  0
 24 25  1  0
 24 23  1  0
 25 30  2  0
 26 25  1  0
 26 27  2  0
 27 28  1  0
 28 29  2  0
 30 22  1  0
 30 29  1  0
 31 32  1  0
 33 31  2  0
M  END
$$$$
