EQW.pdb
     RDKit          3D

 33 34  0  0  1  0  0  0  0  0999 V2000
   27.2781  -21.7661  -17.5945 N   0  0  0  0  0  0  0  0  0  0  0  0
   25.9224  -21.8476  -17.1797 C   0  0  1  0  0  0  0  0  0  0  0  0
   25.3474  -23.2143  -17.0259 C   0  0  0  0  0  0  0  0  0  0  0  0
   26.1137  -24.1645  -16.1806 C   0  0  0  0  0  0  0  0  0  0  0  0
   25.5815  -25.5143  -16.0399 C   0  0  0  0  0  0  0  0  0  0  0  0
   25.9772  -26.4694  -16.7261 O   0  0  0  0  0  0  0  0  0  0  0  0
   25.7659  -21.1731  -15.8327 C   0  0  0  0  0  0  0  0  0  0  0  0
   26.7805  -20.7648  -15.2493 O   0  0  0  0  0  0  0  0  0  0  0  0
   24.5756  -25.7661  -15.0932 O   0  0  0  0  0  0  0  0  0  0  0  0
   19.8377  -21.3458  -12.0898 N   0  0  0  0  0  0  0  0  0  0  0  0
   20.4448  -21.3290  -13.4009 C   0  0  0  0  0  0  0  0  0  0  0  0
   19.6954  -21.1594  -14.3710 O   0  0  0  0  0  0  0  0  0  0  0  0
   21.8850  -21.5046  -13.5458 C   0  0  0  0  0  0  0  0  0  0  0  0
   22.6869  -20.2740  -13.7397 C   0  0  0  0  0  0  0  0  0  0  0  0
   24.1632  -20.5593  -13.9705 C   0  0  2  0  0  0  0  0  0  0  0  0
   24.4655  -21.0330  -15.2898 N   0  0  0  0  0  0  0  0  0  0  0  0
   24.7614  -21.3484  -12.8944 C   0  0  0  0  0  0  0  0  0  0  0  0
   25.5891  -22.2859  -13.1764 O   0  0  0  0  0  0  0  0  0  0  0  0
   24.5050  -21.1704  -11.5176 N   0  0  0  0  0  0  0  0  0  0  0  0
   25.5139  -21.2701  -10.4697 C   0  0  1  0  0  0  0  0  0  0  0  0
   26.7495  -20.5294  -10.8240 C   0  0  0  0  0  0  0  0  0  0  0  0
   27.8332  -20.7467   -9.8511 C   0  0  0  0  0  0  0  0  0  0  0  0
   28.9906  -21.5152  -10.0435 C   0  0  0  0  0  0  0  0  0  0  0  0
   29.7296  -21.5119   -8.9234 N   0  0  0  0  0  0  0  0  0  0  0  0
   29.1248  -20.7741   -7.9806 C   0  0  0  0  0  0  0  0  0  0  0  0
   29.5028  -20.4593   -6.6748 C   0  0  0  0  0  0  0  0  0  0  0  0
   28.6632  -19.6482   -5.9574 C   0  0  0  0  0  0  0  0  0  0  0  0
   27.4709  -19.1438   -6.4891 C   0  0  0  0  0  0  0  0  0  0  0  0
   27.1488  -19.4830   -7.7692 C   0  0  0  0  0  0  0  0  0  0  0  0
   27.9553  -20.2982   -8.5425 C   0  0  0  0  0  0  0  0  0  0  0  0
   24.9935  -21.0530   -9.1440 C   0  0  0  0  0  0  0  0  0  0  0  0
   25.1840  -21.9135   -8.0579 O   0  0  0  0  0  0  0  0  0  0  0  0
   24.2885  -20.0200   -8.8574 O   0  0  0  0  0  0  0  0  0  0  0  0
  2  3  1  0
  2  1  1  1
  3  4  1  0
  4  5  1  0
  5  9  1  0
  6  5  2  0
  7  8  2  0
  7  2  1  0
 10 11  1  0
 11 13  1  0
 12 11  2  0
 13 14  1  0
 15 14  1  1
 15 16  1  0
 16  7  1  0
 17 15  1  0
 17 19  1  0
 18 17  2  0
 20 19  1  0
 20 31  1  0
 20 21  1  6
 22 21  1  0
 23 22  2  0
 24 25  1  0
 24 23  1  0
 25 30  2  0
 26 25  1  0
 26 27  2  0
 27 28  1  0
 28 29  2  0
 30 22  1  0
 30 29  1  0
 31 32  1  0
 33 31  2  0
M  END
$$$$
