EQW.pdb
     RDKit          3D

 33 34  0  0  1  0  0  0  0  0999 V2000
   19.0961  -13.3006  -16.3958 N   0  0  0  0  0  0  0  0  0  0  0  0
   17.9584  -12.4517  -16.4314 C   0  0  1  0  0  0  0  0  0  0  0  0
   16.6805  -13.0181  -15.9134 C   0  0  0  0  0  0  0  0  0  0  0  0
   16.0854  -14.1329  -16.6929 C   0  0  0  0  0  0  0  0  0  0  0  0
   15.0580  -13.7931  -17.6695 C   0  0  0  0  0  0  0  0  0  0  0  0
   13.9564  -13.3189  -17.3512 O   0  0  0  0  0  0  0  0  0  0  0  0
   18.2302  -11.2096  -15.6085 C   0  0  0  0  0  0  0  0  0  0  0  0
   18.0635  -11.2596  -14.3813 O   0  0  0  0  0  0  0  0  0  0  0  0
   15.3049  -14.0048  -19.0355 O   0  0  0  0  0  0  0  0  0  0  0  0
   23.0753   -8.2471  -14.5155 N   0  0  0  0  0  0  0  0  0  0  0  0
   22.5324   -9.5681  -14.7342 C   0  0  0  0  0  0  0  0  0  0  0  0
   23.3011  -10.5277  -14.5942 O   0  0  0  0  0  0  0  0  0  0  0  0
   21.1312   -9.7348  -15.1016 C   0  0  0  0  0  0  0  0  0  0  0  0
   20.3461   -8.4946  -15.3018 C   0  0  0  0  0  0  0  0  0  0  0  0
   18.8897   -8.7649  -15.6485 C   0  0  2  0  0  0  0  0  0  0  0  0
   18.6659  -10.0367  -16.2719 N   0  0  0  0  0  0  0  0  0  0  0  0
   18.2525   -7.6387  -16.3297 C   0  0  0  0  0  0  0  0  0  0  0  0
   18.1396   -7.6479  -17.6067 O   0  0  0  0  0  0  0  0  0  0  0  0
   17.7276   -6.4945  -15.6907 N   0  0  0  0  0  0  0  0  0  0  0  0
   16.9899   -5.4350  -16.3684 C   0  0  1  0  0  0  0  0  0  0  0  0
   15.9518   -5.9821  -17.2761 C   0  0  0  0  0  0  0  0  0  0  0  0
   14.9142   -6.7362  -16.5530 C   0  0  0  0  0  0  0  0  0  0  0  0
   14.3611   -6.4148  -15.3047 C   0  0  0  0  0  0  0  0  0  0  0  0
   13.4708   -7.3530  -14.9472 N   0  0  0  0  0  0  0  0  0  0  0  0
   13.3951   -8.2956  -15.8984 C   0  0  0  0  0  0  0  0  0  0  0  0
   12.6123   -9.4469  -15.9933 C   0  0  0  0  0  0  0  0  0  0  0  0
   12.7522  -10.2085  -17.1237 C   0  0  0  0  0  0  0  0  0  0  0  0
   13.6361   -9.8677  -18.1540 C   0  0  0  0  0  0  0  0  0  0  0  0
   14.3775   -8.7333  -18.0101 C   0  0  0  0  0  0  0  0  0  0  0  0
   14.2808   -7.9246  -16.8922 C   0  0  0  0  0  0  0  0  0  0  0  0
   16.5792   -4.3664  -15.4940 C   0  0  0  0  0  0  0  0  0  0  0  0
   16.0800   -3.1308  -15.9188 O   0  0  0  0  0  0  0  0  0  0  0  0
   16.6501   -4.4750  -14.2175 O   0  0  0  0  0  0  0  0  0  0  0  0
  2  3  1  0
  2  1  1  1
  3  4  1  0
  4  5  1  0
  5  9  1  0
  6  5  2  0
  7  8  2  0
  7  2  1  0
 10 11  1  0
 11 13  1  0
 12 11  2  0
 13 14  1  0
 15 14  1  6
 15 16  1  0
 16  7  1  0
 17 15  1  0
 17 19  1  0
 18 17  2  0
 20 19  1  0
 20 31  1  0
 20 21  1  1
 22 21  1  0
 23 22  2  0
 24 25  1  0
 24 23  1  0
 25 30  2  0
 26 25  1  0
 26 27  2  0
 27 28  1  0
 28 29  2  0
 30 22  1  0
 30 29  1  0
 31 32  1  0
 33 31  2  0
M  END
$$$$
