EQW.pdb
     RDKit          3D

 33 34  0  0  1  0  0  0  0  0999 V2000
   25.8588  -23.8496  -18.1370 N   0  0  0  0  0  0  0  0  0  0  0  0
   26.3022  -24.5740  -16.9989 C   0  0  1  0  0  0  0  0  0  0  0  0
   27.5182  -25.4188  -17.1716 C   0  0  0  0  0  0  0  0  0  0  0  0
   27.3792  -26.6094  -18.0479 C   0  0  0  0  0  0  0  0  0  0  0  0
   26.6475  -26.4392  -19.2971 C   0  0  0  0  0  0  0  0  0  0  0  0
   25.4212  -26.6055  -19.3877 O   0  0  0  0  0  0  0  0  0  0  0  0
   26.6200  -23.6064  -15.8778 C   0  0  0  0  0  0  0  0  0  0  0  0
   27.1033  -24.0507  -14.8264 O   0  0  0  0  0  0  0  0  0  0  0  0
   27.3420  -26.0725  -20.4611 O   0  0  0  0  0  0  0  0  0  0  0  0
   29.1918  -19.8234  -14.6006 N   0  0  0  0  0  0  0  0  0  0  0  0
   29.0144  -19.6096  -16.0185 C   0  0  0  0  0  0  0  0  0  0  0  0
   30.0357  -19.4748  -16.7042 O   0  0  0  0  0  0  0  0  0  0  0  0
   27.6746  -19.5616  -16.5921 C   0  0  0  0  0  0  0  0  0  0  0  0
   26.5459  -19.7930  -15.6608 C   0  0  0  0  0  0  0  0  0  0  0  0
   26.5300  -21.2021  -15.0878 C   0  0  2  0  0  0  0  0  0  0  0  0
   26.3539  -22.2293  -16.0728 N   0  0  0  0  0  0  0  0  0  0  0  0
   25.6565  -21.3282  -13.9219 C   0  0  0  0  0  0  0  0  0  0  0  0
   24.3848  -21.2570  -14.0679 O   0  0  0  0  0  0  0  0  0  0  0  0
   26.0962  -21.5293  -12.5955 N   0  0  0  0  0  0  0  0  0  0  0  0
   25.2153  -21.6130  -11.4367 C   0  0  1  0  0  0  0  0  0  0  0  0
   25.9220  -22.1463  -10.2464 C   0  0  0  0  0  0  0  0  0  0  0  0
   26.2873  -21.0887   -9.2893 C   0  0  0  0  0  0  0  0  0  0  0  0
   25.4130  -20.1940   -8.6550 C   0  0  0  0  0  0  0  0  0  0  0  0
   26.1108  -19.3489   -7.8806 N   0  0  0  0  0  0  0  0  0  0  0  0
   27.4194  -19.6319   -7.9610 C   0  0  0  0  0  0  0  0  0  0  0  0
   28.5261  -19.0550   -7.3370 C   0  0  0  0  0  0  0  0  0  0  0  0
   29.7544  -19.5953   -7.6142 C   0  0  0  0  0  0  0  0  0  0  0  0
   29.9186  -20.6801   -8.4832 C   0  0  0  0  0  0  0  0  0  0  0  0
   28.8045  -21.2050   -9.0668 C   0  0  0  0  0  0  0  0  0  0  0  0
   27.5385  -20.7026   -8.8268 C   0  0  0  0  0  0  0  0  0  0  0  0
   24.4153  -20.4325  -11.2325 C   0  0  0  0  0  0  0  0  0  0  0  0
   24.7076  -19.1671  -11.7517 O   0  0  0  0  0  0  0  0  0  0  0  0
   23.3420  -20.4588  -10.5297 O   0  0  0  0  0  0  0  0  0  0  0  0
  2  3  1  0
  2  1  1  6
  3  4  1  0
  4  5  1  0
  5  9  1  0
  6  5  2  0
  7  8  2  0
  7  2  1  0
 10 11  1  0
 11 13  1  0
 12 11  2  0
 13 14  1  0
 15 14  1  6
 15 16  1  0
 16  7  1  0
 17 15  1  0
 17 19  1  0
 18 17  2  0
 20 19  1  0
 20 31  1  0
 20 21  1  1
 22 21  1  0
 23 22  2  0
 24 25  1  0
 24 23  1  0
 25 30  2  0
 26 25  1  0
 26 27  2  0
 27 28  1  0
 28 29  2  0
 30 22  1  0
 30 29  1  0
 31 32  1  0
 33 31  2  0
M  END
$$$$
