EQW.pdb
     RDKit          3D

 33 34  0  0  1  0  0  0  0  0999 V2000
   26.4031  -35.9117  -12.9883 N   0  0  0  0  0  0  0  0  0  0  0  0
   25.8437  -34.6066  -12.9678 C   0  0  1  0  0  0  0  0  0  0  0  0
   24.8952  -34.2644  -14.0657 C   0  0  0  0  0  0  0  0  0  0  0  0
   25.4884  -34.0400  -15.4082 C   0  0  0  0  0  0  0  0  0  0  0  0
   25.0413  -34.9075  -16.4910 C   0  0  0  0  0  0  0  0  0  0  0  0
   24.2769  -35.8685  -16.3124 O   0  0  0  0  0  0  0  0  0  0  0  0
   25.0791  -34.4061  -11.6758 C   0  0  0  0  0  0  0  0  0  0  0  0
   24.2393  -35.2547  -11.3426 O   0  0  0  0  0  0  0  0  0  0  0  0
   25.4842  -34.6633  -17.8009 O   0  0  0  0  0  0  0  0  0  0  0  0
   24.7247  -32.2804   -5.9417 N   0  0  0  0  0  0  0  0  0  0  0  0
   25.7257  -33.2527   -6.3163 C   0  0  0  0  0  0  0  0  0  0  0  0
   26.1126  -34.0353   -5.4394 O   0  0  0  0  0  0  0  0  0  0  0  0
   26.2399  -33.2893   -7.6803 C   0  0  0  0  0  0  0  0  0  0  0  0
   25.6718  -32.3042   -8.6298 C   0  0  0  0  0  0  0  0  0  0  0  0
   24.7300  -32.9346   -9.6446 C   0  0  2  0  0  0  0  0  0  0  0  0
   25.3527  -33.2564  -10.8956 N   0  0  0  0  0  0  0  0  0  0  0  0
   23.4659  -32.2100   -9.7687 C   0  0  0  0  0  0  0  0  0  0  0  0
   23.4114  -31.1403  -10.4732 O   0  0  0  0  0  0  0  0  0  0  0  0
   22.2489  -32.5901   -9.1626 N   0  0  0  0  0  0  0  0  0  0  0  0
   20.9808  -31.8948   -9.3483 C   0  0  1  0  0  0  0  0  0  0  0  0
   20.7153  -31.6087  -10.7795 C   0  0  0  0  0  0  0  0  0  0  0  0
   19.4668  -30.8541  -10.9793 C   0  0  0  0  0  0  0  0  0  0  0  0
   19.3113  -29.4612  -10.9236 C   0  0  0  0  0  0  0  0  0  0  0  0
   18.0233  -29.1397  -11.1191 N   0  0  0  0  0  0  0  0  0  0  0  0
   17.2988  -30.2530  -11.3059 C   0  0  0  0  0  0  0  0  0  0  0  0
   15.9390  -30.4345  -11.5606 C   0  0  0  0  0  0  0  0  0  0  0  0
   15.4990  -31.7212  -11.7288 C   0  0  0  0  0  0  0  0  0  0  0  0
   16.3574  -32.8241  -11.6530 C   0  0  0  0  0  0  0  0  0  0  0  0
   17.6762  -32.5906  -11.4010 C   0  0  0  0  0  0  0  0  0  0  0  0
   18.1793  -31.3149  -11.2216 C   0  0  0  0  0  0  0  0  0  0  0  0
   19.8932  -32.4655   -8.5955 C   0  0  0  0  0  0  0  0  0  0  0  0
   19.9544  -33.6701   -7.8873 O   0  0  0  0  0  0  0  0  0  0  0  0
   18.7484  -31.8904   -8.5236 O   0  0  0  0  0  0  0  0  0  0  0  0
  2  3  1  0
  2  1  1  6
  3  4  1  0
  4  5  1  0
  5  9  1  0
  6  5  2  0
  7  8  2  0
  7  2  1  0
 10 11  1  0
 11 13  1  0
 12 11  2  0
 13 14  1  0
 15 14  1  1
 15 16  1  0
 16  7  1  0
 17 15  1  0
 17 19  1  0
 18 17  2  0
 20 19  1  0
 20 31  1  0
 20 21  1  6
 22 21  1  0
 23 22  2  0
 24 25  1  0
 24 23  1  0
 25 30  2  0
 26 25  1  0
 26 27  2  0
 27 28  1  0
 28 29  2  0
 30 22  1  0
 30 29  1  0
 31 32  1  0
 33 31  2  0
M  END
$$$$
