EQW.pdb
     RDKit          3D

 33 34  0  0  1  0  0  0  0  0999 V2000
   22.3503  -21.1948  -15.9196 N   0  0  0  0  0  0  0  0  0  0  0  0
   22.9514  -20.1760  -15.1339 C   0  0  1  0  0  0  0  0  0  0  0  0
   22.1176  -19.5833  -14.0496 C   0  0  0  0  0  0  0  0  0  0  0  0
   20.6658  -19.8925  -14.0856 C   0  0  0  0  0  0  0  0  0  0  0  0
   19.8615  -19.2125  -15.0934 C   0  0  0  0  0  0  0  0  0  0  0  0
   19.6060  -19.7113  -16.2005 O   0  0  0  0  0  0  0  0  0  0  0  0
   24.1898  -20.7258  -14.4572 C   0  0  0  0  0  0  0  0  0  0  0  0
   24.2598  -21.9444  -14.2419 O   0  0  0  0  0  0  0  0  0  0  0  0
   19.3446  -17.9359  -14.8202 O   0  0  0  0  0  0  0  0  0  0  0  0
   30.1259  -21.8869  -12.6101 N   0  0  0  0  0  0  0  0  0  0  0  0
   29.4881  -20.9825  -13.5390 C   0  0  0  0  0  0  0  0  0  0  0  0
   29.4984  -21.2979  -14.7356 O   0  0  0  0  0  0  0  0  0  0  0  0
   28.8632  -19.7559  -13.0583 C   0  0  0  0  0  0  0  0  0  0  0  0
   27.6254  -19.3270  -13.7502 C   0  0  0  0  0  0  0  0  0  0  0  0
   26.4180  -20.1777  -13.3858 C   0  0  2  0  0  0  0  0  0  0  0  0
   25.2227  -19.8268  -14.0962 N   0  0  0  0  0  0  0  0  0  0  0  0
   26.2415  -20.3192  -11.9411 C   0  0  0  0  0  0  0  0  0  0  0  0
   25.5385  -19.4613  -11.2982 O   0  0  0  0  0  0  0  0  0  0  0  0
   26.7935  -21.3521  -11.1527 N   0  0  0  0  0  0  0  0  0  0  0  0
   26.6148  -21.4765   -9.7111 C   0  0  1  0  0  0  0  0  0  0  0  0
   27.8626  -21.1609   -8.9733 C   0  0  0  0  0  0  0  0  0  0  0  0
   27.6309  -20.2458   -7.8432 C   0  0  0  0  0  0  0  0  0  0  0  0
   26.6203  -19.2785   -7.7417 C   0  0  0  0  0  0  0  0  0  0  0  0
   26.7460  -18.6099   -6.5850 N   0  0  0  0  0  0  0  0  0  0  0  0
   27.7965  -19.0820   -5.8974 C   0  0  0  0  0  0  0  0  0  0  0  0
   28.3150  -18.7287   -4.6511 C   0  0  0  0  0  0  0  0  0  0  0  0
   29.4061  -19.4274   -4.2051 C   0  0  0  0  0  0  0  0  0  0  0  0
   29.9943  -20.4563   -4.9495 C   0  0  0  0  0  0  0  0  0  0  0  0
   29.4487  -20.7604   -6.1608 C   0  0  0  0  0  0  0  0  0  0  0  0
   28.3485  -20.0904   -6.6645 C   0  0  0  0  0  0  0  0  0  0  0  0
   25.4076  -20.8603   -9.2231 C   0  0  0  0  0  0  0  0  0  0  0  0
   24.6452  -19.9231   -9.9279 O   0  0  0  0  0  0  0  0  0  0  0  0
   24.9325  -21.1338   -8.0629 O   0  0  0  0  0  0  0  0  0  0  0  0
  2  3  1  0
  2  1  1  1
  3  4  1  0
  4  5  1  0
  5  9  1  0
  6  5  2  0
  7  8  2  0
  7  2  1  0
 10 11  1  0
 11 13  1  0
 12 11  2  0
 13 14  1  0
 15 14  1  1
 15 16  1  0
 16  7  1  0
 17 15  1  0
 17 19  1  0
 18 17  2  0
 20 19  1  0
 20 31  1  0
 20 21  1  1
 22 21  1  0
 23 22  2  0
 24 25  1  0
 24 23  1  0
 25 30  2  0
 26 25  1  0
 26 27  2  0
 27 28  1  0
 28 29  2  0
 30 22  1  0
 30 29  1  0
 31 32  1  0
 33 31  2  0
M  END
$$$$
