EQW.pdb
     RDKit          3D

 33 34  0  0  1  0  0  0  0  0999 V2000
   25.9469  -20.5383  -15.9387 N   0  0  0  0  0  0  0  0  0  0  0  0
   25.8293  -19.2096  -15.4514 C   0  0  1  0  0  0  0  0  0  0  0  0
   25.0318  -18.2588  -16.2773 C   0  0  0  0  0  0  0  0  0  0  0  0
   24.9718  -18.5358  -17.7348 C   0  0  0  0  0  0  0  0  0  0  0  0
   26.2385  -18.6950  -18.4385 C   0  0  0  0  0  0  0  0  0  0  0  0
   27.2594  -18.0553  -18.1412 O   0  0  0  0  0  0  0  0  0  0  0  0
   25.1746  -19.2296  -14.0858 C   0  0  0  0  0  0  0  0  0  0  0  0
   24.9018  -18.1506  -13.5400 O   0  0  0  0  0  0  0  0  0  0  0  0
   26.3286  -19.6058  -19.5033 O   0  0  0  0  0  0  0  0  0  0  0  0
   20.9179  -18.7681  -13.1527 N   0  0  0  0  0  0  0  0  0  0  0  0
   21.1431  -20.0105  -12.4503 C   0  0  0  0  0  0  0  0  0  0  0  0
   20.5756  -20.1570  -11.3604 O   0  0  0  0  0  0  0  0  0  0  0  0
   22.0070  -21.0340  -13.0268 C   0  0  0  0  0  0  0  0  0  0  0  0
   23.0936  -21.5491  -12.1614 C   0  0  0  0  0  0  0  0  0  0  0  0
   24.3328  -20.6669  -12.1783 C   0  0  2  0  0  0  0  0  0  0  0  0
   24.8974  -20.4807  -13.4833 N   0  0  0  0  0  0  0  0  0  0  0  0
   25.3030  -21.0354  -11.1482 C   0  0  0  0  0  0  0  0  0  0  0  0
   26.5023  -21.3408  -11.4828 O   0  0  0  0  0  0  0  0  0  0  0  0
   25.0358  -21.0899   -9.7630 N   0  0  0  0  0  0  0  0  0  0  0  0
   26.0572  -21.1988   -8.7282 C   0  0  1  0  0  0  0  0  0  0  0  0
   27.1527  -20.2194   -8.9320 C   0  0  0  0  0  0  0  0  0  0  0  0
   28.2893  -20.4511   -8.0250 C   0  0  0  0  0  0  0  0  0  0  0  0
   29.3768  -21.3088   -8.2462 C   0  0  0  0  0  0  0  0  0  0  0  0
   30.1956  -21.2877   -7.1833 N   0  0  0  0  0  0  0  0  0  0  0  0
   29.7118  -20.4527   -6.2517 C   0  0  0  0  0  0  0  0  0  0  0  0
   30.2054  -20.0850   -4.9995 C   0  0  0  0  0  0  0  0  0  0  0  0
   29.4760  -19.1746   -4.2807 C   0  0  0  0  0  0  0  0  0  0  0  0
   28.2827  -18.6222   -4.7603 C   0  0  0  0  0  0  0  0  0  0  0  0
   27.8451  -19.0166   -5.9892 C   0  0  0  0  0  0  0  0  0  0  0  0
   28.5372  -19.9322   -6.7609 C   0  0  0  0  0  0  0  0  0  0  0  0
   25.5209  -21.2933   -7.3945 C   0  0  0  0  0  0  0  0  0  0  0  0
   26.1307  -21.9679   -6.3318 O   0  0  0  0  0  0  0  0  0  0  0  0
   24.4025  -20.7500   -7.0777 O   0  0  0  0  0  0  0  0  0  0  0  0
  2  3  1  0
  2  1  1  6
  3  4  1  0
  4  5  1  0
  5  9  1  0
  6  5  2  0
  7  8  2  0
  7  2  1  0
 10 11  1  0
 11 13  1  0
 12 11  2  0
 13 14  1  0
 15 14  1  6
 15 16  1  0
 16  7  1  0
 17 15  1  0
 17 19  1  0
 18 17  2  0
 20 19  1  0
 20 31  1  0
 20 21  1  1
 22 21  1  0
 23 22  2  0
 24 25  1  0
 24 23  1  0
 25 30  2  0
 26 25  1  0
 26 27  2  0
 27 28  1  0
 28 29  2  0
 30 22  1  0
 30 29  1  0
 31 32  1  0
 33 31  2  0
M  END
$$$$
