EQW.pdb
     RDKit          3D

 33 34  0  0  1  0  0  0  0  0999 V2000
   23.1115  -16.5318  -16.2107 N   0  0  0  0  0  0  0  0  0  0  0  0
   24.2088  -17.3307  -15.7934 C   0  0  1  0  0  0  0  0  0  0  0  0
   25.4185  -16.6092  -15.3054 C   0  0  0  0  0  0  0  0  0  0  0  0
   26.1824  -15.8361  -16.3171 C   0  0  0  0  0  0  0  0  0  0  0  0
   26.9926  -16.5913  -17.2647 C   0  0  0  0  0  0  0  0  0  0  0  0
   27.9530  -17.2964  -16.9180 O   0  0  0  0  0  0  0  0  0  0  0  0
   23.7725  -18.2330  -14.6579 C   0  0  0  0  0  0  0  0  0  0  0  0
   23.0495  -17.7630  -13.7676 O   0  0  0  0  0  0  0  0  0  0  0  0
   26.6909  -16.5311  -18.6347 O   0  0  0  0  0  0  0  0  0  0  0  0
   24.6996  -24.4278  -14.3490 N   0  0  0  0  0  0  0  0  0  0  0  0
   23.8559  -24.1619  -13.2066 C   0  0  0  0  0  0  0  0  0  0  0  0
   23.7210  -25.0703  -12.3772 O   0  0  0  0  0  0  0  0  0  0  0  0
   23.2040  -22.8658  -13.0608 C   0  0  0  0  0  0  0  0  0  0  0  0
   23.4377  -21.8805  -14.1422 C   0  0  0  0  0  0  0  0  0  0  0  0
   23.9344  -20.5392  -13.6243 C   0  0  2  0  0  0  0  0  0  0  0  0
   24.2062  -19.5811  -14.6560 N   0  0  0  0  0  0  0  0  0  0  0  0
   24.9999  -20.6758  -12.6320 C   0  0  0  0  0  0  0  0  0  0  0  0
   26.1734  -21.0349  -13.0028 O   0  0  0  0  0  0  0  0  0  0  0  0
   24.8554  -20.4408  -11.2475 N   0  0  0  0  0  0  0  0  0  0  0  0
   25.8508  -20.7916  -10.2416 C   0  0  1  0  0  0  0  0  0  0  0  0
   26.7467  -19.6500   -9.9333 C   0  0  0  0  0  0  0  0  0  0  0  0
   27.8774  -20.0393   -9.0743 C   0  0  0  0  0  0  0  0  0  0  0  0
   28.8915  -20.9561   -9.3879 C   0  0  0  0  0  0  0  0  0  0  0  0
   29.7277  -21.0827   -8.3461 N   0  0  0  0  0  0  0  0  0  0  0  0
   29.3259  -20.2914   -7.3404 C   0  0  0  0  0  0  0  0  0  0  0  0
   29.8680  -20.0642   -6.0749 C   0  0  0  0  0  0  0  0  0  0  0  0
   29.2234  -19.1622   -5.2696 C   0  0  0  0  0  0  0  0  0  0  0  0
   28.0683  -18.4843   -5.6759 C   0  0  0  0  0  0  0  0  0  0  0  0
   27.5804  -18.7442   -6.9216 C   0  0  0  0  0  0  0  0  0  0  0  0
   28.1864  -19.6442   -7.7793 C   0  0  0  0  0  0  0  0  0  0  0  0
   25.3065  -21.5030   -9.1133 C   0  0  0  0  0  0  0  0  0  0  0  0
   25.9209  -22.5867   -8.4774 O   0  0  0  0  0  0  0  0  0  0  0  0
   24.1760  -21.1841   -8.5971 O   0  0  0  0  0  0  0  0  0  0  0  0
  2  3  1  0
  2  1  1  1
  3  4  1  0
  4  5  1  0
  5  9  1  0
  6  5  2  0
  7  8  2  0
  7  2  1  0
 10 11  1  0
 11 13  1  0
 12 11  2  0
 13 14  1  0
 15 14  1  6
 15 16  1  0
 16  7  1  0
 17 15  1  0
 17 19  1  0
 18 17  2  0
 20 19  1  0
 20 31  1  0
 20 21  1  1
 22 21  1  0
 23 22  2  0
 24 25  1  0
 24 23  1  0
 25 30  2  0
 26 25  1  0
 26 27  2  0
 27 28  1  0
 28 29  2  0
 30 22  1  0
 30 29  1  0
 31 32  1  0
 33 31  2  0
M  END
$$$$
