EQW.pdb
     RDKit          3D

 33 34  0  0  1  0  0  0  0  0999 V2000
   26.1015  -22.1377  -17.0548 N   0  0  0  0  0  0  0  0  0  0  0  0
   27.4668  -22.4044  -16.7696 C   0  0  1  0  0  0  0  0  0  0  0  0
   28.4587  -22.0235  -17.8151 C   0  0  0  0  0  0  0  0  0  0  0  0
   28.1341  -20.8272  -18.6324 C   0  0  0  0  0  0  0  0  0  0  0  0
   28.5199  -20.8521  -20.0379 C   0  0  0  0  0  0  0  0  0  0  0  0
   29.3873  -20.1020  -20.5119 O   0  0  0  0  0  0  0  0  0  0  0  0
   27.8742  -21.6609  -15.5146 C   0  0  0  0  0  0  0  0  0  0  0  0
   29.0242  -21.8141  -15.0782 O   0  0  0  0  0  0  0  0  0  0  0  0
   27.8940  -21.7560  -20.9112 O   0  0  0  0  0  0  0  0  0  0  0  0
   26.3250  -15.8577  -14.5728 N   0  0  0  0  0  0  0  0  0  0  0  0
   27.1378  -16.6453  -15.4710 C   0  0  0  0  0  0  0  0  0  0  0  0
   27.5336  -16.0963  -16.5069 O   0  0  0  0  0  0  0  0  0  0  0  0
   27.4652  -18.0280  -15.1437 C   0  0  0  0  0  0  0  0  0  0  0  0
   26.9182  -18.5559  -13.8721 C   0  0  0  0  0  0  0  0  0  0  0  0
   27.1575  -20.0481  -13.6985 C   0  0  2  0  0  0  0  0  0  0  0  0
   26.9261  -20.8171  -14.8866 N   0  0  0  0  0  0  0  0  0  0  0  0
   26.5202  -20.5868  -12.4976 C   0  0  0  0  0  0  0  0  0  0  0  0
   25.2763  -20.8963  -12.5209 O   0  0  0  0  0  0  0  0  0  0  0  0
   27.1690  -20.8082  -11.2635 N   0  0  0  0  0  0  0  0  0  0  0  0
   26.4900  -21.1804  -10.0281 C   0  0  1  0  0  0  0  0  0  0  0  0
   27.4519  -21.5710   -8.9684 C   0  0  0  0  0  0  0  0  0  0  0  0
   27.5508  -20.5626   -7.9001 C   0  0  0  0  0  0  0  0  0  0  0  0
   26.9188  -19.3108   -7.8680 C   0  0  0  0  0  0  0  0  0  0  0  0
   27.2737  -18.6511   -6.7547 N   0  0  0  0  0  0  0  0  0  0  0  0
   28.1177  -19.4007   -6.0301 C   0  0  0  0  0  0  0  0  0  0  0  0
   28.7401  -19.1623   -4.8042 C   0  0  0  0  0  0  0  0  0  0  0  0
   29.5443  -20.1536   -4.3062 C   0  0  0  0  0  0  0  0  0  0  0  0
   29.7490  -21.3634   -4.9795 C   0  0  0  0  0  0  0  0  0  0  0  0
   29.1178  -21.5443   -6.1737 C   0  0  0  0  0  0  0  0  0  0  0  0
   28.2948  -20.5806   -6.7276 C   0  0  0  0  0  0  0  0  0  0  0  0
   25.4480  -20.2634   -9.6425 C   0  0  0  0  0  0  0  0  0  0  0  0
   24.2835  -20.6179   -8.9536 O   0  0  0  0  0  0  0  0  0  0  0  0
   25.5149  -19.0122   -9.9189 O   0  0  0  0  0  0  0  0  0  0  0  0
  2  3  1  0
  2  1  1  6
  3  4  1  0
  4  5  1  0
  5  9  1  0
  6  5  2  0
  7  8  2  0
  7  2  1  0
 10 11  1  0
 11 13  1  0
 12 11  2  0
 13 14  1  0
 15 14  1  6
 15 16  1  0
 16  7  1  0
 17 15  1  0
 17 19  1  0
 18 17  2  0
 20 19  1  0
 20 31  1  0
 20 21  1  1
 22 21  1  0
 23 22  2  0
 24 25  1  0
 24 23  1  0
 25 30  2  0
 26 25  1  0
 26 27  2  0
 27 28  1  0
 28 29  2  0
 30 22  1  0
 30 29  1  0
 31 32  1  0
 33 31  2  0
M  END
$$$$
