EQW.pdb
     RDKit          3D

 33 34  0  0  1  0  0  0  0  0999 V2000
   29.3022  -24.2913  -17.6003 N   0  0  0  0  0  0  0  0  0  0  0  0
   30.1799  -23.7817  -16.6070 C   0  0  1  0  0  0  0  0  0  0  0  0
   31.4739  -23.2133  -17.0809 C   0  0  0  0  0  0  0  0  0  0  0  0
   32.3538  -24.1242  -17.8558 C   0  0  0  0  0  0  0  0  0  0  0  0
   32.8048  -25.3423  -17.1942 C   0  0  0  0  0  0  0  0  0  0  0  0
   33.3571  -25.3406  -16.0830 O   0  0  0  0  0  0  0  0  0  0  0  0
   29.4881  -22.6705  -15.8451 C   0  0  0  0  0  0  0  0  0  0  0  0
   30.0865  -22.1321  -14.9025 O   0  0  0  0  0  0  0  0  0  0  0  0
   32.6170  -26.5825  -17.8253 O   0  0  0  0  0  0  0  0  0  0  0  0
   25.3040  -18.4521  -18.2121 N   0  0  0  0  0  0  0  0  0  0  0  0
   25.1315  -18.3931  -16.7788 C   0  0  0  0  0  0  0  0  0  0  0  0
   24.3736  -17.5220  -16.3339 O   0  0  0  0  0  0  0  0  0  0  0  0
   25.8325  -19.3361  -15.9153 C   0  0  0  0  0  0  0  0  0  0  0  0
   26.6931  -20.3372  -16.5874 C   0  0  0  0  0  0  0  0  0  0  0  0
   27.3912  -21.2702  -15.6094 C   0  0  2  0  0  0  0  0  0  0  0  0
   28.1829  -22.2869  -16.2386 N   0  0  0  0  0  0  0  0  0  0  0  0
   26.4971  -21.7635  -14.5626 C   0  0  0  0  0  0  0  0  0  0  0  0
   26.3603  -23.0256  -14.3843 O   0  0  0  0  0  0  0  0  0  0  0  0
   25.7382  -20.9505  -13.6930 N   0  0  0  0  0  0  0  0  0  0  0  0
   25.0086  -21.4410  -12.5298 C   0  0  1  0  0  0  0  0  0  0  0  0
   25.9026  -22.1419  -11.5757 C   0  0  0  0  0  0  0  0  0  0  0  0
   26.4010  -21.2509  -10.5147 C   0  0  0  0  0  0  0  0  0  0  0  0
   25.6478  -20.3313   -9.7700 C   0  0  0  0  0  0  0  0  0  0  0  0
   26.4488  -19.6706   -8.9200 N   0  0  0  0  0  0  0  0  0  0  0  0
   27.7115  -20.1024   -9.0547 C   0  0  0  0  0  0  0  0  0  0  0  0
   28.8842  -19.7399   -8.3910 C   0  0  0  0  0  0  0  0  0  0  0  0
   30.0343  -20.3935   -8.7481 C   0  0  0  0  0  0  0  0  0  0  0  0
   30.0582  -21.3865   -9.7342 C   0  0  0  0  0  0  0  0  0  0  0  0
   28.8849  -21.7015  -10.3518 C   0  0  0  0  0  0  0  0  0  0  0  0
   27.6925  -21.0763  -10.0351 C   0  0  0  0  0  0  0  0  0  0  0  0
   24.1011  -20.4741  -11.9670 C   0  0  0  0  0  0  0  0  0  0  0  0
   23.0328  -20.7782  -11.1170 O   0  0  0  0  0  0  0  0  0  0  0  0
   24.2099  -19.2208  -12.2193 O   0  0  0  0  0  0  0  0  0  0  0  0
  2  3  1  0
  2  1  1  6
  3  4  1  0
  4  5  1  0
  5  9  1  0
  6  5  2  0
  7  8  2  0
  7  2  1  0
 10 11  1  0
 11 13  1  0
 12 11  2  0
 13 14  1  0
 15 14  1  6
 15 16  1  0
 16  7  1  0
 17 15  1  0
 17 19  1  0
 18 17  2  0
 20 19  1  0
 20 31  1  0
 20 21  1  1
 22 21  1  0
 23 22  2  0
 24 25  1  0
 24 23  1  0
 25 30  2  0
 26 25  1  0
 26 27  2  0
 27 28  1  0
 28 29  2  0
 30 22  1  0
 30 29  1  0
 31 32  1  0
 33 31  2  0
M  END
$$$$
