CLT.pdb
     RDKit          3D

 22 21  0  0  1  0  0  0  0  0999 V2000
    7.8310  -14.0980   20.1512 N   0  0  0  0  0  0  0  0  0  0  0  0
    7.1700  -14.9137   21.1568 C   0  0  1  0  0  0  0  0  0  0  0  0
    7.1860  -16.3645   20.7408 C   0  0  0  0  0  0  0  0  0  0  0  0
    6.3061  -17.3002   22.0277 S   0  0  0  0  0  0  0  0  0  0  0  0
    7.8708  -14.6743   22.4440 C   0  0  0  0  0  0  0  0  0  0  0  0
    9.1128  -14.5049   22.3973 O   0  0  0  0  0  0  0  0  0  0  0  0
    5.8069  -11.7823   26.7620 C   0  0  0  0  0  0  0  0  0  0  0  0
    6.8207  -12.3909   25.8615 C   0  0  1  0  0  0  0  0  0  0  0  0
    8.1526  -11.6698   26.1217 C   0  0  0  0  0  0  0  0  0  0  0  0
    6.9739  -13.8512   25.8748 C   0  0  0  0  0  0  0  0  0  0  0  0
    7.9303  -14.5411   24.9838 C   0  0  2  0  0  0  0  0  0  0  0  0
    7.1892  -14.6351   23.6801 N   0  0  0  0  0  0  0  0  0  0  0  0
    8.3554  -15.8952   25.2821 C   0  0  0  0  0  0  0  0  0  0  0  0
    7.4790  -16.8135   25.4665 O   0  0  0  0  0  0  0  0  0  0  0  0
   10.4145  -18.1261   23.2261 C   0  0  0  0  0  0  0  0  0  0  0  0
   10.9965  -18.2107   24.6048 C   0  0  1  0  0  0  0  0  0  0  0  0
   12.1781  -17.4345   24.5997 O   0  0  0  0  0  0  0  0  0  0  0  0
   10.0733  -17.6810   25.6890 C   0  0  2  0  0  0  0  0  0  0  0  0
    9.7004  -16.3091   25.3804 N   0  0  0  0  0  0  0  0  0  0  0  0
   10.5978  -17.9041   27.0310 C   0  0  0  0  0  0  0  0  0  0  0  0
   10.8262  -17.0508   27.9154 O   0  0  0  0  0  0  0  0  0  0  0  0
   10.8888  -19.2267   27.4013 O   0  0  0  0  0  0  0  0  0  0  0  0
  2  1  1  6
  2  3  1  0
  2  5  1  0
  3  4  1  0
  5 12  1  0
  5  6  2  0
  8  7  1  1
  8 10  1  0
  8  9  1  0
 11 10  1  1
 11 13  1  0
 12 11  1  0
 13 19  1  0
 13 14  2  0
 16 15  1  6
 16 18  1  0
 17 16  1  0
 18 20  1  0
 18 19  1  6
 20 22  1  0
 21 20  2  0
M  END
$$$$
