CLT.pdb
     RDKit          3D

 22 21  0  0  1  0  0  0  0  0999 V2000
   10.9879  -18.5964   19.7723 N   0  0  0  0  0  0  0  0  0  0  0  0
    9.6366  -18.1333   20.0425 C   0  0  1  0  0  0  0  0  0  0  0  0
    8.8408  -19.2218   20.7209 C   0  0  0  0  0  0  0  0  0  0  0  0
    9.9651  -20.0688   21.8717 S   0  0  0  0  0  0  0  0  0  0  0  0
    9.7522  -16.9034   20.8666 C   0  0  0  0  0  0  0  0  0  0  0  0
   10.9019  -16.5722   21.2434 O   0  0  0  0  0  0  0  0  0  0  0  0
    6.3298  -12.8596   19.6150 C   0  0  0  0  0  0  0  0  0  0  0  0
    7.5457  -13.5971   20.0475 C   0  0  1  0  0  0  0  0  0  0  0  0
    8.7622  -12.7665   19.6098 C   0  0  0  0  0  0  0  0  0  0  0  0
    7.6414  -14.0151   21.4518 C   0  0  0  0  0  0  0  0  0  0  0  0
    8.7794  -14.8168   21.9489 C   0  0  2  0  0  0  0  0  0  0  0  0
    8.6300  -16.1242   21.2237 N   0  0  0  0  0  0  0  0  0  0  0  0
    8.8650  -15.1649   23.3542 C   0  0  0  0  0  0  0  0  0  0  0  0
    9.0231  -14.2430   24.2318 O   0  0  0  0  0  0  0  0  0  0  0  0
    6.2557  -17.0401   25.2933 C   0  0  0  0  0  0  0  0  0  0  0  0
    7.5825  -17.6580   25.6167 C   0  0  1  0  0  0  0  0  0  0  0  0
    7.6822  -18.8410   24.8491 O   0  0  0  0  0  0  0  0  0  0  0  0
    8.7666  -16.7649   25.2869 C   0  0  2  0  0  0  0  0  0  0  0  0
    8.7752  -16.4784   23.8608 N   0  0  0  0  0  0  0  0  0  0  0  0
   10.0198  -17.2696   25.8352 C   0  0  0  0  0  0  0  0  0  0  0  0
   11.0724  -17.5389   25.2173 O   0  0  0  0  0  0  0  0  0  0  0  0
   10.0798  -17.4870   27.2209 O   0  0  0  0  0  0  0  0  0  0  0  0
  2  1  1  1
  2  3  1  0
  2  5  1  0
  3  4  1  0
  5 12  1  0
  5  6  2  0
  8  7  1  1
  8 10  1  0
  8  9  1  0
 11 10  1  1
 11 13  1  0
 12 11  1  0
 13 19  1  0
 13 14  2  0
 16 15  1  6
 16 18  1  0
 17 16  1  0
 18 20  1  0
 18 19  1  6
 20 22  1  0
 21 20  2  0
M  END
$$$$
