CLT.pdb
     RDKit          3D

 22 21  0  0  1  0  0  0  0  0999 V2000
    4.8070  -19.5581   23.3581 N   0  0  0  0  0  0  0  0  0  0  0  0
    5.5797  -19.2032   24.5373 C   0  0  1  0  0  0  0  0  0  0  0  0
    6.5125  -20.3313   24.9054 C   0  0  0  0  0  0  0  0  0  0  0  0
    7.4264  -19.8083   26.3876 S   0  0  0  0  0  0  0  0  0  0  0  0
    6.2956  -17.9396   24.2272 C   0  0  0  0  0  0  0  0  0  0  0  0
    6.7393  -17.8037   23.0618 O   0  0  0  0  0  0  0  0  0  0  0  0
    7.3093  -12.4178   24.9024 C   0  0  0  0  0  0  0  0  0  0  0  0
    7.3773  -13.3788   26.0342 C   0  0  1  0  0  0  0  0  0  0  0  0
    6.8541  -12.6506   27.2822 C   0  0  0  0  0  0  0  0  0  0  0  0
    6.7533  -14.6970   25.8643 C   0  0  0  0  0  0  0  0  0  0  0  0
    7.2473  -15.6685   24.8659 C   0  0  2  0  0  0  0  0  0  0  0  0
    6.4816  -16.9208   25.1871 N   0  0  0  0  0  0  0  0  0  0  0  0
    8.6432  -16.0623   24.8629 C   0  0  0  0  0  0  0  0  0  0  0  0
    9.1427  -16.6503   25.8875 O   0  0  0  0  0  0  0  0  0  0  0  0
   10.1366  -17.6058   21.5589 C   0  0  0  0  0  0  0  0  0  0  0  0
   11.1785  -16.7949   22.2684 C   0  0  1  0  0  0  0  0  0  0  0  0
   11.2905  -15.5703   21.5709 O   0  0  0  0  0  0  0  0  0  0  0  0
   10.8354  -16.4973   23.7182 C   0  0  2  0  0  0  0  0  0  0  0  0
    9.5310  -15.8569   23.7861 N   0  0  0  0  0  0  0  0  0  0  0  0
   11.9121  -15.8083   24.4196 C   0  0  0  0  0  0  0  0  0  0  0  0
   11.8565  -14.7146   25.0221 O   0  0  0  0  0  0  0  0  0  0  0  0
   13.1730  -16.4256   24.4372 O   0  0  0  0  0  0  0  0  0  0  0  0
  2  1  1  6
  2  3  1  0
  2  5  1  0
  3  4  1  0
  5 12  1  0
  5  6  2  0
  8  7  1  6
  8 10  1  0
  8  9  1  0
 11 10  1  1
 11 13  1  0
 12 11  1  0
 13 19  1  0
 13 14  2  0
 16 15  1  6
 16 18  1  0
 17 16  1  0
 18 20  1  0
 18 19  1  6
 20 22  1  0
 21 20  2  0
M  END
$$$$
