CLT.pdb
     RDKit          3D

 22 21  0  0  1  0  0  0  0  0999 V2000
    8.9304  -16.1949   20.4264 N   0  0  0  0  0  0  0  0  0  0  0  0
    7.9161  -16.3667   21.4536 C   0  0  1  0  0  0  0  0  0  0  0  0
    7.7198  -17.8339   21.7488 C   0  0  0  0  0  0  0  0  0  0  0  0
    9.3487  -18.5155   22.1820 S   0  0  0  0  0  0  0  0  0  0  0  0
    8.3604  -15.5932   22.6408 C   0  0  0  0  0  0  0  0  0  0  0  0
    9.5871  -15.3506   22.7404 O   0  0  0  0  0  0  0  0  0  0  0  0
    7.6865  -11.3978   26.1667 C   0  0  0  0  0  0  0  0  0  0  0  0
    6.8064  -12.5875   26.3050 C   0  0  1  0  0  0  0  0  0  0  0  0
    5.4073  -12.0776   26.6845 C   0  0  0  0  0  0  0  0  0  0  0  0
    6.7595  -13.5492   25.1964 C   0  0  0  0  0  0  0  0  0  0  0  0
    7.9311  -14.3731   24.8315 C   0  0  2  0  0  0  0  0  0  0  0  0
    7.4589  -15.1400   23.6287 N   0  0  0  0  0  0  0  0  0  0  0  0
    8.4314  -15.3748   25.7532 C   0  0  0  0  0  0  0  0  0  0  0  0
    7.9124  -16.5477   25.7647 O   0  0  0  0  0  0  0  0  0  0  0  0
   12.3454  -15.5665   26.1404 C   0  0  0  0  0  0  0  0  0  0  0  0
   11.3715  -16.6757   26.4012 C   0  0  1  0  0  0  0  0  0  0  0  0
   12.0893  -17.7086   27.0465 O   0  0  0  0  0  0  0  0  0  0  0  0
   10.2071  -16.2676   27.2878 C   0  0  2  0  0  0  0  0  0  0  0  0
    9.4867  -15.1674   26.6660 N   0  0  0  0  0  0  0  0  0  0  0  0
   10.6051  -16.0557   28.6744 C   0  0  0  0  0  0  0  0  0  0  0  0
   11.2032  -16.8523   29.4295 O   0  0  0  0  0  0  0  0  0  0  0  0
   10.2926  -14.8167   29.2561 O   0  0  0  0  0  0  0  0  0  0  0  0
  2  1  1  6
  2  3  1  0
  2  5  1  0
  3  4  1  0
  5 12  1  0
  5  6  2  0
  8  7  1  6
  8 10  1  0
  8  9  1  0
 11 10  1  1
 11 13  1  0
 12 11  1  0
 13 19  1  0
 13 14  2  0
 16 15  1  1
 16 18  1  0
 17 16  1  0
 18 20  1  0
 18 19  1  6
 20 22  1  0
 21 20  2  0
M  END
$$$$
