CLT.pdb
     RDKit          3D

 22 21  0  0  1  0  0  0  0  0999 V2000
    8.7560  -15.5270   19.9609 N   0  0  0  0  0  0  0  0  0  0  0  0
    7.6134  -15.4358   20.8550 C   0  0  1  0  0  0  0  0  0  0  0  0
    6.8213  -16.7202   20.8176 C   0  0  0  0  0  0  0  0  0  0  0  0
    7.7733  -17.9634   21.7416 S   0  0  0  0  0  0  0  0  0  0  0  0
    8.1402  -15.1214   22.2074 C   0  0  0  0  0  0  0  0  0  0  0  0
    9.3748  -15.2525   22.3861 O   0  0  0  0  0  0  0  0  0  0  0  0
    8.2284  -12.1072   26.8359 C   0  0  0  0  0  0  0  0  0  0  0  0
    7.0267  -12.9418   26.5738 C   0  0  1  0  0  0  0  0  0  0  0  0
    5.8012  -12.1280   27.0182 C   0  0  0  0  0  0  0  0  0  0  0  0
    6.8538  -13.5072   25.2298 C   0  0  0  0  0  0  0  0  0  0  0  0
    7.8523  -14.4210   24.6360 C   0  0  2  0  0  0  0  0  0  0  0  0
    7.3060  -14.6921   23.2628 N   0  0  0  0  0  0  0  0  0  0  0  0
    8.0820  -15.7274   25.2225 C   0  0  0  0  0  0  0  0  0  0  0  0
    7.0895  -16.5049   25.4581 O   0  0  0  0  0  0  0  0  0  0  0  0
    9.7251  -18.6582   23.9638 C   0  0  0  0  0  0  0  0  0  0  0  0
   10.3327  -18.4503   25.3182 C   0  0  1  0  0  0  0  0  0  0  0  0
   11.6063  -17.8723   25.1121 O   0  0  0  0  0  0  0  0  0  0  0  0
    9.5219  -17.5297   26.2144 C   0  0  2  0  0  0  0  0  0  0  0  0
    9.3515  -16.2420   25.5594 N   0  0  0  0  0  0  0  0  0  0  0  0
   10.0353  -17.4792   27.5782 C   0  0  0  0  0  0  0  0  0  0  0  0
   10.4757  -16.4846   28.1941 O   0  0  0  0  0  0  0  0  0  0  0  0
   10.0470  -18.6767   28.3109 O   0  0  0  0  0  0  0  0  0  0  0  0
  2  1  1  6
  2  3  1  0
  2  5  1  0
  3  4  1  0
  5 12  1  0
  5  6  2  0
  8  7  1  6
  8 10  1  0
  8  9  1  0
 11 10  1  1
 11 13  1  0
 12 11  1  0
 13 19  1  0
 13 14  2  0
 16 15  1  6
 16 18  1  0
 17 16  1  0
 18 20  1  0
 18 19  1  6
 20 22  1  0
 21 20  2  0
M  END
$$$$
