CLT.pdb
     RDKit          3D

 22 21  0  0  1  0  0  0  0  0999 V2000
    9.6865  -18.6273   16.7992 N   0  0  0  0  0  0  0  0  0  0  0  0
    8.6290  -18.1158   17.6556 C   0  0  1  0  0  0  0  0  0  0  0  0
    7.8820  -19.2598   18.2974 C   0  0  0  0  0  0  0  0  0  0  0  0
    9.0925  -20.2178   19.2578 S   0  0  0  0  0  0  0  0  0  0  0  0
    9.2673  -17.2140   18.6478 C   0  0  0  0  0  0  0  0  0  0  0  0
   10.5208  -17.1704   18.6592 O   0  0  0  0  0  0  0  0  0  0  0  0
    6.5695  -12.5853   19.9976 C   0  0  0  0  0  0  0  0  0  0  0  0
    7.6474  -13.5546   19.6692 C   0  0  1  0  0  0  0  0  0  0  0  0
    8.7944  -12.7597   19.0258 C   0  0  0  0  0  0  0  0  0  0  0  0
    8.1255  -14.4478   20.7320 C   0  0  0  0  0  0  0  0  0  0  0  0
    9.1767  -15.4571   20.4855 C   0  0  2  0  0  0  0  0  0  0  0  0
    8.5158  -16.4299   19.5503 N   0  0  0  0  0  0  0  0  0  0  0  0
    9.6837  -16.2616   21.5805 C   0  0  0  0  0  0  0  0  0  0  0  0
    8.8646  -16.8471   22.3751 O   0  0  0  0  0  0  0  0  0  0  0  0
   11.9277  -19.2170   21.4288 C   0  0  0  0  0  0  0  0  0  0  0  0
   12.4875  -18.3237   22.4942 C   0  0  1  0  0  0  0  0  0  0  0  0
   13.6106  -17.6720   21.9350 O   0  0  0  0  0  0  0  0  0  0  0  0
   11.5080  -17.2692   22.9812 C   0  0  2  0  0  0  0  0  0  0  0  0
   11.0517  -16.4733   21.8523 N   0  0  0  0  0  0  0  0  0  0  0  0
   12.0172  -16.5134   24.1193 C   0  0  0  0  0  0  0  0  0  0  0  0
   12.2191  -15.2820   24.1920 O   0  0  0  0  0  0  0  0  0  0  0  0
   12.3248  -17.2293   25.2872 O   0  0  0  0  0  0  0  0  0  0  0  0
  2  1  1  6
  2  3  1  0
  2  5  1  0
  3  4  1  0
  5 12  1  0
  5  6  2  0
  8  7  1  1
  8 10  1  0
  8  9  1  0
 11 10  1  1
 11 13  1  0
 12 11  1  0
 13 19  1  0
 13 14  2  0
 16 15  1  6
 16 18  1  0
 17 16  1  0
 18 20  1  0
 18 19  1  6
 20 22  1  0
 21 20  2  0
M  END
$$$$
