CLT.pdb
     RDKit          3D

 22 21  0  0  1  0  0  0  0  0999 V2000
    9.2333  -16.1285   19.9726 N   0  0  0  0  0  0  0  0  0  0  0  0
    8.1936  -16.4493   20.9367 C   0  0  1  0  0  0  0  0  0  0  0  0
    7.9531  -17.9392   20.9642 C   0  0  0  0  0  0  0  0  0  0  0  0
    6.8547  -18.3300   19.5691 S   0  0  0  0  0  0  0  0  0  0  0  0
    8.6329  -15.9109   22.2492 C   0  0  0  0  0  0  0  0  0  0  0  0
    9.8662  -15.8932   22.4774 O   0  0  0  0  0  0  0  0  0  0  0  0
    8.3559  -12.4191   26.5286 C   0  0  0  0  0  0  0  0  0  0  0  0
    7.1826  -13.2880   26.2501 C   0  0  1  0  0  0  0  0  0  0  0  0
    5.9221  -12.4433   26.4933 C   0  0  0  0  0  0  0  0  0  0  0  0
    7.1316  -13.9948   24.9641 C   0  0  0  0  0  0  0  0  0  0  0  0
    8.1791  -14.9576   24.5637 C   0  0  2  0  0  0  0  0  0  0  0  0
    7.7195  -15.4343   23.2149 N   0  0  0  0  0  0  0  0  0  0  0  0
    8.3965  -16.1616   25.3425 C   0  0  0  0  0  0  0  0  0  0  0  0
    7.3931  -16.8549   25.7396 O   0  0  0  0  0  0  0  0  0  0  0  0
   10.2506  -19.1931   24.3389 C   0  0  0  0  0  0  0  0  0  0  0  0
   10.7501  -18.8342   25.7058 C   0  0  1  0  0  0  0  0  0  0  0  0
   12.0002  -18.1974   25.5316 O   0  0  0  0  0  0  0  0  0  0  0  0
    9.8283  -17.8935   26.4632 C   0  0  2  0  0  0  0  0  0  0  0  0
    9.6642  -16.6620   25.7065 N   0  0  0  0  0  0  0  0  0  0  0  0
   10.2189  -17.7278   27.8582 C   0  0  0  0  0  0  0  0  0  0  0  0
   10.4901  -16.6641   28.4562 O   0  0  0  0  0  0  0  0  0  0  0  0
   10.3077  -18.8851   28.6480 O   0  0  0  0  0  0  0  0  0  0  0  0
  2  1  1  6
  2  3  1  0
  2  5  1  0
  3  4  1  0
  5 12  1  0
  5  6  2  0
  8  7  1  6
  8 10  1  0
  8  9  1  0
 11 10  1  1
 11 13  1  0
 12 11  1  0
 13 19  1  0
 13 14  2  0
 16 15  1  6
 16 18  1  0
 17 16  1  0
 18 20  1  0
 18 19  1  6
 20 22  1  0
 21 20  2  0
M  END
$$$$
