CLT.pdb
     RDKit          3D

 22 21  0  0  1  0  0  0  0  0999 V2000
    8.5198  -15.1323   19.6342 N   0  0  0  0  0  0  0  0  0  0  0  0
    7.4285  -15.2354   20.5892 C   0  0  1  0  0  0  0  0  0  0  0  0
    6.7899  -16.6003   20.5021 C   0  0  0  0  0  0  0  0  0  0  0  0
    8.0442  -17.8120   21.0163 S   0  0  0  0  0  0  0  0  0  0  0  0
    7.9934  -14.9466   21.9319 C   0  0  0  0  0  0  0  0  0  0  0  0
    9.2392  -15.0212   22.0574 O   0  0  0  0  0  0  0  0  0  0  0  0
    8.0696  -11.9634   26.6245 C   0  0  0  0  0  0  0  0  0  0  0  0
    6.9090  -12.8491   26.3455 C   0  0  1  0  0  0  0  0  0  0  0  0
    5.6481  -12.1117   26.8227 C   0  0  0  0  0  0  0  0  0  0  0  0
    6.7533  -13.3821   24.9862 C   0  0  0  0  0  0  0  0  0  0  0  0
    7.7779  -14.2505   24.3692 C   0  0  2  0  0  0  0  0  0  0  0  0
    7.1824  -14.6013   23.0351 N   0  0  0  0  0  0  0  0  0  0  0  0
    8.1206  -15.5195   24.9821 C   0  0  0  0  0  0  0  0  0  0  0  0
    7.2064  -16.3939   25.1935 O   0  0  0  0  0  0  0  0  0  0  0  0
   10.1850  -18.1275   23.6420 C   0  0  0  0  0  0  0  0  0  0  0  0
   10.6907  -17.9401   25.0405 C   0  0  1  0  0  0  0  0  0  0  0  0
   11.8848  -17.1888   24.9477 O   0  0  0  0  0  0  0  0  0  0  0  0
    9.7206  -17.1986   25.9445 C   0  0  2  0  0  0  0  0  0  0  0  0
    9.4235  -15.8950   25.3712 N   0  0  0  0  0  0  0  0  0  0  0  0
   10.1471  -17.1907   27.3388 C   0  0  0  0  0  0  0  0  0  0  0  0
   10.3846  -16.1986   28.0611 O   0  0  0  0  0  0  0  0  0  0  0  0
   10.3184  -18.4325   27.9710 O   0  0  0  0  0  0  0  0  0  0  0  0
  2  1  1  6
  2  3  1  0
  2  5  1  0
  3  4  1  0
  5 12  1  0
  5  6  2  0
  8  7  1  6
  8 10  1  0
  8  9  1  0
 11 10  1  1
 11 13  1  0
 12 11  1  0
 13 19  1  0
 13 14  2  0
 16 15  1  6
 16 18  1  0
 17 16  1  0
 18 20  1  0
 18 19  1  6
 20 22  1  0
 21 20  2  0
M  END
$$$$
