CLT.pdb
     RDKit          3D

 22 21  0  0  1  0  0  0  0  0999 V2000
    7.8161  -15.8451   19.5664 N   0  0  0  0  0  0  0  0  0  0  0  0
    7.0627  -16.2194   20.7521 C   0  0  1  0  0  0  0  0  0  0  0  0
    6.9034  -17.7192   20.8138 C   0  0  0  0  0  0  0  0  0  0  0  0
    5.5318  -18.1579   19.7038 S   0  0  0  0  0  0  0  0  0  0  0  0
    7.7886  -15.6671   21.9240 C   0  0  0  0  0  0  0  0  0  0  0  0
    9.0335  -15.5503   21.8239 O   0  0  0  0  0  0  0  0  0  0  0  0
    8.2697  -12.2551   26.3341 C   0  0  0  0  0  0  0  0  0  0  0  0
    7.1861  -13.2710   26.2797 C   0  0  1  0  0  0  0  0  0  0  0  0
    5.9347  -12.6364   26.9064 C   0  0  0  0  0  0  0  0  0  0  0  0
    6.8932  -13.9053   24.9882 C   0  0  0  0  0  0  0  0  0  0  0  0
    7.8838  -14.7581   24.2981 C   0  0  2  0  0  0  0  0  0  0  0  0
    7.1271  -15.2836   23.1112 N   0  0  0  0  0  0  0  0  0  0  0  0
    8.4210  -15.9310   24.9608 C   0  0  0  0  0  0  0  0  0  0  0  0
    7.6241  -16.8022   25.4618 O   0  0  0  0  0  0  0  0  0  0  0  0
   10.8324  -18.2924   23.3278 C   0  0  0  0  0  0  0  0  0  0  0  0
   11.3296  -18.0590   24.7224 C   0  0  1  0  0  0  0  0  0  0  0  0
   12.4102  -17.1523   24.6264 O   0  0  0  0  0  0  0  0  0  0  0  0
   10.2824  -17.4683   25.6513 C   0  0  2  0  0  0  0  0  0  0  0  0
    9.7961  -16.2138   25.0982 N   0  0  0  0  0  0  0  0  0  0  0  0
   10.7294  -17.4136   27.0381 C   0  0  0  0  0  0  0  0  0  0  0  0
   10.8680  -16.4015   27.7584 O   0  0  0  0  0  0  0  0  0  0  0  0
   11.0477  -18.6290   27.6647 O   0  0  0  0  0  0  0  0  0  0  0  0
  2  1  1  6
  2  3  1  0
  2  5  1  0
  3  4  1  0
  5 12  1  0
  5  6  2  0
  8  7  1  6
  8 10  1  0
  8  9  1  0
 11 10  1  1
 11 13  1  0
 12 11  1  0
 13 19  1  0
 13 14  2  0
 16 15  1  6
 16 18  1  0
 17 16  1  0
 18 20  1  0
 18 19  1  6
 20 22  1  0
 21 20  2  0
M  END
$$$$
