CLT.pdb
     RDKit          3D

 22 21  0  0  1  0  0  0  0  0999 V2000
    8.3181  -14.7281   20.2856 N   0  0  0  0  0  0  0  0  0  0  0  0
    7.5024  -15.4283   21.2644 C   0  0  1  0  0  0  0  0  0  0  0  0
    7.4782  -16.9061   20.9579 C   0  0  0  0  0  0  0  0  0  0  0  0
    6.6412  -17.1071   19.3564 S   0  0  0  0  0  0  0  0  0  0  0  0
    8.0690  -15.1253   22.6032 C   0  0  0  0  0  0  0  0  0  0  0  0
    9.3164  -15.0240   22.6877 O   0  0  0  0  0  0  0  0  0  0  0  0
    5.5925  -11.7849   26.2907 C   0  0  0  0  0  0  0  0  0  0  0  0
    6.7051  -12.4971   25.6095 C   0  0  1  0  0  0  0  0  0  0  0  0
    8.0033  -11.7515   25.9563 C   0  0  0  0  0  0  0  0  0  0  0  0
    6.8309  -13.9456   25.8145 C   0  0  0  0  0  0  0  0  0  0  0  0
    7.8550  -14.7449   25.1094 C   0  0  2  0  0  0  0  0  0  0  0  0
    7.2581  -14.9550   23.7466 N   0  0  0  0  0  0  0  0  0  0  0  0
    8.1984  -16.0707   25.5865 C   0  0  0  0  0  0  0  0  0  0  0  0
    7.2688  -16.9026   25.8845 O   0  0  0  0  0  0  0  0  0  0  0  0
   10.2171  -18.7316   23.9375 C   0  0  0  0  0  0  0  0  0  0  0  0
   10.7496  -18.5978   25.3322 C   0  0  1  0  0  0  0  0  0  0  0  0
   11.9540  -17.8629   25.2427 O   0  0  0  0  0  0  0  0  0  0  0  0
    9.8073  -17.8709   26.2766 C   0  0  2  0  0  0  0  0  0  0  0  0
    9.5163  -16.5475   25.7474 N   0  0  0  0  0  0  0  0  0  0  0  0
   10.2613  -17.9092   27.6617 C   0  0  0  0  0  0  0  0  0  0  0  0
   10.5914  -16.9455   28.3860 O   0  0  0  0  0  0  0  0  0  0  0  0
   10.3460  -19.1662   28.2812 O   0  0  0  0  0  0  0  0  0  0  0  0
  2  1  1  6
  2  3  1  0
  2  5  1  0
  3  4  1  0
  5 12  1  0
  5  6  2  0
  8  7  1  1
  8 10  1  0
  8  9  1  0
 11 10  1  1
 11 13  1  0
 12 11  1  0
 13 19  1  0
 13 14  2  0
 16 15  1  6
 16 18  1  0
 17 16  1  0
 18 20  1  0
 18 19  1  6
 20 22  1  0
 21 20  2  0
M  END
$$$$
