CLT.pdb
     RDKit          3D

 22 21  0  0  1  0  0  0  0  0999 V2000
    7.7340  -14.6141   20.2767 N   0  0  0  0  0  0  0  0  0  0  0  0
    7.0332  -15.3100   21.3435 C   0  0  1  0  0  0  0  0  0  0  0  0
    6.9467  -16.7844   21.0321 C   0  0  0  0  0  0  0  0  0  0  0  0
    5.2543  -17.1110   20.4534 S   0  0  0  0  0  0  0  0  0  0  0  0
    7.7652  -15.0280   22.6044 C   0  0  0  0  0  0  0  0  0  0  0  0
    9.0123  -14.9149   22.5299 O   0  0  0  0  0  0  0  0  0  0  0  0
    5.6615  -11.7735   26.5712 C   0  0  0  0  0  0  0  0  0  0  0  0
    6.6824  -12.4531   25.7315 C   0  0  1  0  0  0  0  0  0  0  0  0
    7.9767  -11.6310   25.8334 C   0  0  0  0  0  0  0  0  0  0  0  0
    6.9213  -13.8850   25.9518 C   0  0  0  0  0  0  0  0  0  0  0  0
    7.8705  -14.6525   25.1183 C   0  0  2  0  0  0  0  0  0  0  0  0
    7.1070  -14.8895   23.8461 N   0  0  0  0  0  0  0  0  0  0  0  0
    8.3191  -15.9635   25.5466 C   0  0  0  0  0  0  0  0  0  0  0  0
    7.4623  -16.8953   25.7535 O   0  0  0  0  0  0  0  0  0  0  0  0
   10.3773  -18.2418   23.6743 C   0  0  0  0  0  0  0  0  0  0  0  0
   10.9891  -18.2303   25.0426 C   0  0  1  0  0  0  0  0  0  0  0  0
   12.1440  -17.4181   24.9688 O   0  0  0  0  0  0  0  0  0  0  0  0
   10.0706  -17.6705   26.1155 C   0  0  2  0  0  0  0  0  0  0  0  0
    9.6682  -16.3204   25.7530 N   0  0  0  0  0  0  0  0  0  0  0  0
   10.6169  -17.8254   27.4585 C   0  0  0  0  0  0  0  0  0  0  0  0
   10.8850  -16.9262   28.2843 O   0  0  0  0  0  0  0  0  0  0  0  0
   10.8820  -19.1302   27.9036 O   0  0  0  0  0  0  0  0  0  0  0  0
  2  1  1  6
  2  3  1  0
  2  5  1  0
  3  4  1  0
  5 12  1  0
  5  6  2  0
  8  7  1  1
  8 10  1  0
  8  9  1  0
 11 10  1  1
 11 13  1  0
 12 11  1  0
 13 19  1  0
 13 14  2  0
 16 15  1  6
 16 18  1  0
 17 16  1  0
 18 20  1  0
 18 19  1  6
 20 22  1  0
 21 20  2  0
M  END
$$$$
