CLT.pdb
     RDKit          3D

 22 21  0  0  1  0  0  0  0  0999 V2000
    7.7909  -15.5650   20.9385 N   0  0  0  0  0  0  0  0  0  0  0  0
    7.1261  -15.9699   22.1664 C   0  0  1  0  0  0  0  0  0  0  0  0
    7.0593  -17.4757   22.2482 C   0  0  0  0  0  0  0  0  0  0  0  0
    5.5027  -17.9860   21.4594 S   0  0  0  0  0  0  0  0  0  0  0  0
    7.8804  -15.3633   23.2927 C   0  0  0  0  0  0  0  0  0  0  0  0
    9.1190  -15.2299   23.1467 O   0  0  0  0  0  0  0  0  0  0  0  0
    5.4711  -11.5006   26.3077 C   0  0  0  0  0  0  0  0  0  0  0  0
    6.4647  -12.3335   25.5807 C   0  0  1  0  0  0  0  0  0  0  0  0
    7.5229  -11.3803   25.0036 C   0  0  0  0  0  0  0  0  0  0  0  0
    7.0728  -13.4662   26.2899 C   0  0  0  0  0  0  0  0  0  0  0  0
    8.0381  -14.3699   25.6293 C   0  0  2  0  0  0  0  0  0  0  0  0
    7.2516  -14.9474   24.4867 N   0  0  0  0  0  0  0  0  0  0  0  0
    8.5712  -15.5131   26.3449 C   0  0  0  0  0  0  0  0  0  0  0  0
    9.1541  -15.3439   27.4748 O   0  0  0  0  0  0  0  0  0  0  0  0
    7.0289  -19.2892   26.6588 C   0  0  0  0  0  0  0  0  0  0  0  0
    8.4687  -19.2508   26.2440 C   0  0  1  0  0  0  0  0  0  0  0  0
    8.4966  -19.4309   24.8420 O   0  0  0  0  0  0  0  0  0  0  0  0
    9.1640  -17.9420   26.5784 C   0  0  2  0  0  0  0  0  0  0  0  0
    8.4923  -16.8477   25.8947 N   0  0  0  0  0  0  0  0  0  0  0  0
   10.6083  -18.0099   26.3901 C   0  0  0  0  0  0  0  0  0  0  0  0
   11.3202  -17.2857   25.6613 O   0  0  0  0  0  0  0  0  0  0  0  0
   11.3088  -18.9968   27.1016 O   0  0  0  0  0  0  0  0  0  0  0  0
  2  1  1  6
  2  3  1  0
  2  5  1  0
  3  4  1  0
  5 12  1  0
  5  6  2  0
  8  7  1  1
  8 10  1  0
  8  9  1  0
 11 10  1  1
 11 13  1  0
 12 11  1  0
 13 19  1  0
 13 14  2  0
 16 15  1  6
 16 18  1  0
 17 16  1  0
 18 20  1  0
 18 19  1  6
 20 22  1  0
 21 20  2  0
M  END
$$$$
