KVY.pdb
     RDKit          3D

 29 29  0  0  1  0  0  0  0  0999 V2000
   28.9681  -21.7638  -15.6317 N   0  0  0  0  0  0  0  0  0  0  0  0
   27.9375  -21.1582  -16.4220 C   0  0  1  0  0  0  0  0  0  0  0  0
   26.8070  -22.1051  -16.7514 C   0  0  0  0  0  0  0  0  0  0  0  0
   27.2310  -23.4165  -17.2937 C   0  0  0  0  0  0  0  0  0  0  0  0
   27.1221  -24.6014  -16.4072 C   0  0  0  0  0  0  0  0  0  0  0  0
   25.9911  -25.5297  -16.6775 C   0  0  0  0  0  0  0  0  0  0  0  0
   26.2473  -26.5853  -17.5877 N   0  0  0  0  0  0  0  0  0  0  0  0
   27.3352  -19.9854  -15.7286 C   0  0  0  0  0  0  0  0  0  0  0  0
   27.1668  -20.0415  -14.4819 O   0  0  0  0  0  0  0  0  0  0  0  0
   26.8850  -16.1338  -17.5919 C   0  0  0  0  0  0  0  0  0  0  0  0
   26.8657  -16.3316  -16.0852 C   0  0  1  0  0  0  0  0  0  0  0  0
   26.2216  -15.1876  -15.3605 C   0  0  0  0  0  0  0  0  0  0  0  0
   26.3366  -17.6713  -15.6954 C   0  0  2  0  0  0  0  0  0  0  0  0
   26.9295  -18.7995  -16.3431 N   0  0  0  0  0  0  0  0  0  0  0  0
   24.8560  -17.6513  -15.8311 C   0  0  0  0  0  0  0  0  0  0  0  0
   24.3013  -17.8693  -16.9633 O   0  0  0  0  0  0  0  0  0  0  0  0
   16.1825  -17.5963  -14.2950 O   0  0  0  0  0  0  0  0  0  0  0  0
   17.5621  -17.5538  -14.1240 C   0  0  0  0  0  0  0  0  0  0  0  0
   18.2988  -18.7190  -14.1458 C   0  0  0  0  0  0  0  0  0  0  0  0
   19.6581  -18.6655  -13.9761 C   0  0  0  0  0  0  0  0  0  0  0  0
   20.3524  -17.4666  -13.7779 C   0  0  0  0  0  0  0  0  0  0  0  0
   21.8183  -17.4352  -13.5971 C   0  0  0  0  0  0  0  0  0  0  0  0
   22.5126  -17.3500  -14.9298 C   0  0  2  0  0  0  0  0  0  0  0  0
   23.9637  -17.3986  -14.7577 N   0  0  0  0  0  0  0  0  0  0  0  0
   22.1016  -16.2433  -15.7882 C   0  0  0  0  0  0  0  0  0  0  0  0
   22.6027  -15.1105  -15.6608 O   0  0  0  0  0  0  0  0  0  0  0  0
   19.5942  -16.2953  -13.7581 C   0  0  0  0  0  0  0  0  0  0  0  0
   18.2427  -16.3755  -13.9294 C   0  0  0  0  0  0  0  0  0  0  0  0
   21.1408  -16.4304  -16.7677 O   0  0  0  0  0  0  0  0  0  0  0  0
  2  1  1  1
  2  8  1  0
  2  3  1  0
  3  4  1  0
  4  5  1  0
  5  6  1  0
  6  7  1  0
  8  9  2  0
 11 10  1  6
 11 12  1  0
 13 11  1  0
 13 14  1  6
 14  8  1  0
 15 13  1  0
 16 15  2  0
 18 17  1  0
 18 19  2  0
 20 19  1  0
 21 22  1  0
 21 20  2  0
 23 22  1  1
 23 24  1  0
 24 15  1  0
 25 23  1  0
 25 29  1  0
 26 25  2  0
 27 28  2  0
 27 21  1  0
 28 18  1  0
M  END
$$$$
