KVY.pdb
     RDKit          3D

 29 29  0  0  1  0  0  0  0  0999 V2000
   21.1352  -14.6896  -22.4818 N   0  0  0  0  0  0  0  0  0  0  0  0
   20.3083  -13.8993  -21.6187 C   0  0  1  0  0  0  0  0  0  0  0  0
   19.9305  -14.6120  -20.3410 C   0  0  0  0  0  0  0  0  0  0  0  0
   19.4310  -15.9944  -20.5232 C   0  0  0  0  0  0  0  0  0  0  0  0
   19.1087  -16.7811  -19.3071 C   0  0  0  0  0  0  0  0  0  0  0  0
   18.6384  -18.1758  -19.5254 C   0  0  0  0  0  0  0  0  0  0  0  0
   19.5368  -19.2078  -19.1560 N   0  0  0  0  0  0  0  0  0  0  0  0
   20.9834  -12.6306  -21.2264 C   0  0  0  0  0  0  0  0  0  0  0  0
   22.2362  -12.6268  -21.1002 O   0  0  0  0  0  0  0  0  0  0  0  0
   21.4174   -9.2081  -22.9001 C   0  0  0  0  0  0  0  0  0  0  0  0
   20.7319   -9.0310  -21.5553 C   0  0  1  0  0  0  0  0  0  0  0  0
   19.2856   -8.6582  -21.6888 C   0  0  0  0  0  0  0  0  0  0  0  0
   20.9797  -10.1801  -20.6363 C   0  0  2  0  0  0  0  0  0  0  0  0
   20.3447  -11.4141  -20.9795 N   0  0  0  0  0  0  0  0  0  0  0  0
   20.6699   -9.7485  -19.2474 C   0  0  0  0  0  0  0  0  0  0  0  0
   19.7054  -10.2822  -18.5979 O   0  0  0  0  0  0  0  0  0  0  0  0
   20.4219   -8.6413  -10.8077 O   0  0  0  0  0  0  0  0  0  0  0  0
   20.6347   -8.9057  -12.1564 C   0  0  0  0  0  0  0  0  0  0  0  0
   21.9022   -9.1985  -12.6132 C   0  0  0  0  0  0  0  0  0  0  0  0
   22.1005   -9.4576  -13.9447 C   0  0  0  0  0  0  0  0  0  0  0  0
   21.0638   -9.4404  -14.8847 C   0  0  0  0  0  0  0  0  0  0  0  0
   21.3033   -9.7229  -16.3149 C   0  0  0  0  0  0  0  0  0  0  0  0
   21.1778   -8.4635  -17.1296 C   0  0  2  0  0  0  0  0  0  0  0  0
   21.3897   -8.7458  -18.5485 N   0  0  0  0  0  0  0  0  0  0  0  0
   21.9782   -7.3315  -16.6729 C   0  0  0  0  0  0  0  0  0  0  0  0
   23.1481   -7.1703  -17.0678 O   0  0  0  0  0  0  0  0  0  0  0  0
   19.7865   -9.1427  -14.4085 C   0  0  0  0  0  0  0  0  0  0  0  0
   19.6154   -8.8885  -13.0786 C   0  0  0  0  0  0  0  0  0  0  0  0
   21.4510   -6.4079  -15.7860 O   0  0  0  0  0  0  0  0  0  0  0  0
  2  1  1  6
  2  8  1  0
  2  3  1  0
  3  4  1  0
  4  5  1  0
  5  6  1  0
  6  7  1  0
  8  9  2  0
 11 10  1  6
 11 12  1  0
 13 11  1  0
 13 14  1  6
 14  8  1  0
 15 13  1  0
 16 15  2  0
 18 17  1  0
 18 19  2  0
 20 19  1  0
 21 22  1  0
 21 20  2  0
 23 22  1  1
 23 24  1  0
 24 15  1  0
 25 23  1  0
 25 29  1  0
 26 25  2  0
 27 28  2  0
 27 21  1  0
 28 18  1  0
M  END
$$$$
