KVY.pdb
     RDKit          3D

 29 29  0  0  1  0  0  0  0  0999 V2000
   22.1768  -18.5863  -16.4201 N   0  0  0  0  0  0  0  0  0  0  0  0
   22.9441  -18.0730  -15.3242 C   0  0  1  0  0  0  0  0  0  0  0  0
   22.0908  -17.4797  -14.2273 C   0  0  0  0  0  0  0  0  0  0  0  0
   21.3518  -16.2537  -14.6074 C   0  0  0  0  0  0  0  0  0  0  0  0
   20.2075  -16.3955  -15.5413 C   0  0  0  0  0  0  0  0  0  0  0  0
   19.4470  -15.1546  -15.8509 C   0  0  0  0  0  0  0  0  0  0  0  0
   18.3044  -15.3060  -16.6755 N   0  0  0  0  0  0  0  0  0  0  0  0
   23.7812  -19.1346  -14.6987 C   0  0  0  0  0  0  0  0  0  0  0  0
   23.2914  -20.2861  -14.5584 O   0  0  0  0  0  0  0  0  0  0  0  0
   26.8467  -20.7114  -16.0191 C   0  0  0  0  0  0  0  0  0  0  0  0
   27.1823  -20.2565  -14.6085 C   0  0  1  0  0  0  0  0  0  0  0  0
   28.1713  -19.1295  -14.5849 C   0  0  0  0  0  0  0  0  0  0  0  0
   25.9618  -20.0096  -13.7862 C   0  0  2  0  0  0  0  0  0  0  0  0
   25.0903  -18.9721  -14.2418 N   0  0  0  0  0  0  0  0  0  0  0  0
   26.3768  -19.8227  -12.3706 C   0  0  0  0  0  0  0  0  0  0  0  0
   26.3333  -18.6662  -11.8251 O   0  0  0  0  0  0  0  0  0  0  0  0
   27.9819  -19.0261   -4.0426 O   0  0  0  0  0  0  0  0  0  0  0  0
   27.5569  -19.2353   -5.3502 C   0  0  0  0  0  0  0  0  0  0  0  0
   27.9544  -18.3769   -6.3533 C   0  0  0  0  0  0  0  0  0  0  0  0
   27.5295  -18.5926   -7.6387 C   0  0  0  0  0  0  0  0  0  0  0  0
   26.6967  -19.6595   -7.9947 C   0  0  0  0  0  0  0  0  0  0  0  0
   26.2521  -19.8704   -9.3877 C   0  0  0  0  0  0  0  0  0  0  0  0
   27.2849  -20.6472  -10.1593 C   0  0  2  0  0  0  0  0  0  0  0  0
   26.8392  -20.8706  -11.5339 N   0  0  0  0  0  0  0  0  0  0  0  0
   27.7514  -21.8789   -9.5299 C   0  0  0  0  0  0  0  0  0  0  0  0
   28.8720  -21.9407   -8.9904 O   0  0  0  0  0  0  0  0  0  0  0  0
   26.3023  -20.5201   -6.9696 C   0  0  0  0  0  0  0  0  0  0  0  0
   26.7389  -20.2838   -5.6984 C   0  0  0  0  0  0  0  0  0  0  0  0
   26.9537  -23.0107   -9.5194 O   0  0  0  0  0  0  0  0  0  0  0  0
  2  1  1  6
  2  8  1  0
  2  3  1  0
  3  4  1  0
  4  5  1  0
  5  6  1  0
  6  7  1  0
  8  9  2  0
 11 10  1  6
 11 12  1  0
 13 11  1  0
 13 14  1  6
 14  8  1  0
 15 13  1  0
 16 15  2  0
 18 17  1  0
 18 19  2  0
 20 19  1  0
 21 22  1  0
 21 20  2  0
 23 22  1  1
 23 24  1  0
 24 15  1  0
 25 23  1  0
 25 29  1  0
 26 25  2  0
 27 28  2  0
 27 21  1  0
 28 18  1  0
M  END
$$$$
