KVY.pdb
     RDKit          3D

 29 29  0  0  1  0  0  0  0  0999 V2000
   22.2894  -19.7161  -19.7342 N   0  0  0  0  0  0  0  0  0  0  0  0
   22.7938  -19.0556  -18.5669 C   0  0  1  0  0  0  0  0  0  0  0  0
   21.9356  -19.2742  -17.3425 C   0  0  0  0  0  0  0  0  0  0  0  0
   20.6200  -18.5946  -17.3747 C   0  0  0  0  0  0  0  0  0  0  0  0
   20.3175  -17.7243  -18.5377 C   0  0  0  0  0  0  0  0  0  0  0  0
   19.0122  -17.0105  -18.5096 C   0  0  0  0  0  0  0  0  0  0  0  0
   17.9526  -17.6633  -17.8313 N   0  0  0  0  0  0  0  0  0  0  0  0
   24.1666  -19.5220  -18.2254 C   0  0  0  0  0  0  0  0  0  0  0  0
   24.4532  -20.7358  -18.3995 O   0  0  0  0  0  0  0  0  0  0  0  0
   28.8892  -18.6729  -16.7999 C   0  0  0  0  0  0  0  0  0  0  0  0
   27.5854  -18.1536  -17.3832 C   0  0  1  0  0  0  0  0  0  0  0  0
   27.7644  -17.5345  -18.7372 C   0  0  0  0  0  0  0  0  0  0  0  0
   26.4918  -19.1668  -17.3194 C   0  0  2  0  0  0  0  0  0  0  0  0
   25.1928  -18.7228  -17.7185 N   0  0  0  0  0  0  0  0  0  0  0  0
   26.4922  -19.7764  -15.9631 C   0  0  0  0  0  0  0  0  0  0  0  0
   27.4560  -20.5288  -15.5861 O   0  0  0  0  0  0  0  0  0  0  0  0
   24.8183  -21.7419   -7.5421 O   0  0  0  0  0  0  0  0  0  0  0  0
   24.9146  -21.1202   -8.7824 C   0  0  0  0  0  0  0  0  0  0  0  0
   23.7884  -20.9433   -9.5578 C   0  0  0  0  0  0  0  0  0  0  0  0
   23.8948  -20.3293  -10.7788 C   0  0  0  0  0  0  0  0  0  0  0  0
   25.1108  -19.8625  -11.2910 C   0  0  0  0  0  0  0  0  0  0  0  0
   25.1995  -19.2040  -12.6105 C   0  0  0  0  0  0  0  0  0  0  0  0
   25.4804  -20.2169  -13.6879 C   0  0  2  0  0  0  0  0  0  0  0  0
   25.4633  -19.5839  -15.0058 N   0  0  0  0  0  0  0  0  0  0  0  0
   24.6603  -21.4239  -13.6515 C   0  0  0  0  0  0  0  0  0  0  0  0
   23.5685  -21.4776  -14.2479 O   0  0  0  0  0  0  0  0  0  0  0  0
   26.2422  -20.0481  -10.4958 C   0  0  0  0  0  0  0  0  0  0  0  0
   26.1096  -20.6622   -9.2843 C   0  0  0  0  0  0  0  0  0  0  0  0
   25.0811  -22.5408  -12.9494 O   0  0  0  0  0  0  0  0  0  0  0  0
  2  1  1  6
  2  8  1  0
  2  3  1  0
  3  4  1  0
  4  5  1  0
  5  6  1  0
  6  7  1  0
  8  9  2  0
 11 10  1  6
 11 12  1  0
 13 11  1  0
 13 14  1  1
 14  8  1  0
 15 13  1  0
 16 15  2  0
 18 17  1  0
 18 19  2  0
 20 19  1  0
 21 22  1  0
 21 20  2  0
 23 22  1  1
 23 24  1  0
 24 15  1  0
 25 23  1  0
 25 29  1  0
 26 25  2  0
 27 28  2  0
 27 21  1  0
 28 18  1  0
M  END
$$$$
