KVY.pdb
     RDKit          3D

 29 29  0  0  1  0  0  0  0  0999 V2000
   22.9632  -20.2591  -18.6718 N   0  0  0  0  0  0  0  0  0  0  0  0
   23.2496  -19.2842  -17.6616 C   0  0  1  0  0  0  0  0  0  0  0  0
   22.0542  -18.9536  -16.7984 C   0  0  0  0  0  0  0  0  0  0  0  0
   21.1474  -17.9249  -17.3579 C   0  0  0  0  0  0  0  0  0  0  0  0
   21.6033  -17.1760  -18.5551 C   0  0  0  0  0  0  0  0  0  0  0  0
   20.6779  -16.1344  -19.0773 C   0  0  0  0  0  0  0  0  0  0  0  0
   21.0827  -15.4697  -20.2618 N   0  0  0  0  0  0  0  0  0  0  0  0
   24.3320  -19.7456  -16.7481 C   0  0  0  0  0  0  0  0  0  0  0  0
   24.3418  -20.9507  -16.3831 O   0  0  0  0  0  0  0  0  0  0  0  0
   28.6455  -19.1215  -14.3161 C   0  0  0  0  0  0  0  0  0  0  0  0
   27.6926  -18.7031  -15.4235 C   0  0  1  0  0  0  0  0  0  0  0  0
   28.3029  -18.8259  -16.7878 C   0  0  0  0  0  0  0  0  0  0  0  0
   26.3550  -19.3524  -15.2968 C   0  0  2  0  0  0  0  0  0  0  0  0
   25.3635  -18.9507  -16.2451 N   0  0  0  0  0  0  0  0  0  0  0  0
   25.8905  -19.2052  -13.8920 C   0  0  0  0  0  0  0  0  0  0  0  0
   24.9120  -18.4322  -13.6057 O   0  0  0  0  0  0  0  0  0  0  0  0
   21.4888  -21.3740   -6.9834 O   0  0  0  0  0  0  0  0  0  0  0  0
   22.1960  -21.2099   -8.1696 C   0  0  0  0  0  0  0  0  0  0  0  0
   23.4659  -21.7315   -8.2967 C   0  0  0  0  0  0  0  0  0  0  0  0
   24.1539  -21.5638   -9.4705 C   0  0  0  0  0  0  0  0  0  0  0  0
   23.6253  -20.8772  -10.5696 C   0  0  0  0  0  0  0  0  0  0  0  0
   24.3872  -20.7096  -11.8241 C   0  0  0  0  0  0  0  0  0  0  0  0
   25.7466  -20.1282  -11.5421 C   0  0  2  0  0  0  0  0  0  0  0  0
   26.4699  -19.8834  -12.7890 N   0  0  0  0  0  0  0  0  0  0  0  0
   26.5593  -20.8587  -10.5742 C   0  0  0  0  0  0  0  0  0  0  0  0
   27.2285  -21.8516  -10.9158 O   0  0  0  0  0  0  0  0  0  0  0  0
   22.3394  -20.3547  -10.4269 C   0  0  0  0  0  0  0  0  0  0  0  0
   21.6755  -20.5353   -9.2483 C   0  0  0  0  0  0  0  0  0  0  0  0
   26.6035  -20.4609   -9.2486 O   0  0  0  0  0  0  0  0  0  0  0  0
  2  1  1  6
  2  8  1  0
  2  3  1  0
  3  4  1  0
  4  5  1  0
  5  6  1  0
  6  7  1  0
  8  9  2  0
 11 10  1  1
 11 12  1  0
 13 11  1  0
 13 14  1  6
 14  8  1  0
 15 13  1  0
 16 15  2  0
 18 17  1  0
 18 19  2  0
 20 19  1  0
 21 22  1  0
 21 20  2  0
 23 22  1  6
 23 24  1  0
 24 15  1  0
 25 23  1  0
 25 29  1  0
 26 25  2  0
 27 28  2  0
 27 21  1  0
 28 18  1  0
M  END
$$$$
