KVY.pdb
     RDKit          3D

 29 29  0  0  1  0  0  0  0  0999 V2000
   22.2428  -18.8112  -17.1201 N   0  0  0  0  0  0  0  0  0  0  0  0
   22.5115  -20.1833  -16.8067 C   0  0  1  0  0  0  0  0  0  0  0  0
   22.4686  -21.0888  -18.0157 C   0  0  0  0  0  0  0  0  0  0  0  0
   21.1849  -21.0811  -18.7544 C   0  0  0  0  0  0  0  0  0  0  0  0
   20.2205  -22.1749  -18.4801 C   0  0  0  0  0  0  0  0  0  0  0  0
   18.8594  -21.7639  -18.0414 C   0  0  0  0  0  0  0  0  0  0  0  0
   17.9341  -22.8095  -17.7984 N   0  0  0  0  0  0  0  0  0  0  0  0
   23.8555  -20.3491  -16.1860 C   0  0  0  0  0  0  0  0  0  0  0  0
   24.2722  -21.5135  -15.9489 O   0  0  0  0  0  0  0  0  0  0  0  0
   28.3229  -18.6881  -14.7554 C   0  0  0  0  0  0  0  0  0  0  0  0
   27.0369  -18.4718  -15.5357 C   0  0  1  0  0  0  0  0  0  0  0  0
   27.2688  -18.3647  -17.0134 C   0  0  0  0  0  0  0  0  0  0  0  0
   25.9729  -19.4473  -15.1580 C   0  0  2  0  0  0  0  0  0  0  0  0
   24.7202  -19.3115  -15.8332 N   0  0  0  0  0  0  0  0  0  0  0  0
   25.8253  -19.4348  -13.6784 C   0  0  0  0  0  0  0  0  0  0  0  0
   24.8454  -18.8258  -13.1254 O   0  0  0  0  0  0  0  0  0  0  0  0
   20.3452  -19.3427   -9.6600 O   0  0  0  0  0  0  0  0  0  0  0  0
   21.5232  -19.8905  -10.1564 C   0  0  0  0  0  0  0  0  0  0  0  0
   22.4817  -20.3722   -9.2904 C   0  0  0  0  0  0  0  0  0  0  0  0
   23.6392  -20.9101   -9.7906 C   0  0  0  0  0  0  0  0  0  0  0  0
   23.9055  -20.9983  -11.1618 C   0  0  0  0  0  0  0  0  0  0  0  0
   25.1612  -21.5823  -11.6762 C   0  0  0  0  0  0  0  0  0  0  0  0
   26.3037  -20.6191  -11.4959 C   0  0  2  0  0  0  0  0  0  0  0  0
   26.7240  -20.0729  -12.7855 N   0  0  0  0  0  0  0  0  0  0  0  0
   27.4350  -21.1168  -10.7192 C   0  0  0  0  0  0  0  0  0  0  0  0
   28.3889  -21.6960  -11.2716 O   0  0  0  0  0  0  0  0  0  0  0  0
   22.9267  -20.5070  -12.0265 C   0  0  0  0  0  0  0  0  0  0  0  0
   21.7833  -19.9764  -11.5035 C   0  0  0  0  0  0  0  0  0  0  0  0
   27.4716  -20.9547   -9.3445 O   0  0  0  0  0  0  0  0  0  0  0  0
  2  1  1  6
  2  8  1  0
  2  3  1  0
  3  4  1  0
  4  5  1  0
  5  6  1  0
  6  7  1  0
  8  9  2  0
 11 10  1  1
 11 12  1  0
 13 11  1  0
 13 14  1  6
 14  8  1  0
 15 13  1  0
 16 15  2  0
 18 17  1  0
 18 19  2  0
 20 19  1  0
 21 22  1  0
 21 20  2  0
 23 22  1  6
 23 24  1  0
 24 15  1  0
 25 23  1  0
 25 29  1  0
 26 25  2  0
 27 28  2  0
 27 21  1  0
 28 18  1  0
M  END
$$$$
