KVY.pdb
     RDKit          3D

 29 29  0  0  1  0  0  0  0  0999 V2000
   19.3918  -11.1795    6.7598 N   0  0  0  0  0  0  0  0  0  0  0  0
   19.3590  -11.6565    8.1106 C   0  0  1  0  0  0  0  0  0  0  0  0
   17.9715  -12.0355    8.5739 C   0  0  0  0  0  0  0  0  0  0  0  0
   17.0929  -10.8914    8.9096 C   0  0  0  0  0  0  0  0  0  0  0  0
   15.7362  -11.1890    9.4318 C   0  0  0  0  0  0  0  0  0  0  0  0
   14.8518  -10.0192    9.6838 C   0  0  0  0  0  0  0  0  0  0  0  0
   13.5880  -10.2988   10.2612 N   0  0  0  0  0  0  0  0  0  0  0  0
   20.2205  -12.8590    8.2865 C   0  0  0  0  0  0  0  0  0  0  0  0
   20.3612  -13.6487    7.3159 O   0  0  0  0  0  0  0  0  0  0  0  0
   23.5502  -15.5769   10.8312 C   0  0  0  0  0  0  0  0  0  0  0  0
   22.7356  -14.2985   10.7224 C   0  0  1  0  0  0  0  0  0  0  0  0
   23.5938  -13.0710   10.6490 C   0  0  0  0  0  0  0  0  0  0  0  0
   21.6965  -14.3768    9.6543 C   0  0  2  0  0  0  0  0  0  0  0  0
   20.9049  -13.2035    9.4534 N   0  0  0  0  0  0  0  0  0  0  0  0
   20.8674  -15.5883    9.8908 C   0  0  0  0  0  0  0  0  0  0  0  0
   19.6000  -15.4933   10.0373 O   0  0  0  0  0  0  0  0  0  0  0  0
   16.4135  -22.2628    7.2729 O   0  0  0  0  0  0  0  0  0  0  0  0
   17.2828  -21.2060    7.5213 C   0  0  0  0  0  0  0  0  0  0  0  0
   16.7986  -20.0113    8.0102 C   0  0  0  0  0  0  0  0  0  0  0  0
   17.6645  -18.9762    8.2515 C   0  0  0  0  0  0  0  0  0  0  0  0
   19.0422  -19.0692    8.0233 C   0  0  0  0  0  0  0  0  0  0  0  0
   19.9549  -17.9388    8.2911 C   0  0  0  0  0  0  0  0  0  0  0  0
   20.6005  -18.0906    9.6423 C   0  0  2  0  0  0  0  0  0  0  0  0
   21.3899  -16.9046    9.9711 N   0  0  0  0  0  0  0  0  0  0  0  0
   21.3552  -19.3230    9.8485 C   0  0  0  0  0  0  0  0  0  0  0  0
   22.5036  -19.4585    9.3867 O   0  0  0  0  0  0  0  0  0  0  0  0
   19.5182  -20.2839    7.5285 C   0  0  0  0  0  0  0  0  0  0  0  0
   18.6358  -21.2988    7.2967 C   0  0  0  0  0  0  0  0  0  0  0  0
   20.8073  -20.3730   10.5660 O   0  0  0  0  0  0  0  0  0  0  0  0
  2  1  1  6
  2  8  1  0
  2  3  1  0
  3  4  1  0
  4  5  1  0
  5  6  1  0
  6  7  1  0
  8  9  2  0
 11 10  1  6
 11 12  1  0
 13 11  1  0
 13 14  1  1
 14  8  1  0
 15 13  1  0
 16 15  2  0
 18 17  1  0
 18 19  2  0
 20 19  1  0
 21 22  1  0
 21 20  2  0
 23 22  1  6
 23 24  1  0
 24 15  1  0
 25 23  1  0
 25 29  1  0
 26 25  2  0
 27 28  2  0
 27 21  1  0
 28 18  1  0
M  END
$$$$
