KVY.pdb
     RDKit          3D

 29 29  0  0  1  0  0  0  0  0999 V2000
   28.3998  -19.4814  -21.1805 N   0  0  0  0  0  0  0  0  0  0  0  0
   27.3430  -18.6750  -20.6456 C   0  0  1  0  0  0  0  0  0  0  0  0
   25.9888  -19.3407  -20.7247 C   0  0  0  0  0  0  0  0  0  0  0  0
   25.9706  -20.6308  -21.4518 C   0  0  0  0  0  0  0  0  0  0  0  0
   24.6592  -21.2961  -21.6509 C   0  0  0  0  0  0  0  0  0  0  0  0
   23.4554  -20.4251  -21.5709 C   0  0  0  0  0  0  0  0  0  0  0  0
   22.2085  -21.0504  -21.8220 N   0  0  0  0  0  0  0  0  0  0  0  0
   27.5814  -18.3415  -19.2134 C   0  0  0  0  0  0  0  0  0  0  0  0
   28.6279  -18.7698  -18.6594 O   0  0  0  0  0  0  0  0  0  0  0  0
   26.7101  -15.5032  -15.2177 C   0  0  0  0  0  0  0  0  0  0  0  0
   26.6287  -15.7688  -16.7118 C   0  0  1  0  0  0  0  0  0  0  0  0
   27.3518  -14.7351  -17.5225 C   0  0  0  0  0  0  0  0  0  0  0  0
   26.9909  -17.1741  -17.0590 C   0  0  2  0  0  0  0  0  0  0  0  0
   26.7350  -17.5800  -18.4056 N   0  0  0  0  0  0  0  0  0  0  0  0
   26.3638  -18.0826  -16.0627 C   0  0  0  0  0  0  0  0  0  0  0  0
   25.1443  -18.4481  -16.1895 O   0  0  0  0  0  0  0  0  0  0  0  0
   24.5055  -21.7480   -8.2746 O   0  0  0  0  0  0  0  0  0  0  0  0
   25.1935  -21.2549   -9.3781 C   0  0  0  0  0  0  0  0  0  0  0  0
   25.3838  -19.8974   -9.5257 C   0  0  0  0  0  0  0  0  0  0  0  0
   26.0634  -19.4223  -10.6173 C   0  0  0  0  0  0  0  0  0  0  0  0
   26.5853  -20.2589  -11.6106 C   0  0  0  0  0  0  0  0  0  0  0  0
   27.3141  -19.7222  -12.7782 C   0  0  0  0  0  0  0  0  0  0  0  0
   26.3527  -19.3517  -13.8755 C   0  0  2  0  0  0  0  0  0  0  0  0
   27.0378  -18.6032  -14.9283 N   0  0  0  0  0  0  0  0  0  0  0  0
   25.1255  -18.6889  -13.4450 C   0  0  0  0  0  0  0  0  0  0  0  0
   25.0881  -17.4569  -13.2682 O   0  0  0  0  0  0  0  0  0  0  0  0
   26.3854  -21.6303  -11.4483 C   0  0  0  0  0  0  0  0  0  0  0  0
   25.7056  -22.0778  -10.3529 C   0  0  0  0  0  0  0  0  0  0  0  0
   23.9706  -19.4200  -13.2229 O   0  0  0  0  0  0  0  0  0  0  0  0
  2  1  1  1
  2  8  1  0
  2  3  1  0
  3  4  1  0
  4  5  1  0
  5  6  1  0
  6  7  1  0
  8  9  2  0
 11 10  1  1
 11 12  1  0
 13 11  1  0
 13 14  1  6
 14  8  1  0
 15 13  1  0
 16 15  2  0
 18 17  1  0
 18 19  2  0
 20 19  1  0
 21 22  1  0
 21 20  2  0
 23 22  1  1
 23 24  1  0
 24 15  1  0
 25 23  1  0
 25 29  1  0
 26 25  2  0
 27 28  2  0
 27 21  1  0
 28 18  1  0
M  END
$$$$
