KVY.pdb
     RDKit          3D

 29 29  0  0  1  0  0  0  0  0999 V2000
   19.0693  -13.5374  -19.8616 N   0  0  0  0  0  0  0  0  0  0  0  0
   19.3705  -13.2166  -18.4979 C   0  0  1  0  0  0  0  0  0  0  0  0
   20.6244  -13.8909  -17.9915 C   0  0  0  0  0  0  0  0  0  0  0  0
   20.3912  -15.0526  -17.1029 C   0  0  0  0  0  0  0  0  0  0  0  0
   19.9522  -16.3255  -17.7266 C   0  0  0  0  0  0  0  0  0  0  0  0
   19.7006  -17.4641  -16.8023 C   0  0  0  0  0  0  0  0  0  0  0  0
   19.1557  -18.6368  -17.3824 N   0  0  0  0  0  0  0  0  0  0  0  0
   19.5582  -11.7508  -18.3100 C   0  0  0  0  0  0  0  0  0  0  0  0
   19.9022  -11.0537  -19.3007 O   0  0  0  0  0  0  0  0  0  0  0  0
   18.4296   -9.0656  -19.1864 C   0  0  0  0  0  0  0  0  0  0  0  0
   18.3305   -8.8836  -17.6809 C   0  0  1  0  0  0  0  0  0  0  0  0
   16.9438   -9.1180  -17.1607 C   0  0  0  0  0  0  0  0  0  0  0  0
   19.3890   -9.6372  -16.9472 C   0  0  2  0  0  0  0  0  0  0  0  0
   19.3845  -11.0573  -17.1110 N   0  0  0  0  0  0  0  0  0  0  0  0
   19.3529   -9.2298  -15.5176 C   0  0  0  0  0  0  0  0  0  0  0  0
   18.5734   -9.8179  -14.6908 O   0  0  0  0  0  0  0  0  0  0  0  0
   23.3471   -2.8483  -15.7812 O   0  0  0  0  0  0  0  0  0  0  0  0
   22.9129   -3.9940  -15.1230 C   0  0  0  0  0  0  0  0  0  0  0  0
   23.1570   -5.2382  -15.6645 C   0  0  0  0  0  0  0  0  0  0  0  0
   22.7245   -6.3609  -15.0073 C   0  0  0  0  0  0  0  0  0  0  0  0
   22.0341   -6.3105  -13.7909 C   0  0  0  0  0  0  0  0  0  0  0  0
   21.5779   -7.5353  -13.1021 C   0  0  0  0  0  0  0  0  0  0  0  0
   20.1824   -7.8958  -13.5359 C   0  0  2  0  0  0  0  0  0  0  0  0
   20.1495   -8.1931  -14.9671 N   0  0  0  0  0  0  0  0  0  0  0  0
   19.1361   -6.9540  -13.1500 C   0  0  0  0  0  0  0  0  0  0  0  0
   18.5364   -6.2740  -14.0035 O   0  0  0  0  0  0  0  0  0  0  0  0
   21.7940   -5.0449  -13.2546 C   0  0  0  0  0  0  0  0  0  0  0  0
   22.2349   -3.9430  -13.9283 C   0  0  0  0  0  0  0  0  0  0  0  0
   18.7864   -6.7957  -11.8195 O   0  0  0  0  0  0  0  0  0  0  0  0
  2  1  1  6
  2  8  1  0
  2  3  1  0
  3  4  1  0
  4  5  1  0
  5  6  1  0
  6  7  1  0
  8  9  2  0
 11 10  1  6
 11 12  1  0
 13 11  1  0
 13 14  1  1
 14  8  1  0
 15 13  1  0
 16 15  2  0
 18 17  1  0
 18 19  2  0
 20 19  1  0
 21 22  1  0
 21 20  2  0
 23 22  1  6
 23 24  1  0
 24 15  1  0
 25 23  1  0
 25 29  1  0
 26 25  2  0
 27 28  2  0
 27 21  1  0
 28 18  1  0
M  END
$$$$
