KVY.pdb
     RDKit          3D

 29 29  0  0  1  0  0  0  0  0999 V2000
   27.2216  -24.0900  -16.7398 N   0  0  0  0  0  0  0  0  0  0  0  0
   27.6583  -24.9089  -17.8316 C   0  0  1  0  0  0  0  0  0  0  0  0
   28.6887  -24.2336  -18.7064 C   0  0  0  0  0  0  0  0  0  0  0  0
   28.2292  -22.9870  -19.3611 C   0  0  0  0  0  0  0  0  0  0  0  0
   29.1588  -22.3149  -20.3024 C   0  0  0  0  0  0  0  0  0  0  0  0
   28.6911  -21.0316  -20.8925 C   0  0  0  0  0  0  0  0  0  0  0  0
   29.5585  -20.4170  -21.8299 N   0  0  0  0  0  0  0  0  0  0  0  0
   28.2625  -26.1830  -17.3514 C   0  0  0  0  0  0  0  0  0  0  0  0
   28.6733  -26.2467  -16.1627 O   0  0  0  0  0  0  0  0  0  0  0  0
   28.5173  -31.0166  -17.1124 C   0  0  0  0  0  0  0  0  0  0  0  0
   27.8880  -29.6721  -17.4377 C   0  0  1  0  0  0  0  0  0  0  0  0
   26.7956  -29.2988  -16.4807 C   0  0  0  0  0  0  0  0  0  0  0  0
   28.9082  -28.6022  -17.6408 C   0  0  2  0  0  0  0  0  0  0  0  0
   28.4208  -27.3433  -18.1113 N   0  0  0  0  0  0  0  0  0  0  0  0
   29.9974  -29.1453  -18.4951 C   0  0  0  0  0  0  0  0  0  0  0  0
   29.8251  -29.2979  -19.7537 O   0  0  0  0  0  0  0  0  0  0  0  0
   37.5194  -31.3422  -22.3097 O   0  0  0  0  0  0  0  0  0  0  0  0
   36.5534  -30.8365  -21.4462 C   0  0  0  0  0  0  0  0  0  0  0  0
   35.6122  -29.9412  -21.9081 C   0  0  0  0  0  0  0  0  0  0  0  0
   34.6647  -29.4490  -21.0483 C   0  0  0  0  0  0  0  0  0  0  0  0
   34.6003  -29.8143  -19.6988 C   0  0  0  0  0  0  0  0  0  0  0  0
   33.5692  -29.2693  -18.7920 C   0  0  0  0  0  0  0  0  0  0  0  0
   32.3120  -30.0935  -18.8667 C   0  0  2  0  0  0  0  0  0  0  0  0
   31.2736  -29.5266  -18.0074 N   0  0  0  0  0  0  0  0  0  0  0  0
   32.4803  -31.5267  -18.6464 C   0  0  0  0  0  0  0  0  0  0  0  0
   32.5040  -32.0018  -17.4956 O   0  0  0  0  0  0  0  0  0  0  0  0
   35.5589  -30.7210  -19.2451 C   0  0  0  0  0  0  0  0  0  0  0  0
   36.4914  -31.1962  -20.1210 C   0  0  0  0  0  0  0  0  0  0  0  0
   32.6181  -32.3928  -19.7179 O   0  0  0  0  0  0  0  0  0  0  0  0
  2  1  1  1
  2  8  1  0
  2  3  1  0
  3  4  1  0
  4  5  1  0
  5  6  1  0
  6  7  1  0
  8  9  2  0
 11 10  1  1
 11 12  1  0
 13 11  1  0
 13 14  1  6
 14  8  1  0
 15 13  1  0
 16 15  2  0
 18 17  1  0
 18 19  2  0
 20 19  1  0
 21 22  1  0
 21 20  2  0
 23 22  1  1
 23 24  1  0
 24 15  1  0
 25 23  1  0
 25 29  1  0
 26 25  2  0
 27 28  2  0
 27 21  1  0
 28 18  1  0
M  END
$$$$
