LET.pdb
     RDKit          3D

 25 24  0  0  1  0  0  0  0  0999 V2000
    9.1658  -13.0418   18.3133 C   0  0  0  0  0  0  0  0  0  0  0  0
    7.8668  -13.3984   19.0495 C   0  0  2  0  0  0  0  0  0  0  0  0
    7.2108  -12.1347   19.5183 C   0  0  0  0  0  0  0  0  0  0  0  0
    8.2532  -14.3490   20.1333 C   0  0  0  0  0  0  0  0  0  0  0  0
    8.9359  -15.6133   19.6255 C   0  0  2  0  0  0  0  0  0  0  0  0
    7.9983  -16.4219   18.8952 N   0  0  0  0  0  0  0  0  0  0  0  0
    9.3717  -16.3478   20.8396 C   0  0  0  0  0  0  0  0  0  0  0  0
    8.5501  -17.0150   21.5311 O   0  0  0  0  0  0  0  0  0  0  0  0
   10.7263  -16.2973   21.2245 N   0  0  0  0  0  0  0  0  0  0  0  0
   11.3278  -17.0350   22.2847 C   0  0  1  0  0  0  0  0  0  0  0  0
   12.8264  -17.2432   22.1674 C   0  0  0  0  0  0  0  0  0  0  0  0
   13.2860  -18.1178   23.2828 C   0  0  0  0  0  0  0  0  0  0  0  0
   14.7720  -18.3483   23.2179 C   0  0  0  0  0  0  0  0  0  0  0  0
   15.5780  -17.3948   23.2487 O   0  0  0  0  0  0  0  0  0  0  0  0
   10.8688  -16.5840   23.5936 C   0  0  0  0  0  0  0  0  0  0  0  0
   11.2949  -15.5020   24.1281 O   0  0  0  0  0  0  0  0  0  0  0  0
   15.2249  -19.6429   23.1231 O   0  0  0  0  0  0  0  0  0  0  0  0
    7.7076  -15.3461   24.8605 C   0  0  0  0  0  0  0  0  0  0  0  0
    8.0436  -16.5179   25.7179 C   0  0  1  0  0  0  0  0  0  0  0  0
    7.3893  -17.6466   25.2137 O   0  0  0  0  0  0  0  0  0  0  0  0
    9.5255  -16.8506   25.7218 C   0  0  2  0  0  0  0  0  0  0  0  0
    9.9166  -17.2912   24.3934 N   0  0  0  0  0  0  0  0  0  0  0  0
    9.8612  -17.8684   26.7507 C   0  0  0  0  0  0  0  0  0  0  0  0
    9.6513  -17.6772   28.1088 O   0  0  0  0  0  0  0  0  0  0  0  0
   10.3616  -18.9650   26.3929 O   0  0  0  0  0  0  0  0  0  0  0  0
  2  1  1  1
  2  3  1  0
  4  2  1  0
  4  5  1  0
  5  6  1  1
  5  7  1  0
  7  8  2  0
  9  7  1  0
  9 10  1  0
 10 11  1  1
 12 13  1  0
 12 11  1  0
 13 14  2  0
 15 10  1  0
 15 16  2  0
 17 13  1  0
 19 18  1  6
 19 21  1  0
 20 19  1  0
 21 22  1  6
 22 15  1  0
 23 21  1  0
 24 23  1  0
 25 23  2  0
M  END
$$$$
