LET.pdb
     RDKit          3D

 25 24  0  0  1  0  0  0  0  0999 V2000
    9.1240  -12.9171   18.3786 C   0  0  0  0  0  0  0  0  0  0  0  0
    7.8077  -13.3751   19.0222 C   0  0  2  0  0  0  0  0  0  0  0  0
    7.0859  -12.1761   19.5593 C   0  0  0  0  0  0  0  0  0  0  0  0
    8.1804  -14.3977   20.0435 C   0  0  0  0  0  0  0  0  0  0  0  0
    8.9341  -15.5913   19.4695 C   0  0  2  0  0  0  0  0  0  0  0  0
    8.0573  -16.3812   18.6487 N   0  0  0  0  0  0  0  0  0  0  0  0
    9.3616  -16.3958   20.6414 C   0  0  0  0  0  0  0  0  0  0  0  0
    8.5240  -17.0473   21.3288 O   0  0  0  0  0  0  0  0  0  0  0  0
   10.7264  -16.4307   20.9904 N   0  0  0  0  0  0  0  0  0  0  0  0
   11.3125  -17.2277   22.0157 C   0  0  1  0  0  0  0  0  0  0  0  0
   12.7909  -17.5257   21.8465 C   0  0  0  0  0  0  0  0  0  0  0  0
   13.2450  -18.3937   22.9693 C   0  0  0  0  0  0  0  0  0  0  0  0
   14.7078  -18.7256   22.8445 C   0  0  0  0  0  0  0  0  0  0  0  0
   15.3804  -19.0750   23.8371 O   0  0  0  0  0  0  0  0  0  0  0  0
   10.9229  -16.7785   23.3475 C   0  0  0  0  0  0  0  0  0  0  0  0
   11.4237  -15.7307   23.8855 O   0  0  0  0  0  0  0  0  0  0  0  0
   15.2908  -18.6346   21.6028 O   0  0  0  0  0  0  0  0  0  0  0  0
    7.7466  -15.5140   24.6297 C   0  0  0  0  0  0  0  0  0  0  0  0
    8.1109  -16.6586   25.5119 C   0  0  1  0  0  0  0  0  0  0  0  0
    7.4553  -17.8060   25.0538 O   0  0  0  0  0  0  0  0  0  0  0  0
    9.5953  -16.9794   25.4927 C   0  0  2  0  0  0  0  0  0  0  0  0
    9.9621  -17.4499   24.1676 N   0  0  0  0  0  0  0  0  0  0  0  0
    9.9609  -17.9687   26.5391 C   0  0  0  0  0  0  0  0  0  0  0  0
    9.8146  -17.7300   27.8980 O   0  0  0  0  0  0  0  0  0  0  0  0
   10.4282  -19.0846   26.1964 O   0  0  0  0  0  0  0  0  0  0  0  0
  2  1  1  1
  2  3  1  0
  4  2  1  0
  4  5  1  0
  5  6  1  6
  5  7  1  0
  7  8  2  0
  9  7  1  0
  9 10  1  0
 10 11  1  1
 12 13  1  0
 12 11  1  0
 13 14  2  0
 15 10  1  0
 15 16  2  0
 17 13  1  0
 19 18  1  6
 19 21  1  0
 20 19  1  0
 21 22  1  6
 22 15  1  0
 23 21  1  0
 24 23  1  0
 25 23  2  0
M  END
$$$$
