LET.pdb
     RDKit          3D

 25 24  0  0  1  0  0  0  0  0999 V2000
    5.2483  -12.0799   26.1671 C   0  0  0  0  0  0  0  0  0  0  0  0
    6.6982  -12.2073   25.6791 C   0  0  2  0  0  0  0  0  0  0  0  0
    7.2375  -10.8380   25.3940 C   0  0  0  0  0  0  0  0  0  0  0  0
    6.6601  -13.1281   24.5051 C   0  0  0  0  0  0  0  0  0  0  0  0
    6.2432  -14.5514   24.8554 C   0  0  2  0  0  0  0  0  0  0  0  0
    5.4308  -14.5508   26.0413 N   0  0  0  0  0  0  0  0  0  0  0  0
    7.5058  -15.2822   25.1294 C   0  0  0  0  0  0  0  0  0  0  0  0
    7.8095  -15.6478   26.3010 O   0  0  0  0  0  0  0  0  0  0  0  0
    8.3785  -15.5713   24.0614 N   0  0  0  0  0  0  0  0  0  0  0  0
    9.5014  -16.4473   24.1060 C   0  0  1  0  0  0  0  0  0  0  0  0
   10.1816  -16.7053   22.7742 C   0  0  0  0  0  0  0  0  0  0  0  0
   11.3192  -17.6449   22.9817 C   0  0  0  0  0  0  0  0  0  0  0  0
   12.0408  -17.9210   21.6899 C   0  0  0  0  0  0  0  0  0  0  0  0
   11.7079  -17.3551   20.6275 O   0  0  0  0  0  0  0  0  0  0  0  0
   10.4028  -16.1250   25.2062 C   0  0  0  0  0  0  0  0  0  0  0  0
   11.2357  -15.1554   25.1415 O   0  0  0  0  0  0  0  0  0  0  0  0
   13.0829  -18.8175   21.7068 O   0  0  0  0  0  0  0  0  0  0  0  0
   10.4040  -14.5053   28.3131 C   0  0  0  0  0  0  0  0  0  0  0  0
   10.8363  -15.8951   28.6333 C   0  0  1  0  0  0  0  0  0  0  0  0
    9.7119  -16.6437   28.9958 O   0  0  0  0  0  0  0  0  0  0  0  0
   11.4638  -16.6134   27.4514 C   0  0  2  0  0  0  0  0  0  0  0  0
   10.4449  -16.8453   26.4415 N   0  0  0  0  0  0  0  0  0  0  0  0
   12.1199  -17.8821   27.8601 C   0  0  0  0  0  0  0  0  0  0  0  0
   13.1724  -17.9397   28.7624 O   0  0  0  0  0  0  0  0  0  0  0  0
   11.7157  -18.9695   27.3750 O   0  0  0  0  0  0  0  0  0  0  0  0
  2  1  1  6
  2  3  1  0
  4  2  1  0
  4  5  1  0
  5  6  1  1
  5  7  1  0
  7  8  2  0
  9  7  1  0
  9 10  1  0
 10 11  1  6
 12 13  1  0
 12 11  1  0
 13 14  2  0
 15 10  1  0
 15 16  2  0
 17 13  1  0
 19 18  1  6
 19 21  1  0
 20 19  1  0
 21 22  1  6
 22 15  1  0
 23 21  1  0
 24 23  1  0
 25 23  2  0
M  END
$$$$
