LET.pdb
     RDKit          3D

 25 24  0  0  1  0  0  0  0  0999 V2000
    6.6970  -11.8927   24.7712 C   0  0  0  0  0  0  0  0  0  0  0  0
    6.0340  -12.6504   25.9300 C   0  0  2  0  0  0  0  0  0  0  0  0
    5.9348  -11.7372   27.1147 C   0  0  0  0  0  0  0  0  0  0  0  0
    6.8557  -13.8776   26.1457 C   0  0  0  0  0  0  0  0  0  0  0  0
    6.6597  -14.9430   25.0739 C   0  0  2  0  0  0  0  0  0  0  0  0
    5.4485  -15.6764   25.3217 N   0  0  0  0  0  0  0  0  0  0  0  0
    7.8202  -15.8594   25.2038 C   0  0  0  0  0  0  0  0  0  0  0  0
    7.8901  -16.6973   26.1480 O   0  0  0  0  0  0  0  0  0  0  0  0
    8.8603  -15.7903   24.2555 N   0  0  0  0  0  0  0  0  0  0  0  0
   10.0395  -16.5899   24.2404 C   0  0  1  0  0  0  0  0  0  0  0  0
   10.7655  -16.6577   22.9095 C   0  0  0  0  0  0  0  0  0  0  0  0
   11.9524  -17.5481   23.0463 C   0  0  0  0  0  0  0  0  0  0  0  0
   12.7154  -17.6421   21.7522 C   0  0  0  0  0  0  0  0  0  0  0  0
   12.4075  -16.9410   20.7656 O   0  0  0  0  0  0  0  0  0  0  0  0
   10.8918  -16.3291   25.3948 C   0  0  0  0  0  0  0  0  0  0  0  0
   11.7993  -15.4267   25.3803 O   0  0  0  0  0  0  0  0  0  0  0  0
   13.7672  -18.5245   21.6810 O   0  0  0  0  0  0  0  0  0  0  0  0
   10.7855  -14.4621   28.0770 C   0  0  0  0  0  0  0  0  0  0  0  0
   11.0231  -15.7964   28.6968 C   0  0  1  0  0  0  0  0  0  0  0  0
    9.7899  -16.3564   29.0458 O   0  0  0  0  0  0  0  0  0  0  0  0
   11.6881  -16.7839   27.7536 C   0  0  2  0  0  0  0  0  0  0  0  0
   10.8001  -17.0409   26.6324 N   0  0  0  0  0  0  0  0  0  0  0  0
   12.0640  -18.0432   28.4464 C   0  0  0  0  0  0  0  0  0  0  0  0
   12.9937  -18.0990   29.4748 O   0  0  0  0  0  0  0  0  0  0  0  0
   11.5236  -19.1237   28.0979 O   0  0  0  0  0  0  0  0  0  0  0  0
  2  1  1  6
  2  3  1  0
  4  2  1  0
  4  5  1  0
  5  6  1  1
  5  7  1  0
  7  8  2  0
  9  7  1  0
  9 10  1  0
 10 11  1  6
 12 13  1  0
 12 11  1  0
 13 14  2  0
 15 10  1  0
 15 16  2  0
 17 13  1  0
 19 18  1  6
 19 21  1  0
 20 19  1  0
 21 22  1  6
 22 15  1  0
 23 21  1  0
 24 23  1  0
 25 23  2  0
M  END
$$$$
