LET.pdb
     RDKit          3D

 25 24  0  0  1  0  0  0  0  0999 V2000
    9.1170  -12.7636   18.9857 C   0  0  0  0  0  0  0  0  0  0  0  0
    7.8505  -13.4838   19.4692 C   0  0  2  0  0  0  0  0  0  0  0  0
    6.8861  -12.4672   20.0019 C   0  0  0  0  0  0  0  0  0  0  0  0
    8.3066  -14.5019   20.4607 C   0  0  0  0  0  0  0  0  0  0  0  0
    9.2580  -15.5408   19.8794 C   0  0  2  0  0  0  0  0  0  0  0  0
    8.5877  -16.3156   18.8712 N   0  0  0  0  0  0  0  0  0  0  0  0
    9.6237  -16.4268   21.0128 C   0  0  0  0  0  0  0  0  0  0  0  0
    8.8549  -17.3564   21.3914 O   0  0  0  0  0  0  0  0  0  0  0  0
   10.8506  -16.2243   21.6758 N   0  0  0  0  0  0  0  0  0  0  0  0
   11.3559  -16.9930   22.7638 C   0  0  1  0  0  0  0  0  0  0  0  0
   12.8658  -17.1355   22.8172 C   0  0  0  0  0  0  0  0  0  0  0  0
   13.3345  -17.8238   21.5816 C   0  0  0  0  0  0  0  0  0  0  0  0
   14.8332  -17.7594   21.4570 C   0  0  0  0  0  0  0  0  0  0  0  0
   15.5617  -18.6622   21.9196 O   0  0  0  0  0  0  0  0  0  0  0  0
   10.7260  -16.6306   24.0283 C   0  0  0  0  0  0  0  0  0  0  0  0
   10.8986  -15.4840   24.5702 O   0  0  0  0  0  0  0  0  0  0  0  0
   15.3858  -16.6753   20.8171 O   0  0  0  0  0  0  0  0  0  0  0  0
    7.3826  -15.8736   25.0689 C   0  0  0  0  0  0  0  0  0  0  0  0
    7.8032  -17.0121   25.9338 C   0  0  1  0  0  0  0  0  0  0  0  0
    7.3577  -18.2050   25.3553 O   0  0  0  0  0  0  0  0  0  0  0  0
    9.3111  -17.1386   26.0642 C   0  0  2  0  0  0  0  0  0  0  0  0
    9.8703  -17.5022   24.7732 N   0  0  0  0  0  0  0  0  0  0  0  0
    9.6952  -18.1157   27.1154 C   0  0  0  0  0  0  0  0  0  0  0  0
    9.3561  -17.9692   28.4527 O   0  0  0  0  0  0  0  0  0  0  0  0
   10.3615  -19.1335   26.7973 O   0  0  0  0  0  0  0  0  0  0  0  0
  2  1  1  1
  2  3  1  0
  4  2  1  0
  4  5  1  0
  5  6  1  6
  5  7  1  0
  7  8  2  0
  9  7  1  0
  9 10  1  0
 10 11  1  1
 12 13  1  0
 12 11  1  0
 13 14  2  0
 15 10  1  0
 15 16  2  0
 17 13  1  0
 19 18  1  6
 19 21  1  0
 20 19  1  0
 21 22  1  6
 22 15  1  0
 23 21  1  0
 24 23  1  0
 25 23  2  0
M  END
$$$$
