LET.pdb
     RDKit          3D

 25 24  0  0  1  0  0  0  0  0999 V2000
    8.5083  -13.7069   19.2177 C   0  0  0  0  0  0  0  0  0  0  0  0
    7.5029  -13.4994   20.3590 C   0  0  2  0  0  0  0  0  0  0  0  0
    7.2344  -12.0323   20.5099 C   0  0  0  0  0  0  0  0  0  0  0  0
    8.0969  -14.1592   21.5587 C   0  0  0  0  0  0  0  0  0  0  0  0
    8.3199  -15.6570   21.3874 C   0  0  2  0  0  0  0  0  0  0  0  0
    7.0619  -16.3252   21.1947 N   0  0  0  0  0  0  0  0  0  0  0  0
    8.9278  -16.1192   22.6602 C   0  0  0  0  0  0  0  0  0  0  0  0
    8.2099  -16.4313   23.6531 O   0  0  0  0  0  0  0  0  0  0  0  0
   10.3306  -16.2099   22.7592 N   0  0  0  0  0  0  0  0  0  0  0  0
   11.0688  -16.6097   23.9104 C   0  0  1  0  0  0  0  0  0  0  0  0
   12.4798  -17.1004   23.6435 C   0  0  0  0  0  0  0  0  0  0  0  0
   12.4170  -18.3422   22.8225 C   0  0  0  0  0  0  0  0  0  0  0  0
   13.7946  -18.8126   22.4394 C   0  0  0  0  0  0  0  0  0  0  0  0
   14.5151  -18.1474   21.6660 O   0  0  0  0  0  0  0  0  0  0  0  0
   10.9466  -15.6475   24.9996 C   0  0  0  0  0  0  0  0  0  0  0  0
   11.4836  -14.4870   24.9455 O   0  0  0  0  0  0  0  0  0  0  0  0
   14.2447  -20.0006   22.9647 O   0  0  0  0  0  0  0  0  0  0  0  0
    8.8842  -13.2368   26.2318 C   0  0  0  0  0  0  0  0  0  0  0  0
    9.0037  -14.1732   27.3851 C   0  0  1  0  0  0  0  0  0  0  0  0
    7.9419  -15.0823   27.3384 O   0  0  0  0  0  0  0  0  0  0  0  0
   10.2762  -15.0018   27.3530 C   0  0  2  0  0  0  0  0  0  0  0  0
   10.2292  -15.8997   26.2114 N   0  0  0  0  0  0  0  0  0  0  0  0
   10.4822  -15.7482   28.6210 C   0  0  0  0  0  0  0  0  0  0  0  0
   10.5337  -17.1329   28.6905 O   0  0  0  0  0  0  0  0  0  0  0  0
   10.6190  -15.1110   29.6963 O   0  0  0  0  0  0  0  0  0  0  0  0
  2  1  1  6
  2  3  1  0
  4  2  1  0
  4  5  1  0
  5  6  1  1
  5  7  1  0
  7  8  2  0
  9  7  1  0
  9 10  1  0
 10 11  1  6
 12 13  1  0
 12 11  1  0
 13 14  2  0
 15 10  1  0
 15 16  2  0
 17 13  1  0
 19 18  1  6
 19 21  1  0
 20 19  1  0
 21 22  1  6
 22 15  1  0
 23 21  1  0
 24 23  1  0
 25 23  2  0
M  END
$$$$
