LET.pdb
     RDKit          3D

 25 24  0  0  1  0  0  0  0  0999 V2000
    9.3058  -13.3835   18.8564 C   0  0  0  0  0  0  0  0  0  0  0  0
    7.8183  -13.4127   19.2349 C   0  0  2  0  0  0  0  0  0  0  0  0
    7.2735  -12.0175   19.1744 C   0  0  0  0  0  0  0  0  0  0  0  0
    7.7457  -14.0613   20.5772 C   0  0  0  0  0  0  0  0  0  0  0  0
    8.3085  -15.4773   20.6053 C   0  0  2  0  0  0  0  0  0  0  0  0
    7.4479  -16.3658   19.8730 N   0  0  0  0  0  0  0  0  0  0  0  0
    8.3180  -15.8756   22.0352 C   0  0  0  0  0  0  0  0  0  0  0  0
    7.2430  -16.1234   22.6528 O   0  0  0  0  0  0  0  0  0  0  0  0
    9.5496  -15.9780   22.7122 N   0  0  0  0  0  0  0  0  0  0  0  0
    9.7360  -16.3985   24.0608 C   0  0  1  0  0  0  0  0  0  0  0  0
   10.8355  -17.4213   24.2799 C   0  0  0  0  0  0  0  0  0  0  0  0
   10.5005  -18.6652   23.5312 C   0  0  0  0  0  0  0  0  0  0  0  0
   11.5641  -19.7145   23.7139 C   0  0  0  0  0  0  0  0  0  0  0  0
   12.5825  -19.4926   24.4020 O   0  0  0  0  0  0  0  0  0  0  0  0
    9.7479  -15.2726   24.9878 C   0  0  0  0  0  0  0  0  0  0  0  0
   10.5787  -14.3058   24.8731 O   0  0  0  0  0  0  0  0  0  0  0  0
   11.3871  -20.9323   23.1011 O   0  0  0  0  0  0  0  0  0  0  0  0
    7.1568  -12.6566   25.9259 C   0  0  0  0  0  0  0  0  0  0  0  0
    7.5654  -13.3864   27.1593 C   0  0  1  0  0  0  0  0  0  0  0  0
    6.6532  -14.4205   27.3932 O   0  0  0  0  0  0  0  0  0  0  0  0
    8.9309  -14.0409   27.0422 C   0  0  2  0  0  0  0  0  0  0  0  0
    8.8509  -15.1395   26.0943 N   0  0  0  0  0  0  0  0  0  0  0  0
    9.4396  -14.4992   28.3607 C   0  0  0  0  0  0  0  0  0  0  0  0
    9.6849  -13.6411   29.4230 O   0  0  0  0  0  0  0  0  0  0  0  0
    9.6655  -15.7226   28.5431 O   0  0  0  0  0  0  0  0  0  0  0  0
  2  1  1  1
  2  3  1  0
  4  2  1  0
  4  5  1  0
  5  6  1  6
  5  7  1  0
  7  8  2  0
  9  7  1  0
  9 10  1  0
 10 11  1  6
 12 13  1  0
 12 11  1  0
 13 14  2  0
 15 10  1  0
 15 16  2  0
 17 13  1  0
 19 18  1  6
 19 21  1  0
 20 19  1  0
 21 22  1  6
 22 15  1  0
 23 21  1  0
 24 23  1  0
 25 23  2  0
M  END
$$$$
