LET.pdb
     RDKit          3D

 25 24  0  0  1  0  0  0  0  0999 V2000
    8.9077  -13.4364   19.0461 C   0  0  0  0  0  0  0  0  0  0  0  0
    7.6895  -13.5134   19.9771 C   0  0  2  0  0  0  0  0  0  0  0  0
    7.1839  -12.1255   20.2325 C   0  0  0  0  0  0  0  0  0  0  0  0
    8.1429  -14.2537   21.1912 C   0  0  0  0  0  0  0  0  0  0  0  0
    8.6063  -15.6768   20.9043 C   0  0  2  0  0  0  0  0  0  0  0  0
    7.5085  -16.4647   20.4140 N   0  0  0  0  0  0  0  0  0  0  0  0
    9.0538  -16.2228   22.2101 C   0  0  0  0  0  0  0  0  0  0  0  0
    8.2224  -16.5167   23.1161 O   0  0  0  0  0  0  0  0  0  0  0  0
   10.4308  -16.4150   22.4394 N   0  0  0  0  0  0  0  0  0  0  0  0
   11.0270  -16.8644   23.6530 C   0  0  1  0  0  0  0  0  0  0  0  0
   12.4075  -17.4790   23.5140 C   0  0  0  0  0  0  0  0  0  0  0  0
   12.3197  -18.6823   22.6396 C   0  0  0  0  0  0  0  0  0  0  0  0
   13.6753  -19.3004   22.4253 C   0  0  0  0  0  0  0  0  0  0  0  0
   14.3780  -19.6722   23.3884 O   0  0  0  0  0  0  0  0  0  0  0  0
   10.8943  -15.8829   24.7236 C   0  0  0  0  0  0  0  0  0  0  0  0
   11.3004  -14.6761   24.5942 O   0  0  0  0  0  0  0  0  0  0  0  0
   14.1254  -19.4473   21.1346 O   0  0  0  0  0  0  0  0  0  0  0  0
    8.8237  -13.3837   28.0477 C   0  0  0  0  0  0  0  0  0  0  0  0
    8.9033  -14.5330   27.1024 C   0  0  1  0  0  0  0  0  0  0  0  0
    8.6691  -14.0656   25.8052 O   0  0  0  0  0  0  0  0  0  0  0  0
   10.2710  -15.1930   27.0774 C   0  0  2  0  0  0  0  0  0  0  0  0
   10.3091  -16.1653   25.9981 N   0  0  0  0  0  0  0  0  0  0  0  0
   10.6071  -15.8187   28.3822 C   0  0  0  0  0  0  0  0  0  0  0  0
   10.8615  -15.0890   29.5345 O   0  0  0  0  0  0  0  0  0  0  0  0
   10.6692  -17.0717   28.4674 O   0  0  0  0  0  0  0  0  0  0  0  0
  2  1  1  6
  2  3  1  0
  4  2  1  0
  4  5  1  0
  5  6  1  1
  5  7  1  0
  7  8  2  0
  9  7  1  0
  9 10  1  0
 10 11  1  6
 12 13  1  0
 12 11  1  0
 13 14  2  0
 15 10  1  0
 15 16  2  0
 17 13  1  0
 19 18  1  1
 19 21  1  0
 20 19  1  0
 21 22  1  6
 22 15  1  0
 23 21  1  0
 24 23  1  0
 25 23  2  0
M  END
$$$$
