LET.pdb
     RDKit          3D

 25 24  0  0  1  0  0  0  0  0999 V2000
    8.8779  -12.8869   18.2119 C   0  0  0  0  0  0  0  0  0  0  0  0
    7.9332  -13.5291   19.2374 C   0  0  2  0  0  0  0  0  0  0  0  0
    7.1259  -12.4517   19.8966 C   0  0  0  0  0  0  0  0  0  0  0  0
    8.7997  -14.3220   20.1583 C   0  0  0  0  0  0  0  0  0  0  0  0
    9.5536  -15.4530   19.4690 C   0  0  2  0  0  0  0  0  0  0  0  0
    8.6250  -16.3934   18.9037 N   0  0  0  0  0  0  0  0  0  0  0  0
   10.3357  -16.1224   20.5384 C   0  0  0  0  0  0  0  0  0  0  0  0
    9.8261  -17.0370   21.2472 O   0  0  0  0  0  0  0  0  0  0  0  0
   11.6695  -15.7280   20.7641 N   0  0  0  0  0  0  0  0  0  0  0  0
   12.5488  -16.2602   21.7509 C   0  0  1  0  0  0  0  0  0  0  0  0
   14.0223  -15.9646   21.5404 C   0  0  0  0  0  0  0  0  0  0  0  0
   14.8162  -16.6787   22.5795 C   0  0  0  0  0  0  0  0  0  0  0  0
   16.2906  -16.4309   22.4050 C   0  0  0  0  0  0  0  0  0  0  0  0
   16.9598  -17.0667   21.5637 O   0  0  0  0  0  0  0  0  0  0  0  0
   12.0598  -16.0225   23.1042 C   0  0  0  0  0  0  0  0  0  0  0  0
   12.6217  -15.1862   23.8935 O   0  0  0  0  0  0  0  0  0  0  0  0
   16.8881  -15.4812   23.1993 O   0  0  0  0  0  0  0  0  0  0  0  0
    8.7035  -14.8357   24.4116 C   0  0  0  0  0  0  0  0  0  0  0  0
    9.0172  -16.1421   25.0566 C   0  0  1  0  0  0  0  0  0  0  0  0
    8.3807  -17.1614   24.3412 O   0  0  0  0  0  0  0  0  0  0  0  0
   10.4992  -16.4741   25.0447 C   0  0  2  0  0  0  0  0  0  0  0  0
   10.9270  -16.6864   23.6722 N   0  0  0  0  0  0  0  0  0  0  0  0
   10.8091  -17.6511   25.8968 C   0  0  0  0  0  0  0  0  0  0  0  0
   11.3428  -18.8318   25.4008 O   0  0  0  0  0  0  0  0  0  0  0  0
   10.5836  -17.5942   27.1325 O   0  0  0  0  0  0  0  0  0  0  0  0
  2  1  1  6
  2  3  1  0
  4  2  1  0
  4  5  1  0
  5  6  1  1
  5  7  1  0
  7  8  2  0
  9  7  1  0
  9 10  1  0
 10 11  1  1
 12 13  1  0
 12 11  1  0
 13 14  2  0
 15 10  1  0
 15 16  2  0
 17 13  1  0
 19 18  1  6
 19 21  1  0
 20 19  1  0
 21 22  1  6
 22 15  1  0
 23 21  1  0
 24 23  1  0
 25 23  2  0
M  END
$$$$
