LET.pdb
     RDKit          3D

 25 24  0  0  1  0  0  0  0  0999 V2000
    9.1183  -13.2178   18.2628 C   0  0  0  0  0  0  0  0  0  0  0  0
    7.7720  -13.3468   18.9890 C   0  0  2  0  0  0  0  0  0  0  0  0
    7.3293  -11.9869   19.4382 C   0  0  0  0  0  0  0  0  0  0  0  0
    7.9870  -14.3354   20.0863 C   0  0  0  0  0  0  0  0  0  0  0  0
    8.4971  -15.6874   19.6024 C   0  0  2  0  0  0  0  0  0  0  0  0
    7.4514  -16.3919   18.9121 N   0  0  0  0  0  0  0  0  0  0  0  0
    8.8642  -16.4388   20.8288 C   0  0  0  0  0  0  0  0  0  0  0  0
    7.9822  -16.9906   21.5471 O   0  0  0  0  0  0  0  0  0  0  0  0
   10.2215  -16.5358   21.1952 N   0  0  0  0  0  0  0  0  0  0  0  0
   10.7428  -17.2540   22.3099 C   0  0  1  0  0  0  0  0  0  0  0  0
   12.1461  -17.8041   22.1340 C   0  0  0  0  0  0  0  0  0  0  0  0
   12.5581  -18.4988   23.3861 C   0  0  0  0  0  0  0  0  0  0  0  0
   13.9553  -19.0467   23.2711 C   0  0  0  0  0  0  0  0  0  0  0  0
   14.1773  -20.2742   23.3302 O   0  0  0  0  0  0  0  0  0  0  0  0
   10.5079  -16.5556   23.5686 C   0  0  0  0  0  0  0  0  0  0  0  0
   11.2452  -15.5833   23.9548 O   0  0  0  0  0  0  0  0  0  0  0  0
   14.9894  -18.1574   23.0982 O   0  0  0  0  0  0  0  0  0  0  0  0
    7.6596  -14.5196   24.8549 C   0  0  0  0  0  0  0  0  0  0  0  0
    7.8835  -15.6258   25.8283 C   0  0  1  0  0  0  0  0  0  0  0  0
    7.0043  -16.6719   25.5304 O   0  0  0  0  0  0  0  0  0  0  0  0
    9.2830  -16.2114   25.7563 C   0  0  2  0  0  0  0  0  0  0  0  0
    9.4522  -16.8808   24.4775 N   0  0  0  0  0  0  0  0  0  0  0  0
    9.5563  -17.1321   26.8898 C   0  0  0  0  0  0  0  0  0  0  0  0
    9.6172  -16.7160   28.2120 O   0  0  0  0  0  0  0  0  0  0  0  0
    9.7446  -18.3539   26.6602 O   0  0  0  0  0  0  0  0  0  0  0  0
  2  1  1  1
  2  3  1  0
  4  2  1  0
  4  5  1  0
  5  6  1  1
  5  7  1  0
  7  8  2  0
  9  7  1  0
  9 10  1  0
 10 11  1  6
 12 13  1  0
 12 11  1  0
 13 14  2  0
 15 10  1  0
 15 16  2  0
 17 13  1  0
 19 18  1  6
 19 21  1  0
 20 19  1  0
 21 22  1  6
 22 15  1  0
 23 21  1  0
 24 23  1  0
 25 23  2  0
M  END
$$$$
