LET.pdb
     RDKit          3D

 25 24  0  0  1  0  0  0  0  0999 V2000
    9.3551  -13.5147   18.5490 C   0  0  0  0  0  0  0  0  0  0  0  0
    7.8974  -13.3768   19.0103 C   0  0  2  0  0  0  0  0  0  0  0  0
    7.5105  -11.9290   18.9737 C   0  0  0  0  0  0  0  0  0  0  0  0
    7.8278  -14.0152   20.3576 C   0  0  0  0  0  0  0  0  0  0  0  0
    8.2956  -15.4655   20.3739 C   0  0  2  0  0  0  0  0  0  0  0  0
    7.3426  -16.3000   19.6945 N   0  0  0  0  0  0  0  0  0  0  0  0
    8.3493  -15.8524   21.8060 C   0  0  0  0  0  0  0  0  0  0  0  0
    7.2928  -15.9935   22.4859 O   0  0  0  0  0  0  0  0  0  0  0  0
    9.6025  -16.0649   22.4142 N   0  0  0  0  0  0  0  0  0  0  0  0
    9.8250  -16.5364   23.7403 C   0  0  1  0  0  0  0  0  0  0  0  0
   10.9846  -17.5015   23.9043 C   0  0  0  0  0  0  0  0  0  0  0  0
   11.0610  -17.9344   25.3280 C   0  0  0  0  0  0  0  0  0  0  0  0
   12.2220  -18.8656   25.5530 C   0  0  0  0  0  0  0  0  0  0  0  0
   12.1077  -19.8836   26.2672 O   0  0  0  0  0  0  0  0  0  0  0  0
    9.7788  -15.4565   24.7194 C   0  0  0  0  0  0  0  0  0  0  0  0
   10.6163  -14.4887   24.7049 O   0  0  0  0  0  0  0  0  0  0  0  0
   13.4206  -18.5670   24.9493 O   0  0  0  0  0  0  0  0  0  0  0  0
    7.2821  -12.7749   25.5344 C   0  0  0  0  0  0  0  0  0  0  0  0
    7.4922  -13.6000   26.7575 C   0  0  1  0  0  0  0  0  0  0  0  0
    6.5112  -14.5959   26.8024 O   0  0  0  0  0  0  0  0  0  0  0  0
    8.8302  -14.3187   26.7714 C   0  0  2  0  0  0  0  0  0  0  0  0
    8.8130  -15.3731   25.7715 N   0  0  0  0  0  0  0  0  0  0  0  0
    9.1562  -14.8546   28.1181 C   0  0  0  0  0  0  0  0  0  0  0  0
    9.3258  -14.0522   29.2372 O   0  0  0  0  0  0  0  0  0  0  0  0
    9.2892  -16.0954   28.2723 O   0  0  0  0  0  0  0  0  0  0  0  0
  2  1  1  1
  2  3  1  0
  4  2  1  0
  4  5  1  0
  5  6  1  6
  5  7  1  0
  7  8  2  0
  9  7  1  0
  9 10  1  0
 10 11  1  6
 12 13  1  0
 12 11  1  0
 13 14  2  0
 15 10  1  0
 15 16  2  0
 17 13  1  0
 19 18  1  6
 19 21  1  0
 20 19  1  0
 21 22  1  6
 22 15  1  0
 23 21  1  0
 24 23  1  0
 25 23  2  0
M  END
$$$$
