LET.pdb
     RDKit          3D

 25 24  0  0  1  0  0  0  0  0999 V2000
    9.0431  -13.0191   18.2594 C   0  0  0  0  0  0  0  0  0  0  0  0
    7.7905  -13.5039   19.0028 C   0  0  2  0  0  0  0  0  0  0  0  0
    7.0349  -12.3130   19.5108 C   0  0  0  0  0  0  0  0  0  0  0  0
    8.2731  -14.4427   20.0579 C   0  0  0  0  0  0  0  0  0  0  0  0
    8.9910  -15.6685   19.5062 C   0  0  2  0  0  0  0  0  0  0  0  0
    8.0807  -16.4682   18.7329 N   0  0  0  0  0  0  0  0  0  0  0  0
    9.4319  -16.4421   20.6939 C   0  0  0  0  0  0  0  0  0  0  0  0
    8.6167  -17.1456   21.3564 O   0  0  0  0  0  0  0  0  0  0  0  0
   10.7843  -16.3883   21.0862 N   0  0  0  0  0  0  0  0  0  0  0  0
   11.3743  -17.0978   22.1719 C   0  0  1  0  0  0  0  0  0  0  0  0
   12.8688  -17.3369   22.0606 C   0  0  0  0  0  0  0  0  0  0  0  0
   13.1193  -18.3882   21.0349 C   0  0  0  0  0  0  0  0  0  0  0  0
   14.5940  -18.5935   20.8137 C   0  0  0  0  0  0  0  0  0  0  0  0
   15.0765  -18.6413   19.6628 O   0  0  0  0  0  0  0  0  0  0  0  0
   10.9257  -16.5915   23.4640 C   0  0  0  0  0  0  0  0  0  0  0  0
   11.3448  -15.4808   23.9421 O   0  0  0  0  0  0  0  0  0  0  0  0
   15.4037  -18.7281   21.9166 O   0  0  0  0  0  0  0  0  0  0  0  0
    8.0173  -15.0803   24.6725 C   0  0  0  0  0  0  0  0  0  0  0  0
    8.1824  -16.2648   25.5616 C   0  0  1  0  0  0  0  0  0  0  0  0
    7.4107  -17.3168   25.0576 O   0  0  0  0  0  0  0  0  0  0  0  0
    9.6120  -16.7744   25.6194 C   0  0  2  0  0  0  0  0  0  0  0  0
    9.9920  -17.2717   24.3079 N   0  0  0  0  0  0  0  0  0  0  0  0
    9.7862  -17.8156   26.6648 C   0  0  0  0  0  0  0  0  0  0  0  0
    9.5353  -17.5933   28.0111 O   0  0  0  0  0  0  0  0  0  0  0  0
   10.1802  -18.9626   26.3330 O   0  0  0  0  0  0  0  0  0  0  0  0
  2  1  1  1
  2  3  1  0
  4  2  1  0
  4  5  1  0
  5  6  1  6
  5  7  1  0
  7  8  2  0
  9  7  1  0
  9 10  1  0
 10 11  1  1
 12 13  1  0
 12 11  1  0
 13 14  2  0
 15 10  1  0
 15 16  2  0
 17 13  1  0
 19 18  1  6
 19 21  1  0
 20 19  1  0
 21 22  1  6
 22 15  1  0
 23 21  1  0
 24 23  1  0
 25 23  2  0
M  END
$$$$
