GYE.pdb
     RDKit          3D

 26 26  0  0  1  0  0  0  0  0999 V2000
   28.1618  -10.2668  -18.6624 N   0  0  0  0  0  0  0  0  0  0  0  0
   27.6661   -9.7977  -17.3850 C   0  0  0  0  0  0  0  0  0  0  0  0
   26.2479  -10.2004  -17.1716 C   0  0  0  0  0  0  0  0  0  0  0  0
   25.5649  -10.7135  -18.1048 O   0  0  0  0  0  0  0  0  0  0  0  0
   25.3349  -16.7085  -15.5744 O   0  0  0  0  0  0  0  0  0  0  0  0
   25.0232  -15.3823  -15.3315 C   0  0  0  0  0  0  0  0  0  0  0  0
   25.9613  -14.5584  -14.7197 C   0  0  0  0  0  0  0  0  0  0  0  0
   25.6387  -13.2426  -14.4842 C   0  0  0  0  0  0  0  0  0  0  0  0
   24.4110  -12.6940  -14.8312 C   0  0  0  0  0  0  0  0  0  0  0  0
   24.1841  -11.2995  -14.5314 C   0  0  0  0  0  0  0  0  0  0  0  0
   24.2439  -10.3294  -15.6483 C   0  0  2  0  0  0  0  0  0  0  0  0
   25.6335  -10.0183  -15.9224 N   0  0  0  0  0  0  0  0  0  0  0  0
   23.5659   -9.0538  -15.3062 C   0  0  0  0  0  0  0  0  0  0  0  0
   24.2044   -8.0198  -14.9758 O   0  0  0  0  0  0  0  0  0  0  0  0
   23.5122  -13.5477  -15.4353 C   0  0  0  0  0  0  0  0  0  0  0  0
   23.8103  -14.8732  -15.6836 C   0  0  0  0  0  0  0  0  0  0  0  0
   22.1753   -8.9699  -15.3439 N   0  0  0  0  0  0  0  0  0  0  0  0
   21.4431   -7.7006  -15.2813 C   0  0  1  0  0  0  0  0  0  0  0  0
   22.1063   -6.8100  -16.2578 C   0  0  0  0  0  0  0  0  0  0  0  0
   21.5760   -5.4554  -16.4912 C   0  0  0  0  0  0  0  0  0  0  0  0
   22.2309   -4.6697  -17.5544 C   0  0  0  0  0  0  0  0  0  0  0  0
   23.4596   -4.4314  -17.5345 O   0  0  0  0  0  0  0  0  0  0  0  0
   20.0117   -7.8554  -15.2771 C   0  0  0  0  0  0  0  0  0  0  0  0
   19.3979   -8.7276  -15.9813 O   0  0  0  0  0  0  0  0  0  0  0  0
   21.4681   -4.1858  -18.5973 O   0  0  0  0  0  0  0  0  0  0  0  0
   19.1384   -7.0733  -14.4949 O   0  0  0  0  0  0  0  0  0  0  0  0
  1  2  1  0
  2  3  1  0
  3 12  1  0
  3  4  2  0
  6 16  2  0
  6  5  1  0
  7  6  1  0
  8  9  1  0
  8  7  2  0
  9 15  2  0
 10  9  1  0
 11 10  1  1
 11 13  1  0
 12 11  1  0
 13 14  2  0
 13 17  1  0
 15 16  1  0
 17 18  1  0
 18 23  1  0
 18 19  1  6
 20 21  1  0
 20 19  1  0
 21 25  1  0
 22 21  2  0
 23 26  1  0
 24 23  2  0
M  END
$$$$
