GYE.pdb
     RDKit          3D

 26 26  0  0  1  0  0  0  0  0999 V2000
   21.7383  -14.7653  -16.4857 N   0  0  0  0  0  0  0  0  0  0  0  0
   22.0845  -13.5659  -17.2198 C   0  0  0  0  0  0  0  0  0  0  0  0
   22.5857  -12.4980  -16.3102 C   0  0  0  0  0  0  0  0  0  0  0  0
   22.4176  -12.5713  -15.0584 O   0  0  0  0  0  0  0  0  0  0  0  0
   29.2905  -13.5398  -16.1968 O   0  0  0  0  0  0  0  0  0  0  0  0
   28.2327  -12.6482  -16.2313 C   0  0  0  0  0  0  0  0  0  0  0  0
   28.2217  -11.6336  -17.1817 C   0  0  0  0  0  0  0  0  0  0  0  0
   27.1646  -10.7545  -17.2050 C   0  0  0  0  0  0  0  0  0  0  0  0
   26.0998  -10.8330  -16.3170 C   0  0  0  0  0  0  0  0  0  0  0  0
   25.0466   -9.8517  -16.4351 C   0  0  0  0  0  0  0  0  0  0  0  0
   23.6798  -10.2454  -16.0241 C   0  0  2  0  0  0  0  0  0  0  0  0
   23.2601  -11.3792  -16.8247 N   0  0  0  0  0  0  0  0  0  0  0  0
   22.6997   -9.1549  -16.2564 C   0  0  0  0  0  0  0  0  0  0  0  0
   22.1026   -9.0095  -17.3556 O   0  0  0  0  0  0  0  0  0  0  0  0
   26.1528  -11.8545  -15.3922 C   0  0  0  0  0  0  0  0  0  0  0  0
   27.2024  -12.7511  -15.3468 C   0  0  0  0  0  0  0  0  0  0  0  0
   22.4116   -8.2463  -15.2396 N   0  0  0  0  0  0  0  0  0  0  0  0
   21.2916   -7.3011  -15.2977 C   0  0  1  0  0  0  0  0  0  0  0  0
   20.0917   -8.1218  -15.5681 C   0  0  0  0  0  0  0  0  0  0  0  0
   18.7597   -7.4922  -15.5724 C   0  0  0  0  0  0  0  0  0  0  0  0
   17.6143   -8.3844  -15.8339 C   0  0  0  0  0  0  0  0  0  0  0  0
   17.4880   -8.9917  -16.9212 O   0  0  0  0  0  0  0  0  0  0  0  0
   21.2966   -6.3286  -14.2360 C   0  0  0  0  0  0  0  0  0  0  0  0
   21.7348   -6.5746  -13.0609 O   0  0  0  0  0  0  0  0  0  0  0  0
   16.6580   -8.5531  -14.8536 O   0  0  0  0  0  0  0  0  0  0  0  0
   20.8303   -5.0063  -14.3784 O   0  0  0  0  0  0  0  0  0  0  0  0
  1  2  1  0
  2  3  1  0
  3 12  1  0
  3  4  2  0
  6 16  2  0
  6  5  1  0
  7  6  1  0
  8  9  1  0
  8  7  2  0
  9 15  2  0
 10  9  1  0
 11 10  1  6
 11 13  1  0
 12 11  1  0
 13 14  2  0
 13 17  1  0
 15 16  1  0
 17 18  1  0
 18 23  1  0
 18 19  1  1
 20 21  1  0
 20 19  1  0
 21 25  1  0
 22 21  2  0
 23 26  1  0
 24 23  2  0
M  END
$$$$
