GYE.pdb
     RDKit          3D

 26 26  0  0  1  0  0  0  0  0999 V2000
   25.9371  -23.5720  -15.9187 N   0  0  0  0  0  0  0  0  0  0  0  0
   26.5507  -22.4031  -15.3234 C   0  0  0  0  0  0  0  0  0  0  0  0
   26.1901  -22.2739  -13.8839 C   0  0  0  0  0  0  0  0  0  0  0  0
   25.3337  -23.0382  -13.3518 O   0  0  0  0  0  0  0  0  0  0  0  0
   27.4399  -19.8346   -5.4298 O   0  0  0  0  0  0  0  0  0  0  0  0
   27.5212  -20.0317   -6.7971 C   0  0  0  0  0  0  0  0  0  0  0  0
   26.8601  -19.1608   -7.6560 C   0  0  0  0  0  0  0  0  0  0  0  0
   26.9491  -19.3681   -9.0124 C   0  0  0  0  0  0  0  0  0  0  0  0
   27.6736  -20.4141   -9.5688 C   0  0  0  0  0  0  0  0  0  0  0  0
   27.6924  -20.5336  -11.0081 C   0  0  0  0  0  0  0  0  0  0  0  0
   26.4980  -21.1003  -11.6746 C   0  0  2  0  0  0  0  0  0  0  0  0
   26.7963  -21.2952  -13.0802 N   0  0  0  0  0  0  0  0  0  0  0  0
   25.3350  -20.1811  -11.5943 C   0  0  0  0  0  0  0  0  0  0  0  0
   25.3435  -19.0372  -12.1212 O   0  0  0  0  0  0  0  0  0  0  0  0
   28.3126  -21.2523   -8.6796 C   0  0  0  0  0  0  0  0  0  0  0  0
   28.2399  -21.0669   -7.3129 C   0  0  0  0  0  0  0  0  0  0  0  0
   24.1807  -20.5724  -10.9184 N   0  0  0  0  0  0  0  0  0  0  0  0
   22.8830  -19.9112  -11.0912 C   0  0  1  0  0  0  0  0  0  0  0  0
   22.6105  -19.9430  -12.5442 C   0  0  0  0  0  0  0  0  0  0  0  0
   21.7741  -21.0163  -13.1090 C   0  0  0  0  0  0  0  0  0  0  0  0
   21.5277  -20.9588  -14.5624 C   0  0  0  0  0  0  0  0  0  0  0  0
   21.9098  -21.8698  -15.3312 O   0  0  0  0  0  0  0  0  0  0  0  0
   21.8848  -20.3342  -10.1437 C   0  0  0  0  0  0  0  0  0  0  0  0
   22.0370  -21.3350   -9.3636 O   0  0  0  0  0  0  0  0  0  0  0  0
   20.8584  -19.8721  -15.0868 O   0  0  0  0  0  0  0  0  0  0  0  0
   20.6437  -19.6899   -9.9685 O   0  0  0  0  0  0  0  0  0  0  0  0
  1  2  1  0
  2  3  1  0
  3 12  1  0
  3  4  2  0
  6 16  2  0
  6  5  1  0
  7  6  1  0
  8  9  1  0
  8  7  2  0
  9 15  2  0
 10  9  1  0
 11 10  1  1
 11 13  1  0
 12 11  1  0
 13 14  2  0
 13 17  1  0
 15 16  1  0
 17 18  1  0
 18 23  1  0
 18 19  1  6
 20 21  1  0
 20 19  1  0
 21 25  1  0
 22 21  2  0
 23 26  1  0
 24 23  2  0
M  END
$$$$
