GYE.pdb
     RDKit          3D

 26 26  0  0  1  0  0  0  0  0999 V2000
   11.8271  -23.2902   -2.6054 N   0  0  0  0  0  0  0  0  0  0  0  0
   12.7327  -23.0646   -1.4980 C   0  0  0  0  0  0  0  0  0  0  0  0
   13.4640  -24.3097   -1.1320 C   0  0  0  0  0  0  0  0  0  0  0  0
   13.0705  -25.4429   -1.5341 O   0  0  0  0  0  0  0  0  0  0  0  0
   17.0223  -26.1489   -6.2739 O   0  0  0  0  0  0  0  0  0  0  0  0
   16.9481  -25.8856   -4.9173 C   0  0  0  0  0  0  0  0  0  0  0  0
   17.3251  -26.8663   -4.0068 C   0  0  0  0  0  0  0  0  0  0  0  0
   17.2466  -26.5916   -2.6618 C   0  0  0  0  0  0  0  0  0  0  0  0
   16.8050  -25.3716   -2.1665 C   0  0  0  0  0  0  0  0  0  0  0  0
   16.7624  -25.1988   -0.7331 C   0  0  0  0  0  0  0  0  0  0  0  0
   15.4646  -25.3933   -0.0475 C   0  0  2  0  0  0  0  0  0  0  0  0
   14.6133  -24.2533   -0.3277 N   0  0  0  0  0  0  0  0  0  0  0  0
   15.6269  -25.4705    1.4261 C   0  0  0  0  0  0  0  0  0  0  0  0
   15.6883  -24.4426    2.1512 O   0  0  0  0  0  0  0  0  0  0  0  0
   16.4417  -24.4293   -3.1054 C   0  0  0  0  0  0  0  0  0  0  0  0
   16.5109  -24.6789   -4.4621 C   0  0  0  0  0  0  0  0  0  0  0  0
   15.7170  -26.7110    2.0549 N   0  0  0  0  0  0  0  0  0  0  0  0
   15.8833  -26.8695    3.5035 C   0  0  1  0  0  0  0  0  0  0  0  0
   15.0827  -28.0579    3.8684 C   0  0  0  0  0  0  0  0  0  0  0  0
   15.0726  -28.5340    5.2626 C   0  0  0  0  0  0  0  0  0  0  0  0
   14.3511  -29.7950    5.5190 C   0  0  0  0  0  0  0  0  0  0  0  0
   13.8034  -30.4393    4.5959 O   0  0  0  0  0  0  0  0  0  0  0  0
   17.2450  -26.7314    3.9503 C   0  0  0  0  0  0  0  0  0  0  0  0
   17.5621  -26.3481    5.1276 O   0  0  0  0  0  0  0  0  0  0  0  0
   14.2788  -30.2758    6.8103 O   0  0  0  0  0  0  0  0  0  0  0  0
   18.3686  -27.0105    3.1466 O   0  0  0  0  0  0  0  0  0  0  0  0
  1  2  1  0
  2  3  1  0
  3 12  1  0
  3  4  2  0
  6 16  2  0
  6  5  1  0
  7  6  1  0
  8  9  1  0
  8  7  2  0
  9 15  2  0
 10  9  1  0
 11 10  1  6
 11 13  1  0
 12 11  1  0
 13 14  2  0
 13 17  1  0
 15 16  1  0
 17 18  1  0
 18 23  1  0
 18 19  1  6
 20 21  1  0
 20 19  1  0
 21 25  1  0
 22 21  2  0
 23 26  1  0
 24 23  2  0
M  END
$$$$
