GYE.pdb
     RDKit          3D

 26 26  0  0  1  0  0  0  0  0999 V2000
   18.3401  -12.6144  -14.9681 N   0  0  0  0  0  0  0  0  0  0  0  0
   19.2328  -12.5726  -16.1077 C   0  0  0  0  0  0  0  0  0  0  0  0
   20.5488  -11.9763  -15.7452 C   0  0  0  0  0  0  0  0  0  0  0  0
   20.6936  -11.3046  -14.6829 O   0  0  0  0  0  0  0  0  0  0  0  0
   29.3269  -10.5451  -16.7583 O   0  0  0  0  0  0  0  0  0  0  0  0
   28.0158  -10.9827  -16.8242 C   0  0  0  0  0  0  0  0  0  0  0  0
   27.5017  -11.7658  -15.7968 C   0  0  0  0  0  0  0  0  0  0  0  0
   26.1974  -12.1939  -15.8748 C   0  0  0  0  0  0  0  0  0  0  0  0
   25.3633  -11.8787  -16.9394 C   0  0  0  0  0  0  0  0  0  0  0  0
   24.0118  -12.3877  -16.9138 C   0  0  0  0  0  0  0  0  0  0  0  0
   22.9523  -11.5196  -16.3517 C   0  0  2  0  0  0  0  0  0  0  0  0
   21.6651  -12.1472  -16.5795 N   0  0  0  0  0  0  0  0  0  0  0  0
   22.9189  -10.1921  -17.0154 C   0  0  0  0  0  0  0  0  0  0  0  0
   22.2565   -9.9811  -18.0656 O   0  0  0  0  0  0  0  0  0  0  0  0
   25.9152  -11.1004  -17.9349 C   0  0  0  0  0  0  0  0  0  0  0  0
   27.2221  -10.6568  -17.8817 C   0  0  0  0  0  0  0  0  0  0  0  0
   23.6363   -9.1246  -16.4788 N   0  0  0  0  0  0  0  0  0  0  0  0
   23.5335   -7.7509  -16.9824 C   0  0  1  0  0  0  0  0  0  0  0  0
   22.1049   -7.3887  -16.8617 C   0  0  0  0  0  0  0  0  0  0  0  0
   21.6778   -6.0009  -17.1112 C   0  0  0  0  0  0  0  0  0  0  0  0
   20.2420   -5.7147  -16.9295 C   0  0  0  0  0  0  0  0  0  0  0  0
   19.6626   -5.9213  -15.8392 O   0  0  0  0  0  0  0  0  0  0  0  0
   24.5617   -6.8726  -16.4882 C   0  0  0  0  0  0  0  0  0  0  0  0
   24.8350   -5.7429  -17.0196 O   0  0  0  0  0  0  0  0  0  0  0  0
   19.5201   -5.2058  -17.9895 O   0  0  0  0  0  0  0  0  0  0  0  0
   25.3671   -7.1570  -15.3672 O   0  0  0  0  0  0  0  0  0  0  0  0
  1  2  1  0
  2  3  1  0
  3 12  1  0
  3  4  2  0
  6 16  2  0
  6  5  1  0
  7  6  1  0
  8  9  1  0
  8  7  2  0
  9 15  2  0
 10  9  1  0
 11 10  1  6
 11 13  1  0
 12 11  1  0
 13 14  2  0
 13 17  1  0
 15 16  1  0
 17 18  1  0
 18 23  1  0
 18 19  1  1
 20 21  1  0
 20 19  1  0
 21 25  1  0
 22 21  2  0
 23 26  1  0
 24 23  2  0
M  END
$$$$
