GYE.pdb
     RDKit          3D

 26 26  0  0  1  0  0  0  0  0999 V2000
   28.0284  -23.6705  -17.9006 N   0  0  0  0  0  0  0  0  0  0  0  0
   27.7847  -22.3937  -17.2619 C   0  0  0  0  0  0  0  0  0  0  0  0
   26.9214  -22.5450  -16.0574 C   0  0  0  0  0  0  0  0  0  0  0  0
   26.5020  -23.6808  -15.6902 O   0  0  0  0  0  0  0  0  0  0  0  0
   23.7311  -20.8190   -8.0514 O   0  0  0  0  0  0  0  0  0  0  0  0
   24.3731  -20.7718   -9.2763 C   0  0  0  0  0  0  0  0  0  0  0  0
   23.6626  -20.3901  -10.4088 C   0  0  0  0  0  0  0  0  0  0  0  0
   24.3127  -20.3474  -11.6197 C   0  0  0  0  0  0  0  0  0  0  0  0
   25.6555  -20.6702  -11.7657 C   0  0  0  0  0  0  0  0  0  0  0  0
   26.2302  -20.5917  -13.0885 C   0  0  0  0  0  0  0  0  0  0  0  0
   25.6817  -21.4794  -14.1388 C   0  0  2  0  0  0  0  0  0  0  0  0
   26.5513  -21.4236  -15.2979 N   0  0  0  0  0  0  0  0  0  0  0  0
   24.3326  -21.0432  -14.5787 C   0  0  0  0  0  0  0  0  0  0  0  0
   24.1384  -19.9471  -15.1676 O   0  0  0  0  0  0  0  0  0  0  0  0
   26.3201  -21.0430  -10.6164 C   0  0  0  0  0  0  0  0  0  0  0  0
   25.6914  -21.0942   -9.3877 C   0  0  0  0  0  0  0  0  0  0  0  0
   23.2249  -21.8559  -14.3445 N   0  0  0  0  0  0  0  0  0  0  0  0
   21.8423  -21.4120  -14.5510 C   0  0  1  0  0  0  0  0  0  0  0  0
   21.4027  -22.0518  -15.8096 C   0  0  0  0  0  0  0  0  0  0  0  0
   21.7729  -21.4527  -17.1037 C   0  0  0  0  0  0  0  0  0  0  0  0
   21.1165  -20.1768  -17.4467 C   0  0  0  0  0  0  0  0  0  0  0  0
   19.8749  -20.0354  -17.3747 O   0  0  0  0  0  0  0  0  0  0  0  0
   21.0277  -21.4784  -13.3657 C   0  0  0  0  0  0  0  0  0  0  0  0
   21.2436  -22.3000  -12.4108 O   0  0  0  0  0  0  0  0  0  0  0  0
   21.8926  -19.1124  -17.8573 O   0  0  0  0  0  0  0  0  0  0  0  0
   19.9169  -20.6446  -13.1271 O   0  0  0  0  0  0  0  0  0  0  0  0
  1  2  1  0
  2  3  1  0
  3 12  1  0
  3  4  2  0
  6 16  2  0
  6  5  1  0
  7  6  1  0
  8  9  1  0
  8  7  2  0
  9 15  2  0
 10  9  1  0
 11 10  1  1
 11 13  1  0
 12 11  1  0
 13 14  2  0
 13 17  1  0
 15 16  1  0
 17 18  1  0
 18 23  1  0
 18 19  1  6
 20 21  1  0
 20 19  1  0
 21 25  1  0
 22 21  2  0
 23 26  1  0
 24 23  2  0
M  END
$$$$
