GYE.pdb
     RDKit          3D

 26 26  0  0  1  0  0  0  0  0999 V2000
   23.2161  -37.7470   -7.7786 N   0  0  0  0  0  0  0  0  0  0  0  0
   22.9462  -36.6781   -6.8395 C   0  0  0  0  0  0  0  0  0  0  0  0
   24.1834  -36.2587   -6.1236 C   0  0  0  0  0  0  0  0  0  0  0  0
   25.3140  -36.7325   -6.4365 O   0  0  0  0  0  0  0  0  0  0  0  0
   26.0371  -31.8088  -10.0869 O   0  0  0  0  0  0  0  0  0  0  0  0
   25.8416  -32.1756   -8.7670 C   0  0  0  0  0  0  0  0  0  0  0  0
   26.9292  -32.5726   -7.9972 C   0  0  0  0  0  0  0  0  0  0  0  0
   26.7209  -32.9344   -6.6871 C   0  0  0  0  0  0  0  0  0  0  0  0
   25.4660  -32.9220   -6.0923 C   0  0  0  0  0  0  0  0  0  0  0  0
   25.3689  -33.3260   -4.7090 C   0  0  0  0  0  0  0  0  0  0  0  0
   25.2868  -34.7740   -4.4115 C   0  0  2  0  0  0  0  0  0  0  0  0
   24.1222  -35.3224   -5.0792 N   0  0  0  0  0  0  0  0  0  0  0  0
   25.1223  -35.0288   -2.9583 C   0  0  0  0  0  0  0  0  0  0  0  0
   23.9900  -35.1092   -2.4130 O   0  0  0  0  0  0  0  0  0  0  0  0
   24.4172  -32.5216   -6.8931 C   0  0  0  0  0  0  0  0  0  0  0  0
   24.5984  -32.1530   -8.2118 C   0  0  0  0  0  0  0  0  0  0  0  0
   26.2434  -35.1884   -2.1458 N   0  0  0  0  0  0  0  0  0  0  0  0
   26.1631  -35.5008   -0.7150 C   0  0  1  0  0  0  0  0  0  0  0  0
   27.5043  -35.9982   -0.3404 C   0  0  0  0  0  0  0  0  0  0  0  0
   28.2098  -36.9402   -1.2268 C   0  0  0  0  0  0  0  0  0  0  0  0
   29.5457  -37.3818   -0.7832 C   0  0  0  0  0  0  0  0  0  0  0  0
   30.5715  -36.6996   -1.0051 O   0  0  0  0  0  0  0  0  0  0  0  0
   25.5088  -34.4834    0.0658 C   0  0  0  0  0  0  0  0  0  0  0  0
   25.2111  -33.3287   -0.3940 O   0  0  0  0  0  0  0  0  0  0  0  0
   29.6662  -38.5779   -0.1060 O   0  0  0  0  0  0  0  0  0  0  0  0
   25.1200  -34.6520    1.4099 O   0  0  0  0  0  0  0  0  0  0  0  0
  1  2  1  0
  2  3  1  0
  3 12  1  0
  3  4  2  0
  6 16  2  0
  6  5  1  0
  7  6  1  0
  8  9  1  0
  8  7  2  0
  9 15  2  0
 10  9  1  0
 11 10  1  1
 11 13  1  0
 12 11  1  0
 13 14  2  0
 13 17  1  0
 15 16  1  0
 17 18  1  0
 18 23  1  0
 18 19  1  1
 20 21  1  0
 20 19  1  0
 21 25  1  0
 22 21  2  0
 23 26  1  0
 24 23  2  0
M  END
$$$$
