GYE.pdb
     RDKit          3D

 26 26  0  0  1  0  0  0  0  0999 V2000
   19.2773  -12.0703  -21.1928 N   0  0  0  0  0  0  0  0  0  0  0  0
   18.1021  -11.5605  -20.5171 C   0  0  0  0  0  0  0  0  0  0  0  0
   18.3113  -11.4877  -19.0440 C   0  0  0  0  0  0  0  0  0  0  0  0
   17.3321  -11.4753  -18.2430 O   0  0  0  0  0  0  0  0  0  0  0  0
   18.9780  -17.8181  -17.2632 O   0  0  0  0  0  0  0  0  0  0  0  0
   19.4200  -16.5150  -17.1166 C   0  0  0  0  0  0  0  0  0  0  0  0
   20.1532  -15.9206  -18.1374 C   0  0  0  0  0  0  0  0  0  0  0  0
   20.5863  -14.6252  -17.9789 C   0  0  0  0  0  0  0  0  0  0  0  0
   20.3240  -13.8773  -16.8386 C   0  0  0  0  0  0  0  0  0  0  0  0
   20.8329  -12.5267  -16.7834 C   0  0  0  0  0  0  0  0  0  0  0  0
   19.8991  -11.4187  -17.0877 C   0  0  2  0  0  0  0  0  0  0  0  0
   19.6077  -11.4307  -18.5082 N   0  0  0  0  0  0  0  0  0  0  0  0
   20.4932  -10.0957  -16.7708 C   0  0  0  0  0  0  0  0  0  0  0  0
   21.1589   -9.4376  -17.6133 O   0  0  0  0  0  0  0  0  0  0  0  0
   19.5939  -14.5070  -15.8526 C   0  0  0  0  0  0  0  0  0  0  0  0
   19.1466  -15.8069  -15.9860 C   0  0  0  0  0  0  0  0  0  0  0  0
   20.3236   -9.5391  -15.5044 N   0  0  0  0  0  0  0  0  0  0  0  0
   20.6871   -8.1563  -15.1772 C   0  0  1  0  0  0  0  0  0  0  0  0
   20.1114   -7.3271  -16.2576 C   0  0  0  0  0  0  0  0  0  0  0  0
   20.2589   -5.8619  -16.2137 C   0  0  0  0  0  0  0  0  0  0  0  0
   19.5280   -5.0987  -17.2433 C   0  0  0  0  0  0  0  0  0  0  0  0
   19.5436   -3.8473  -17.2697 O   0  0  0  0  0  0  0  0  0  0  0  0
   20.4810   -7.8134  -13.7941 C   0  0  0  0  0  0  0  0  0  0  0  0
   19.5723   -8.3425  -13.0677 O   0  0  0  0  0  0  0  0  0  0  0  0
   18.8092   -5.7834  -18.2016 O   0  0  0  0  0  0  0  0  0  0  0  0
   21.2589   -6.8700  -13.0934 O   0  0  0  0  0  0  0  0  0  0  0  0
  1  2  1  0
  2  3  1  0
  3 12  1  0
  3  4  2  0
  6 16  2  0
  6  5  1  0
  7  6  1  0
  8  9  1  0
  8  7  2  0
  9 15  2  0
 10  9  1  0
 11 10  1  6
 11 13  1  0
 12 11  1  0
 13 14  2  0
 13 17  1  0
 15 16  1  0
 17 18  1  0
 18 23  1  0
 18 19  1  6
 20 21  1  0
 20 19  1  0
 21 25  1  0
 22 21  2  0
 23 26  1  0
 24 23  2  0
M  END
$$$$
