GYE.pdb
     RDKit          3D

 26 26  0  0  1  0  0  0  0  0999 V2000
   24.6351  -18.0762  -18.7019 N   0  0  0  0  0  0  0  0  0  0  0  0
   24.3562  -17.9653  -17.2851 C   0  0  0  0  0  0  0  0  0  0  0  0
   24.0898  -19.2992  -16.6779 C   0  0  0  0  0  0  0  0  0  0  0  0
   23.9271  -20.3264  -17.3984 O   0  0  0  0  0  0  0  0  0  0  0  0
   29.6697  -22.1282  -16.9127 O   0  0  0  0  0  0  0  0  0  0  0  0
   28.5183  -21.9040  -16.1784 C   0  0  0  0  0  0  0  0  0  0  0  0
   28.3236  -20.6702  -15.5680 C   0  0  0  0  0  0  0  0  0  0  0  0
   27.1752  -20.4607  -14.8414 C   0  0  0  0  0  0  0  0  0  0  0  0
   26.1935  -21.4308  -14.6873 C   0  0  0  0  0  0  0  0  0  0  0  0
   25.0305  -21.0972  -13.8985 C   0  0  0  0  0  0  0  0  0  0  0  0
   23.7919  -20.7141  -14.6133 C   0  0  2  0  0  0  0  0  0  0  0  0
   24.0128  -19.4475  -15.2839 N   0  0  0  0  0  0  0  0  0  0  0  0
   22.6534  -20.5255  -13.6794 C   0  0  0  0  0  0  0  0  0  0  0  0
   22.5083  -19.4762  -12.9982 O   0  0  0  0  0  0  0  0  0  0  0  0
   26.4288  -22.6386  -15.3098 C   0  0  0  0  0  0  0  0  0  0  0  0
   27.5734  -22.8756  -16.0456 C   0  0  0  0  0  0  0  0  0  0  0  0
   21.6973  -21.5288  -13.5320 N   0  0  0  0  0  0  0  0  0  0  0  0
   20.4409  -21.3424  -12.7986 C   0  0  1  0  0  0  0  0  0  0  0  0
   19.8055  -20.1478  -13.3948 C   0  0  0  0  0  0  0  0  0  0  0  0
   19.1301  -20.2521  -14.7000 C   0  0  0  0  0  0  0  0  0  0  0  0
   18.4722  -19.0287  -15.1969 C   0  0  0  0  0  0  0  0  0  0  0  0
   18.2598  -18.0463  -14.4507 O   0  0  0  0  0  0  0  0  0  0  0  0
   19.6937  -22.5583  -12.6082 C   0  0  0  0  0  0  0  0  0  0  0  0
   19.8151  -23.5823  -13.3632 O   0  0  0  0  0  0  0  0  0  0  0  0
   18.0815  -18.9669  -16.5188 O   0  0  0  0  0  0  0  0  0  0  0  0
   18.7602  -22.7533  -11.5706 O   0  0  0  0  0  0  0  0  0  0  0  0
  1  2  1  0
  2  3  1  0
  3 12  1  0
  3  4  2  0
  6 16  2  0
  6  5  1  0
  7  6  1  0
  8  9  1  0
  8  7  2  0
  9 15  2  0
 10  9  1  0
 11 10  1  1
 11 13  1  0
 12 11  1  0
 13 14  2  0
 13 17  1  0
 15 16  1  0
 17 18  1  0
 18 23  1  0
 18 19  1  6
 20 21  1  0
 20 19  1  0
 21 25  1  0
 22 21  2  0
 23 26  1  0
 24 23  2  0
M  END
$$$$
