GYE.pdb
     RDKit          3D

 26 26  0  0  1  0  0  0  0  0999 V2000
   29.2741  -23.1142  -17.6304 N   0  0  0  0  0  0  0  0  0  0  0  0
   28.4909  -21.9428  -17.2960 C   0  0  0  0  0  0  0  0  0  0  0  0
   27.4746  -22.2492  -16.2508 C   0  0  0  0  0  0  0  0  0  0  0  0
   27.0520  -23.4285  -16.0735 O   0  0  0  0  0  0  0  0  0  0  0  0
   23.4505  -20.7066   -8.4448 O   0  0  0  0  0  0  0  0  0  0  0  0
   24.1290  -20.6297   -9.6485 C   0  0  0  0  0  0  0  0  0  0  0  0
   25.4567  -21.0369   -9.7146 C   0  0  0  0  0  0  0  0  0  0  0  0
   26.1190  -20.9552  -10.9168 C   0  0  0  0  0  0  0  0  0  0  0  0
   25.5198  -20.4814  -12.0765 C   0  0  0  0  0  0  0  0  0  0  0  0
   26.3162  -20.4388  -13.2807 C   0  0  0  0  0  0  0  0  0  0  0  0
   26.0574  -21.4589  -14.3222 C   0  0  2  0  0  0  0  0  0  0  0  0
   26.9597  -21.2300  -15.4340 N   0  0  0  0  0  0  0  0  0  0  0  0
   24.6735  -21.3662  -14.8514 C   0  0  0  0  0  0  0  0  0  0  0  0
   24.3486  -20.5406  -15.7452 O   0  0  0  0  0  0  0  0  0  0  0  0
   24.2027  -20.0889  -11.9641 C   0  0  0  0  0  0  0  0  0  0  0  0
   23.5138  -20.1606  -10.7691 C   0  0  0  0  0  0  0  0  0  0  0  0
   23.6796  -22.2104  -14.3596 N   0  0  0  0  0  0  0  0  0  0  0  0
   22.2860  -22.1644  -14.8147 C   0  0  1  0  0  0  0  0  0  0  0  0
   21.7174  -20.9303  -14.2316 C   0  0  0  0  0  0  0  0  0  0  0  0
   20.3393  -20.5302  -14.5653 C   0  0  0  0  0  0  0  0  0  0  0  0
   19.8910  -19.2256  -14.0425 C   0  0  0  0  0  0  0  0  0  0  0  0
   20.6238  -18.5234  -13.3097 O   0  0  0  0  0  0  0  0  0  0  0  0
   22.1217  -22.4634  -16.2135 C   0  0  0  0  0  0  0  0  0  0  0  0
   21.5445  -23.5199  -16.6423 O   0  0  0  0  0  0  0  0  0  0  0  0
   18.6311  -18.7685  -14.3706 O   0  0  0  0  0  0  0  0  0  0  0  0
   22.5683  -21.6251  -17.2546 O   0  0  0  0  0  0  0  0  0  0  0  0
  1  2  1  0
  2  3  1  0
  3 12  1  0
  3  4  2  0
  6 16  2  0
  6  5  1  0
  7  6  1  0
  8  9  1  0
  8  7  2  0
  9 15  2  0
 10  9  1  0
 11 10  1  1
 11 13  1  0
 12 11  1  0
 13 14  2  0
 13 17  1  0
 15 16  1  0
 17 18  1  0
 18 23  1  0
 18 19  1  6
 20 21  1  0
 20 19  1  0
 21 25  1  0
 22 21  2  0
 23 26  1  0
 24 23  2  0
M  END
$$$$
