GYE.pdb
     RDKit          3D

 26 26  0  0  1  0  0  0  0  0999 V2000
   29.8458  -21.8750  -12.4577 N   0  0  0  0  0  0  0  0  0  0  0  0
   29.2881  -20.6857  -11.8478 C   0  0  0  0  0  0  0  0  0  0  0  0
   27.9800  -20.9723  -11.1953 C   0  0  0  0  0  0  0  0  0  0  0  0
   27.3830  -22.0725  -11.3794 O   0  0  0  0  0  0  0  0  0  0  0  0
   29.1579  -20.4797   -4.0776 O   0  0  0  0  0  0  0  0  0  0  0  0
   28.3868  -20.1502   -5.1784 C   0  0  0  0  0  0  0  0  0  0  0  0
   27.7075  -21.1509   -5.8641 C   0  0  0  0  0  0  0  0  0  0  0  0
   26.9447  -20.8098   -6.9561 C   0  0  0  0  0  0  0  0  0  0  0  0
   26.8203  -19.5031   -7.4097 C   0  0  0  0  0  0  0  0  0  0  0  0
   25.9932  -19.2656   -8.5698 C   0  0  0  0  0  0  0  0  0  0  0  0
   26.0960  -20.2131   -9.7029 C   0  0  2  0  0  0  0  0  0  0  0  0
   27.3765  -20.0221  -10.3562 N   0  0  0  0  0  0  0  0  0  0  0  0
   25.0420  -19.9711  -10.7199 C   0  0  0  0  0  0  0  0  0  0  0  0
   25.1495  -19.0780  -11.6013 O   0  0  0  0  0  0  0  0  0  0  0  0
   27.5111  -18.5441   -6.6995 C   0  0  0  0  0  0  0  0  0  0  0  0
   28.2842  -18.8592   -5.5991 C   0  0  0  0  0  0  0  0  0  0  0  0
   23.8828  -20.7448  -10.7223 N   0  0  0  0  0  0  0  0  0  0  0  0
   22.9652  -20.8173  -11.8642 C   0  0  1  0  0  0  0  0  0  0  0  0
   23.6380  -21.6774  -12.8613 C   0  0  0  0  0  0  0  0  0  0  0  0
   23.0887  -23.0094  -13.1688 C   0  0  0  0  0  0  0  0  0  0  0  0
   23.1550  -23.4356  -14.5797 C   0  0  0  0  0  0  0  0  0  0  0  0
   23.5880  -22.6772  -15.4765 O   0  0  0  0  0  0  0  0  0  0  0  0
   21.5939  -21.0512  -11.4934 C   0  0  0  0  0  0  0  0  0  0  0  0
   20.6001  -20.6318  -12.1789 O   0  0  0  0  0  0  0  0  0  0  0  0
   22.7285  -24.7034  -14.9181 O   0  0  0  0  0  0  0  0  0  0  0  0
   21.2009  -21.7706  -10.3471 O   0  0  0  0  0  0  0  0  0  0  0  0
  1  2  1  0
  2  3  1  0
  3 12  1  0
  3  4  2  0
  6 16  2  0
  6  5  1  0
  7  6  1  0
  8  9  1  0
  8  7  2  0
  9 15  2  0
 10  9  1  0
 11 10  1  1
 11 13  1  0
 12 11  1  0
 13 14  2  0
 13 17  1  0
 15 16  1  0
 17 18  1  0
 18 23  1  0
 18 19  1  6
 20 21  1  0
 20 19  1  0
 21 25  1  0
 22 21  2  0
 23 26  1  0
 24 23  2  0
M  END
$$$$
