GYE.pdb
     RDKit          3D

 26 26  0  0  1  0  0  0  0  0999 V2000
   23.1411  -12.8226  -18.9870 N   0  0  0  0  0  0  0  0  0  0  0  0
   22.7356  -11.4351  -18.8991 C   0  0  0  0  0  0  0  0  0  0  0  0
   23.2115  -10.8092  -17.6339 C   0  0  0  0  0  0  0  0  0  0  0  0
   22.9635  -11.3338  -16.5096 O   0  0  0  0  0  0  0  0  0  0  0  0
   29.3324  -12.9004  -16.8687 O   0  0  0  0  0  0  0  0  0  0  0  0
   28.4485  -11.8424  -16.7485 C   0  0  0  0  0  0  0  0  0  0  0  0
   28.1316  -11.0829  -17.8692 C   0  0  0  0  0  0  0  0  0  0  0  0
   27.2519  -10.0345  -17.7359 C   0  0  0  0  0  0  0  0  0  0  0  0
   26.6611   -9.6960  -16.5255 C   0  0  0  0  0  0  0  0  0  0  0  0
   25.7544   -8.5718  -16.5064 C   0  0  0  0  0  0  0  0  0  0  0  0
   24.3007   -8.8512  -16.4793 C   0  0  2  0  0  0  0  0  0  0  0  0
   23.9503   -9.6157  -17.6607 N   0  0  0  0  0  0  0  0  0  0  0  0
   23.4995   -7.6018  -16.5093 C   0  0  0  0  0  0  0  0  0  0  0  0
   23.1658   -7.0419  -17.5869 O   0  0  0  0  0  0  0  0  0  0  0  0
   27.0044  -10.4761  -15.4416 C   0  0  0  0  0  0  0  0  0  0  0  0
   27.8850  -11.5349  -15.5476 C   0  0  0  0  0  0  0  0  0  0  0  0
   23.0891   -7.0064  -15.3179 N   0  0  0  0  0  0  0  0  0  0  0  0
   22.1540   -5.8779  -15.2618 C   0  0  1  0  0  0  0  0  0  0  0  0
   21.0024   -6.2733  -16.1009 C   0  0  0  0  0  0  0  0  0  0  0  0
   19.8189   -5.3993  -16.1789 C   0  0  0  0  0  0  0  0  0  0  0  0
   18.6499   -5.9420  -16.8967 C   0  0  0  0  0  0  0  0  0  0  0  0
   18.5457   -5.8601  -18.1415 O   0  0  0  0  0  0  0  0  0  0  0  0
   21.9552   -5.3535  -13.9358 C   0  0  0  0  0  0  0  0  0  0  0  0
   22.0124   -6.0726  -12.8808 O   0  0  0  0  0  0  0  0  0  0  0  0
   17.6459   -6.5556  -16.1761 O   0  0  0  0  0  0  0  0  0  0  0  0
   21.6869   -3.9982  -13.6581 O   0  0  0  0  0  0  0  0  0  0  0  0
  1  2  1  0
  2  3  1  0
  3 12  1  0
  3  4  2  0
  6 16  2  0
  6  5  1  0
  7  6  1  0
  8  9  1  0
  8  7  2  0
  9 15  2  0
 10  9  1  0
 11 10  1  6
 11 13  1  0
 12 11  1  0
 13 14  2  0
 13 17  1  0
 15 16  1  0
 17 18  1  0
 18 23  1  0
 18 19  1  1
 20 21  1  0
 20 19  1  0
 21 25  1  0
 22 21  2  0
 23 26  1  0
 24 23  2  0
M  END
$$$$
