GYE.pdb
     RDKit          3D

 26 26  0  0  1  0  0  0  0  0999 V2000
   22.1239  -30.7758  -15.2151 N   0  0  0  0  0  0  0  0  0  0  0  0
   22.4030  -29.4214  -14.7848 C   0  0  0  0  0  0  0  0  0  0  0  0
   21.2153  -28.8032  -14.1321 C   0  0  0  0  0  0  0  0  0  0  0  0
   20.0914  -29.3842  -14.1314 O   0  0  0  0  0  0  0  0  0  0  0  0
   20.8911  -31.4005   -8.1206 O   0  0  0  0  0  0  0  0  0  0  0  0
   20.8077  -30.2621   -8.9029 C   0  0  0  0  0  0  0  0  0  0  0  0
   21.9135  -29.8544   -9.6405 C   0  0  0  0  0  0  0  0  0  0  0  0
   21.8170  -28.7214  -10.4137 C   0  0  0  0  0  0  0  0  0  0  0  0
   20.6586  -27.9596  -10.4928 C   0  0  0  0  0  0  0  0  0  0  0  0
   20.6762  -26.7872  -11.3363 C   0  0  0  0  0  0  0  0  0  0  0  0
   20.2435  -26.9370  -12.7443 C   0  0  2  0  0  0  0  0  0  0  0  0
   21.3169  -27.5541  -13.4993 N   0  0  0  0  0  0  0  0  0  0  0  0
   19.9594  -25.6236  -13.3753 C   0  0  0  0  0  0  0  0  0  0  0  0
   20.8696  -24.8939  -13.8498 O   0  0  0  0  0  0  0  0  0  0  0  0
   19.5876  -28.4013   -9.7449 C   0  0  0  0  0  0  0  0  0  0  0  0
   19.6573  -29.5357   -8.9601 C   0  0  0  0  0  0  0  0  0  0  0  0
   18.6486  -25.1577  -13.4588 N   0  0  0  0  0  0  0  0  0  0  0  0
   18.2769  -23.9178  -14.1486 C   0  0  1  0  0  0  0  0  0  0  0  0
   17.0881  -24.2552  -14.9606 C   0  0  0  0  0  0  0  0  0  0  0  0
   16.4759  -23.2301  -15.8237 C   0  0  0  0  0  0  0  0  0  0  0  0
   15.0860  -23.4785  -16.2513 C   0  0  0  0  0  0  0  0  0  0  0  0
   14.4506  -24.4874  -15.8700 O   0  0  0  0  0  0  0  0  0  0  0  0
   18.2845  -22.7557  -13.2988 C   0  0  0  0  0  0  0  0  0  0  0  0
   17.9437  -22.7843  -12.0674 O   0  0  0  0  0  0  0  0  0  0  0  0
   14.4715  -22.5745  -17.0933 O   0  0  0  0  0  0  0  0  0  0  0  0
   18.6744  -21.4709  -13.7271 O   0  0  0  0  0  0  0  0  0  0  0  0
  1  2  1  0
  2  3  1  0
  3 12  1  0
  3  4  2  0
  6 16  2  0
  6  5  1  0
  7  6  1  0
  8  9  1  0
  8  7  2  0
  9 15  2  0
 10  9  1  0
 11 10  1  1
 11 13  1  0
 12 11  1  0
 13 14  2  0
 13 17  1  0
 15 16  1  0
 17 18  1  0
 18 23  1  0
 18 19  1  1
 20 21  1  0
 20 19  1  0
 21 25  1  0
 22 21  2  0
 23 26  1  0
 24 23  2  0
M  END
$$$$
