GYE.pdb
     RDKit          3D

 26 26  0  0  1  0  0  0  0  0999 V2000
   23.9530  -15.0141  -17.8977 N   0  0  0  0  0  0  0  0  0  0  0  0
   24.6000  -13.7209  -17.9781 C   0  0  0  0  0  0  0  0  0  0  0  0
   24.0912  -12.7928  -16.9299 C   0  0  0  0  0  0  0  0  0  0  0  0
   23.0307  -13.0470  -16.2884 O   0  0  0  0  0  0  0  0  0  0  0  0
   30.0033   -8.9739  -18.2917 O   0  0  0  0  0  0  0  0  0  0  0  0
   28.9030   -9.2184  -17.4889 C   0  0  0  0  0  0  0  0  0  0  0  0
   28.8752  -10.3571  -16.6916 C   0  0  0  0  0  0  0  0  0  0  0  0
   27.7759  -10.5879  -15.8986 C   0  0  0  0  0  0  0  0  0  0  0  0
   26.6839   -9.7309  -15.8565 C   0  0  0  0  0  0  0  0  0  0  0  0
   25.5842  -10.0786  -14.9871 C   0  0  0  0  0  0  0  0  0  0  0  0
   24.3732  -10.6702  -15.6002 C   0  0  2  0  0  0  0  0  0  0  0  0
   24.7812  -11.6078  -16.6284 N   0  0  0  0  0  0  0  0  0  0  0  0
   23.5279   -9.6397  -16.2538 C   0  0  0  0  0  0  0  0  0  0  0  0
   23.6509   -9.3414  -17.4712 O   0  0  0  0  0  0  0  0  0  0  0  0
   26.7550   -8.6148  -16.6632 C   0  0  0  0  0  0  0  0  0  0  0  0
   27.8471   -8.3588  -17.4691 C   0  0  0  0  0  0  0  0  0  0  0  0
   22.5565   -8.9635  -15.5180 N   0  0  0  0  0  0  0  0  0  0  0  0
   21.6534   -7.9660  -16.1015 C   0  0  1  0  0  0  0  0  0  0  0  0
   20.4210   -8.7030  -16.4543 C   0  0  0  0  0  0  0  0  0  0  0  0
   19.2715   -7.9778  -17.0228 C   0  0  0  0  0  0  0  0  0  0  0  0
   18.0790   -8.7862  -17.3407 C   0  0  0  0  0  0  0  0  0  0  0  0
   18.0533   -9.5635  -18.3216 O   0  0  0  0  0  0  0  0  0  0  0  0
   21.5896   -6.7347  -15.3579 C   0  0  0  0  0  0  0  0  0  0  0  0
   21.8872   -6.6472  -14.1181 O   0  0  0  0  0  0  0  0  0  0  0  0
   16.9637   -8.6819  -16.5350 O   0  0  0  0  0  0  0  0  0  0  0  0
   21.2032   -5.4990  -15.9145 O   0  0  0  0  0  0  0  0  0  0  0  0
  1  2  1  0
  2  3  1  0
  3 12  1  0
  3  4  2  0
  6 16  2  0
  6  5  1  0
  7  6  1  0
  8  9  1  0
  8  7  2  0
  9 15  2  0
 10  9  1  0
 11 10  1  6
 11 13  1  0
 12 11  1  0
 13 14  2  0
 13 17  1  0
 15 16  1  0
 17 18  1  0
 18 23  1  0
 18 19  1  1
 20 21  1  0
 20 19  1  0
 21 25  1  0
 22 21  2  0
 23 26  1  0
 24 23  2  0
M  END
$$$$
