GMQ.pdb
     RDKit          3D

 22 21  0  0  1  0  0  0  0  0999 V2000
   28.4286  -20.4051  -14.5995 N   0  0  0  0  0  0  0  0  0  0  0  0
   27.5997  -21.3920  -15.2440 C   0  0  0  0  0  0  0  0  0  0  0  0
   26.4174  -21.7090  -14.3676 C   0  0  0  0  0  0  0  0  0  0  0  0
   25.6095  -22.6302  -14.6619 O   0  0  0  0  0  0  0  0  0  0  0  0
   25.4543  -19.8983   -7.9879 C   0  0  0  0  0  0  0  0  0  0  0  0
   26.8641  -20.8310   -8.6385 S   0  0  0  0  0  0  0  0  0  0  0  0
   26.4873  -21.5168  -10.2761 C   0  0  0  0  0  0  0  0  0  0  0  0
   25.4333  -20.7029  -10.9540 C   0  0  0  0  0  0  0  0  0  0  0  0
   25.0395  -21.1869  -12.3095 C   0  0  2  0  0  0  0  0  0  0  0  0
   26.1770  -20.9833  -13.1879 N   0  0  0  0  0  0  0  0  0  0  0  0
   23.8132  -20.6029  -12.8496 C   0  0  0  0  0  0  0  0  0  0  0  0
   23.7185  -19.4298  -13.2598 O   0  0  0  0  0  0  0  0  0  0  0  0
   21.2484  -23.4799  -17.1528 N   0  0  0  0  0  0  0  0  0  0  0  0
   20.1575  -22.6026  -16.9121 C   0  0  0  0  0  0  0  0  0  0  0  0
   19.2049  -22.6436  -17.7515 O   0  0  0  0  0  0  0  0  0  0  0  0
   20.1129  -21.6773  -15.7455 C   0  0  0  0  0  0  0  0  0  0  0  0
   21.2892  -21.8764  -14.8754 C   0  0  0  0  0  0  0  0  0  0  0  0
   21.4723  -21.0572  -13.6850 C   0  0  2  0  0  0  0  0  0  0  0  0
   22.6473  -21.4165  -12.9155 N   0  0  0  0  0  0  0  0  0  0  0  0
   20.3627  -20.7687  -12.8038 C   0  0  0  0  0  0  0  0  0  0  0  0
   19.2841  -19.9411  -13.0409 O   0  0  0  0  0  0  0  0  0  0  0  0
   20.3296  -21.3116  -11.6754 O   0  0  0  0  0  0  0  0  0  0  0  0
  2  1  1  0
  2  3  1  0
  3 10  1  0
  4  3  2  0
  6  5  1  0
  6  7  1  0
  8  7  1  0
  9 11  1  0
  9  8  1  1
 10  9  1  0
 11 12  2  0
 14 13  1  0
 14 16  1  0
 15 14  2  0
 17 16  1  0
 18 17  1  6
 19 11  1  0
 19 18  1  0
 20 21  1  0
 20 18  1  0
 22 20  2  0
M  END
$$$$
