GMQ.pdb
     RDKit          3D

 22 21  0  0  1  0  0  0  0  0999 V2000
   28.6225  -21.2901  -15.8500 N   0  0  0  0  0  0  0  0  0  0  0  0
   28.2083  -20.4340  -14.7676 C   0  0  0  0  0  0  0  0  0  0  0  0
   27.1319  -21.1170  -13.9667 C   0  0  0  0  0  0  0  0  0  0  0  0
   26.5952  -22.1856  -14.3641 O   0  0  0  0  0  0  0  0  0  0  0  0
   26.2530  -19.7201   -7.7494 C   0  0  0  0  0  0  0  0  0  0  0  0
   27.3721  -21.0453   -8.2710 S   0  0  0  0  0  0  0  0  0  0  0  0
   27.1338  -21.4416  -10.0260 C   0  0  0  0  0  0  0  0  0  0  0  0
   25.8697  -20.8276  -10.5337 C   0  0  0  0  0  0  0  0  0  0  0  0
   25.5741  -21.0946  -11.9719 C   0  0  2  0  0  0  0  0  0  0  0  0
   26.6902  -20.5808  -12.7447 N   0  0  0  0  0  0  0  0  0  0  0  0
   24.2902  -20.5859  -12.4507 C   0  0  0  0  0  0  0  0  0  0  0  0
   24.0641  -19.3873  -12.7070 O   0  0  0  0  0  0  0  0  0  0  0  0
   18.9567  -19.8312  -10.4402 N   0  0  0  0  0  0  0  0  0  0  0  0
   18.9759  -19.9981  -11.8507 C   0  0  0  0  0  0  0  0  0  0  0  0
   18.0260  -20.6768  -12.3514 O   0  0  0  0  0  0  0  0  0  0  0  0
   20.0421  -19.4175  -12.7139 C   0  0  0  0  0  0  0  0  0  0  0  0
   21.3630  -19.9741  -12.3585 C   0  0  0  0  0  0  0  0  0  0  0  0
   21.9027  -21.1137  -13.0876 C   0  0  2  0  0  0  0  0  0  0  0  0
   23.2235  -21.5091  -12.6393 N   0  0  0  0  0  0  0  0  0  0  0  0
   21.8199  -21.1799  -14.5297 C   0  0  0  0  0  0  0  0  0  0  0  0
   20.6890  -21.1198  -15.3181 O   0  0  0  0  0  0  0  0  0  0  0  0
   22.8764  -21.3072  -15.1907 O   0  0  0  0  0  0  0  0  0  0  0  0
  2  1  1  0
  2  3  1  0
  3 10  1  0
  4  3  2  0
  6  5  1  0
  6  7  1  0
  8  7  1  0
  9 11  1  0
  9  8  1  1
 10  9  1  0
 11 12  2  0
 14 13  1  0
 14 16  1  0
 15 14  2  0
 17 16  1  0
 18 17  1  6
 19 11  1  0
 19 18  1  0
 20 21  1  0
 20 18  1  0
 22 20  2  0
M  END
$$$$
