GMQ.pdb
     RDKit          3D

 22 21  0  0  1  0  0  0  0  0999 V2000
   29.0719  -21.7696  -12.8625 N   0  0  0  0  0  0  0  0  0  0  0  0
   28.7673  -20.6709  -11.9814 C   0  0  0  0  0  0  0  0  0  0  0  0
   27.8512  -21.1424  -10.8838 C   0  0  0  0  0  0  0  0  0  0  0  0
   27.1430  -22.1761  -11.0176 O   0  0  0  0  0  0  0  0  0  0  0  0
   27.2779  -19.7528   -4.2014 C   0  0  0  0  0  0  0  0  0  0  0  0
   28.6859  -19.7313   -5.3407 S   0  0  0  0  0  0  0  0  0  0  0  0
   28.2513  -20.5072   -6.9228 C   0  0  0  0  0  0  0  0  0  0  0  0
   27.0140  -19.8874   -7.4868 C   0  0  0  0  0  0  0  0  0  0  0  0
   26.5870  -20.4279   -8.8106 C   0  0  2  0  0  0  0  0  0  0  0  0
   27.7570  -20.4403   -9.6696 N   0  0  0  0  0  0  0  0  0  0  0  0
   25.4546  -19.7417   -9.4297 C   0  0  0  0  0  0  0  0  0  0  0  0
   25.5178  -18.6053   -9.9376 O   0  0  0  0  0  0  0  0  0  0  0  0
   24.3924  -19.7058  -14.4643 N   0  0  0  0  0  0  0  0  0  0  0  0
   24.3848  -21.0191  -13.9229 C   0  0  0  0  0  0  0  0  0  0  0  0
   24.7534  -21.9523  -14.7019 O   0  0  0  0  0  0  0  0  0  0  0  0
   23.9707  -21.3080  -12.5215 C   0  0  0  0  0  0  0  0  0  0  0  0
   23.6548  -20.0579  -11.8017 C   0  0  0  0  0  0  0  0  0  0  0  0
   23.1629  -20.1008  -10.4314 C   0  0  2  0  0  0  0  0  0  0  0  0
   24.1952  -20.4040   -9.4597 N   0  0  0  0  0  0  0  0  0  0  0  0
   21.9409  -20.8004  -10.1022 C   0  0  0  0  0  0  0  0  0  0  0  0
   20.6963  -20.6513  -10.6793 O   0  0  0  0  0  0  0  0  0  0  0  0
   21.9620  -21.6570   -9.1884 O   0  0  0  0  0  0  0  0  0  0  0  0
  2  1  1  0
  2  3  1  0
  3 10  1  0
  4  3  2  0
  6  5  1  0
  6  7  1  0
  8  7  1  0
  9 11  1  0
  9  8  1  1
 10  9  1  0
 11 12  2  0
 14 13  1  0
 14 16  1  0
 15 14  2  0
 17 16  1  0
 18 17  1  6
 19 11  1  0
 19 18  1  0
 20 21  1  0
 20 18  1  0
 22 20  2  0
M  END
$$$$
