GMQ.pdb
     RDKit          3D

 22 21  0  0  1  0  0  0  0  0999 V2000
   29.1403  -21.8227  -15.4411 N   0  0  0  0  0  0  0  0  0  0  0  0
   28.5895  -20.7565  -14.6437 C   0  0  0  0  0  0  0  0  0  0  0  0
   27.4701  -21.2902  -13.7902 C   0  0  0  0  0  0  0  0  0  0  0  0
   26.7331  -22.2323  -14.1869 O   0  0  0  0  0  0  0  0  0  0  0  0
   27.3283  -19.5816   -7.5404 C   0  0  0  0  0  0  0  0  0  0  0  0
   25.9602  -20.7664   -7.6147 S   0  0  0  0  0  0  0  0  0  0  0  0
   25.2977  -20.8865   -9.3001 C   0  0  0  0  0  0  0  0  0  0  0  0
   26.3717  -20.6200  -10.3043 C   0  0  0  0  0  0  0  0  0  0  0  0
   26.0792  -21.1101  -11.6831 C   0  0  2  0  0  0  0  0  0  0  0  0
   27.2110  -20.7512  -12.5181 N   0  0  0  0  0  0  0  0  0  0  0  0
   24.8097  -20.6593  -12.2502 C   0  0  0  0  0  0  0  0  0  0  0  0
   24.6071  -19.5092  -12.6858 O   0  0  0  0  0  0  0  0  0  0  0  0
   22.9418  -25.1639  -16.0294 N   0  0  0  0  0  0  0  0  0  0  0  0
   21.9725  -24.5984  -15.1586 C   0  0  0  0  0  0  0  0  0  0  0  0
   20.7557  -24.7814  -15.4742 O   0  0  0  0  0  0  0  0  0  0  0  0
   22.3411  -23.8292  -13.9373 C   0  0  0  0  0  0  0  0  0  0  0  0
   22.5196  -22.3982  -14.2551 C   0  0  0  0  0  0  0  0  0  0  0  0
   22.5865  -21.4092  -13.1879 C   0  0  2  0  0  0  0  0  0  0  0  0
   23.7296  -21.5840  -12.3135 N   0  0  0  0  0  0  0  0  0  0  0  0
   21.4116  -21.0667  -12.4177 C   0  0  0  0  0  0  0  0  0  0  0  0
   20.1839  -20.6445  -12.8856 O   0  0  0  0  0  0  0  0  0  0  0  0
   21.4631  -21.1466  -11.1686 O   0  0  0  0  0  0  0  0  0  0  0  0
  2  1  1  0
  2  3  1  0
  3 10  1  0
  4  3  2  0
  6  5  1  0
  6  7  1  0
  8  7  1  0
  9 11  1  0
  9  8  1  1
 10  9  1  0
 11 12  2  0
 14 13  1  0
 14 16  1  0
 15 14  2  0
 17 16  1  0
 18 17  1  1
 19 11  1  0
 19 18  1  0
 20 21  1  0
 20 18  1  0
 22 20  2  0
M  END
$$$$
