GMQ.pdb
     RDKit          3D

 22 21  0  0  1  0  0  0  0  0999 V2000
   15.5736  -12.8876  -14.6735 N   0  0  0  0  0  0  0  0  0  0  0  0
   16.8920  -12.3865  -14.3788 C   0  0  0  0  0  0  0  0  0  0  0  0
   16.8102  -10.9248  -14.0276 C   0  0  0  0  0  0  0  0  0  0  0  0
   16.7389  -10.0377  -14.9197 O   0  0  0  0  0  0  0  0  0  0  0  0
   15.1240   -6.2449   -7.8580 C   0  0  0  0  0  0  0  0  0  0  0  0
   15.4279   -7.8851   -8.5639 S   0  0  0  0  0  0  0  0  0  0  0  0
   16.0922   -7.7530  -10.2477 C   0  0  0  0  0  0  0  0  0  0  0  0
   16.2952   -9.1108  -10.8377 C   0  0  0  0  0  0  0  0  0  0  0  0
   16.7578   -9.1174  -12.2565 C   0  0  2  0  0  0  0  0  0  0  0  0
   16.8111  -10.5026  -12.6869 N   0  0  0  0  0  0  0  0  0  0  0  0
   18.0136   -8.4125  -12.5074 C   0  0  0  0  0  0  0  0  0  0  0  0
   19.1425   -8.9158  -12.3474 O   0  0  0  0  0  0  0  0  0  0  0  0
   22.5936   -7.4772  -17.0688 N   0  0  0  0  0  0  0  0  0  0  0  0
   21.5785   -7.7595  -16.1161 C   0  0  0  0  0  0  0  0  0  0  0  0
   21.1882   -8.9665  -16.0487 O   0  0  0  0  0  0  0  0  0  0  0  0
   20.9901   -6.7125  -15.2348 C   0  0  0  0  0  0  0  0  0  0  0  0
   19.8573   -7.2578  -14.4601 C   0  0  0  0  0  0  0  0  0  0  0  0
   19.0751   -6.3909  -13.5894 C   0  0  2  0  0  0  0  0  0  0  0  0
   17.9549   -7.0655  -12.9632 N   0  0  0  0  0  0  0  0  0  0  0  0
   18.6895   -5.0636  -14.0142 C   0  0  0  0  0  0  0  0  0  0  0  0
   17.4217   -4.5200  -14.0523 O   0  0  0  0  0  0  0  0  0  0  0  0
   19.5782   -4.2718  -14.4046 O   0  0  0  0  0  0  0  0  0  0  0  0
  2  1  1  0
  2  3  1  0
  3 10  1  0
  4  3  2  0
  6  5  1  0
  6  7  1  0
  8  7  1  0
  9 11  1  0
  9  8  1  1
 10  9  1  0
 11 12  2  0
 14 13  1  0
 14 16  1  0
 15 14  2  0
 17 16  1  0
 18 17  1  6
 19 11  1  0
 19 18  1  0
 20 21  1  0
 20 18  1  0
 22 20  2  0
M  END
$$$$
