GMQ.pdb
     RDKit          3D

 22 21  0  0  1  0  0  0  0  0999 V2000
   26.1549  -21.2752  -14.6995 N   0  0  0  0  0  0  0  0  0  0  0  0
   25.9312  -20.3058  -15.7418 C   0  0  0  0  0  0  0  0  0  0  0  0
   25.1384  -19.1490  -15.1942 C   0  0  0  0  0  0  0  0  0  0  0  0
   24.5885  -19.2066  -14.0619 O   0  0  0  0  0  0  0  0  0  0  0  0
   26.0848  -12.5458  -15.9344 C   0  0  0  0  0  0  0  0  0  0  0  0
   27.2319  -13.9363  -15.7566 S   0  0  0  0  0  0  0  0  0  0  0  0
   26.3679  -15.4171  -15.1612 C   0  0  0  0  0  0  0  0  0  0  0  0
   25.0730  -15.5938  -15.8856 C   0  0  0  0  0  0  0  0  0  0  0  0
   24.2765  -16.7850  -15.4689 C   0  0  2  0  0  0  0  0  0  0  0  0
   24.9864  -17.9629  -15.9332 N   0  0  0  0  0  0  0  0  0  0  0  0
   22.8776  -16.7806  -15.8927 C   0  0  0  0  0  0  0  0  0  0  0  0
   22.4675  -17.2817  -16.9576 O   0  0  0  0  0  0  0  0  0  0  0  0
   18.5861  -17.9705  -11.8888 N   0  0  0  0  0  0  0  0  0  0  0  0
   17.8110  -17.8629  -13.0743 C   0  0  0  0  0  0  0  0  0  0  0  0
   16.5979  -18.2301  -12.9903 O   0  0  0  0  0  0  0  0  0  0  0  0
   18.3705  -17.3503  -14.3562 C   0  0  0  0  0  0  0  0  0  0  0  0
   19.7761  -16.9322  -14.1828 C   0  0  0  0  0  0  0  0  0  0  0  0
   20.4851  -16.2640  -15.2656 C   0  0  2  0  0  0  0  0  0  0  0  0
   21.9144  -16.1674  -15.0429 N   0  0  0  0  0  0  0  0  0  0  0  0
   19.9807  -15.0352  -15.8369 C   0  0  0  0  0  0  0  0  0  0  0  0
   18.7706  -14.8264  -16.4666 O   0  0  0  0  0  0  0  0  0  0  0  0
   20.6911  -14.0051  -15.7788 O   0  0  0  0  0  0  0  0  0  0  0  0
  2  1  1  0
  2  3  1  0
  3 10  1  0
  4  3  2  0
  6  5  1  0
  6  7  1  0
  8  7  1  0
  9 11  1  0
  9  8  1  6
 10  9  1  0
 11 12  2  0
 14 13  1  0
 14 16  1  0
 15 14  2  0
 17 16  1  0
 18 17  1  1
 19 11  1  0
 19 18  1  0
 20 21  1  0
 20 18  1  0
 22 20  2  0
M  END
$$$$
