GMQ.pdb
     RDKit          3D

 22 21  0  0  1  0  0  0  0  0999 V2000
   19.6337  -12.9212  -17.6173 N   0  0  0  0  0  0  0  0  0  0  0  0
   20.1301  -11.6704  -18.1324 C   0  0  0  0  0  0  0  0  0  0  0  0
   20.7680  -10.8830  -17.0191 C   0  0  0  0  0  0  0  0  0  0  0  0
   20.2223  -10.7846  -15.8875 O   0  0  0  0  0  0  0  0  0  0  0  0
   27.3243  -10.0021  -16.7051 C   0  0  0  0  0  0  0  0  0  0  0  0
   26.5901  -10.0911  -15.0517 S   0  0  0  0  0  0  0  0  0  0  0  0
   24.9259   -9.3670  -15.0418 C   0  0  0  0  0  0  0  0  0  0  0  0
   24.0960   -9.9487  -16.1399 C   0  0  0  0  0  0  0  0  0  0  0  0
   22.6883   -9.4560  -16.1929 C   0  0  2  0  0  0  0  0  0  0  0  0
   21.9981  -10.2297  -17.2087 N   0  0  0  0  0  0  0  0  0  0  0  0
   22.5375   -8.0166  -16.3977 C   0  0  0  0  0  0  0  0  0  0  0  0
   22.9516   -7.4055  -17.4020 O   0  0  0  0  0  0  0  0  0  0  0  0
   17.7122   -6.2323  -15.4899 N   0  0  0  0  0  0  0  0  0  0  0  0
   18.2779   -5.9473  -16.7613 C   0  0  0  0  0  0  0  0  0  0  0  0
   17.5137   -6.0967  -17.7649 O   0  0  0  0  0  0  0  0  0  0  0  0
   19.6877   -5.4968  -16.9307 C   0  0  0  0  0  0  0  0  0  0  0  0
   20.3581   -5.3745  -15.6207 C   0  0  0  0  0  0  0  0  0  0  0  0
   21.7371   -5.8132  -15.4550 C   0  0  2  0  0  0  0  0  0  0  0  0
   21.8778   -7.2548  -15.3926 N   0  0  0  0  0  0  0  0  0  0  0  0
   22.6070   -5.1805  -14.4886 C   0  0  0  0  0  0  0  0  0  0  0  0
   23.4146   -5.7878  -13.5487 O   0  0  0  0  0  0  0  0  0  0  0  0
   22.6712   -3.9298  -14.4606 O   0  0  0  0  0  0  0  0  0  0  0  0
  2  1  1  0
  2  3  1  0
  3 10  1  0
  4  3  2  0
  6  5  1  0
  6  7  1  0
  8  7  1  0
  9 11  1  0
  9  8  1  6
 10  9  1  0
 11 12  2  0
 14 13  1  0
 14 16  1  0
 15 14  2  0
 17 16  1  0
 18 17  1  1
 19 11  1  0
 19 18  1  0
 20 21  1  0
 20 18  1  0
 22 20  2  0
M  END
$$$$
