GMQ.pdb
     RDKit          3D

 22 21  0  0  1  0  0  0  0  0999 V2000
   20.6118  -13.3625  -16.7018 N   0  0  0  0  0  0  0  0  0  0  0  0
   21.3112  -12.3250  -17.4165 C   0  0  0  0  0  0  0  0  0  0  0  0
   21.9507  -11.3788  -16.4356 C   0  0  0  0  0  0  0  0  0  0  0  0
   21.3943  -11.0904  -15.3424 O   0  0  0  0  0  0  0  0  0  0  0  0
   28.2741  -12.8518  -15.2810 C   0  0  0  0  0  0  0  0  0  0  0  0
   27.5899  -11.3028  -15.9236 S   0  0  0  0  0  0  0  0  0  0  0  0
   25.8226  -11.1642  -15.5346 C   0  0  0  0  0  0  0  0  0  0  0  0
   25.2761   -9.8684  -16.0395 C   0  0  0  0  0  0  0  0  0  0  0  0
   23.7954   -9.7227  -15.9244 C   0  0  2  0  0  0  0  0  0  0  0  0
   23.1947  -10.7847  -16.7107 N   0  0  0  0  0  0  0  0  0  0  0  0
   23.2676   -8.4066  -16.2794 C   0  0  0  0  0  0  0  0  0  0  0  0
   23.0263   -8.0410  -17.4461 O   0  0  0  0  0  0  0  0  0  0  0  0
   18.9652   -6.9589  -17.9884 N   0  0  0  0  0  0  0  0  0  0  0  0
   19.0202   -5.6937  -17.3452 C   0  0  0  0  0  0  0  0  0  0  0  0
   18.0370   -4.9151  -17.5471 O   0  0  0  0  0  0  0  0  0  0  0  0
   20.1591   -5.2824  -16.4775 C   0  0  0  0  0  0  0  0  0  0  0  0
   21.0984   -6.4048  -16.2812 C   0  0  0  0  0  0  0  0  0  0  0  0
   22.2720   -6.2438  -15.4336 C   0  0  2  0  0  0  0  0  0  0  0  0
   23.0097   -7.4758  -15.2340 N   0  0  0  0  0  0  0  0  0  0  0  0
   22.1995   -5.4950  -14.1988 C   0  0  0  0  0  0  0  0  0  0  0  0
   21.8616   -4.1677  -14.0302 O   0  0  0  0  0  0  0  0  0  0  0  0
   22.4670   -6.0769  -13.1222 O   0  0  0  0  0  0  0  0  0  0  0  0
  2  1  1  0
  2  3  1  0
  3 10  1  0
  4  3  2  0
  6  5  1  0
  6  7  1  0
  8  7  1  0
  9 11  1  0
  9  8  1  6
 10  9  1  0
 11 12  2  0
 14 13  1  0
 14 16  1  0
 15 14  2  0
 17 16  1  0
 18 17  1  1
 19 11  1  0
 19 18  1  0
 20 21  1  0
 20 18  1  0
 22 20  2  0
M  END
$$$$
