GMQ.pdb
     RDKit          3D

 22 21  0  0  1  0  0  0  0  0999 V2000
   24.7742  -24.3779  -14.0998 N   0  0  0  0  0  0  0  0  0  0  0  0
   23.6761  -23.4696  -13.8869 C   0  0  0  0  0  0  0  0  0  0  0  0
   24.2028  -22.0679  -13.7309 C   0  0  0  0  0  0  0  0  0  0  0  0
   23.4525  -21.0649  -13.8686 O   0  0  0  0  0  0  0  0  0  0  0  0
   25.5501  -20.4545   -8.9128 C   0  0  0  0  0  0  0  0  0  0  0  0
   25.7053  -20.7822  -10.6874 S   0  0  0  0  0  0  0  0  0  0  0  0
   27.3926  -20.4432  -11.2638 C   0  0  0  0  0  0  0  0  0  0  0  0
   27.4924  -20.6511  -12.7403 C   0  0  0  0  0  0  0  0  0  0  0  0
   26.2017  -20.5355  -13.4804 C   0  0  2  0  0  0  0  0  0  0  0  0
   25.5547  -21.8337  -13.4253 N   0  0  0  0  0  0  0  0  0  0  0  0
   26.3087  -20.0294  -14.8475 C   0  0  0  0  0  0  0  0  0  0  0  0
   26.3098  -20.7519  -15.8631 O   0  0  0  0  0  0  0  0  0  0  0  0
   21.5697  -18.7035  -15.6915 N   0  0  0  0  0  0  0  0  0  0  0  0
   21.9582  -17.8397  -16.7500 C   0  0  0  0  0  0  0  0  0  0  0  0
   21.0177  -17.2923  -17.4054 O   0  0  0  0  0  0  0  0  0  0  0  0
   23.3845  -17.5765  -17.0899 C   0  0  0  0  0  0  0  0  0  0  0  0
   24.2831  -18.2612  -16.1389 C   0  0  0  0  0  0  0  0  0  0  0  0
   25.6945  -17.9072  -16.0736 C   0  0  2  0  0  0  0  0  0  0  0  0
   26.4194  -18.6239  -15.0428 N   0  0  0  0  0  0  0  0  0  0  0  0
   26.1165  -16.5248  -16.1169 C   0  0  0  0  0  0  0  0  0  0  0  0
   26.0747  -15.6583  -17.1901 O   0  0  0  0  0  0  0  0  0  0  0  0
   26.5845  -16.0028  -15.0788 O   0  0  0  0  0  0  0  0  0  0  0  0
  2  1  1  0
  2  3  1  0
  3 10  1  0
  4  3  2  0
  6  5  1  0
  6  7  1  0
  8  7  1  0
  9 11  1  0
  9  8  1  6
 10  9  1  0
 11 12  2  0
 14 13  1  0
 14 16  1  0
 15 14  2  0
 17 16  1  0
 18 17  1  1
 19 11  1  0
 19 18  1  0
 20 21  1  0
 20 18  1  0
 22 20  2  0
M  END
$$$$
