GMQ.pdb
     RDKit          3D

 22 21  0  0  1  0  0  0  0  0999 V2000
   33.6663  -13.3378  -18.6468 N   0  0  0  0  0  0  0  0  0  0  0  0
   34.7310  -12.3948  -18.4155 C   0  0  0  0  0  0  0  0  0  0  0  0
   34.3080  -11.4028  -17.3650 C   0  0  0  0  0  0  0  0  0  0  0  0
   33.1070  -11.3095  -16.9949 O   0  0  0  0  0  0  0  0  0  0  0  0
   37.8423  -11.9073  -11.7933 C   0  0  0  0  0  0  0  0  0  0  0  0
   37.5800  -10.4179  -12.7901 S   0  0  0  0  0  0  0  0  0  0  0  0
   36.2722  -10.6833  -14.0201 C   0  0  0  0  0  0  0  0  0  0  0  0
   36.0502   -9.4429  -14.8233 C   0  0  0  0  0  0  0  0  0  0  0  0
   34.9180   -9.5154  -15.7927 C   0  0  2  0  0  0  0  0  0  0  0  0
   35.2445  -10.5456  -16.7617 N   0  0  0  0  0  0  0  0  0  0  0  0
   34.5602   -8.2501  -16.4312 C   0  0  0  0  0  0  0  0  0  0  0  0
   35.1800   -7.7505  -17.3901 O   0  0  0  0  0  0  0  0  0  0  0  0
   29.1595   -7.2629  -18.3405 N   0  0  0  0  0  0  0  0  0  0  0  0
   29.6582   -5.9479  -18.5396 C   0  0  0  0  0  0  0  0  0  0  0  0
   28.9406   -5.1734  -19.2460 O   0  0  0  0  0  0  0  0  0  0  0  0
   30.9495   -5.4821  -17.9611 C   0  0  0  0  0  0  0  0  0  0  0  0
   31.6058   -6.5683  -17.2060 C   0  0  0  0  0  0  0  0  0  0  0  0
   32.9011   -6.3500  -16.5768 C   0  0  2  0  0  0  0  0  0  0  0  0
   33.4346   -7.5349  -15.9340 N   0  0  0  0  0  0  0  0  0  0  0  0
   33.1424   -5.1821  -15.7590 C   0  0  0  0  0  0  0  0  0  0  0  0
   33.1494   -3.8589  -16.1507 O   0  0  0  0  0  0  0  0  0  0  0  0
   33.3789   -5.3369  -14.5386 O   0  0  0  0  0  0  0  0  0  0  0  0
  2  1  1  0
  2  3  1  0
  3 10  1  0
  4  3  2  0
  6  5  1  0
  6  7  1  0
  8  7  1  0
  9 11  1  0
  9  8  1  1
 10  9  1  0
 11 12  2  0
 14 13  1  0
 14 16  1  0
 15 14  2  0
 17 16  1  0
 18 17  1  1
 19 11  1  0
 19 18  1  0
 20 21  1  0
 20 18  1  0
 22 20  2  0
M  END
$$$$
