GMQ.pdb
     RDKit          3D

 22 21  0  0  1  0  0  0  0  0999 V2000
   14.6850  -24.8283    0.8270 N   0  0  0  0  0  0  0  0  0  0  0  0
   15.2141  -26.0975    1.2575 C   0  0  0  0  0  0  0  0  0  0  0  0
   16.1137  -25.8926    2.4471 C   0  0  0  0  0  0  0  0  0  0  0  0
   15.8094  -26.3385    3.5857 O   0  0  0  0  0  0  0  0  0  0  0  0
   22.2749  -25.9135   -0.1828 C   0  0  0  0  0  0  0  0  0  0  0  0
   21.6224  -24.7971    1.0856 S   0  0  0  0  0  0  0  0  0  0  0  0
   20.0857  -25.4510    1.7961 C   0  0  0  0  0  0  0  0  0  0  0  0
   19.5423  -24.5103    2.8221 C   0  0  0  0  0  0  0  0  0  0  0  0
   18.2371  -24.9174    3.4202 C   0  0  2  0  0  0  0  0  0  0  0  0
   17.3271  -25.1938    2.3236 N   0  0  0  0  0  0  0  0  0  0  0  0
   17.6706  -23.9756    4.3839 C   0  0  0  0  0  0  0  0  0  0  0  0
   17.0222  -22.9585    4.0701 O   0  0  0  0  0  0  0  0  0  0  0  0
   13.9795  -22.0975    6.5134 N   0  0  0  0  0  0  0  0  0  0  0  0
   14.3150  -22.1541    7.8925 C   0  0  0  0  0  0  0  0  0  0  0  0
   13.6264  -21.4237    8.6710 O   0  0  0  0  0  0  0  0  0  0  0  0
   15.4107  -23.0156    8.4181 C   0  0  0  0  0  0  0  0  0  0  0  0
   16.0554  -23.7675    7.3228 C   0  0  0  0  0  0  0  0  0  0  0  0
   17.3567  -23.3567    6.8134 C   0  0  2  0  0  0  0  0  0  0  0  0
   17.8663  -24.2262    5.7712 N   0  0  0  0  0  0  0  0  0  0  0  0
   18.4207  -22.9750    7.7151 C   0  0  0  0  0  0  0  0  0  0  0  0
   18.5131  -21.8318    8.4826 O   0  0  0  0  0  0  0  0  0  0  0  0
   19.4017  -23.7420    7.8519 O   0  0  0  0  0  0  0  0  0  0  0  0
  2  1  1  0
  2  3  1  0
  3 10  1  0
  4  3  2  0
  6  5  1  0
  6  7  1  0
  8  7  1  0
  9 11  1  0
  9  8  1  6
 10  9  1  0
 11 12  2  0
 14 13  1  0
 14 16  1  0
 15 14  2  0
 17 16  1  0
 18 17  1  1
 19 11  1  0
 19 18  1  0
 20 21  1  0
 20 18  1  0
 22 20  2  0
M  END
$$$$
