GMQ.pdb
     RDKit          3D

 22 21  0  0  1  0  0  0  0  0999 V2000
   10.9631  -18.6215    0.2459 N   0  0  0  0  0  0  0  0  0  0  0  0
   11.9454  -19.2875   -0.5712 C   0  0  0  0  0  0  0  0  0  0  0  0
   12.6968  -20.2926    0.2605 C   0  0  0  0  0  0  0  0  0  0  0  0
   12.3946  -20.5061    1.4650 O   0  0  0  0  0  0  0  0  0  0  0  0
   16.5675  -25.8284   -1.6346 C   0  0  0  0  0  0  0  0  0  0  0  0
   15.5850  -24.5798   -2.5043 S   0  0  0  0  0  0  0  0  0  0  0  0
   14.5499  -23.6452   -1.3429 C   0  0  0  0  0  0  0  0  0  0  0  0
   15.3916  -22.7378   -0.5057 C   0  0  0  0  0  0  0  0  0  0  0  0
   14.6354  -21.9058    0.4755 C   0  0  2  0  0  0  0  0  0  0  0  0
   13.7644  -21.0274   -0.2839 N   0  0  0  0  0  0  0  0  0  0  0  0
   15.4568  -21.1725    1.4369 C   0  0  0  0  0  0  0  0  0  0  0  0
   15.8744  -20.0118    1.2588 O   0  0  0  0  0  0  0  0  0  0  0  0
   14.3266  -17.7549    6.2613 N   0  0  0  0  0  0  0  0  0  0  0  0
   15.4858  -17.8553    5.4465 C   0  0  0  0  0  0  0  0  0  0  0  0
   15.8380  -16.7995    4.8342 O   0  0  0  0  0  0  0  0  0  0  0  0
   16.2606  -19.1196    5.3040 C   0  0  0  0  0  0  0  0  0  0  0  0
   15.8183  -19.8719    4.1127 C   0  0  0  0  0  0  0  0  0  0  0  0
   16.4599  -21.1298    3.7556 C   0  0  2  0  0  0  0  0  0  0  0  0
   15.8081  -21.8156    2.6571 N   0  0  0  0  0  0  0  0  0  0  0  0
   16.8584  -22.0760    4.7739 C   0  0  0  0  0  0  0  0  0  0  0  0
   17.7708  -21.8918    5.7926 O   0  0  0  0  0  0  0  0  0  0  0  0
   16.3407  -23.2167    4.7751 O   0  0  0  0  0  0  0  0  0  0  0  0
  2  1  1  0
  2  3  1  0
  3 10  1  0
  4  3  2  0
  6  5  1  0
  6  7  1  0
  8  7  1  0
  9 11  1  0
  9  8  1  6
 10  9  1  0
 11 12  2  0
 14 13  1  0
 14 16  1  0
 15 14  2  0
 17 16  1  0
 18 17  1  1
 19 11  1  0
 19 18  1  0
 20 21  1  0
 20 18  1  0
 22 20  2  0
M  END
$$$$
