RNW.pdb
     RDKit          3D

 34 35  0  0  1  0  0  0  0  0999 V2000
   30.0843  -21.9053  -18.8733 N   0  0  0  0  0  0  0  0  0  0  0  0
   29.8705  -22.7443  -17.7322 C   0  0  0  0  0  0  0  0  0  0  0  0
   30.5647  -23.8285  -17.5730 N   0  0  0  0  0  0  0  0  0  0  0  0
   28.8924  -22.3901  -16.7698 N   0  0  0  0  0  0  0  0  0  0  0  0
   28.1888  -21.0954  -16.8242 C   0  0  0  0  0  0  0  0  0  0  0  0
   28.9246  -20.1906  -15.8844 C   0  0  0  0  0  0  0  0  0  0  0  0
   28.0699  -19.7461  -14.7630 C   0  0  0  0  0  0  0  0  0  0  0  0
   26.6408  -19.4639  -15.0422 C   0  0  2  0  0  0  0  0  0  0  0  0
   26.3238  -18.2349  -15.6856 N   0  0  0  0  0  0  0  0  0  0  0  0
   25.9016  -19.5015  -13.7321 C   0  0  0  0  0  0  0  0  0  0  0  0
   25.6356  -18.3631  -13.2410 O   0  0  0  0  0  0  0  0  0  0  0  0
   30.4401  -24.4622  -16.7870 N   0  0  0  0  0  0  0  0  0  0  0  0
   22.3062  -19.7793  -12.9520 C   0  0  0  0  0  0  0  0  0  0  0  0
   22.4447  -21.0883  -12.3840 O   0  0  0  0  0  0  0  0  0  0  0  0
   21.4219  -21.8172  -12.3952 C   0  0  0  0  0  0  0  0  0  0  0  0
   23.6893  -21.5844  -11.8141 C   0  0  2  0  0  0  0  0  0  0  0  0
   24.8458  -20.6248  -11.8126 N   0  0  0  0  0  0  0  0  0  0  0  0
   25.5247  -20.6984  -13.0817 C   0  0  0  0  0  0  0  0  0  0  0  0
   25.7567  -21.0189  -10.6874 O   0  0  0  0  0  0  0  0  0  0  0  0
   26.5918  -21.9225  -10.8987 N   0  0  0  0  0  0  0  0  0  0  0  0
   25.7075  -20.4175   -9.4103 C   0  0  1  0  0  0  0  0  0  0  0  0
   26.5238  -20.7821   -8.2696 C   0  0  0  0  0  0  0  0  0  0  0  0
   27.6954  -19.9006   -8.1011 C   0  0  0  0  0  0  0  0  0  0  0  0
   27.8674  -19.4510   -6.7128 C   0  0  0  0  0  0  0  0  0  0  0  0
   27.2544  -18.4064   -6.0522 N   0  0  0  0  0  0  0  0  0  0  0  0
   27.7397  -18.3357   -4.7905 C   0  0  0  0  0  0  0  0  0  0  0  0
   28.6481  -19.3038   -4.6141 C   0  0  0  0  0  0  0  0  0  0  0  0
   29.4420  -19.7104   -3.5372 C   0  0  0  0  0  0  0  0  0  0  0  0
   30.3049  -20.7824   -3.6213 C   0  0  0  0  0  0  0  0  0  0  0  0
   30.3813  -21.4711   -4.8108 C   0  0  0  0  0  0  0  0  0  0  0  0
   29.6004  -21.0791   -5.8890 C   0  0  0  0  0  0  0  0  0  0  0  0
   28.7470  -20.0073   -5.7845 C   0  0  0  0  0  0  0  0  0  0  0  0
   25.8035  -21.1986   -7.0744 O   0  0  0  0  0  0  0  0  0  0  0  0
   24.6622  -20.6111   -6.5556 O   0  0  0  0  0  0  0  0  0  0  0  0
  1  2  1  0
  2  3  2  0
  4  2  1  0
  5  4  1  0
  6  5  1  0
  7  6  1  0
  8  9  1  1
  8  7  1  0
 10  8  1  0
 11 10  2  0
 13 15  1  0
 13 12  1  0
 14 13  2  0
 16 15  1  6
 16 17  1  0
 17 10  1  0
 18 16  1  0
 18 19  2  0
 20 18  1  0
 21 20  1  0
 21 22  1  1
 23 22  1  0
 23 31  1  0
 24 25  1  0
 24 23  2  0
 25 26  1  0
 26 31  2  0
 26 27  1  0
 27 28  2  0
 28 29  1  0
 30 29  2  0
 31 30  1  0
 32 21  1  0
 33 32  1  0
 34 32  2  0
M  END
$$$$
