RNW.pdb
     RDKit          3D

 34 35  0  0  1  0  0  0  0  0999 V2000
   31.7098  -24.5263  -18.9746 N   0  0  0  0  0  0  0  0  0  0  0  0
   30.9464  -25.2644  -18.0134 C   0  0  0  0  0  0  0  0  0  0  0  0
   31.0433  -26.5564  -17.9475 N   0  0  0  0  0  0  0  0  0  0  0  0
   30.0765  -24.5803  -17.1282 N   0  0  0  0  0  0  0  0  0  0  0  0
   30.3913  -23.2301  -16.6260 C   0  0  0  0  0  0  0  0  0  0  0  0
   29.3001  -22.3399  -17.1359 C   0  0  0  0  0  0  0  0  0  0  0  0
   28.5646  -21.6817  -16.0352 C   0  0  0  0  0  0  0  0  0  0  0  0
   27.5440  -22.4726  -15.3051 C   0  0  2  0  0  0  0  0  0  0  0  0
   26.5055  -23.0757  -16.0683 N   0  0  0  0  0  0  0  0  0  0  0  0
   26.9020  -21.5664  -14.2897 C   0  0  0  0  0  0  0  0  0  0  0  0
   27.7023  -20.7767  -13.7034 O   0  0  0  0  0  0  0  0  0  0  0  0
   30.4344  -27.1345  -17.3731 N   0  0  0  0  0  0  0  0  0  0  0  0
   23.5356  -19.0272  -11.1062 C   0  0  0  0  0  0  0  0  0  0  0  0
   22.8407  -19.9340  -11.9723 O   0  0  0  0  0  0  0  0  0  0  0  0
   21.5896  -19.9647  -11.8670 C   0  0  0  0  0  0  0  0  0  0  0  0
   23.5141  -20.7913  -12.9375 C   0  0  2  0  0  0  0  0  0  0  0  0
   25.0147  -20.7137  -12.9586 N   0  0  0  0  0  0  0  0  0  0  0  0
   25.5197  -21.5780  -13.9955 C   0  0  0  0  0  0  0  0  0  0  0  0
   25.5069  -21.1433  -11.6079 O   0  0  0  0  0  0  0  0  0  0  0  0
   25.4375  -22.3554  -11.3173 N   0  0  0  0  0  0  0  0  0  0  0  0
   26.0384  -20.2415  -10.6596 C   0  0  1  0  0  0  0  0  0  0  0  0
   26.5661  -20.5947   -9.3568 C   0  0  0  0  0  0  0  0  0  0  0  0
   27.8623  -19.9491   -9.0720 C   0  0  0  0  0  0  0  0  0  0  0  0
   28.4568  -20.4112   -7.8101 C   0  0  0  0  0  0  0  0  0  0  0  0
   29.1250  -21.5877   -7.5403 N   0  0  0  0  0  0  0  0  0  0  0  0
   29.4723  -21.6087   -6.2321 C   0  0  0  0  0  0  0  0  0  0  0  0
   29.0494  -20.4808   -5.6468 C   0  0  0  0  0  0  0  0  0  0  0  0
   29.1376  -19.9634   -4.3507 C   0  0  0  0  0  0  0  0  0  0  0  0
   28.6174  -18.7325   -4.0117 C   0  0  0  0  0  0  0  0  0  0  0  0
   27.9907  -17.9934   -4.9896 C   0  0  0  0  0  0  0  0  0  0  0  0
   27.8944  -18.4938   -6.2805 C   0  0  0  0  0  0  0  0  0  0  0  0
   28.4192  -19.7234   -6.5975 C   0  0  0  0  0  0  0  0  0  0  0  0
   25.5944  -20.6847   -8.2758 O   0  0  0  0  0  0  0  0  0  0  0  0
   25.5473  -21.6570   -7.2914 O   0  0  0  0  0  0  0  0  0  0  0  0
  1  2  1  0
  2  3  2  0
  4  2  1  0
  5  4  1  0
  6  5  1  0
  7  6  1  0
  8  9  1  6
  8  7  1  0
 10  8  1  0
 11 10  2  0
 13 15  1  0
 13 12  1  0
 14 13  2  0
 16 15  1  6
 16 17  1  0
 17 10  1  0
 18 16  1  0
 18 19  2  0
 20 18  1  0
 21 20  1  0
 21 22  1  1
 23 22  1  0
 23 31  1  0
 24 25  1  0
 24 23  2  0
 25 26  1  0
 26 31  2  0
 26 27  1  0
 27 28  2  0
 28 29  1  0
 30 29  2  0
 31 30  1  0
 32 21  1  0
 33 32  1  0
 34 32  2  0
M  END
$$$$
