RNW.pdb
     RDKit          3D

 34 35  0  0  1  0  0  0  0  0999 V2000
   14.5773  -20.5747  -16.1790 N   0  0  0  0  0  0  0  0  0  0  0  0
   15.4634  -20.2836  -15.0920 C   0  0  0  0  0  0  0  0  0  0  0  0
   15.6430  -19.0606  -14.6985 N   0  0  0  0  0  0  0  0  0  0  0  0
   16.1516  -21.3379  -14.4414 N   0  0  0  0  0  0  0  0  0  0  0  0
   16.9565  -21.1021  -13.2287 C   0  0  0  0  0  0  0  0  0  0  0  0
   18.3336  -20.7647  -13.7116 C   0  0  0  0  0  0  0  0  0  0  0  0
   19.2932  -21.8593  -13.4530 C   0  0  0  0  0  0  0  0  0  0  0  0
   20.0929  -21.8077  -12.2048 C   0  0  2  0  0  0  0  0  0  0  0  0
   19.7131  -20.8578  -11.2159 N   0  0  0  0  0  0  0  0  0  0  0  0
   21.5213  -21.5283  -12.5869 C   0  0  0  0  0  0  0  0  0  0  0  0
   22.0824  -22.4514  -13.2508 O   0  0  0  0  0  0  0  0  0  0  0  0
   16.2937  -18.7999  -13.9612 N   0  0  0  0  0  0  0  0  0  0  0  0
   25.9064  -20.1280  -14.3584 C   0  0  0  0  0  0  0  0  0  0  0  0
   24.9215  -19.0876  -14.4118 O   0  0  0  0  0  0  0  0  0  0  0  0
   25.1069  -18.1810  -15.2611 C   0  0  0  0  0  0  0  0  0  0  0  0
   23.7531  -19.0481  -13.5440 C   0  0  2  0  0  0  0  0  0  0  0  0
   23.5949  -20.2013  -12.5934 N   0  0  0  0  0  0  0  0  0  0  0  0
   22.2038  -20.3395  -12.2429 C   0  0  0  0  0  0  0  0  0  0  0  0
   24.4316  -19.9058  -11.3835 O   0  0  0  0  0  0  0  0  0  0  0  0
   23.8459  -19.7272  -10.2956 N   0  0  0  0  0  0  0  0  0  0  0  0
   25.8408  -19.8196  -11.4244 C   0  0  2  0  0  0  0  0  0  0  0  0
   26.7569  -20.4744  -10.5120 C   0  0  0  0  0  0  0  0  0  0  0  0
   26.4399  -20.2074   -9.0956 C   0  0  0  0  0  0  0  0  0  0  0  0
   27.6442  -20.0474   -8.2690 C   0  0  0  0  0  0  0  0  0  0  0  0
   28.9713  -20.0942   -8.6432 N   0  0  0  0  0  0  0  0  0  0  0  0
   29.7461  -19.9276   -7.5457 C   0  0  0  0  0  0  0  0  0  0  0  0
   28.9604  -19.7737   -6.4721 C   0  0  0  0  0  0  0  0  0  0  0  0
   29.2009  -19.5557   -5.1120 C   0  0  0  0  0  0  0  0  0  0  0  0
   28.1797  -19.4105   -4.1972 C   0  0  0  0  0  0  0  0  0  0  0  0
   26.8807  -19.4841   -4.6471 C   0  0  0  0  0  0  0  0  0  0  0  0
   26.6259  -19.7009   -5.9940 C   0  0  0  0  0  0  0  0  0  0  0  0
   27.6582  -19.8435   -6.8894 C   0  0  0  0  0  0  0  0  0  0  0  0
   27.1709  -21.8217  -10.8782 O   0  0  0  0  0  0  0  0  0  0  0  0
   28.4498  -22.3433  -10.7835 O   0  0  0  0  0  0  0  0  0  0  0  0
  1  2  1  0
  2  3  2  0
  4  2  1  0
  5  4  1  0
  6  5  1  0
  7  6  1  0
  8  9  1  1
  8  7  1  0
 10  8  1  0
 11 10  2  0
 13 15  1  0
 13 12  1  0
 14 13  2  0
 16 15  1  6
 16 17  1  0
 17 10  1  0
 18 16  1  0
 18 19  2  0
 20 18  1  0
 21 20  1  0
 21 22  1  6
 23 22  1  0
 23 31  1  0
 24 25  1  0
 24 23  2  0
 25 26  1  0
 26 31  2  0
 26 27  1  0
 27 28  2  0
 28 29  1  0
 30 29  2  0
 31 30  1  0
 32 21  1  0
 33 32  1  0
 34 32  2  0
M  END
$$$$
