RNW.pdb
     RDKit          3D

 34 35  0  0  1  0  0  0  0  0999 V2000
   24.4793  -16.8217  -20.1255 N   0  0  0  0  0  0  0  0  0  0  0  0
   23.5054  -17.8241  -20.4392 C   0  0  0  0  0  0  0  0  0  0  0  0
   22.8322  -17.7643  -21.5465 N   0  0  0  0  0  0  0  0  0  0  0  0
   23.2727  -18.8890  -19.5336 N   0  0  0  0  0  0  0  0  0  0  0  0
   24.3238  -19.3664  -18.6163 C   0  0  0  0  0  0  0  0  0  0  0  0
   24.5394  -20.8088  -18.9572 C   0  0  0  0  0  0  0  0  0  0  0  0
   25.5496  -21.4385  -18.0804 C   0  0  0  0  0  0  0  0  0  0  0  0
   25.1382  -21.8342  -16.7114 C   0  0  2  0  0  0  0  0  0  0  0  0
   23.9277  -21.2868  -16.2014 N   0  0  0  0  0  0  0  0  0  0  0  0
   26.2485  -21.4517  -15.7705 C   0  0  0  0  0  0  0  0  0  0  0  0
   27.3686  -21.9876  -16.0272 O   0  0  0  0  0  0  0  0  0  0  0  0
   22.1048  -18.4304  -21.7957 N   0  0  0  0  0  0  0  0  0  0  0  0
   26.6882  -18.4944  -15.7715 C   0  0  0  0  0  0  0  0  0  0  0  0
   27.1736  -18.0949  -14.4830 O   0  0  0  0  0  0  0  0  0  0  0  0
   27.4177  -16.8726  -14.3284 C   0  0  0  0  0  0  0  0  0  0  0  0
   27.3857  -19.0271  -13.3849 C   0  0  2  0  0  0  0  0  0  0  0  0
   27.1165  -20.4750  -13.6840 N   0  0  0  0  0  0  0  0  0  0  0  0
   26.0792  -20.5686  -14.6801 C   0  0  0  0  0  0  0  0  0  0  0  0
   26.6960  -21.1294  -12.4009 O   0  0  0  0  0  0  0  0  0  0  0  0
   25.5546  -21.6319  -12.3463 N   0  0  0  0  0  0  0  0  0  0  0  0
   27.5291  -21.1977  -11.2624 C   0  0  2  0  0  0  0  0  0  0  0  0
   27.1142  -20.9658   -9.8932 C   0  0  0  0  0  0  0  0  0  0  0  0
   28.1986  -20.4224   -9.0526 C   0  0  0  0  0  0  0  0  0  0  0  0
   27.7265  -20.0017   -7.7262 C   0  0  0  0  0  0  0  0  0  0  0  0
   26.5111  -19.4576   -7.3653 N   0  0  0  0  0  0  0  0  0  0  0  0
   26.5228  -19.1910   -6.0382 C   0  0  0  0  0  0  0  0  0  0  0  0
   27.7092  -19.5467   -5.5288 C   0  0  0  0  0  0  0  0  0  0  0  0
   28.2672  -19.5181   -4.2469 C   0  0  0  0  0  0  0  0  0  0  0  0
   29.5413  -19.9764   -3.9876 C   0  0  0  0  0  0  0  0  0  0  0  0
   30.2833  -20.4782   -5.0329 C   0  0  0  0  0  0  0  0  0  0  0  0
   29.7437  -20.5125   -6.3111 C   0  0  0  0  0  0  0  0  0  0  0  0
   28.4718  -20.0501   -6.5484 C   0  0  0  0  0  0  0  0  0  0  0  0
   25.7735  -20.4263   -9.7136 O   0  0  0  0  0  0  0  0  0  0  0  0
   24.7113  -21.0553   -9.0870 O   0  0  0  0  0  0  0  0  0  0  0  0
  1  2  1  0
  2  3  2  0
  4  2  1  0
  5  4  1  0
  6  5  1  0
  7  6  1  0
  8  9  1  1
  8  7  1  0
 10  8  1  0
 11 10  2  0
 13 15  1  0
 13 12  1  0
 14 13  2  0
 16 15  1  6
 16 17  1  0
 17 10  1  0
 18 16  1  0
 18 19  2  0
 20 18  1  0
 21 20  1  0
 21 22  1  6
 23 22  1  0
 23 31  1  0
 24 25  1  0
 24 23  2  0
 25 26  1  0
 26 31  2  0
 26 27  1  0
 27 28  2  0
 28 29  1  0
 30 29  2  0
 31 30  1  0
 32 21  1  0
 33 32  1  0
 34 32  2  0
M  END
$$$$
