RNW.pdb
     RDKit          3D

 34 35  0  0  1  0  0  0  0  0999 V2000
   33.6743  -27.4247  -18.5542 N   0  0  0  0  0  0  0  0  0  0  0  0
   34.4604  -26.2423  -18.3654 C   0  0  0  0  0  0  0  0  0  0  0  0
   35.7321  -26.2494  -18.6212 N   0  0  0  0  0  0  0  0  0  0  0  0
   33.8465  -25.0553  -17.8936 N   0  0  0  0  0  0  0  0  0  0  0  0
   32.4436  -25.0391  -17.4399 C   0  0  0  0  0  0  0  0  0  0  0  0
   31.6953  -24.2311  -18.4549 C   0  0  0  0  0  0  0  0  0  0  0  0
   30.7810  -23.2575  -17.8208 C   0  0  0  0  0  0  0  0  0  0  0  0
   29.8522  -23.7495  -16.7742 C   0  0  2  0  0  0  0  0  0  0  0  0
   28.9344  -24.7753  -17.1351 N   0  0  0  0  0  0  0  0  0  0  0  0
   29.0559  -22.5730  -16.2781 C   0  0  0  0  0  0  0  0  0  0  0  0
   29.7207  -21.5015  -16.1455 O   0  0  0  0  0  0  0  0  0  0  0  0
   36.3476  -25.4646  -18.4203 N   0  0  0  0  0  0  0  0  0  0  0  0
   25.8347  -21.2005  -18.7605 C   0  0  0  0  0  0  0  0  0  0  0  0
   26.2475  -20.5545  -17.5490 O   0  0  0  0  0  0  0  0  0  0  0  0
   26.9452  -19.5176  -17.6743 C   0  0  0  0  0  0  0  0  0  0  0  0
   25.8967  -21.0434  -16.2232 C   0  0  2  0  0  0  0  0  0  0  0  0
   27.0405  -21.4973  -15.3607 N   0  0  0  0  0  0  0  0  0  0  0  0
   27.6766  -22.6346  -15.9764 C   0  0  0  0  0  0  0  0  0  0  0  0
   26.4773  -21.8536  -14.0164 O   0  0  0  0  0  0  0  0  0  0  0  0
   25.9828  -22.9907  -13.8712 N   0  0  0  0  0  0  0  0  0  0  0  0
   26.4809  -20.9637  -12.9196 C   0  0  1  0  0  0  0  0  0  0  0  0
   26.0006  -21.2611  -11.5850 C   0  0  0  0  0  0  0  0  0  0  0  0
   27.0820  -21.2832  -10.5810 C   0  0  0  0  0  0  0  0  0  0  0  0
   26.7485  -20.5107   -9.3764 C   0  0  0  0  0  0  0  0  0  0  0  0
   25.5187  -20.0621   -8.9409 N   0  0  0  0  0  0  0  0  0  0  0  0
   25.6844  -19.3610   -7.7948 C   0  0  0  0  0  0  0  0  0  0  0  0
   26.9848  -19.3428   -7.4748 C   0  0  0  0  0  0  0  0  0  0  0  0
   27.7205  -18.7975   -6.4181 C   0  0  0  0  0  0  0  0  0  0  0  0
   29.0874  -18.9466   -6.3178 C   0  0  0  0  0  0  0  0  0  0  0  0
   29.7430  -19.6589   -7.2967 C   0  0  0  0  0  0  0  0  0  0  0  0
   29.0267  -20.2055   -8.3522 C   0  0  0  0  0  0  0  0  0  0  0  0
   27.6646  -20.0447   -8.4338 C   0  0  0  0  0  0  0  0  0  0  0  0
   24.7320  -20.6514  -11.2109 O   0  0  0  0  0  0  0  0  0  0  0  0
   23.8101  -21.1580  -10.3108 O   0  0  0  0  0  0  0  0  0  0  0  0
  1  2  1  0
  2  3  2  0
  4  2  1  0
  5  4  1  0
  6  5  1  0
  7  6  1  0
  8  9  1  6
  8  7  1  0
 10  8  1  0
 11 10  2  0
 13 15  1  0
 13 12  1  0
 14 13  2  0
 16 15  1  6
 16 17  1  0
 17 10  1  0
 18 16  1  0
 18 19  2  0
 20 18  1  0
 21 20  1  0
 21 22  1  1
 23 22  1  0
 23 31  1  0
 24 25  1  0
 24 23  2  0
 25 26  1  0
 26 31  2  0
 26 27  1  0
 27 28  2  0
 28 29  1  0
 30 29  2  0
 31 30  1  0
 32 21  1  0
 33 32  1  0
 34 32  2  0
M  END
$$$$
