RNW.pdb
     RDKit          3D

 34 35  0  0  1  0  0  0  0  0999 V2000
   28.8251  -27.0520  -15.9693 N   0  0  0  0  0  0  0  0  0  0  0  0
   28.6521  -27.0625  -17.3911 C   0  0  0  0  0  0  0  0  0  0  0  0
   28.9198  -28.1293  -18.0790 N   0  0  0  0  0  0  0  0  0  0  0  0
   28.1871  -25.8992  -18.0535 N   0  0  0  0  0  0  0  0  0  0  0  0
   27.6298  -24.7562  -17.3071 C   0  0  0  0  0  0  0  0  0  0  0  0
   26.2176  -25.1319  -16.9789 C   0  0  0  0  0  0  0  0  0  0  0  0
   25.3219  -23.9558  -16.9659 C   0  0  0  0  0  0  0  0  0  0  0  0
   25.6349  -22.8488  -16.0296 C   0  0  2  0  0  0  0  0  0  0  0  0
   26.2886  -23.1802  -14.8100 N   0  0  0  0  0  0  0  0  0  0  0  0
   24.3421  -22.1594  -15.6863 C   0  0  0  0  0  0  0  0  0  0  0  0
   23.6081  -21.8835  -16.6827 O   0  0  0  0  0  0  0  0  0  0  0  0
   28.8835  -28.1635  -19.0951 N   0  0  0  0  0  0  0  0  0  0  0  0
   19.8373  -21.2678  -13.8570 C   0  0  0  0  0  0  0  0  0  0  0  0
   20.6943  -21.5683  -12.7476 O   0  0  0  0  0  0  0  0  0  0  0  0
   20.1303  -21.8927  -11.6733 C   0  0  0  0  0  0  0  0  0  0  0  0
   22.1473  -21.5123  -12.8223 C   0  0  2  0  0  0  0  0  0  0  0  0
   22.7273  -21.1139  -14.1501 N   0  0  0  0  0  0  0  0  0  0  0  0
   23.9566  -21.8344  -14.3660 C   0  0  0  0  0  0  0  0  0  0  0  0
   22.9670  -19.6333  -14.1110 O   0  0  0  0  0  0  0  0  0  0  0  0
   23.1632  -19.1008  -12.9990 N   0  0  0  0  0  0  0  0  0  0  0  0
   22.9772  -18.8241  -15.2687 C   0  0  1  0  0  0  0  0  0  0  0  0
   23.9700  -17.8188  -15.5914 C   0  0  0  0  0  0  0  0  0  0  0  0
   25.2787  -18.0871  -14.9644 C   0  0  0  0  0  0  0  0  0  0  0  0
   26.2472  -17.0068  -15.1972 C   0  0  0  0  0  0  0  0  0  0  0  0
   26.3633  -15.7878  -14.5617 N   0  0  0  0  0  0  0  0  0  0  0  0
   27.3798  -15.0918  -15.1230 C   0  0  0  0  0  0  0  0  0  0  0  0
   27.9257  -15.8240  -16.1025 C   0  0  0  0  0  0  0  0  0  0  0  0
   28.9878  -15.6264  -16.9902 C   0  0  0  0  0  0  0  0  0  0  0  0
   29.3628  -16.5786  -17.9141 C   0  0  0  0  0  0  0  0  0  0  0  0
   28.6615  -17.7625  -17.9574 C   0  0  0  0  0  0  0  0  0  0  0  0
   27.6042  -17.9730  -17.0834 C   0  0  0  0  0  0  0  0  0  0  0  0
   27.2462  -17.0107  -16.1703 C   0  0  0  0  0  0  0  0  0  0  0  0
   23.9562  -17.3224  -16.9605 O   0  0  0  0  0  0  0  0  0  0  0  0
   24.0606  -16.0000  -17.3567 O   0  0  0  0  0  0  0  0  0  0  0  0
  1  2  1  0
  2  3  2  0
  4  2  1  0
  5  4  1  0
  6  5  1  0
  7  6  1  0
  8  9  1  1
  8  7  1  0
 10  8  1  0
 11 10  2  0
 13 15  1  0
 13 12  1  0
 14 13  2  0
 16 15  1  6
 16 17  1  0
 17 10  1  0
 18 16  1  0
 18 19  2  0
 20 18  1  0
 21 20  1  0
 21 22  1  1
 23 22  1  0
 23 31  1  0
 24 25  1  0
 24 23  2  0
 25 26  1  0
 26 31  2  0
 26 27  1  0
 27 28  2  0
 28 29  1  0
 30 29  2  0
 31 30  1  0
 32 21  1  0
 33 32  1  0
 34 32  2  0
M  END
$$$$
