RNW.pdb
     RDKit          3D

 34 35  0  0  1  0  0  0  0  0999 V2000
   32.2446  -24.7511  -14.5705 N   0  0  0  0  0  0  0  0  0  0  0  0
   32.7982  -24.5836  -15.8808 C   0  0  0  0  0  0  0  0  0  0  0  0
   33.8713  -25.2239  -16.2289 N   0  0  0  0  0  0  0  0  0  0  0  0
   32.1716  -23.7106  -16.8047 N   0  0  0  0  0  0  0  0  0  0  0  0
   30.7458  -23.8501  -17.1541 C   0  0  0  0  0  0  0  0  0  0  0  0
   30.0181  -22.8521  -16.3070 C   0  0  0  0  0  0  0  0  0  0  0  0
   28.8061  -22.3368  -16.9789 C   0  0  0  0  0  0  0  0  0  0  0  0
   28.2587  -23.1079  -18.1215 C   0  0  2  0  0  0  0  0  0  0  0  0
   28.5768  -22.6593  -19.4339 N   0  0  0  0  0  0  0  0  0  0  0  0
   26.7597  -23.1203  -17.9901 C   0  0  0  0  0  0  0  0  0  0  0  0
   26.1806  -22.0825  -18.4322 O   0  0  0  0  0  0  0  0  0  0  0  0
   34.3118  -25.1235  -17.1404 N   0  0  0  0  0  0  0  0  0  0  0  0
   21.7160  -24.4462  -17.2345 C   0  0  0  0  0  0  0  0  0  0  0  0
   22.5887  -25.5159  -16.8480 O   0  0  0  0  0  0  0  0  0  0  0  0
   22.0399  -26.5807  -16.4706 C   0  0  0  0  0  0  0  0  0  0  0  0
   24.0408  -25.4127  -16.8774 C   0  0  2  0  0  0  0  0  0  0  0  0
   24.6019  -24.0846  -17.3010 N   0  0  0  0  0  0  0  0  0  0  0  0
   26.0341  -24.1915  -17.4214 C   0  0  0  0  0  0  0  0  0  0  0  0
   24.2198  -23.0797  -16.2545 O   0  0  0  0  0  0  0  0  0  0  0  0
   23.0093  -22.8058  -16.1195 N   0  0  0  0  0  0  0  0  0  0  0  0
   25.1640  -22.4349  -15.4252 C   0  0  2  0  0  0  0  0  0  0  0  0
   24.8629  -21.4557  -14.3999 C   0  0  0  0  0  0  0  0  0  0  0  0
   26.0609  -20.7309  -13.9337 C   0  0  0  0  0  0  0  0  0  0  0  0
   26.2525  -19.4516  -14.6307 C   0  0  0  0  0  0  0  0  0  0  0  0
   25.4871  -18.3051  -14.5752 N   0  0  0  0  0  0  0  0  0  0  0  0
   26.0171  -17.3791  -15.4083 C   0  0  0  0  0  0  0  0  0  0  0  0
   27.1032  -17.8915  -16.0012 C   0  0  0  0  0  0  0  0  0  0  0  0
   28.0352  -17.3992  -16.9200 C   0  0  0  0  0  0  0  0  0  0  0  0
   29.1008  -18.1529  -17.3643 C   0  0  0  0  0  0  0  0  0  0  0  0
   29.2447  -19.4340  -16.8812 C   0  0  0  0  0  0  0  0  0  0  0  0
   28.3273  -19.9370  -15.9694 C   0  0  0  0  0  0  0  0  0  0  0  0
   27.2718  -19.1695  -15.5398 C   0  0  0  0  0  0  0  0  0  0  0  0
   23.6321  -20.6984  -14.5802 O   0  0  0  0  0  0  0  0  0  0  0  0
   23.0331  -20.3779  -15.7864 O   0  0  0  0  0  0  0  0  0  0  0  0
  1  2  1  0
  2  3  2  0
  4  2  1  0
  5  4  1  0
  6  5  1  0
  7  6  1  0
  8  9  1  6
  8  7  1  0
 10  8  1  0
 11 10  2  0
 13 15  1  0
 13 12  1  0
 14 13  2  0
 16 15  1  6
 16 17  1  0
 17 10  1  0
 18 16  1  0
 18 19  2  0
 20 18  1  0
 21 20  1  0
 21 22  1  6
 23 22  1  0
 23 31  1  0
 24 25  1  0
 24 23  2  0
 25 26  1  0
 26 31  2  0
 26 27  1  0
 27 28  2  0
 28 29  1  0
 30 29  2  0
 31 30  1  0
 32 21  1  0
 33 32  1  0
 34 32  2  0
M  END
$$$$
