RNW.pdb
     RDKit          3D

 34 35  0  0  1  0  0  0  0  0999 V2000
   29.2534  -22.8563  -17.3748 N   0  0  0  0  0  0  0  0  0  0  0  0
   28.5230  -22.2802  -18.4640 C   0  0  0  0  0  0  0  0  0  0  0  0
   28.1235  -23.0190  -19.4526 N   0  0  0  0  0  0  0  0  0  0  0  0
   28.2354  -20.8925  -18.4645 N   0  0  0  0  0  0  0  0  0  0  0  0
   28.2676  -20.0967  -17.2236 C   0  0  0  0  0  0  0  0  0  0  0  0
   28.3302  -21.0889  -16.1034 C   0  0  0  0  0  0  0  0  0  0  0  0
   27.4841  -20.6852  -14.9602 C   0  0  0  0  0  0  0  0  0  0  0  0
   26.0144  -20.8370  -15.0899 C   0  0  2  0  0  0  0  0  0  0  0  0
   25.3591  -20.0810  -16.1018 N   0  0  0  0  0  0  0  0  0  0  0  0
   25.3970  -20.4688  -13.7679 C   0  0  0  0  0  0  0  0  0  0  0  0
   24.5226  -19.5526  -13.8285 O   0  0  0  0  0  0  0  0  0  0  0  0
   27.6714  -22.6449  -20.2836 N   0  0  0  0  0  0  0  0  0  0  0  0
   22.3169  -20.5782  -13.6349 C   0  0  0  0  0  0  0  0  0  0  0  0
   22.8374  -20.1436  -12.3717 O   0  0  0  0  0  0  0  0  0  0  0  0
   22.6069  -18.9521  -12.0485 C   0  0  0  0  0  0  0  0  0  0  0  0
   23.5983  -21.0082  -11.4809 C   0  0  2  0  0  0  0  0  0  0  0  0
   25.0603  -20.6909  -11.3393 N   0  0  0  0  0  0  0  0  0  0  0  0
   25.7491  -21.0810  -12.5437 C   0  0  0  0  0  0  0  0  0  0  0  0
   25.5732  -21.4509  -10.1517 O   0  0  0  0  0  0  0  0  0  0  0  0
   26.1817  -22.5210  -10.3592 N   0  0  0  0  0  0  0  0  0  0  0  0
   25.3958  -21.0114   -8.8211 C   0  0  1  0  0  0  0  0  0  0  0  0
   26.4167  -20.9887   -7.7926 C   0  0  0  0  0  0  0  0  0  0  0  0
   27.7225  -20.5193   -8.2950 C   0  0  0  0  0  0  0  0  0  0  0  0
   28.7937  -20.6616   -7.2992 C   0  0  0  0  0  0  0  0  0  0  0  0
   29.9165  -21.4624   -7.3347 N   0  0  0  0  0  0  0  0  0  0  0  0
   30.6130  -21.2982   -6.1856 C   0  0  0  0  0  0  0  0  0  0  0  0
   29.9750  -20.4146   -5.4073 C   0  0  0  0  0  0  0  0  0  0  0  0
   30.2313  -19.8615   -4.1489 C   0  0  0  0  0  0  0  0  0  0  0  0
   29.3955  -18.9309   -3.5690 C   0  0  0  0  0  0  0  0  0  0  0  0
   28.2715  -18.5381   -4.2600 C   0  0  0  0  0  0  0  0  0  0  0  0
   28.0031  -19.0787   -5.5098 C   0  0  0  0  0  0  0  0  0  0  0  0
   28.8488  -20.0055   -6.0698 C   0  0  0  0  0  0  0  0  0  0  0  0
   25.9882  -20.5382   -6.4757 O   0  0  0  0  0  0  0  0  0  0  0  0
   26.1486  -21.2196   -5.2812 O   0  0  0  0  0  0  0  0  0  0  0  0
  1  2  1  0
  2  3  2  0
  4  2  1  0
  5  4  1  0
  6  5  1  0
  7  6  1  0
  8  9  1  6
  8  7  1  0
 10  8  1  0
 11 10  2  0
 13 15  1  0
 13 12  1  0
 14 13  2  0
 16 15  1  6
 16 17  1  0
 17 10  1  0
 18 16  1  0
 18 19  2  0
 20 18  1  0
 21 20  1  0
 21 22  1  1
 23 22  1  0
 23 31  1  0
 24 25  1  0
 24 23  2  0
 25 26  1  0
 26 31  2  0
 26 27  1  0
 27 28  2  0
 28 29  1  0
 30 29  2  0
 31 30  1  0
 32 21  1  0
 33 32  1  0
 34 32  2  0
M  END
$$$$
