RNW.pdb
     RDKit          3D

 34 35  0  0  1  0  0  0  0  0999 V2000
   33.7297  -26.4475  -18.0994 N   0  0  0  0  0  0  0  0  0  0  0  0
   32.4696  -27.0225  -17.7344 C   0  0  0  0  0  0  0  0  0  0  0  0
   32.3017  -28.3087  -17.7565 N   0  0  0  0  0  0  0  0  0  0  0  0
   31.3964  -26.1817  -17.3477 N   0  0  0  0  0  0  0  0  0  0  0  0
   31.3883  -24.7426  -17.6689 C   0  0  0  0  0  0  0  0  0  0  0  0
   31.1858  -24.0341  -16.3650 C   0  0  0  0  0  0  0  0  0  0  0  0
   29.7834  -23.6030  -16.1827 C   0  0  0  0  0  0  0  0  0  0  0  0
   29.1878  -22.7097  -17.2061 C   0  0  2  0  0  0  0  0  0  0  0  0
   29.8702  -21.4965  -17.5016 N   0  0  0  0  0  0  0  0  0  0  0  0
   27.7969  -22.3567  -16.7530 C   0  0  0  0  0  0  0  0  0  0  0  0
   27.5754  -21.1132  -16.6425 O   0  0  0  0  0  0  0  0  0  0  0  0
   31.4364  -28.7648  -17.4768 N   0  0  0  0  0  0  0  0  0  0  0  0
   24.4425  -25.1441  -18.9209 C   0  0  0  0  0  0  0  0  0  0  0  0
   24.4140  -23.9126  -18.1874 O   0  0  0  0  0  0  0  0  0  0  0  0
   24.3312  -22.8573  -18.8634 C   0  0  0  0  0  0  0  0  0  0  0  0
   24.4754  -23.8467  -16.7342 C   0  0  2  0  0  0  0  0  0  0  0  0
   25.4652  -22.8746  -16.1566 N   0  0  0  0  0  0  0  0  0  0  0  0
   26.8011  -23.3178  -16.4663 C   0  0  0  0  0  0  0  0  0  0  0  0
   25.2396  -22.8293  -14.6740 O   0  0  0  0  0  0  0  0  0  0  0  0
   25.3876  -23.8863  -14.0264 N   0  0  0  0  0  0  0  0  0  0  0  0
   24.8677  -21.6523  -13.9874 C   0  0  1  0  0  0  0  0  0  0  0  0
   24.7529  -21.5100  -12.5497 C   0  0  0  0  0  0  0  0  0  0  0  0
   25.9004  -22.0901  -11.8253 C   0  0  0  0  0  0  0  0  0  0  0  0
   26.1305  -21.4451  -10.5252 C   0  0  0  0  0  0  0  0  0  0  0  0
   25.2130  -20.9326   -9.6315 N   0  0  0  0  0  0  0  0  0  0  0  0
   25.8735  -20.4013   -8.5759 C   0  0  0  0  0  0  0  0  0  0  0  0
   27.1912  -20.5551   -8.7592 C   0  0  0  0  0  0  0  0  0  0  0  0
   28.3242  -20.2240   -8.0097 C   0  0  0  0  0  0  0  0  0  0  0  0
   29.6016  -20.5220   -8.4344 C   0  0  0  0  0  0  0  0  0  0  0  0
   29.7579  -21.1685   -9.6397 C   0  0  0  0  0  0  0  0  0  0  0  0
   28.6430  -21.5030  -10.3955 C   0  0  0  0  0  0  0  0  0  0  0  0
   27.3784  -21.1963   -9.9544 C   0  0  0  0  0  0  0  0  0  0  0  0
   24.2119  -20.2447  -12.0732 O   0  0  0  0  0  0  0  0  0  0  0  0
   23.3716  -20.0665  -10.9875 O   0  0  0  0  0  0  0  0  0  0  0  0
  1  2  1  0
  2  3  2  0
  4  2  1  0
  5  4  1  0
  6  5  1  0
  7  6  1  0
  8  9  1  1
  8  7  1  0
 10  8  1  0
 11 10  2  0
 13 15  1  0
 13 12  1  0
 14 13  2  0
 16 15  1  6
 16 17  1  0
 17 10  1  0
 18 16  1  0
 18 19  2  0
 20 18  1  0
 21 20  1  0
 21 22  1  1
 23 22  1  0
 23 31  1  0
 24 25  1  0
 24 23  2  0
 25 26  1  0
 26 31  2  0
 26 27  1  0
 27 28  2  0
 28 29  1  0
 30 29  2  0
 31 30  1  0
 32 21  1  0
 33 32  1  0
 34 32  2  0
M  END
$$$$
