RNW.pdb
     RDKit          3D

 34 35  0  0  1  0  0  0  0  0999 V2000
   27.4263  -25.9384  -16.6109 N   0  0  0  0  0  0  0  0  0  0  0  0
   27.5139  -25.2529  -17.8655 C   0  0  0  0  0  0  0  0  0  0  0  0
   27.7008  -25.9144  -18.9656 N   0  0  0  0  0  0  0  0  0  0  0  0
   27.3978  -23.8411  -17.9072 N   0  0  0  0  0  0  0  0  0  0  0  0
   27.0983  -23.0548  -16.6963 C   0  0  0  0  0  0  0  0  0  0  0  0
   26.8960  -21.6462  -17.1636 C   0  0  0  0  0  0  0  0  0  0  0  0
   25.9863  -21.5755  -18.3269 C   0  0  0  0  0  0  0  0  0  0  0  0
   24.6510  -20.9594  -18.1339 C   0  0  2  0  0  0  0  0  0  0  0  0
   24.4424  -19.6554  -18.6641 N   0  0  0  0  0  0  0  0  0  0  0  0
   24.3815  -20.9032  -16.6545 C   0  0  0  0  0  0  0  0  0  0  0  0
   24.5982  -19.7744  -16.1191 O   0  0  0  0  0  0  0  0  0  0  0  0
   27.7785  -25.4718  -19.8783 N   0  0  0  0  0  0  0  0  0  0  0  0
   21.1505  -24.3577  -15.7187 C   0  0  0  0  0  0  0  0  0  0  0  0
   21.3991  -23.1202  -15.0388 O   0  0  0  0  0  0  0  0  0  0  0  0
   20.5721  -22.1954  -15.2342 C   0  0  0  0  0  0  0  0  0  0  0  0
   22.5394  -22.9070  -14.1590 C   0  0  2  0  0  0  0  0  0  0  0  0
   23.4772  -21.7987  -14.5471 N   0  0  0  0  0  0  0  0  0  0  0  0
   23.9242  -22.0081  -15.9011 C   0  0  0  0  0  0  0  0  0  0  0  0
   24.6290  -21.8259  -13.5861 O   0  0  0  0  0  0  0  0  0  0  0  0
   25.6321  -22.5028  -13.8929 N   0  0  0  0  0  0  0  0  0  0  0  0
   24.6247  -21.1263  -12.3591 C   0  0  1  0  0  0  0  0  0  0  0  0
   25.7306  -21.0445  -11.4260 C   0  0  0  0  0  0  0  0  0  0  0  0
   27.0285  -20.8339  -12.0962 C   0  0  0  0  0  0  0  0  0  0  0  0
   27.0758  -19.5728  -12.8491 C   0  0  0  0  0  0  0  0  0  0  0  0
   26.4583  -18.3699  -12.5751 N   0  0  0  0  0  0  0  0  0  0  0  0
   26.7536  -17.4875  -13.5582 C   0  0  0  0  0  0  0  0  0  0  0  0
   27.5443  -18.0828  -14.4604 C   0  0  0  0  0  0  0  0  0  0  0  0
   28.1579  -17.6642  -15.6451 C   0  0  0  0  0  0  0  0  0  0  0  0
   28.9601  -18.4986  -16.3941 C   0  0  0  0  0  0  0  0  0  0  0  0
   29.1586  -19.7875  -15.9530 C   0  0  0  0  0  0  0  0  0  0  0  0
   28.5557  -20.2180  -14.7795 C   0  0  0  0  0  0  0  0  0  0  0  0
   27.7592  -19.3705  -14.0478 C   0  0  0  0  0  0  0  0  0  0  0  0
   25.4729  -20.3181  -10.1904 O   0  0  0  0  0  0  0  0  0  0  0  0
   24.3686  -19.5298   -9.9151 O   0  0  0  0  0  0  0  0  0  0  0  0
  1  2  1  0
  2  3  2  0
  4  2  1  0
  5  4  1  0
  6  5  1  0
  7  6  1  0
  8  9  1  1
  8  7  1  0
 10  8  1  0
 11 10  2  0
 13 15  1  0
 13 12  1  0
 14 13  2  0
 16 15  1  6
 16 17  1  0
 17 10  1  0
 18 16  1  0
 18 19  2  0
 20 18  1  0
 21 20  1  0
 21 22  1  1
 23 22  1  0
 23 31  1  0
 24 25  1  0
 24 23  2  0
 25 26  1  0
 26 31  2  0
 26 27  1  0
 27 28  2  0
 28 29  1  0
 30 29  2  0
 31 30  1  0
 32 21  1  0
 33 32  1  0
 34 32  2  0
M  END
$$$$
