RNW.pdb
     RDKit          3D

 34 35  0  0  1  0  0  0  0  0999 V2000
   28.7995  -18.3980  -19.9127 N   0  0  0  0  0  0  0  0  0  0  0  0
   29.9741  -17.5905  -19.7725 C   0  0  0  0  0  0  0  0  0  0  0  0
   30.4918  -16.9967  -20.8032 N   0  0  0  0  0  0  0  0  0  0  0  0
   30.5781  -17.4392  -18.4994 N   0  0  0  0  0  0  0  0  0  0  0  0
   30.1534  -18.2484  -17.3422 C   0  0  0  0  0  0  0  0  0  0  0  0
   29.1389  -17.4206  -16.6151 C   0  0  0  0  0  0  0  0  0  0  0  0
   28.6283  -18.1064  -15.4089 C   0  0  0  0  0  0  0  0  0  0  0  0
   27.6756  -19.2282  -15.5931 C   0  0  2  0  0  0  0  0  0  0  0  0
   26.9726  -19.3017  -16.8281 N   0  0  0  0  0  0  0  0  0  0  0  0
   26.6573  -19.1509  -14.4878 C   0  0  0  0  0  0  0  0  0  0  0  0
   26.2686  -17.9771  -14.2069 O   0  0  0  0  0  0  0  0  0  0  0  0
   31.3037  -16.3863  -20.7480 N   0  0  0  0  0  0  0  0  0  0  0  0
   22.9575  -19.6902  -10.9428 C   0  0  0  0  0  0  0  0  0  0  0  0
   22.7455  -20.1312  -12.2903 O   0  0  0  0  0  0  0  0  0  0  0  0
   21.5553  -20.3402  -12.6328 C   0  0  0  0  0  0  0  0  0  0  0  0
   23.8271  -20.3378  -13.2430 C   0  0  2  0  0  0  0  0  0  0  0  0
   25.2181  -20.0961  -12.7283 N   0  0  0  0  0  0  0  0  0  0  0  0
   26.1604  -20.2827  -13.8027 C   0  0  0  0  0  0  0  0  0  0  0  0
   25.4633  -21.0737  -11.6168 O   0  0  0  0  0  0  0  0  0  0  0  0
   24.7316  -22.0831  -11.5524 N   0  0  0  0  0  0  0  0  0  0  0  0
   26.4764  -20.8999  -10.6481 C   0  0  1  0  0  0  0  0  0  0  0  0
   26.3197  -21.0708   -9.2175 C   0  0  0  0  0  0  0  0  0  0  0  0
   27.4386  -20.4932   -8.4478 C   0  0  0  0  0  0  0  0  0  0  0  0
   27.3254  -20.7550   -7.0063 C   0  0  0  0  0  0  0  0  0  0  0  0
   26.5312  -21.6694   -6.3458 N   0  0  0  0  0  0  0  0  0  0  0  0
   26.7255  -21.5417   -5.0122 C   0  0  0  0  0  0  0  0  0  0  0  0
   27.6223  -20.5722   -4.7894 C   0  0  0  0  0  0  0  0  0  0  0  0
   28.2051  -20.0296   -3.6401 C   0  0  0  0  0  0  0  0  0  0  0  0
   29.1431  -19.0207   -3.6957 C   0  0  0  0  0  0  0  0  0  0  0  0
   29.5132  -18.5365   -4.9301 C   0  0  0  0  0  0  0  0  0  0  0  0
   28.9430  -19.0643   -6.0800 C   0  0  0  0  0  0  0  0  0  0  0  0
   28.0092  -20.0693   -6.0027 C   0  0  0  0  0  0  0  0  0  0  0  0
   24.9706  -20.8994   -8.6967 O   0  0  0  0  0  0  0  0  0  0  0  0
   24.2324  -21.8408   -8.0000 O   0  0  0  0  0  0  0  0  0  0  0  0
  1  2  1  0
  2  3  2  0
  4  2  1  0
  5  4  1  0
  6  5  1  0
  7  6  1  0
  8  9  1  6
  8  7  1  0
 10  8  1  0
 11 10  2  0
 13 15  1  0
 13 12  1  0
 14 13  2  0
 16 15  1  6
 16 17  1  0
 17 10  1  0
 18 16  1  0
 18 19  2  0
 20 18  1  0
 21 20  1  0
 21 22  1  1
 23 22  1  0
 23 31  1  0
 24 25  1  0
 24 23  2  0
 25 26  1  0
 26 31  2  0
 26 27  1  0
 27 28  2  0
 28 29  1  0
 30 29  2  0
 31 30  1  0
 32 21  1  0
 33 32  1  0
 34 32  2  0
M  END
$$$$
