RNW.pdb
     RDKit          3D

 34 35  0  0  1  0  0  0  0  0999 V2000
   26.5838  -25.6171  -21.2283 N   0  0  0  0  0  0  0  0  0  0  0  0
   26.0683  -25.5099  -19.8963 C   0  0  0  0  0  0  0  0  0  0  0  0
   25.2875  -26.4280  -19.4166 N   0  0  0  0  0  0  0  0  0  0  0  0
   26.4112  -24.3921  -19.0953 N   0  0  0  0  0  0  0  0  0  0  0  0
   25.9431  -24.2674  -17.7026 C   0  0  0  0  0  0  0  0  0  0  0  0
   25.4586  -22.8575  -17.5591 C   0  0  0  0  0  0  0  0  0  0  0  0
   26.5774  -21.8935  -17.4883 C   0  0  0  0  0  0  0  0  0  0  0  0
   27.2993  -21.7536  -16.2001 C   0  0  2  0  0  0  0  0  0  0  0  0
   27.7932  -22.9393  -15.5876 N   0  0  0  0  0  0  0  0  0  0  0  0
   26.3699  -21.0842  -15.2241 C   0  0  0  0  0  0  0  0  0  0  0  0
   25.8945  -19.9772  -15.6194 O   0  0  0  0  0  0  0  0  0  0  0  0
   24.8420  -26.3630  -18.5043 N   0  0  0  0  0  0  0  0  0  0  0  0
   22.2018  -19.3295  -12.6692 C   0  0  0  0  0  0  0  0  0  0  0  0
   22.7692  -20.6286  -12.4552 O   0  0  0  0  0  0  0  0  0  0  0  0
   22.3734  -21.2548  -11.4410 C   0  0  0  0  0  0  0  0  0  0  0  0
   23.7554  -21.2261  -13.3442 C   0  0  1  0  0  0  0  0  0  0  0  0
   25.1909  -20.8738  -13.0732 N   0  0  0  0  0  0  0  0  0  0  0  0
   26.0399  -21.6269  -13.9616 C   0  0  0  0  0  0  0  0  0  0  0  0
   25.4741  -21.2101  -11.6387 O   0  0  0  0  0  0  0  0  0  0  0  0
   25.3360  -22.3970  -11.2770 N   0  0  0  0  0  0  0  0  0  0  0  0
   25.8843  -20.2485  -10.6889 C   0  0  1  0  0  0  0  0  0  0  0  0
   26.1712  -20.5056   -9.2918 C   0  0  0  0  0  0  0  0  0  0  0  0
   27.1659  -19.5702   -8.7320 C   0  0  0  0  0  0  0  0  0  0  0  0
   28.2465  -20.2600   -8.0138 C   0  0  0  0  0  0  0  0  0  0  0  0
   29.0756  -21.2728   -8.4499 N   0  0  0  0  0  0  0  0  0  0  0  0
   29.9059  -21.6292   -7.4418 C   0  0  0  0  0  0  0  0  0  0  0  0
   29.6395  -20.8771   -6.3662 C   0  0  0  0  0  0  0  0  0  0  0  0
   30.1766  -20.7948   -5.0778 C   0  0  0  0  0  0  0  0  0  0  0  0
   29.7153  -19.8919   -4.1435 C   0  0  0  0  0  0  0  0  0  0  0  0
   28.6897  -19.0456   -4.5000 C   0  0  0  0  0  0  0  0  0  0  0  0
   28.1456  -19.1158   -5.7748 C   0  0  0  0  0  0  0  0  0  0  0  0
   28.6196  -20.0234   -6.6910 C   0  0  0  0  0  0  0  0  0  0  0  0
   25.0319  -20.8705   -8.4613 O   0  0  0  0  0  0  0  0  0  0  0  0
   24.9904  -21.8880   -7.5234 O   0  0  0  0  0  0  0  0  0  0  0  0
  1  2  1  0
  2  3  2  0
  4  2  1  0
  5  4  1  0
  6  5  1  0
  7  6  1  0
  8  9  1  1
  8  7  1  0
 10  8  1  0
 11 10  2  0
 13 15  1  0
 13 12  1  0
 14 13  2  0
 16 15  1  6
 16 17  1  0
 17 10  1  0
 18 16  1  0
 18 19  2  0
 20 18  1  0
 21 20  1  0
 21 22  1  1
 23 22  1  0
 23 31  1  0
 24 25  1  0
 24 23  2  0
 25 26  1  0
 26 31  2  0
 26 27  1  0
 27 28  2  0
 28 29  1  0
 30 29  2  0
 31 30  1  0
 32 21  1  0
 33 32  1  0
 34 32  2  0
M  END
$$$$
