KRF.pdb
     RDKit          3D

 32 32  0  0  1  0  0  0  0  0999 V2000
    7.4309  -20.8431   22.0907 N   0  0  0  0  0  0  0  0  0  0  0  0
    7.1180  -19.8304   23.0466 C   0  0  1  0  0  0  0  0  0  0  0  0
    7.3725  -20.2215   24.4536 C   0  0  0  0  0  0  0  0  0  0  0  0
    6.8121  -21.5558   24.7877 C   0  0  0  0  0  0  0  0  0  0  0  0
    7.0604  -22.0645   26.1672 C   0  0  0  0  0  0  0  0  0  0  0  0
    6.5142  -23.5103   26.3012 C   0  0  0  0  0  0  0  0  0  0  0  0
    6.8641  -23.9039   27.6683 N   0  0  0  0  0  0  0  0  0  0  0  0
    7.8565  -18.5795   22.6664 C   0  0  0  0  0  0  0  0  0  0  0  0
    9.0200  -18.7337   22.1913 O   0  0  0  0  0  0  0  0  0  0  0  0
    8.7320  -12.0163   17.9809 N   0  0  0  0  0  0  0  0  0  0  0  0
    8.4970  -13.4250   18.0257 C   0  0  0  0  0  0  0  0  0  0  0  0
    8.9520  -14.2093   17.0989 N   0  0  0  0  0  0  0  0  0  0  0  0
    7.7580  -14.0189   19.0842 N   0  0  0  0  0  0  0  0  0  0  0  0
    7.3261  -13.2659   20.2253 C   0  0  0  0  0  0  0  0  0  0  0  0
    7.8673  -13.7952   21.5457 C   0  0  0  0  0  0  0  0  0  0  0  0
    7.1737  -15.0595   21.9394 C   0  0  0  0  0  0  0  0  0  0  0  0
    8.0454  -16.1220   22.5117 C   0  0  2  0  0  0  0  0  0  0  0  0
    7.2719  -17.3090   22.8354 N   0  0  0  0  0  0  0  0  0  0  0  0
    8.7954  -15.6407   23.6893 C   0  0  0  0  0  0  0  0  0  0  0  0
    9.6052  -14.6906   23.5886 O   0  0  0  0  0  0  0  0  0  0  0  0
    8.7508  -15.2249   17.1948 N   0  0  0  0  0  0  0  0  0  0  0  0
    8.6464  -16.2112   24.9697 C   0  0  1  0  0  0  0  0  0  0  0  0
    9.3399  -15.6550   26.1127 C   0  0  0  0  0  0  0  0  0  0  0  0
    8.4099  -15.2393   27.1940 C   0  0  0  0  0  0  0  0  0  0  0  0
    7.5909  -14.0905   26.7738 C   0  0  0  0  0  0  0  0  0  0  0  0
    8.2270  -12.8677   26.6629 C   0  0  0  0  0  0  0  0  0  0  0  0
    7.4890  -11.7873   26.2422 C   0  0  0  0  0  0  0  0  0  0  0  0
    6.1515  -11.8996   25.9350 C   0  0  0  0  0  0  0  0  0  0  0  0
    5.4879  -13.1160   26.0375 C   0  0  0  0  0  0  0  0  0  0  0  0
    6.2507  -14.1831   26.4611 C   0  0  0  0  0  0  0  0  0  0  0  0
   10.2627  -16.6952   26.5946 O   0  0  0  0  0  0  0  0  0  0  0  0
   11.1179  -16.4495   27.6494 O   0  0  0  0  0  0  0  0  0  0  0  0
  2  3  1  0
  2  1  1  6
  4  3  1  0
  5  6  1  0
  5  4  1  0
  7  6  1  0
  8  2  1  0
  9  8  2  0
 10 11  1  0
 11 13  1  0
 11 12  2  0
 13 14  1  0
 14 15  1  0
 15 16  1  0
 17 16  1  1
 17 19  1  0
 17 18  1  0
 18  8  1  0
 19 21  1  0
 20 19  2  0
 21 22  1  0
 22 23  1  1
 23 24  1  0
 24 29  2  0
 25 24  1  0
 25 26  2  0
 26 27  1  0
 27 28  2  0
 29 28  1  0
 30 31  1  0
 30 22  1  0
 32 30  2  0
M  END
$$$$
