KRF.pdb
     RDKit          3D

 32 32  0  0  1  0  0  0  0  0999 V2000
    5.5998  -16.9462   20.4862 N   0  0  0  0  0  0  0  0  0  0  0  0
    6.9047  -17.1543   21.0261 C   0  0  1  0  0  0  0  0  0  0  0  0
    7.9454  -16.2600   20.4653 C   0  0  0  0  0  0  0  0  0  0  0  0
    7.3818  -15.0043   19.9073 C   0  0  0  0  0  0  0  0  0  0  0  0
    8.3295  -14.0972   19.1983 C   0  0  0  0  0  0  0  0  0  0  0  0
    7.5823  -12.8240   18.7215 C   0  0  0  0  0  0  0  0  0  0  0  0
    8.5623  -12.1190   17.8916 N   0  0  0  0  0  0  0  0  0  0  0  0
    6.8177  -17.0507   22.5215 C   0  0  0  0  0  0  0  0  0  0  0  0
    6.0992  -16.1150   22.9813 O   0  0  0  0  0  0  0  0  0  0  0  0
    6.3535  -23.5668   22.7384 N   0  0  0  0  0  0  0  0  0  0  0  0
    7.0775  -23.3611   23.9529 C   0  0  0  0  0  0  0  0  0  0  0  0
    7.9193  -24.2459   24.3884 N   0  0  0  0  0  0  0  0  0  0  0  0
    6.9035  -22.1828   24.7280 N   0  0  0  0  0  0  0  0  0  0  0  0
    6.0816  -21.0954   24.2835 C   0  0  0  0  0  0  0  0  0  0  0  0
    5.9826  -19.9557   25.2874 C   0  0  0  0  0  0  0  0  0  0  0  0
    7.2849  -19.2308   25.4033 C   0  0  0  0  0  0  0  0  0  0  0  0
    7.3233  -17.8727   24.7947 C   0  0  2  0  0  0  0  0  0  0  0  0
    7.5052  -17.9545   23.3552 N   0  0  0  0  0  0  0  0  0  0  0  0
    8.3619  -17.0241   25.4127 C   0  0  0  0  0  0  0  0  0  0  0  0
    9.4713  -16.8606   24.8548 O   0  0  0  0  0  0  0  0  0  0  0  0
    8.4335  -24.0222   25.2640 N   0  0  0  0  0  0  0  0  0  0  0  0
    8.1691  -16.3618   26.6420 C   0  0  2  0  0  0  0  0  0  0  0  0
    9.2330  -15.5790   27.2356 C   0  0  0  0  0  0  0  0  0  0  0  0
    8.7214  -14.4094   27.9953 C   0  0  0  0  0  0  0  0  0  0  0  0
    7.9131  -13.5318   27.1331 C   0  0  0  0  0  0  0  0  0  0  0  0
    8.5330  -12.9949   26.0196 C   0  0  0  0  0  0  0  0  0  0  0  0
    7.7890  -12.1975   25.1832 C   0  0  0  0  0  0  0  0  0  0  0  0
    6.4614  -11.9289   25.4305 C   0  0  0  0  0  0  0  0  0  0  0  0
    5.8141  -12.4553   26.5416 C   0  0  0  0  0  0  0  0  0  0  0  0
    6.5824  -13.2515   27.3636 C   0  0  0  0  0  0  0  0  0  0  0  0
    9.9809  -16.4853   28.1216 O   0  0  0  0  0  0  0  0  0  0  0  0
   11.1660  -16.0863   28.7054 O   0  0  0  0  0  0  0  0  0  0  0  0
  2  3  1  0
  2  1  1  6
  4  3  1  0
  5  6  1  0
  5  4  1  0
  7  6  1  0
  8  2  1  0
  9  8  2  0
 10 11  1  0
 11 13  1  0
 11 12  2  0
 13 14  1  0
 14 15  1  0
 15 16  1  0
 17 16  1  1
 17 19  1  0
 17 18  1  0
 18  8  1  0
 19 21  1  0
 20 19  2  0
 21 22  1  0
 22 23  1  6
 23 24  1  0
 24 29  2  0
 25 24  1  0
 25 26  2  0
 26 27  1  0
 27 28  2  0
 29 28  1  0
 30 31  1  0
 30 22  1  0
 32 30  2  0
M  END
$$$$
