KRF.pdb
     RDKit          3D

 32 32  0  0  1  0  0  0  0  0999 V2000
    8.1257  -17.1415   16.8672 N   0  0  0  0  0  0  0  0  0  0  0  0
    8.6129  -16.1709   17.7935 C   0  0  1  0  0  0  0  0  0  0  0  0
    8.0686  -14.8072   17.5893 C   0  0  0  0  0  0  0  0  0  0  0  0
    7.8816  -14.4739   16.1541 C   0  0  0  0  0  0  0  0  0  0  0  0
    8.8967  -13.5751   15.5335 C   0  0  0  0  0  0  0  0  0  0  0  0
    8.3682  -13.0428   14.1755 C   0  0  0  0  0  0  0  0  0  0  0  0
    9.5071  -13.1820   13.2645 N   0  0  0  0  0  0  0  0  0  0  0  0
    8.3587  -16.6775   19.1839 C   0  0  0  0  0  0  0  0  0  0  0  0
    7.1505  -16.7064   19.5617 O   0  0  0  0  0  0  0  0  0  0  0  0
   13.7831  -18.8838   22.4163 N   0  0  0  0  0  0  0  0  0  0  0  0
   13.6209  -19.5514   23.6691 C   0  0  0  0  0  0  0  0  0  0  0  0
   14.5749  -19.5686   24.5469 N   0  0  0  0  0  0  0  0  0  0  0  0
   12.4116  -20.2201   24.0004 N   0  0  0  0  0  0  0  0  0  0  0  0
   11.3162  -20.3101   23.0797 C   0  0  0  0  0  0  0  0  0  0  0  0
   10.5434  -19.0085   22.9220 C   0  0  0  0  0  0  0  0  0  0  0  0
    9.9746  -18.8879   21.5448 C   0  0  0  0  0  0  0  0  0  0  0  0
    9.1202  -17.6931   21.3023 C   0  0  2  0  0  0  0  0  0  0  0  0
    9.4191  -17.0950   20.0120 N   0  0  0  0  0  0  0  0  0  0  0  0
    9.2450  -16.7002   22.3883 C   0  0  0  0  0  0  0  0  0  0  0  0
   10.3110  -16.0644   22.5556 O   0  0  0  0  0  0  0  0  0  0  0  0
   14.4146  -20.1221   25.4123 N   0  0  0  0  0  0  0  0  0  0  0  0
    8.1926  -16.4159   23.2819 C   0  0  1  0  0  0  0  0  0  0  0  0
    8.2975  -15.3213   24.2242 C   0  0  0  0  0  0  0  0  0  0  0  0
    7.0659  -14.4919   24.2705 C   0  0  0  0  0  0  0  0  0  0  0  0
    7.1652  -13.4561   25.3118 C   0  0  0  0  0  0  0  0  0  0  0  0
    6.0044  -13.1252   25.9867 C   0  0  0  0  0  0  0  0  0  0  0  0
    6.0793  -12.1830   26.9843 C   0  0  0  0  0  0  0  0  0  0  0  0
    7.2684  -11.5737   27.3171 C   0  0  0  0  0  0  0  0  0  0  0  0
    8.4492  -11.8875   26.6552 C   0  0  0  0  0  0  0  0  0  0  0  0
    8.3466  -12.8353   25.6597 C   0  0  0  0  0  0  0  0  0  0  0  0
    8.5678  -15.9211   25.5407 O   0  0  0  0  0  0  0  0  0  0  0  0
    9.6532  -15.5195   26.2922 O   0  0  0  0  0  0  0  0  0  0  0  0
  2  3  1  0
  2  1  1  6
  4  3  1  0
  5  6  1  0
  5  4  1  0
  7  6  1  0
  8  2  1  0
  9  8  2  0
 10 11  1  0
 11 13  1  0
 11 12  2  0
 13 14  1  0
 14 15  1  0
 15 16  1  0
 17 16  1  1
 17 19  1  0
 17 18  1  0
 18  8  1  0
 19 21  1  0
 20 19  2  0
 21 22  1  0
 22 23  1  1
 23 24  1  0
 24 29  2  0
 25 24  1  0
 25 26  2  0
 26 27  1  0
 27 28  2  0
 29 28  1  0
 30 31  1  0
 30 22  1  0
 32 30  2  0
M  END
$$$$
