KRF.pdb
     RDKit          3D

 32 32  0  0  1  0  0  0  0  0999 V2000
    6.6637  -20.9047   22.2402 N   0  0  0  0  0  0  0  0  0  0  0  0
    6.1368  -19.7109   22.8188 C   0  0  1  0  0  0  0  0  0  0  0  0
    5.7272  -19.8506   24.2366 C   0  0  0  0  0  0  0  0  0  0  0  0
    6.7779  -20.4793   25.0772 C   0  0  0  0  0  0  0  0  0  0  0  0
    6.5039  -20.5729   26.5399 C   0  0  0  0  0  0  0  0  0  0  0  0
    7.6872  -21.2785   27.2531 C   0  0  0  0  0  0  0  0  0  0  0  0
    7.2921  -21.3109   28.6634 N   0  0  0  0  0  0  0  0  0  0  0  0
    7.1416  -18.6116   22.6275 C   0  0  0  0  0  0  0  0  0  0  0  0
    8.3599  -18.9565   22.6168 O   0  0  0  0  0  0  0  0  0  0  0  0
    9.8295  -13.5497   17.7687 N   0  0  0  0  0  0  0  0  0  0  0  0
    8.4055  -13.4581   17.6946 C   0  0  0  0  0  0  0  0  0  0  0  0
    7.8124  -13.1310   16.5889 N   0  0  0  0  0  0  0  0  0  0  0  0
    7.5869  -13.7211   18.8259 N   0  0  0  0  0  0  0  0  0  0  0  0
    7.8486  -13.1320   20.1067 C   0  0  0  0  0  0  0  0  0  0  0  0
    8.3604  -14.1241   21.1412 C   0  0  0  0  0  0  0  0  0  0  0  0
    7.3190  -15.1475   21.4615 C   0  0  0  0  0  0  0  0  0  0  0  0
    7.7416  -16.2273   22.3952 C   0  0  2  0  0  0  0  0  0  0  0  0
    6.7344  -17.2723   22.4696 N   0  0  0  0  0  0  0  0  0  0  0  0
    8.0572  -15.6989   23.7376 C   0  0  0  0  0  0  0  0  0  0  0  0
    7.5318  -14.6389   24.1487 O   0  0  0  0  0  0  0  0  0  0  0  0
    6.7731  -13.1075   16.5961 N   0  0  0  0  0  0  0  0  0  0  0  0
    8.9502  -16.3441   24.6170 C   0  0  1  0  0  0  0  0  0  0  0  0
    9.6880  -15.5886   25.6080 C   0  0  0  0  0  0  0  0  0  0  0  0
    8.8977  -15.3482   26.8428 C   0  0  0  0  0  0  0  0  0  0  0  0
    7.9460  -14.2412   26.6538 C   0  0  0  0  0  0  0  0  0  0  0  0
    8.4547  -12.9560   26.6982 C   0  0  0  0  0  0  0  0  0  0  0  0
    7.5898  -11.9077   26.4935 C   0  0  0  0  0  0  0  0  0  0  0  0
    6.2501  -12.1114   26.2496 C   0  0  0  0  0  0  0  0  0  0  0  0
    5.7129  -13.3919   26.1997 C   0  0  0  0  0  0  0  0  0  0  0  0
    6.6014  -14.4249   26.4078 C   0  0  0  0  0  0  0  0  0  0  0  0
   10.9019  -16.3629   25.9125 O   0  0  0  0  0  0  0  0  0  0  0  0
   11.8200  -15.9061   26.8359 O   0  0  0  0  0  0  0  0  0  0  0  0
  2  3  1  0
  2  1  1  1
  4  3  1  0
  5  6  1  0
  5  4  1  0
  7  6  1  0
  8  2  1  0
  9  8  2  0
 10 11  1  0
 11 13  1  0
 11 12  2  0
 13 14  1  0
 14 15  1  0
 15 16  1  0
 17 16  1  6
 17 19  1  0
 17 18  1  0
 18  8  1  0
 19 21  1  0
 20 19  2  0
 21 22  1  0
 22 23  1  1
 23 24  1  0
 24 29  2  0
 25 24  1  0
 25 26  2  0
 26 27  1  0
 27 28  2  0
 29 28  1  0
 30 31  1  0
 30 22  1  0
 32 30  2  0
M  END
$$$$
