KRF.pdb
     RDKit          3D

 32 32  0  0  1  0  0  0  0  0999 V2000
    5.1801  -19.3527   23.3047 N   0  0  0  0  0  0  0  0  0  0  0  0
    6.5527  -19.6255   23.5855 C   0  0  1  0  0  0  0  0  0  0  0  0
    7.0279  -20.9371   23.0841 C   0  0  0  0  0  0  0  0  0  0  0  0
    5.9167  -21.8191   22.6445 C   0  0  0  0  0  0  0  0  0  0  0  0
    6.2854  -23.1891   22.1856 C   0  0  0  0  0  0  0  0  0  0  0  0
    5.0191  -23.9377   21.6929 C   0  0  0  0  0  0  0  0  0  0  0  0
    5.5138  -25.2544   21.2832 N   0  0  0  0  0  0  0  0  0  0  0  0
    7.3769  -18.4872   23.0569 C   0  0  0  0  0  0  0  0  0  0  0  0
    8.6155  -18.7069   22.9124 O   0  0  0  0  0  0  0  0  0  0  0  0
    7.7518  -14.0580   17.3666 N   0  0  0  0  0  0  0  0  0  0  0  0
    8.4252  -13.4522   18.4717 C   0  0  0  0  0  0  0  0  0  0  0  0
    8.2825  -12.1901   18.7324 N   0  0  0  0  0  0  0  0  0  0  0  0
    9.2746  -14.2070   19.3250 N   0  0  0  0  0  0  0  0  0  0  0  0
    9.1186  -14.2018   20.7503 C   0  0  0  0  0  0  0  0  0  0  0  0
    7.6976  -13.9047   21.2072 C   0  0  0  0  0  0  0  0  0  0  0  0
    6.9575  -15.1684   21.5077 C   0  0  0  0  0  0  0  0  0  0  0  0
    7.6429  -16.1127   22.4323 C   0  0  2  0  0  0  0  0  0  0  0  0
    6.7884  -17.2464   22.7430 N   0  0  0  0  0  0  0  0  0  0  0  0
    8.0989  -15.4393   23.6650 C   0  0  0  0  0  0  0  0  0  0  0  0
    7.6717  -14.3019   23.9693 O   0  0  0  0  0  0  0  0  0  0  0  0
    8.7121  -11.8345   19.6098 N   0  0  0  0  0  0  0  0  0  0  0  0
    9.0231  -16.0257   24.5532 C   0  0  1  0  0  0  0  0  0  0  0  0
    9.2213  -15.4814   25.8805 C   0  0  0  0  0  0  0  0  0  0  0  0
    7.9730  -15.4802   26.6858 C   0  0  0  0  0  0  0  0  0  0  0  0
    7.2871  -14.1808   26.5953 C   0  0  0  0  0  0  0  0  0  0  0  0
    8.0613  -13.0455   26.7501 C   0  0  0  0  0  0  0  0  0  0  0  0
    7.4477  -11.8208   26.6387 C   0  0  0  0  0  0  0  0  0  0  0  0
    6.1001  -11.7069   26.3804 C   0  0  0  0  0  0  0  0  0  0  0  0
    5.2992  -12.8311   26.2205 C   0  0  0  0  0  0  0  0  0  0  0  0
    5.9390  -14.0464   26.3367 C   0  0  0  0  0  0  0  0  0  0  0  0
   10.2537  -16.3077   26.5264 O   0  0  0  0  0  0  0  0  0  0  0  0
   10.7900  -15.9457   27.7453 O   0  0  0  0  0  0  0  0  0  0  0  0
  2  3  1  0
  2  1  1  6
  4  3  1  0
  5  6  1  0
  5  4  1  0
  7  6  1  0
  8  2  1  0
  9  8  2  0
 10 11  1  0
 11 13  1  0
 11 12  2  0
 13 14  1  0
 14 15  1  0
 15 16  1  0
 17 16  1  6
 17 19  1  0
 17 18  1  0
 18  8  1  0
 19 21  1  0
 20 19  2  0
 21 22  1  0
 22 23  1  1
 23 24  1  0
 24 29  2  0
 25 24  1  0
 25 26  2  0
 26 27  1  0
 27 28  2  0
 29 28  1  0
 30 31  1  0
 30 22  1  0
 32 30  2  0
M  END
$$$$
