KRF.pdb
     RDKit          3D

 32 32  0  0  1  0  0  0  0  0999 V2000
    4.6728  -18.4245   22.1143 N   0  0  0  0  0  0  0  0  0  0  0  0
    5.2137  -19.0327   23.2869 C   0  0  1  0  0  0  0  0  0  0  0  0
    5.1516  -20.5138   23.2886 C   0  0  0  0  0  0  0  0  0  0  0  0
    4.8266  -21.0751   21.9525 C   0  0  0  0  0  0  0  0  0  0  0  0
    3.4404  -21.5885   21.7565 C   0  0  0  0  0  0  0  0  0  0  0  0
    3.3135  -22.2392   20.3540 C   0  0  0  0  0  0  0  0  0  0  0  0
    1.8891  -22.5591   20.2312 N   0  0  0  0  0  0  0  0  0  0  0  0
    6.6146  -18.5266   23.4766 C   0  0  0  0  0  0  0  0  0  0  0  0
    7.1881  -18.8461   24.5593 O   0  0  0  0  0  0  0  0  0  0  0  0
    7.5539  -14.6340   17.6009 N   0  0  0  0  0  0  0  0  0  0  0  0
    7.9238  -13.4244   18.2653 C   0  0  0  0  0  0  0  0  0  0  0  0
    7.5842  -12.2676   17.7880 N   0  0  0  0  0  0  0  0  0  0  0  0
    8.6756  -13.4421   19.4710 N   0  0  0  0  0  0  0  0  0  0  0  0
    9.2786  -14.6423   19.9729 C   0  0  0  0  0  0  0  0  0  0  0  0
    8.4429  -15.3482   21.0311 C   0  0  0  0  0  0  0  0  0  0  0  0
    9.1386  -16.5727   21.5324 C   0  0  0  0  0  0  0  0  0  0  0  0
    8.5608  -17.1857   22.7599 C   0  0  2  0  0  0  0  0  0  0  0  0
    7.2437  -17.7389   22.4926 N   0  0  0  0  0  0  0  0  0  0  0  0
    8.5151  -16.2271   23.8822 C   0  0  0  0  0  0  0  0  0  0  0  0
    7.6367  -15.3354   23.9278 O   0  0  0  0  0  0  0  0  0  0  0  0
    7.9554  -11.4260   18.2726 N   0  0  0  0  0  0  0  0  0  0  0  0
    9.4389  -16.2592   24.9465 C   0  0  2  0  0  0  0  0  0  0  0  0
    9.0600  -15.8071   26.2690 C   0  0  0  0  0  0  0  0  0  0  0  0
    7.6293  -15.4145   26.3465 C   0  0  0  0  0  0  0  0  0  0  0  0
    7.4767  -13.9532   26.2554 C   0  0  0  0  0  0  0  0  0  0  0  0
    6.1987  -13.4417   26.3877 C   0  0  0  0  0  0  0  0  0  0  0  0
    6.0364  -12.0780   26.3370 C   0  0  0  0  0  0  0  0  0  0  0  0
    7.1048  -11.2278   26.1599 C   0  0  0  0  0  0  0  0  0  0  0  0
    8.3991  -11.7149   26.0244 C   0  0  0  0  0  0  0  0  0  0  0  0
    8.5342  -13.0855   26.0791 C   0  0  0  0  0  0  0  0  0  0  0  0
    9.3432  -16.9173   27.1926 O   0  0  0  0  0  0  0  0  0  0  0  0
    9.8654  -18.1078   26.7295 O   0  0  0  0  0  0  0  0  0  0  0  0
  2  3  1  0
  2  1  1  6
  4  3  1  0
  5  6  1  0
  5  4  1  0
  7  6  1  0
  8  2  1  0
  9  8  2  0
 10 11  1  0
 11 13  1  0
 11 12  2  0
 13 14  1  0
 14 15  1  0
 15 16  1  0
 17 16  1  6
 17 19  1  0
 17 18  1  0
 18  8  1  0
 19 21  1  0
 20 19  2  0
 21 22  1  0
 22 23  1  6
 23 24  1  0
 24 29  2  0
 25 24  1  0
 25 26  2  0
 26 27  1  0
 27 28  2  0
 29 28  1  0
 30 31  1  0
 30 22  1  0
 32 30  2  0
M  END
$$$$
