KRF.pdb
     RDKit          3D

 32 32  0  0  1  0  0  0  0  0999 V2000
    9.7489  -14.8309   18.1134 N   0  0  0  0  0  0  0  0  0  0  0  0
    8.7475  -14.3636   19.0170 C   0  0  1  0  0  0  0  0  0  0  0  0
    7.3732  -14.3744   18.4615 C   0  0  0  0  0  0  0  0  0  0  0  0
    7.2913  -13.7367   17.1227 C   0  0  0  0  0  0  0  0  0  0  0  0
    7.8325  -14.5148   15.9716 C   0  0  0  0  0  0  0  0  0  0  0  0
    7.7134  -13.6800   14.6694 C   0  0  0  0  0  0  0  0  0  0  0  0
    8.4127  -14.4806   13.6613 N   0  0  0  0  0  0  0  0  0  0  0  0
    8.8494  -15.1600   20.2858 C   0  0  0  0  0  0  0  0  0  0  0  0
    7.8937  -15.0371   21.1073 O   0  0  0  0  0  0  0  0  0  0  0  0
   12.1378  -19.2451   18.0143 N   0  0  0  0  0  0  0  0  0  0  0  0
   12.3150  -20.5382   18.5956 C   0  0  0  0  0  0  0  0  0  0  0  0
   12.2452  -21.6124   17.8728 N   0  0  0  0  0  0  0  0  0  0  0  0
   12.5737  -20.6967   19.9839 N   0  0  0  0  0  0  0  0  0  0  0  0
   12.4979  -19.5974   20.9013 C   0  0  0  0  0  0  0  0  0  0  0  0
   11.1839  -18.8327   20.8297 C   0  0  0  0  0  0  0  0  0  0  0  0
   11.1874  -17.6742   21.7744 C   0  0  0  0  0  0  0  0  0  0  0  0
    9.9765  -16.8090   21.7383 C   0  0  2  0  0  0  0  0  0  0  0  0
    9.9564  -15.9951   20.5344 N   0  0  0  0  0  0  0  0  0  0  0  0
    9.8665  -15.9689   22.9478 C   0  0  0  0  0  0  0  0  0  0  0  0
   10.7274  -15.0952   23.2015 O   0  0  0  0  0  0  0  0  0  0  0  0
   12.3811  -22.5216   18.3583 N   0  0  0  0  0  0  0  0  0  0  0  0
    8.8073  -16.0987   23.8688 C   0  0  2  0  0  0  0  0  0  0  0  0
    8.5845  -15.0930   24.8866 C   0  0  0  0  0  0  0  0  0  0  0  0
    7.4923  -14.1526   24.5261 C   0  0  0  0  0  0  0  0  0  0  0  0
    7.1674  -13.2632   25.6532 C   0  0  0  0  0  0  0  0  0  0  0  0
    7.9598  -12.1425   25.8226 C   0  0  0  0  0  0  0  0  0  0  0  0
    7.6559  -11.2814   26.8497 C   0  0  0  0  0  0  0  0  0  0  0  0
    6.5956  -11.5112   27.6974 C   0  0  0  0  0  0  0  0  0  0  0  0
    5.7835  -12.6290   27.5498 C   0  0  0  0  0  0  0  0  0  0  0  0
    6.1096  -13.4759   26.5123 C   0  0  0  0  0  0  0  0  0  0  0  0
    8.2594  -15.8129   26.1284 O   0  0  0  0  0  0  0  0  0  0  0  0
    8.7503  -15.3839   27.3446 O   0  0  0  0  0  0  0  0  0  0  0  0
  2  3  1  0
  2  1  1  6
  4  3  1  0
  5  6  1  0
  5  4  1  0
  7  6  1  0
  8  2  1  0
  9  8  2  0
 10 11  1  0
 11 13  1  0
 11 12  2  0
 13 14  1  0
 14 15  1  0
 15 16  1  0
 17 16  1  1
 17 19  1  0
 17 18  1  0
 18  8  1  0
 19 21  1  0
 20 19  2  0
 21 22  1  0
 22 23  1  6
 23 24  1  0
 24 29  2  0
 25 24  1  0
 25 26  2  0
 26 27  1  0
 27 28  2  0
 29 28  1  0
 30 31  1  0
 30 22  1  0
 32 30  2  0
M  END
$$$$
