KRF.pdb
     RDKit          3D

 32 32  0  0  1  0  0  0  0  0999 V2000
    9.6043  -18.6065   19.0422 N   0  0  0  0  0  0  0  0  0  0  0  0
    9.1366  -18.7804   20.3795 C   0  0  1  0  0  0  0  0  0  0  0  0
    9.7526  -19.9223   21.0964 C   0  0  0  0  0  0  0  0  0  0  0  0
    8.9913  -21.1857   20.9229 C   0  0  0  0  0  0  0  0  0  0  0  0
    9.4534  -22.3643   21.7107 C   0  0  0  0  0  0  0  0  0  0  0  0
    8.5545  -23.5900   21.4005 C   0  0  0  0  0  0  0  0  0  0  0  0
    9.0515  -24.6386   22.2948 N   0  0  0  0  0  0  0  0  0  0  0  0
    9.3231  -17.4851   21.1158 C   0  0  0  0  0  0  0  0  0  0  0  0
   10.5094  -17.1890   21.4449 O   0  0  0  0  0  0  0  0  0  0  0  0
    8.0402  -12.1354   17.6481 N   0  0  0  0  0  0  0  0  0  0  0  0
    8.0834  -13.4880   17.1898 C   0  0  0  0  0  0  0  0  0  0  0  0
    8.3435  -13.7670   15.9506 N   0  0  0  0  0  0  0  0  0  0  0  0
    7.8439  -14.5764   18.0716 N   0  0  0  0  0  0  0  0  0  0  0  0
    7.0589  -14.4309   19.2625 C   0  0  0  0  0  0  0  0  0  0  0  0
    7.7908  -13.7210   20.3925 C   0  0  0  0  0  0  0  0  0  0  0  0
    7.4927  -14.3632   21.7091 C   0  0  0  0  0  0  0  0  0  0  0  0
    8.4506  -15.4164   22.1444 C   0  0  2  0  0  0  0  0  0  0  0  0
    8.2260  -16.6544   21.4172 N   0  0  0  0  0  0  0  0  0  0  0  0
    8.3933  -15.6407   23.6029 C   0  0  0  0  0  0  0  0  0  0  0  0
    7.3462  -16.0622   24.1457 O   0  0  0  0  0  0  0  0  0  0  0  0
    8.4095  -14.7722   15.6935 N   0  0  0  0  0  0  0  0  0  0  0  0
    9.4919  -15.3983   24.4523 C   0  0  2  0  0  0  0  0  0  0  0  0
    9.3271  -15.3901   25.8910 C   0  0  0  0  0  0  0  0  0  0  0  0
    7.8987  -15.4019   26.2989 C   0  0  0  0  0  0  0  0  0  0  0  0
    7.3941  -14.0331   26.4958 C   0  0  0  0  0  0  0  0  0  0  0  0
    8.3217  -13.0567   26.8096 C   0  0  0  0  0  0  0  0  0  0  0  0
    7.8776  -11.7657   26.9674 C   0  0  0  0  0  0  0  0  0  0  0  0
    6.5493  -11.4339   26.8213 C   0  0  0  0  0  0  0  0  0  0  0  0
    5.5966  -12.3951   26.5063 C   0  0  0  0  0  0  0  0  0  0  0  0
    6.0681  -13.6812   26.3532 C   0  0  0  0  0  0  0  0  0  0  0  0
   10.0220  -16.5821   26.4030 O   0  0  0  0  0  0  0  0  0  0  0  0
   10.1193  -16.8167   27.7594 O   0  0  0  0  0  0  0  0  0  0  0  0
  2  3  1  0
  2  1  1  6
  4  3  1  0
  5  6  1  0
  5  4  1  0
  7  6  1  0
  8  2  1  0
  9  8  2  0
 10 11  1  0
 11 13  1  0
 11 12  2  0
 13 14  1  0
 14 15  1  0
 15 16  1  0
 17 16  1  6
 17 19  1  0
 17 18  1  0
 18  8  1  0
 19 21  1  0
 20 19  2  0
 21 22  1  0
 22 23  1  1
 23 24  1  0
 24 29  2  0
 25 24  1  0
 25 26  2  0
 26 27  1  0
 27 28  2  0
 29 28  1  0
 30 31  1  0
 30 22  1  0
 32 30  2  0
M  END
$$$$
