KRF.pdb
     RDKit          3D

 32 32  0  0  1  0  0  0  0  0999 V2000
    7.8885  -16.3726   19.3840 N   0  0  0  0  0  0  0  0  0  0  0  0
    8.2829  -15.3356   20.2821 C   0  0  1  0  0  0  0  0  0  0  0  0
    7.5426  -14.0634   20.1061 C   0  0  0  0  0  0  0  0  0  0  0  0
    7.1952  -13.7942   18.6874 C   0  0  0  0  0  0  0  0  0  0  0  0
    8.2441  -13.1471   17.8481 C   0  0  0  0  0  0  0  0  0  0  0  0
    7.7305  -12.9893   16.3928 C   0  0  0  0  0  0  0  0  0  0  0  0
    8.8797  -12.4523   15.6598 N   0  0  0  0  0  0  0  0  0  0  0  0
    8.1760  -15.8612   21.6845 C   0  0  0  0  0  0  0  0  0  0  0  0
    7.0890  -15.6313   22.2918 O   0  0  0  0  0  0  0  0  0  0  0  0
    6.9318  -20.7001   20.4460 N   0  0  0  0  0  0  0  0  0  0  0  0
    8.1285  -21.4741   20.3439 C   0  0  0  0  0  0  0  0  0  0  0  0
    8.3637  -22.2087   19.3017 N   0  0  0  0  0  0  0  0  0  0  0  0
    9.1040  -21.4687   21.3772 N   0  0  0  0  0  0  0  0  0  0  0  0
    8.9247  -20.7213   22.5876 C   0  0  0  0  0  0  0  0  0  0  0  0
    9.0602  -19.2169   22.4011 C   0  0  0  0  0  0  0  0  0  0  0  0
    9.0032  -18.5080   23.7160 C   0  0  0  0  0  0  0  0  0  0  0  0
    9.1080  -17.0243   23.6537 C   0  0  2  0  0  0  0  0  0  0  0  0
    9.2379  -16.5707   22.2791 N   0  0  0  0  0  0  0  0  0  0  0  0
   10.2177  -16.5175   24.4860 C   0  0  0  0  0  0  0  0  0  0  0  0
   11.2962  -17.1489   24.5693 O   0  0  0  0  0  0  0  0  0  0  0  0
    9.2279  -22.7866   19.3129 N   0  0  0  0  0  0  0  0  0  0  0  0
   10.1296  -15.3176   25.2204 C   0  0  2  0  0  0  0  0  0  0  0  0
    9.7223  -15.3288   26.6100 C   0  0  0  0  0  0  0  0  0  0  0  0
    8.2490  -15.2256   26.7707 C   0  0  0  0  0  0  0  0  0  0  0  0
    7.7828  -13.8558   26.4996 C   0  0  0  0  0  0  0  0  0  0  0  0
    6.5875  -13.7185   25.8179 C   0  0  0  0  0  0  0  0  0  0  0  0
    6.1171  -12.4491   25.5808 C   0  0  0  0  0  0  0  0  0  0  0  0
    6.8030  -11.3323   26.0027 C   0  0  0  0  0  0  0  0  0  0  0  0
    8.0059  -11.4416   26.6896 C   0  0  0  0  0  0  0  0  0  0  0  0
    8.4550  -12.7252   26.9144 C   0  0  0  0  0  0  0  0  0  0  0  0
   10.2191  -16.5887   27.1860 O   0  0  0  0  0  0  0  0  0  0  0  0
   10.5219  -16.6823   28.5291 O   0  0  0  0  0  0  0  0  0  0  0  0
  2  3  1  0
  2  1  1  6
  4  3  1  0
  5  6  1  0
  5  4  1  0
  7  6  1  0
  8  2  1  0
  9  8  2  0
 10 11  1  0
 11 13  1  0
 11 12  2  0
 13 14  1  0
 14 15  1  0
 15 16  1  0
 17 16  1  6
 17 19  1  0
 17 18  1  0
 18  8  1  0
 19 21  1  0
 20 19  2  0
 21 22  1  0
 22 23  1  6
 23 24  1  0
 24 29  2  0
 25 24  1  0
 25 26  2  0
 26 27  1  0
 27 28  2  0
 29 28  1  0
 30 31  1  0
 30 22  1  0
 32 30  2  0
M  END
$$$$
