KRF.pdb
     RDKit          3D

 32 32  0  0  1  0  0  0  0  0999 V2000
   10.3293  -15.4806   19.3143 N   0  0  0  0  0  0  0  0  0  0  0  0
    9.6680  -14.6826   20.2957 C   0  0  1  0  0  0  0  0  0  0  0  0
    8.3959  -14.0785   19.8329 C   0  0  0  0  0  0  0  0  0  0  0  0
    8.4220  -13.7219   18.3913 C   0  0  0  0  0  0  0  0  0  0  0  0
    7.2228  -13.0212   17.8489 C   0  0  0  0  0  0  0  0  0  0  0  0
    7.4243  -12.7248   16.3395 C   0  0  0  0  0  0  0  0  0  0  0  0
    6.1607  -12.1144   15.9189 N   0  0  0  0  0  0  0  0  0  0  0  0
    9.4806  -15.5150   21.5312 C   0  0  0  0  0  0  0  0  0  0  0  0
    8.3487  -15.4424   22.0941 O   0  0  0  0  0  0  0  0  0  0  0  0
   14.0484  -20.5789   26.8531 N   0  0  0  0  0  0  0  0  0  0  0  0
   12.8993  -21.3983   26.6304 C   0  0  0  0  0  0  0  0  0  0  0  0
   12.5905  -22.3552   27.4491 N   0  0  0  0  0  0  0  0  0  0  0  0
   12.0530  -21.1970   25.5067 N   0  0  0  0  0  0  0  0  0  0  0  0
   12.2772  -20.1378   24.5667 C   0  0  0  0  0  0  0  0  0  0  0  0
   11.1390  -19.1295   24.5010 C   0  0  0  0  0  0  0  0  0  0  0  0
   11.3220  -18.1908   23.3521 C   0  0  0  0  0  0  0  0  0  0  0  0
   10.2907  -17.1254   23.2192 C   0  0  2  0  0  0  0  0  0  0  0  0
   10.5190  -16.3286   22.0255 N   0  0  0  0  0  0  0  0  0  0  0  0
   10.2265  -16.2714   24.4222 C   0  0  0  0  0  0  0  0  0  0  0  0
   11.0868  -15.3838   24.6245 O   0  0  0  0  0  0  0  0  0  0  0  0
   11.7106  -22.8760   27.2613 N   0  0  0  0  0  0  0  0  0  0  0  0
    9.2134  -16.4025   25.3935 C   0  0  2  0  0  0  0  0  0  0  0  0
    9.2720  -15.6508   26.6299 C   0  0  0  0  0  0  0  0  0  0  0  0
    7.9306  -15.2072   27.0888 C   0  0  0  0  0  0  0  0  0  0  0  0
    7.4406  -14.0806   26.2777 C   0  0  0  0  0  0  0  0  0  0  0  0
    7.8443  -12.8114   26.6499 C   0  0  0  0  0  0  0  0  0  0  0  0
    7.4243  -11.7469   25.8888 C   0  0  0  0  0  0  0  0  0  0  0  0
    6.6231  -11.9193   24.7824 C   0  0  0  0  0  0  0  0  0  0  0  0
    6.2031  -13.1832   24.3863 C   0  0  0  0  0  0  0  0  0  0  0  0
    6.6384  -14.2331   25.1662 C   0  0  0  0  0  0  0  0  0  0  0  0
    9.8969  -16.5308   27.6304 O   0  0  0  0  0  0  0  0  0  0  0  0
   10.2017  -17.8423   27.3279 O   0  0  0  0  0  0  0  0  0  0  0  0
  2  3  1  0
  2  1  1  6
  4  3  1  0
  5  6  1  0
  5  4  1  0
  7  6  1  0
  8  2  1  0
  9  8  2  0
 10 11  1  0
 11 13  1  0
 11 12  2  0
 13 14  1  0
 14 15  1  0
 15 16  1  0
 17 16  1  1
 17 19  1  0
 17 18  1  0
 18  8  1  0
 19 21  1  0
 20 19  2  0
 21 22  1  0
 22 23  1  6
 23 24  1  0
 24 29  2  0
 25 24  1  0
 25 26  2  0
 26 27  1  0
 27 28  2  0
 29 28  1  0
 30 31  1  0
 30 22  1  0
 32 30  2  0
M  END
$$$$
