KRF.pdb
     RDKit          3D

 32 32  0  0  1  0  0  0  0  0999 V2000
    9.9476  -14.3789   19.4401 N   0  0  0  0  0  0  0  0  0  0  0  0
    8.8736  -13.6975   20.0880 C   0  0  1  0  0  0  0  0  0  0  0  0
    7.7917  -13.2586   19.1746 C   0  0  0  0  0  0  0  0  0  0  0  0
    7.6057  -14.1782   18.0232 C   0  0  0  0  0  0  0  0  0  0  0  0
    7.8962  -13.6282   16.6680 C   0  0  0  0  0  0  0  0  0  0  0  0
    7.5821  -14.6965   15.5879 C   0  0  0  0  0  0  0  0  0  0  0  0
    7.8563  -14.0188   14.3184 N   0  0  0  0  0  0  0  0  0  0  0  0
    8.3584  -14.5737   21.1931 C   0  0  0  0  0  0  0  0  0  0  0  0
    7.3227  -14.1681   21.7982 O   0  0  0  0  0  0  0  0  0  0  0  0
    6.3151  -19.8816   24.8566 N   0  0  0  0  0  0  0  0  0  0  0  0
    6.8663  -21.1869   24.6727 C   0  0  0  0  0  0  0  0  0  0  0  0
    6.2516  -22.2410   25.1112 N   0  0  0  0  0  0  0  0  0  0  0  0
    8.1053  -21.3799   24.0042 N   0  0  0  0  0  0  0  0  0  0  0  0
    8.6264  -20.4182   23.0772 C   0  0  0  0  0  0  0  0  0  0  0  0
    8.2002  -18.9883   23.3777 C   0  0  0  0  0  0  0  0  0  0  0  0
    8.7424  -18.0427   22.3547 C   0  0  0  0  0  0  0  0  0  0  0  0
    8.4679  -16.6003   22.6002 C   0  0  2  0  0  0  0  0  0  0  0  0
    9.0044  -15.7802   21.5270 N   0  0  0  0  0  0  0  0  0  0  0  0
    8.9832  -16.1596   23.9121 C   0  0  0  0  0  0  0  0  0  0  0  0
   10.1652  -15.7642   24.0362 O   0  0  0  0  0  0  0  0  0  0  0  0
    6.7437  -23.1520   25.0164 N   0  0  0  0  0  0  0  0  0  0  0  0
    8.1907  -16.1582   25.0778 C   0  0  2  0  0  0  0  0  0  0  0  0
    8.7371  -15.7144   26.3434 C   0  0  0  0  0  0  0  0  0  0  0  0
    7.7109  -15.0888   27.2166 C   0  0  0  0  0  0  0  0  0  0  0  0
    7.3024  -13.7747   26.6939 C   0  0  0  0  0  0  0  0  0  0  0  0
    6.0176  -13.6648   26.1944 C   0  0  0  0  0  0  0  0  0  0  0  0
    5.6040  -12.4394   25.7296 C   0  0  0  0  0  0  0  0  0  0  0  0
    6.4318  -11.3394   25.7521 C   0  0  0  0  0  0  0  0  0  0  0  0
    7.7270  -11.4219   26.2485 C   0  0  0  0  0  0  0  0  0  0  0  0
    8.1166  -12.6614   26.7085 C   0  0  0  0  0  0  0  0  0  0  0  0
    9.3165  -16.9010   26.9931 O   0  0  0  0  0  0  0  0  0  0  0  0
   10.0273  -16.7873   28.1704 O   0  0  0  0  0  0  0  0  0  0  0  0
  2  3  1  0
  2  1  1  6
  4  3  1  0
  5  6  1  0
  5  4  1  0
  7  6  1  0
  8  2  1  0
  9  8  2  0
 10 11  1  0
 11 13  1  0
 11 12  2  0
 13 14  1  0
 14 15  1  0
 15 16  1  0
 17 16  1  6
 17 19  1  0
 17 18  1  0
 18  8  1  0
 19 21  1  0
 20 19  2  0
 21 22  1  0
 22 23  1  6
 23 24  1  0
 24 29  2  0
 25 24  1  0
 25 26  2  0
 26 27  1  0
 27 28  2  0
 29 28  1  0
 30 31  1  0
 30 22  1  0
 32 30  2  0
M  END
$$$$
