KRF.pdb
     RDKit          3D

 32 32  0  0  1  0  0  0  0  0999 V2000
   12.0585  -18.6105   18.1958 N   0  0  0  0  0  0  0  0  0  0  0  0
   11.2202  -18.9453   19.3014 C   0  0  1  0  0  0  0  0  0  0  0  0
   11.6901  -20.1081   20.0918 C   0  0  0  0  0  0  0  0  0  0  0  0
   13.1600  -20.1003   20.3040 C   0  0  0  0  0  0  0  0  0  0  0  0
   13.7368  -21.2453   21.0653 C   0  0  0  0  0  0  0  0  0  0  0  0
   15.2700  -21.0603   21.2127 C   0  0  0  0  0  0  0  0  0  0  0  0
   15.8053  -22.4231   21.1615 N   0  0  0  0  0  0  0  0  0  0  0  0
   11.0478  -17.7188   20.1502 C   0  0  0  0  0  0  0  0  0  0  0  0
   12.0420  -16.9380   20.2219 O   0  0  0  0  0  0  0  0  0  0  0  0
    7.9694  -14.9440   16.9443 N   0  0  0  0  0  0  0  0  0  0  0  0
    7.6479  -13.5737   17.1900 C   0  0  0  0  0  0  0  0  0  0  0  0
    7.8099  -12.6730   16.2714 N   0  0  0  0  0  0  0  0  0  0  0  0
    7.1398  -13.1462   18.4463 N   0  0  0  0  0  0  0  0  0  0  0  0
    7.1231  -14.0079   19.5922 C   0  0  0  0  0  0  0  0  0  0  0  0
    8.4685  -14.6547   19.8886 C   0  0  0  0  0  0  0  0  0  0  0  0
    8.3814  -15.5448   21.0864 C   0  0  0  0  0  0  0  0  0  0  0  0
    9.6558  -16.1919   21.5030 C   0  0  2  0  0  0  0  0  0  0  0  0
    9.8375  -17.4642   20.8247 N   0  0  0  0  0  0  0  0  0  0  0  0
    9.7336  -16.3568   22.9685 C   0  0  0  0  0  0  0  0  0  0  0  0
    9.2817  -17.3853   23.5223 O   0  0  0  0  0  0  0  0  0  0  0  0
    7.5584  -11.6943   16.5159 N   0  0  0  0  0  0  0  0  0  0  0  0
   10.3096  -15.3858   23.8125 C   0  0  2  0  0  0  0  0  0  0  0  0
   10.2527  -15.5295   25.2524 C   0  0  0  0  0  0  0  0  0  0  0  0
   10.3943  -14.2302   25.9586 C   0  0  0  0  0  0  0  0  0  0  0  0
   10.3274  -14.4121   27.4179 C   0  0  0  0  0  0  0  0  0  0  0  0
    9.1161  -14.1519   28.0323 C   0  0  0  0  0  0  0  0  0  0  0  0
    9.0216  -14.3448   29.3897 C   0  0  0  0  0  0  0  0  0  0  0  0
   10.0927  -14.7843   30.1348 C   0  0  0  0  0  0  0  0  0  0  0  0
   11.3209  -15.0531   29.5431 C   0  0  0  0  0  0  0  0  0  0  0  0
   11.3886  -14.8520   28.1811 C   0  0  0  0  0  0  0  0  0  0  0  0
    8.9551  -16.1499   25.5643 O   0  0  0  0  0  0  0  0  0  0  0  0
    7.8062  -15.7556   24.9096 O   0  0  0  0  0  0  0  0  0  0  0  0
  2  3  1  0
  2  1  1  6
  4  3  1  0
  5  6  1  0
  5  4  1  0
  7  6  1  0
  8  2  1  0
  9  8  2  0
 10 11  1  0
 11 13  1  0
 11 12  2  0
 13 14  1  0
 14 15  1  0
 15 16  1  0
 17 16  1  1
 17 19  1  0
 17 18  1  0
 18  8  1  0
 19 21  1  0
 20 19  2  0
 21 22  1  0
 22 23  1  6
 23 24  1  0
 24 29  2  0
 25 24  1  0
 25 26  2  0
 26 27  1  0
 27 28  2  0
 29 28  1  0
 30 31  1  0
 30 22  1  0
 32 30  2  0
M  END
$$$$
