KRF.pdb
     RDKit          3D

 32 32  0  0  1  0  0  0  0  0999 V2000
    5.2905  -16.9188   20.5128 N   0  0  0  0  0  0  0  0  0  0  0  0
    6.5171  -16.4922   21.1051 C   0  0  1  0  0  0  0  0  0  0  0  0
    6.8978  -15.0970   20.7795 C   0  0  0  0  0  0  0  0  0  0  0  0
    7.5839  -14.9817   19.4674 C   0  0  0  0  0  0  0  0  0  0  0  0
    8.0673  -13.6263   19.0768 C   0  0  0  0  0  0  0  0  0  0  0  0
    8.6877  -13.6779   17.6558 C   0  0  0  0  0  0  0  0  0  0  0  0
    9.1577  -12.3112   17.4165 N   0  0  0  0  0  0  0  0  0  0  0  0
    6.4298  -16.7222   22.5864 C   0  0  0  0  0  0  0  0  0  0  0  0
    5.3786  -16.3112   23.1601 O   0  0  0  0  0  0  0  0  0  0  0  0
    8.2376  -20.5287   29.4474 N   0  0  0  0  0  0  0  0  0  0  0  0
    8.9449  -21.1927   28.3985 C   0  0  0  0  0  0  0  0  0  0  0  0
   10.0988  -21.7435   28.6134 N   0  0  0  0  0  0  0  0  0  0  0  0
    8.4129  -21.2749   27.0834 N   0  0  0  0  0  0  0  0  0  0  0  0
    7.0976  -20.8014   26.7648 C   0  0  0  0  0  0  0  0  0  0  0  0
    7.0340  -19.3021   26.5108 C   0  0  0  0  0  0  0  0  0  0  0  0
    7.2846  -18.9929   25.0699 C   0  0  0  0  0  0  0  0  0  0  0  0
    7.3536  -17.5468   24.7232 C   0  0  2  0  0  0  0  0  0  0  0  0
    7.4710  -17.3629   23.2863 N   0  0  0  0  0  0  0  0  0  0  0  0
    8.4515  -16.8637   25.4363 C   0  0  0  0  0  0  0  0  0  0  0  0
    9.6230  -16.9003   24.9945 O   0  0  0  0  0  0  0  0  0  0  0  0
   10.5499  -22.2298   27.8128 N   0  0  0  0  0  0  0  0  0  0  0  0
    8.2492  -16.1448   26.6319 C   0  0  2  0  0  0  0  0  0  0  0  0
    9.3154  -15.3520   27.2079 C   0  0  0  0  0  0  0  0  0  0  0  0
    8.8102  -14.1385   27.9000 C   0  0  0  0  0  0  0  0  0  0  0  0
    8.0367  -13.2889   26.9797 C   0  0  0  0  0  0  0  0  0  0  0  0
    8.6271  -12.9646   25.7719 C   0  0  0  0  0  0  0  0  0  0  0  0
    7.9111  -12.1981   24.8840 C   0  0  0  0  0  0  0  0  0  0  0  0
    6.6393  -11.7555   25.1710 C   0  0  0  0  0  0  0  0  0  0  0  0
    6.0226  -12.0666   26.3766 C   0  0  0  0  0  0  0  0  0  0  0  0
    6.7618  -12.8364   27.2488 C   0  0  0  0  0  0  0  0  0  0  0  0
   10.0302  -16.2266   28.1514 O   0  0  0  0  0  0  0  0  0  0  0  0
    9.6957  -17.5598   28.2733 O   0  0  0  0  0  0  0  0  0  0  0  0
  2  3  1  0
  2  1  1  6
  4  3  1  0
  5  6  1  0
  5  4  1  0
  7  6  1  0
  8  2  1  0
  9  8  2  0
 10 11  1  0
 11 13  1  0
 11 12  2  0
 13 14  1  0
 14 15  1  0
 15 16  1  0
 17 16  1  6
 17 19  1  0
 17 18  1  0
 18  8  1  0
 19 21  1  0
 20 19  2  0
 21 22  1  0
 22 23  1  6
 23 24  1  0
 24 29  2  0
 25 24  1  0
 25 26  2  0
 26 27  1  0
 27 28  2  0
 29 28  1  0
 30 31  1  0
 30 22  1  0
 32 30  2  0
M  END
$$$$
