YCA.pdb
     RDKit          3D

 24 24  0  0  1  0  0  0  0  0999 V2000
    6.0086  -12.5015   27.3947 O   0  0  0  0  0  0  0  0  0  0  0  0
    6.6020  -12.6812   26.1321 C   0  0  0  0  0  0  0  0  0  0  0  0
    5.8671  -12.4105   24.9969 C   0  0  0  0  0  0  0  0  0  0  0  0
    6.4402  -12.5835   23.7488 C   0  0  0  0  0  0  0  0  0  0  0  0
    7.7493  -13.0269   23.6024 C   0  0  0  0  0  0  0  0  0  0  0  0
    8.3443  -13.2056   22.2433 C   0  0  0  0  0  0  0  0  0  0  0  0
    7.8732  -14.5409   21.7151 C   0  0  2  0  0  0  0  0  0  0  0  0
    6.4517  -14.4651   21.5366 N   0  0  0  0  0  0  0  0  0  0  0  0
    8.2919  -15.6660   22.5817 C   0  0  0  0  0  0  0  0  0  0  0  0
    7.6988  -16.7684   22.4625 O   0  0  0  0  0  0  0  0  0  0  0  0
    8.4526  -13.2873   24.7607 C   0  0  0  0  0  0  0  0  0  0  0  0
    7.8975  -13.1207   26.0206 C   0  0  0  0  0  0  0  0  0  0  0  0
    9.3193  -15.5963   23.5445 N   0  0  0  0  0  0  0  0  0  0  0  0
    9.8243  -16.6761   24.3214 C   0  0  1  0  0  0  0  0  0  0  0  0
   10.4556  -17.7785   23.5214 C   0  0  0  0  0  0  0  0  0  0  0  0
   11.2878  -17.2129   22.0461 S   0  0  0  0  0  0  0  0  0  0  0  0
   10.7152  -16.1980   25.4076 C   0  0  0  0  0  0  0  0  0  0  0  0
   11.8549  -15.7776   25.0853 O   0  0  0  0  0  0  0  0  0  0  0  0
   10.5694  -14.6010   28.6371 C   0  0  0  0  0  0  0  0  0  0  0  0
   11.1858  -15.7106   27.8307 C   0  0  2  0  0  0  0  0  0  0  0  0
   10.3355  -16.1969   26.7773 N   0  0  0  0  0  0  0  0  0  0  0  0
   11.7026  -16.8064   28.6891 C   0  0  0  0  0  0  0  0  0  0  0  0
   11.2431  -17.9599   28.5021 O   0  0  0  0  0  0  0  0  0  0  0  0
   12.6460  -16.6115   29.6619 O   0  0  0  0  0  0  0  0  0  0  0  0
  1  2  1  0
  2  3  2  0
  3  4  1  0
  5  4  2  0
  5  6  1  0
  6  7  1  0
  7  8  1  1
  9  7  1  0
  9 13  1  0
 10  9  2  0
 11  5  1  0
 12  2  1  0
 12 11  2  0
 14 13  1  0
 14 17  1  0
 14 15  1  6
 16 15  1  0
 17 18  2  0
 20 19  1  1
 21 17  1  0
 21 20  1  0
 22 20  1  0
 22 24  1  0
 23 22  2  0
M  END
$$$$
