YCA.pdb
     RDKit          3D

 24 24  0  0  1  0  0  0  0  0999 V2000
    8.3772  -13.2695   15.8141 O   0  0  0  0  0  0  0  0  0  0  0  0
    8.1940  -13.5764   17.1746 C   0  0  0  0  0  0  0  0  0  0  0  0
    7.2541  -12.8776   17.9029 C   0  0  0  0  0  0  0  0  0  0  0  0
    7.0648  -13.1706   19.2425 C   0  0  0  0  0  0  0  0  0  0  0  0
    7.8015  -14.1592   19.8841 C   0  0  0  0  0  0  0  0  0  0  0  0
    7.5777  -14.4559   21.3315 C   0  0  0  0  0  0  0  0  0  0  0  0
    7.2714  -15.9311   21.4489 C   0  0  2  0  0  0  0  0  0  0  0  0
    6.0196  -16.1729   20.7908 N   0  0  0  0  0  0  0  0  0  0  0  0
    7.2899  -16.3978   22.8539 C   0  0  0  0  0  0  0  0  0  0  0  0
    6.5434  -15.8235   23.6870 O   0  0  0  0  0  0  0  0  0  0  0  0
    8.7320  -14.8365   19.1228 C   0  0  0  0  0  0  0  0  0  0  0  0
    8.9375  -14.5587   17.7797 C   0  0  0  0  0  0  0  0  0  0  0  0
    8.0916  -17.4519   23.3373 N   0  0  0  0  0  0  0  0  0  0  0  0
    8.0780  -17.9882   24.6551 C   0  0  1  0  0  0  0  0  0  0  0  0
    6.7583  -18.5634   25.0811 C   0  0  0  0  0  0  0  0  0  0  0  0
    6.2323  -19.9619   24.1032 S   0  0  0  0  0  0  0  0  0  0  0  0
    9.1944  -18.9423   24.8683 C   0  0  0  0  0  0  0  0  0  0  0  0
    9.3916  -19.8163   23.9869 O   0  0  0  0  0  0  0  0  0  0  0  0
   12.4445  -19.3219   26.3108 C   0  0  0  0  0  0  0  0  0  0  0  0
   11.0528  -19.8905   26.2747 C   0  0  2  0  0  0  0  0  0  0  0  0
   10.0363  -18.9069   26.0129 N   0  0  0  0  0  0  0  0  0  0  0  0
   10.7502  -20.7076   27.4769 C   0  0  0  0  0  0  0  0  0  0  0  0
    9.8371  -20.3067   28.2400 O   0  0  0  0  0  0  0  0  0  0  0  0
   11.4176  -21.8635   27.7818 O   0  0  0  0  0  0  0  0  0  0  0  0
  1  2  1  0
  2  3  2  0
  3  4  1  0
  5  4  2  0
  5  6  1  0
  6  7  1  0
  7  8  1  1
  9  7  1  0
  9 13  1  0
 10  9  2  0
 11  5  1  0
 12  2  1  0
 12 11  2  0
 14 13  1  0
 14 17  1  0
 14 15  1  6
 16 15  1  0
 17 18  2  0
 20 19  1  1
 21 17  1  0
 21 20  1  0
 22 20  1  0
 22 24  1  0
 23 22  2  0
M  END
$$$$
