YCA.pdb
     RDKit          3D

 24 24  0  0  1  0  0  0  0  0999 V2000
   -3.4645  -17.8153   21.7881 O   0  0  0  0  0  0  0  0  0  0  0  0
   -3.7592  -18.9613   22.5487 C   0  0  0  0  0  0  0  0  0  0  0  0
   -3.2266  -20.1762   22.1717 C   0  0  0  0  0  0  0  0  0  0  0  0
   -3.5094  -21.3110   22.9123 C   0  0  0  0  0  0  0  0  0  0  0  0
   -4.3235  -21.2633   24.0378 C   0  0  0  0  0  0  0  0  0  0  0  0
   -4.6134  -22.5032   24.8200 C   0  0  0  0  0  0  0  0  0  0  0  0
   -3.7109  -22.4948   26.0321 C   0  0  2  0  0  0  0  0  0  0  0  0
   -2.3596  -22.3522   25.5718 N   0  0  0  0  0  0  0  0  0  0  0  0
   -3.9113  -23.6857   26.8888 C   0  0  0  0  0  0  0  0  0  0  0  0
   -3.0522  -24.6032   26.8518 O   0  0  0  0  0  0  0  0  0  0  0  0
   -4.8377  -20.0303   24.3836 C   0  0  0  0  0  0  0  0  0  0  0  0
   -4.5669  -18.8815   23.6556 C   0  0  0  0  0  0  0  0  0  0  0  0
   -5.0070  -23.8735   27.7558 N   0  0  0  0  0  0  0  0  0  0  0  0
   -5.2033  -24.9665   28.6453 C   0  0  1  0  0  0  0  0  0  0  0  0
   -4.1535  -25.1007   29.7101 C   0  0  0  0  0  0  0  0  0  0  0  0
   -4.5903  -26.2411   31.0130 S   0  0  0  0  0  0  0  0  0  0  0  0
   -6.5741  -24.9693   29.2135 C   0  0  0  0  0  0  0  0  0  0  0  0
   -6.9513  -23.9428   29.8330 O   0  0  0  0  0  0  0  0  0  0  0  0
   -9.6185  -27.2576   29.1747 C   0  0  0  0  0  0  0  0  0  0  0  0
   -8.8129  -26.0558   29.5847 C   0  0  2  0  0  0  0  0  0  0  0  0
   -7.4636  -26.0705   29.0864 N   0  0  0  0  0  0  0  0  0  0  0  0
   -8.8704  -25.8160   31.0489 C   0  0  0  0  0  0  0  0  0  0  0  0
   -9.9835  -25.5179   31.5479 O   0  0  0  0  0  0  0  0  0  0  0  0
   -7.7742  -25.9058   31.8642 O   0  0  0  0  0  0  0  0  0  0  0  0
  1  2  1  0
  2  3  2  0
  3  4  1  0
  5  4  2  0
  5  6  1  0
  6  7  1  0
  7  8  1  6
  9  7  1  0
  9 13  1  0
 10  9  2  0
 11  5  1  0
 12  2  1  0
 12 11  2  0
 14 13  1  0
 14 17  1  0
 14 15  1  1
 16 15  1  0
 17 18  2  0
 20 19  1  1
 21 17  1  0
 21 20  1  0
 22 20  1  0
 22 24  1  0
 23 22  2  0
M  END
$$$$
