YCA.pdb
     RDKit          3D

 24 24  0  0  1  0  0  0  0  0999 V2000
   19.6014  -13.9422   17.0379 O   0  0  0  0  0  0  0  0  0  0  0  0
   18.2600  -13.9080   17.4603 C   0  0  0  0  0  0  0  0  0  0  0  0
   17.8339  -14.7969   18.4248 C   0  0  0  0  0  0  0  0  0  0  0  0
   16.5163  -14.7728   18.8486 C   0  0  0  0  0  0  0  0  0  0  0  0
   15.5984  -13.8696   18.3258 C   0  0  0  0  0  0  0  0  0  0  0  0
   14.1814  -13.8646   18.8005 C   0  0  0  0  0  0  0  0  0  0  0  0
   13.4797  -15.0303   18.1428 C   0  0  2  0  0  0  0  0  0  0  0  0
   13.2056  -14.6664   16.7824 N   0  0  0  0  0  0  0  0  0  0  0  0
   12.2711  -15.4503   18.8878 C   0  0  0  0  0  0  0  0  0  0  0  0
   11.1438  -15.1279   18.4336 O   0  0  0  0  0  0  0  0  0  0  0  0
   16.0618  -12.9964   17.3630 C   0  0  0  0  0  0  0  0  0  0  0  0
   17.3774  -13.0037   16.9245 C   0  0  0  0  0  0  0  0  0  0  0  0
   12.2865  -16.1947   20.0850 N   0  0  0  0  0  0  0  0  0  0  0  0
   11.1517  -16.6182   20.8314 C   0  0  1  0  0  0  0  0  0  0  0  0
   10.6819  -18.0090   20.5175 C   0  0  0  0  0  0  0  0  0  0  0  0
   11.9656  -19.2455   20.6280 S   0  0  0  0  0  0  0  0  0  0  0  0
   11.3486  -16.4142   22.2881 C   0  0  0  0  0  0  0  0  0  0  0  0
   12.5058  -16.5807   22.7496 O   0  0  0  0  0  0  0  0  0  0  0  0
    9.3280  -15.1518   25.2486 C   0  0  0  0  0  0  0  0  0  0  0  0
   10.4811  -15.8492   24.5813 C   0  0  2  0  0  0  0  0  0  0  0  0
   10.2959  -16.0434   23.1681 N   0  0  0  0  0  0  0  0  0  0  0  0
   10.8552  -17.1056   25.2786 C   0  0  0  0  0  0  0  0  0  0  0  0
   10.5165  -18.1913   24.7463 O   0  0  0  0  0  0  0  0  0  0  0  0
   11.5445  -17.1267   26.4613 O   0  0  0  0  0  0  0  0  0  0  0  0
  1  2  1  0
  2  3  2  0
  3  4  1  0
  5  4  2  0
  5  6  1  0
  6  7  1  0
  7  8  1  6
  9  7  1  0
  9 13  1  0
 10  9  2  0
 11  5  1  0
 12  2  1  0
 12 11  2  0
 14 13  1  0
 14 17  1  0
 14 15  1  1
 16 15  1  0
 17 18  2  0
 20 19  1  1
 21 17  1  0
 21 20  1  0
 22 20  1  0
 22 24  1  0
 23 22  2  0
M  END
$$$$
