YCA.pdb
     RDKit          3D

 24 24  0  0  1  0  0  0  0  0999 V2000
    7.0386  -20.3665   30.2826 O   0  0  0  0  0  0  0  0  0  0  0  0
    7.3278  -20.0816   28.9358 C   0  0  0  0  0  0  0  0  0  0  0  0
    8.1777  -20.9138   28.2380 C   0  0  0  0  0  0  0  0  0  0  0  0
    8.4698  -20.6438   26.9121 C   0  0  0  0  0  0  0  0  0  0  0  0
    7.9264  -19.5466   26.2543 C   0  0  0  0  0  0  0  0  0  0  0  0
    8.2581  -19.2773   24.8223 C   0  0  0  0  0  0  0  0  0  0  0  0
    6.9634  -19.3129   24.0436 C   0  0  2  0  0  0  0  0  0  0  0  0
    6.5716  -20.6862   23.9066 N   0  0  0  0  0  0  0  0  0  0  0  0
    7.0690  -18.6056   22.7472 C   0  0  0  0  0  0  0  0  0  0  0  0
    7.4579  -19.2516   21.7409 O   0  0  0  0  0  0  0  0  0  0  0  0
    7.0808  -18.7374   26.9852 C   0  0  0  0  0  0  0  0  0  0  0  0
    6.7751  -18.9899   28.3141 C   0  0  0  0  0  0  0  0  0  0  0  0
    6.7629  -17.2435   22.5505 N   0  0  0  0  0  0  0  0  0  0  0  0
    7.1600  -16.4390   21.4463 C   0  0  1  0  0  0  0  0  0  0  0  0
    6.5968  -15.0474   21.4537 C   0  0  0  0  0  0  0  0  0  0  0  0
    7.2462  -14.0002   20.1610 S   0  0  0  0  0  0  0  0  0  0  0  0
    8.6336  -16.4407   21.2710 C   0  0  0  0  0  0  0  0  0  0  0  0
    9.3426  -16.2291   22.2870 O   0  0  0  0  0  0  0  0  0  0  0  0
   11.2819  -17.9391   20.6331 C   0  0  0  0  0  0  0  0  0  0  0  0
   10.6898  -16.7906   19.8638 C   0  0  2  0  0  0  0  0  0  0  0  0
    9.2648  -16.6688   20.0181 N   0  0  0  0  0  0  0  0  0  0  0  0
   11.1036  -16.7991   18.4378 C   0  0  0  0  0  0  0  0  0  0  0  0
   10.1983  -16.8067   17.5678 O   0  0  0  0  0  0  0  0  0  0  0  0
   12.4137  -16.7990   18.0402 O   0  0  0  0  0  0  0  0  0  0  0  0
  1  2  1  0
  2  3  2  0
  3  4  1  0
  5  4  2  0
  5  6  1  0
  6  7  1  0
  7  8  1  6
  9  7  1  0
  9 13  1  0
 10  9  2  0
 11  5  1  0
 12  2  1  0
 12 11  2  0
 14 13  1  0
 14 17  1  0
 14 15  1  1
 16 15  1  0
 17 18  2  0
 20 19  1  6
 21 17  1  0
 21 20  1  0
 22 20  1  0
 22 24  1  0
 23 22  2  0
M  END
$$$$
