YCA.pdb
     RDKit          3D

 24 24  0  0  1  0  0  0  0  0999 V2000
    9.8563  -14.2797   30.8684 O   0  0  0  0  0  0  0  0  0  0  0  0
    9.9004  -14.6654   29.5163 C   0  0  0  0  0  0  0  0  0  0  0  0
    9.1780  -13.9475   28.5864 C   0  0  0  0  0  0  0  0  0  0  0  0
    9.2135  -14.3174   27.2529 C   0  0  0  0  0  0  0  0  0  0  0  0
    9.9638  -15.4031   26.8169 C   0  0  0  0  0  0  0  0  0  0  0  0
    9.9849  -15.7816   25.3714 C   0  0  0  0  0  0  0  0  0  0  0  0
    8.6568  -16.4289   25.0537 C   0  0  2  0  0  0  0  0  0  0  0  0
    8.5433  -17.6134   25.8554 N   0  0  0  0  0  0  0  0  0  0  0  0
    8.4914  -16.6883   23.6055 C   0  0  0  0  0  0  0  0  0  0  0  0
    8.8916  -17.7869   23.1428 O   0  0  0  0  0  0  0  0  0  0  0  0
   10.6729  -16.0966   27.7762 C   0  0  0  0  0  0  0  0  0  0  0  0
   10.6512  -15.7428   29.1170 C   0  0  0  0  0  0  0  0  0  0  0  0
    7.9113  -15.7855   22.6911 N   0  0  0  0  0  0  0  0  0  0  0  0
    7.9453  -15.8812   21.2719 C   0  0  1  0  0  0  0  0  0  0  0  0
    7.0950  -14.8708   20.5579 C   0  0  0  0  0  0  0  0  0  0  0  0
    5.3803  -14.8907   21.0565 S   0  0  0  0  0  0  0  0  0  0  0  0
    9.3376  -15.8974   20.7585 C   0  0  0  0  0  0  0  0  0  0  0  0
   10.1490  -15.0703   21.2456 O   0  0  0  0  0  0  0  0  0  0  0  0
   12.0135  -17.2499   20.6900 C   0  0  0  0  0  0  0  0  0  0  0  0
   11.1717  -17.0324   19.4630 C   0  0  2  0  0  0  0  0  0  0  0  0
    9.7823  -16.7980   19.7530 N   0  0  0  0  0  0  0  0  0  0  0  0
   11.3638  -18.1052   18.4546 C   0  0  0  0  0  0  0  0  0  0  0  0
   12.5349  -18.3362   18.0647 O   0  0  0  0  0  0  0  0  0  0  0  0
   10.3301  -18.8413   17.9409 O   0  0  0  0  0  0  0  0  0  0  0  0
  1  2  1  0
  2  3  2  0
  3  4  1  0
  5  4  2  0
  5  6  1  0
  6  7  1  0
  7  8  1  1
  9  7  1  0
  9 13  1  0
 10  9  2  0
 11  5  1  0
 12  2  1  0
 12 11  2  0
 14 13  1  0
 14 17  1  0
 14 15  1  6
 16 15  1  0
 17 18  2  0
 20 19  1  1
 21 17  1  0
 21 20  1  0
 22 20  1  0
 22 24  1  0
 23 22  2  0
M  END
$$$$
