YCA.pdb
     RDKit          3D

 24 24  0  0  1  0  0  0  0  0999 V2000
    1.9436  -28.0485   19.2983 O   0  0  0  0  0  0  0  0  0  0  0  0
    3.2611  -27.5663   19.4002 C   0  0  0  0  0  0  0  0  0  0  0  0
    4.2498  -28.1371   18.6266 C   0  0  0  0  0  0  0  0  0  0  0  0
    5.5501  -27.6711   18.7182 C   0  0  0  0  0  0  0  0  0  0  0  0
    5.8942  -26.6332   19.5761 C   0  0  0  0  0  0  0  0  0  0  0  0
    7.3057  -26.1488   19.6561 C   0  0  0  0  0  0  0  0  0  0  0  0
    7.3916  -24.8708   18.8541 C   0  0  2  0  0  0  0  0  0  0  0  0
    7.2534  -25.2129   17.4677 N   0  0  0  0  0  0  0  0  0  0  0  0
    8.6268  -24.1081   19.1451 C   0  0  0  0  0  0  0  0  0  0  0  0
    9.6748  -24.3994   18.5142 O   0  0  0  0  0  0  0  0  0  0  0  0
    4.8781  -26.0876   20.3338 C   0  0  0  0  0  0  0  0  0  0  0  0
    3.5692  -26.5394   20.2573 C   0  0  0  0  0  0  0  0  0  0  0  0
    8.7205  -23.0649   20.0888 N   0  0  0  0  0  0  0  0  0  0  0  0
    9.8940  -22.3358   20.4288 C   0  0  1  0  0  0  0  0  0  0  0  0
    9.7387  -20.8435   20.3760 C   0  0  0  0  0  0  0  0  0  0  0  0
   11.1783  -19.9487   20.9382 S   0  0  0  0  0  0  0  0  0  0  0  0
   10.4637  -22.7893   21.7219 C   0  0  0  0  0  0  0  0  0  0  0  0
    9.7098  -22.7792   22.7274 O   0  0  0  0  0  0  0  0  0  0  0  0
   12.8427  -25.1838   22.9445 C   0  0  0  0  0  0  0  0  0  0  0  0
   12.3322  -23.7766   23.0873 C   0  0  2  0  0  0  0  0  0  0  0  0
   11.8080  -23.2281   21.8652 N   0  0  0  0  0  0  0  0  0  0  0  0
   13.3301  -22.8808   23.7247 C   0  0  0  0  0  0  0  0  0  0  0  0
   14.0335  -22.1624   22.9726 O   0  0  0  0  0  0  0  0  0  0  0  0
   13.5108  -22.8083   25.0799 O   0  0  0  0  0  0  0  0  0  0  0  0
  1  2  1  0
  2  3  2  0
  3  4  1  0
  5  4  2  0
  5  6  1  0
  6  7  1  0
  7  8  1  6
  9  7  1  0
  9 13  1  0
 10  9  2  0
 11  5  1  0
 12  2  1  0
 12 11  2  0
 14 13  1  0
 14 17  1  0
 14 15  1  1
 16 15  1  0
 17 18  2  0
 20 19  1  6
 21 17  1  0
 21 20  1  0
 22 20  1  0
 22 24  1  0
 23 22  2  0
M  END
$$$$
