YCA.pdb
     RDKit          3D

 24 24  0  0  1  0  0  0  0  0999 V2000
    4.9729   -9.9483   25.7976 O   0  0  0  0  0  0  0  0  0  0  0  0
    5.6030  -11.2013   25.9063 C   0  0  0  0  0  0  0  0  0  0  0  0
    6.8519  -11.3786   25.3488 C   0  0  0  0  0  0  0  0  0  0  0  0
    7.4820  -12.6071   25.4493 C   0  0  0  0  0  0  0  0  0  0  0  0
    6.8878  -13.6804   26.1025 C   0  0  0  0  0  0  0  0  0  0  0  0
    7.5895  -14.9964   26.1968 C   0  0  0  0  0  0  0  0  0  0  0  0
    7.3688  -15.7215   24.8893 C   0  0  2  0  0  0  0  0  0  0  0  0
    6.0437  -16.2709   24.9106 N   0  0  0  0  0  0  0  0  0  0  0  0
    8.4152  -16.7356   24.6268 C   0  0  0  0  0  0  0  0  0  0  0  0
    8.1895  -17.9290   24.9524 O   0  0  0  0  0  0  0  0  0  0  0  0
    5.6385  -13.4646   26.6473 C   0  0  0  0  0  0  0  0  0  0  0  0
    4.9898  -12.2421   26.5580 C   0  0  0  0  0  0  0  0  0  0  0  0
    9.6636  -16.4628   24.0313 N   0  0  0  0  0  0  0  0  0  0  0  0
   10.8703  -17.1909   24.2268 C   0  0  1  0  0  0  0  0  0  0  0  0
   12.0411  -16.6819   23.4368 C   0  0  0  0  0  0  0  0  0  0  0  0
   11.5888  -15.9291   21.8819 S   0  0  0  0  0  0  0  0  0  0  0  0
   11.1936  -17.3359   25.6678 C   0  0  0  0  0  0  0  0  0  0  0  0
   10.7771  -18.3639   26.2589 O   0  0  0  0  0  0  0  0  0  0  0  0
   10.9028  -15.3729   28.3886 C   0  0  0  0  0  0  0  0  0  0  0  0
   11.9500  -16.2970   27.8309 C   0  0  2  0  0  0  0  0  0  0  0  0
   11.9444  -16.3723   26.3945 N   0  0  0  0  0  0  0  0  0  0  0  0
   11.9085  -17.6385   28.4659 C   0  0  0  0  0  0  0  0  0  0  0  0
   11.0264  -17.8454   29.3353 O   0  0  0  0  0  0  0  0  0  0  0  0
   12.7811  -18.6438   28.1457 O   0  0  0  0  0  0  0  0  0  0  0  0
  1  2  1  0
  2  3  2  0
  3  4  1  0
  5  4  2  0
  5  6  1  0
  6  7  1  0
  7  8  1  1
  9  7  1  0
  9 13  1  0
 10  9  2  0
 11  5  1  0
 12  2  1  0
 12 11  2  0
 14 13  1  0
 14 17  1  0
 14 15  1  6
 16 15  1  0
 17 18  2  0
 20 19  1  1
 21 17  1  0
 21 20  1  0
 22 20  1  0
 22 24  1  0
 23 22  2  0
M  END
$$$$
