YCA.pdb
     RDKit          3D

 24 24  0  0  1  0  0  0  0  0999 V2000
    5.5754  -10.8914   27.4897 O   0  0  0  0  0  0  0  0  0  0  0  0
    6.0003  -11.8404   26.5423 C   0  0  0  0  0  0  0  0  0  0  0  0
    6.6910  -11.4167   25.4263 C   0  0  0  0  0  0  0  0  0  0  0  0
    7.1144  -12.3413   24.4871 C   0  0  0  0  0  0  0  0  0  0  0  0
    6.8619  -13.6999   24.6357 C   0  0  0  0  0  0  0  0  0  0  0  0
    7.3299  -14.6775   23.6069 C   0  0  0  0  0  0  0  0  0  0  0  0
    8.0025  -15.8164   24.3378 C   0  0  2  0  0  0  0  0  0  0  0  0
    8.9282  -15.2496   25.2760 N   0  0  0  0  0  0  0  0  0  0  0  0
    8.6324  -16.7837   23.4106 C   0  0  0  0  0  0  0  0  0  0  0  0
    7.8939  -17.4298   22.6243 O   0  0  0  0  0  0  0  0  0  0  0  0
    6.1685  -14.0854   25.7648 C   0  0  0  0  0  0  0  0  0  0  0  0
    5.7354  -13.1757   26.7177 C   0  0  0  0  0  0  0  0  0  0  0  0
   10.0169  -17.0402   23.3398 N   0  0  0  0  0  0  0  0  0  0  0  0
   10.6609  -17.9717   22.4783 C   0  0  1  0  0  0  0  0  0  0  0  0
   11.2651  -17.3661   21.2446 C   0  0  0  0  0  0  0  0  0  0  0  0
   11.1719  -15.5834   21.1971 S   0  0  0  0  0  0  0  0  0  0  0  0
   11.6332  -18.8162   23.2157 C   0  0  0  0  0  0  0  0  0  0  0  0
   12.1457  -19.7867   22.6032 O   0  0  0  0  0  0  0  0  0  0  0  0
   13.9258  -18.9172   26.0638 C   0  0  0  0  0  0  0  0  0  0  0  0
   12.7376  -19.5180   25.3647 C   0  0  2  0  0  0  0  0  0  0  0  0
   12.0017  -18.5740   24.5669 N   0  0  0  0  0  0  0  0  0  0  0  0
   11.8616  -20.2720   26.2968 C   0  0  0  0  0  0  0  0  0  0  0  0
   12.3819  -21.1990   26.9651 O   0  0  0  0  0  0  0  0  0  0  0  0
   10.5290  -20.0003   26.4541 O   0  0  0  0  0  0  0  0  0  0  0  0
  1  2  1  0
  2  3  2  0
  3  4  1  0
  5  4  2  0
  5  6  1  0
  6  7  1  0
  7  8  1  1
  9  7  1  0
  9 13  1  0
 10  9  2  0
 11  5  1  0
 12  2  1  0
 12 11  2  0
 14 13  1  0
 14 17  1  0
 14 15  1  6
 16 15  1  0
 17 18  2  0
 20 19  1  1
 21 17  1  0
 21 20  1  0
 22 20  1  0
 22 24  1  0
 23 22  2  0
M  END
$$$$
