YCA.pdb
     RDKit          3D

 24 24  0  0  1  0  0  0  0  0999 V2000
    8.5325  -27.8269   23.5130 O   0  0  0  0  0  0  0  0  0  0  0  0
    8.9749  -27.5047   22.2171 C   0  0  0  0  0  0  0  0  0  0  0  0
    9.0186  -28.4916   21.2547 C   0  0  0  0  0  0  0  0  0  0  0  0
    9.4521  -28.1866   19.9759 C   0  0  0  0  0  0  0  0  0  0  0  0
    9.8496  -26.9012   19.6276 C   0  0  0  0  0  0  0  0  0  0  0  0
   10.3137  -26.5983   18.2397 C   0  0  0  0  0  0  0  0  0  0  0  0
    9.1764  -25.9080   17.5229 C   0  0  2  0  0  0  0  0  0  0  0  0
    8.1464  -26.8806   17.2958 N   0  0  0  0  0  0  0  0  0  0  0  0
    9.6226  -25.2325   16.2832 C   0  0  0  0  0  0  0  0  0  0  0  0
    9.7161  -25.9122   15.2295 O   0  0  0  0  0  0  0  0  0  0  0  0
    9.7921  -25.9411   20.6171 C   0  0  0  0  0  0  0  0  0  0  0  0
    9.3610  -26.2253   21.9042 C   0  0  0  0  0  0  0  0  0  0  0  0
    9.9557  -23.8657   16.1913 N   0  0  0  0  0  0  0  0  0  0  0  0
   10.3182  -23.1619   15.0091 C   0  0  1  0  0  0  0  0  0  0  0  0
    9.4518  -21.9758   14.6985 C   0  0  0  0  0  0  0  0  0  0  0  0
    7.7018  -22.3271   14.7558 S   0  0  0  0  0  0  0  0  0  0  0  0
   11.7606  -22.8130   15.0014 C   0  0  0  0  0  0  0  0  0  0  0  0
   12.2877  -22.4852   16.0943 O   0  0  0  0  0  0  0  0  0  0  0  0
   14.6566  -22.8783   12.5397 C   0  0  0  0  0  0  0  0  0  0  0  0
   13.9532  -22.4891   13.8106 C   0  0  2  0  0  0  0  0  0  0  0  0
   12.5570  -22.8349   13.8244 N   0  0  0  0  0  0  0  0  0  0  0  0
   14.1850  -21.0662   14.1658 C   0  0  0  0  0  0  0  0  0  0  0  0
   13.4028  -20.2099   13.6844 O   0  0  0  0  0  0  0  0  0  0  0  0
   15.2026  -20.6570   14.9853 O   0  0  0  0  0  0  0  0  0  0  0  0
  1  2  1  0
  2  3  2  0
  3  4  1  0
  5  4  2  0
  5  6  1  0
  6  7  1  0
  7  8  1  6
  9  7  1  0
  9 13  1  0
 10  9  2  0
 11  5  1  0
 12  2  1  0
 12 11  2  0
 14 13  1  0
 14 17  1  0
 14 15  1  1
 16 15  1  0
 17 18  2  0
 20 19  1  6
 21 17  1  0
 21 20  1  0
 22 20  1  0
 22 24  1  0
 23 22  2  0
M  END
$$$$
