YCA.pdb
     RDKit          3D

 24 24  0  0  1  0  0  0  0  0999 V2000
    7.6138  -13.0338   16.8948 O   0  0  0  0  0  0  0  0  0  0  0  0
    7.6802  -13.5213   18.2126 C   0  0  0  0  0  0  0  0  0  0  0  0
    7.2888  -14.8180   18.4723 C   0  0  0  0  0  0  0  0  0  0  0  0
    7.3496  -15.3091   19.7652 C   0  0  0  0  0  0  0  0  0  0  0  0
    7.7984  -14.5264   20.8224 C   0  0  0  0  0  0  0  0  0  0  0  0
    7.8542  -15.0808   22.2090 C   0  0  0  0  0  0  0  0  0  0  0  0
    9.2954  -15.4316   22.4984 C   0  0  2  0  0  0  0  0  0  0  0  0
    9.6935  -16.4507   21.5703 N   0  0  0  0  0  0  0  0  0  0  0  0
    9.5057  -15.8177   23.9122 C   0  0  0  0  0  0  0  0  0  0  0  0
    9.6582  -17.0355   24.1855 O   0  0  0  0  0  0  0  0  0  0  0  0
    8.1813  -13.2348   20.5234 C   0  0  0  0  0  0  0  0  0  0  0  0
    8.1282  -12.7233   19.2355 C   0  0  0  0  0  0  0  0  0  0  0  0
    9.5488  -14.9122   24.9919 N   0  0  0  0  0  0  0  0  0  0  0  0
    9.8340  -15.2287   26.3494 C   0  0  1  0  0  0  0  0  0  0  0  0
    9.8493  -14.0472   27.2756 C   0  0  0  0  0  0  0  0  0  0  0  0
   10.0586  -14.4821   28.9950 S   0  0  0  0  0  0  0  0  0  0  0  0
    8.9595  -16.3171   26.8521 C   0  0  0  0  0  0  0  0  0  0  0  0
    7.7183  -16.1831   26.7061 O   0  0  0  0  0  0  0  0  0  0  0  0
    7.8873  -19.2671   26.8427 C   0  0  0  0  0  0  0  0  0  0  0  0
    8.6210  -18.5571   27.9468 C   0  0  2  0  0  0  0  0  0  0  0  0
    9.4630  -17.4872   27.4826 N   0  0  0  0  0  0  0  0  0  0  0  0
    9.3465  -19.5008   28.8344 C   0  0  0  0  0  0  0  0  0  0  0  0
    8.6831  -20.4191   29.3760 O   0  0  0  0  0  0  0  0  0  0  0  0
   10.6900  -19.4104   29.0819 O   0  0  0  0  0  0  0  0  0  0  0  0
  1  2  1  0
  2  3  2  0
  3  4  1  0
  5  4  2  0
  5  6  1  0
  6  7  1  0
  7  8  1  6
  9  7  1  0
  9 13  1  0
 10  9  2  0
 11  5  1  0
 12  2  1  0
 12 11  2  0
 14 13  1  0
 14 17  1  0
 14 15  1  1
 16 15  1  0
 17 18  2  0
 20 19  1  6
 21 17  1  0
 21 20  1  0
 22 20  1  0
 22 24  1  0
 23 22  2  0
M  END
$$$$
