YCA.pdb
     RDKit          3D

 24 24  0  0  1  0  0  0  0  0999 V2000
   11.4659  -23.0606   12.4583 O   0  0  0  0  0  0  0  0  0  0  0  0
   12.1436  -22.4697   13.5401 C   0  0  0  0  0  0  0  0  0  0  0  0
   11.6709  -22.6667   14.8207 C   0  0  0  0  0  0  0  0  0  0  0  0
   12.3294  -22.0903   15.8933 C   0  0  0  0  0  0  0  0  0  0  0  0
   13.4659  -21.3099   15.7176 C   0  0  0  0  0  0  0  0  0  0  0  0
   14.1581  -20.6988   16.8926 C   0  0  0  0  0  0  0  0  0  0  0  0
   13.2638  -19.6030   17.4249 C   0  0  2  0  0  0  0  0  0  0  0  0
   13.2222  -18.5560   16.4449 N   0  0  0  0  0  0  0  0  0  0  0  0
   13.6897  -19.1317   18.7624 C   0  0  0  0  0  0  0  0  0  0  0  0
   14.5642  -18.2309   18.8310 O   0  0  0  0  0  0  0  0  0  0  0  0
   13.9085  -21.1356   14.4222 C   0  0  0  0  0  0  0  0  0  0  0  0
   13.2638  -21.7040   13.3338 C   0  0  0  0  0  0  0  0  0  0  0  0
   13.1830  -19.6221   19.9832 N   0  0  0  0  0  0  0  0  0  0  0  0
   13.4853  -19.1283   21.2829 C   0  0  1  0  0  0  0  0  0  0  0  0
   12.3254  -19.1293   22.2361 C   0  0  0  0  0  0  0  0  0  0  0  0
   10.8771  -18.2934   21.6097 S   0  0  0  0  0  0  0  0  0  0  0  0
   14.6776  -19.7986   21.8585 C   0  0  0  0  0  0  0  0  0  0  0  0
   14.7548  -21.0482   21.7484 O   0  0  0  0  0  0  0  0  0  0  0  0
   18.1656  -18.9555   22.7633 C   0  0  0  0  0  0  0  0  0  0  0  0
   16.9047  -19.7313   23.0273 C   0  0  2  0  0  0  0  0  0  0  0  0
   15.7198  -19.0933   22.5192 N   0  0  0  0  0  0  0  0  0  0  0  0
   16.7707  -20.1130   24.4560 C   0  0  0  0  0  0  0  0  0  0  0  0
   17.6658  -20.8409   24.9516 O   0  0  0  0  0  0  0  0  0  0  0  0
   15.7255  -19.7087   25.2424 O   0  0  0  0  0  0  0  0  0  0  0  0
  1  2  1  0
  2  3  2  0
  3  4  1  0
  5  4  2  0
  5  6  1  0
  6  7  1  0
  7  8  1  6
  9  7  1  0
  9 13  1  0
 10  9  2  0
 11  5  1  0
 12  2  1  0
 12 11  2  0
 14 13  1  0
 14 17  1  0
 14 15  1  1
 16 15  1  0
 17 18  2  0
 20 19  1  1
 21 17  1  0
 21 20  1  0
 22 20  1  0
 22 24  1  0
 23 22  2  0
M  END
$$$$
