YCA.pdb
     RDKit          3D

 24 24  0  0  1  0  0  0  0  0999 V2000
   16.3230  -14.7850   38.2032 O   0  0  0  0  0  0  0  0  0  0  0  0
   17.3263  -14.2292   37.3888 C   0  0  0  0  0  0  0  0  0  0  0  0
   17.4972  -12.8608   37.3685 C   0  0  0  0  0  0  0  0  0  0  0  0
   18.4811  -12.3022   36.5711 C   0  0  0  0  0  0  0  0  0  0  0  0
   19.3124  -13.0870   35.7807 C   0  0  0  0  0  0  0  0  0  0  0  0
   20.3671  -12.4588   34.9285 C   0  0  0  0  0  0  0  0  0  0  0  0
   19.6984  -11.9796   33.6608 C   0  0  2  0  0  0  0  0  0  0  0  0
   19.1725  -13.1284   32.9811 N   0  0  0  0  0  0  0  0  0  0  0  0
   20.6081  -11.1706   32.8181 C   0  0  0  0  0  0  0  0  0  0  0  0
   21.1023  -11.6990   31.7897 O   0  0  0  0  0  0  0  0  0  0  0  0
   19.1112  -14.4514   35.8275 C   0  0  0  0  0  0  0  0  0  0  0  0
   18.1314  -15.0314   36.6193 C   0  0  0  0  0  0  0  0  0  0  0  0
   20.9686   -9.8337   33.0834 N   0  0  0  0  0  0  0  0  0  0  0  0
   21.8516   -9.0276   32.3122 C   0  0  1  0  0  0  0  0  0  0  0  0
   21.2352   -7.7713   31.7684 C   0  0  0  0  0  0  0  0  0  0  0  0
   22.0101   -6.2745   32.3585 S   0  0  0  0  0  0  0  0  0  0  0  0
   23.1176   -8.7561   33.0372 C   0  0  0  0  0  0  0  0  0  0  0  0
   23.0628   -8.6519   34.2886 O   0  0  0  0  0  0  0  0  0  0  0  0
   26.7961   -8.2455   32.1749 C   0  0  0  0  0  0  0  0  0  0  0  0
   25.5987   -8.3402   33.0797 C   0  0  2  0  0  0  0  0  0  0  0  0
   24.3705   -8.6117   32.3818 N   0  0  0  0  0  0  0  0  0  0  0  0
   25.4859   -7.1679   33.9839 C   0  0  0  0  0  0  0  0  0  0  0  0
   24.7580   -6.2138   33.6140 O   0  0  0  0  0  0  0  0  0  0  0  0
   26.1344   -7.0873   35.1870 O   0  0  0  0  0  0  0  0  0  0  0  0
  1  2  1  0
  2  3  2  0
  3  4  1  0
  5  4  2  0
  5  6  1  0
  6  7  1  0
  7  8  1  6
  9  7  1  0
  9 13  1  0
 10  9  2  0
 11  5  1  0
 12  2  1  0
 12 11  2  0
 14 13  1  0
 14 17  1  0
 14 15  1  1
 16 15  1  0
 17 18  2  0
 20 19  1  6
 21 17  1  0
 21 20  1  0
 22 20  1  0
 22 24  1  0
 23 22  2  0
M  END
$$$$
