YCA.pdb
     RDKit          3D

 24 24  0  0  1  0  0  0  0  0999 V2000
  -10.2339  -20.7175   25.4854 O   0  0  0  0  0  0  0  0  0  0  0  0
   -9.2772  -21.1397   26.4264 C   0  0  0  0  0  0  0  0  0  0  0  0
   -8.1304  -21.7672   25.9870 C   0  0  0  0  0  0  0  0  0  0  0  0
   -7.1817  -22.1871   26.9035 C   0  0  0  0  0  0  0  0  0  0  0  0
   -7.3512  -21.9935   28.2693 C   0  0  0  0  0  0  0  0  0  0  0  0
   -6.3116  -22.4566   29.2379 C   0  0  0  0  0  0  0  0  0  0  0  0
   -6.8506  -23.6902   29.9246 C   0  0  2  0  0  0  0  0  0  0  0  0
   -7.8255  -23.2655   30.8876 N   0  0  0  0  0  0  0  0  0  0  0  0
   -5.7746  -24.5199   30.5128 C   0  0  0  0  0  0  0  0  0  0  0  0
   -5.5250  -24.3981   31.7391 O   0  0  0  0  0  0  0  0  0  0  0  0
   -8.5109  -21.3624   28.6705 C   0  0  0  0  0  0  0  0  0  0  0  0
   -9.4738  -20.9339   27.7691 C   0  0  0  0  0  0  0  0  0  0  0  0
   -4.9964  -25.4499   29.7936 N   0  0  0  0  0  0  0  0  0  0  0  0
   -4.0369  -26.3488   30.3375 C   0  0  1  0  0  0  0  0  0  0  0  0
   -4.5618  -27.2368   31.4283 C   0  0  0  0  0  0  0  0  0  0  0  0
   -3.3689  -28.4219   32.0294 S   0  0  0  0  0  0  0  0  0  0  0  0
   -3.3488  -27.1225   29.2745 C   0  0  0  0  0  0  0  0  0  0  0  0
   -4.0528  -27.5893   28.3438 O   0  0  0  0  0  0  0  0  0  0  0  0
   -1.4573  -26.8555   26.9069 C   0  0  0  0  0  0  0  0  0  0  0  0
   -1.2179  -27.7490   28.0924 C   0  0  2  0  0  0  0  0  0  0  0  0
   -1.9463  -27.3526   29.2678 N   0  0  0  0  0  0  0  0  0  0  0  0
    0.2288  -27.9429   28.3645 C   0  0  0  0  0  0  0  0  0  0  0  0
    0.6891  -27.4740   29.4346 O   0  0  0  0  0  0  0  0  0  0  0  0
    1.0681  -28.6029   27.5076 O   0  0  0  0  0  0  0  0  0  0  0  0
  1  2  1  0
  2  3  2  0
  3  4  1  0
  5  4  2  0
  5  6  1  0
  6  7  1  0
  7  8  1  1
  9  7  1  0
  9 13  1  0
 10  9  2  0
 11  5  1  0
 12  2  1  0
 12 11  2  0
 14 13  1  0
 14 17  1  0
 14 15  1  1
 16 15  1  0
 17 18  2  0
 20 19  1  6
 21 17  1  0
 21 20  1  0
 22 20  1  0
 22 24  1  0
 23 22  2  0
M  END
$$$$
