HNM.pdb
     RDKit          3D

 27 27  0  0  1  0  0  0  0  0999 V2000
   19.4372  -13.0281  -15.7186 N   0  0  0  0  0  0  0  0  0  0  0  0
   18.9212  -12.4993  -16.9532 C   0  0  1  0  0  0  0  0  0  0  0  0
   17.5919  -13.1610  -17.2781 C   0  0  0  0  0  0  0  0  0  0  0  0
   17.7407  -14.6175  -17.4665 C   0  0  0  0  0  0  0  0  0  0  0  0
   18.9213  -15.3011  -17.4550 C   0  0  0  0  0  0  0  0  0  0  0  0
   18.6360  -16.6000  -17.6599 N   0  0  0  0  0  0  0  0  0  0  0  0
   17.3055  -16.7083  -17.7943 C   0  0  0  0  0  0  0  0  0  0  0  0
   16.7539  -15.4971  -17.6765 N   0  0  0  0  0  0  0  0  0  0  0  0
   18.6857  -11.0378  -16.8243 C   0  0  0  0  0  0  0  0  0  0  0  0
   18.2377  -10.4225  -17.8359 O   0  0  0  0  0  0  0  0  0  0  0  0
   18.0290   -6.3688  -15.2500 N   0  0  0  0  0  0  0  0  0  0  0  0
   17.3327   -7.2406  -14.3461 C   0  0  0  0  0  0  0  0  0  0  0  0
   16.5220   -6.7368  -13.5502 O   0  0  0  0  0  0  0  0  0  0  0  0
   17.6554   -8.6822  -14.4532 C   0  0  0  0  0  0  0  0  0  0  0  0
   18.7083   -8.9397  -15.5113 C   0  0  2  0  0  0  0  0  0  0  0  0
   18.9526  -10.3596  -15.6143 N   0  0  0  0  0  0  0  0  0  0  0  0
   19.9879   -8.2663  -15.1720 C   0  0  0  0  0  0  0  0  0  0  0  0
   20.4667   -8.4743  -14.0108 O   0  0  0  0  0  0  0  0  0  0  0  0
   26.4660   -4.5966  -17.9257 C   0  0  0  0  0  0  0  0  0  0  0  0
   24.8295   -5.2304  -18.2008 S   0  0  0  0  0  0  0  0  0  0  0  0
   24.0210   -5.7383  -16.6869 C   0  0  0  0  0  0  0  0  0  0  0  0
   22.7049   -6.3830  -16.8540 C   0  0  0  0  0  0  0  0  0  0  0  0
   22.0011   -6.8743  -15.6417 C   0  0  2  0  0  0  0  0  0  0  0  0
   20.6862   -7.4285  -16.0446 N   0  0  0  0  0  0  0  0  0  0  0  0
   21.6574   -5.7873  -14.6972 C   0  0  0  0  0  0  0  0  0  0  0  0
   22.3450   -5.5936  -13.6764 O   0  0  0  0  0  0  0  0  0  0  0  0
   20.5753   -4.9760  -14.9270 O   0  0  0  0  0  0  0  0  0  0  0  0
  2  3  1  0
  2  1  1  1
  4  3  1  0
  5  4  2  0
  6  5  1  0
  7  6  1  0
  7  8  2  0
  8  4  1  0
  9  2  1  0
 10  9  2  0
 12 11  1  0
 13 12  2  0
 14 12  1  0
 15 14  1  1
 15 16  1  0
 16  9  1  0
 17 15  1  0
 17 18  2  0
 19 20  1  0
 20 21  1  0
 23 22  1  6
 22 21  1  0
 23 24  1  0
 24 17  1  0
 25 23  1  0
 26 25  2  0
 27 25  1  0
M  END
$$$$
