HNM.pdb
     RDKit          3D

 27 27  0  0  1  0  0  0  0  0999 V2000
   23.4928  -20.8903  -16.1906 N   0  0  0  0  0  0  0  0  0  0  0  0
   23.8595  -20.0365  -15.0921 C   0  0  1  0  0  0  0  0  0  0  0  0
   22.6374  -19.7518  -14.2344 C   0  0  0  0  0  0  0  0  0  0  0  0
   21.6200  -18.9806  -14.9756 C   0  0  0  0  0  0  0  0  0  0  0  0
   20.5507  -19.5106  -15.6366 C   0  0  0  0  0  0  0  0  0  0  0  0
   19.8658  -18.4874  -16.1792 N   0  0  0  0  0  0  0  0  0  0  0  0
   20.5048  -17.3528  -15.8557 C   0  0  0  0  0  0  0  0  0  0  0  0
   21.5790  -17.6505  -15.1191 N   0  0  0  0  0  0  0  0  0  0  0  0
   24.8718  -20.7099  -14.2375 C   0  0  0  0  0  0  0  0  0  0  0  0
   24.8495  -21.9745  -14.1844 O   0  0  0  0  0  0  0  0  0  0  0  0
   30.1875  -19.9297  -11.5134 N   0  0  0  0  0  0  0  0  0  0  0  0
   29.1935  -20.7764  -12.1110 C   0  0  0  0  0  0  0  0  0  0  0  0
   29.2571  -21.9991  -11.8980 O   0  0  0  0  0  0  0  0  0  0  0  0
   28.1706  -20.0962  -12.9387 C   0  0  0  0  0  0  0  0  0  0  0  0
   26.7832  -20.6398  -12.6666 C   0  0  2  0  0  0  0  0  0  0  0  0
   25.8254  -19.9636  -13.5102 N   0  0  0  0  0  0  0  0  0  0  0  0
   26.3915  -20.4297  -11.2494 C   0  0  0  0  0  0  0  0  0  0  0  0
   26.0500  -19.2521  -10.9068 O   0  0  0  0  0  0  0  0  0  0  0  0
   29.3280  -19.8989   -4.8720 C   0  0  0  0  0  0  0  0  0  0  0  0
   27.8902  -19.6503   -5.8850 S   0  0  0  0  0  0  0  0  0  0  0  0
   28.1278  -20.2027   -7.5709 C   0  0  0  0  0  0  0  0  0  0  0  0
   26.9991  -19.9534   -8.4870 C   0  0  0  0  0  0  0  0  0  0  0  0
   26.1296  -21.0976   -8.8626 C   0  0  2  0  0  0  0  0  0  0  0  0
   26.3772  -21.4392  -10.2841 N   0  0  0  0  0  0  0  0  0  0  0  0
   24.6883  -20.7614   -8.8210 C   0  0  0  0  0  0  0  0  0  0  0  0
   23.9912  -21.0801   -7.8388 O   0  0  0  0  0  0  0  0  0  0  0  0
   24.0942  -20.0957   -9.8630 O   0  0  0  0  0  0  0  0  0  0  0  0
  2  3  1  0
  2  1  1  6
  4  3  1  0
  5  4  2  0
  6  5  1  0
  7  6  1  0
  7  8  2  0
  8  4  1  0
  9  2  1  0
 10  9  2  0
 12 11  1  0
 13 12  2  0
 14 12  1  0
 15 14  1  1
 15 16  1  0
 16  9  1  0
 17 15  1  0
 17 18  2  0
 19 20  1  0
 20 21  1  0
 23 22  1  6
 22 21  1  0
 23 24  1  0
 24 17  1  0
 25 23  1  0
 26 25  2  0
 27 25  1  0
M  END
$$$$
