HNM.pdb
     RDKit          3D

 27 27  0  0  1  0  0  0  0  0999 V2000
   13.6533  -18.9124    5.0556 N   0  0  0  0  0  0  0  0  0  0  0  0
   15.0043  -18.5886    5.4301 C   0  0  1  0  0  0  0  0  0  0  0  0
   15.8139  -18.2532    4.1881 C   0  0  0  0  0  0  0  0  0  0  0  0
   15.9070  -19.4064    3.2714 C   0  0  0  0  0  0  0  0  0  0  0  0
   16.7262  -20.4849    3.4359 C   0  0  0  0  0  0  0  0  0  0  0  0
   16.5170  -21.3115    2.3951 N   0  0  0  0  0  0  0  0  0  0  0  0
   15.5870  -20.7486    1.6088 C   0  0  0  0  0  0  0  0  0  0  0  0
   15.2110  -19.5825    2.1417 N   0  0  0  0  0  0  0  0  0  0  0  0
   15.0166  -17.3984    6.3198 C   0  0  0  0  0  0  0  0  0  0  0  0
   13.9007  -16.9086    6.6627 O   0  0  0  0  0  0  0  0  0  0  0  0
   14.3334  -16.7667    9.8106 N   0  0  0  0  0  0  0  0  0  0  0  0
   15.1509  -17.9470    9.7926 C   0  0  0  0  0  0  0  0  0  0  0  0
   14.7967  -18.9185   10.4819 O   0  0  0  0  0  0  0  0  0  0  0  0
   16.3594  -17.8895    8.9381 C   0  0  0  0  0  0  0  0  0  0  0  0
   16.4392  -16.5838    8.1743 C   0  0  2  0  0  0  0  0  0  0  0  0
   16.2319  -16.8340    6.7669 N   0  0  0  0  0  0  0  0  0  0  0  0
   17.7665  -15.9401    8.3464 C   0  0  0  0  0  0  0  0  0  0  0  0
   18.7418  -16.4295    7.6904 O   0  0  0  0  0  0  0  0  0  0  0  0
   21.7482  -10.2421    6.0541 C   0  0  0  0  0  0  0  0  0  0  0  0
   20.2578  -11.1616    6.3517 S   0  0  0  0  0  0  0  0  0  0  0  0
   20.4027  -12.2841    7.7382 C   0  0  0  0  0  0  0  0  0  0  0  0
   19.2593  -13.1930    7.9430 C   0  0  0  0  0  0  0  0  0  0  0  0
   19.2957  -14.1226    9.1011 C   0  0  2  0  0  0  0  0  0  0  0  0
   18.0014  -14.8420    9.1770 N   0  0  0  0  0  0  0  0  0  0  0  0
   19.3907  -13.4183   10.3999 C   0  0  0  0  0  0  0  0  0  0  0  0
   18.3610  -13.0796   11.0140 O   0  0  0  0  0  0  0  0  0  0  0  0
   20.6129  -13.1237   10.9490 O   0  0  0  0  0  0  0  0  0  0  0  0
  2  3  1  0
  2  1  1  6
  4  3  1  0
  5  4  2  0
  6  5  1  0
  7  6  1  0
  7  8  2  0
  8  4  1  0
  9  2  1  0
 10  9  2  0
 12 11  1  0
 13 12  2  0
 14 12  1  0
 15 14  1  1
 15 16  1  0
 16  9  1  0
 17 15  1  0
 17 18  2  0
 19 20  1  0
 20 21  1  0
 23 22  1  6
 22 21  1  0
 23 24  1  0
 24 17  1  0
 25 23  1  0
 26 25  2  0
 27 25  1  0
M  END
$$$$
