HNM.pdb
     RDKit          3D

 27 27  0  0  1  0  0  0  0  0999 V2000
   15.3405  -11.1728  -13.8588 N   0  0  0  0  0  0  0  0  0  0  0  0
   16.6100  -10.5100  -13.7194 C   0  0  1  0  0  0  0  0  0  0  0  0
   17.2941  -10.4232  -15.0739 C   0  0  0  0  0  0  0  0  0  0  0  0
   17.6718  -11.7578  -15.5793 C   0  0  0  0  0  0  0  0  0  0  0  0
   18.7739  -12.4661  -15.1987 C   0  0  0  0  0  0  0  0  0  0  0  0
   18.7623  -13.6256  -15.8813 N   0  0  0  0  0  0  0  0  0  0  0  0
   17.6731  -13.6260  -16.6647 C   0  0  0  0  0  0  0  0  0  0  0  0
   17.0030  -12.4845  -16.4828 N   0  0  0  0  0  0  0  0  0  0  0  0
   16.4111   -9.1256  -13.2174 C   0  0  0  0  0  0  0  0  0  0  0  0
   15.2600   -8.8131  -12.7933 O   0  0  0  0  0  0  0  0  0  0  0  0
   17.1964   -4.9134  -10.7405 N   0  0  0  0  0  0  0  0  0  0  0  0
   17.1173   -6.1866  -10.0812 C   0  0  0  0  0  0  0  0  0  0  0  0
   17.0308   -6.2028   -8.8416 O   0  0  0  0  0  0  0  0  0  0  0  0
   17.1475   -7.3783  -10.9603 C   0  0  0  0  0  0  0  0  0  0  0  0
   17.3794   -6.9964  -12.4077 C   0  0  2  0  0  0  0  0  0  0  0  0
   17.4707   -8.1914  -13.2139 N   0  0  0  0  0  0  0  0  0  0  0  0
   18.6393   -6.2260  -12.5655 C   0  0  0  0  0  0  0  0  0  0  0  0
   19.5570   -6.4257  -11.7060 O   0  0  0  0  0  0  0  0  0  0  0  0
   22.0522   -9.4571  -16.2602 C   0  0  0  0  0  0  0  0  0  0  0  0
   21.5537   -7.7686  -16.4961 S   0  0  0  0  0  0  0  0  0  0  0  0
   21.2059   -6.9281  -14.9546 C   0  0  0  0  0  0  0  0  0  0  0  0
   20.7564   -5.5289  -15.0803 C   0  0  0  0  0  0  0  0  0  0  0  0
   20.2504   -4.8389  -13.8661 C   0  0  2  0  0  0  0  0  0  0  0  0
   18.8705   -5.3065  -13.5912 N   0  0  0  0  0  0  0  0  0  0  0  0
   20.1024   -3.3780  -14.0557 C   0  0  0  0  0  0  0  0  0  0  0  0
   21.1061   -2.6485  -14.1682 O   0  0  0  0  0  0  0  0  0  0  0  0
   18.8589   -2.8011  -14.1083 O   0  0  0  0  0  0  0  0  0  0  0  0
  2  3  1  0
  2  1  1  6
  4  3  1  0
  5  4  2  0
  6  5  1  0
  7  6  1  0
  7  8  2  0
  8  4  1  0
  9  2  1  0
 10  9  2  0
 12 11  1  0
 13 12  2  0
 14 12  1  0
 15 14  1  1
 15 16  1  0
 16  9  1  0
 17 15  1  0
 17 18  2  0
 19 20  1  0
 20 21  1  0
 23 22  1  6
 22 21  1  0
 23 24  1  0
 24 17  1  0
 25 23  1  0
 26 25  2  0
 27 25  1  0
M  END
$$$$
