HNM.pdb
     RDKit          3D

 27 27  0  0  1  0  0  0  0  0999 V2000
   20.0112  -13.1953  -18.8272 N   0  0  0  0  0  0  0  0  0  0  0  0
   20.9790  -12.4877  -18.0316 C   0  0  1  0  0  0  0  0  0  0  0  0
   22.2154  -12.1978  -18.8669 C   0  0  0  0  0  0  0  0  0  0  0  0
   22.8931  -13.4406  -19.2854 C   0  0  0  0  0  0  0  0  0  0  0  0
   23.1505  -14.5119  -18.4808 C   0  0  0  0  0  0  0  0  0  0  0  0
   23.7770  -15.4368  -19.2308 N   0  0  0  0  0  0  0  0  0  0  0  0
   23.9003  -14.9400  -20.4710 C   0  0  0  0  0  0  0  0  0  0  0  0
   23.3605  -13.7184  -20.5085 N   0  0  0  0  0  0  0  0  0  0  0  0
   20.4170  -11.1885  -17.5794 C   0  0  0  0  0  0  0  0  0  0  0  0
   19.6581  -10.5656  -18.3787 O   0  0  0  0  0  0  0  0  0  0  0  0
   16.9120   -9.3336  -15.2357 N   0  0  0  0  0  0  0  0  0  0  0  0
   17.9711  -10.2650  -14.9664 C   0  0  0  0  0  0  0  0  0  0  0  0
   17.7179  -11.4797  -15.0349 O   0  0  0  0  0  0  0  0  0  0  0  0
   19.2867   -9.6751  -14.6267 C   0  0  0  0  0  0  0  0  0  0  0  0
   20.1220   -9.4271  -15.8658 C   0  0  2  0  0  0  0  0  0  0  0  0
   20.7196  -10.6677  -16.3017 N   0  0  0  0  0  0  0  0  0  0  0  0
   21.2089   -8.4517  -15.5955 C   0  0  0  0  0  0  0  0  0  0  0  0
   22.2021   -8.8595  -14.9114 O   0  0  0  0  0  0  0  0  0  0  0  0
   26.0804   -2.8912  -17.3129 C   0  0  0  0  0  0  0  0  0  0  0  0
   24.9383   -4.2034  -17.6721 S   0  0  0  0  0  0  0  0  0  0  0  0
   23.4859   -4.1618  -16.6270 C   0  0  0  0  0  0  0  0  0  0  0  0
   22.5319   -5.2702  -16.8192 C   0  0  0  0  0  0  0  0  0  0  0  0
   22.3286   -6.2276  -15.7019 C   0  0  2  0  0  0  0  0  0  0  0  0
   21.2022   -7.1290  -16.0443 N   0  0  0  0  0  0  0  0  0  0  0  0
   21.8908   -5.5664  -14.4517 C   0  0  0  0  0  0  0  0  0  0  0  0
   22.6967   -4.9071  -13.7675 O   0  0  0  0  0  0  0  0  0  0  0  0
   20.5918   -5.6695  -14.0227 O   0  0  0  0  0  0  0  0  0  0  0  0
  2  3  1  0
  2  1  1  6
  4  3  1  0
  5  4  2  0
  6  5  1  0
  7  6  1  0
  7  8  2  0
  8  4  1  0
  9  2  1  0
 10  9  2  0
 12 11  1  0
 13 12  2  0
 14 12  1  0
 15 14  1  1
 15 16  1  0
 16  9  1  0
 17 15  1  0
 17 18  2  0
 19 20  1  0
 20 21  1  0
 23 22  1  6
 22 21  1  0
 23 24  1  0
 24 17  1  0
 25 23  1  0
 26 25  2  0
 27 25  1  0
M  END
$$$$
