HNM.pdb
     RDKit          3D

 27 27  0  0  1  0  0  0  0  0999 V2000
   23.8327  -15.9760  -19.4599 N   0  0  0  0  0  0  0  0  0  0  0  0
   24.7011  -16.2469  -18.3451 C   0  0  1  0  0  0  0  0  0  0  0  0
   25.3905  -14.9643  -17.9091 C   0  0  0  0  0  0  0  0  0  0  0  0
   26.6486  -14.7441  -18.6493 C   0  0  0  0  0  0  0  0  0  0  0  0
   26.7578  -14.1192  -19.8572 C   0  0  0  0  0  0  0  0  0  0  0  0
   28.0608  -14.1184  -20.1932 N   0  0  0  0  0  0  0  0  0  0  0  0
   28.7354  -14.7313  -19.2087 C   0  0  0  0  0  0  0  0  0  0  0  0
   27.8747  -15.1158  -18.2620 N   0  0  0  0  0  0  0  0  0  0  0  0
   23.9111  -16.7561  -17.1941 C   0  0  0  0  0  0  0  0  0  0  0  0
   22.7901  -16.2146  -16.9643 O   0  0  0  0  0  0  0  0  0  0  0  0
   20.2475  -19.2962  -14.9213 N   0  0  0  0  0  0  0  0  0  0  0  0
   21.4830  -19.8973  -15.3386 C   0  0  0  0  0  0  0  0  0  0  0  0
   21.7432  -21.0450  -14.9392 O   0  0  0  0  0  0  0  0  0  0  0  0
   22.3425  -19.0744  -16.2207 C   0  0  0  0  0  0  0  0  0  0  0  0
   23.5092  -18.4772  -15.4613 C   0  0  2  0  0  0  0  0  0  0  0  0
   24.3952  -17.8080  -16.3851 N   0  0  0  0  0  0  0  0  0  0  0  0
   24.2804  -19.5269  -14.7476 C   0  0  0  0  0  0  0  0  0  0  0  0
   25.0448  -20.2665  -15.4472 O   0  0  0  0  0  0  0  0  0  0  0  0
   24.1214  -20.5345   -8.1492 C   0  0  0  0  0  0  0  0  0  0  0  0
   25.8212  -20.8148   -8.5820 S   0  0  0  0  0  0  0  0  0  0  0  0
   26.0526  -21.0880  -10.3356 C   0  0  0  0  0  0  0  0  0  0  0  0
   25.1315  -20.3512  -11.2212 C   0  0  0  0  0  0  0  0  0  0  0  0
   25.2921  -20.5037  -12.6900 C   0  0  2  0  0  0  0  0  0  0  0  0
   24.2145  -19.7450  -13.3695 N   0  0  0  0  0  0  0  0  0  0  0  0
   25.0922  -21.8974  -13.1477 C   0  0  0  0  0  0  0  0  0  0  0  0
   23.9492  -22.3242  -13.3994 O   0  0  0  0  0  0  0  0  0  0  0  0
   26.1606  -22.7443  -13.3005 O   0  0  0  0  0  0  0  0  0  0  0  0
  2  3  1  0
  2  1  1  6
  4  3  1  0
  5  4  2  0
  6  5  1  0
  7  6  1  0
  7  8  2  0
  8  4  1  0
  9  2  1  0
 10  9  2  0
 12 11  1  0
 13 12  2  0
 14 12  1  0
 15 14  1  6
 15 16  1  0
 16  9  1  0
 17 15  1  0
 17 18  2  0
 19 20  1  0
 20 21  1  0
 23 22  1  1
 22 21  1  0
 23 24  1  0
 24 17  1  0
 25 23  1  0
 26 25  2  0
 27 25  1  0
M  END
$$$$
