HNM.pdb
     RDKit          3D

 27 27  0  0  1  0  0  0  0  0999 V2000
   21.8295  -13.0690  -17.6135 N   0  0  0  0  0  0  0  0  0  0  0  0
   21.9367  -12.4279  -16.3299 C   0  0  1  0  0  0  0  0  0  0  0  0
   23.3984  -12.3381  -15.9225 C   0  0  0  0  0  0  0  0  0  0  0  0
   23.9864  -13.6749  -15.7073 C   0  0  0  0  0  0  0  0  0  0  0  0
   23.2971  -14.7936  -15.3405 C   0  0  0  0  0  0  0  0  0  0  0  0
   24.1844  -15.8010  -15.2492 N   0  0  0  0  0  0  0  0  0  0  0  0
   25.3939  -15.3071  -15.5547 C   0  0  0  0  0  0  0  0  0  0  0  0
   25.2769  -14.0061  -15.8356 N   0  0  0  0  0  0  0  0  0  0  0  0
   21.3960  -11.0456  -16.4024 C   0  0  0  0  0  0  0  0  0  0  0  0
   21.6483  -10.3689  -17.4421 O   0  0  0  0  0  0  0  0  0  0  0  0
   17.8890  -10.2154  -16.5964 N   0  0  0  0  0  0  0  0  0  0  0  0
   17.6483   -9.6555  -15.2961 C   0  0  0  0  0  0  0  0  0  0  0  0
   16.4917   -9.6955  -14.8434 O   0  0  0  0  0  0  0  0  0  0  0  0
   18.8249   -9.0741  -14.6093 C   0  0  0  0  0  0  0  0  0  0  0  0
   20.0734   -9.1773  -15.4607 C   0  0  2  0  0  0  0  0  0  0  0  0
   20.6271  -10.5066  -15.3471 N   0  0  0  0  0  0  0  0  0  0  0  0
   21.1040   -8.2005  -15.0250 C   0  0  0  0  0  0  0  0  0  0  0  0
   21.8102   -8.5102  -14.0120 O   0  0  0  0  0  0  0  0  0  0  0  0
   26.0213   -2.4519  -17.2528 C   0  0  0  0  0  0  0  0  0  0  0  0
   24.7499   -3.6383  -17.6146 S   0  0  0  0  0  0  0  0  0  0  0  0
   24.0791   -4.4042  -16.1425 C   0  0  0  0  0  0  0  0  0  0  0  0
   23.0529   -5.4379  -16.3745 C   0  0  0  0  0  0  0  0  0  0  0  0
   22.4485   -6.1089  -15.1952 C   0  0  2  0  0  0  0  0  0  0  0  0
   21.3384   -6.9769  -15.6565 N   0  0  0  0  0  0  0  0  0  0  0  0
   21.7973   -5.1587  -14.2652 C   0  0  0  0  0  0  0  0  0  0  0  0
   22.4691   -4.5399  -13.4179 O   0  0  0  0  0  0  0  0  0  0  0  0
   20.4433   -4.9444  -14.3175 O   0  0  0  0  0  0  0  0  0  0  0  0
  2  3  1  0
  2  1  1  6
  4  3  1  0
  5  4  2  0
  6  5  1  0
  7  6  1  0
  7  8  2  0
  8  4  1  0
  9  2  1  0
 10  9  2  0
 12 11  1  0
 13 12  2  0
 14 12  1  0
 15 14  1  1
 15 16  1  0
 16  9  1  0
 17 15  1  0
 17 18  2  0
 19 20  1  0
 20 21  1  0
 23 22  1  6
 22 21  1  0
 23 24  1  0
 24 17  1  0
 25 23  1  0
 26 25  2  0
 27 25  1  0
M  END
$$$$
