HNM.pdb
     RDKit          3D

 27 27  0  0  1  0  0  0  0  0999 V2000
   26.9273  -19.2497  -19.4618 N   0  0  0  0  0  0  0  0  0  0  0  0
   27.1016  -19.7936  -18.1412 C   0  0  1  0  0  0  0  0  0  0  0  0
   27.2450  -18.6624  -17.1360 C   0  0  0  0  0  0  0  0  0  0  0  0
   28.4344  -17.8339  -17.4153 C   0  0  0  0  0  0  0  0  0  0  0  0
   29.3078  -18.0239  -18.4459 C   0  0  0  0  0  0  0  0  0  0  0  0
   30.2494  -17.0668  -18.3569 N   0  0  0  0  0  0  0  0  0  0  0  0
   29.9568  -16.3058  -17.2914 C   0  0  0  0  0  0  0  0  0  0  0  0
   28.8466  -16.7720  -16.7124 N   0  0  0  0  0  0  0  0  0  0  0  0
   25.9120  -20.5978  -17.7588 C   0  0  0  0  0  0  0  0  0  0  0  0
   24.7732  -20.0583  -17.8802 O   0  0  0  0  0  0  0  0  0  0  0  0
   26.2444  -25.9689  -16.1587 N   0  0  0  0  0  0  0  0  0  0  0  0
   26.3543  -24.6832  -16.7887 C   0  0  0  0  0  0  0  0  0  0  0  0
   27.4619  -24.1195  -16.7857 O   0  0  0  0  0  0  0  0  0  0  0  0
   25.1131  -24.1449  -17.3916 C   0  0  0  0  0  0  0  0  0  0  0  0
   24.8740  -22.7063  -16.9820 C   0  0  2  0  0  0  0  0  0  0  0  0
   26.0483  -21.9186  -17.2767 N   0  0  0  0  0  0  0  0  0  0  0  0
   24.5906  -22.6009  -15.5278 C   0  0  0  0  0  0  0  0  0  0  0  0
   25.5400  -22.8797  -14.7267 O   0  0  0  0  0  0  0  0  0  0  0  0
   25.6974  -20.4627   -8.9867 C   0  0  0  0  0  0  0  0  0  0  0  0
   25.5415  -20.2724  -10.7459 S   0  0  0  0  0  0  0  0  0  0  0  0
   24.2032  -21.2437  -11.4308 C   0  0  0  0  0  0  0  0  0  0  0  0
   24.2464  -21.4456  -12.8912 C   0  0  0  0  0  0  0  0  0  0  0  0
   23.1516  -22.2212  -13.5288 C   0  0  2  0  0  0  0  0  0  0  0  0
   23.3566  -22.2181  -14.9973 N   0  0  0  0  0  0  0  0  0  0  0  0
   21.8234  -21.5917  -13.3513 C   0  0  0  0  0  0  0  0  0  0  0  0
   21.3294  -20.8888  -14.2535 O   0  0  0  0  0  0  0  0  0  0  0  0
   21.1142  -21.7686  -12.1903 O   0  0  0  0  0  0  0  0  0  0  0  0
  2  3  1  0
  2  1  1  6
  4  3  1  0
  5  4  2  0
  6  5  1  0
  7  6  1  0
  7  8  2  0
  8  4  1  0
  9  2  1  0
 10  9  2  0
 12 11  1  0
 13 12  2  0
 14 12  1  0
 15 14  1  1
 15 16  1  0
 16  9  1  0
 17 15  1  0
 17 18  2  0
 19 20  1  0
 20 21  1  0
 23 22  1  1
 22 21  1  0
 23 24  1  0
 24 17  1  0
 25 23  1  0
 26 25  2  0
 27 25  1  0
M  END
$$$$
