HNM.pdb
     RDKit          3D

 27 27  0  0  1  0  0  0  0  0999 V2000
   19.8955  -19.8557  -13.9458 N   0  0  0  0  0  0  0  0  0  0  0  0
   21.2355  -19.3328  -13.9094 C   0  0  1  0  0  0  0  0  0  0  0  0
   21.2347  -17.9671  -13.2421 C   0  0  0  0  0  0  0  0  0  0  0  0
   20.6366  -16.9362  -14.1130 C   0  0  0  0  0  0  0  0  0  0  0  0
   19.4220  -16.3450  -13.9215 C   0  0  0  0  0  0  0  0  0  0  0  0
   19.2403  -15.4656  -14.9236 N   0  0  0  0  0  0  0  0  0  0  0  0
   20.3238  -15.5183  -15.7130 C   0  0  0  0  0  0  0  0  0  0  0  0
   21.1808  -16.4172  -15.2203 N   0  0  0  0  0  0  0  0  0  0  0  0
   22.1128  -20.2305  -13.1140 C   0  0  0  0  0  0  0  0  0  0  0  0
   21.6509  -20.6967  -12.0315 O   0  0  0  0  0  0  0  0  0  0  0  0
   22.7954  -23.2793  -14.0728 N   0  0  0  0  0  0  0  0  0  0  0  0
   24.2030  -23.3581  -14.3454 C   0  0  0  0  0  0  0  0  0  0  0  0
   24.6082  -24.2677  -15.0890 O   0  0  0  0  0  0  0  0  0  0  0  0
   25.0501  -22.3280  -13.7008 C   0  0  0  0  0  0  0  0  0  0  0  0
   24.2424  -21.4448  -12.7723 C   0  0  2  0  0  0  0  0  0  0  0  0
   23.4168  -20.5519  -13.5518 N   0  0  0  0  0  0  0  0  0  0  0  0
   25.1267  -20.6277  -11.9027 C   0  0  0  0  0  0  0  0  0  0  0  0
   25.5235  -19.5084  -12.3613 O   0  0  0  0  0  0  0  0  0  0  0  0
   29.0369  -19.8688   -5.0234 C   0  0  0  0  0  0  0  0  0  0  0  0
   27.6919  -20.5488   -5.9635 S   0  0  0  0  0  0  0  0  0  0  0  0
   27.8060  -20.1688   -7.7087 C   0  0  0  0  0  0  0  0  0  0  0  0
   26.6497  -20.5809   -8.5265 C   0  0  0  0  0  0  0  0  0  0  0  0
   26.7002  -20.3404   -9.9914 C   0  0  2  0  0  0  0  0  0  0  0  0
   25.5419  -21.0140  -10.6262 N   0  0  0  0  0  0  0  0  0  0  0  0
   27.8764  -20.9673  -10.6360 C   0  0  0  0  0  0  0  0  0  0  0  0
   28.9843  -20.3977  -10.6241 O   0  0  0  0  0  0  0  0  0  0  0  0
   27.7674  -22.1843  -11.2596 O   0  0  0  0  0  0  0  0  0  0  0  0
  2  3  1  0
  2  1  1  1
  4  3  1  0
  5  4  2  0
  6  5  1  0
  7  6  1  0
  7  8  2  0
  8  4  1  0
  9  2  1  0
 10  9  2  0
 12 11  1  0
 13 12  2  0
 14 12  1  0
 15 14  1  6
 15 16  1  0
 16  9  1  0
 17 15  1  0
 17 18  2  0
 19 20  1  0
 20 21  1  0
 23 22  1  1
 22 21  1  0
 23 24  1  0
 24 17  1  0
 25 23  1  0
 26 25  2  0
 27 25  1  0
M  END
$$$$
