HNM.pdb
     RDKit          3D

 27 27  0  0  1  0  0  0  0  0999 V2000
   14.0449  -22.3361    0.6070 N   0  0  0  0  0  0  0  0  0  0  0  0
   14.7325  -22.2540    1.8683 C   0  0  1  0  0  0  0  0  0  0  0  0
   16.0924  -22.9236    1.7550 C   0  0  0  0  0  0  0  0  0  0  0  0
   15.9686  -24.3892    1.6299 C   0  0  0  0  0  0  0  0  0  0  0  0
   16.0662  -25.0959    0.4670 C   0  0  0  0  0  0  0  0  0  0  0  0
   15.8979  -26.3958    0.7710 N   0  0  0  0  0  0  0  0  0  0  0  0
   15.7010  -26.4821    2.0953 C   0  0  0  0  0  0  0  0  0  0  0  0
   15.7436  -25.2561    2.6246 N   0  0  0  0  0  0  0  0  0  0  0  0
   14.9520  -20.8318    2.2389 C   0  0  0  0  0  0  0  0  0  0  0  0
   14.5030  -19.9437    1.4563 O   0  0  0  0  0  0  0  0  0  0  0  0
   15.6474  -16.5311    4.5617 N   0  0  0  0  0  0  0  0  0  0  0  0
   14.3481  -17.0940    4.3226 C   0  0  0  0  0  0  0  0  0  0  0  0
   13.3533  -16.3668    4.4834 O   0  0  0  0  0  0  0  0  0  0  0  0
   14.3209  -18.5134    3.9000 C   0  0  0  0  0  0  0  0  0  0  0  0
   15.7152  -19.1019    3.8362 C   0  0  2  0  0  0  0  0  0  0  0  0
   15.6378  -20.4840    3.4239 N   0  0  0  0  0  0  0  0  0  0  0  0
   16.3848  -19.0437    5.1606 C   0  0  0  0  0  0  0  0  0  0  0  0
   15.9465  -19.8186    6.0706 O   0  0  0  0  0  0  0  0  0  0  0  0
   22.2249  -21.8978    7.4388 C   0  0  0  0  0  0  0  0  0  0  0  0
   21.7485  -20.2980    6.8316 S   0  0  0  0  0  0  0  0  0  0  0  0
   20.0064  -19.9600    7.0654 C   0  0  0  0  0  0  0  0  0  0  0  0
   19.5431  -18.6455    6.5828 C   0  0  0  0  0  0  0  0  0  0  0  0
   18.1166  -18.2831    6.7836 C   0  0  2  0  0  0  0  0  0  0  0  0
   17.4548  -18.1970    5.4595 N   0  0  0  0  0  0  0  0  0  0  0  0
   17.9435  -16.9301    7.3591 C   0  0  0  0  0  0  0  0  0  0  0  0
   17.7288  -15.9499    6.6207 O   0  0  0  0  0  0  0  0  0  0  0  0
   18.0189  -16.7307    8.7143 O   0  0  0  0  0  0  0  0  0  0  0  0
  2  3  1  0
  2  1  1  6
  4  3  1  0
  5  4  2  0
  6  5  1  0
  7  6  1  0
  7  8  2  0
  8  4  1  0
  9  2  1  0
 10  9  2  0
 12 11  1  0
 13 12  2  0
 14 12  1  0
 15 14  1  1
 15 16  1  0
 16  9  1  0
 17 15  1  0
 17 18  2  0
 19 20  1  0
 20 21  1  0
 23 22  1  6
 22 21  1  0
 23 24  1  0
 24 17  1  0
 25 23  1  0
 26 25  2  0
 27 25  1  0
M  END
$$$$
