HNM.pdb
     RDKit          3D

 27 27  0  0  1  0  0  0  0  0999 V2000
   16.5343  -14.3072    7.1122 N   0  0  0  0  0  0  0  0  0  0  0  0
   17.2269  -15.1053    6.1357 C   0  0  1  0  0  0  0  0  0  0  0  0
   18.6997  -15.1968    6.5002 C   0  0  0  0  0  0  0  0  0  0  0  0
   19.3896  -13.9063    6.3060 C   0  0  0  0  0  0  0  0  0  0  0  0
   19.9508  -13.1517    7.2943 C   0  0  0  0  0  0  0  0  0  0  0  0
   20.4773  -12.0573    6.7149 N   0  0  0  0  0  0  0  0  0  0  0  0
   20.2422  -12.1415    5.3968 C   0  0  0  0  0  0  0  0  0  0  0  0
   19.5767  -13.2718    5.1424 N   0  0  0  0  0  0  0  0  0  0  0  0
   16.6733  -16.4843    6.1174 C   0  0  0  0  0  0  0  0  0  0  0  0
   15.8456  -16.7981    7.0224 O   0  0  0  0  0  0  0  0  0  0  0  0
   15.3515  -21.1356    4.7424 N   0  0  0  0  0  0  0  0  0  0  0  0
   15.3641  -20.3442    3.5443 C   0  0  0  0  0  0  0  0  0  0  0  0
   14.8520  -20.8224    2.5179 O   0  0  0  0  0  0  0  0  0  0  0  0
   15.9987  -19.0101    3.6515 C   0  0  0  0  0  0  0  0  0  0  0  0
   16.4371  -18.7149    5.0711 C   0  0  2  0  0  0  0  0  0  0  0  0
   17.0580  -17.4118    5.1238 N   0  0  0  0  0  0  0  0  0  0  0  0
   17.4172  -19.7220    5.5519 C   0  0  0  0  0  0  0  0  0  0  0  0
   18.6223  -19.5962    5.1610 O   0  0  0  0  0  0  0  0  0  0  0  0
   21.5985  -23.5684    3.0036 C   0  0  0  0  0  0  0  0  0  0  0  0
   19.8829  -23.8707    3.3504 S   0  0  0  0  0  0  0  0  0  0  0  0
   19.4292  -23.4376    5.0268 C   0  0  0  0  0  0  0  0  0  0  0  0
   18.3886  -22.4004    5.1564 C   0  0  0  0  0  0  0  0  0  0  0  0
   18.0185  -21.9388    6.5189 C   0  0  2  0  0  0  0  0  0  0  0  0
   17.0946  -20.7854    6.3980 N   0  0  0  0  0  0  0  0  0  0  0  0
   19.1708  -21.3969    7.2742 C   0  0  0  0  0  0  0  0  0  0  0  0
   20.0620  -22.1555    7.7013 O   0  0  0  0  0  0  0  0  0  0  0  0
   19.2769  -20.0514    7.5196 O   0  0  0  0  0  0  0  0  0  0  0  0
  2  3  1  0
  2  1  1  1
  4  3  1  0
  5  4  2  0
  6  5  1  0
  7  6  1  0
  7  8  2  0
  8  4  1  0
  9  2  1  0
 10  9  2  0
 12 11  1  0
 13 12  2  0
 14 12  1  0
 15 14  1  6
 15 16  1  0
 16  9  1  0
 17 15  1  0
 17 18  2  0
 19 20  1  0
 20 21  1  0
 23 22  1  6
 22 21  1  0
 23 24  1  0
 24 17  1  0
 25 23  1  0
 26 25  2  0
 27 25  1  0
M  END
$$$$
