HNM.pdb
     RDKit          3D

 27 27  0  0  1  0  0  0  0  0999 V2000
   26.2509  -18.1583  -17.3809 N   0  0  0  0  0  0  0  0  0  0  0  0
   27.4013  -18.6651  -16.6809 C   0  0  1  0  0  0  0  0  0  0  0  0
   28.2106  -17.5073  -16.1195 C   0  0  0  0  0  0  0  0  0  0  0  0
   28.6219  -16.5663  -17.1798 C   0  0  0  0  0  0  0  0  0  0  0  0
   28.2823  -15.2464  -17.2429 C   0  0  0  0  0  0  0  0  0  0  0  0
   28.8501  -14.7375  -18.3515 N   0  0  0  0  0  0  0  0  0  0  0  0
   29.5244  -15.7280  -18.9550 C   0  0  0  0  0  0  0  0  0  0  0  0
   29.3872  -16.8489  -18.2409 N   0  0  0  0  0  0  0  0  0  0  0  0
   26.9717  -19.5179  -15.5423 C   0  0  0  0  0  0  0  0  0  0  0  0
   27.8733  -20.0967  -14.8678 O   0  0  0  0  0  0  0  0  0  0  0  0
   25.9617  -22.1401  -12.1509 N   0  0  0  0  0  0  0  0  0  0  0  0
   26.2547  -20.7747  -11.8167 C   0  0  0  0  0  0  0  0  0  0  0  0
   26.8052  -20.5408  -10.7274 O   0  0  0  0  0  0  0  0  0  0  0  0
   25.8642  -19.7597  -12.8224 C   0  0  0  0  0  0  0  0  0  0  0  0
   25.2171  -20.3975  -14.0344 C   0  0  2  0  0  0  0  0  0  0  0  0
   25.6045  -19.6765  -15.2244 N   0  0  0  0  0  0  0  0  0  0  0  0
   23.7357  -20.3703  -13.9302 C   0  0  0  0  0  0  0  0  0  0  0  0
   23.1410  -19.3229  -14.3424 O   0  0  0  0  0  0  0  0  0  0  0  0
   22.6901  -21.1401   -7.7236 C   0  0  0  0  0  0  0  0  0  0  0  0
   22.1592  -19.6958   -8.6110 S   0  0  0  0  0  0  0  0  0  0  0  0
   21.4497  -20.0864  -10.2070 C   0  0  0  0  0  0  0  0  0  0  0  0
   22.3881  -20.6374  -11.2027 C   0  0  0  0  0  0  0  0  0  0  0  0
   21.8406  -21.1209  -12.4961 C   0  0  2  0  0  0  0  0  0  0  0  0
   22.9688  -21.4163  -13.4118 N   0  0  0  0  0  0  0  0  0  0  0  0
   21.0600  -20.0863  -13.2118 C   0  0  0  0  0  0  0  0  0  0  0  0
   19.8888  -20.3118  -13.5716 O   0  0  0  0  0  0  0  0  0  0  0  0
   21.6124  -18.8626  -13.4940 O   0  0  0  0  0  0  0  0  0  0  0  0
  2  3  1  0
  2  1  1  1
  4  3  1  0
  5  4  2  0
  6  5  1  0
  7  6  1  0
  7  8  2  0
  8  4  1  0
  9  2  1  0
 10  9  2  0
 12 11  1  0
 13 12  2  0
 14 12  1  0
 15 14  1  1
 15 16  1  0
 16  9  1  0
 17 15  1  0
 17 18  2  0
 19 20  1  0
 20 21  1  0
 23 22  1  1
 22 21  1  0
 23 24  1  0
 24 17  1  0
 25 23  1  0
 26 25  2  0
 27 25  1  0
M  END
$$$$
