HNM.pdb
     RDKit          3D

 27 27  0  0  1  0  0  0  0  0999 V2000
   24.9247  -20.3024  -18.6618 N   0  0  0  0  0  0  0  0  0  0  0  0
   25.1880  -19.0350  -18.0337 C   0  0  1  0  0  0  0  0  0  0  0  0
   25.9305  -18.1280  -19.0014 C   0  0  0  0  0  0  0  0  0  0  0  0
   27.2660  -18.6626  -19.3326 C   0  0  0  0  0  0  0  0  0  0  0  0
   27.7155  -18.9482  -20.5886 C   0  0  0  0  0  0  0  0  0  0  0  0
   28.9733  -19.4113  -20.4700 N   0  0  0  0  0  0  0  0  0  0  0  0
   29.2868  -19.4087  -19.1655 C   0  0  0  0  0  0  0  0  0  0  0  0
   28.2444  -18.9511  -18.4661 N   0  0  0  0  0  0  0  0  0  0  0  0
   23.9099  -18.3692  -17.6711 C   0  0  0  0  0  0  0  0  0  0  0  0
   23.3117  -17.7131  -18.5735 O   0  0  0  0  0  0  0  0  0  0  0  0
   19.7533  -16.8405  -15.2985 N   0  0  0  0  0  0  0  0  0  0  0  0
   20.2864  -17.8076  -14.3806 C   0  0  0  0  0  0  0  0  0  0  0  0
   19.5972  -18.1277  -13.3973 O   0  0  0  0  0  0  0  0  0  0  0  0
   21.6312  -18.3387  -14.7022 C   0  0  0  0  0  0  0  0  0  0  0  0
   22.1205  -17.8383  -16.0455 C   0  0  2  0  0  0  0  0  0  0  0  0
   23.3819  -18.4657  -16.3645 N   0  0  0  0  0  0  0  0  0  0  0  0
   22.3185  -16.3664  -16.0318 C   0  0  0  0  0  0  0  0  0  0  0  0
   23.2584  -15.9108  -15.3040 O   0  0  0  0  0  0  0  0  0  0  0  0
   22.8860   -9.8911  -20.2310 C   0  0  0  0  0  0  0  0  0  0  0  0
   22.6714  -11.6435  -20.0350 S   0  0  0  0  0  0  0  0  0  0  0  0
   22.3468  -12.1153  -18.3393 C   0  0  0  0  0  0  0  0  0  0  0  0
   22.1719  -13.5607  -18.1035 C   0  0  0  0  0  0  0  0  0  0  0  0
   21.8567  -14.0176  -16.7257 C   0  0  2  0  0  0  0  0  0  0  0  0
   21.5408  -15.4658  -16.7633 N   0  0  0  0  0  0  0  0  0  0  0  0
   20.6274  -13.3969  -16.1821 C   0  0  0  0  0  0  0  0  0  0  0  0
   19.5344  -13.9909  -16.2492 O   0  0  0  0  0  0  0  0  0  0  0  0
   20.6689  -12.1565  -15.5975 O   0  0  0  0  0  0  0  0  0  0  0  0
  2  3  1  0
  2  1  1  6
  4  3  1  0
  5  4  2  0
  6  5  1  0
  7  6  1  0
  7  8  2  0
  8  4  1  0
  9  2  1  0
 10  9  2  0
 12 11  1  0
 13 12  2  0
 14 12  1  0
 15 14  1  1
 15 16  1  0
 16  9  1  0
 17 15  1  0
 17 18  2  0
 19 20  1  0
 20 21  1  0
 23 22  1  6
 22 21  1  0
 23 24  1  0
 24 17  1  0
 25 23  1  0
 26 25  2  0
 27 25  1  0
M  END
$$$$
