LKP.pdb
     RDKit          3D

 25 25  0  0  1  0  0  0  0  0999 V2000
    9.3947  -13.6860   20.1337 C   0  0  0  0  0  0  0  0  0  0  0  0
    8.1450  -13.6491   19.2799 C   0  0  2  0  0  0  0  0  0  0  0  0
    7.8358  -12.2366   18.8660 C   0  0  0  0  0  0  0  0  0  0  0  0
    6.9899  -14.3491   19.9189 C   0  0  0  0  0  0  0  0  0  0  0  0
    7.3041  -15.7080   20.4350 C   0  0  2  0  0  0  0  0  0  0  0  0
    6.5150  -16.7184   19.7669 N   0  0  0  0  0  0  0  0  0  0  0  0
    6.9607  -15.7227   21.8980 C   0  0  0  0  0  0  0  0  0  0  0  0
    5.7862  -15.4511   22.2203 O   0  0  0  0  0  0  0  0  0  0  0  0
    7.9330  -16.0325   22.8668 N   0  0  0  0  0  0  0  0  0  0  0  0
    7.5818  -16.2466   24.2630 C   0  0  1  0  0  0  0  0  0  0  0  0
    7.6620  -17.7400   24.5820 C   0  0  0  0  0  0  0  0  0  0  0  0
    7.4116  -17.8484   26.0680 C   0  0  0  0  0  0  0  0  0  0  0  0
    7.5288  -19.2232   26.6254 C   0  0  0  0  0  0  0  0  0  0  0  0
    7.2367  -19.1961   28.1071 C   0  0  0  0  0  0  0  0  0  0  0  0
    7.4447  -20.5603   28.6050 N   0  0  0  0  0  0  0  0  0  0  0  0
    8.5641  -15.5098   25.0912 C   0  0  0  0  0  0  0  0  0  0  0  0
    9.8166  -15.6730   24.8466 O   0  0  0  0  0  0  0  0  0  0  0  0
    8.1908  -14.6329   26.1371 N   0  0  0  0  0  0  0  0  0  0  0  0
    6.8258  -14.3167   26.5103 C   0  0  0  0  0  0  0  0  0  0  0  0
    6.9057  -12.8680   26.9891 C   0  0  0  0  0  0  0  0  0  0  0  0
    8.3326  -12.6566   27.3951 C   0  0  0  0  0  0  0  0  0  0  0  0
    9.0924  -13.8881   27.0131 C   0  0  1  0  0  0  0  0  0  0  0  0
    9.4281  -14.7559   28.1667 C   0  0  0  0  0  0  0  0  0  0  0  0
   10.4504  -14.4020   29.0142 O   0  0  0  0  0  0  0  0  0  0  0  0
    8.7911  -15.8305   28.3986 O   0  0  0  0  0  0  0  0  0  0  0  0
  2  1  1  1
  2  3  1  0
  4  2  1  0
  5  6  1  6
  5  4  1  0
  7  5  1  0
  8  7  2  0
  9  7  1  0
 10 11  1  1
 10  9  1  0
 11 12  1  0
 12 13  1  0
 13 14  1  0
 15 14  1  0
 16 17  2  0
 16 10  1  0
 18 16  1  0
 19 18  1  0
 20 21  1  0
 20 19  1  0
 21 22  1  0
 22 18  1  0
 22 23  1  1
 24 23  1  0
 25 23  2  0
M  END
$$$$
