LKP.pdb
     RDKit          3D

 25 25  0  0  1  0  0  0  0  0999 V2000
    9.7326  -13.4128   19.8687 C   0  0  0  0  0  0  0  0  0  0  0  0
    8.3237  -13.5251   19.3258 C   0  0  2  0  0  0  0  0  0  0  0  0
    7.8122  -12.1718   18.9148 C   0  0  0  0  0  0  0  0  0  0  0  0
    7.4054  -14.2528   20.2529 C   0  0  0  0  0  0  0  0  0  0  0  0
    7.9309  -15.5555   20.7413 C   0  0  2  0  0  0  0  0  0  0  0  0
    7.3940  -16.6581   19.9758 N   0  0  0  0  0  0  0  0  0  0  0  0
    7.4938  -15.7081   22.1710 C   0  0  0  0  0  0  0  0  0  0  0  0
    6.2687  -15.7736   22.3985 O   0  0  0  0  0  0  0  0  0  0  0  0
    8.4368  -15.7742   23.2132 N   0  0  0  0  0  0  0  0  0  0  0  0
    8.0674  -16.2035   24.5541 C   0  0  1  0  0  0  0  0  0  0  0  0
    7.8467  -17.7166   24.5585 C   0  0  0  0  0  0  0  0  0  0  0  0
    7.5760  -18.0799   25.9998 C   0  0  0  0  0  0  0  0  0  0  0  0
    7.4298  -19.5374   26.2627 C   0  0  0  0  0  0  0  0  0  0  0  0
    7.0338  -19.7553   27.7039 C   0  0  0  0  0  0  0  0  0  0  0  0
    6.9120  -21.2047   27.8954 N   0  0  0  0  0  0  0  0  0  0  0  0
    9.1893  -15.8640   25.4594 C   0  0  0  0  0  0  0  0  0  0  0  0
   10.3650  -16.2968   25.1670 O   0  0  0  0  0  0  0  0  0  0  0  0
    9.0303  -15.0841   26.6293 N   0  0  0  0  0  0  0  0  0  0  0  0
    7.7689  -14.5581   27.1135 C   0  0  0  0  0  0  0  0  0  0  0  0
    8.1551  -13.2347   27.7722 C   0  0  0  0  0  0  0  0  0  0  0  0
    9.6053  -13.3692   28.1249 C   0  0  0  0  0  0  0  0  0  0  0  0
   10.0877  -14.6619   27.5452 C   0  0  1  0  0  0  0  0  0  0  0  0
   10.2696  -15.7304   28.5560 C   0  0  0  0  0  0  0  0  0  0  0  0
   11.3599  -15.7027   29.3920 O   0  0  0  0  0  0  0  0  0  0  0  0
    9.4373  -16.6832   28.6742 O   0  0  0  0  0  0  0  0  0  0  0  0
  2  1  1  1
  2  3  1  0
  4  2  1  0
  5  6  1  6
  5  4  1  0
  7  5  1  0
  8  7  2  0
  9  7  1  0
 10 11  1  6
 10  9  1  0
 11 12  1  0
 12 13  1  0
 13 14  1  0
 15 14  1  0
 16 17  2  0
 16 10  1  0
 18 16  1  0
 19 18  1  0
 20 21  1  0
 20 19  1  0
 21 22  1  0
 22 18  1  0
 22 23  1  1
 24 23  1  0
 25 23  2  0
M  END
$$$$
