LKP.pdb
     RDKit          3D

 25 25  0  0  1  0  0  0  0  0999 V2000
    7.5840  -12.1651   19.1367 C   0  0  0  0  0  0  0  0  0  0  0  0
    8.0668  -13.3721   19.9129 C   0  0  2  0  0  0  0  0  0  0  0  0
    9.5654  -13.3486   20.0377 C   0  0  0  0  0  0  0  0  0  0  0  0
    7.5344  -14.6577   19.3685 C   0  0  0  0  0  0  0  0  0  0  0  0
    7.9285  -15.8636   20.1443 C   0  0  2  0  0  0  0  0  0  0  0  0
    7.3666  -17.0647   19.5685 N   0  0  0  0  0  0  0  0  0  0  0  0
    7.3839  -15.7000   21.5354 C   0  0  0  0  0  0  0  0  0  0  0  0
    6.1492  -15.5730   21.6631 O   0  0  0  0  0  0  0  0  0  0  0  0
    8.2403  -15.6911   22.6518 N   0  0  0  0  0  0  0  0  0  0  0  0
    7.7470  -15.9448   23.9975 C   0  0  1  0  0  0  0  0  0  0  0  0
    7.9821  -17.4130   24.3545 C   0  0  0  0  0  0  0  0  0  0  0  0
    7.5091  -17.5611   25.7817 C   0  0  0  0  0  0  0  0  0  0  0  0
    7.6707  -18.9236   26.3581 C   0  0  0  0  0  0  0  0  0  0  0  0
    7.0404  -18.9717   27.7299 C   0  0  0  0  0  0  0  0  0  0  0  0
    7.2951  -20.3131   28.2664 N   0  0  0  0  0  0  0  0  0  0  0  0
    8.5114  -15.0807   24.9263 C   0  0  0  0  0  0  0  0  0  0  0  0
    9.7873  -15.0037   24.7816 O   0  0  0  0  0  0  0  0  0  0  0  0
    7.9048  -14.3338   25.9638 N   0  0  0  0  0  0  0  0  0  0  0  0
    6.4928  -14.3603   26.2921 C   0  0  0  0  0  0  0  0  0  0  0  0
    6.2061  -12.9416   26.7816 C   0  0  0  0  0  0  0  0  0  0  0  0
    7.5265  -12.3988   27.2371 C   0  0  0  0  0  0  0  0  0  0  0  0
    8.5723  -13.4060   26.8742 C   0  0  1  0  0  0  0  0  0  0  0  0
    9.0704  -14.1833   28.0337 C   0  0  0  0  0  0  0  0  0  0  0  0
    9.9698  -13.6144   28.9030 O   0  0  0  0  0  0  0  0  0  0  0  0
    8.6859  -15.3748   28.2508 O   0  0  0  0  0  0  0  0  0  0  0  0
  2  1  1  6
  2  3  1  0
  4  2  1  0
  5  6  1  6
  5  4  1  0
  7  5  1  0
  8  7  2  0
  9  7  1  0
 10 11  1  1
 10  9  1  0
 11 12  1  0
 12 13  1  0
 13 14  1  0
 15 14  1  0
 16 17  2  0
 16 10  1  0
 18 16  1  0
 19 18  1  0
 20 21  1  0
 20 19  1  0
 21 22  1  0
 22 18  1  0
 22 23  1  1
 24 23  1  0
 25 23  2  0
M  END
$$$$
