LKP.pdb
     RDKit          3D

 25 25  0  0  1  0  0  0  0  0999 V2000
    9.3870  -12.8719   19.0220 C   0  0  0  0  0  0  0  0  0  0  0  0
    8.0035  -13.4677   19.1740 C   0  0  2  0  0  0  0  0  0  0  0  0
    6.9765  -12.5761   18.5318 C   0  0  0  0  0  0  0  0  0  0  0  0
    7.6819  -13.8237   20.5890 C   0  0  0  0  0  0  0  0  0  0  0  0
    8.6749  -14.7209   21.2378 C   0  0  2  0  0  0  0  0  0  0  0  0
    8.7180  -16.0120   20.5889 N   0  0  0  0  0  0  0  0  0  0  0  0
    8.2395  -14.9160   22.6628 C   0  0  0  0  0  0  0  0  0  0  0  0
    7.6416  -13.9733   23.2203 O   0  0  0  0  0  0  0  0  0  0  0  0
    8.4993  -16.1214   23.3407 N   0  0  0  0  0  0  0  0  0  0  0  0
    8.1575  -16.2998   24.7442 C   0  0  1  0  0  0  0  0  0  0  0  0
    7.6698  -17.7316   24.9685 C   0  0  0  0  0  0  0  0  0  0  0  0
    6.4783  -17.8991   24.0549 C   0  0  0  0  0  0  0  0  0  0  0  0
    5.8974  -19.2689   24.0259 C   0  0  0  0  0  0  0  0  0  0  0  0
    4.8178  -19.3395   22.9719 C   0  0  0  0  0  0  0  0  0  0  0  0
    4.4127  -20.7461   22.8738 N   0  0  0  0  0  0  0  0  0  0  0  0
    9.3850  -16.0644   25.5388 C   0  0  0  0  0  0  0  0  0  0  0  0
   10.4627  -16.6789   25.1980 O   0  0  0  0  0  0  0  0  0  0  0  0
    9.4298  -15.1940   26.6535 N   0  0  0  0  0  0  0  0  0  0  0  0
    8.3682  -14.2868   27.0438 C   0  0  0  0  0  0  0  0  0  0  0  0
    9.1108  -13.0947   27.6453 C   0  0  0  0  0  0  0  0  0  0  0  0
   10.4434  -13.6271   28.0767 C   0  0  0  0  0  0  0  0  0  0  0  0
   10.5362  -15.0412   27.5956 C   0  0  1  0  0  0  0  0  0  0  0  0
   10.3602  -16.0437   28.6729 C   0  0  0  0  0  0  0  0  0  0  0  0
   11.3778  -16.2720   29.5677 O   0  0  0  0  0  0  0  0  0  0  0  0
    9.2832  -16.7067   28.7954 O   0  0  0  0  0  0  0  0  0  0  0  0
  2  1  1  1
  2  3  1  0
  4  2  1  0
  5  6  1  6
  5  4  1  0
  7  5  1  0
  8  7  2  0
  9  7  1  0
 10 11  1  6
 10  9  1  0
 11 12  1  0
 12 13  1  0
 13 14  1  0
 15 14  1  0
 16 17  2  0
 16 10  1  0
 18 16  1  0
 19 18  1  0
 20 21  1  0
 20 19  1  0
 21 22  1  0
 22 18  1  0
 22 23  1  1
 24 23  1  0
 25 23  2  0
M  END
$$$$
