LKP.pdb
     RDKit          3D

 25 25  0  0  1  0  0  0  0  0999 V2000
    7.6589  -13.2498   27.0217 C   0  0  0  0  0  0  0  0  0  0  0  0
    8.1571  -14.4229   27.8389 C   0  0  2  0  0  0  0  0  0  0  0  0
    9.4095  -14.0481   28.5826 C   0  0  0  0  0  0  0  0  0  0  0  0
    8.2959  -15.6712   27.0296 C   0  0  0  0  0  0  0  0  0  0  0  0
    7.1117  -15.9940   26.1899 C   0  0  2  0  0  0  0  0  0  0  0  0
    6.4597  -17.2016   26.6445 N   0  0  0  0  0  0  0  0  0  0  0  0
    7.6031  -16.2148   24.7870 C   0  0  0  0  0  0  0  0  0  0  0  0
    8.0422  -17.3465   24.4982 O   0  0  0  0  0  0  0  0  0  0  0  0
    7.5673  -15.1785   23.8359 N   0  0  0  0  0  0  0  0  0  0  0  0
    8.0516  -15.3695   22.4766 C   0  0  1  0  0  0  0  0  0  0  0  0
    7.8041  -14.0959   21.6673 C   0  0  0  0  0  0  0  0  0  0  0  0
    8.4588  -14.3367   20.3272 C   0  0  0  0  0  0  0  0  0  0  0  0
    7.8925  -13.5457   19.2010 C   0  0  0  0  0  0  0  0  0  0  0  0
    8.6101  -13.9016   17.9204 C   0  0  0  0  0  0  0  0  0  0  0  0
    7.9504  -13.1551   16.8435 N   0  0  0  0  0  0  0  0  0  0  0  0
    9.5070  -15.6337   22.5514 C   0  0  0  0  0  0  0  0  0  0  0  0
   10.2120  -14.9497   23.3822 O   0  0  0  0  0  0  0  0  0  0  0  0
   10.1588  -16.6045   21.7545 N   0  0  0  0  0  0  0  0  0  0  0  0
    9.5218  -17.3951   20.7193 C   0  0  0  0  0  0  0  0  0  0  0  0
   10.2683  -18.7273   20.7676 C   0  0  0  0  0  0  0  0  0  0  0  0
   11.5987  -18.4207   21.3854 C   0  0  0  0  0  0  0  0  0  0  0  0
   11.5655  -16.9923   21.8307 C   0  0  1  0  0  0  0  0  0  0  0  0
   12.3381  -16.0823   20.9521 C   0  0  0  0  0  0  0  0  0  0  0  0
   11.7286  -15.4972   19.8683 O   0  0  0  0  0  0  0  0  0  0  0  0
   13.5622  -15.8238   21.1738 O   0  0  0  0  0  0  0  0  0  0  0  0
  2  1  1  6
  2  3  1  0
  4  2  1  0
  5  6  1  1
  5  4  1  0
  7  5  1  0
  8  7  2  0
  9  7  1  0
 10 11  1  6
 10  9  1  0
 11 12  1  0
 12 13  1  0
 13 14  1  0
 15 14  1  0
 16 17  2  0
 16 10  1  0
 18 16  1  0
 19 18  1  0
 20 21  1  0
 20 19  1  0
 21 22  1  0
 22 18  1  0
 22 23  1  6
 24 23  1  0
 25 23  2  0
M  END
$$$$
