LKP.pdb
     RDKit          3D

 25 25  0  0  1  0  0  0  0  0999 V2000
    5.6855  -12.8167   26.6778 C   0  0  0  0  0  0  0  0  0  0  0  0
    6.8947  -13.3240   27.4346 C   0  0  2  0  0  0  0  0  0  0  0  0
    7.8666  -12.2027   27.6798 C   0  0  0  0  0  0  0  0  0  0  0  0
    7.5161  -14.5210   26.7916 C   0  0  0  0  0  0  0  0  0  0  0  0
    6.5730  -15.3492   25.9939 C   0  0  2  0  0  0  0  0  0  0  0  0
    6.2436  -16.5778   26.6809 N   0  0  0  0  0  0  0  0  0  0  0  0
    7.2597  -15.6927   24.7021 C   0  0  0  0  0  0  0  0  0  0  0  0
    7.9077  -16.7581   24.6558 O   0  0  0  0  0  0  0  0  0  0  0  0
    7.1723  -14.8397   23.5865 N   0  0  0  0  0  0  0  0  0  0  0  0
    7.8462  -15.1463   22.3333 C   0  0  1  0  0  0  0  0  0  0  0  0
    7.6090  -14.0087   21.3394 C   0  0  0  0  0  0  0  0  0  0  0  0
    8.2500  -14.4616   20.0485 C   0  0  0  0  0  0  0  0  0  0  0  0
    8.0462  -13.5472   18.8921 C   0  0  0  0  0  0  0  0  0  0  0  0
    8.6084  -14.1793   17.6408 C   0  0  0  0  0  0  0  0  0  0  0  0
    8.4699  -13.1893   16.5670 N   0  0  0  0  0  0  0  0  0  0  0  0
    9.2950  -15.2605   22.6188 C   0  0  0  0  0  0  0  0  0  0  0  0
    9.8382  -14.3862   23.3906 O   0  0  0  0  0  0  0  0  0  0  0  0
   10.1099  -16.2869   22.0851 N   0  0  0  0  0  0  0  0  0  0  0  0
    9.6523  -17.3316   21.1899 C   0  0  0  0  0  0  0  0  0  0  0  0
   10.5177  -18.5346   21.5619 C   0  0  0  0  0  0  0  0  0  0  0  0
   11.7484  -17.9634   22.1979 C   0  0  0  0  0  0  0  0  0  0  0  0
   11.5346  -16.4889   22.3392 C   0  0  1  0  0  0  0  0  0  0  0  0
   12.2928  -15.6854   21.3514 C   0  0  0  0  0  0  0  0  0  0  0  0
   13.5617  -15.2515   21.6520 O   0  0  0  0  0  0  0  0  0  0  0  0
   11.7989  -15.3818   20.2208 O   0  0  0  0  0  0  0  0  0  0  0  0
  2  1  1  6
  2  3  1  0
  4  2  1  0
  5  6  1  1
  5  4  1  0
  7  5  1  0
  8  7  2  0
  9  7  1  0
 10 11  1  6
 10  9  1  0
 11 12  1  0
 12 13  1  0
 13 14  1  0
 15 14  1  0
 16 17  2  0
 16 10  1  0
 18 16  1  0
 19 18  1  0
 20 21  1  0
 20 19  1  0
 21 22  1  0
 22 18  1  0
 22 23  1  6
 24 23  1  0
 25 23  2  0
M  END
$$$$
