LKP.pdb
     RDKit          3D

 25 25  0  0  1  0  0  0  0  0999 V2000
    1.6487  -18.7086   20.8765 C   0  0  0  0  0  0  0  0  0  0  0  0
    2.4265  -19.6756   21.7438 C   0  0  2  0  0  0  0  0  0  0  0  0
    1.6878  -19.9376   23.0273 C   0  0  0  0  0  0  0  0  0  0  0  0
    3.8450  -19.2531   21.9484 C   0  0  0  0  0  0  0  0  0  0  0  0
    4.5563  -18.8642   20.7015 C   0  0  2  0  0  0  0  0  0  0  0  0
    4.7500  -20.0023   19.8314 N   0  0  0  0  0  0  0  0  0  0  0  0
    5.9040  -18.3327   21.1010 C   0  0  0  0  0  0  0  0  0  0  0  0
    6.7904  -19.1610   21.3930 O   0  0  0  0  0  0  0  0  0  0  0  0
    6.1530  -16.9484   21.1428 N   0  0  0  0  0  0  0  0  0  0  0  0
    7.4299  -16.4132   21.5917 C   0  0  1  0  0  0  0  0  0  0  0  0
    7.4907  -14.9179   21.2775 C   0  0  0  0  0  0  0  0  0  0  0  0
    7.8550  -14.8283   19.8140 C   0  0  0  0  0  0  0  0  0  0  0  0
    8.0027  -13.4441   19.2877 C   0  0  0  0  0  0  0  0  0  0  0  0
    8.4550  -13.4950   17.8475 C   0  0  0  0  0  0  0  0  0  0  0  0
    8.5102  -12.1084   17.3715 N   0  0  0  0  0  0  0  0  0  0  0  0
    7.5115  -16.6152   23.0567 C   0  0  0  0  0  0  0  0  0  0  0  0
    6.4302  -16.5282   23.7482 O   0  0  0  0  0  0  0  0  0  0  0  0
    8.7216  -16.9017   23.7317 N   0  0  0  0  0  0  0  0  0  0  0  0
   10.0345  -16.9154   23.1163 C   0  0  0  0  0  0  0  0  0  0  0  0
   10.7867  -17.9989   23.8875 C   0  0  0  0  0  0  0  0  0  0  0  0
   10.0871  -18.1119   25.2079 C   0  0  0  0  0  0  0  0  0  0  0  0
    8.8715  -17.2412   25.1450 C   0  0  1  0  0  0  0  0  0  0  0  0
    9.0112  -15.9770   25.9058 C   0  0  0  0  0  0  0  0  0  0  0  0
    8.7988  -15.9686   27.2634 O   0  0  0  0  0  0  0  0  0  0  0  0
    9.3253  -14.8870   25.3332 O   0  0  0  0  0  0  0  0  0  0  0  0
  2  1  1  1
  2  3  1  0
  4  2  1  0
  5  6  1  6
  5  4  1  0
  7  5  1  0
  8  7  2  0
  9  7  1  0
 10 11  1  1
 10  9  1  0
 11 12  1  0
 12 13  1  0
 13 14  1  0
 15 14  1  0
 16 17  2  0
 16 10  1  0
 18 16  1  0
 19 18  1  0
 20 21  1  0
 20 19  1  0
 21 22  1  0
 22 18  1  0
 22 23  1  1
 24 23  1  0
 25 23  2  0
M  END
$$$$
