LKP.pdb
     RDKit          3D

 25 25  0  0  1  0  0  0  0  0999 V2000
    8.3611  -13.1350   21.1599 C   0  0  0  0  0  0  0  0  0  0  0  0
    8.3844  -13.5101   19.6933 C   0  0  2  0  0  0  0  0  0  0  0  0
    8.0301  -12.3208   18.8435 C   0  0  0  0  0  0  0  0  0  0  0  0
    7.5619  -14.7214   19.3954 C   0  0  0  0  0  0  0  0  0  0  0  0
    7.9070  -15.9147   20.2131 C   0  0  2  0  0  0  0  0  0  0  0  0
    7.3005  -17.1120   19.6758 N   0  0  0  0  0  0  0  0  0  0  0  0
    7.3653  -15.6832   21.5956 C   0  0  0  0  0  0  0  0  0  0  0  0
    6.1393  -15.4819   21.7115 O   0  0  0  0  0  0  0  0  0  0  0  0
    8.2149  -15.6939   22.7172 N   0  0  0  0  0  0  0  0  0  0  0  0
    7.7138  -15.9738   24.0548 C   0  0  1  0  0  0  0  0  0  0  0  0
    7.8894  -17.4618   24.3603 C   0  0  0  0  0  0  0  0  0  0  0  0
    7.3538  -17.6516   25.7601 C   0  0  0  0  0  0  0  0  0  0  0  0
    7.9391  -18.7987   26.5058 C   0  0  0  0  0  0  0  0  0  0  0  0
    7.2973  -18.8973   27.8696 C   0  0  0  0  0  0  0  0  0  0  0  0
    7.8063  -20.1256   28.4896 N   0  0  0  0  0  0  0  0  0  0  0  0
    8.5142  -15.1742   25.0107 C   0  0  0  0  0  0  0  0  0  0  0  0
    9.7971  -15.2403   24.9411 O   0  0  0  0  0  0  0  0  0  0  0  0
    7.9351  -14.3388   25.9952 N   0  0  0  0  0  0  0  0  0  0  0  0
    6.5150  -14.2368   26.2691 C   0  0  0  0  0  0  0  0  0  0  0  0
    6.3298  -12.7808   26.6936 C   0  0  0  0  0  0  0  0  0  0  0  0
    7.6736  -12.3295   27.1794 C   0  0  0  0  0  0  0  0  0  0  0  0
    8.6445  -13.4325   26.8954 C   0  0  1  0  0  0  0  0  0  0  0  0
    9.0347  -14.2002   28.1017 C   0  0  0  0  0  0  0  0  0  0  0  0
    8.5713  -15.4822   28.2761 O   0  0  0  0  0  0  0  0  0  0  0  0
    9.7942  -13.7025   28.9904 O   0  0  0  0  0  0  0  0  0  0  0  0
  2  1  1  1
  2  3  1  0
  4  2  1  0
  5  6  1  6
  5  4  1  0
  7  5  1  0
  8  7  2  0
  9  7  1  0
 10 11  1  1
 10  9  1  0
 11 12  1  0
 12 13  1  0
 13 14  1  0
 15 14  1  0
 16 17  2  0
 16 10  1  0
 18 16  1  0
 19 18  1  0
 20 21  1  0
 20 19  1  0
 21 22  1  0
 22 18  1  0
 22 23  1  1
 24 23  1  0
 25 23  2  0
M  END
$$$$
