LKP.pdb
     RDKit          3D

 25 25  0  0  1  0  0  0  0  0999 V2000
   15.1004  -19.1829   21.1588 C   0  0  0  0  0  0  0  0  0  0  0  0
   14.4831  -17.9792   20.4790 C   0  0  2  0  0  0  0  0  0  0  0  0
   15.4919  -17.3065   19.5892 C   0  0  0  0  0  0  0  0  0  0  0  0
   13.8246  -17.0475   21.4438 C   0  0  0  0  0  0  0  0  0  0  0  0
   12.8244  -17.6924   22.3357 C   0  0  2  0  0  0  0  0  0  0  0  0
   11.7872  -18.3493   21.5723 N   0  0  0  0  0  0  0  0  0  0  0  0
   12.1949  -16.6071   23.1628 C   0  0  0  0  0  0  0  0  0  0  0  0
   12.9552  -15.8002   23.7354 O   0  0  0  0  0  0  0  0  0  0  0  0
   10.7966  -16.5083   23.2844 N   0  0  0  0  0  0  0  0  0  0  0  0
   10.1722  -15.5635   24.1988 C   0  0  1  0  0  0  0  0  0  0  0  0
    8.7093  -15.3647   23.8005 C   0  0  0  0  0  0  0  0  0  0  0  0
    8.7470  -14.6069   22.4940 C   0  0  0  0  0  0  0  0  0  0  0  0
    7.4282  -14.4459   21.8237 C   0  0  0  0  0  0  0  0  0  0  0  0
    7.6268  -13.8469   20.4514 C   0  0  0  0  0  0  0  0  0  0  0  0
    6.2993  -13.7523   19.8342 N   0  0  0  0  0  0  0  0  0  0  0  0
   10.2405  -16.1438   25.5598 C   0  0  0  0  0  0  0  0  0  0  0  0
   10.5485  -17.3869   25.6810 O   0  0  0  0  0  0  0  0  0  0  0  0
    9.9856  -15.3954   26.7333 N   0  0  0  0  0  0  0  0  0  0  0  0
    9.2208  -14.1646   26.7855 C   0  0  0  0  0  0  0  0  0  0  0  0
    9.8873  -13.3692   27.9068 C   0  0  0  0  0  0  0  0  0  0  0  0
   10.5713  -14.3859   28.7695 C   0  0  0  0  0  0  0  0  0  0  0  0
   10.4447  -15.7103   28.0843 C   0  0  1  0  0  0  0  0  0  0  0  0
    9.4424  -16.6050   28.7100 C   0  0  0  0  0  0  0  0  0  0  0  0
    9.7301  -17.2274   29.9010 O   0  0  0  0  0  0  0  0  0  0  0  0
    8.3111  -16.8165   28.1717 O   0  0  0  0  0  0  0  0  0  0  0  0
  2  1  1  1
  2  3  1  0
  4  2  1  0
  5  6  1  6
  5  4  1  0
  7  5  1  0
  8  7  2  0
  9  7  1  0
 10 11  1  6
 10  9  1  0
 11 12  1  0
 12 13  1  0
 13 14  1  0
 15 14  1  0
 16 17  2  0
 16 10  1  0
 18 16  1  0
 19 18  1  0
 20 21  1  0
 20 19  1  0
 21 22  1  0
 22 18  1  0
 22 23  1  1
 24 23  1  0
 25 23  2  0
M  END
$$$$
