LKP.pdb
     RDKit          3D

 25 25  0  0  1  0  0  0  0  0999 V2000
    5.5183  -12.7834   26.4253 C   0  0  0  0  0  0  0  0  0  0  0  0
    6.6315  -13.3379   27.2888 C   0  0  2  0  0  0  0  0  0  0  0  0
    7.5490  -12.2321   27.7332 C   0  0  0  0  0  0  0  0  0  0  0  0
    7.3452  -14.4814   26.6443 C   0  0  0  0  0  0  0  0  0  0  0  0
    6.4949  -15.3107   25.7493 C   0  0  2  0  0  0  0  0  0  0  0  0
    6.1904  -16.5892   26.3515 N   0  0  0  0  0  0  0  0  0  0  0  0
    7.2731  -15.5501   24.4862 C   0  0  0  0  0  0  0  0  0  0  0  0
    8.0319  -16.5401   24.4519 O   0  0  0  0  0  0  0  0  0  0  0  0
    7.1473  -14.6853   23.3834 N   0  0  0  0  0  0  0  0  0  0  0  0
    7.8584  -14.9260   22.1364 C   0  0  1  0  0  0  0  0  0  0  0  0
    7.7964  -13.6693   21.2674 C   0  0  0  0  0  0  0  0  0  0  0  0
    8.5926  -13.9981   20.0263 C   0  0  0  0  0  0  0  0  0  0  0  0
    7.8948  -13.7209   18.7414 C   0  0  0  0  0  0  0  0  0  0  0  0
    8.7082  -14.2713   17.5938 C   0  0  0  0  0  0  0  0  0  0  0  0
    8.0736  -13.7973   16.3590 N   0  0  0  0  0  0  0  0  0  0  0  0
    9.2690  -15.2253   22.4744 C   0  0  0  0  0  0  0  0  0  0  0  0
    9.8474  -14.5129   23.3761 O   0  0  0  0  0  0  0  0  0  0  0  0
   10.0103  -16.2591   21.8547 N   0  0  0  0  0  0  0  0  0  0  0  0
    9.5207  -17.1085   20.7865 C   0  0  0  0  0  0  0  0  0  0  0  0
   10.2144  -18.4463   21.0382 C   0  0  0  0  0  0  0  0  0  0  0  0
   11.4405  -18.1199   21.8355 C   0  0  0  0  0  0  0  0  0  0  0  0
   11.3771  -16.6638   22.1757 C   0  0  1  0  0  0  0  0  0  0  0  0
   12.3010  -15.8293   21.3715 C   0  0  0  0  0  0  0  0  0  0  0  0
   13.5443  -15.5150   21.8654 O   0  0  0  0  0  0  0  0  0  0  0  0
   11.9738  -15.3902   20.2249 O   0  0  0  0  0  0  0  0  0  0  0  0
  2  1  1  6
  2  3  1  0
  4  2  1  0
  5  6  1  1
  5  4  1  0
  7  5  1  0
  8  7  2  0
  9  7  1  0
 10 11  1  6
 10  9  1  0
 11 12  1  0
 12 13  1  0
 13 14  1  0
 15 14  1  0
 16 17  2  0
 16 10  1  0
 18 16  1  0
 19 18  1  0
 20 21  1  0
 20 19  1  0
 21 22  1  0
 22 18  1  0
 22 23  1  6
 24 23  1  0
 25 23  2  0
M  END
$$$$
