LKP.pdb
     RDKit          3D

 25 25  0  0  1  0  0  0  0  0999 V2000
    9.4535  -12.9037   19.0332 C   0  0  0  0  0  0  0  0  0  0  0  0
    7.9548  -13.1188   19.0249 C   0  0  2  0  0  0  0  0  0  0  0  0
    7.2531  -11.8919   18.5109 C   0  0  0  0  0  0  0  0  0  0  0  0
    7.4340  -13.5953   20.3417 C   0  0  0  0  0  0  0  0  0  0  0  0
    8.0863  -14.8316   20.8497 C   0  0  2  0  0  0  0  0  0  0  0  0
    7.7728  -15.9705   20.0163 N   0  0  0  0  0  0  0  0  0  0  0  0
    7.5503  -15.0870   22.2302 C   0  0  0  0  0  0  0  0  0  0  0  0
    6.6065  -14.3734   22.6266 O   0  0  0  0  0  0  0  0  0  0  0  0
    8.0968  -16.0967   23.0437 N   0  0  0  0  0  0  0  0  0  0  0  0
    7.6515  -16.3006   24.4143 C   0  0  1  0  0  0  0  0  0  0  0  0
    7.6717  -17.7953   24.7362 C   0  0  0  0  0  0  0  0  0  0  0  0
    7.4352  -17.8899   26.2254 C   0  0  0  0  0  0  0  0  0  0  0  0
    7.5217  -19.2647   26.7884 C   0  0  0  0  0  0  0  0  0  0  0  0
    7.2928  -19.2167   28.2807 C   0  0  0  0  0  0  0  0  0  0  0  0
    7.2598  -20.6065   28.7492 N   0  0  0  0  0  0  0  0  0  0  0  0
    8.5979  -15.5895   25.3044 C   0  0  0  0  0  0  0  0  0  0  0  0
    9.8561  -15.8236   25.1732 O   0  0  0  0  0  0  0  0  0  0  0  0
    8.1845  -14.6628   26.2907 N   0  0  0  0  0  0  0  0  0  0  0  0
    6.8076  -14.3047   26.5707 C   0  0  0  0  0  0  0  0  0  0  0  0
    6.8916  -12.8392   26.9947 C   0  0  0  0  0  0  0  0  0  0  0  0
    8.2972  -12.6392   27.4742 C   0  0  0  0  0  0  0  0  0  0  0  0
    9.0505  -13.9001   27.1870 C   0  0  1  0  0  0  0  0  0  0  0  0
    9.3003  -14.7257   28.3922 C   0  0  0  0  0  0  0  0  0  0  0  0
   10.3016  -14.3754   29.2658 O   0  0  0  0  0  0  0  0  0  0  0  0
    8.6077  -15.7605   28.6452 O   0  0  0  0  0  0  0  0  0  0  0  0
  2  1  1  1
  2  3  1  0
  4  2  1  0
  5  6  1  6
  5  4  1  0
  7  5  1  0
  8  7  2  0
  9  7  1  0
 10 11  1  1
 10  9  1  0
 11 12  1  0
 12 13  1  0
 13 14  1  0
 15 14  1  0
 16 17  2  0
 16 10  1  0
 18 16  1  0
 19 18  1  0
 20 21  1  0
 20 19  1  0
 21 22  1  0
 22 18  1  0
 22 23  1  1
 24 23  1  0
 25 23  2  0
M  END
$$$$
