LKP.pdb
     RDKit          3D

 25 25  0  0  1  0  0  0  0  0999 V2000
    9.7272  -13.4882   19.1707 C   0  0  0  0  0  0  0  0  0  0  0  0
    8.2208  -13.5126   19.0215 C   0  0  2  0  0  0  0  0  0  0  0  0
    7.7315  -12.2141   18.4415 C   0  0  0  0  0  0  0  0  0  0  0  0
    7.5232  -13.9015   20.2843 C   0  0  0  0  0  0  0  0  0  0  0  0
    8.0318  -15.1526   20.9072 C   0  0  2  0  0  0  0  0  0  0  0  0
    7.6002  -16.3188   20.1698 N   0  0  0  0  0  0  0  0  0  0  0  0
    7.4616  -15.2265   22.2956 C   0  0  0  0  0  0  0  0  0  0  0  0
    6.5093  -14.4691   22.5721 O   0  0  0  0  0  0  0  0  0  0  0  0
    7.9866  -16.1201   23.2472 N   0  0  0  0  0  0  0  0  0  0  0  0
    7.5320  -16.1206   24.6300 C   0  0  1  0  0  0  0  0  0  0  0  0
    7.5836  -17.5467   25.1795 C   0  0  0  0  0  0  0  0  0  0  0  0
    6.5515  -18.3194   24.3920 C   0  0  0  0  0  0  0  0  0  0  0  0
    6.5095  -19.7796   24.6760 C   0  0  0  0  0  0  0  0  0  0  0  0
    5.5809  -20.4597   23.6980 C   0  0  0  0  0  0  0  0  0  0  0  0
    5.7328  -21.9043   23.9039 N   0  0  0  0  0  0  0  0  0  0  0  0
    8.4522  -15.2574   25.4056 C   0  0  0  0  0  0  0  0  0  0  0  0
    9.7146  -15.3431   25.1731 O   0  0  0  0  0  0  0  0  0  0  0  0
    8.0090  -14.3409   26.3884 N   0  0  0  0  0  0  0  0  0  0  0  0
    6.6210  -14.0776   26.7147 C   0  0  0  0  0  0  0  0  0  0  0  0
    6.6128  -12.6006   27.1055 C   0  0  0  0  0  0  0  0  0  0  0  0
    8.0168  -12.2880   27.5258 C   0  0  0  0  0  0  0  0  0  0  0  0
    8.8495  -13.4970   27.2347 C   0  0  1  0  0  0  0  0  0  0  0  0
    9.2043  -14.2744   28.4456 C   0  0  0  0  0  0  0  0  0  0  0  0
   10.1979  -13.8237   29.2811 O   0  0  0  0  0  0  0  0  0  0  0  0
    8.6099  -15.3587   28.7381 O   0  0  0  0  0  0  0  0  0  0  0  0
  2  1  1  1
  2  3  1  0
  4  2  1  0
  5  6  1  6
  5  4  1  0
  7  5  1  0
  8  7  2  0
  9  7  1  0
 10 11  1  1
 10  9  1  0
 11 12  1  0
 12 13  1  0
 13 14  1  0
 15 14  1  0
 16 17  2  0
 16 10  1  0
 18 16  1  0
 19 18  1  0
 20 21  1  0
 20 19  1  0
 21 22  1  0
 22 18  1  0
 22 23  1  1
 24 23  1  0
 25 23  2  0
M  END
$$$$
