LKP.pdb
     RDKit          3D

 25 25  0  0  1  0  0  0  0  0999 V2000
    9.8139  -13.6517   19.5166 C   0  0  0  0  0  0  0  0  0  0  0  0
    8.3444  -13.5486   19.1669 C   0  0  2  0  0  0  0  0  0  0  0  0
    8.0061  -12.1478   18.7367 C   0  0  0  0  0  0  0  0  0  0  0  0
    7.4567  -14.0701   20.2497 C   0  0  0  0  0  0  0  0  0  0  0  0
    7.7661  -15.4589   20.6826 C   0  0  2  0  0  0  0  0  0  0  0  0
    7.0864  -16.4301   19.8550 N   0  0  0  0  0  0  0  0  0  0  0  0
    7.2765  -15.6081   22.0955 C   0  0  0  0  0  0  0  0  0  0  0  0
    6.0811  -15.3349   22.3265 O   0  0  0  0  0  0  0  0  0  0  0  0
    8.1397  -16.0411   23.1189 N   0  0  0  0  0  0  0  0  0  0  0  0
    7.6907  -16.1656   24.4978 C   0  0  1  0  0  0  0  0  0  0  0  0
    7.7170  -17.6385   24.9078 C   0  0  0  0  0  0  0  0  0  0  0  0
    6.5755  -18.2855   24.1588 C   0  0  0  0  0  0  0  0  0  0  0  0
    6.4785  -19.7621   24.3163 C   0  0  0  0  0  0  0  0  0  0  0  0
    5.4336  -20.3053   23.3705 C   0  0  0  0  0  0  0  0  0  0  0  0
    5.4358  -21.7637   23.5289 N   0  0  0  0  0  0  0  0  0  0  0  0
    8.6307  -15.3983   25.3472 C   0  0  0  0  0  0  0  0  0  0  0  0
    9.8936  -15.5732   25.1759 O   0  0  0  0  0  0  0  0  0  0  0  0
    8.2058  -14.4800   26.3364 N   0  0  0  0  0  0  0  0  0  0  0  0
    6.8321  -14.0724   26.5582 C   0  0  0  0  0  0  0  0  0  0  0  0
    6.9534  -12.6226   27.0247 C   0  0  0  0  0  0  0  0  0  0  0  0
    8.3401  -12.4926   27.5775 C   0  0  0  0  0  0  0  0  0  0  0  0
    9.0558  -13.7760   27.2940 C   0  0  1  0  0  0  0  0  0  0  0  0
    9.2119  -14.6407   28.4876 C   0  0  0  0  0  0  0  0  0  0  0  0
   10.1503  -14.3273   29.4413 O   0  0  0  0  0  0  0  0  0  0  0  0
    8.4951  -15.6760   28.6576 O   0  0  0  0  0  0  0  0  0  0  0  0
  2  1  1  1
  2  3  1  0
  4  2  1  0
  5  6  1  6
  5  4  1  0
  7  5  1  0
  8  7  2  0
  9  7  1  0
 10 11  1  1
 10  9  1  0
 11 12  1  0
 12 13  1  0
 13 14  1  0
 15 14  1  0
 16 17  2  0
 16 10  1  0
 18 16  1  0
 19 18  1  0
 20 21  1  0
 20 19  1  0
 21 22  1  0
 22 18  1  0
 22 23  1  1
 24 23  1  0
 25 23  2  0
M  END
$$$$
