LKP.pdb
     RDKit          3D

 25 25  0  0  1  0  0  0  0  0999 V2000
    9.2619  -12.8638   19.3107 C   0  0  0  0  0  0  0  0  0  0  0  0
    7.9235  -13.5713   19.2939 C   0  0  2  0  0  0  0  0  0  0  0  0
    6.8812  -12.7036   18.6437 C   0  0  0  0  0  0  0  0  0  0  0  0
    7.5220  -14.0763   20.6417 C   0  0  0  0  0  0  0  0  0  0  0  0
    8.5626  -14.8860   21.3296 C   0  0  2  0  0  0  0  0  0  0  0  0
    8.6419  -16.2187   20.7751 N   0  0  0  0  0  0  0  0  0  0  0  0
    8.1657  -14.9921   22.7751 C   0  0  0  0  0  0  0  0  0  0  0  0
    7.7196  -13.9676   23.3303 O   0  0  0  0  0  0  0  0  0  0  0  0
    8.2944  -16.2066   23.4739 N   0  0  0  0  0  0  0  0  0  0  0  0
    7.9875  -16.3099   24.8930 C   0  0  1  0  0  0  0  0  0  0  0  0
    7.5107  -17.7287   25.2059 C   0  0  0  0  0  0  0  0  0  0  0  0
    6.4355  -18.0262   24.1871 C   0  0  0  0  0  0  0  0  0  0  0  0
    5.9631  -19.4373   24.1672 C   0  0  0  0  0  0  0  0  0  0  0  0
    4.9941  -19.6314   23.0249 C   0  0  0  0  0  0  0  0  0  0  0  0
    4.6912  -21.0656   22.9652 N   0  0  0  0  0  0  0  0  0  0  0  0
    9.2331  -16.0292   25.6434 C   0  0  0  0  0  0  0  0  0  0  0  0
   10.3322  -16.5486   25.2226 O   0  0  0  0  0  0  0  0  0  0  0  0
    9.2723  -15.2148   26.7999 N   0  0  0  0  0  0  0  0  0  0  0  0
    8.1268  -14.5467   27.3863 C   0  0  0  0  0  0  0  0  0  0  0  0
    8.7131  -13.2606   27.9664 C   0  0  0  0  0  0  0  0  0  0  0  0
   10.1685  -13.5440   28.1833 C   0  0  0  0  0  0  0  0  0  0  0  0
   10.4527  -14.8919   27.5984 C   0  0  1  0  0  0  0  0  0  0  0  0
   10.6187  -15.9546   28.6181 C   0  0  0  0  0  0  0  0  0  0  0  0
   11.7683  -16.0085   29.3690 O   0  0  0  0  0  0  0  0  0  0  0  0
    9.7187  -16.8282   28.8213 O   0  0  0  0  0  0  0  0  0  0  0  0
  2  1  1  1
  2  3  1  0
  4  2  1  0
  5  6  1  6
  5  4  1  0
  7  5  1  0
  8  7  2  0
  9  7  1  0
 10 11  1  6
 10  9  1  0
 11 12  1  0
 12 13  1  0
 13 14  1  0
 15 14  1  0
 16 17  2  0
 16 10  1  0
 18 16  1  0
 19 18  1  0
 20 21  1  0
 20 19  1  0
 21 22  1  0
 22 18  1  0
 22 23  1  1
 24 23  1  0
 25 23  2  0
M  END
$$$$
