LKP.pdb
     RDKit          3D

 25 25  0  0  1  0  0  0  0  0999 V2000
    9.1450  -12.5634   19.1678 C   0  0  0  0  0  0  0  0  0  0  0  0
    7.7646  -13.1791   19.0810 C   0  0  2  0  0  0  0  0  0  0  0  0
    6.7904  -12.1978   18.4895 C   0  0  0  0  0  0  0  0  0  0  0  0
    7.3102  -13.7600   20.3805 C   0  0  0  0  0  0  0  0  0  0  0  0
    8.2589  -14.7335   20.9837 C   0  0  2  0  0  0  0  0  0  0  0  0
    8.2575  -15.9849   20.2598 N   0  0  0  0  0  0  0  0  0  0  0  0
    7.8001  -14.9942   22.3908 C   0  0  0  0  0  0  0  0  0  0  0  0
    7.0456  -14.1527   22.9196 O   0  0  0  0  0  0  0  0  0  0  0  0
    8.2096  -16.1484   23.0836 N   0  0  0  0  0  0  0  0  0  0  0  0
    7.8104  -16.3967   24.4612 C   0  0  1  0  0  0  0  0  0  0  0  0
    7.7150  -17.9046   24.6967 C   0  0  0  0  0  0  0  0  0  0  0  0
    7.4851  -18.0666   26.1811 C   0  0  0  0  0  0  0  0  0  0  0  0
    7.4341  -19.4754   26.6581 C   0  0  0  0  0  0  0  0  0  0  0  0
    7.0385  -19.5031   28.1155 C   0  0  0  0  0  0  0  0  0  0  0  0
    6.8207  -20.9102   28.4688 N   0  0  0  0  0  0  0  0  0  0  0  0
    8.8541  -15.8230   25.3416 C   0  0  0  0  0  0  0  0  0  0  0  0
   10.0838  -16.1202   25.1082 O   0  0  0  0  0  0  0  0  0  0  0  0
    8.5635  -14.9614   26.4258 N   0  0  0  0  0  0  0  0  0  0  0  0
    7.2326  -14.6640   26.9185 C   0  0  0  0  0  0  0  0  0  0  0  0
    7.3391  -13.2197   27.4055 C   0  0  0  0  0  0  0  0  0  0  0  0
    8.7934  -12.9973   27.6898 C   0  0  0  0  0  0  0  0  0  0  0  0
    9.5297  -14.2163   27.2297 C   0  0  1  0  0  0  0  0  0  0  0  0
    9.9720  -15.0927   28.3401 C   0  0  0  0  0  0  0  0  0  0  0  0
   11.0453  -14.7253   29.1156 O   0  0  0  0  0  0  0  0  0  0  0  0
    9.3810  -16.1872   28.5998 O   0  0  0  0  0  0  0  0  0  0  0  0
  2  1  1  1
  2  3  1  0
  4  2  1  0
  5  6  1  6
  5  4  1  0
  7  5  1  0
  8  7  2  0
  9  7  1  0
 10 11  1  6
 10  9  1  0
 11 12  1  0
 12 13  1  0
 13 14  1  0
 15 14  1  0
 16 17  2  0
 16 10  1  0
 18 16  1  0
 19 18  1  0
 20 21  1  0
 20 19  1  0
 21 22  1  0
 22 18  1  0
 22 23  1  1
 24 23  1  0
 25 23  2  0
M  END
$$$$
