LKP.pdb
     RDKit          3D

 25 25  0  0  1  0  0  0  0  0999 V2000
    6.9994  -12.5403   18.8336 C   0  0  0  0  0  0  0  0  0  0  0  0
    7.6982  -13.4774   19.7957 C   0  0  2  0  0  0  0  0  0  0  0  0
    9.1337  -13.0665   19.9763 C   0  0  0  0  0  0  0  0  0  0  0  0
    7.5323  -14.9147   19.4227 C   0  0  0  0  0  0  0  0  0  0  0  0
    8.1037  -15.8743   20.4047 C   0  0  2  0  0  0  0  0  0  0  0  0
    7.8848  -17.2419   19.9902 N   0  0  0  0  0  0  0  0  0  0  0  0
    7.3975  -15.6520   21.7124 C   0  0  0  0  0  0  0  0  0  0  0  0
    6.1571  -15.7861   21.7313 O   0  0  0  0  0  0  0  0  0  0  0  0
    8.1143  -15.3047   22.8724 N   0  0  0  0  0  0  0  0  0  0  0  0
    7.7381  -15.8093   24.1849 C   0  0  1  0  0  0  0  0  0  0  0  0
    7.8359  -17.3354   24.1877 C   0  0  0  0  0  0  0  0  0  0  0  0
    7.4077  -17.7638   25.5718 C   0  0  0  0  0  0  0  0  0  0  0  0
    7.4061  -19.2342   25.8011 C   0  0  0  0  0  0  0  0  0  0  0  0
    6.8404  -19.5333   27.1693 C   0  0  0  0  0  0  0  0  0  0  0  0
    6.6776  -20.9889   27.2516 N   0  0  0  0  0  0  0  0  0  0  0  0
    8.6911  -15.2501   25.1711 C   0  0  0  0  0  0  0  0  0  0  0  0
    9.9430  -15.5100   25.0288 O   0  0  0  0  0  0  0  0  0  0  0  0
    8.2906  -14.4414   26.2610 N   0  0  0  0  0  0  0  0  0  0  0  0
    6.9164  -14.1849   26.6459 C   0  0  0  0  0  0  0  0  0  0  0  0
    6.9535  -12.7622   27.2017 C   0  0  0  0  0  0  0  0  0  0  0  0
    8.3730  -12.5320   27.6232 C   0  0  0  0  0  0  0  0  0  0  0  0
    9.1688  -13.7190   27.1786 C   0  0  1  0  0  0  0  0  0  0  0  0
    9.5272  -14.6372   28.2854 C   0  0  0  0  0  0  0  0  0  0  0  0
   10.5023  -14.2772   29.1843 O   0  0  0  0  0  0  0  0  0  0  0  0
    8.9527  -15.7614   28.4299 O   0  0  0  0  0  0  0  0  0  0  0  0
  2  1  1  6
  2  3  1  0
  4  2  1  0
  5  6  1  6
  5  4  1  0
  7  5  1  0
  8  7  2  0
  9  7  1  0
 10 11  1  6
 10  9  1  0
 11 12  1  0
 12 13  1  0
 13 14  1  0
 15 14  1  0
 16 17  2  0
 16 10  1  0
 18 16  1  0
 19 18  1  0
 20 21  1  0
 20 19  1  0
 21 22  1  0
 22 18  1  0
 22 23  1  1
 24 23  1  0
 25 23  2  0
M  END
$$$$
