FWC.pdb
     RDKit          3D

 32 34  0  0  1  0  0  0  0  0999 V2000
   29.4202  -20.0538  -13.2331 N   0  0  0  0  0  0  0  0  0  0  0  0
   28.1579  -19.4962  -12.8685 C   0  0  1  0  0  0  0  0  0  0  0  0
   27.2824  -19.2496  -14.0612 C   0  0  0  0  0  0  0  0  0  0  0  0
   27.7583  -18.0575  -14.8394 C   0  0  0  0  0  0  0  0  0  0  0  0
   27.5523  -16.7770  -14.3779 C   0  0  0  0  0  0  0  0  0  0  0  0
   27.9874  -15.6930  -15.0902 C   0  0  0  0  0  0  0  0  0  0  0  0
   28.6436  -15.9172  -16.2929 C   0  0  0  0  0  0  0  0  0  0  0  0
   28.8616  -17.1836  -16.7750 C   0  0  0  0  0  0  0  0  0  0  0  0
   28.4134  -18.2394  -16.0372 C   0  0  0  0  0  0  0  0  0  0  0  0
   27.4086  -20.2942  -11.8583 C   0  0  0  0  0  0  0  0  0  0  0  0
   27.7051  -21.5337  -11.8534 O   0  0  0  0  0  0  0  0  0  0  0  0
   26.4638  -19.7041  -11.0003 N   0  0  0  0  0  0  0  0  0  0  0  0
   25.5562  -20.5997  -10.2638 C   0  0  1  0  0  0  0  0  0  0  0  0
   25.3169  -20.0685   -8.9025 C   0  0  0  0  0  0  0  0  0  0  0  0
   26.4192  -19.5650   -8.1173 C   0  0  0  0  0  0  0  0  0  0  0  0
   27.0246  -18.3335   -8.1897 C   0  0  0  0  0  0  0  0  0  0  0  0
   28.0194  -18.2951   -7.2675 N   0  0  0  0  0  0  0  0  0  0  0  0
   28.0829  -19.4579   -6.5967 C   0  0  0  0  0  0  0  0  0  0  0  0
   28.9096  -19.8960   -5.5601 C   0  0  0  0  0  0  0  0  0  0  0  0
   28.7488  -21.1450   -5.0332 C   0  0  0  0  0  0  0  0  0  0  0  0
   27.7667  -21.9616   -5.5354 C   0  0  0  0  0  0  0  0  0  0  0  0
   26.9459  -21.5220   -6.5682 C   0  0  0  0  0  0  0  0  0  0  0  0
   27.0914  -20.2632   -7.1144 C   0  0  0  0  0  0  0  0  0  0  0  0
   24.4312  -20.9688  -11.0928 C   0  0  0  0  0  0  0  0  0  0  0  0
   23.7283  -20.0899  -11.7021 O   0  0  0  0  0  0  0  0  0  0  0  0
   24.0284  -22.3175  -11.3024 N   0  0  0  0  0  0  0  0  0  0  0  0
   22.8826  -22.6040  -12.1449 C   0  0  1  0  0  0  0  0  0  0  0  0
   22.9782  -24.0792  -12.6167 C   0  0  0  0  0  0  0  0  0  0  0  0
   24.5697  -24.3010  -13.4547 S   0  0  0  0  0  0  0  0  0  0  0  0
   21.5849  -22.4265  -11.4828 C   0  0  0  0  0  0  0  0  0  0  0  0
   20.4266  -22.7400  -12.2162 O   0  0  0  0  0  0  0  0  0  0  0  0
   21.4006  -22.0234  -10.3286 O   0  0  0  0  0  0  0  0  0  0  0  0
  2  1  1  6
  3  2  1  0
  3  4  1  0
  4  5  2  0
  4  9  1  0
  5  6  1  0
  6  7  2  0
  8  7  1  0
  9  8  2  0
 10  2  1  0
 11 10  2  0
 12 10  1  0
 13 12  1  0
 13 14  1  1
 15 23  1  0
 15 14  1  0
 16 15  2  0
 17 16  1  0
 17 18  1  0
 18 23  2  0
 19 18  1  0
 19 20  2  0
 20 21  1  0
 21 22  2  0
 23 22  1  0
 24 13  1  0
 24 26  1  0
 25 24  2  0
 27 26  1  0
 27 28  1  1
 28 29  1  0
 30 27  1  0
 31 30  1  0
 32 30  2  0
M  END
$$$$
