FWC.pdb
     RDKit          3D

 32 34  0  0  1  0  0  0  0  0999 V2000
   24.7429  -20.6440  -14.0491 N   0  0  0  0  0  0  0  0  0  0  0  0
   23.9982  -20.2261  -12.9055 C   0  0  1  0  0  0  0  0  0  0  0  0
   22.5523  -20.6142  -12.9989 C   0  0  0  0  0  0  0  0  0  0  0  0
   21.8830  -19.9190  -14.1485 C   0  0  0  0  0  0  0  0  0  0  0  0
   21.3894  -18.6405  -14.0183 C   0  0  0  0  0  0  0  0  0  0  0  0
   20.7799  -18.0103  -15.0685 C   0  0  0  0  0  0  0  0  0  0  0  0
   20.6712  -18.6940  -16.2719 C   0  0  0  0  0  0  0  0  0  0  0  0
   21.1548  -19.9690  -16.4279 C   0  0  0  0  0  0  0  0  0  0  0  0
   21.7562  -20.5647  -15.3585 C   0  0  0  0  0  0  0  0  0  0  0  0
   24.5572  -20.6996  -11.6084 C   0  0  0  0  0  0  0  0  0  0  0  0
   24.8271  -21.9449  -11.5842 O   0  0  0  0  0  0  0  0  0  0  0  0
   24.7575  -19.8261  -10.5249 N   0  0  0  0  0  0  0  0  0  0  0  0
   25.4240  -20.3646   -9.3274 C   0  0  1  0  0  0  0  0  0  0  0  0
   26.5495  -19.4850   -8.9371 C   0  0  0  0  0  0  0  0  0  0  0  0
   27.6524  -20.0165   -8.1714 C   0  0  0  0  0  0  0  0  0  0  0  0
   28.5988  -20.9324   -8.5634 C   0  0  0  0  0  0  0  0  0  0  0  0
   29.4418  -21.1437   -7.5212 N   0  0  0  0  0  0  0  0  0  0  0  0
   29.0781  -20.3973   -6.4644 C   0  0  0  0  0  0  0  0  0  0  0  0
   29.6261  -20.2528   -5.1882 C   0  0  0  0  0  0  0  0  0  0  0  0
   29.0602  -19.3947   -4.2899 C   0  0  0  0  0  0  0  0  0  0  0  0
   27.9485  -18.6787   -4.6574 C   0  0  0  0  0  0  0  0  0  0  0  0
   27.4054  -18.8259   -5.9290 C   0  0  0  0  0  0  0  0  0  0  0  0
   27.9623  -19.6874   -6.8521 C   0  0  0  0  0  0  0  0  0  0  0  0
   24.4446  -20.7506   -8.3370 C   0  0  0  0  0  0  0  0  0  0  0  0
   23.4587  -19.9924   -8.0354 O   0  0  0  0  0  0  0  0  0  0  0  0
   24.4919  -21.9889   -7.6373 N   0  0  0  0  0  0  0  0  0  0  0  0
   23.4705  -22.3004   -6.6552 C   0  0  1  0  0  0  0  0  0  0  0  0
   23.7427  -23.7235   -6.0998 C   0  0  0  0  0  0  0  0  0  0  0  0
   22.4165  -24.1377   -4.9361 S   0  0  0  0  0  0  0  0  0  0  0  0
   23.4226  -21.3747   -5.5173 C   0  0  0  0  0  0  0  0  0  0  0  0
   24.6385  -21.0335   -4.8983 O   0  0  0  0  0  0  0  0  0  0  0  0
   22.4082  -20.8551   -5.0380 O   0  0  0  0  0  0  0  0  0  0  0  0
  2  1  1  6
  3  2  1  0
  3  4  1  0
  4  5  2  0
  4  9  1  0
  5  6  1  0
  6  7  2  0
  8  7  1  0
  9  8  2  0
 10  2  1  0
 11 10  2  0
 12 10  1  0
 13 12  1  0
 13 14  1  1
 15 23  1  0
 15 14  1  0
 16 15  2  0
 17 16  1  0
 17 18  1  0
 18 23  2  0
 19 18  1  0
 19 20  2  0
 20 21  1  0
 21 22  2  0
 23 22  1  0
 24 13  1  0
 24 26  1  0
 25 24  2  0
 27 26  1  0
 27 28  1  1
 28 29  1  0
 30 27  1  0
 31 30  1  0
 32 30  2  0
M  END
$$$$
