FWC.pdb
     RDKit          3D

 32 34  0  0  1  0  0  0  0  0999 V2000
   27.6994  -20.9852  -16.0465 N   0  0  0  0  0  0  0  0  0  0  0  0
   26.7300  -20.1473  -15.4178 C   0  0  1  0  0  0  0  0  0  0  0  0
   25.7824  -19.5368  -16.4074 C   0  0  0  0  0  0  0  0  0  0  0  0
   26.4973  -18.5777  -17.3141 C   0  0  0  0  0  0  0  0  0  0  0  0
   26.8517  -18.9376  -18.5947 C   0  0  0  0  0  0  0  0  0  0  0  0
   27.5034  -18.0606  -19.4180 C   0  0  0  0  0  0  0  0  0  0  0  0
   27.7989  -16.7955  -18.9286 C   0  0  0  0  0  0  0  0  0  0  0  0
   27.4567  -16.4119  -17.6561 C   0  0  0  0  0  0  0  0  0  0  0  0
   26.8079  -17.3135  -16.8646 C   0  0  0  0  0  0  0  0  0  0  0  0
   25.9554  -20.8176  -14.3362 C   0  0  0  0  0  0  0  0  0  0  0  0
   25.7312  -22.0539  -14.5494 O   0  0  0  0  0  0  0  0  0  0  0  0
   25.5235  -20.1214  -13.1935 N   0  0  0  0  0  0  0  0  0  0  0  0
   24.7881  -20.8806  -12.1682 C   0  0  1  0  0  0  0  0  0  0  0  0
   25.2541  -20.4890  -10.8184 C   0  0  0  0  0  0  0  0  0  0  0  0
   26.5894  -20.8285  -10.3863 C   0  0  0  0  0  0  0  0  0  0  0  0
   27.5624  -21.5080  -11.0791 C   0  0  0  0  0  0  0  0  0  0  0  0
   28.6593  -21.6037  -10.2860 N   0  0  0  0  0  0  0  0  0  0  0  0
   28.4354  -21.0100   -9.1013 C   0  0  0  0  0  0  0  0  0  0  0  0
   29.2436  -20.8317   -7.9766 C   0  0  0  0  0  0  0  0  0  0  0  0
   28.7678  -20.1607   -6.8872 C   0  0  0  0  0  0  0  0  0  0  0  0
   27.4879  -19.6660   -6.9125 C   0  0  0  0  0  0  0  0  0  0  0  0
   26.6859  -19.8462   -8.0341 C   0  0  0  0  0  0  0  0  0  0  0  0
   27.1477  -20.5208   -9.1458 C   0  0  0  0  0  0  0  0  0  0  0  0
   23.3728  -20.8812  -12.4612 C   0  0  0  0  0  0  0  0  0  0  0  0
   22.6755  -19.8092  -12.4115 O   0  0  0  0  0  0  0  0  0  0  0  0
   22.6555  -22.0530  -12.8323 N   0  0  0  0  0  0  0  0  0  0  0  0
   21.2360  -21.9676  -13.1193 C   0  0  1  0  0  0  0  0  0  0  0  0
   20.7978  -23.2813  -13.8194 C   0  0  0  0  0  0  0  0  0  0  0  0
   21.5417  -24.6715  -12.9259 S   0  0  0  0  0  0  0  0  0  0  0  0
   20.3889  -21.7848  -11.9348 C   0  0  0  0  0  0  0  0  0  0  0  0
   19.0444  -21.4267  -12.1395 O   0  0  0  0  0  0  0  0  0  0  0  0
   20.7396  -21.9149  -10.7564 O   0  0  0  0  0  0  0  0  0  0  0  0
  2  1  1  6
  3  2  1  0
  3  4  1  0
  4  5  2  0
  4  9  1  0
  5  6  1  0
  6  7  2  0
  8  7  1  0
  9  8  2  0
 10  2  1  0
 11 10  2  0
 12 10  1  0
 13 12  1  0
 13 14  1  1
 15 23  1  0
 15 14  1  0
 16 15  2  0
 17 16  1  0
 17 18  1  0
 18 23  2  0
 19 18  1  0
 19 20  2  0
 20 21  1  0
 21 22  2  0
 23 22  1  0
 24 13  1  0
 24 26  1  0
 25 24  2  0
 27 26  1  0
 27 28  1  1
 28 29  1  0
 30 27  1  0
 31 30  1  0
 32 30  2  0
M  END
$$$$
