FWC.pdb
     RDKit          3D

 32 34  0  0  1  0  0  0  0  0999 V2000
   26.0971  -31.9833   -2.2738 N   0  0  0  0  0  0  0  0  0  0  0  0
   25.4713  -33.1304   -1.6997 C   0  0  1  0  0  0  0  0  0  0  0  0
   26.0038  -34.4110   -2.2710 C   0  0  0  0  0  0  0  0  0  0  0  0
   25.5321  -34.6064   -3.6826 C   0  0  0  0  0  0  0  0  0  0  0  0
   26.3427  -34.3031   -4.7530 C   0  0  0  0  0  0  0  0  0  0  0  0
   25.9090  -34.4824   -6.0381 C   0  0  0  0  0  0  0  0  0  0  0  0
   24.6279  -34.9791   -6.2361 C   0  0  0  0  0  0  0  0  0  0  0  0
   23.8000  -35.2893   -5.1864 C   0  0  0  0  0  0  0  0  0  0  0  0
   24.2672  -35.0972   -3.9195 C   0  0  0  0  0  0  0  0  0  0  0  0
   25.5417  -33.1823   -0.2127 C   0  0  0  0  0  0  0  0  0  0  0  0
   26.6057  -32.6767    0.2737 O   0  0  0  0  0  0  0  0  0  0  0  0
   24.5100  -33.7458    0.5587 N   0  0  0  0  0  0  0  0  0  0  0  0
   24.6204  -33.6474    2.0237 C   0  0  1  0  0  0  0  0  0  0  0  0
   23.3102  -33.2763    2.6054 C   0  0  0  0  0  0  0  0  0  0  0  0
   23.0332  -31.9013    2.9484 C   0  0  0  0  0  0  0  0  0  0  0  0
   22.4000  -30.9451    2.1914 C   0  0  0  0  0  0  0  0  0  0  0  0
   22.3625  -29.7932    2.9079 N   0  0  0  0  0  0  0  0  0  0  0  0
   22.9485  -29.9656    4.1050 C   0  0  0  0  0  0  0  0  0  0  0  0
   23.1433  -29.1014    5.1844 C   0  0  0  0  0  0  0  0  0  0  0  0
   23.7656  -29.5438    6.3160 C   0  0  0  0  0  0  0  0  0  0  0  0
   24.1962  -30.8454    6.3775 C   0  0  0  0  0  0  0  0  0  0  0  0
   24.0010  -31.7028    5.3002 C   0  0  0  0  0  0  0  0  0  0  0  0
   23.3737  -31.2759    4.1476 C   0  0  0  0  0  0  0  0  0  0  0  0
   25.3380  -34.7854    2.5519 C   0  0  0  0  0  0  0  0  0  0  0  0
   24.9795  -35.9860    2.2916 O   0  0  0  0  0  0  0  0  0  0  0  0
   26.4877  -34.6636    3.3816 N   0  0  0  0  0  0  0  0  0  0  0  0
   27.1489  -35.8568    3.8755 C   0  0  1  0  0  0  0  0  0  0  0  0
   28.6706  -35.5689    3.9731 C   0  0  0  0  0  0  0  0  0  0  0  0
   29.2400  -34.9911    2.3524 S   0  0  0  0  0  0  0  0  0  0  0  0
   26.6893  -36.3006    5.1968 C   0  0  0  0  0  0  0  0  0  0  0  0
   27.1996  -37.5127    5.6952 O   0  0  0  0  0  0  0  0  0  0  0  0
   25.8870  -35.7106    5.9295 O   0  0  0  0  0  0  0  0  0  0  0  0
  2  1  1  6
  3  2  1  0
  3  4  1  0
  4  5  2  0
  4  9  1  0
  5  6  1  0
  6  7  2  0
  8  7  1  0
  9  8  2  0
 10  2  1  0
 11 10  2  0
 12 10  1  0
 13 12  1  0
 13 14  1  1
 15 23  1  0
 15 14  1  0
 16 15  2  0
 17 16  1  0
 17 18  1  0
 18 23  2  0
 19 18  1  0
 19 20  2  0
 20 21  1  0
 21 22  2  0
 23 22  1  0
 24 13  1  0
 24 26  1  0
 25 24  2  0
 27 26  1  0
 27 28  1  1
 28 29  1  0
 30 27  1  0
 31 30  1  0
 32 30  2  0
M  END
$$$$
