FWC.pdb
     RDKit          3D

 32 34  0  0  1  0  0  0  0  0999 V2000
   27.6616  -22.1559  -15.8904 N   0  0  0  0  0  0  0  0  0  0  0  0
   26.9139  -21.0389  -15.4104 C   0  0  1  0  0  0  0  0  0  0  0  0
   26.0534  -20.4325  -16.4789 C   0  0  0  0  0  0  0  0  0  0  0  0
   26.8931  -19.8473  -17.5769 C   0  0  0  0  0  0  0  0  0  0  0  0
   27.5695  -18.6613  -17.4014 C   0  0  0  0  0  0  0  0  0  0  0  0
   28.3337  -18.1311  -18.4046 C   0  0  0  0  0  0  0  0  0  0  0  0
   28.4102  -18.8207  -19.6071 C   0  0  0  0  0  0  0  0  0  0  0  0
   27.7456  -20.0047  -19.8076 C   0  0  0  0  0  0  0  0  0  0  0  0
   26.9936  -20.5022  -18.7843 C   0  0  0  0  0  0  0  0  0  0  0  0
   26.0825  -21.3330  -14.2099 C   0  0  0  0  0  0  0  0  0  0  0  0
   25.6804  -22.5405  -14.1414 O   0  0  0  0  0  0  0  0  0  0  0  0
   25.7847  -20.3452  -13.2546 N   0  0  0  0  0  0  0  0  0  0  0  0
   24.8346  -20.6936  -12.1849 C   0  0  1  0  0  0  0  0  0  0  0  0
   25.3867  -20.2963  -10.8697 C   0  0  0  0  0  0  0  0  0  0  0  0
   26.7299  -20.6787  -10.5024 C   0  0  0  0  0  0  0  0  0  0  0  0
   27.6983  -21.2521  -11.2909 C   0  0  0  0  0  0  0  0  0  0  0  0
   28.8061  -21.4427  -10.5308 N   0  0  0  0  0  0  0  0  0  0  0  0
   28.5936  -21.0132   -9.2752 C   0  0  0  0  0  0  0  0  0  0  0  0
   29.4151  -20.9786   -8.1466 C   0  0  0  0  0  0  0  0  0  0  0  0
   28.9490  -20.4621   -6.9721 C   0  0  0  0  0  0  0  0  0  0  0  0
   27.6655  -19.9792   -6.9162 C   0  0  0  0  0  0  0  0  0  0  0  0
   26.8502  -20.0160   -8.0421 C   0  0  0  0  0  0  0  0  0  0  0  0
   27.3021  -20.5334   -9.2389 C   0  0  0  0  0  0  0  0  0  0  0  0
   23.4962  -20.2865  -12.5485 C   0  0  0  0  0  0  0  0  0  0  0  0
   23.2780  -19.4908  -13.5268 O   0  0  0  0  0  0  0  0  0  0  0  0
   22.3328  -20.7387  -11.8651 N   0  0  0  0  0  0  0  0  0  0  0  0
   21.1721  -21.1650  -12.6241 C   0  0  1  0  0  0  0  0  0  0  0  0
   21.5814  -22.3727  -13.5082 C   0  0  0  0  0  0  0  0  0  0  0  0
   20.1239  -22.9054  -14.4445 S   0  0  0  0  0  0  0  0  0  0  0  0
   20.0286  -21.5766  -11.8013 C   0  0  0  0  0  0  0  0  0  0  0  0
   18.7948  -20.9411  -12.0289 O   0  0  0  0  0  0  0  0  0  0  0  0
   20.0368  -22.4378  -10.9142 O   0  0  0  0  0  0  0  0  0  0  0  0
  2  1  1  6
  3  2  1  0
  3  4  1  0
  4  5  2  0
  4  9  1  0
  5  6  1  0
  6  7  2  0
  8  7  1  0
  9  8  2  0
 10  2  1  0
 11 10  2  0
 12 10  1  0
 13 12  1  0
 13 14  1  1
 15 23  1  0
 15 14  1  0
 16 15  2  0
 17 16  1  0
 17 18  1  0
 18 23  2  0
 19 18  1  0
 19 20  2  0
 20 21  1  0
 21 22  2  0
 23 22  1  0
 24 13  1  0
 24 26  1  0
 25 24  2  0
 27 26  1  0
 27 28  1  1
 28 29  1  0
 30 27  1  0
 31 30  1  0
 32 30  2  0
M  END
$$$$
