FWC.pdb
     RDKit          3D

 32 34  0  0  1  0  0  0  0  0999 V2000
   28.5533  -22.4585  -15.9599 N   0  0  0  0  0  0  0  0  0  0  0  0
   27.6227  -21.4135  -15.6789 C   0  0  1  0  0  0  0  0  0  0  0  0
   26.7701  -21.0801  -16.8671 C   0  0  0  0  0  0  0  0  0  0  0  0
   27.5104  -20.1959  -17.8280 C   0  0  0  0  0  0  0  0  0  0  0  0
   27.4400  -18.8244  -17.7332 C   0  0  0  0  0  0  0  0  0  0  0  0
   28.1161  -18.0220  -18.6111 C   0  0  0  0  0  0  0  0  0  0  0  0
   28.8769  -18.6269  -19.6023 C   0  0  0  0  0  0  0  0  0  0  0  0
   28.9638  -19.9917  -19.7185 C   0  0  0  0  0  0  0  0  0  0  0  0
   28.2758  -20.7589  -18.8252 C   0  0  0  0  0  0  0  0  0  0  0  0
   26.7512  -21.6749  -14.4995 C   0  0  0  0  0  0  0  0  0  0  0  0
   26.3933  -22.8922  -14.3794 O   0  0  0  0  0  0  0  0  0  0  0  0
   26.3737  -20.6491  -13.6151 N   0  0  0  0  0  0  0  0  0  0  0  0
   25.5564  -21.0198  -12.4476 C   0  0  1  0  0  0  0  0  0  0  0  0
   26.0002  -20.2580  -11.2579 C   0  0  0  0  0  0  0  0  0  0  0  0
   27.2149  -20.6297  -10.5714 C   0  0  0  0  0  0  0  0  0  0  0  0
   28.3115  -21.2871  -11.0753 C   0  0  0  0  0  0  0  0  0  0  0  0
   29.2175  -21.4289  -10.0750 N   0  0  0  0  0  0  0  0  0  0  0  0
   28.7500  -20.8867   -8.9377 C   0  0  0  0  0  0  0  0  0  0  0  0
   29.3042  -20.7668   -7.6616 C   0  0  0  0  0  0  0  0  0  0  0  0
   28.6105  -20.1406   -6.6666 C   0  0  0  0  0  0  0  0  0  0  0  0
   27.3646  -19.6326   -6.9370 C   0  0  0  0  0  0  0  0  0  0  0  0
   26.8158  -19.7546   -8.2088 C   0  0  0  0  0  0  0  0  0  0  0  0
   27.5005  -20.3833   -9.2287 C   0  0  0  0  0  0  0  0  0  0  0  0
   24.1548  -21.0384  -12.8000 C   0  0  0  0  0  0  0  0  0  0  0  0
   23.5678  -20.0060  -13.2769 O   0  0  0  0  0  0  0  0  0  0  0  0
   23.3317  -22.1904  -12.6566 N   0  0  0  0  0  0  0  0  0  0  0  0
   21.9158  -22.1062  -12.9619 C   0  0  1  0  0  0  0  0  0  0  0  0
   21.3871  -23.5395  -13.2333 C   0  0  0  0  0  0  0  0  0  0  0  0
   22.3599  -24.2525  -14.5860 S   0  0  0  0  0  0  0  0  0  0  0  0
   21.0997  -21.5205  -11.8919 C   0  0  0  0  0  0  0  0  0  0  0  0
   21.7457  -21.1668  -10.6938 O   0  0  0  0  0  0  0  0  0  0  0  0
   19.8835  -21.3020  -11.9345 O   0  0  0  0  0  0  0  0  0  0  0  0
  2  1  1  6
  3  2  1  0
  3  4  1  0
  4  5  2  0
  4  9  1  0
  5  6  1  0
  6  7  2  0
  8  7  1  0
  9  8  2  0
 10  2  1  0
 11 10  2  0
 12 10  1  0
 13 12  1  0
 13 14  1  1
 15 23  1  0
 15 14  1  0
 16 15  2  0
 17 16  1  0
 17 18  1  0
 18 23  2  0
 19 18  1  0
 19 20  2  0
 20 21  1  0
 21 22  2  0
 23 22  1  0
 24 13  1  0
 24 26  1  0
 25 24  2  0
 27 26  1  0
 27 28  1  1
 28 29  1  0
 30 27  1  0
 31 30  1  0
 32 30  2  0
M  END
$$$$
