FWC.pdb
     RDKit          3D

 32 34  0  0  1  0  0  0  0  0999 V2000
   28.6458  -19.9144  -15.9349 N   0  0  0  0  0  0  0  0  0  0  0  0
   27.7706  -19.5517  -14.8674 C   0  0  1  0  0  0  0  0  0  0  0  0
   26.6653  -18.6465  -15.3244 C   0  0  0  0  0  0  0  0  0  0  0  0
   27.2126  -17.3429  -15.8284 C   0  0  0  0  0  0  0  0  0  0  0  0
   27.4178  -17.1284  -17.1726 C   0  0  0  0  0  0  0  0  0  0  0  0
   27.9169  -15.9388  -17.6280 C   0  0  0  0  0  0  0  0  0  0  0  0
   28.2120  -14.9509  -16.6984 C   0  0  0  0  0  0  0  0  0  0  0  0
   28.0167  -15.1394  -15.3530 C   0  0  0  0  0  0  0  0  0  0  0  0
   27.5175  -16.3384  -14.9368 C   0  0  0  0  0  0  0  0  0  0  0  0
   27.1918  -20.7116  -14.1336 C   0  0  0  0  0  0  0  0  0  0  0  0
   26.9344  -21.7168  -14.8737 O   0  0  0  0  0  0  0  0  0  0  0  0
   26.9613  -20.6711  -12.7472 N   0  0  0  0  0  0  0  0  0  0  0  0
   26.0391  -21.6682  -12.1784 C   0  0  1  0  0  0  0  0  0  0  0  0
   26.4929  -22.0621  -10.8251 C   0  0  0  0  0  0  0  0  0  0  0  0
   26.4387  -21.1131   -9.7381 C   0  0  0  0  0  0  0  0  0  0  0  0
   25.4523  -20.2000   -9.4524 C   0  0  0  0  0  0  0  0  0  0  0  0
   25.8195  -19.5126   -8.3415 N   0  0  0  0  0  0  0  0  0  0  0  0
   27.0100  -19.9461   -7.8933 C   0  0  0  0  0  0  0  0  0  0  0  0
   27.7884  -19.5737   -6.7955 C   0  0  0  0  0  0  0  0  0  0  0  0
   28.9763  -20.2001   -6.5503 C   0  0  0  0  0  0  0  0  0  0  0  0
   29.3936  -21.1975   -7.3956 C   0  0  0  0  0  0  0  0  0  0  0  0
   28.6159  -21.5651   -8.4882 C   0  0  0  0  0  0  0  0  0  0  0  0
   27.4120  -20.9451   -8.7535 C   0  0  0  0  0  0  0  0  0  0  0  0
   24.6679  -21.2574  -12.3789 C   0  0  0  0  0  0  0  0  0  0  0  0
   24.3051  -20.0375  -12.2441 O   0  0  0  0  0  0  0  0  0  0  0  0
   23.6309  -22.1601  -12.7460 N   0  0  0  0  0  0  0  0  0  0  0  0
   22.3119  -21.6490  -13.0683 C   0  0  1  0  0  0  0  0  0  0  0  0
   21.8941  -22.2099  -14.4534 C   0  0  0  0  0  0  0  0  0  0  0  0
   22.5854  -23.8771  -14.6183 S   0  0  0  0  0  0  0  0  0  0  0  0
   21.2689  -22.0129  -12.1021 C   0  0  0  0  0  0  0  0  0  0  0  0
   19.9957  -21.4379  -12.2643 O   0  0  0  0  0  0  0  0  0  0  0  0
   21.3947  -22.7850  -11.1446 O   0  0  0  0  0  0  0  0  0  0  0  0
  2  1  1  6
  3  2  1  0
  3  4  1  0
  4  5  2  0
  4  9  1  0
  5  6  1  0
  6  7  2  0
  8  7  1  0
  9  8  2  0
 10  2  1  0
 11 10  2  0
 12 10  1  0
 13 12  1  0
 13 14  1  1
 15 23  1  0
 15 14  1  0
 16 15  2  0
 17 16  1  0
 17 18  1  0
 18 23  2  0
 19 18  1  0
 19 20  2  0
 20 21  1  0
 21 22  2  0
 23 22  1  0
 24 13  1  0
 24 26  1  0
 25 24  2  0
 27 26  1  0
 27 28  1  6
 28 29  1  0
 30 27  1  0
 31 30  1  0
 32 30  2  0
M  END
$$$$
