FWC.pdb
     RDKit          3D

 32 34  0  0  1  0  0  0  0  0999 V2000
   30.9861  -24.1934  -17.3770 N   0  0  0  0  0  0  0  0  0  0  0  0
   29.6279  -23.8333  -17.6280 C   0  0  1  0  0  0  0  0  0  0  0  0
   28.7348  -25.0336  -17.7357 C   0  0  0  0  0  0  0  0  0  0  0  0
   28.8832  -25.6950  -19.0749 C   0  0  0  0  0  0  0  0  0  0  0  0
   29.5837  -26.8718  -19.2146 C   0  0  0  0  0  0  0  0  0  0  0  0
   29.7169  -27.4714  -20.4370 C   0  0  0  0  0  0  0  0  0  0  0  0
   29.1265  -26.8620  -21.5359 C   0  0  0  0  0  0  0  0  0  0  0  0
   28.4230  -25.6889  -21.4236 C   0  0  0  0  0  0  0  0  0  0  0  0
   28.3117  -25.1207  -20.1887 C   0  0  0  0  0  0  0  0  0  0  0  0
   29.0584  -22.8772  -16.6379 C   0  0  0  0  0  0  0  0  0  0  0  0
   29.5130  -23.0229  -15.4562 O   0  0  0  0  0  0  0  0  0  0  0  0
   28.1052  -21.9108  -17.0046 N   0  0  0  0  0  0  0  0  0  0  0  0
   27.7106  -20.9204  -15.9889 C   0  0  1  0  0  0  0  0  0  0  0  0
   27.7233  -19.5614  -16.5767 C   0  0  0  0  0  0  0  0  0  0  0  0
   27.1463  -18.4535  -15.8523 C   0  0  0  0  0  0  0  0  0  0  0  0
   27.7034  -17.7192  -14.8330 C   0  0  0  0  0  0  0  0  0  0  0  0
   26.8042  -16.7789  -14.4473 N   0  0  0  0  0  0  0  0  0  0  0  0
   25.6814  -16.8745  -15.1797 C   0  0  0  0  0  0  0  0  0  0  0  0
   24.4958  -16.1368  -15.1751 C   0  0  0  0  0  0  0  0  0  0  0  0
   23.4963  -16.4360  -16.0554 C   0  0  0  0  0  0  0  0  0  0  0  0
   23.6722  -17.4689  -16.9417 C   0  0  0  0  0  0  0  0  0  0  0  0
   24.8541  -18.2016  -16.9428 C   0  0  0  0  0  0  0  0  0  0  0  0
   25.8769  -17.9152  -16.0618 C   0  0  0  0  0  0  0  0  0  0  0  0
   26.5420  -21.3751  -15.2700 C   0  0  0  0  0  0  0  0  0  0  0  0
   25.6409  -22.0877  -15.8339 O   0  0  0  0  0  0  0  0  0  0  0  0
   26.3092  -21.0801  -13.8974 N   0  0  0  0  0  0  0  0  0  0  0  0
   25.0796  -21.5193  -13.2651 C   0  0  1  0  0  0  0  0  0  0  0  0
   25.3027  -21.5520  -11.7299 C   0  0  0  0  0  0  0  0  0  0  0  0
   25.6077  -19.8561  -11.1683 S   0  0  0  0  0  0  0  0  0  0  0  0
   23.9205  -20.6599  -13.5332 C   0  0  0  0  0  0  0  0  0  0  0  0
   22.6407  -21.1932  -13.2977 O   0  0  0  0  0  0  0  0  0  0  0  0
   23.9522  -19.4968  -13.9514 O   0  0  0  0  0  0  0  0  0  0  0  0
  2  1  1  1
  3  2  1  0
  3  4  1  0
  4  5  2  0
  4  9  1  0
  5  6  1  0
  6  7  2  0
  8  7  1  0
  9  8  2  0
 10  2  1  0
 11 10  2  0
 12 10  1  0
 13 12  1  0
 13 14  1  6
 15 23  1  0
 15 14  1  0
 16 15  2  0
 17 16  1  0
 17 18  1  0
 18 23  2  0
 19 18  1  0
 19 20  2  0
 20 21  1  0
 21 22  2  0
 23 22  1  0
 24 13  1  0
 24 26  1  0
 25 24  2  0
 27 26  1  0
 27 28  1  1
 28 29  1  0
 30 27  1  0
 31 30  1  0
 32 30  2  0
M  END
$$$$
