FWC.pdb
     RDKit          3D

 32 34  0  0  1  0  0  0  0  0999 V2000
   27.2140  -20.4523  -15.7831 N   0  0  0  0  0  0  0  0  0  0  0  0
   26.4070  -19.6479  -14.9236 C   0  0  1  0  0  0  0  0  0  0  0  0
   25.4329  -18.8027  -15.6895 C   0  0  0  0  0  0  0  0  0  0  0  0
   26.1481  -17.7713  -16.5128 C   0  0  0  0  0  0  0  0  0  0  0  0
   26.2807  -17.9142  -17.8755 C   0  0  0  0  0  0  0  0  0  0  0  0
   26.9335  -16.9721  -18.6224 C   0  0  0  0  0  0  0  0  0  0  0  0
   27.4601  -15.8655  -17.9701 C   0  0  0  0  0  0  0  0  0  0  0  0
   27.3417  -15.6992  -16.6129 C   0  0  0  0  0  0  0  0  0  0  0  0
   26.6842  -16.6595  -15.9017 C   0  0  0  0  0  0  0  0  0  0  0  0
   25.6807  -20.4167  -13.8747 C   0  0  0  0  0  0  0  0  0  0  0  0
   25.3181  -21.5815  -14.2436 O   0  0  0  0  0  0  0  0  0  0  0  0
   25.4320  -19.8781  -12.5999 N   0  0  0  0  0  0  0  0  0  0  0  0
   24.7906  -20.7512  -11.6025 C   0  0  1  0  0  0  0  0  0  0  0  0
   25.2960  -20.4280  -10.2487 C   0  0  0  0  0  0  0  0  0  0  0  0
   26.6672  -20.7160   -9.8996 C   0  0  0  0  0  0  0  0  0  0  0  0
   27.6317  -21.3253  -10.6657 C   0  0  0  0  0  0  0  0  0  0  0  0
   28.7734  -21.3928   -9.9354 N   0  0  0  0  0  0  0  0  0  0  0  0
   28.5868  -20.8486   -8.7209 C   0  0  0  0  0  0  0  0  0  0  0  0
   29.4457  -20.6670   -7.6350 C   0  0  0  0  0  0  0  0  0  0  0  0
   28.9990  -20.0548   -6.4996 C   0  0  0  0  0  0  0  0  0  0  0  0
   27.6980  -19.6221   -6.4403 C   0  0  0  0  0  0  0  0  0  0  0  0
   26.8455  -19.8053   -7.5235 C   0  0  0  0  0  0  0  0  0  0  0  0
   27.2771  -20.4211   -8.6805 C   0  0  0  0  0  0  0  0  0  0  0  0
   23.3655  -20.8175  -11.8342 C   0  0  0  0  0  0  0  0  0  0  0  0
   22.6250  -19.7757  -11.7712 O   0  0  0  0  0  0  0  0  0  0  0  0
   22.6848  -22.0252  -12.1557 N   0  0  0  0  0  0  0  0  0  0  0  0
   21.2373  -22.0795  -12.0742 C   0  0  1  0  0  0  0  0  0  0  0  0
   20.8143  -21.7183  -10.6257 C   0  0  0  0  0  0  0  0  0  0  0  0
   19.0388  -22.0413  -10.4597 S   0  0  0  0  0  0  0  0  0  0  0  0
   20.5448  -21.1626  -12.9872 C   0  0  0  0  0  0  0  0  0  0  0  0
   19.3178  -21.5823  -13.5316 O   0  0  0  0  0  0  0  0  0  0  0  0
   20.9338  -20.0413  -13.3336 O   0  0  0  0  0  0  0  0  0  0  0  0
  2  1  1  6
  3  2  1  0
  3  4  1  0
  4  5  2  0
  4  9  1  0
  5  6  1  0
  6  7  2  0
  8  7  1  0
  9  8  2  0
 10  2  1  0
 11 10  2  0
 12 10  1  0
 13 12  1  0
 13 14  1  1
 15 23  1  0
 15 14  1  0
 16 15  2  0
 17 16  1  0
 17 18  1  0
 18 23  2  0
 19 18  1  0
 19 20  2  0
 20 21  1  0
 21 22  2  0
 23 22  1  0
 24 13  1  0
 24 26  1  0
 25 24  2  0
 27 26  1  0
 27 28  1  1
 28 29  1  0
 30 27  1  0
 31 30  1  0
 32 30  2  0
M  END
$$$$
