FWC.pdb
     RDKit          3D

 32 34  0  0  1  0  0  0  0  0999 V2000
   29.2730  -22.2202  -17.8557 N   0  0  0  0  0  0  0  0  0  0  0  0
   28.3866  -21.1955  -17.4067 C   0  0  1  0  0  0  0  0  0  0  0  0
   27.2996  -20.9120  -18.4006 C   0  0  0  0  0  0  0  0  0  0  0  0
   27.8021  -20.0354  -19.5106 C   0  0  0  0  0  0  0  0  0  0  0  0
   27.9150  -18.6732  -19.3471 C   0  0  0  0  0  0  0  0  0  0  0  0
   28.3733  -17.8776  -20.3613 C   0  0  0  0  0  0  0  0  0  0  0  0
   28.7228  -18.4798  -21.5624 C   0  0  0  0  0  0  0  0  0  0  0  0
   28.6197  -19.8353  -21.7510 C   0  0  0  0  0  0  0  0  0  0  0  0
   28.1587  -20.5959  -20.7171 C   0  0  0  0  0  0  0  0  0  0  0  0
   27.7826  -21.4554  -16.0701 C   0  0  0  0  0  0  0  0  0  0  0  0
   27.5081  -22.6812  -15.8550 O   0  0  0  0  0  0  0  0  0  0  0  0
   27.5481  -20.4193  -15.1489 N   0  0  0  0  0  0  0  0  0  0  0  0
   27.0167  -20.7884  -13.8261 C   0  0  1  0  0  0  0  0  0  0  0  0
   27.6354  -19.9434  -12.7793 C   0  0  0  0  0  0  0  0  0  0  0  0
   27.1378  -19.9881  -11.4245 C   0  0  0  0  0  0  0  0  0  0  0  0
   25.8674  -19.7208  -10.9740 C   0  0  0  0  0  0  0  0  0  0  0  0
   25.8521  -19.8836   -9.6269 N   0  0  0  0  0  0  0  0  0  0  0  0
   27.0675  -20.2480   -9.1842 C   0  0  0  0  0  0  0  0  0  0  0  0
   27.5477  -20.5449   -7.9070 C   0  0  0  0  0  0  0  0  0  0  0  0
   28.8498  -20.9149   -7.7306 C   0  0  0  0  0  0  0  0  0  0  0  0
   29.6778  -20.9902   -8.8226 C   0  0  0  0  0  0  0  0  0  0  0  0
   29.1960  -20.6931  -10.0928 C   0  0  0  0  0  0  0  0  0  0  0  0
   27.8833  -20.3177  -10.2928 C   0  0  0  0  0  0  0  0  0  0  0  0
   25.5781  -20.9175  -13.8799 C   0  0  0  0  0  0  0  0  0  0  0  0
   24.8341  -19.9710  -14.3139 O   0  0  0  0  0  0  0  0  0  0  0  0
   24.8864  -22.0920  -13.4709 N   0  0  0  0  0  0  0  0  0  0  0  0
   23.4407  -22.1500  -13.5775 C   0  0  1  0  0  0  0  0  0  0  0  0
   22.9835  -23.5974  -13.2553 C   0  0  0  0  0  0  0  0  0  0  0  0
   21.1718  -23.6356  -13.2827 S   0  0  0  0  0  0  0  0  0  0  0  0
   22.7299  -21.2411  -12.6706 C   0  0  0  0  0  0  0  0  0  0  0  0
   21.6289  -20.5322  -13.1835 O   0  0  0  0  0  0  0  0  0  0  0  0
   23.0023  -21.0301  -11.4832 O   0  0  0  0  0  0  0  0  0  0  0  0
  2  1  1  6
  3  2  1  0
  3  4  1  0
  4  5  2  0
  4  9  1  0
  5  6  1  0
  6  7  2  0
  8  7  1  0
  9  8  2  0
 10  2  1  0
 11 10  2  0
 12 10  1  0
 13 12  1  0
 13 14  1  1
 15 23  1  0
 15 14  1  0
 16 15  2  0
 17 16  1  0
 17 18  1  0
 18 23  2  0
 19 18  1  0
 19 20  2  0
 20 21  1  0
 21 22  2  0
 23 22  1  0
 24 13  1  0
 24 26  1  0
 25 24  2  0
 27 26  1  0
 27 28  1  1
 28 29  1  0
 30 27  1  0
 31 30  1  0
 32 30  2  0
M  END
$$$$
