FWC.pdb
     RDKit          3D

 32 34  0  0  1  0  0  0  0  0999 V2000
   25.2388  -33.0344  -15.7979 N   0  0  0  0  0  0  0  0  0  0  0  0
   24.1121  -33.5563  -15.0941 C   0  0  1  0  0  0  0  0  0  0  0  0
   23.2990  -34.4902  -15.9406 C   0  0  0  0  0  0  0  0  0  0  0  0
   22.4830  -33.7308  -16.9460 C   0  0  0  0  0  0  0  0  0  0  0  0
   21.3102  -33.1064  -16.5862 C   0  0  0  0  0  0  0  0  0  0  0  0
   20.5692  -32.4154  -17.5055 C   0  0  0  0  0  0  0  0  0  0  0  0
   21.0308  -32.3595  -18.8136 C   0  0  0  0  0  0  0  0  0  0  0  0
   22.1966  -32.9732  -19.1981 C   0  0  0  0  0  0  0  0  0  0  0  0
   22.9082  -33.6528  -18.2537 C   0  0  0  0  0  0  0  0  0  0  0  0
   24.4536  -34.2226  -13.8064 C   0  0  0  0  0  0  0  0  0  0  0  0
   25.7035  -34.3980  -13.6292 O   0  0  0  0  0  0  0  0  0  0  0  0
   23.4628  -34.6121  -12.8880 N   0  0  0  0  0  0  0  0  0  0  0  0
   23.9055  -35.2200  -11.6220 C   0  0  1  0  0  0  0  0  0  0  0  0
   23.1701  -34.6164  -10.4873 C   0  0  0  0  0  0  0  0  0  0  0  0
   23.5432  -33.3115   -9.9944 C   0  0  0  0  0  0  0  0  0  0  0  0
   23.4675  -32.1021  -10.6424 C   0  0  0  0  0  0  0  0  0  0  0  0
   23.9285  -31.1412   -9.8024 N   0  0  0  0  0  0  0  0  0  0  0  0
   24.3013  -31.6820   -8.6299 C   0  0  0  0  0  0  0  0  0  0  0  0
   24.8147  -31.1175   -7.4604 C   0  0  0  0  0  0  0  0  0  0  0  0
   25.0983  -31.9063   -6.3830 C   0  0  0  0  0  0  0  0  0  0  0  0
   24.8729  -33.2576   -6.4652 C   0  0  0  0  0  0  0  0  0  0  0  0
   24.3622  -33.8161   -7.6318 C   0  0  0  0  0  0  0  0  0  0  0  0
   24.0683  -33.0366   -8.7319 C   0  0  0  0  0  0  0  0  0  0  0  0
   23.9650  -36.6586  -11.7483 C   0  0  0  0  0  0  0  0  0  0  0  0
   23.1209  -37.3064  -12.4595 O   0  0  0  0  0  0  0  0  0  0  0  0
   24.9568  -37.4554  -11.1106 N   0  0  0  0  0  0  0  0  0  0  0  0
   24.9780  -38.8895  -11.3288 C   0  0  1  0  0  0  0  0  0  0  0  0
   26.4166  -39.4048  -11.0593 C   0  0  0  0  0  0  0  0  0  0  0  0
   27.5694  -38.3833  -12.0143 S   0  0  0  0  0  0  0  0  0  0  0  0
   24.0605  -39.6463  -10.4690 C   0  0  0  0  0  0  0  0  0  0  0  0
   23.9916  -41.0393  -10.6498 O   0  0  0  0  0  0  0  0  0  0  0  0
   23.3295  -39.1794   -9.5878 O   0  0  0  0  0  0  0  0  0  0  0  0
  2  1  1  6
  3  2  1  0
  3  4  1  0
  4  5  2  0
  4  9  1  0
  5  6  1  0
  6  7  2  0
  8  7  1  0
  9  8  2  0
 10  2  1  0
 11 10  2  0
 12 10  1  0
 13 12  1  0
 13 14  1  1
 15 23  1  0
 15 14  1  0
 16 15  2  0
 17 16  1  0
 17 18  1  0
 18 23  2  0
 19 18  1  0
 19 20  2  0
 20 21  1  0
 21 22  2  0
 23 22  1  0
 24 13  1  0
 24 26  1  0
 25 24  2  0
 27 26  1  0
 27 28  1  1
 28 29  1  0
 30 27  1  0
 31 30  1  0
 32 30  2  0
M  END
$$$$
