FWC.pdb
     RDKit          3D

 32 34  0  0  1  0  0  0  0  0999 V2000
   29.3007  -19.3452  -12.8703 N   0  0  0  0  0  0  0  0  0  0  0  0
   28.3447  -20.3984  -12.9881 C   0  0  1  0  0  0  0  0  0  0  0  0
   28.1001  -21.0896  -11.6796 C   0  0  0  0  0  0  0  0  0  0  0  0
   29.3882  -21.5704  -11.0772 C   0  0  0  0  0  0  0  0  0  0  0  0
   29.7408  -21.2360   -9.7892 C   0  0  0  0  0  0  0  0  0  0  0  0
   30.9158  -21.6760   -9.2438 C   0  0  0  0  0  0  0  0  0  0  0  0
   31.7456  -22.4702  -10.0236 C   0  0  0  0  0  0  0  0  0  0  0  0
   31.4173  -22.8178  -11.3101 C   0  0  0  0  0  0  0  0  0  0  0  0
   30.2378  -22.3603  -11.8195 C   0  0  0  0  0  0  0  0  0  0  0  0
   27.0437  -19.9768  -13.5784 C   0  0  0  0  0  0  0  0  0  0  0  0
   26.4987  -18.9916  -12.9811 O   0  0  0  0  0  0  0  0  0  0  0  0
   26.4912  -20.6277  -14.6956 N   0  0  0  0  0  0  0  0  0  0  0  0
   25.1731  -20.1728  -15.1688 C   0  0  1  0  0  0  0  0  0  0  0  0
   25.1570  -20.1235  -16.6486 C   0  0  0  0  0  0  0  0  0  0  0  0
   23.9899  -19.6347  -17.3444 C   0  0  0  0  0  0  0  0  0  0  0  0
   23.5704  -18.3349  -17.4962 C   0  0  0  0  0  0  0  0  0  0  0  0
   22.4218  -18.3417  -18.2189 N   0  0  0  0  0  0  0  0  0  0  0  0
   22.0788  -19.5998  -18.5436 C   0  0  0  0  0  0  0  0  0  0  0  0
   21.0108  -20.1182  -19.2789 C   0  0  0  0  0  0  0  0  0  0  0  0
   20.9041  -21.4640  -19.4813 C   0  0  0  0  0  0  0  0  0  0  0  0
   21.8579  -22.2977  -18.9534 C   0  0  0  0  0  0  0  0  0  0  0  0
   22.9196  -21.7777  -18.2211 C   0  0  0  0  0  0  0  0  0  0  0  0
   23.0463  -20.4207  -18.0054 C   0  0  0  0  0  0  0  0  0  0  0  0
   24.1187  -20.8695  -14.4674 C   0  0  0  0  0  0  0  0  0  0  0  0
   24.2335  -22.0989  -14.1308 O   0  0  0  0  0  0  0  0  0  0  0  0
   22.8931  -20.2512  -14.0922 N   0  0  0  0  0  0  0  0  0  0  0  0
   21.8203  -21.0562  -13.5391 C   0  0  1  0  0  0  0  0  0  0  0  0
   21.6743  -20.7101  -12.0336 C   0  0  0  0  0  0  0  0  0  0  0  0
   20.3193  -21.7043  -11.3554 S   0  0  0  0  0  0  0  0  0  0  0  0
   20.5156  -20.8469  -14.1776 C   0  0  0  0  0  0  0  0  0  0  0  0
   19.7580  -21.9846  -14.5089 O   0  0  0  0  0  0  0  0  0  0  0  0
   20.0044  -19.7570  -14.4594 O   0  0  0  0  0  0  0  0  0  0  0  0
  2  1  1  1
  3  2  1  0
  3  4  1  0
  4  5  2  0
  4  9  1  0
  5  6  1  0
  6  7  2  0
  8  7  1  0
  9  8  2  0
 10  2  1  0
 11 10  2  0
 12 10  1  0
 13 12  1  0
 13 14  1  6
 15 23  1  0
 15 14  1  0
 16 15  2  0
 17 16  1  0
 17 18  1  0
 18 23  2  0
 19 18  1  0
 19 20  2  0
 20 21  1  0
 21 22  2  0
 23 22  1  0
 24 13  1  0
 24 26  1  0
 25 24  2  0
 27 26  1  0
 27 28  1  1
 28 29  1  0
 30 27  1  0
 31 30  1  0
 32 30  2  0
M  END
$$$$
