FWC.pdb
     RDKit          3D

 32 34  0  0  1  0  0  0  0  0999 V2000
   27.4973  -19.1676  -18.8531 N   0  0  0  0  0  0  0  0  0  0  0  0
   26.9185  -18.4364  -17.7726 C   0  0  1  0  0  0  0  0  0  0  0  0
   25.7551  -17.5993  -18.2147 C   0  0  0  0  0  0  0  0  0  0  0  0
   26.2165  -16.4254  -19.0284 C   0  0  0  0  0  0  0  0  0  0  0  0
   26.2263  -16.4720  -20.4041 C   0  0  0  0  0  0  0  0  0  0  0  0
   26.6478  -15.4000  -21.1423 C   0  0  0  0  0  0  0  0  0  0  0  0
   27.0664  -14.2612  -20.4675 C   0  0  0  0  0  0  0  0  0  0  0  0
   27.0664  -14.1892  -19.0970 C   0  0  0  0  0  0  0  0  0  0  0  0
   26.6393  -15.2778  -18.3951 C   0  0  0  0  0  0  0  0  0  0  0  0
   26.5120  -19.2806  -16.6146 C   0  0  0  0  0  0  0  0  0  0  0  0
   25.9060  -20.3528  -16.9425 O   0  0  0  0  0  0  0  0  0  0  0  0
   26.7864  -18.9015  -15.2887 N   0  0  0  0  0  0  0  0  0  0  0  0
   26.3385  -19.8027  -14.2137 C   0  0  1  0  0  0  0  0  0  0  0  0
   27.2337  -19.6746  -13.0412 C   0  0  0  0  0  0  0  0  0  0  0  0
   27.0754  -20.5570  -11.9092 C   0  0  0  0  0  0  0  0  0  0  0  0
   27.3197  -21.9076  -11.8409 C   0  0  0  0  0  0  0  0  0  0  0  0
   27.0301  -22.3278  -10.5835 N   0  0  0  0  0  0  0  0  0  0  0  0
   26.6064  -21.2985   -9.8303 C   0  0  0  0  0  0  0  0  0  0  0  0
   26.2124  -21.2176   -8.4932 C   0  0  0  0  0  0  0  0  0  0  0  0
   25.8369  -20.0192   -7.9581 C   0  0  0  0  0  0  0  0  0  0  0  0
   25.8516  -18.8987   -8.7505 C   0  0  0  0  0  0  0  0  0  0  0  0
   26.2441  -18.9834  -10.0818 C   0  0  0  0  0  0  0  0  0  0  0  0
   26.6278  -20.1848  -10.6419 C   0  0  0  0  0  0  0  0  0  0  0  0
   24.9082  -19.6986  -14.0332 C   0  0  0  0  0  0  0  0  0  0  0  0
   24.3168  -18.5645  -13.9907 O   0  0  0  0  0  0  0  0  0  0  0  0
   24.0562  -20.8307  -13.9007 N   0  0  0  0  0  0  0  0  0  0  0  0
   22.6726  -20.6481  -13.5043 C   0  0  1  0  0  0  0  0  0  0  0  0
   21.8345  -21.8093  -14.1019 C   0  0  0  0  0  0  0  0  0  0  0  0
   22.3993  -22.0965  -15.7998 S   0  0  0  0  0  0  0  0  0  0  0  0
   22.4552  -20.6366  -12.0529 C   0  0  0  0  0  0  0  0  0  0  0  0
   21.1536  -20.3782  -11.5872 O   0  0  0  0  0  0  0  0  0  0  0  0
   23.3109  -20.8336  -11.1826 O   0  0  0  0  0  0  0  0  0  0  0  0
  2  1  1  6
  3  2  1  0
  3  4  1  0
  4  5  2  0
  4  9  1  0
  5  6  1  0
  6  7  2  0
  8  7  1  0
  9  8  2  0
 10  2  1  0
 11 10  2  0
 12 10  1  0
 13 12  1  0
 13 14  1  1
 15 23  1  0
 15 14  1  0
 16 15  2  0
 17 16  1  0
 17 18  1  0
 18 23  2  0
 19 18  1  0
 19 20  2  0
 20 21  1  0
 21 22  2  0
 23 22  1  0
 24 13  1  0
 24 26  1  0
 25 24  2  0
 27 26  1  0
 27 28  1  6
 28 29  1  0
 30 27  1  0
 31 30  1  0
 32 30  2  0
M  END
$$$$
