FWC.pdb
     RDKit          3D

 32 34  0  0  1  0  0  0  0  0999 V2000
   28.1238  -19.9136  -17.6859 N   0  0  0  0  0  0  0  0  0  0  0  0
   27.3556  -19.0678  -16.8305 C   0  0  1  0  0  0  0  0  0  0  0  0
   26.2982  -18.3139  -17.5812 C   0  0  0  0  0  0  0  0  0  0  0  0
   26.9136  -17.3679  -18.5709 C   0  0  0  0  0  0  0  0  0  0  0  0
   27.6013  -16.2502  -18.1554 C   0  0  0  0  0  0  0  0  0  0  0  0
   28.1606  -15.3903  -19.0606 C   0  0  0  0  0  0  0  0  0  0  0  0
   28.0170  -15.6737  -20.4120 C   0  0  0  0  0  0  0  0  0  0  0  0
   27.3362  -16.7812  -20.8524 C   0  0  0  0  0  0  0  0  0  0  0  0
   26.7924  -17.6152  -19.9204 C   0  0  0  0  0  0  0  0  0  0  0  0
   26.7367  -19.7725  -15.6733 C   0  0  0  0  0  0  0  0  0  0  0  0
   26.0670  -20.8080  -15.9951 O   0  0  0  0  0  0  0  0  0  0  0  0
   26.8951  -19.3119  -14.3543 N   0  0  0  0  0  0  0  0  0  0  0  0
   26.3074  -20.1204  -13.2730 C   0  0  1  0  0  0  0  0  0  0  0  0
   27.0278  -19.8674  -12.0043 C   0  0  0  0  0  0  0  0  0  0  0  0
   26.6179  -20.5373  -10.7925 C   0  0  0  0  0  0  0  0  0  0  0  0
   26.1834  -21.8320  -10.6398 C   0  0  0  0  0  0  0  0  0  0  0  0
   25.9012  -22.0327   -9.3277 N   0  0  0  0  0  0  0  0  0  0  0  0
   26.1371  -20.9145   -8.6204 C   0  0  0  0  0  0  0  0  0  0  0  0
   26.0185  -20.6260   -7.2593 C   0  0  0  0  0  0  0  0  0  0  0  0
   26.3483  -19.3883   -6.7874 C   0  0  0  0  0  0  0  0  0  0  0  0
   26.7960  -18.4344   -7.6666 C   0  0  0  0  0  0  0  0  0  0  0  0
   26.9122  -18.7253   -9.0214 C   0  0  0  0  0  0  0  0  0  0  0  0
   26.5847  -19.9701   -9.5189 C   0  0  0  0  0  0  0  0  0  0  0  0
   24.8652  -20.0301  -13.3040 C   0  0  0  0  0  0  0  0  0  0  0  0
   24.2659  -18.9235  -13.5365 O   0  0  0  0  0  0  0  0  0  0  0  0
   24.0108  -21.1482  -13.0921 N   0  0  0  0  0  0  0  0  0  0  0  0
   22.5752  -20.9530  -13.0150 C   0  0  1  0  0  0  0  0  0  0  0  0
   21.8775  -22.2399  -13.5296 C   0  0  0  0  0  0  0  0  0  0  0  0
   22.6140  -22.6807  -15.1258 S   0  0  0  0  0  0  0  0  0  0  0  0
   22.0733  -20.6785  -11.6635 C   0  0  0  0  0  0  0  0  0  0  0  0
   20.6971  -20.4303  -11.5133 O   0  0  0  0  0  0  0  0  0  0  0  0
   22.7449  -20.6421  -10.6261 O   0  0  0  0  0  0  0  0  0  0  0  0
  2  1  1  6
  3  2  1  0
  3  4  1  0
  4  5  2  0
  4  9  1  0
  5  6  1  0
  6  7  2  0
  8  7  1  0
  9  8  2  0
 10  2  1  0
 11 10  2  0
 12 10  1  0
 13 12  1  0
 13 14  1  1
 15 23  1  0
 15 14  1  0
 16 15  2  0
 17 16  1  0
 17 18  1  0
 18 23  2  0
 19 18  1  0
 19 20  2  0
 20 21  1  0
 21 22  2  0
 23 22  1  0
 24 13  1  0
 24 26  1  0
 25 24  2  0
 27 26  1  0
 27 28  1  1
 28 29  1  0
 30 27  1  0
 31 30  1  0
 32 30  2  0
M  END
$$$$
