FWC.pdb
     RDKit          3D

 32 34  0  0  1  0  0  0  0  0999 V2000
   30.6174  -24.9823  -16.5275 N   0  0  0  0  0  0  0  0  0  0  0  0
   29.3039  -24.4925  -16.7959 C   0  0  1  0  0  0  0  0  0  0  0  0
   28.2685  -25.5745  -16.7128 C   0  0  0  0  0  0  0  0  0  0  0  0
   28.3999  -26.5329  -17.8605 C   0  0  0  0  0  0  0  0  0  0  0  0
   27.9361  -26.2094  -19.1156 C   0  0  0  0  0  0  0  0  0  0  0  0
   28.0576  -27.0857  -20.1590 C   0  0  0  0  0  0  0  0  0  0  0  0
   28.6621  -28.3124  -19.9201 C   0  0  0  0  0  0  0  0  0  0  0  0
   29.1329  -28.6593  -18.6784 C   0  0  0  0  0  0  0  0  0  0  0  0
   28.9938  -27.7597  -17.6628 C   0  0  0  0  0  0  0  0  0  0  0  0
   28.8945  -23.3457  -15.9380 C   0  0  0  0  0  0  0  0  0  0  0  0
   29.5140  -23.2834  -14.8260 O   0  0  0  0  0  0  0  0  0  0  0  0
   27.9088  -22.4298  -16.3462 N   0  0  0  0  0  0  0  0  0  0  0  0
   27.6582  -21.2649  -15.4810 C   0  0  1  0  0  0  0  0  0  0  0  0
   27.5913  -20.0327  -16.2995 C   0  0  0  0  0  0  0  0  0  0  0  0
   27.0828  -18.8090  -15.7261 C   0  0  0  0  0  0  0  0  0  0  0  0
   27.6692  -18.0031  -14.7800 C   0  0  0  0  0  0  0  0  0  0  0  0
   26.8349  -16.9615  -14.5342 N   0  0  0  0  0  0  0  0  0  0  0  0
   25.7260  -17.0602  -15.2871 C   0  0  0  0  0  0  0  0  0  0  0  0
   24.6000  -16.2430  -15.4058 C   0  0  0  0  0  0  0  0  0  0  0  0
   23.6021  -16.5696  -16.2782 C   0  0  0  0  0  0  0  0  0  0  0  0
   23.7206  -17.7089  -17.0342 C   0  0  0  0  0  0  0  0  0  0  0  0
   24.8432  -18.5205  -16.9126 C   0  0  0  0  0  0  0  0  0  0  0  0
   25.8632  -18.2082  -16.0373 C   0  0  0  0  0  0  0  0  0  0  0  0
   26.5990  -21.5547  -14.5412 C   0  0  0  0  0  0  0  0  0  0  0  0
   25.5825  -22.2591  -14.8703 O   0  0  0  0  0  0  0  0  0  0  0  0
   26.6068  -21.0958  -13.1942 N   0  0  0  0  0  0  0  0  0  0  0  0
   25.4379  -21.2961  -12.3585 C   0  0  1  0  0  0  0  0  0  0  0  0
   25.8629  -21.1345  -10.8749 C   0  0  0  0  0  0  0  0  0  0  0  0
   26.3933  -19.4198  -10.6241 S   0  0  0  0  0  0  0  0  0  0  0  0
   24.3406  -20.3565  -12.6173 C   0  0  0  0  0  0  0  0  0  0  0  0
   23.0631  -20.6916  -12.1339 O   0  0  0  0  0  0  0  0  0  0  0  0
   24.4233  -19.2836  -13.2260 O   0  0  0  0  0  0  0  0  0  0  0  0
  2  1  1  1
  3  2  1  0
  3  4  1  0
  4  5  2  0
  4  9  1  0
  5  6  1  0
  6  7  2  0
  8  7  1  0
  9  8  2  0
 10  2  1  0
 11 10  2  0
 12 10  1  0
 13 12  1  0
 13 14  1  6
 15 23  1  0
 15 14  1  0
 16 15  2  0
 17 16  1  0
 17 18  1  0
 18 23  2  0
 19 18  1  0
 19 20  2  0
 20 21  1  0
 21 22  2  0
 23 22  1  0
 24 13  1  0
 24 26  1  0
 25 24  2  0
 27 26  1  0
 27 28  1  1
 28 29  1  0
 30 27  1  0
 31 30  1  0
 32 30  2  0
M  END
$$$$
