INE.pdb
     RDKit          3D

 26 25  0  0  1  0  0  0  0  0999 V2000
    6.3662  -11.7092   27.0240 C   0  0  0  0  0  0  0  0  0  0  0  0
    5.9907  -12.9043   26.2272 C   0  0  0  0  0  0  0  0  0  0  0  0
    7.1476  -13.6788   25.6905 C   0  0  2  0  0  0  0  0  0  0  0  0
    8.0726  -12.7440   24.9309 C   0  0  0  0  0  0  0  0  0  0  0  0
    6.6987  -14.8384   24.8430 C   0  0  2  0  0  0  0  0  0  0  0  0
    5.9407  -15.7153   25.7614 N   0  0  0  0  0  0  0  0  0  0  0  0
    7.7913  -15.6638   24.2995 C   0  0  0  0  0  0  0  0  0  0  0  0
    8.1977  -16.6602   24.9884 O   0  0  0  0  0  0  0  0  0  0  0  0
    7.5114  -17.4825   20.8525 N   0  0  0  0  0  0  0  0  0  0  0  0
    8.5619  -16.7300   20.2751 C   0  0  0  0  0  0  0  0  0  0  0  0
    8.5687  -16.5654   19.0373 O   0  0  0  0  0  0  0  0  0  0  0  0
    9.6052  -16.1654   21.1140 C   0  0  0  0  0  0  0  0  0  0  0  0
    9.4749  -16.4157   22.5905 C   0  0  2  0  0  0  0  0  0  0  0  0
    8.4615  -15.4829   23.0687 N   0  0  0  0  0  0  0  0  0  0  0  0
   10.7148  -16.4248   23.3519 C   0  0  0  0  0  0  0  0  0  0  0  0
   11.3675  -15.3327   23.5140 O   0  0  0  0  0  0  0  0  0  0  0  0
   11.2991  -17.5669   23.9556 N   0  0  0  0  0  0  0  0  0  0  0  0
   12.6090  -17.5353   24.6468 C   0  0  1  0  0  0  0  0  0  0  0  0
   12.5642  -18.3590   25.8592 C   0  0  0  0  0  0  0  0  0  0  0  0
   11.6158  -17.9338   26.9100 C   0  0  0  0  0  0  0  0  0  0  0  0
   11.1429  -18.9721   27.8426 C   0  0  0  0  0  0  0  0  0  0  0  0
   11.4072  -20.2003   27.7309 O   0  0  0  0  0  0  0  0  0  0  0  0
   13.6997  -17.7740   23.7324 C   0  0  0  0  0  0  0  0  0  0  0  0
   13.6385  -18.0468   22.5146 O   0  0  0  0  0  0  0  0  0  0  0  0
   10.3445  -18.6180   28.9512 O   0  0  0  0  0  0  0  0  0  0  0  0
   15.0104  -17.6946   24.2570 O   0  0  0  0  0  0  0  0  0  0  0  0
  2  1  1  0
  3  4  1  6
  3  2  1  0
  5  3  1  0
  5  6  1  1
  7  5  1  0
  7  8  2  0
  9 10  1  0
 10 12  1  0
 10 11  2  0
 13 12  1  6
 13 15  1  0
 13 14  1  0
 14  7  1  0
 15 16  2  0
 17 15  1  0
 17 18  1  0
 18 19  1  1
 19 20  1  0
 20 21  1  0
 21 25  1  0
 21 22  2  0
 23 18  1  0
 24 23  2  0
 26 23  1  0
M  END
$$$$
