INE.pdb
     RDKit          3D

 26 25  0  0  1  0  0  0  0  0999 V2000
    6.4724  -11.6719   27.2603 C   0  0  0  0  0  0  0  0  0  0  0  0
    5.9840  -12.7500   26.3639 C   0  0  0  0  0  0  0  0  0  0  0  0
    7.0624  -13.5243   25.6826 C   0  0  2  0  0  0  0  0  0  0  0  0
    7.9736  -12.5688   24.9324 C   0  0  0  0  0  0  0  0  0  0  0  0
    6.5005  -14.5909   24.7820 C   0  0  2  0  0  0  0  0  0  0  0  0
    5.6648  -15.4363   25.6619 N   0  0  0  0  0  0  0  0  0  0  0  0
    7.5063  -15.4889   24.1884 C   0  0  0  0  0  0  0  0  0  0  0  0
    7.9902  -16.4211   24.9160 O   0  0  0  0  0  0  0  0  0  0  0  0
    9.8844  -18.0667   19.5075 N   0  0  0  0  0  0  0  0  0  0  0  0
   10.2023  -16.9036   20.2486 C   0  0  0  0  0  0  0  0  0  0  0  0
   11.3952  -16.5382   20.3048 O   0  0  0  0  0  0  0  0  0  0  0  0
    9.1553  -16.1578   20.9259 C   0  0  0  0  0  0  0  0  0  0  0  0
    9.0838  -16.3243   22.4181 C   0  0  2  0  0  0  0  0  0  0  0  0
    8.0127  -15.4444   22.8700 N   0  0  0  0  0  0  0  0  0  0  0  0
   10.3400  -16.1897   23.1400 C   0  0  0  0  0  0  0  0  0  0  0  0
   10.9851  -15.0824   23.0893 O   0  0  0  0  0  0  0  0  0  0  0  0
   10.9487  -17.2020   23.9242 N   0  0  0  0  0  0  0  0  0  0  0  0
   12.2597  -17.0290   24.5921 C   0  0  1  0  0  0  0  0  0  0  0  0
   12.1514  -17.3565   26.0173 C   0  0  0  0  0  0  0  0  0  0  0  0
   11.2095  -18.4378   26.3752 C   0  0  0  0  0  0  0  0  0  0  0  0
   11.2340  -18.9099   27.7710 C   0  0  0  0  0  0  0  0  0  0  0  0
   12.0885  -18.5517   28.6266 O   0  0  0  0  0  0  0  0  0  0  0  0
   13.3225  -17.6659   23.8522 C   0  0  0  0  0  0  0  0  0  0  0  0
   13.2274  -18.4085   22.8518 O   0  0  0  0  0  0  0  0  0  0  0  0
   10.2553  -19.8179   28.2288 O   0  0  0  0  0  0  0  0  0  0  0  0
   14.6452  -17.4357   24.2959 O   0  0  0  0  0  0  0  0  0  0  0  0
  2  1  1  0
  3  4  1  6
  3  2  1  0
  5  3  1  0
  5  6  1  1
  7  5  1  0
  7  8  2  0
  9 10  1  0
 10 12  1  0
 10 11  2  0
 13 12  1  6
 13 15  1  0
 13 14  1  0
 14  7  1  0
 15 16  2  0
 17 15  1  0
 17 18  1  0
 18 19  1  1
 19 20  1  0
 20 21  1  0
 21 25  1  0
 21 22  2  0
 23 18  1  0
 24 23  2  0
 26 23  1  0
M  END
$$$$
