INE.pdb
     RDKit          3D

 26 25  0  0  1  0  0  0  0  0999 V2000
    7.4838  -11.5298   19.8830 C   0  0  0  0  0  0  0  0  0  0  0  0
    7.0932  -12.9012   20.2962 C   0  0  0  0  0  0  0  0  0  0  0  0
    7.7946  -13.9929   19.5595 C   0  0  2  0  0  0  0  0  0  0  0  0
    7.4463  -13.9113   18.0836 C   0  0  0  0  0  0  0  0  0  0  0  0
    7.4830  -15.3468   20.1378 C   0  0  2  0  0  0  0  0  0  0  0  0
    6.0104  -15.4646   20.0695 N   0  0  0  0  0  0  0  0  0  0  0  0
    7.8398  -15.5071   21.5582 C   0  0  0  0  0  0  0  0  0  0  0  0
    7.0529  -15.0195   22.4389 O   0  0  0  0  0  0  0  0  0  0  0  0
    7.7161  -16.0476   26.4904 N   0  0  0  0  0  0  0  0  0  0  0  0
    8.0432  -17.0604   25.5575 C   0  0  0  0  0  0  0  0  0  0  0  0
    8.3788  -18.1836   25.9879 O   0  0  0  0  0  0  0  0  0  0  0  0
    7.9863  -16.7885   24.1313 C   0  0  0  0  0  0  0  0  0  0  0  0
    9.2418  -16.2415   23.5115 C   0  0  2  0  0  0  0  0  0  0  0  0
    8.9802  -16.1585   22.0796 N   0  0  0  0  0  0  0  0  0  0  0  0
   10.4816  -16.9105   23.8754 C   0  0  0  0  0  0  0  0  0  0  0  0
   10.6451  -18.1477   23.5796 O   0  0  0  0  0  0  0  0  0  0  0  0
   11.5710  -16.3081   24.5541 N   0  0  0  0  0  0  0  0  0  0  0  0
   12.8553  -17.0043   24.7999 C   0  0  1  0  0  0  0  0  0  0  0  0
   13.9814  -16.1077   24.5196 C   0  0  0  0  0  0  0  0  0  0  0  0
   15.3348  -16.6779   24.6864 C   0  0  0  0  0  0  0  0  0  0  0  0
   16.3384  -16.3248   23.6667 C   0  0  0  0  0  0  0  0  0  0  0  0
   16.2560  -15.3213   22.9072 O   0  0  0  0  0  0  0  0  0  0  0  0
   12.8586  -17.6818   26.0741 C   0  0  0  0  0  0  0  0  0  0  0  0
   12.1263  -17.4661   27.0634 O   0  0  0  0  0  0  0  0  0  0  0  0
   17.4862  -17.1278   23.4948 O   0  0  0  0  0  0  0  0  0  0  0  0
   13.7988  -18.7234   26.2485 O   0  0  0  0  0  0  0  0  0  0  0  0
  2  1  1  0
  3  4  1  6
  3  2  1  0
  5  3  1  0
  5  6  1  1
  7  5  1  0
  7  8  2  0
  9 10  1  0
 10 12  1  0
 10 11  2  0
 13 12  1  1
 13 15  1  0
 13 14  1  0
 14  7  1  0
 15 16  2  0
 17 15  1  0
 17 18  1  0
 18 19  1  1
 19 20  1  0
 20 21  1  0
 21 25  1  0
 21 22  2  0
 23 18  1  0
 24 23  2  0
 26 23  1  0
M  END
$$$$
