INE.pdb
     RDKit          3D

 26 25  0  0  1  0  0  0  0  0999 V2000
    6.8730  -11.4398   27.4616 C   0  0  0  0  0  0  0  0  0  0  0  0
    6.3358  -12.6996   26.8886 C   0  0  0  0  0  0  0  0  0  0  0  0
    7.0467  -13.1761   25.6662 C   0  0  2  0  0  0  0  0  0  0  0  0
    7.0031  -12.0935   24.6021 C   0  0  0  0  0  0  0  0  0  0  0  0
    6.4858  -14.4800   25.1665 C   0  0  2  0  0  0  0  0  0  0  0  0
    6.3638  -15.3323   26.3689 N   0  0  0  0  0  0  0  0  0  0  0  0
    7.3625  -15.2112   24.2352 C   0  0  0  0  0  0  0  0  0  0  0  0
    7.1529  -16.4595   24.0602 O   0  0  0  0  0  0  0  0  0  0  0  0
    7.6387  -13.2674   20.0759 N   0  0  0  0  0  0  0  0  0  0  0  0
    8.0828  -14.5416   20.5029 C   0  0  0  0  0  0  0  0  0  0  0  0
    7.4067  -15.5448   20.1932 O   0  0  0  0  0  0  0  0  0  0  0  0
    9.3009  -14.6686   21.2846 C   0  0  0  0  0  0  0  0  0  0  0  0
    9.1988  -15.4882   22.5406 C   0  0  2  0  0  0  0  0  0  0  0  0
    8.4373  -14.6812   23.4865 N   0  0  0  0  0  0  0  0  0  0  0  0
   10.4464  -16.0314   23.0559 C   0  0  0  0  0  0  0  0  0  0  0  0
   11.4406  -15.2486   23.2648 O   0  0  0  0  0  0  0  0  0  0  0  0
   10.6840  -17.3956   23.3607 N   0  0  0  0  0  0  0  0  0  0  0  0
   11.8790  -17.8625   24.1013 C   0  0  1  0  0  0  0  0  0  0  0  0
   11.4836  -18.7652   25.1872 C   0  0  0  0  0  0  0  0  0  0  0  0
   12.5797  -19.3753   25.9688 C   0  0  0  0  0  0  0  0  0  0  0  0
   12.1944  -20.2943   27.0544 C   0  0  0  0  0  0  0  0  0  0  0  0
   11.7573  -19.9226   28.1776 O   0  0  0  0  0  0  0  0  0  0  0  0
   12.9123  -18.3263   23.2070 C   0  0  0  0  0  0  0  0  0  0  0  0
   12.7785  -18.9466   22.1307 O   0  0  0  0  0  0  0  0  0  0  0  0
   12.2979  -21.6899   26.8712 O   0  0  0  0  0  0  0  0  0  0  0  0
   14.2512  -18.0569   23.5734 O   0  0  0  0  0  0  0  0  0  0  0  0
  2  1  1  0
  3  4  1  6
  3  2  1  0
  5  3  1  0
  5  6  1  1
  7  5  1  0
  7  8  2  0
  9 10  1  0
 10 12  1  0
 10 11  2  0
 13 12  1  6
 13 15  1  0
 13 14  1  0
 14  7  1  0
 15 16  2  0
 17 15  1  0
 17 18  1  0
 18 19  1  1
 19 20  1  0
 20 21  1  0
 21 25  1  0
 21 22  2  0
 23 18  1  0
 24 23  2  0
 26 23  1  0
M  END
$$$$
