INE.pdb
     RDKit          3D

 26 25  0  0  1  0  0  0  0  0999 V2000
    6.5393  -10.6027   26.5652 C   0  0  0  0  0  0  0  0  0  0  0  0
    7.1008  -11.9731   26.6693 C   0  0  0  0  0  0  0  0  0  0  0  0
    6.7106  -12.8880   25.5570 C   0  0  2  0  0  0  0  0  0  0  0  0
    5.1964  -12.9422   25.4550 C   0  0  0  0  0  0  0  0  0  0  0  0
    7.3134  -14.2569   25.7221 C   0  0  2  0  0  0  0  0  0  0  0  0
    8.6744  -14.0169   26.2486 N   0  0  0  0  0  0  0  0  0  0  0  0
    7.4879  -15.0087   24.4672 C   0  0  0  0  0  0  0  0  0  0  0  0
    6.6400  -15.9222   24.1857 O   0  0  0  0  0  0  0  0  0  0  0  0
    7.6171  -12.7466   20.7888 N   0  0  0  0  0  0  0  0  0  0  0  0
    7.5595  -14.1592   20.8550 C   0  0  0  0  0  0  0  0  0  0  0  0
    6.4643  -14.7229   20.6499 O   0  0  0  0  0  0  0  0  0  0  0  0
    8.7554  -14.9275   21.1558 C   0  0  0  0  0  0  0  0  0  0  0  0
    8.7074  -15.7653   22.4030 C   0  0  2  0  0  0  0  0  0  0  0  0
    8.5089  -14.8330   23.5062 N   0  0  0  0  0  0  0  0  0  0  0  0
    9.7974  -16.7122   22.5826 C   0  0  0  0  0  0  0  0  0  0  0  0
   10.1255  -17.4918   21.6186 O   0  0  0  0  0  0  0  0  0  0  0  0
   10.5633  -16.8677   23.7657 N   0  0  0  0  0  0  0  0  0  0  0  0
   11.6252  -17.8900   23.9131 C   0  0  1  0  0  0  0  0  0  0  0  0
   12.8747  -17.4160   23.3093 C   0  0  0  0  0  0  0  0  0  0  0  0
   13.5713  -16.3183   24.0124 C   0  0  0  0  0  0  0  0  0  0  0  0
   14.8074  -15.8075   23.3938 C   0  0  0  0  0  0  0  0  0  0  0  0
   14.9017  -14.6926   22.8117 O   0  0  0  0  0  0  0  0  0  0  0  0
   11.6991  -18.3902   25.2647 C   0  0  0  0  0  0  0  0  0  0  0  0
   12.4368  -19.2936   25.7128 O   0  0  0  0  0  0  0  0  0  0  0  0
   15.9900  -16.5768   23.4345 O   0  0  0  0  0  0  0  0  0  0  0  0
   10.8389  -17.7995   26.2191 O   0  0  0  0  0  0  0  0  0  0  0  0
  2  1  1  0
  3  4  1  1
  3  2  1  0
  5  3  1  0
  5  6  1  6
  7  5  1  0
  7  8  2  0
  9 10  1  0
 10 12  1  0
 10 11  2  0
 13 12  1  6
 13 15  1  0
 13 14  1  0
 14  7  1  0
 15 16  2  0
 17 15  1  0
 17 18  1  0
 18 19  1  1
 19 20  1  0
 20 21  1  0
 21 25  1  0
 21 22  2  0
 23 18  1  0
 24 23  2  0
 26 23  1  0
M  END
$$$$
