INE.pdb
     RDKit          3D

 26 25  0  0  1  0  0  0  0  0999 V2000
    6.5064  -11.1762   26.9268 C   0  0  0  0  0  0  0  0  0  0  0  0
    5.9815  -12.4328   26.3356 C   0  0  0  0  0  0  0  0  0  0  0  0
    7.0047  -13.2608   25.6329 C   0  0  2  0  0  0  0  0  0  0  0  0
    7.7342  -12.4042   24.6130 C   0  0  0  0  0  0  0  0  0  0  0  0
    6.3971  -14.4871   25.0072 C   0  0  2  0  0  0  0  0  0  0  0  0
    5.8665  -15.2747   26.1408 N   0  0  0  0  0  0  0  0  0  0  0  0
    7.3562  -15.3647   24.3140 C   0  0  0  0  0  0  0  0  0  0  0  0
    8.0261  -16.1998   25.0114 O   0  0  0  0  0  0  0  0  0  0  0  0
   10.2995  -17.8700   20.7026 N   0  0  0  0  0  0  0  0  0  0  0  0
    9.3313  -17.0525   20.0722 C   0  0  0  0  0  0  0  0  0  0  0  0
    9.2300  -17.0971   18.8283 O   0  0  0  0  0  0  0  0  0  0  0  0
    8.4784  -16.1834   20.8649 C   0  0  0  0  0  0  0  0  0  0  0  0
    8.6442  -16.2749   22.3562 C   0  0  2  0  0  0  0  0  0  0  0  0
    7.6297  -15.3976   22.9281 N   0  0  0  0  0  0  0  0  0  0  0  0
    9.9924  -16.0750   22.8657 C   0  0  0  0  0  0  0  0  0  0  0  0
   10.6606  -15.0420   22.5034 O   0  0  0  0  0  0  0  0  0  0  0  0
   10.6704  -16.9443   23.7573 N   0  0  0  0  0  0  0  0  0  0  0  0
   12.0279  -16.6669   24.2815 C   0  0  1  0  0  0  0  0  0  0  0  0
   12.1534  -17.1628   25.6559 C   0  0  0  0  0  0  0  0  0  0  0  0
   11.7260  -18.5573   25.8947 C   0  0  0  0  0  0  0  0  0  0  0  0
   11.0162  -18.8313   27.1567 C   0  0  0  0  0  0  0  0  0  0  0  0
    9.8882  -19.3910   27.2297 O   0  0  0  0  0  0  0  0  0  0  0  0
   13.0518  -17.0643   23.3454 C   0  0  0  0  0  0  0  0  0  0  0  0
   12.9180  -17.7159   22.2877 O   0  0  0  0  0  0  0  0  0  0  0  0
   11.5981  -18.4677   28.3900 O   0  0  0  0  0  0  0  0  0  0  0  0
   14.3801  -16.6796   23.6406 O   0  0  0  0  0  0  0  0  0  0  0  0
  2  1  1  0
  3  4  1  6
  3  2  1  0
  5  3  1  0
  5  6  1  1
  7  5  1  0
  7  8  2  0
  9 10  1  0
 10 12  1  0
 10 11  2  0
 13 12  1  6
 13 15  1  0
 13 14  1  0
 14  7  1  0
 15 16  2  0
 17 15  1  0
 17 18  1  0
 18 19  1  1
 19 20  1  0
 20 21  1  0
 21 25  1  0
 21 22  2  0
 23 18  1  0
 24 23  2  0
 26 23  1  0
M  END
$$$$
