INE.pdb
     RDKit          3D

 26 25  0  0  1  0  0  0  0  0999 V2000
    6.5100  -11.5018   26.6889 C   0  0  0  0  0  0  0  0  0  0  0  0
    6.7660  -12.8082   27.3461 C   0  0  0  0  0  0  0  0  0  0  0  0
    7.4523  -13.8121   26.4815 C   0  0  2  0  0  0  0  0  0  0  0  0
    8.6453  -13.1625   25.8024 C   0  0  0  0  0  0  0  0  0  0  0  0
    6.5077  -14.4326   25.4880 C   0  0  2  0  0  0  0  0  0  0  0  0
    5.4909  -15.1278   26.3065 N   0  0  0  0  0  0  0  0  0  0  0  0
    7.1108  -15.4629   24.6247 C   0  0  0  0  0  0  0  0  0  0  0  0
    7.0747  -16.6784   25.0169 O   0  0  0  0  0  0  0  0  0  0  0  0
    9.9697  -16.6674   19.4365 N   0  0  0  0  0  0  0  0  0  0  0  0
    8.8157  -16.8993   20.2223 C   0  0  0  0  0  0  0  0  0  0  0  0
    8.1886  -17.9674   20.0625 O   0  0  0  0  0  0  0  0  0  0  0  0
    8.3785  -15.9091   21.1916 C   0  0  0  0  0  0  0  0  0  0  0  0
    8.3469  -16.3566   22.6263 C   0  0  2  0  0  0  0  0  0  0  0  0
    7.7399  -15.2629   23.3753 N   0  0  0  0  0  0  0  0  0  0  0  0
    9.6000  -16.8574   23.1702 C   0  0  0  0  0  0  0  0  0  0  0  0
   10.1479  -17.8939   22.6502 O   0  0  0  0  0  0  0  0  0  0  0  0
   10.3041  -16.2930   24.2638 N   0  0  0  0  0  0  0  0  0  0  0  0
   11.4446  -16.9677   24.9262 C   0  0  1  0  0  0  0  0  0  0  0  0
   12.6966  -16.2679   24.6205 C   0  0  0  0  0  0  0  0  0  0  0  0
   13.2392  -16.4534   23.2583 C   0  0  0  0  0  0  0  0  0  0  0  0
   14.4887  -15.7421   22.9348 C   0  0  0  0  0  0  0  0  0  0  0  0
   14.6093  -14.9113   21.9936 O   0  0  0  0  0  0  0  0  0  0  0  0
   11.1684  -17.2394   26.3163 C   0  0  0  0  0  0  0  0  0  0  0  0
   10.1781  -16.8820   26.9893 O   0  0  0  0  0  0  0  0  0  0  0  0
   15.6512  -15.9675   23.7027 O   0  0  0  0  0  0  0  0  0  0  0  0
   12.1230  -18.0037   27.0263 O   0  0  0  0  0  0  0  0  0  0  0  0
  2  1  1  0
  3  4  1  6
  3  2  1  0
  5  3  1  0
  5  6  1  1
  7  5  1  0
  7  8  2  0
  9 10  1  0
 10 12  1  0
 10 11  2  0
 13 12  1  6
 13 15  1  0
 13 14  1  0
 14  7  1  0
 15 16  2  0
 17 15  1  0
 17 18  1  0
 18 19  1  1
 19 20  1  0
 20 21  1  0
 21 25  1  0
 21 22  2  0
 23 18  1  0
 24 23  2  0
 26 23  1  0
M  END
$$$$
