INE.pdb
     RDKit          3D

 26 25  0  0  1  0  0  0  0  0999 V2000
    8.8071  -11.7313   19.8653 C   0  0  0  0  0  0  0  0  0  0  0  0
    9.0327  -13.1962   19.9510 C   0  0  0  0  0  0  0  0  0  0  0  0
    8.6744  -13.9510   18.7147 C   0  0  2  0  0  0  0  0  0  0  0  0
    7.1815  -13.8303   18.4640 C   0  0  0  0  0  0  0  0  0  0  0  0
    9.1190  -15.3867   18.7882 C   0  0  2  0  0  0  0  0  0  0  0  0
    8.3043  -15.9870   19.8667 N   0  0  0  0  0  0  0  0  0  0  0  0
   10.5250  -15.5768   19.1848 C   0  0  0  0  0  0  0  0  0  0  0  0
   11.4353  -15.3427   18.3192 O   0  0  0  0  0  0  0  0  0  0  0  0
   13.4481  -13.7722   18.2857 N   0  0  0  0  0  0  0  0  0  0  0  0
   13.8649  -14.4949   19.4290 C   0  0  0  0  0  0  0  0  0  0  0  0
   15.0194  -14.9707   19.4471 O   0  0  0  0  0  0  0  0  0  0  0  0
   12.9609  -14.6734   20.5524 C   0  0  0  0  0  0  0  0  0  0  0  0
   12.4258  -16.0632   20.7567 C   0  0  2  0  0  0  0  0  0  0  0  0
   11.0027  -15.9958   20.4470 N   0  0  0  0  0  0  0  0  0  0  0  0
   12.7529  -16.6969   22.0250 C   0  0  0  0  0  0  0  0  0  0  0  0
   12.0175  -16.4764   23.0524 O   0  0  0  0  0  0  0  0  0  0  0  0
   13.8491  -17.5678   22.2490 N   0  0  0  0  0  0  0  0  0  0  0  0
   14.1183  -18.2091   23.5570 C   0  0  1  0  0  0  0  0  0  0  0  0
   15.1224  -19.2674   23.4075 C   0  0  0  0  0  0  0  0  0  0  0  0
   15.4792  -20.0148   24.6316 C   0  0  0  0  0  0  0  0  0  0  0  0
   16.5461  -21.0241   24.5105 C   0  0  0  0  0  0  0  0  0  0  0  0
   17.7515  -20.8238   24.8231 O   0  0  0  0  0  0  0  0  0  0  0  0
   14.3468  -17.2307   24.5930 C   0  0  0  0  0  0  0  0  0  0  0  0
   14.8487  -16.0920   24.4802 O   0  0  0  0  0  0  0  0  0  0  0  0
   16.2481  -22.3148   24.0237 O   0  0  0  0  0  0  0  0  0  0  0  0
   13.9629  -17.5817   25.9078 O   0  0  0  0  0  0  0  0  0  0  0  0
  2  1  1  0
  3  4  1  1
  3  2  1  0
  5  3  1  0
  5  6  1  1
  7  5  1  0
  7  8  2  0
  9 10  1  0
 10 12  1  0
 10 11  2  0
 13 12  1  1
 13 15  1  0
 13 14  1  0
 14  7  1  0
 15 16  2  0
 17 15  1  0
 17 18  1  0
 18 19  1  6
 19 20  1  0
 20 21  1  0
 21 25  1  0
 21 22  2  0
 23 18  1  0
 24 23  2  0
 26 23  1  0
M  END
$$$$
