INE.pdb
     RDKit          3D

 26 25  0  0  1  0  0  0  0  0999 V2000
    6.7290  -10.9694   27.1961 C   0  0  0  0  0  0  0  0  0  0  0  0
    6.0911  -12.1369   26.5371 C   0  0  0  0  0  0  0  0  0  0  0  0
    7.0416  -13.0437   25.8293 C   0  0  2  0  0  0  0  0  0  0  0  0
    7.8386  -12.2458   24.8123 C   0  0  0  0  0  0  0  0  0  0  0  0
    6.3339  -14.2125   25.1989 C   0  0  2  0  0  0  0  0  0  0  0  0
    5.7636  -14.9734   26.3315 N   0  0  0  0  0  0  0  0  0  0  0  0
    7.2135  -15.1500   24.4791 C   0  0  0  0  0  0  0  0  0  0  0  0
    7.6299  -16.1868   25.0991 O   0  0  0  0  0  0  0  0  0  0  0  0
   10.0114  -17.7230   20.8003 N   0  0  0  0  0  0  0  0  0  0  0  0
    9.2023  -16.7212   20.2131 C   0  0  0  0  0  0  0  0  0  0  0  0
    9.1302  -16.6652   18.9677 O   0  0  0  0  0  0  0  0  0  0  0  0
    8.4752  -15.7828   21.0508 C   0  0  0  0  0  0  0  0  0  0  0  0
    8.5351  -16.0339   22.5317 C   0  0  2  0  0  0  0  0  0  0  0  0
    7.6622  -15.0393   23.1438 N   0  0  0  0  0  0  0  0  0  0  0  0
    9.8654  -16.1301   23.1132 C   0  0  0  0  0  0  0  0  0  0  0  0
   10.7168  -15.1934   22.9072 O   0  0  0  0  0  0  0  0  0  0  0  0
   10.3351  -17.2004   23.9157 N   0  0  0  0  0  0  0  0  0  0  0  0
   11.7085  -17.2545   24.4685 C   0  0  1  0  0  0  0  0  0  0  0  0
   11.7470  -18.1210   25.6509 C   0  0  0  0  0  0  0  0  0  0  0  0
   10.7659  -17.8259   26.7162 C   0  0  0  0  0  0  0  0  0  0  0  0
   10.7210  -18.7556   27.8588 C   0  0  0  0  0  0  0  0  0  0  0  0
   10.7419  -20.0122   27.7527 O   0  0  0  0  0  0  0  0  0  0  0  0
   12.6875  -17.5071   23.4388 C   0  0  0  0  0  0  0  0  0  0  0  0
   12.4877  -17.7901   22.2383 O   0  0  0  0  0  0  0  0  0  0  0  0
   10.6557  -18.2552   29.1768 O   0  0  0  0  0  0  0  0  0  0  0  0
   14.0496  -17.4305   23.8109 O   0  0  0  0  0  0  0  0  0  0  0  0
  2  1  1  0
  3  4  1  6
  3  2  1  0
  5  3  1  0
  5  6  1  1
  7  5  1  0
  7  8  2  0
  9 10  1  0
 10 12  1  0
 10 11  2  0
 13 12  1  6
 13 15  1  0
 13 14  1  0
 14  7  1  0
 15 16  2  0
 17 15  1  0
 17 18  1  0
 18 19  1  1
 19 20  1  0
 20 21  1  0
 21 25  1  0
 21 22  2  0
 23 18  1  0
 24 23  2  0
 26 23  1  0
M  END
$$$$
