INE.pdb
     RDKit          3D

 26 25  0  0  1  0  0  0  0  0999 V2000
    6.6505  -12.8483   20.6232 C   0  0  0  0  0  0  0  0  0  0  0  0
    7.3091  -13.5166   19.4726 C   0  0  0  0  0  0  0  0  0  0  0  0
    8.7867  -13.6723   19.6103 C   0  0  2  0  0  0  0  0  0  0  0  0
    9.4255  -12.3046   19.7768 C   0  0  0  0  0  0  0  0  0  0  0  0
    9.3783  -14.4334   18.4548 C   0  0  2  0  0  0  0  0  0  0  0  0
    8.4846  -15.5957   18.2619 N   0  0  0  0  0  0  0  0  0  0  0  0
   10.7204  -14.9874   18.7044 C   0  0  0  0  0  0  0  0  0  0  0  0
   10.8099  -16.1025   19.3219 O   0  0  0  0  0  0  0  0  0  0  0  0
   16.0181  -16.1374   17.3486 N   0  0  0  0  0  0  0  0  0  0  0  0
   15.6176  -14.9028   17.9128 C   0  0  0  0  0  0  0  0  0  0  0  0
   16.4606  -14.2338   18.5463 O   0  0  0  0  0  0  0  0  0  0  0  0
   14.2521  -14.4328   17.7524 C   0  0  0  0  0  0  0  0  0  0  0  0
   13.2341  -15.0267   18.6856 C   0  0  2  0  0  0  0  0  0  0  0  0
   11.9580  -14.4187   18.3281 N   0  0  0  0  0  0  0  0  0  0  0  0
   13.5621  -14.9872   20.1026 C   0  0  0  0  0  0  0  0  0  0  0  0
   13.6126  -13.8591   20.7106 O   0  0  0  0  0  0  0  0  0  0  0  0
   13.8452  -16.1167   20.9115 N   0  0  0  0  0  0  0  0  0  0  0  0
   14.1355  -16.0210   22.3610 C   0  0  1  0  0  0  0  0  0  0  0  0
   13.3279  -16.9916   23.1066 C   0  0  0  0  0  0  0  0  0  0  0  0
   13.5838  -17.0840   24.5593 C   0  0  0  0  0  0  0  0  0  0  0  0
   12.7622  -18.0402   25.3226 C   0  0  0  0  0  0  0  0  0  0  0  0
   11.8037  -18.6995   24.8355 O   0  0  0  0  0  0  0  0  0  0  0  0
   15.5551  -16.0129   22.6205 C   0  0  0  0  0  0  0  0  0  0  0  0
   16.4728  -16.4589   21.8993 O   0  0  0  0  0  0  0  0  0  0  0  0
   13.0302  -18.2714   26.6888 O   0  0  0  0  0  0  0  0  0  0  0  0
   15.9854  -15.4331   23.8363 O   0  0  0  0  0  0  0  0  0  0  0  0
  2  1  1  0
  3  4  1  6
  3  2  1  0
  5  3  1  0
  5  6  1  1
  7  5  1  0
  7  8  2  0
  9 10  1  0
 10 12  1  0
 10 11  2  0
 13 12  1  6
 13 15  1  0
 13 14  1  0
 14  7  1  0
 15 16  2  0
 17 15  1  0
 17 18  1  0
 18 19  1  1
 19 20  1  0
 20 21  1  0
 21 25  1  0
 21 22  2  0
 23 18  1  0
 24 23  2  0
 26 23  1  0
M  END
$$$$
