INE.pdb
     RDKit          3D

 26 25  0  0  1  0  0  0  0  0999 V2000
    7.4687  -11.4713   19.7320 C   0  0  0  0  0  0  0  0  0  0  0  0
    7.2596  -12.8260   19.1617 C   0  0  0  0  0  0  0  0  0  0  0  0
    8.2026  -13.8642   19.6710 C   0  0  2  0  0  0  0  0  0  0  0  0
    9.6317  -13.4053   19.4403 C   0  0  0  0  0  0  0  0  0  0  0  0
    7.9369  -15.2109   19.0544 C   0  0  2  0  0  0  0  0  0  0  0  0
    6.5279  -15.5144   19.3858 N   0  0  0  0  0  0  0  0  0  0  0  0
    8.7352  -16.3142   19.6163 C   0  0  0  0  0  0  0  0  0  0  0  0
    8.3604  -16.8298   20.7237 O   0  0  0  0  0  0  0  0  0  0  0  0
   10.9395  -21.4610   19.4768 N   0  0  0  0  0  0  0  0  0  0  0  0
   11.5486  -20.2143   19.1973 C   0  0  0  0  0  0  0  0  0  0  0  0
   12.7870  -20.1130   19.3218 O   0  0  0  0  0  0  0  0  0  0  0  0
   10.7407  -19.0829   18.7751 C   0  0  0  0  0  0  0  0  0  0  0  0
   10.6527  -17.9353   19.7420 C   0  0  2  0  0  0  0  0  0  0  0  0
    9.8986  -16.8910   19.0590 N   0  0  0  0  0  0  0  0  0  0  0  0
   11.9065  -17.5018   20.3397 C   0  0  0  0  0  0  0  0  0  0  0  0
   12.7046  -16.7556   19.6680 O   0  0  0  0  0  0  0  0  0  0  0  0
   12.3540  -17.8370   21.6426 N   0  0  0  0  0  0  0  0  0  0  0  0
   13.6210  -17.3289   22.2182 C   0  0  1  0  0  0  0  0  0  0  0  0
   14.4434  -16.7122   21.1723 C   0  0  0  0  0  0  0  0  0  0  0  0
   14.5690  -15.2403   21.2152 C   0  0  0  0  0  0  0  0  0  0  0  0
   15.6143  -14.6344   20.3713 C   0  0  0  0  0  0  0  0  0  0  0  0
   16.4411  -15.2928   19.6832 O   0  0  0  0  0  0  0  0  0  0  0  0
   13.3899  -16.5529   23.4127 C   0  0  0  0  0  0  0  0  0  0  0  0
   12.2988  -16.1568   23.8752 O   0  0  0  0  0  0  0  0  0  0  0  0
   15.7341  -13.2305   20.2908 O   0  0  0  0  0  0  0  0  0  0  0  0
   14.5245  -16.1827   24.1711 O   0  0  0  0  0  0  0  0  0  0  0  0
  2  1  1  0
  3  4  1  6
  3  2  1  0
  5  3  1  0
  5  6  1  1
  7  5  1  0
  7  8  2  0
  9 10  1  0
 10 12  1  0
 10 11  2  0
 13 12  1  6
 13 15  1  0
 13 14  1  0
 14  7  1  0
 15 16  2  0
 17 15  1  0
 17 18  1  0
 18 19  1  6
 19 20  1  0
 20 21  1  0
 21 25  1  0
 21 22  2  0
 23 18  1  0
 24 23  2  0
 26 23  1  0
M  END
$$$$
