INE.pdb
     RDKit          3D

 26 25  0  0  1  0  0  0  0  0999 V2000
    8.5216  -12.1008   27.2797 C   0  0  0  0  0  0  0  0  0  0  0  0
    7.7625  -13.2710   26.7712 C   0  0  0  0  0  0  0  0  0  0  0  0
    6.9525  -12.9992   25.5478 C   0  0  2  0  0  0  0  0  0  0  0  0
    5.8932  -11.9580   25.8643 C   0  0  0  0  0  0  0  0  0  0  0  0
    6.3534  -14.2588   24.9833 C   0  0  2  0  0  0  0  0  0  0  0  0
    5.7385  -14.9444   26.1404 N   0  0  0  0  0  0  0  0  0  0  0  0
    7.3301  -15.2066   24.4191 C   0  0  0  0  0  0  0  0  0  0  0  0
    7.6966  -16.1977   25.1375 O   0  0  0  0  0  0  0  0  0  0  0  0
   10.8557  -16.4169   19.6525 N   0  0  0  0  0  0  0  0  0  0  0  0
    9.8395  -16.9266   20.4956 C   0  0  0  0  0  0  0  0  0  0  0  0
    9.7397  -18.1640   20.6305 O   0  0  0  0  0  0  0  0  0  0  0  0
    8.9370  -16.0203   21.1850 C   0  0  0  0  0  0  0  0  0  0  0  0
    8.8793  -16.1550   22.6811 C   0  0  2  0  0  0  0  0  0  0  0  0
    7.9253  -15.1520   23.1387 N   0  0  0  0  0  0  0  0  0  0  0  0
   10.1580  -16.1538   23.3755 C   0  0  0  0  0  0  0  0  0  0  0  0
   11.0155  -15.2339   23.1238 O   0  0  0  0  0  0  0  0  0  0  0  0
   10.5691  -17.1078   24.3404 N   0  0  0  0  0  0  0  0  0  0  0  0
   11.9182  -17.1092   24.9525 C   0  0  1  0  0  0  0  0  0  0  0  0
   11.8603  -17.6622   26.3095 C   0  0  0  0  0  0  0  0  0  0  0  0
   11.5527  -19.1035   26.4210 C   0  0  0  0  0  0  0  0  0  0  0  0
   11.5326  -19.6790   27.7775 C   0  0  0  0  0  0  0  0  0  0  0  0
   12.5144  -19.6650   28.5692 O   0  0  0  0  0  0  0  0  0  0  0  0
   12.9073  -17.6644   24.0603 C   0  0  0  0  0  0  0  0  0  0  0  0
   12.7192  -18.3066   23.0051 O   0  0  0  0  0  0  0  0  0  0  0  0
   10.3602  -20.2913   28.2698 O   0  0  0  0  0  0  0  0  0  0  0  0
   14.2656  -17.4701   24.4019 O   0  0  0  0  0  0  0  0  0  0  0  0
  2  1  1  0
  3  4  1  1
  3  2  1  0
  5  3  1  0
  5  6  1  1
  7  5  1  0
  7  8  2  0
  9 10  1  0
 10 12  1  0
 10 11  2  0
 13 12  1  6
 13 15  1  0
 13 14  1  0
 14  7  1  0
 15 16  2  0
 17 15  1  0
 17 18  1  0
 18 19  1  1
 19 20  1  0
 20 21  1  0
 21 25  1  0
 21 22  2  0
 23 18  1  0
 24 23  2  0
 26 23  1  0
M  END
$$$$
