AQM.pdb
     RDKit          3D

 23 22  0  0  1  0  0  0  0  0999 V2000
   28.6426  -20.6193  -16.4612 C   0  0  0  0  0  0  0  0  0  0  0  0
   27.3119  -19.9197  -16.1648 C   0  0  2  0  0  0  0  0  0  0  0  0
   27.5047  -18.7311  -15.4127 N   0  0  0  0  0  0  0  0  0  0  0  0
   26.4461  -20.9209  -15.5166 C   0  0  0  0  0  0  0  0  0  0  0  0
   26.2340  -22.0003  -16.1156 O   0  0  0  0  0  0  0  0  0  0  0  0
   26.1303  -21.6655   -9.4999 N   0  0  0  0  0  0  0  0  0  0  0  0
   25.3930  -20.5500   -9.9567 C   0  0  0  0  0  0  0  0  0  0  0  0
   25.0635  -19.6686   -9.1503 O   0  0  0  0  0  0  0  0  0  0  0  0
   25.0537  -20.5109  -11.4187 C   0  0  0  0  0  0  0  0  0  0  0  0
   25.4479  -21.7552  -12.1159 C   0  0  0  0  0  0  0  0  0  0  0  0
   25.0208  -21.7177  -13.5693 C   0  0  2  0  0  0  0  0  0  0  0  0
   25.8550  -20.7007  -14.2524 N   0  0  0  0  0  0  0  0  0  0  0  0
   23.6142  -21.3418  -13.7879 C   0  0  0  0  0  0  0  0  0  0  0  0
   23.2845  -20.1115  -13.7675 O   0  0  0  0  0  0  0  0  0  0  0  0
   16.5618  -24.0000  -16.1577 C   0  0  0  0  0  0  0  0  0  0  0  0
   18.3009  -24.3057  -15.7478 S   0  0  0  0  0  0  0  0  0  0  0  0
   18.9944  -22.7638  -15.0777 C   0  0  0  0  0  0  0  0  0  0  0  0
   20.4508  -22.9866  -14.8183 C   0  0  0  0  0  0  0  0  0  0  0  0
   21.1777  -21.7854  -14.2612 C   0  0  2  0  0  0  0  0  0  0  0  0
   22.5557  -22.2437  -14.0333 N   0  0  0  0  0  0  0  0  0  0  0  0
   20.6236  -21.2587  -13.0161 C   0  0  0  0  0  0  0  0  0  0  0  0
   19.7202  -20.3641  -13.0786 O   0  0  0  0  0  0  0  0  0  0  0  0
   21.0400  -21.6926  -11.7467 O   0  0  0  0  0  0  0  0  0  0  0  0
  2  1  1  1
  2  3  1  0
  4  2  1  0
  5  4  2  0
  6  7  1  0
  7  8  2  0
  9  7  1  0
  9 10  1  0
 11 10  1  1
 11 13  1  0
 11 12  1  0
 12  4  1  0
 13 20  1  0
 14 13  2  0
 16 17  1  0
 16 15  1  0
 19 18  1  1
 18 17  1  0
 20 19  1  0
 21 23  1  0
 21 19  1  0
 22 21  2  0
M  END
$$$$
