AQM.pdb
     RDKit          3D

 23 22  0  0  1  0  0  0  0  0999 V2000
   29.6273  -19.0138  -14.3437 C   0  0  0  0  0  0  0  0  0  0  0  0
   28.3842  -19.3243  -15.1843 C   0  0  2  0  0  0  0  0  0  0  0  0
   28.2458  -18.4140  -16.2650 N   0  0  0  0  0  0  0  0  0  0  0  0
   27.2423  -19.3473  -14.2528 C   0  0  0  0  0  0  0  0  0  0  0  0
   26.7807  -18.2544  -13.8511 O   0  0  0  0  0  0  0  0  0  0  0  0
   22.5804  -19.6595  -14.0325 N   0  0  0  0  0  0  0  0  0  0  0  0
   22.3802  -20.4183  -12.8574 C   0  0  0  0  0  0  0  0  0  0  0  0
   21.5078  -20.0682  -12.0500 O   0  0  0  0  0  0  0  0  0  0  0  0
   23.2579  -21.6213  -12.6663 C   0  0  0  0  0  0  0  0  0  0  0  0
   24.4818  -21.5559  -13.4957 C   0  0  0  0  0  0  0  0  0  0  0  0
   25.4859  -20.5899  -12.9002 C   0  0  2  0  0  0  0  0  0  0  0  0
   26.6596  -20.5539  -13.8046 N   0  0  0  0  0  0  0  0  0  0  0  0
   25.9801  -20.9618  -11.5641 C   0  0  0  0  0  0  0  0  0  0  0  0
   26.6229  -22.0514  -11.4154 O   0  0  0  0  0  0  0  0  0  0  0  0
   29.8075  -19.2342   -6.7364 C   0  0  0  0  0  0  0  0  0  0  0  0
   28.1466  -18.7863   -6.1643 S   0  0  0  0  0  0  0  0  0  0  0  0
   26.9770  -20.0020   -6.8436 C   0  0  0  0  0  0  0  0  0  0  0  0
   26.8725  -19.7689   -8.3177 C   0  0  0  0  0  0  0  0  0  0  0  0
   26.0131  -20.7721   -9.0501 C   0  0  2  0  0  0  0  0  0  0  0  0
   25.8110  -20.1983  -10.3882 N   0  0  0  0  0  0  0  0  0  0  0  0
   24.7174  -21.0363   -8.4288 C   0  0  0  0  0  0  0  0  0  0  0  0
   23.6736  -20.5279   -8.9507 O   0  0  0  0  0  0  0  0  0  0  0  0
   24.5650  -21.8277   -7.2784 O   0  0  0  0  0  0  0  0  0  0  0  0
  2  1  1  1
  2  3  1  0
  4  2  1  0
  5  4  2  0
  6  7  1  0
  7  8  2  0
  9  7  1  0
  9 10  1  0
 11 10  1  6
 11 13  1  0
 11 12  1  0
 12  4  1  0
 13 20  1  0
 14 13  2  0
 16 17  1  0
 16 15  1  0
 19 18  1  1
 18 17  1  0
 20 19  1  0
 21 23  1  0
 21 19  1  0
 22 21  2  0
M  END
$$$$
