AQM.pdb
     RDKit          3D

 23 22  0  0  1  0  0  0  0  0999 V2000
   17.0714  -11.7032  -17.5534 C   0  0  0  0  0  0  0  0  0  0  0  0
   18.3781  -11.5030  -16.7786 C   0  0  2  0  0  0  0  0  0  0  0  0
   18.6631  -12.6142  -15.9421 N   0  0  0  0  0  0  0  0  0  0  0  0
   18.2525  -10.2179  -16.0680 C   0  0  0  0  0  0  0  0  0  0  0  0
   18.0655   -9.1804  -16.7445 O   0  0  0  0  0  0  0  0  0  0  0  0
   16.4275   -9.5785  -10.2253 N   0  0  0  0  0  0  0  0  0  0  0  0
   15.5564   -9.4006  -11.3235 C   0  0  0  0  0  0  0  0  0  0  0  0
   14.3325   -9.4809  -11.1467 O   0  0  0  0  0  0  0  0  0  0  0  0
   16.1892   -9.1206  -12.6559 C   0  0  0  0  0  0  0  0  0  0  0  0
   17.6668   -9.0973  -12.5772 C   0  0  0  0  0  0  0  0  0  0  0  0
   18.2753   -8.8303  -13.9390 C   0  0  2  0  0  0  0  0  0  0  0  0
   18.3361  -10.1234  -14.6608 N   0  0  0  0  0  0  0  0  0  0  0  0
   19.6437   -8.2881  -13.9060 C   0  0  0  0  0  0  0  0  0  0  0  0
   20.6348   -9.0880  -13.9332 O   0  0  0  0  0  0  0  0  0  0  0  0
   25.1179   -6.6533  -17.9659 C   0  0  0  0  0  0  0  0  0  0  0  0
   23.5414   -7.3237  -17.3730 S   0  0  0  0  0  0  0  0  0  0  0  0
   23.1670   -6.5370  -15.7766 C   0  0  0  0  0  0  0  0  0  0  0  0
   21.8301   -7.0299  -15.3209 C   0  0  0  0  0  0  0  0  0  0  0  0
   21.3623   -6.4460  -14.0088 C   0  0  2  0  0  0  0  0  0  0  0  0
   19.9789   -6.9175  -13.8515 N   0  0  0  0  0  0  0  0  0  0  0  0
   21.3937   -4.9867  -13.9431 C   0  0  0  0  0  0  0  0  0  0  0  0
   22.4209   -4.4184  -13.4509 O   0  0  0  0  0  0  0  0  0  0  0  0
   20.3417   -4.1752  -14.3987 O   0  0  0  0  0  0  0  0  0  0  0  0
  2  1  1  1
  2  3  1  0
  4  2  1  0
  5  4  2  0
  6  7  1  0
  7  8  2  0
  9  7  1  0
  9 10  1  0
 11 10  1  1
 11 13  1  0
 11 12  1  0
 12  4  1  0
 13 20  1  0
 14 13  2  0
 16 17  1  0
 16 15  1  0
 19 18  1  6
 18 17  1  0
 20 19  1  0
 21 23  1  0
 21 19  1  0
 22 21  2  0
M  END
$$$$
