AQM.pdb
     RDKit          3D

 23 22  0  0  1  0  0  0  0  0999 V2000
   19.2777  -19.4914  -10.5640 C   0  0  0  0  0  0  0  0  0  0  0  0
   19.0858  -20.4858  -11.7140 C   0  0  2  0  0  0  0  0  0  0  0  0
   18.0373  -21.4030  -11.4397 N   0  0  0  0  0  0  0  0  0  0  0  0
   20.3991  -21.1105  -11.9526 C   0  0  0  0  0  0  0  0  0  0  0  0
   20.7171  -22.1076  -11.2643 O   0  0  0  0  0  0  0  0  0  0  0  0
   23.5601  -20.8573  -17.2881 N   0  0  0  0  0  0  0  0  0  0  0  0
   24.5305  -21.5026  -16.4891 C   0  0  0  0  0  0  0  0  0  0  0  0
   25.5739  -21.9144  -17.0156 O   0  0  0  0  0  0  0  0  0  0  0  0
   24.2218  -21.6466  -15.0268 C   0  0  0  0  0  0  0  0  0  0  0  0
   22.8918  -21.0974  -14.6812 C   0  0  0  0  0  0  0  0  0  0  0  0
   22.6064  -21.2658  -13.2026 C   0  0  2  0  0  0  0  0  0  0  0  0
   21.3003  -20.6224  -12.9252 N   0  0  0  0  0  0  0  0  0  0  0  0
   23.5957  -20.6400  -12.3096 C   0  0  0  0  0  0  0  0  0  0  0  0
   23.5515  -19.3827  -12.1096 O   0  0  0  0  0  0  0  0  0  0  0  0
   27.3409  -19.4507   -6.1427 C   0  0  0  0  0  0  0  0  0  0  0  0
   26.8693  -20.8871   -7.1431 S   0  0  0  0  0  0  0  0  0  0  0  0
   27.0289  -20.4226   -8.8941 C   0  0  0  0  0  0  0  0  0  0  0  0
   25.8399  -20.9608   -9.6252 C   0  0  0  0  0  0  0  0  0  0  0  0
   25.8066  -20.6256  -11.0976 C   0  0  2  0  0  0  0  0  0  0  0  0
   24.6233  -21.3223  -11.6222 N   0  0  0  0  0  0  0  0  0  0  0  0
   26.9913  -21.0394  -11.8459 C   0  0  0  0  0  0  0  0  0  0  0  0
   26.9511  -22.1302  -12.5009 O   0  0  0  0  0  0  0  0  0  0  0  0
   28.1787  -20.2898  -11.8790 O   0  0  0  0  0  0  0  0  0  0  0  0
  2  1  1  1
  2  3  1  0
  4  2  1  0
  5  4  2  0
  6  7  1  0
  7  8  2  0
  9  7  1  0
  9 10  1  0
 11 10  1  6
 11 13  1  0
 11 12  1  0
 12  4  1  0
 13 20  1  0
 14 13  2  0
 16 17  1  0
 16 15  1  0
 19 18  1  1
 18 17  1  0
 20 19  1  0
 21 23  1  0
 21 19  1  0
 22 21  2  0
M  END
$$$$
