AQM.pdb
     RDKit          3D

 23 22  0  0  1  0  0  0  0  0999 V2000
   28.1283  -23.0866  -16.3108 C   0  0  0  0  0  0  0  0  0  0  0  0
   27.3267  -21.7808  -16.2894 C   0  0  2  0  0  0  0  0  0  0  0  0
   28.1649  -20.6590  -16.0552 N   0  0  0  0  0  0  0  0  0  0  0  0
   26.2544  -21.9624  -15.2948 C   0  0  0  0  0  0  0  0  0  0  0  0
   25.3898  -22.8435  -15.5070 O   0  0  0  0  0  0  0  0  0  0  0  0
   26.5398  -20.3621   -9.2888 N   0  0  0  0  0  0  0  0  0  0  0  0
   25.1702  -20.7017   -9.3624 C   0  0  0  0  0  0  0  0  0  0  0  0
   24.4858  -20.6909   -8.3293 O   0  0  0  0  0  0  0  0  0  0  0  0
   24.6294  -21.0594  -10.7165 C   0  0  0  0  0  0  0  0  0  0  0  0
   25.6780  -21.0320  -11.7605 C   0  0  0  0  0  0  0  0  0  0  0  0
   25.0908  -21.3398  -13.1230 C   0  0  2  0  0  0  0  0  0  0  0  0
   26.1744  -21.1795  -14.1214 N   0  0  0  0  0  0  0  0  0  0  0  0
   23.9894  -20.4530  -13.5331 C   0  0  0  0  0  0  0  0  0  0  0  0
   24.2526  -19.2742  -13.9382 O   0  0  0  0  0  0  0  0  0  0  0  0
   22.9282  -18.6823  -18.1554 C   0  0  0  0  0  0  0  0  0  0  0  0
   21.1617  -19.0664  -18.0206 S   0  0  0  0  0  0  0  0  0  0  0  0
   20.7244  -19.0639  -16.2554 C   0  0  0  0  0  0  0  0  0  0  0  0
   21.7691  -19.8416  -15.5194 C   0  0  0  0  0  0  0  0  0  0  0  0
   21.5841  -19.8750  -14.0208 C   0  0  2  0  0  0  0  0  0  0  0  0
   22.6193  -20.7948  -13.5277 N   0  0  0  0  0  0  0  0  0  0  0  0
   20.2694  -20.3328  -13.5771 C   0  0  0  0  0  0  0  0  0  0  0  0
   20.1258  -21.5541  -13.2481 O   0  0  0  0  0  0  0  0  0  0  0  0
   19.1502  -19.4882  -13.4946 O   0  0  0  0  0  0  0  0  0  0  0  0
  2  1  1  1
  2  3  1  0
  4  2  1  0
  5  4  2  0
  6  7  1  0
  7  8  2  0
  9  7  1  0
  9 10  1  0
 11 10  1  1
 11 13  1  0
 11 12  1  0
 12  4  1  0
 13 20  1  0
 14 13  2  0
 16 17  1  0
 16 15  1  0
 19 18  1  6
 18 17  1  0
 20 19  1  0
 21 23  1  0
 21 19  1  0
 22 21  2  0
M  END
$$$$
