AQM.pdb
     RDKit          3D

 23 22  0  0  1  0  0  0  0  0999 V2000
   20.8263  -14.9532  -15.9381 C   0  0  0  0  0  0  0  0  0  0  0  0
   19.7822  -14.5602  -16.9885 C   0  0  2  0  0  0  0  0  0  0  0  0
   20.0258  -15.2031  -18.2307 N   0  0  0  0  0  0  0  0  0  0  0  0
   19.7825  -13.0876  -17.0506 C   0  0  0  0  0  0  0  0  0  0  0  0
   20.6311  -12.5235  -17.7791 O   0  0  0  0  0  0  0  0  0  0  0  0
   15.3517  -11.9268  -15.1103 N   0  0  0  0  0  0  0  0  0  0  0  0
   15.2243  -11.4133  -16.4206 C   0  0  0  0  0  0  0  0  0  0  0  0
   14.1936  -11.6484  -17.0671 O   0  0  0  0  0  0  0  0  0  0  0  0
   16.3719  -10.6017  -16.9481 C   0  0  0  0  0  0  0  0  0  0  0  0
   17.4258  -10.3986  -15.9293 C   0  0  0  0  0  0  0  0  0  0  0  0
   18.7785  -10.8292  -16.4593 C   0  0  2  0  0  0  0  0  0  0  0  0
   18.8630  -12.3023  -16.3199 N   0  0  0  0  0  0  0  0  0  0  0  0
   19.9306  -10.2595  -15.7411 C   0  0  0  0  0  0  0  0  0  0  0  0
   20.4584  -10.9148  -14.7847 O   0  0  0  0  0  0  0  0  0  0  0  0
   26.9161  -10.2634  -14.9315 C   0  0  0  0  0  0  0  0  0  0  0  0
   25.2878  -10.6026  -15.6524 S   0  0  0  0  0  0  0  0  0  0  0  0
   24.1705   -9.2533  -15.1639 C   0  0  0  0  0  0  0  0  0  0  0  0
   22.7917   -9.6050  -15.6257 C   0  0  0  0  0  0  0  0  0  0  0  0
   21.7449   -8.5593  -15.3224 C   0  0  2  0  0  0  0  0  0  0  0  0
   20.5351   -9.0146  -16.0223 N   0  0  0  0  0  0  0  0  0  0  0  0
   22.0858   -7.2078  -15.7607 C   0  0  0  0  0  0  0  0  0  0  0  0
   22.6562   -6.4230  -14.9366 O   0  0  0  0  0  0  0  0  0  0  0  0
   21.8145   -6.7287  -17.0529 O   0  0  0  0  0  0  0  0  0  0  0  0
  2  1  1  1
  2  3  1  0
  4  2  1  0
  5  4  2  0
  6  7  1  0
  7  8  2  0
  9  7  1  0
  9 10  1  0
 11 10  1  1
 11 13  1  0
 11 12  1  0
 12  4  1  0
 13 20  1  0
 14 13  2  0
 16 17  1  0
 16 15  1  0
 19 18  1  6
 18 17  1  0
 20 19  1  0
 21 23  1  0
 21 19  1  0
 22 21  2  0
M  END
$$$$
