AQM.pdb
     RDKit          3D

 23 22  0  0  1  0  0  0  0  0999 V2000
   22.8851  -20.7620  -17.6205 C   0  0  0  0  0  0  0  0  0  0  0  0
   22.5085  -20.6424  -16.1400 C   0  0  2  0  0  0  0  0  0  0  0  0
   21.8961  -19.3930  -15.8578 N   0  0  0  0  0  0  0  0  0  0  0  0
   23.7371  -20.9099  -15.3711 C   0  0  0  0  0  0  0  0  0  0  0  0
   24.3008  -22.0188  -15.5180 O   0  0  0  0  0  0  0  0  0  0  0  0
   28.0735  -20.8453  -15.0314 N   0  0  0  0  0  0  0  0  0  0  0  0
   28.5774  -20.2531  -13.8515 C   0  0  0  0  0  0  0  0  0  0  0  0
   29.6786  -20.6150  -13.4133 O   0  0  0  0  0  0  0  0  0  0  0  0
   27.7242  -19.2046  -13.1982 C   0  0  0  0  0  0  0  0  0  0  0  0
   26.4381  -19.0128  -13.9047 C   0  0  0  0  0  0  0  0  0  0  0  0
   25.5336  -20.2134  -13.7140 C   0  0  2  0  0  0  0  0  0  0  0  0
   24.2915  -19.9616  -14.4825 N   0  0  0  0  0  0  0  0  0  0  0  0
   25.1359  -20.4690  -12.3197 C   0  0  0  0  0  0  0  0  0  0  0  0
   24.0152  -20.0337  -11.8986 O   0  0  0  0  0  0  0  0  0  0  0  0
   27.6184  -18.4498   -7.1074 C   0  0  0  0  0  0  0  0  0  0  0  0
   27.5704  -20.2214   -6.7263 S   0  0  0  0  0  0  0  0  0  0  0  0
   26.1771  -20.9500   -7.6402 C   0  0  0  0  0  0  0  0  0  0  0  0
   26.5047  -20.9003   -9.0990 C   0  0  0  0  0  0  0  0  0  0  0  0
   25.4144  -21.4247  -10.0031 C   0  0  2  0  0  0  0  0  0  0  0  0
   25.8997  -21.1811  -11.3691 N   0  0  0  0  0  0  0  0  0  0  0  0
   24.1121  -20.7868   -9.8241 C   0  0  0  0  0  0  0  0  0  0  0  0
   23.8433  -19.7438  -10.5026 O   0  0  0  0  0  0  0  0  0  0  0  0
   23.1366  -21.2696   -8.9363 O   0  0  0  0  0  0  0  0  0  0  0  0
  2  1  1  6
  2  3  1  0
  4  2  1  0
  5  4  2  0
  6  7  1  0
  7  8  2  0
  9  7  1  0
  9 10  1  0
 11 10  1  1
 11 13  1  0
 11 12  1  0
 12  4  1  0
 13 20  1  0
 14 13  2  0
 16 17  1  0
 16 15  1  0
 19 18  1  1
 18 17  1  0
 20 19  1  0
 21 23  1  0
 21 19  1  0
 22 21  2  0
M  END
$$$$
