AQM.pdb
     RDKit          3D

 23 22  0  0  1  0  0  0  0  0999 V2000
   25.7355  -20.7889   -9.1832 C   0  0  0  0  0  0  0  0  0  0  0  0
   24.7869  -20.4260  -10.3306 C   0  0  2  0  0  0  0  0  0  0  0  0
   23.9434  -21.5154  -10.6731 N   0  0  0  0  0  0  0  0  0  0  0  0
   25.6312  -19.9346  -11.4342 C   0  0  0  0  0  0  0  0  0  0  0  0
   26.4139  -18.9837  -11.2059 O   0  0  0  0  0  0  0  0  0  0  0  0
   27.2170  -23.4936  -16.1848 N   0  0  0  0  0  0  0  0  0  0  0  0
   28.3638  -22.7956  -15.7442 C   0  0  0  0  0  0  0  0  0  0  0  0
   29.4870  -23.2115  -16.0621 O   0  0  0  0  0  0  0  0  0  0  0  0
   28.1352  -21.5726  -14.9038 C   0  0  0  0  0  0  0  0  0  0  0  0
   26.6956  -21.2780  -14.7283 C   0  0  0  0  0  0  0  0  0  0  0  0
   26.4967  -20.0823  -13.8191 C   0  0  2  0  0  0  0  0  0  0  0  0
   25.5837  -20.4992  -12.7285 N   0  0  0  0  0  0  0  0  0  0  0  0
   25.8881  -18.9097  -14.4687 C   0  0  0  0  0  0  0  0  0  0  0  0
   24.6200  -18.8342  -14.5633 O   0  0  0  0  0  0  0  0  0  0  0  0
   27.0031  -11.3474  -16.2309 C   0  0  0  0  0  0  0  0  0  0  0  0
   27.5247  -12.8928  -15.4398 S   0  0  0  0  0  0  0  0  0  0  0  0
   26.3658  -14.1982  -15.9498 C   0  0  0  0  0  0  0  0  0  0  0  0
   26.7943  -15.4760  -15.3004 C   0  0  0  0  0  0  0  0  0  0  0  0
   25.9119  -16.6619  -15.6108 C   0  0  2  0  0  0  0  0  0  0  0  0
   26.5974  -17.8162  -15.0122 N   0  0  0  0  0  0  0  0  0  0  0  0
   25.6934  -16.9054  -17.0348 C   0  0  0  0  0  0  0  0  0  0  0  0
   26.6214  -17.4550  -17.7110 O   0  0  0  0  0  0  0  0  0  0  0  0
   24.5042  -16.5618  -17.6986 O   0  0  0  0  0  0  0  0  0  0  0  0
  2  1  1  1
  2  3  1  0
  4  2  1  0
  5  4  2  0
  6  7  1  0
  7  8  2  0
  9  7  1  0
  9 10  1  0
 11 10  1  6
 11 13  1  0
 11 12  1  0
 12  4  1  0
 13 20  1  0
 14 13  2  0
 16 17  1  0
 16 15  1  0
 19 18  1  6
 18 17  1  0
 20 19  1  0
 21 23  1  0
 21 19  1  0
 22 21  2  0
M  END
$$$$
