AQM.pdb
     RDKit          3D

 23 22  0  0  1  0  0  0  0  0999 V2000
   29.5199  -33.7883   -2.6019 C   0  0  0  0  0  0  0  0  0  0  0  0
   28.2725  -34.5935   -2.9811 C   0  0  2  0  0  0  0  0  0  0  0  0
   27.8722  -34.3345   -4.3184 N   0  0  0  0  0  0  0  0  0  0  0  0
   27.2497  -34.2867   -1.9653 C   0  0  0  0  0  0  0  0  0  0  0  0
   26.4556  -33.3437   -2.1870 O   0  0  0  0  0  0  0  0  0  0  0  0
   22.9038  -35.7893   -0.6486 N   0  0  0  0  0  0  0  0  0  0  0  0
   22.9399  -35.8664    0.7618 C   0  0  0  0  0  0  0  0  0  0  0  0
   21.8871  -35.7426    1.4037 O   0  0  0  0  0  0  0  0  0  0  0  0
   24.2806  -36.0979    1.3968 C   0  0  0  0  0  0  0  0  0  0  0  0
   25.3652  -36.1831    0.3936 C   0  0  0  0  0  0  0  0  0  0  0  0
   26.0197  -34.8316    0.1908 C   0  0  2  0  0  0  0  0  0  0  0  0
   27.1402  -35.0179   -0.7613 N   0  0  0  0  0  0  0  0  0  0  0  0
   26.5837  -34.2316    1.4113 C   0  0  0  0  0  0  0  0  0  0  0  0
   27.6768  -34.6841    1.8838 O   0  0  0  0  0  0  0  0  0  0  0  0
   23.7906  -29.2429    4.5390 C   0  0  0  0  0  0  0  0  0  0  0  0
   25.5494  -28.9813    4.8915 S   0  0  0  0  0  0  0  0  0  0  0  0
   26.3728  -30.6023    4.8495 C   0  0  0  0  0  0  0  0  0  0  0  0
   25.9196  -31.3190    3.6170 C   0  0  0  0  0  0  0  0  0  0  0  0
   26.6406  -32.6187    3.3485 C   0  0  2  0  0  0  0  0  0  0  0  0
   26.0148  -33.1598    2.1335 N   0  0  0  0  0  0  0  0  0  0  0  0
   26.5510  -33.6016    4.4258 C   0  0  0  0  0  0  0  0  0  0  0  0
   25.4529  -34.2222    4.5980 O   0  0  0  0  0  0  0  0  0  0  0  0
   27.6215  -33.8978    5.2855 O   0  0  0  0  0  0  0  0  0  0  0  0
  2  1  1  1
  2  3  1  0
  4  2  1  0
  5  4  2  0
  6  7  1  0
  7  8  2  0
  9  7  1  0
  9 10  1  0
 11 10  1  1
 11 13  1  0
 11 12  1  0
 12  4  1  0
 13 20  1  0
 14 13  2  0
 16 17  1  0
 16 15  1  0
 19 18  1  1
 18 17  1  0
 20 19  1  0
 21 23  1  0
 21 19  1  0
 22 21  2  0
M  END
$$$$
