AQM.pdb
     RDKit          3D

 23 22  0  0  1  0  0  0  0  0999 V2000
   28.6673  -20.6069  -16.6302 C   0  0  0  0  0  0  0  0  0  0  0  0
   27.5947  -19.6230  -16.1510 C   0  0  2  0  0  0  0  0  0  0  0  0
   28.1712  -18.4998  -15.5016 N   0  0  0  0  0  0  0  0  0  0  0  0
   26.6566  -20.3969  -15.3185 C   0  0  0  0  0  0  0  0  0  0  0  0
   26.0330  -21.3445  -15.8497 O   0  0  0  0  0  0  0  0  0  0  0  0
   26.2573  -20.0971   -9.0422 N   0  0  0  0  0  0  0  0  0  0  0  0
   25.1739  -20.9632   -9.3119 C   0  0  0  0  0  0  0  0  0  0  0  0
   24.5214  -21.4312   -8.3680 O   0  0  0  0  0  0  0  0  0  0  0  0
   24.8838  -21.2617  -10.7544 C   0  0  0  0  0  0  0  0  0  0  0  0
   25.8497  -20.6067  -11.6643 C   0  0  0  0  0  0  0  0  0  0  0  0
   25.4809  -20.8561  -13.1127 C   0  0  2  0  0  0  0  0  0  0  0  0
   26.4426  -20.1039  -13.9530 N   0  0  0  0  0  0  0  0  0  0  0  0
   24.1312  -20.4056  -13.4904 C   0  0  0  0  0  0  0  0  0  0  0  0
   23.8836  -19.1578  -13.5573 O   0  0  0  0  0  0  0  0  0  0  0  0
   18.3924  -21.2102  -18.4776 C   0  0  0  0  0  0  0  0  0  0  0  0
   20.0563  -21.5401  -17.8381 S   0  0  0  0  0  0  0  0  0  0  0  0
   20.1360  -20.9009  -16.1374 C   0  0  0  0  0  0  0  0  0  0  0  0
   21.4906  -21.2182  -15.5876 C   0  0  0  0  0  0  0  0  0  0  0  0
   21.7268  -20.7211  -14.1810 C   0  0  2  0  0  0  0  0  0  0  0  0
   23.0448  -21.2516  -13.8038 N   0  0  0  0  0  0  0  0  0  0  0  0
   20.7277  -21.1501  -13.2050 C   0  0  0  0  0  0  0  0  0  0  0  0
   20.9855  -22.1545  -12.4667 O   0  0  0  0  0  0  0  0  0  0  0  0
   19.4904  -20.5061  -13.0396 O   0  0  0  0  0  0  0  0  0  0  0  0
  2  1  1  1
  2  3  1  0
  4  2  1  0
  5  4  2  0
  6  7  1  0
  7  8  2  0
  9  7  1  0
  9 10  1  0
 11 10  1  1
 11 13  1  0
 11 12  1  0
 12  4  1  0
 13 20  1  0
 14 13  2  0
 16 17  1  0
 16 15  1  0
 19 18  1  6
 18 17  1  0
 20 19  1  0
 21 23  1  0
 21 19  1  0
 22 21  2  0
M  END
$$$$
