AQM.pdb
     RDKit          3D

 23 22  0  0  1  0  0  0  0  0999 V2000
   19.1387  -13.6735  -16.2774 C   0  0  0  0  0  0  0  0  0  0  0  0
   18.3081  -13.1498  -17.4538 C   0  0  2  0  0  0  0  0  0  0  0  0
   18.5905  -13.8626  -18.6487 N   0  0  0  0  0  0  0  0  0  0  0  0
   18.5583  -11.6995  -17.5320 C   0  0  0  0  0  0  0  0  0  0  0  0
   19.6715  -11.3102  -17.9540 O   0  0  0  0  0  0  0  0  0  0  0  0
   15.2665   -7.4040  -15.0860 N   0  0  0  0  0  0  0  0  0  0  0  0
   15.9668   -6.5201  -15.9374 C   0  0  0  0  0  0  0  0  0  0  0  0
   15.9854   -5.3096  -15.6726 O   0  0  0  0  0  0  0  0  0  0  0  0
   16.6537   -7.1232  -17.1284 C   0  0  0  0  0  0  0  0  0  0  0  0
   16.4902   -8.5931  -17.1809 C   0  0  0  0  0  0  0  0  0  0  0  0
   17.8379   -9.2855  -17.1973 C   0  0  2  0  0  0  0  0  0  0  0  0
   17.5888  -10.7458  -17.1489 N   0  0  0  0  0  0  0  0  0  0  0  0
   18.7122   -8.9574  -16.0592 C   0  0  0  0  0  0  0  0  0  0  0  0
   18.7877   -9.7629  -15.0751 O   0  0  0  0  0  0  0  0  0  0  0  0
   22.6080   -9.6987  -11.4519 C   0  0  0  0  0  0  0  0  0  0  0  0
   22.4874  -10.2860  -13.1627 S   0  0  0  0  0  0  0  0  0  0  0  0
   22.6862   -8.8493  -14.2599 C   0  0  0  0  0  0  0  0  0  0  0  0
   21.5087   -8.8054  -15.1816 C   0  0  0  0  0  0  0  0  0  0  0  0
   20.5542   -7.6637  -14.9229 C   0  0  2  0  0  0  0  0  0  0  0  0
   19.5103   -7.7976  -15.9491 N   0  0  0  0  0  0  0  0  0  0  0  0
   21.1547   -6.3342  -15.0045 C   0  0  0  0  0  0  0  0  0  0  0  0
   21.2066   -5.7548  -16.1367 O   0  0  0  0  0  0  0  0  0  0  0  0
   21.6801   -5.6597  -13.8901 O   0  0  0  0  0  0  0  0  0  0  0  0
  2  1  1  1
  2  3  1  0
  4  2  1  0
  5  4  2  0
  6  7  1  0
  7  8  2  0
  9  7  1  0
  9 10  1  0
 11 10  1  1
 11 13  1  0
 11 12  1  0
 12  4  1  0
 13 20  1  0
 14 13  2  0
 16 17  1  0
 16 15  1  0
 19 18  1  6
 18 17  1  0
 20 19  1  0
 21 23  1  0
 21 19  1  0
 22 21  2  0
M  END
$$$$
