HSY.pdb
     RDKit          3D

 29 30  0  0  1  0  0  0  0  0999 V2000
    6.9542  -16.7341   20.8844 N   0  0  0  0  0  0  0  0  0  0  0  0
    8.0025  -16.0625   21.6291 C   0  0  1  0  0  0  0  0  0  0  0  0
    7.5354  -14.6104   21.7923 C   0  0  0  0  0  0  0  0  0  0  0  0
    7.8210  -13.8948   20.5314 C   0  0  0  0  0  0  0  0  0  0  0  0
    8.4292  -14.4645   19.4152 C   0  0  0  0  0  0  0  0  0  0  0  0
    8.5219  -13.5130   18.4671 N   0  0  0  0  0  0  0  0  0  0  0  0
    7.9998  -12.3719   18.9365 C   0  0  0  0  0  0  0  0  0  0  0  0
    7.5764  -12.6170   20.1943 N   0  0  0  0  0  0  0  0  0  0  0  0
    8.1398  -16.6059   23.0007 C   0  0  0  0  0  0  0  0  0  0  0  0
    7.1031  -16.7483   23.6933 O   0  0  0  0  0  0  0  0  0  0  0  0
   11.4737  -18.3329   23.9360 O   0  0  0  0  0  0  0  0  0  0  0  0
   10.4800  -18.7170   24.8255 C   0  0  0  0  0  0  0  0  0  0  0  0
    9.4980  -17.5516   24.9081 C   0  0  2  0  0  0  0  0  0  0  0  0
    9.3813  -16.9756   23.5774 N   0  0  0  0  0  0  0  0  0  0  0  0
   10.1392  -16.5259   25.7692 C   0  0  0  0  0  0  0  0  0  0  0  0
   11.0590  -15.7675   25.3606 O   0  0  0  0  0  0  0  0  0  0  0  0
    5.9337  -12.2784   24.6777 O   0  0  0  0  0  0  0  0  0  0  0  0
    6.7710  -12.8351   25.6329 C   0  0  0  0  0  0  0  0  0  0  0  0
    8.1395  -12.7261   25.4837 C   0  0  0  0  0  0  0  0  0  0  0  0
    8.9483  -13.2992   26.4656 C   0  0  0  0  0  0  0  0  0  0  0  0
    8.4159  -13.9525   27.5493 C   0  0  0  0  0  0  0  0  0  0  0  0
    9.3115  -14.5392   28.5513 C   0  0  0  0  0  0  0  0  0  0  0  0
   10.4000  -15.4111   27.9873 C   0  0  2  0  0  0  0  0  0  0  0  0
    9.7189  -16.3738   27.1054 N   0  0  0  0  0  0  0  0  0  0  0  0
   11.1085  -16.2159   29.0024 C   0  0  0  0  0  0  0  0  0  0  0  0
   11.8028  -15.6217   29.8653 O   0  0  0  0  0  0  0  0  0  0  0  0
    7.0427  -14.0327   27.6500 C   0  0  0  0  0  0  0  0  0  0  0  0
    6.1980  -13.4832   26.7068 C   0  0  0  0  0  0  0  0  0  0  0  0
   11.0703  -17.6005   29.0838 O   0  0  0  0  0  0  0  0  0  0  0  0
  2  1  1  6
  2  3  1  0
  4  3  1  0
  4  8  1  0
  5  6  1  0
  5  4  2  0
  6  7  1  0
  7  8  2  0
  9  2  1  0
 10  9  2  0
 11 12  1  0
 13 12  1  6
 13 14  1  0
 14  9  1  0
 15 13  1  0
 15 24  1  0
 16 15  2  0
 18 17  1  0
 19 18  2  0
 20 19  1  0
 21 27  1  0
 21 20  2  0
 22 21  1  0
 23 22  1  1
 23 24  1  0
 23 25  1  0
 25 29  1  0
 26 25  2  0
 27 28  2  0
 28 18  1  0
M  END
$$$$
