HSY.pdb
     RDKit          3D

 29 30  0  0  1  0  0  0  0  0999 V2000
   13.0618  -23.8103   22.0265 N   0  0  0  0  0  0  0  0  0  0  0  0
   13.3813  -24.2316   23.3775 C   0  0  1  0  0  0  0  0  0  0  0  0
   14.8923  -24.0188   23.5358 C   0  0  0  0  0  0  0  0  0  0  0  0
   15.5836  -24.9853   22.6575 C   0  0  0  0  0  0  0  0  0  0  0  0
   16.3518  -24.6413   21.5475 C   0  0  0  0  0  0  0  0  0  0  0  0
   16.8180  -25.7802   21.0014 N   0  0  0  0  0  0  0  0  0  0  0  0
   16.3780  -26.8238   21.7172 C   0  0  0  0  0  0  0  0  0  0  0  0
   15.6275  -26.3270   22.7228 N   0  0  0  0  0  0  0  0  0  0  0  0
   12.7366  -23.3659   24.3924 C   0  0  0  0  0  0  0  0  0  0  0  0
   12.9491  -22.1300   24.3452 O   0  0  0  0  0  0  0  0  0  0  0  0
    9.7149  -24.7516   26.5546 O   0  0  0  0  0  0  0  0  0  0  0  0
    9.7672  -23.3691   26.4457 C   0  0  0  0  0  0  0  0  0  0  0  0
   11.2457  -22.9938   26.3965 C   0  0  2  0  0  0  0  0  0  0  0  0
   11.8895  -23.8567   25.4182 N   0  0  0  0  0  0  0  0  0  0  0  0
   11.8103  -23.3471   27.7236 C   0  0  0  0  0  0  0  0  0  0  0  0
   12.2464  -24.4974   27.9972 O   0  0  0  0  0  0  0  0  0  0  0  0
   17.0734  -18.5749   28.6402 O   0  0  0  0  0  0  0  0  0  0  0  0
   16.2823  -19.6771   28.9277 C   0  0  0  0  0  0  0  0  0  0  0  0
   15.3551  -20.1089   27.9999 C   0  0  0  0  0  0  0  0  0  0  0  0
   14.5782  -21.2210   28.3261 C   0  0  0  0  0  0  0  0  0  0  0  0
   14.7196  -21.8743   29.5253 C   0  0  0  0  0  0  0  0  0  0  0  0
   13.8756  -23.0370   29.8189 C   0  0  0  0  0  0  0  0  0  0  0  0
   12.4256  -22.7161   30.0590 C   0  0  2  0  0  0  0  0  0  0  0  0
   11.8724  -22.3717   28.7385 N   0  0  0  0  0  0  0  0  0  0  0  0
   12.2082  -21.5329   30.9152 C   0  0  0  0  0  0  0  0  0  0  0  0
   11.6185  -20.5361   30.4270 O   0  0  0  0  0  0  0  0  0  0  0  0
   15.6604  -21.4017   30.4163 C   0  0  0  0  0  0  0  0  0  0  0  0
   16.4541  -20.3061   30.1428 C   0  0  0  0  0  0  0  0  0  0  0  0
   12.6088  -21.4288   32.2395 O   0  0  0  0  0  0  0  0  0  0  0  0
  2  1  1  6
  2  3  1  0
  4  3  1  0
  4  8  1  0
  5  6  1  0
  5  4  2  0
  6  7  1  0
  7  8  2  0
  9  2  1  0
 10  9  2  0
 11 12  1  0
 13 12  1  1
 13 14  1  0
 14  9  1  0
 15 13  1  0
 15 24  1  0
 16 15  2  0
 18 17  1  0
 19 18  2  0
 20 19  1  0
 21 27  1  0
 21 20  2  0
 22 21  1  0
 23 22  1  6
 23 24  1  0
 23 25  1  0
 25 29  1  0
 26 25  2  0
 27 28  2  0
 28 18  1  0
M  END
$$$$
