HSY.pdb
     RDKit          3D

 29 30  0  0  1  0  0  0  0  0999 V2000
   11.3146  -18.1393   19.4284 N   0  0  0  0  0  0  0  0  0  0  0  0
   11.3546  -17.2749   20.5930 C   0  0  1  0  0  0  0  0  0  0  0  0
   10.7474  -15.9397   20.1439 C   0  0  0  0  0  0  0  0  0  0  0  0
   11.8544  -15.0470   19.7423 C   0  0  0  0  0  0  0  0  0  0  0  0
   13.2021  -15.3994   19.7520 C   0  0  0  0  0  0  0  0  0  0  0  0
   13.9081  -14.3357   19.3246 N   0  0  0  0  0  0  0  0  0  0  0  0
   13.0659  -13.3313   19.0469 C   0  0  0  0  0  0  0  0  0  0  0  0
   11.8184  -13.7767   19.3053 N   0  0  0  0  0  0  0  0  0  0  0  0
   10.4840  -17.7759   21.6821 C   0  0  0  0  0  0  0  0  0  0  0  0
    9.4373  -18.3954   21.3730 O   0  0  0  0  0  0  0  0  0  0  0  0
   11.7549  -19.6149   24.4162 O   0  0  0  0  0  0  0  0  0  0  0  0
   10.3716  -19.6171   24.3042 C   0  0  0  0  0  0  0  0  0  0  0  0
    9.9494  -18.1622   24.1198 C   0  0  2  0  0  0  0  0  0  0  0  0
   10.7676  -17.5944   23.0595 N   0  0  0  0  0  0  0  0  0  0  0  0
   10.3174  -17.4586   25.3746 C   0  0  0  0  0  0  0  0  0  0  0  0
   11.4022  -16.8329   25.5151 O   0  0  0  0  0  0  0  0  0  0  0  0
    7.1452  -11.6415   24.7829 O   0  0  0  0  0  0  0  0  0  0  0  0
    7.4737  -12.7169   25.5946 C   0  0  0  0  0  0  0  0  0  0  0  0
    8.4093  -12.5513   26.5968 C   0  0  0  0  0  0  0  0  0  0  0  0
    8.7128  -13.6567   27.3921 C   0  0  0  0  0  0  0  0  0  0  0  0
    8.1098  -14.8745   27.1969 C   0  0  0  0  0  0  0  0  0  0  0  0
    8.4673  -16.0048   28.0600 C   0  0  0  0  0  0  0  0  0  0  0  0
    9.7458  -16.7027   27.6838 C   0  0  2  0  0  0  0  0  0  0  0  0
    9.4323  -17.4764   26.4707 N   0  0  0  0  0  0  0  0  0  0  0  0
   10.2099  -17.6829   28.6859 C   0  0  0  0  0  0  0  0  0  0  0  0
    9.9939  -18.9037   28.4796 O   0  0  0  0  0  0  0  0  0  0  0  0
    7.1825  -14.9857   26.1820 C   0  0  0  0  0  0  0  0  0  0  0  0
    6.8463  -13.9237   25.3669 C   0  0  0  0  0  0  0  0  0  0  0  0
   10.8776  -17.3612   29.8589 O   0  0  0  0  0  0  0  0  0  0  0  0
  2  1  1  6
  2  3  1  0
  4  3  1  0
  4  8  1  0
  5  6  1  0
  5  4  2  0
  6  7  1  0
  7  8  2  0
  9  2  1  0
 10  9  2  0
 11 12  1  0
 13 12  1  1
 13 14  1  0
 14  9  1  0
 15 13  1  0
 15 24  1  0
 16 15  2  0
 18 17  1  0
 19 18  2  0
 20 19  1  0
 21 27  1  0
 21 20  2  0
 22 21  1  0
 23 22  1  1
 23 24  1  0
 23 25  1  0
 25 29  1  0
 26 25  2  0
 27 28  2  0
 28 18  1  0
M  END
$$$$
