HSY.pdb
     RDKit          3D

 29 30  0  0  1  0  0  0  0  0999 V2000
   10.1548  -16.8862   16.8603 N   0  0  0  0  0  0  0  0  0  0  0  0
   10.1147  -17.4468   18.1978 C   0  0  1  0  0  0  0  0  0  0  0  0
   11.5265  -17.2657   18.7698 C   0  0  0  0  0  0  0  0  0  0  0  0
   12.4334  -18.1801   18.0452 C   0  0  0  0  0  0  0  0  0  0  0  0
   12.0283  -19.3272   17.3665 C   0  0  0  0  0  0  0  0  0  0  0  0
   13.1251  -19.8987   16.8344 N   0  0  0  0  0  0  0  0  0  0  0  0
   14.2004  -19.1634   17.1476 C   0  0  0  0  0  0  0  0  0  0  0  0
   13.7663  -18.1196   17.8850 N   0  0  0  0  0  0  0  0  0  0  0  0
    9.2099  -16.6838   19.0890 C   0  0  0  0  0  0  0  0  0  0  0  0
    9.5496  -15.5267   19.4362 O   0  0  0  0  0  0  0  0  0  0  0  0
    6.3589  -18.6447   21.0754 O   0  0  0  0  0  0  0  0  0  0  0  0
    5.9323  -17.3460   20.8358 C   0  0  0  0  0  0  0  0  0  0  0  0
    7.1891  -16.5145   20.5940 C   0  0  2  0  0  0  0  0  0  0  0  0
    7.9768  -17.1888   19.5737 N   0  0  0  0  0  0  0  0  0  0  0  0
    7.9740  -16.5687   21.8533 C   0  0  0  0  0  0  0  0  0  0  0  0
    9.2069  -16.3121   21.9025 O   0  0  0  0  0  0  0  0  0  0  0  0
    7.1952  -11.3299   28.4528 O   0  0  0  0  0  0  0  0  0  0  0  0
    7.1770  -12.1777   27.3555 C   0  0  0  0  0  0  0  0  0  0  0  0
    8.3493  -12.7789   26.9414 C   0  0  0  0  0  0  0  0  0  0  0  0
    8.2900  -13.6250   25.8336 C   0  0  0  0  0  0  0  0  0  0  0  0
    7.1132  -13.8617   25.1675 C   0  0  0  0  0  0  0  0  0  0  0  0
    7.1070  -14.7581   24.0071 C   0  0  0  0  0  0  0  0  0  0  0  0
    7.6041  -16.1503   24.2861 C   0  0  2  0  0  0  0  0  0  0  0  0
    7.3360  -16.9197   23.0594 N   0  0  0  0  0  0  0  0  0  0  0  0
    6.8755  -16.8401   25.3695 C   0  0  0  0  0  0  0  0  0  0  0  0
    5.6740  -17.1571   25.1807 O   0  0  0  0  0  0  0  0  0  0  0  0
    5.9713  -13.2359   25.6224 C   0  0  0  0  0  0  0  0  0  0  0  0
    5.9754  -12.3899   26.7130 C   0  0  0  0  0  0  0  0  0  0  0  0
    7.4182  -17.1737   26.6020 O   0  0  0  0  0  0  0  0  0  0  0  0
  2  1  1  6
  2  3  1  0
  4  3  1  0
  4  8  1  0
  5  6  1  0
  5  4  2  0
  6  7  1  0
  7  8  2  0
  9  2  1  0
 10  9  2  0
 11 12  1  0
 13 12  1  1
 13 14  1  0
 14  9  1  0
 15 13  1  0
 15 24  1  0
 16 15  2  0
 18 17  1  0
 19 18  2  0
 20 19  1  0
 21 27  1  0
 21 20  2  0
 22 21  1  0
 23 22  1  6
 23 24  1  0
 23 25  1  0
 25 29  1  0
 26 25  2  0
 27 28  2  0
 28 18  1  0
M  END
$$$$
