HSY.pdb
     RDKit          3D

 29 30  0  0  1  0  0  0  0  0999 V2000
   11.3451  -19.3914   18.3833 N   0  0  0  0  0  0  0  0  0  0  0  0
   11.0617  -17.9838   18.5910 C   0  0  1  0  0  0  0  0  0  0  0  0
   10.2214  -17.5439   17.3853 C   0  0  0  0  0  0  0  0  0  0  0  0
   11.0516  -17.6923   16.1719 C   0  0  0  0  0  0  0  0  0  0  0  0
   12.0481  -16.8023   15.7777 C   0  0  0  0  0  0  0  0  0  0  0  0
   12.5824  -17.2648   14.6318 N   0  0  0  0  0  0  0  0  0  0  0  0
   11.9675  -18.4045   14.2881 C   0  0  0  0  0  0  0  0  0  0  0  0
   11.0374  -18.6544   15.2336 N   0  0  0  0  0  0  0  0  0  0  0  0
   10.2131  -17.7622   19.7852 C   0  0  0  0  0  0  0  0  0  0  0  0
    9.8830  -16.5864   20.0736 O   0  0  0  0  0  0  0  0  0  0  0  0
    9.4725  -20.7785   22.3845 O   0  0  0  0  0  0  0  0  0  0  0  0
    8.3887  -19.9193   22.2692 C   0  0  0  0  0  0  0  0  0  0  0  0
    8.9484  -18.5742   21.8146 C   0  0  2  0  0  0  0  0  0  0  0  0
    9.7511  -18.8078   20.6241 N   0  0  0  0  0  0  0  0  0  0  0  0
    9.8778  -18.1265   22.8826 C   0  0  0  0  0  0  0  0  0  0  0  0
   10.8588  -17.3669   22.6615 O   0  0  0  0  0  0  0  0  0  0  0  0
   10.6023  -13.6241   30.1026 O   0  0  0  0  0  0  0  0  0  0  0  0
   10.4073  -14.3240   28.9213 C   0  0  0  0  0  0  0  0  0  0  0  0
    9.3938  -13.9424   28.0644 C   0  0  0  0  0  0  0  0  0  0  0  0
    9.2295  -14.6713   26.8861 C   0  0  0  0  0  0  0  0  0  0  0  0
   10.0404  -15.7346   26.5755 C   0  0  0  0  0  0  0  0  0  0  0  0
    9.8229  -16.4684   25.3247 C   0  0  0  0  0  0  0  0  0  0  0  0
   10.3635  -17.8723   25.3178 C   0  0  2  0  0  0  0  0  0  0  0  0
    9.6760  -18.5558   24.2093 N   0  0  0  0  0  0  0  0  0  0  0  0
   10.0431  -18.6431   26.5357 C   0  0  0  0  0  0  0  0  0  0  0  0
    8.8762  -19.0883   26.6774 O   0  0  0  0  0  0  0  0  0  0  0  0
   11.0375  -16.0739   27.4661 C   0  0  0  0  0  0  0  0  0  0  0  0
   11.2425  -15.3860   28.6450 C   0  0  0  0  0  0  0  0  0  0  0  0
   10.9409  -18.9219   27.5561 O   0  0  0  0  0  0  0  0  0  0  0  0
  2  1  1  6
  2  3  1  0
  4  3  1  0
  4  8  1  0
  5  6  1  0
  5  4  2  0
  6  7  1  0
  7  8  2  0
  9  2  1  0
 10  9  2  0
 11 12  1  0
 13 12  1  1
 13 14  1  0
 14  9  1  0
 15 13  1  0
 15 24  1  0
 16 15  2  0
 18 17  1  0
 19 18  2  0
 20 19  1  0
 21 27  1  0
 21 20  2  0
 22 21  1  0
 23 22  1  1
 23 24  1  0
 23 25  1  0
 25 29  1  0
 26 25  2  0
 27 28  2  0
 28 18  1  0
M  END
$$$$
