HSY.pdb
     RDKit          3D

 29 30  0  0  1  0  0  0  0  0999 V2000
    8.7287  -19.0070   20.7346 N   0  0  0  0  0  0  0  0  0  0  0  0
    9.9295  -18.2987   20.3329 C   0  0  1  0  0  0  0  0  0  0  0  0
    9.9606  -18.3636   18.8005 C   0  0  0  0  0  0  0  0  0  0  0  0
   10.2507  -19.7586   18.4087 C   0  0  0  0  0  0  0  0  0  0  0  0
   10.9362  -20.6790   19.1983 C   0  0  0  0  0  0  0  0  0  0  0  0
   11.0071  -21.8359   18.5132 N   0  0  0  0  0  0  0  0  0  0  0  0
   10.3977  -21.6844   17.3296 C   0  0  0  0  0  0  0  0  0  0  0  0
    9.9412  -20.4154   17.2778 N   0  0  0  0  0  0  0  0  0  0  0  0
    9.8640  -16.8601   20.6813 C   0  0  0  0  0  0  0  0  0  0  0  0
   10.7995  -16.1118   20.3076 O   0  0  0  0  0  0  0  0  0  0  0  0
    6.5567  -15.3771   22.3077 O   0  0  0  0  0  0  0  0  0  0  0  0
    7.3493  -14.3855   21.7467 C   0  0  0  0  0  0  0  0  0  0  0  0
    8.7895  -14.8836   21.8286 C   0  0  2  0  0  0  0  0  0  0  0  0
    8.7999  -16.2786   21.4163 N   0  0  0  0  0  0  0  0  0  0  0  0
    9.1601  -14.8542   23.2662 C   0  0  0  0  0  0  0  0  0  0  0  0
    9.3988  -13.7852   23.8894 O   0  0  0  0  0  0  0  0  0  0  0  0
    5.6801  -11.1655   26.7492 O   0  0  0  0  0  0  0  0  0  0  0  0
    6.3250  -12.3844   26.6016 C   0  0  0  0  0  0  0  0  0  0  0  0
    5.6163  -13.4771   26.1425 C   0  0  0  0  0  0  0  0  0  0  0  0
    6.3003  -14.6857   26.0075 C   0  0  0  0  0  0  0  0  0  0  0  0
    7.6330  -14.7999   26.3166 C   0  0  0  0  0  0  0  0  0  0  0  0
    8.3033  -16.0946   26.1588 C   0  0  0  0  0  0  0  0  0  0  0  0
    9.6107  -16.0388   25.4167 C   0  0  2  0  0  0  0  0  0  0  0  0
    9.2560  -16.0607   23.9876 N   0  0  0  0  0  0  0  0  0  0  0  0
   10.4772  -17.2131   25.6415 C   0  0  0  0  0  0  0  0  0  0  0  0
   10.8953  -17.4394   26.8050 O   0  0  0  0  0  0  0  0  0  0  0  0
    8.2937  -13.6777   26.7711 C   0  0  0  0  0  0  0  0  0  0  0  0
    7.6641  -12.4588   26.9226 C   0  0  0  0  0  0  0  0  0  0  0  0
   10.8755  -18.1042   24.6554 O   0  0  0  0  0  0  0  0  0  0  0  0
  2  1  1  6
  2  3  1  0
  4  3  1  0
  4  8  1  0
  5  6  1  0
  5  4  2  0
  6  7  1  0
  7  8  2  0
  9  2  1  0
 10  9  2  0
 11 12  1  0
 13 12  1  1
 13 14  1  0
 14  9  1  0
 15 13  1  0
 15 24  1  0
 16 15  2  0
 18 17  1  0
 19 18  2  0
 20 19  1  0
 21 27  1  0
 21 20  2  0
 22 21  1  0
 23 22  1  1
 23 24  1  0
 23 25  1  0
 25 29  1  0
 26 25  2  0
 27 28  2  0
 28 18  1  0
M  END
$$$$
