HSY.pdb
     RDKit          3D

 29 30  0  0  1  0  0  0  0  0999 V2000
   11.9149  -21.6228   13.3550 N   0  0  0  0  0  0  0  0  0  0  0  0
   11.6768  -22.2675   14.6327 C   0  0  1  0  0  0  0  0  0  0  0  0
   12.0500  -23.7420   14.4333 C   0  0  0  0  0  0  0  0  0  0  0  0
   11.1642  -24.2999   13.3903 C   0  0  0  0  0  0  0  0  0  0  0  0
    9.9362  -24.9104   13.6346 C   0  0  0  0  0  0  0  0  0  0  0  0
    9.4228  -25.2897   12.4492 N   0  0  0  0  0  0  0  0  0  0  0  0
   10.2718  -24.9455   11.4715 C   0  0  0  0  0  0  0  0  0  0  0  0
   11.3283  -24.3436   12.0571 N   0  0  0  0  0  0  0  0  0  0  0  0
   12.5825  -21.7541   15.6869 C   0  0  0  0  0  0  0  0  0  0  0  0
   13.7448  -21.4110   15.3609 O   0  0  0  0  0  0  0  0  0  0  0  0
   11.3944  -21.4082   19.6375 O   0  0  0  0  0  0  0  0  0  0  0  0
   12.2282  -20.4206   19.1322 C   0  0  0  0  0  0  0  0  0  0  0  0
   13.0953  -21.0879   18.0683 C   0  0  2  0  0  0  0  0  0  0  0  0
   12.2089  -21.6278   17.0489 N   0  0  0  0  0  0  0  0  0  0  0  0
   13.7504  -22.2450   18.7294 C   0  0  0  0  0  0  0  0  0  0  0  0
   13.4985  -23.4410   18.4223 O   0  0  0  0  0  0  0  0  0  0  0  0
   20.5916  -20.6923   17.6742 O   0  0  0  0  0  0  0  0  0  0  0  0
   19.5116  -21.4593   18.0849 C   0  0  0  0  0  0  0  0  0  0  0  0
   19.5208  -22.0272   19.3437 C   0  0  0  0  0  0  0  0  0  0  0  0
   18.4161  -22.7919   19.7201 C   0  0  0  0  0  0  0  0  0  0  0  0
   17.3485  -22.9820   18.8782 C   0  0  0  0  0  0  0  0  0  0  0  0
   16.2135  -23.7970   19.3229 C   0  0  0  0  0  0  0  0  0  0  0  0
   15.3673  -23.1645   20.3939 C   0  0  2  0  0  0  0  0  0  0  0  0
   14.6987  -22.0228   19.7474 N   0  0  0  0  0  0  0  0  0  0  0  0
   16.1444  -22.6019   21.5164 C   0  0  0  0  0  0  0  0  0  0  0  0
   16.7439  -23.3911   22.2894 O   0  0  0  0  0  0  0  0  0  0  0  0
   17.3901  -22.3926   17.6319 C   0  0  0  0  0  0  0  0  0  0  0  0
   18.4585  -21.6270   17.2106 C   0  0  0  0  0  0  0  0  0  0  0  0
   16.2697  -21.2482   21.7934 O   0  0  0  0  0  0  0  0  0  0  0  0
  2  1  1  6
  2  3  1  0
  4  3  1  0
  4  8  1  0
  5  6  1  0
  5  4  2  0
  6  7  1  0
  7  8  2  0
  9  2  1  0
 10  9  2  0
 11 12  1  0
 13 12  1  1
 13 14  1  0
 14  9  1  0
 15 13  1  0
 15 24  1  0
 16 15  2  0
 18 17  1  0
 19 18  2  0
 20 19  1  0
 21 27  1  0
 21 20  2  0
 22 21  1  0
 23 22  1  6
 23 24  1  0
 23 25  1  0
 25 29  1  0
 26 25  2  0
 27 28  2  0
 28 18  1  0
M  END
$$$$
