HSY.pdb
     RDKit          3D

 29 30  0  0  1  0  0  0  0  0999 V2000
    9.7175  -13.7628   17.4000 N   0  0  0  0  0  0  0  0  0  0  0  0
   10.1082  -14.4781   18.6002 C   0  0  1  0  0  0  0  0  0  0  0  0
   11.3462  -13.7488   19.1375 C   0  0  0  0  0  0  0  0  0  0  0  0
   12.5293  -14.2699   18.4217 C   0  0  0  0  0  0  0  0  0  0  0  0
   12.6228  -15.5428   17.8636 C   0  0  0  0  0  0  0  0  0  0  0  0
   13.8400  -15.6557   17.2993 N   0  0  0  0  0  0  0  0  0  0  0  0
   14.5154  -14.5124   17.4774 C   0  0  0  0  0  0  0  0  0  0  0  0
   13.7068  -13.6764   18.1621 N   0  0  0  0  0  0  0  0  0  0  0  0
    9.0797  -14.3773   19.6619 C   0  0  0  0  0  0  0  0  0  0  0  0
    8.5680  -13.2550   19.8933 O   0  0  0  0  0  0  0  0  0  0  0  0
    7.4838  -17.6456   21.2690 O   0  0  0  0  0  0  0  0  0  0  0  0
    6.7509  -16.4966   21.5311 C   0  0  0  0  0  0  0  0  0  0  0  0
    7.7519  -15.3456   21.5795 C   0  0  2  0  0  0  0  0  0  0  0  0
    8.6390  -15.4816   20.4346 N   0  0  0  0  0  0  0  0  0  0  0  0
    8.5773  -15.5612   22.7948 C   0  0  0  0  0  0  0  0  0  0  0  0
    9.7289  -16.0717   22.7580 O   0  0  0  0  0  0  0  0  0  0  0  0
   10.2356  -15.5794   31.5199 O   0  0  0  0  0  0  0  0  0  0  0  0
    9.7567  -15.3349   30.2415 C   0  0  0  0  0  0  0  0  0  0  0  0
    9.9711  -14.1010   29.6597 C   0  0  0  0  0  0  0  0  0  0  0  0
    9.4740  -13.8938   28.3726 C   0  0  0  0  0  0  0  0  0  0  0  0
    8.7928  -14.8743   27.6948 C   0  0  0  0  0  0  0  0  0  0  0  0
    8.2892  -14.6031   26.3446 C   0  0  0  0  0  0  0  0  0  0  0  0
    8.8266  -15.5180   25.2781 C   0  0  2  0  0  0  0  0  0  0  0  0
    8.0738  -15.1872   24.0565 N   0  0  0  0  0  0  0  0  0  0  0  0
    8.5779  -16.9502   25.5371 C   0  0  0  0  0  0  0  0  0  0  0  0
    7.4552  -17.4303   25.2388 O   0  0  0  0  0  0  0  0  0  0  0  0
    8.6062  -16.0885   28.3218 C   0  0  0  0  0  0  0  0  0  0  0  0
    9.0774  -16.3451   29.5935 C   0  0  0  0  0  0  0  0  0  0  0  0
    9.4988  -17.8265   26.0930 O   0  0  0  0  0  0  0  0  0  0  0  0
  2  1  1  6
  2  3  1  0
  4  3  1  0
  4  8  1  0
  5  6  1  0
  5  4  2  0
  6  7  1  0
  7  8  2  0
  9  2  1  0
 10  9  2  0
 11 12  1  0
 13 12  1  6
 13 14  1  0
 14  9  1  0
 15 13  1  0
 15 24  1  0
 16 15  2  0
 18 17  1  0
 19 18  2  0
 20 19  1  0
 21 27  1  0
 21 20  2  0
 22 21  1  0
 23 22  1  1
 23 24  1  0
 23 25  1  0
 25 29  1  0
 26 25  2  0
 27 28  2  0
 28 18  1  0
M  END
$$$$
