HSY.pdb
     RDKit          3D

 29 30  0  0  1  0  0  0  0  0999 V2000
    8.2730  -17.4495   20.0602 N   0  0  0  0  0  0  0  0  0  0  0  0
    8.6413  -16.4692   21.0644 C   0  0  1  0  0  0  0  0  0  0  0  0
    7.5232  -15.4190   21.0537 C   0  0  0  0  0  0  0  0  0  0  0  0
    7.9898  -14.2639   20.2589 C   0  0  0  0  0  0  0  0  0  0  0  0
    9.2396  -14.1713   19.6507 C   0  0  0  0  0  0  0  0  0  0  0  0
    9.3029  -12.9833   19.0203 N   0  0  0  0  0  0  0  0  0  0  0  0
    8.1504  -12.3254   19.2047 C   0  0  0  0  0  0  0  0  0  0  0  0
    7.3590  -13.1154   19.9604 N   0  0  0  0  0  0  0  0  0  0  0  0
    8.6453  -17.0504   22.4273 C   0  0  0  0  0  0  0  0  0  0  0  0
    7.7120  -17.8252   22.7490 O   0  0  0  0  0  0  0  0  0  0  0  0
   11.7315  -18.1698   23.8839 O   0  0  0  0  0  0  0  0  0  0  0  0
   10.6382  -18.5955   24.6253 C   0  0  0  0  0  0  0  0  0  0  0  0
    9.6793  -17.4108   24.7029 C   0  0  2  0  0  0  0  0  0  0  0  0
    9.6480  -16.7796   23.3926 N   0  0  0  0  0  0  0  0  0  0  0  0
   10.2951  -16.4360   25.6385 C   0  0  0  0  0  0  0  0  0  0  0  0
   11.1586  -15.5923   25.2768 O   0  0  0  0  0  0  0  0  0  0  0  0
    5.6511  -12.2881   25.1972 O   0  0  0  0  0  0  0  0  0  0  0  0
    6.5570  -12.9129   26.0412 C   0  0  0  0  0  0  0  0  0  0  0  0
    6.2610  -14.1615   26.5516 C   0  0  0  0  0  0  0  0  0  0  0  0
    7.1977  -14.7571   27.3970 C   0  0  0  0  0  0  0  0  0  0  0  0
    8.3782  -14.1350   27.7195 C   0  0  0  0  0  0  0  0  0  0  0  0
    9.3270  -14.8046   28.6149 C   0  0  0  0  0  0  0  0  0  0  0  0
   10.4968  -15.4489   27.9223 C   0  0  2  0  0  0  0  0  0  0  0  0
    9.9145  -16.4336   26.9951 N   0  0  0  0  0  0  0  0  0  0  0  0
   11.3820  -16.2107   28.8258 C   0  0  0  0  0  0  0  0  0  0  0  0
   12.0229  -15.5866   29.7087 O   0  0  0  0  0  0  0  0  0  0  0  0
    8.6243  -12.8886   27.1826 C   0  0  0  0  0  0  0  0  0  0  0  0
    7.7315  -12.2556   26.3415 C   0  0  0  0  0  0  0  0  0  0  0  0
   11.5681  -17.5849   28.7797 O   0  0  0  0  0  0  0  0  0  0  0  0
  2  1  1  6
  2  3  1  0
  4  3  1  0
  4  8  1  0
  5  6  1  0
  5  4  2  0
  6  7  1  0
  7  8  2  0
  9  2  1  0
 10  9  2  0
 11 12  1  0
 13 12  1  6
 13 14  1  0
 14  9  1  0
 15 13  1  0
 15 24  1  0
 16 15  2  0
 18 17  1  0
 19 18  2  0
 20 19  1  0
 21 27  1  0
 21 20  2  0
 22 21  1  0
 23 22  1  1
 23 24  1  0
 23 25  1  0
 25 29  1  0
 26 25  2  0
 27 28  2  0
 28 18  1  0
M  END
$$$$
