HSY.pdb
     RDKit          3D

 29 30  0  0  1  0  0  0  0  0999 V2000
   10.0335  -19.0190   17.6241 N   0  0  0  0  0  0  0  0  0  0  0  0
    9.4603  -19.1633   18.9490 C   0  0  1  0  0  0  0  0  0  0  0  0
   10.3214  -20.2113   19.6656 C   0  0  0  0  0  0  0  0  0  0  0  0
    9.8823  -21.5483   19.2148 C   0  0  0  0  0  0  0  0  0  0  0  0
    8.8032  -22.2507   19.7464 C   0  0  0  0  0  0  0  0  0  0  0  0
    8.7103  -23.4214   19.0877 N   0  0  0  0  0  0  0  0  0  0  0  0
    9.6814  -23.4865   18.1670 C   0  0  0  0  0  0  0  0  0  0  0  0
   10.3884  -22.3402   18.2541 N   0  0  0  0  0  0  0  0  0  0  0  0
    9.5844  -17.9182   19.7425 C   0  0  0  0  0  0  0  0  0  0  0  0
   10.7283  -17.4326   19.9168 O   0  0  0  0  0  0  0  0  0  0  0  0
    6.3283  -16.2360   21.5102 O   0  0  0  0  0  0  0  0  0  0  0  0
    7.2542  -15.3057   21.0592 C   0  0  0  0  0  0  0  0  0  0  0  0
    8.6112  -16.0038   21.0712 C   0  0  2  0  0  0  0  0  0  0  0  0
    8.4793  -17.2415   20.3183 N   0  0  0  0  0  0  0  0  0  0  0  0
    8.8737  -16.3817   22.4830 C   0  0  0  0  0  0  0  0  0  0  0  0
    8.2582  -17.3131   23.0677 O   0  0  0  0  0  0  0  0  0  0  0  0
    6.2555  -10.6582   27.9403 O   0  0  0  0  0  0  0  0  0  0  0  0
    6.7819  -11.4756   26.9513 C   0  0  0  0  0  0  0  0  0  0  0  0
    8.1242  -11.7986   26.9795 C   0  0  0  0  0  0  0  0  0  0  0  0
    8.6159  -12.6234   25.9671 C   0  0  0  0  0  0  0  0  0  0  0  0
    7.8046  -13.1052   24.9700 C   0  0  0  0  0  0  0  0  0  0  0  0
    8.3732  -13.9666   23.9284 C   0  0  0  0  0  0  0  0  0  0  0  0
    9.4544  -14.8980   24.4046 C   0  0  2  0  0  0  0  0  0  0  0  0
    9.8485  -15.6838   23.2232 N   0  0  0  0  0  0  0  0  0  0  0  0
    9.0006  -15.8757   25.4138 C   0  0  0  0  0  0  0  0  0  0  0  0
    9.3504  -15.7131   26.6100 O   0  0  0  0  0  0  0  0  0  0  0  0
    6.4714  -12.7520   24.9887 C   0  0  0  0  0  0  0  0  0  0  0  0
    5.9347  -11.9394   25.9669 C   0  0  0  0  0  0  0  0  0  0  0  0
    8.2047  -16.9800   25.1454 O   0  0  0  0  0  0  0  0  0  0  0  0
  2  1  1  6
  2  3  1  0
  4  3  1  0
  4  8  1  0
  5  6  1  0
  5  4  2  0
  6  7  1  0
  7  8  2  0
  9  2  1  0
 10  9  2  0
 11 12  1  0
 13 12  1  1
 13 14  1  0
 14  9  1  0
 15 13  1  0
 15 24  1  0
 16 15  2  0
 18 17  1  0
 19 18  2  0
 20 19  1  0
 21 27  1  0
 21 20  2  0
 22 21  1  0
 23 22  1  6
 23 24  1  0
 23 25  1  0
 25 29  1  0
 26 25  2  0
 27 28  2  0
 28 18  1  0
M  END
$$$$
