HSY.pdb
     RDKit          3D

 29 30  0  0  1  0  0  0  0  0999 V2000
    8.5227  -17.3881   17.5636 N   0  0  0  0  0  0  0  0  0  0  0  0
    8.8798  -16.4688   18.6277 C   0  0  1  0  0  0  0  0  0  0  0  0
    7.8127  -15.3669   18.6042 C   0  0  0  0  0  0  0  0  0  0  0  0
    7.9272  -14.6480   17.3183 C   0  0  0  0  0  0  0  0  0  0  0  0
    8.6658  -13.4833   17.1227 C   0  0  0  0  0  0  0  0  0  0  0  0
    8.5330  -13.1243   15.8319 N   0  0  0  0  0  0  0  0  0  0  0  0
    7.7449  -14.0099   15.2077 C   0  0  0  0  0  0  0  0  0  0  0  0
    7.3824  -14.9329   16.1232 N   0  0  0  0  0  0  0  0  0  0  0  0
    8.7832  -17.1052   19.9621 C   0  0  0  0  0  0  0  0  0  0  0  0
    8.0011  -18.0760   20.1057 O   0  0  0  0  0  0  0  0  0  0  0  0
   11.9568  -18.0603   21.7168 O   0  0  0  0  0  0  0  0  0  0  0  0
   10.7018  -18.6375   21.8507 C   0  0  0  0  0  0  0  0  0  0  0  0
    9.7503  -17.5161   22.2585 C   0  0  2  0  0  0  0  0  0  0  0  0
    9.5274  -16.6777   21.0908 N   0  0  0  0  0  0  0  0  0  0  0  0
   10.4810  -16.6894   23.2522 C   0  0  0  0  0  0  0  0  0  0  0  0
   11.3752  -15.8623   22.9287 O   0  0  0  0  0  0  0  0  0  0  0  0
    5.9346  -10.9034   27.3617 O   0  0  0  0  0  0  0  0  0  0  0  0
    6.5716  -11.9468   26.7067 C   0  0  0  0  0  0  0  0  0  0  0  0
    5.9368  -13.1681   26.5956 C   0  0  0  0  0  0  0  0  0  0  0  0
    6.6102  -14.1927   25.9296 C   0  0  0  0  0  0  0  0  0  0  0  0
    7.8622  -14.0077   25.3975 C   0  0  0  0  0  0  0  0  0  0  0  0
    8.5266  -15.1192   24.7094 C   0  0  0  0  0  0  0  0  0  0  0  0
    9.7601  -15.6367   25.3976 C   0  0  2  0  0  0  0  0  0  0  0  0
   10.1802  -16.8164   24.6228 N   0  0  0  0  0  0  0  0  0  0  0  0
    9.5216  -16.1146   26.7741 C   0  0  0  0  0  0  0  0  0  0  0  0
    9.0220  -17.2563   26.9374 O   0  0  0  0  0  0  0  0  0  0  0  0
    8.4512  -12.7683   25.5366 C   0  0  0  0  0  0  0  0  0  0  0  0
    7.8285  -11.7216   26.1859 C   0  0  0  0  0  0  0  0  0  0  0  0
    9.8091  -15.3937   27.9242 O   0  0  0  0  0  0  0  0  0  0  0  0
  2  1  1  6
  2  3  1  0
  4  3  1  0
  4  8  1  0
  5  6  1  0
  5  4  2  0
  6  7  1  0
  7  8  2  0
  9  2  1  0
 10  9  2  0
 11 12  1  0
 13 12  1  6
 13 14  1  0
 14  9  1  0
 15 13  1  0
 15 24  1  0
 16 15  2  0
 18 17  1  0
 19 18  2  0
 20 19  1  0
 21 27  1  0
 21 20  2  0
 22 21  1  0
 23 22  1  6
 23 24  1  0
 23 25  1  0
 25 29  1  0
 26 25  2  0
 27 28  2  0
 28 18  1  0
M  END
$$$$
