HSY.pdb
     RDKit          3D

 29 30  0  0  1  0  0  0  0  0999 V2000
    9.5105  -18.5954   18.6647 N   0  0  0  0  0  0  0  0  0  0  0  0
    9.8547  -18.3196   20.0468 C   0  0  1  0  0  0  0  0  0  0  0  0
   11.3783  -18.4743   20.1374 C   0  0  0  0  0  0  0  0  0  0  0  0
   11.7933  -19.4911   19.1487 C   0  0  0  0  0  0  0  0  0  0  0  0
   10.9189  -20.2329   18.3577 C   0  0  0  0  0  0  0  0  0  0  0  0
   11.6576  -21.0519   17.5854 N   0  0  0  0  0  0  0  0  0  0  0  0
   12.9557  -20.8586   17.8549 C   0  0  0  0  0  0  0  0  0  0  0  0
   13.0255  -19.9059   18.8084 N   0  0  0  0  0  0  0  0  0  0  0  0
    9.5621  -16.9156   20.4186 C   0  0  0  0  0  0  0  0  0  0  0  0
   10.4670  -16.0582   20.2735 O   0  0  0  0  0  0  0  0  0  0  0  0
    6.1025  -16.0075   22.1926 O   0  0  0  0  0  0  0  0  0  0  0  0
    6.4870  -14.9715   21.3529 C   0  0  0  0  0  0  0  0  0  0  0  0
    7.9998  -15.0865   21.1875 C   0  0  2  0  0  0  0  0  0  0  0  0
    8.3125  -16.4839   20.9311 N   0  0  0  0  0  0  0  0  0  0  0  0
    8.5909  -14.7453   22.5062 C   0  0  0  0  0  0  0  0  0  0  0  0
    8.4243  -13.6265   23.0617 O   0  0  0  0  0  0  0  0  0  0  0  0
   10.3961  -14.6428   30.8133 O   0  0  0  0  0  0  0  0  0  0  0  0
   10.0219  -14.7502   29.4822 C   0  0  0  0  0  0  0  0  0  0  0  0
    9.6833  -13.6120   28.7773 C   0  0  0  0  0  0  0  0  0  0  0  0
    9.3124  -13.7612   27.4406 C   0  0  0  0  0  0  0  0  0  0  0  0
    9.2805  -14.9919   26.8329 C   0  0  0  0  0  0  0  0  0  0  0  0
    8.8809  -15.0929   25.4256 C   0  0  0  0  0  0  0  0  0  0  0  0
   10.0128  -15.3466   24.4677 C   0  0  2  0  0  0  0  0  0  0  0  0
    9.3765  -15.6967   23.1867 N   0  0  0  0  0  0  0  0  0  0  0  0
   10.8591  -16.5001   24.8332 C   0  0  0  0  0  0  0  0  0  0  0  0
   10.4704  -17.6545   24.5237 O   0  0  0  0  0  0  0  0  0  0  0  0
    9.6280  -16.0964   27.5823 C   0  0  0  0  0  0  0  0  0  0  0  0
   10.0022  -16.0037   28.9076 C   0  0  0  0  0  0  0  0  0  0  0  0
   12.0711  -16.4129   25.5029 O   0  0  0  0  0  0  0  0  0  0  0  0
  2  1  1  6
  2  3  1  0
  4  3  1  0
  4  8  1  0
  5  6  1  0
  5  4  2  0
  6  7  1  0
  7  8  2  0
  9  2  1  0
 10  9  2  0
 11 12  1  0
 13 12  1  1
 13 14  1  0
 14  9  1  0
 15 13  1  0
 15 24  1  0
 16 15  2  0
 18 17  1  0
 19 18  2  0
 20 19  1  0
 21 27  1  0
 21 20  2  0
 22 21  1  0
 23 22  1  1
 23 24  1  0
 23 25  1  0
 25 29  1  0
 26 25  2  0
 27 28  2  0
 28 18  1  0
M  END
$$$$
