HSY.pdb
     RDKit          3D

 29 30  0  0  1  0  0  0  0  0999 V2000
   12.0955  -15.4236   16.9072 N   0  0  0  0  0  0  0  0  0  0  0  0
   12.5027  -15.4329   18.2997 C   0  0  1  0  0  0  0  0  0  0  0  0
   13.0014  -14.0134   18.5992 C   0  0  0  0  0  0  0  0  0  0  0  0
   14.4482  -13.9660   18.3027 C   0  0  0  0  0  0  0  0  0  0  0  0
   15.4570  -14.2391   19.2238 C   0  0  0  0  0  0  0  0  0  0  0  0
   16.6383  -14.0951   18.5942 N   0  0  0  0  0  0  0  0  0  0  0  0
   16.4181  -13.7441   17.3201 C   0  0  0  0  0  0  0  0  0  0  0  0
   15.0807  -13.6687   17.1548 N   0  0  0  0  0  0  0  0  0  0  0  0
   11.3558  -15.6652   19.2084 C   0  0  0  0  0  0  0  0  0  0  0  0
   10.1990  -15.6666   18.7219 O   0  0  0  0  0  0  0  0  0  0  0  0
   11.0504  -18.4697   21.4091 O   0  0  0  0  0  0  0  0  0  0  0  0
    9.9553  -17.6643   21.1293 C   0  0  0  0  0  0  0  0  0  0  0  0
   10.3720  -16.2346   21.4635 C   0  0  2  0  0  0  0  0  0  0  0  0
   11.4917  -15.8868   20.6023 N   0  0  0  0  0  0  0  0  0  0  0  0
   10.8892  -16.2652   22.8550 C   0  0  0  0  0  0  0  0  0  0  0  0
   12.0897  -16.5294   23.1330 O   0  0  0  0  0  0  0  0  0  0  0  0
   10.3695  -15.3218   31.6685 O   0  0  0  0  0  0  0  0  0  0  0  0
   10.1478  -15.3116   30.2995 C   0  0  0  0  0  0  0  0  0  0  0  0
   10.3889  -14.1575   29.5805 C   0  0  0  0  0  0  0  0  0  0  0  0
   10.1538  -14.1871   28.2055 C   0  0  0  0  0  0  0  0  0  0  0  0
    9.6981  -15.3181   27.5747 C   0  0  0  0  0  0  0  0  0  0  0  0
    9.4651  -15.2943   26.1271 C   0  0  0  0  0  0  0  0  0  0  0  0
   10.5393  -15.9550   25.3070 C   0  0  2  0  0  0  0  0  0  0  0  0
   10.0201  -15.9905   23.9294 N   0  0  0  0  0  0  0  0  0  0  0  0
   10.8006  -17.3590   25.6823 C   0  0  0  0  0  0  0  0  0  0  0  0
   10.0358  -18.2531   25.2402 O   0  0  0  0  0  0  0  0  0  0  0  0
    9.4734  -16.4436   28.3397 C   0  0  0  0  0  0  0  0  0  0  0  0
    9.6899  -16.4674   29.7027 C   0  0  0  0  0  0  0  0  0  0  0  0
   11.8405  -17.7807   26.4983 O   0  0  0  0  0  0  0  0  0  0  0  0
  2  1  1  6
  2  3  1  0
  4  3  1  0
  4  8  1  0
  5  6  1  0
  5  4  2  0
  6  7  1  0
  7  8  2  0
  9  2  1  0
 10  9  2  0
 11 12  1  0
 13 12  1  6
 13 14  1  0
 14  9  1  0
 15 13  1  0
 15 24  1  0
 16 15  2  0
 18 17  1  0
 19 18  2  0
 20 19  1  0
 21 27  1  0
 21 20  2  0
 22 21  1  0
 23 22  1  1
 23 24  1  0
 23 25  1  0
 25 29  1  0
 26 25  2  0
 27 28  2  0
 28 18  1  0
M  END
$$$$
