HSY.pdb
     RDKit          3D

 29 30  0  0  1  0  0  0  0  0999 V2000
   10.3932  -21.2485   15.4862 N   0  0  0  0  0  0  0  0  0  0  0  0
   10.3205  -21.5200   16.9095 C   0  0  1  0  0  0  0  0  0  0  0  0
   10.6472  -23.0104   17.0684 C   0  0  0  0  0  0  0  0  0  0  0  0
    9.4900  -23.7862   16.5758 C   0  0  0  0  0  0  0  0  0  0  0  0
    8.2575  -23.8692   17.2197 C   0  0  0  0  0  0  0  0  0  0  0  0
    7.4590  -24.6600   16.4782 N   0  0  0  0  0  0  0  0  0  0  0  0
    8.1332  -25.0776   15.3984 C   0  0  0  0  0  0  0  0  0  0  0  0
    9.3686  -24.5389   15.4691 N   0  0  0  0  0  0  0  0  0  0  0  0
   11.3643  -20.7884   17.6648 C   0  0  0  0  0  0  0  0  0  0  0  0
   12.4466  -20.5258   17.0864 O   0  0  0  0  0  0  0  0  0  0  0  0
   10.5177  -19.5007   21.3113 O   0  0  0  0  0  0  0  0  0  0  0  0
   11.5432  -18.7461   20.7590 C   0  0  0  0  0  0  0  0  0  0  0  0
   12.2390  -19.6418   19.7379 C   0  0  2  0  0  0  0  0  0  0  0  0
   11.2090  -20.3663   19.0095 N   0  0  0  0  0  0  0  0  0  0  0  0
   13.0057  -20.6462   20.5176 C   0  0  0  0  0  0  0  0  0  0  0  0
   12.4601  -21.6208   21.1014 O   0  0  0  0  0  0  0  0  0  0  0  0
   13.6886  -25.9315   16.9477 O   0  0  0  0  0  0  0  0  0  0  0  0
   14.2833  -24.9976   17.7829 C   0  0  0  0  0  0  0  0  0  0  0  0
   14.4760  -23.7069   17.3312 C   0  0  0  0  0  0  0  0  0  0  0  0
   15.0774  -22.7966   18.2009 C   0  0  0  0  0  0  0  0  0  0  0  0
   15.4696  -23.1573   19.4661 C   0  0  0  0  0  0  0  0  0  0  0  0
   16.0995  -22.1616   20.3391 C   0  0  0  0  0  0  0  0  0  0  0  0
   15.1781  -21.5453   21.3562 C   0  0  2  0  0  0  0  0  0  0  0  0
   14.4055  -20.5270   20.6249 N   0  0  0  0  0  0  0  0  0  0  0  0
   15.8778  -20.8277   22.4405 C   0  0  0  0  0  0  0  0  0  0  0  0
   15.8557  -19.5710   22.4435 O   0  0  0  0  0  0  0  0  0  0  0  0
   15.2539  -24.4592   19.8674 C   0  0  0  0  0  0  0  0  0  0  0  0
   14.6633  -25.3985   19.0465 C   0  0  0  0  0  0  0  0  0  0  0  0
   16.5708  -21.4379   23.4761 O   0  0  0  0  0  0  0  0  0  0  0  0
  2  1  1  6
  2  3  1  0
  4  3  1  0
  4  8  1  0
  5  6  1  0
  5  4  2  0
  6  7  1  0
  7  8  2  0
  9  2  1  0
 10  9  2  0
 11 12  1  0
 13 12  1  1
 13 14  1  0
 14  9  1  0
 15 13  1  0
 15 24  1  0
 16 15  2  0
 18 17  1  0
 19 18  2  0
 20 19  1  0
 21 27  1  0
 21 20  2  0
 22 21  1  0
 23 22  1  6
 23 24  1  0
 23 25  1  0
 25 29  1  0
 26 25  2  0
 27 28  2  0
 28 18  1  0
M  END
$$$$
