HSY.pdb
     RDKit          3D

 29 30  0  0  1  0  0  0  0  0999 V2000
   11.4644  -17.4755   19.9427 N   0  0  0  0  0  0  0  0  0  0  0  0
   11.8522  -16.8169   21.1759 C   0  0  1  0  0  0  0  0  0  0  0  0
   11.5651  -15.3253   20.9617 C   0  0  0  0  0  0  0  0  0  0  0  0
   12.6644  -14.7607   20.1515 C   0  0  0  0  0  0  0  0  0  0  0  0
   14.0125  -15.0705   20.3164 C   0  0  0  0  0  0  0  0  0  0  0  0
   14.7102  -14.3679   19.4041 N   0  0  0  0  0  0  0  0  0  0  0  0
   13.8623  -13.6311   18.6737 C   0  0  0  0  0  0  0  0  0  0  0  0
   12.6197  -13.8789   19.1383 N   0  0  0  0  0  0  0  0  0  0  0  0
   11.0052  -17.2381   22.3162 C   0  0  0  0  0  0  0  0  0  0  0  0
    9.7761  -17.3983   22.1202 O   0  0  0  0  0  0  0  0  0  0  0  0
   12.2161  -19.6411   24.7392 O   0  0  0  0  0  0  0  0  0  0  0  0
   10.8621  -19.3952   24.9186 C   0  0  0  0  0  0  0  0  0  0  0  0
   10.6658  -17.8933   24.7314 C   0  0  2  0  0  0  0  0  0  0  0  0
   11.5067  -17.4715   23.6218 N   0  0  0  0  0  0  0  0  0  0  0  0
   11.2056  -17.2464   25.9541 C   0  0  0  0  0  0  0  0  0  0  0  0
   12.3891  -16.8214   26.0375 O   0  0  0  0  0  0  0  0  0  0  0  0
    7.6675  -11.6406   25.7030 O   0  0  0  0  0  0  0  0  0  0  0  0
    8.1860  -12.6520   26.4977 C   0  0  0  0  0  0  0  0  0  0  0  0
    7.6201  -13.9108   26.4510 C   0  0  0  0  0  0  0  0  0  0  0  0
    8.1700  -14.9015   27.2652 C   0  0  0  0  0  0  0  0  0  0  0  0
    9.2376  -14.6482   28.0903 C   0  0  0  0  0  0  0  0  0  0  0  0
    9.7755  -15.7251   28.9277 C   0  0  0  0  0  0  0  0  0  0  0  0
   10.9190  -16.4863   28.3144 C   0  0  2  0  0  0  0  0  0  0  0  0
   10.3788  -17.0888   27.0840 N   0  0  0  0  0  0  0  0  0  0  0  0
   11.4027  -17.6094   29.1420 C   0  0  0  0  0  0  0  0  0  0  0  0
   11.0302  -18.7746   28.8534 O   0  0  0  0  0  0  0  0  0  0  0  0
    9.7649  -13.3737   28.0987 C   0  0  0  0  0  0  0  0  0  0  0  0
    9.2587  -12.3581   27.3130 C   0  0  0  0  0  0  0  0  0  0  0  0
   12.2507  -17.4821   30.2327 O   0  0  0  0  0  0  0  0  0  0  0  0
  2  1  1  6
  2  3  1  0
  4  3  1  0
  4  8  1  0
  5  6  1  0
  5  4  2  0
  6  7  1  0
  7  8  2  0
  9  2  1  0
 10  9  2  0
 11 12  1  0
 13 12  1  1
 13 14  1  0
 14  9  1  0
 15 13  1  0
 15 24  1  0
 16 15  2  0
 18 17  1  0
 19 18  2  0
 20 19  1  0
 21 27  1  0
 21 20  2  0
 22 21  1  0
 23 22  1  1
 23 24  1  0
 23 25  1  0
 25 29  1  0
 26 25  2  0
 27 28  2  0
 28 18  1  0
M  END
$$$$
