HSY.pdb
     RDKit          3D

 29 30  0  0  1  0  0  0  0  0999 V2000
   13.1747  -16.0662   16.9417 N   0  0  0  0  0  0  0  0  0  0  0  0
   13.4413  -15.6402   18.3027 C   0  0  1  0  0  0  0  0  0  0  0  0
   13.5881  -14.1144   18.2423 C   0  0  0  0  0  0  0  0  0  0  0  0
   14.9680  -13.8053   17.8132 C   0  0  0  0  0  0  0  0  0  0  0  0
   16.0838  -13.8337   18.6466 C   0  0  0  0  0  0  0  0  0  0  0  0
   17.1576  -13.4976   17.9072 N   0  0  0  0  0  0  0  0  0  0  0  0
   16.7676  -13.2594   16.6477 C   0  0  0  0  0  0  0  0  0  0  0  0
   15.4322  -13.4501   16.6031 N   0  0  0  0  0  0  0  0  0  0  0  0
   12.2924  -15.9067   19.1993 C   0  0  0  0  0  0  0  0  0  0  0  0
   11.1326  -15.7973   18.7327 O   0  0  0  0  0  0  0  0  0  0  0  0
   12.1070  -18.6939   21.6285 O   0  0  0  0  0  0  0  0  0  0  0  0
   10.9392  -17.9948   21.3575 C   0  0  0  0  0  0  0  0  0  0  0  0
   11.2928  -16.5123   21.4380 C   0  0  2  0  0  0  0  0  0  0  0  0
   12.4295  -16.2797   20.5604 N   0  0  0  0  0  0  0  0  0  0  0  0
   11.7607  -16.2697   22.8262 C   0  0  0  0  0  0  0  0  0  0  0  0
   12.9796  -16.1637   23.1286 O   0  0  0  0  0  0  0  0  0  0  0  0
   10.7973  -14.9496   31.5447 O   0  0  0  0  0  0  0  0  0  0  0  0
   10.6275  -15.0503   30.1719 C   0  0  0  0  0  0  0  0  0  0  0  0
   10.1808  -16.2383   29.6277 C   0  0  0  0  0  0  0  0  0  0  0  0
   10.0227  -16.3002   28.2428 C   0  0  0  0  0  0  0  0  0  0  0  0
   10.2978  -15.2244   27.4355 C   0  0  0  0  0  0  0  0  0  0  0  0
   10.1167  -15.3439   25.9853 C   0  0  0  0  0  0  0  0  0  0  0  0
   11.2790  -15.9605   25.2558 C   0  0  2  0  0  0  0  0  0  0  0  0
   10.8210  -16.1489   23.8690 N   0  0  0  0  0  0  0  0  0  0  0  0
   11.6523  -17.3012   25.7493 C   0  0  0  0  0  0  0  0  0  0  0  0
   10.9948  -18.2949   25.3496 O   0  0  0  0  0  0  0  0  0  0  0  0
   10.7412  -14.0616   28.0303 C   0  0  0  0  0  0  0  0  0  0  0  0
   10.9145  -13.9478   29.3949 C   0  0  0  0  0  0  0  0  0  0  0  0
   12.6888  -17.5592   26.6349 O   0  0  0  0  0  0  0  0  0  0  0  0
  2  1  1  6
  2  3  1  0
  4  3  1  0
  4  8  1  0
  5  6  1  0
  5  4  2  0
  6  7  1  0
  7  8  2  0
  9  2  1  0
 10  9  2  0
 11 12  1  0
 13 12  1  1
 13 14  1  0
 14  9  1  0
 15 13  1  0
 15 24  1  0
 16 15  2  0
 18 17  1  0
 19 18  2  0
 20 19  1  0
 21 27  1  0
 21 20  2  0
 22 21  1  0
 23 22  1  1
 23 24  1  0
 23 25  1  0
 25 29  1  0
 26 25  2  0
 27 28  2  0
 28 18  1  0
M  END
$$$$
