IEY.pdb
     RDKit          3D

 30 30  0  0  1  0  0  0  0  0999 V2000
    5.8608  -11.6469   26.0154 C   0  0  0  0  0  0  0  0  0  0  0  0
    5.6909  -12.9996   25.4228 C   0  0  0  0  0  0  0  0  0  0  0  0
    7.0070  -13.6733   25.0750 C   0  0  2  0  0  0  0  0  0  0  0  0
    7.7892  -12.7760   24.1887 C   0  0  0  0  0  0  0  0  0  0  0  0
    6.6331  -15.0096   24.4730 C   0  0  2  0  0  0  0  0  0  0  0  0
    5.8143  -15.6573   25.5180 N   0  0  0  0  0  0  0  0  0  0  0  0
    7.7626  -15.8686   24.1409 C   0  0  0  0  0  0  0  0  0  0  0  0
    8.1988  -16.6721   24.9992 O   0  0  0  0  0  0  0  0  0  0  0  0
    8.3909  -15.8338   22.8802 N   0  0  0  0  0  0  0  0  0  0  0  0
    9.4898  -16.7663   22.6100 C   0  0  1  0  0  0  0  0  0  0  0  0
    9.7056  -16.8307   21.1373 C   0  0  0  0  0  0  0  0  0  0  0  0
   10.8083  -17.7497   20.7100 C   0  0  0  0  0  0  0  0  0  0  0  0
   10.8093  -17.6820   19.2034 C   0  0  0  0  0  0  0  0  0  0  0  0
    9.9686  -18.3167   18.5516 O   0  0  0  0  0  0  0  0  0  0  0  0
   10.6848  -16.3770   23.3790 C   0  0  0  0  0  0  0  0  0  0  0  0
   10.9054  -15.1254   23.5651 O   0  0  0  0  0  0  0  0  0  0  0  0
   11.7571  -16.9094   18.5735 O   0  0  0  0  0  0  0  0  0  0  0  0
   10.8887  -13.9438   30.7226 O   0  0  0  0  0  0  0  0  0  0  0  0
   10.8038  -14.7784   29.6051 C   0  0  0  0  0  0  0  0  0  0  0  0
   10.9919  -16.1268   29.6452 C   0  0  0  0  0  0  0  0  0  0  0  0
   10.8961  -16.8986   28.5085 C   0  0  0  0  0  0  0  0  0  0  0  0
   10.6057  -16.3350   27.2907 C   0  0  0  0  0  0  0  0  0  0  0  0
   10.5335  -17.1885   26.0888 C   0  0  0  0  0  0  0  0  0  0  0  0
   11.8914  -17.2270   25.4103 C   0  0  2  0  0  0  0  0  0  0  0  0
   11.6371  -17.2393   23.9558 N   0  0  0  0  0  0  0  0  0  0  0  0
   12.5933  -18.4554   25.7664 C   0  0  0  0  0  0  0  0  0  0  0  0
   12.5116  -19.5954   24.9696 O   0  0  0  0  0  0  0  0  0  0  0  0
   10.4131  -14.9749   27.2356 C   0  0  0  0  0  0  0  0  0  0  0  0
   10.5115  -14.2066   28.3797 C   0  0  0  0  0  0  0  0  0  0  0  0
   13.2862  -18.5214   26.7952 O   0  0  0  0  0  0  0  0  0  0  0  0
  2  1  1  0
  2  3  1  0
  3  5  1  0
  3  4  1  6
  5  6  1  1
  7  8  2  0
  7  5  1  0
  9  7  1  0
 10  9  1  0
 10 11  1  6
 12 13  1  0
 12 11  1  0
 13 14  2  0
 15 16  2  0
 15 10  1  0
 17 13  1  0
 18 19  1  0
 19 20  2  0
 20 21  1  0
 22 23  1  0
 22 21  2  0
 24 23  1  1
 24 25  1  0
 25 15  1  0
 26 24  1  0
 27 26  1  0
 28 22  1  0
 29 28  2  0
 29 19  1  0
 30 26  2  0
M  END
$$$$
