IEY.pdb
     RDKit          3D

 30 30  0  0  1  0  0  0  0  0999 V2000
    6.5641  -11.8773   20.3671 C   0  0  0  0  0  0  0  0  0  0  0  0
    6.9901  -13.2850   20.1514 C   0  0  0  0  0  0  0  0  0  0  0  0
    7.4687  -13.9695   21.4200 C   0  0  2  0  0  0  0  0  0  0  0  0
    8.4697  -13.1017   22.0886 C   0  0  0  0  0  0  0  0  0  0  0  0
    7.9787  -15.3249   20.9830 C   0  0  2  0  0  0  0  0  0  0  0  0
    6.8007  -15.9704   20.3684 N   0  0  0  0  0  0  0  0  0  0  0  0
    8.4839  -16.1652   22.0613 C   0  0  0  0  0  0  0  0  0  0  0  0
    7.6745  -16.8004   22.7782 O   0  0  0  0  0  0  0  0  0  0  0  0
    9.8603  -16.2958   22.3333 N   0  0  0  0  0  0  0  0  0  0  0  0
   10.2912  -17.2368   23.3720 C   0  0  1  0  0  0  0  0  0  0  0  0
   11.6023  -17.8189   22.9698 C   0  0  0  0  0  0  0  0  0  0  0  0
   12.1602  -18.8202   23.9339 C   0  0  0  0  0  0  0  0  0  0  0  0
   13.4680  -19.2598   23.3249 C   0  0  0  0  0  0  0  0  0  0  0  0
   13.6489  -20.4496   23.0316 O   0  0  0  0  0  0  0  0  0  0  0  0
   10.3041  -16.5699   24.6857 C   0  0  0  0  0  0  0  0  0  0  0  0
   10.9204  -15.4479   24.7905 O   0  0  0  0  0  0  0  0  0  0  0  0
   14.4485  -18.3201   23.1064 O   0  0  0  0  0  0  0  0  0  0  0  0
    6.8187  -11.1900   25.2336 O   0  0  0  0  0  0  0  0  0  0  0  0
    7.2788  -12.3474   25.8670 C   0  0  0  0  0  0  0  0  0  0  0  0
    8.3861  -12.3936   26.6589 C   0  0  0  0  0  0  0  0  0  0  0  0
    8.7918  -13.5660   27.2569 C   0  0  0  0  0  0  0  0  0  0  0  0
    8.0922  -14.7336   27.0767 C   0  0  0  0  0  0  0  0  0  0  0  0
    8.5683  -15.9769   27.7137 C   0  0  0  0  0  0  0  0  0  0  0  0
    9.9338  -16.3419   27.1586 C   0  0  2  0  0  0  0  0  0  0  0  0
    9.6980  -17.0268   25.8720 N   0  0  0  0  0  0  0  0  0  0  0  0
   10.6072  -17.2712   28.0593 C   0  0  0  0  0  0  0  0  0  0  0  0
   10.9412  -18.5617   27.6542 O   0  0  0  0  0  0  0  0  0  0  0  0
    6.9723  -14.7014   26.2799 C   0  0  0  0  0  0  0  0  0  0  0  0
    6.5715  -13.5219   25.6824 C   0  0  0  0  0  0  0  0  0  0  0  0
   10.9027  -16.9380   29.2189 O   0  0  0  0  0  0  0  0  0  0  0  0
  2  1  1  0
  2  3  1  0
  3  5  1  0
  3  4  1  6
  5  6  1  1
  7  8  2  0
  7  5  1  0
  9  7  1  0
 10  9  1  0
 10 11  1  6
 12 13  1  0
 12 11  1  0
 13 14  2  0
 15 16  2  0
 15 10  1  0
 17 13  1  0
 18 19  1  0
 19 20  2  0
 20 21  1  0
 22 23  1  0
 22 21  2  0
 24 23  1  1
 24 25  1  0
 25 15  1  0
 26 24  1  0
 27 26  1  0
 28 22  1  0
 29 28  2  0
 29 19  1  0
 30 26  2  0
M  END
$$$$
