IEY.pdb
     RDKit          3D

 30 30  0  0  1  0  0  0  0  0999 V2000
    8.1332  -11.8939   22.2466 C   0  0  0  0  0  0  0  0  0  0  0  0
    7.8242  -13.3310   22.0255 C   0  0  0  0  0  0  0  0  0  0  0  0
    8.1974  -13.8194   20.6366 C   0  0  2  0  0  0  0  0  0  0  0  0
    7.4145  -13.0592   19.6310 C   0  0  0  0  0  0  0  0  0  0  0  0
    7.9528  -15.3121   20.6511 C   0  0  2  0  0  0  0  0  0  0  0  0
    6.4963  -15.4348   20.8647 N   0  0  0  0  0  0  0  0  0  0  0  0
    8.6589  -16.0376   21.6994 C   0  0  0  0  0  0  0  0  0  0  0  0
    8.0023  -16.6202   22.5950 O   0  0  0  0  0  0  0  0  0  0  0  0
   10.0651  -16.1135   21.7476 N   0  0  0  0  0  0  0  0  0  0  0  0
   10.6927  -17.0461   22.6892 C   0  0  1  0  0  0  0  0  0  0  0  0
   12.1161  -17.2345   22.2919 C   0  0  0  0  0  0  0  0  0  0  0  0
   12.8955  -18.1491   23.1860 C   0  0  0  0  0  0  0  0  0  0  0  0
   14.1996  -18.3802   22.4646 C   0  0  0  0  0  0  0  0  0  0  0  0
   15.2113  -18.7101   23.0985 O   0  0  0  0  0  0  0  0  0  0  0  0
   10.5094  -16.5701   24.0714 C   0  0  0  0  0  0  0  0  0  0  0  0
   10.3306  -15.3124   24.2613 O   0  0  0  0  0  0  0  0  0  0  0  0
   14.2421  -18.2155   21.0996 O   0  0  0  0  0  0  0  0  0  0  0  0
    6.4804  -11.4855   26.3696 O   0  0  0  0  0  0  0  0  0  0  0  0
    6.9102  -12.8138   26.3105 C   0  0  0  0  0  0  0  0  0  0  0  0
    6.1369  -13.8460   25.8727 C   0  0  0  0  0  0  0  0  0  0  0  0
    6.6162  -15.1368   25.8379 C   0  0  0  0  0  0  0  0  0  0  0  0
    7.8947  -15.4301   26.2434 C   0  0  0  0  0  0  0  0  0  0  0  0
    8.3682  -16.8276   26.2148 C   0  0  0  0  0  0  0  0  0  0  0  0
    9.8629  -16.8636   26.4798 C   0  0  2  0  0  0  0  0  0  0  0  0
   10.5003  -17.3538   25.2415 N   0  0  0  0  0  0  0  0  0  0  0  0
   10.1574  -17.8054   27.5544 C   0  0  0  0  0  0  0  0  0  0  0  0
   10.0598  -17.4329   28.8934 O   0  0  0  0  0  0  0  0  0  0  0  0
    8.6864  -14.3976   26.6874 C   0  0  0  0  0  0  0  0  0  0  0  0
    8.1990  -13.1053   26.7204 C   0  0  0  0  0  0  0  0  0  0  0  0
   10.5063  -18.9713   27.3059 O   0  0  0  0  0  0  0  0  0  0  0  0
  2  1  1  0
  2  3  1  0
  3  5  1  0
  3  4  1  6
  5  6  1  1
  7  8  2  0
  7  5  1  0
  9  7  1  0
 10  9  1  0
 10 11  1  6
 12 13  1  0
 12 11  1  0
 13 14  2  0
 15 16  2  0
 15 10  1  0
 17 13  1  0
 18 19  1  0
 19 20  2  0
 20 21  1  0
 22 23  1  0
 22 21  2  0
 24 23  1  6
 24 25  1  0
 25 15  1  0
 26 24  1  0
 27 26  1  0
 28 22  1  0
 29 28  2  0
 29 19  1  0
 30 26  2  0
M  END
$$$$
