IEY.pdb
     RDKit          3D

 30 30  0  0  1  0  0  0  0  0999 V2000
    7.2970  -12.1092   18.6488 C   0  0  0  0  0  0  0  0  0  0  0  0
    7.5418  -13.5754   18.6464 C   0  0  0  0  0  0  0  0  0  0  0  0
    8.1240  -14.0899   19.9515 C   0  0  2  0  0  0  0  0  0  0  0  0
    9.3427  -13.3085   20.2777 C   0  0  0  0  0  0  0  0  0  0  0  0
    8.3442  -15.5717   19.7423 C   0  0  2  0  0  0  0  0  0  0  0  0
    6.9910  -16.1015   19.4773 N   0  0  0  0  0  0  0  0  0  0  0  0
    8.9235  -16.2711   20.8821 C   0  0  0  0  0  0  0  0  0  0  0  0
    8.1743  -16.6741   21.8034 O   0  0  0  0  0  0  0  0  0  0  0  0
   10.3066  -16.5171   20.9918 N   0  0  0  0  0  0  0  0  0  0  0  0
   10.7990  -17.3011   22.1289 C   0  0  1  0  0  0  0  0  0  0  0  0
   12.1291  -17.8695   21.7723 C   0  0  0  0  0  0  0  0  0  0  0  0
   12.7700  -18.6800   22.8565 C   0  0  0  0  0  0  0  0  0  0  0  0
   14.0813  -19.1429   22.2727 C   0  0  0  0  0  0  0  0  0  0  0  0
   14.1880  -20.2884   21.8137 O   0  0  0  0  0  0  0  0  0  0  0  0
   10.8024  -16.4759   23.3494 C   0  0  0  0  0  0  0  0  0  0  0  0
   11.2664  -15.2807   23.2724 O   0  0  0  0  0  0  0  0  0  0  0  0
   15.1480  -18.2745   22.2634 O   0  0  0  0  0  0  0  0  0  0  0  0
    5.8439  -11.3854   27.8545 O   0  0  0  0  0  0  0  0  0  0  0  0
    6.5440  -12.3181   27.0847 C   0  0  0  0  0  0  0  0  0  0  0  0
    7.8120  -12.1282   26.6248 C   0  0  0  0  0  0  0  0  0  0  0  0
    8.4515  -13.0851   25.8685 C   0  0  0  0  0  0  0  0  0  0  0  0
    7.8325  -14.2688   25.5507 C   0  0  0  0  0  0  0  0  0  0  0  0
    8.5385  -15.2626   24.7187 C   0  0  0  0  0  0  0  0  0  0  0  0
    9.6807  -15.8712   25.5129 C   0  0  2  0  0  0  0  0  0  0  0  0
   10.3382  -16.8508   24.6251 N   0  0  0  0  0  0  0  0  0  0  0  0
    9.1585  -16.5804   26.6760 C   0  0  0  0  0  0  0  0  0  0  0  0
    9.0832  -15.9691   27.9256 O   0  0  0  0  0  0  0  0  0  0  0  0
    6.5526  -14.4739   26.0086 C   0  0  0  0  0  0  0  0  0  0  0  0
    5.9167  -13.5093   26.7662 C   0  0  0  0  0  0  0  0  0  0  0  0
    8.7652  -17.7552   26.5859 O   0  0  0  0  0  0  0  0  0  0  0  0
  2  1  1  0
  2  3  1  0
  3  5  1  0
  3  4  1  6
  5  6  1  1
  7  8  2  0
  7  5  1  0
  9  7  1  0
 10  9  1  0
 10 11  1  6
 12 13  1  0
 12 11  1  0
 13 14  2  0
 15 16  2  0
 15 10  1  0
 17 13  1  0
 18 19  1  0
 19 20  2  0
 20 21  1  0
 22 23  1  0
 22 21  2  0
 24 23  1  6
 24 25  1  0
 25 15  1  0
 26 24  1  0
 27 26  1  0
 28 22  1  0
 29 28  2  0
 29 19  1  0
 30 26  2  0
M  END
$$$$
