IEY.pdb
     RDKit          3D

 30 30  0  0  1  0  0  0  0  0999 V2000
    6.6055  -11.3073   25.8635 C   0  0  0  0  0  0  0  0  0  0  0  0
    6.2467  -12.7465   25.7663 C   0  0  0  0  0  0  0  0  0  0  0  0
    7.4414  -13.6478   25.5068 C   0  0  2  0  0  0  0  0  0  0  0  0
    8.5042  -12.8593   24.8354 C   0  0  0  0  0  0  0  0  0  0  0  0
    6.9039  -14.8162   24.7106 C   0  0  2  0  0  0  0  0  0  0  0  0
    5.8354  -15.3720   25.5658 N   0  0  0  0  0  0  0  0  0  0  0  0
    7.8804  -15.8575   24.4172 C   0  0  0  0  0  0  0  0  0  0  0  0
    8.1453  -16.7175   25.2906 O   0  0  0  0  0  0  0  0  0  0  0  0
    8.5455  -15.9394   23.1777 N   0  0  0  0  0  0  0  0  0  0  0  0
    9.5484  -16.9906   22.9797 C   0  0  1  0  0  0  0  0  0  0  0  0
    9.8614  -17.0794   21.5258 C   0  0  0  0  0  0  0  0  0  0  0  0
   10.9364  -18.0633   21.1801 C   0  0  0  0  0  0  0  0  0  0  0  0
   10.9735  -18.0851   19.6725 C   0  0  0  0  0  0  0  0  0  0  0  0
   11.9480  -17.6179   19.0674 O   0  0  0  0  0  0  0  0  0  0  0  0
   10.7210  -16.7394   23.8356 C   0  0  0  0  0  0  0  0  0  0  0  0
   11.5454  -15.8206   23.4808 O   0  0  0  0  0  0  0  0  0  0  0  0
    9.9099  -18.6278   18.9894 O   0  0  0  0  0  0  0  0  0  0  0  0
    8.6236  -13.9384   29.7135 O   0  0  0  0  0  0  0  0  0  0  0  0
    9.5113  -14.8412   29.1222 C   0  0  0  0  0  0  0  0  0  0  0  0
   10.5239  -15.4616   29.7892 C   0  0  0  0  0  0  0  0  0  0  0  0
   11.3689  -16.3427   29.1516 C   0  0  0  0  0  0  0  0  0  0  0  0
   11.2199  -16.6289   27.8170 C   0  0  0  0  0  0  0  0  0  0  0  0
   12.1576  -17.5601   27.1600 C   0  0  0  0  0  0  0  0  0  0  0  0
   12.3415  -17.1560   25.7078 C   0  0  2  0  0  0  0  0  0  0  0  0
   11.0509  -17.4018   25.0338 N   0  0  0  0  0  0  0  0  0  0  0  0
   13.3568  -17.9950   25.0804 C   0  0  0  0  0  0  0  0  0  0  0  0
   14.7052  -17.8704   25.4077 O   0  0  0  0  0  0  0  0  0  0  0  0
   10.2016  -16.0099   27.1315 C   0  0  0  0  0  0  0  0  0  0  0  0
    9.3581  -15.1266   27.7772 C   0  0  0  0  0  0  0  0  0  0  0  0
   13.0475  -18.8476   24.2316 O   0  0  0  0  0  0  0  0  0  0  0  0
  2  1  1  0
  2  3  1  0
  3  5  1  0
  3  4  1  6
  5  6  1  1
  7  8  2  0
  7  5  1  0
  9  7  1  0
 10  9  1  0
 10 11  1  6
 12 13  1  0
 12 11  1  0
 13 14  2  0
 15 16  2  0
 15 10  1  0
 17 13  1  0
 18 19  1  0
 19 20  2  0
 20 21  1  0
 22 23  1  0
 22 21  2  0
 24 23  1  1
 24 25  1  0
 25 15  1  0
 26 24  1  0
 27 26  1  0
 28 22  1  0
 29 28  2  0
 29 19  1  0
 30 26  2  0
M  END
$$$$
