IEY.pdb
     RDKit          3D

 30 30  0  0  1  0  0  0  0  0999 V2000
    7.8129  -12.2195   26.4313 C   0  0  0  0  0  0  0  0  0  0  0  0
    7.4045  -13.6076   26.0903 C   0  0  0  0  0  0  0  0  0  0  0  0
    6.5153  -13.6879   24.8616 C   0  0  2  0  0  0  0  0  0  0  0  0
    5.2475  -12.9666   25.1352 C   0  0  0  0  0  0  0  0  0  0  0  0
    6.3669  -15.1632   24.5628 C   0  0  2  0  0  0  0  0  0  0  0  0
    5.8849  -15.7401   25.8344 N   0  0  0  0  0  0  0  0  0  0  0  0
    7.5978  -15.8333   24.1627 C   0  0  0  0  0  0  0  0  0  0  0  0
    8.1521  -16.6294   24.9574 O   0  0  0  0  0  0  0  0  0  0  0  0
    8.1964  -15.6219   22.9048 N   0  0  0  0  0  0  0  0  0  0  0  0
    9.2917  -16.5015   22.4844 C   0  0  1  0  0  0  0  0  0  0  0  0
    9.4089  -16.4365   21.0006 C   0  0  0  0  0  0  0  0  0  0  0  0
   10.5438  -17.2308   20.4311 C   0  0  0  0  0  0  0  0  0  0  0  0
   10.4860  -16.9813   18.9448 C   0  0  0  0  0  0  0  0  0  0  0  0
   11.3523  -16.2862   18.3965 O   0  0  0  0  0  0  0  0  0  0  0  0
   10.5283  -16.1498   23.2039 C   0  0  0  0  0  0  0  0  0  0  0  0
   10.9377  -14.9336   23.1480 O   0  0  0  0  0  0  0  0  0  0  0  0
    9.4580  -17.5349   18.2176 O   0  0  0  0  0  0  0  0  0  0  0  0
   11.5069  -14.8506   31.4450 O   0  0  0  0  0  0  0  0  0  0  0  0
   11.2421  -15.2143   30.1220 C   0  0  0  0  0  0  0  0  0  0  0  0
   11.0529  -14.3225   29.1100 C   0  0  0  0  0  0  0  0  0  0  0  0
   10.7939  -14.7415   27.8239 C   0  0  0  0  0  0  0  0  0  0  0  0
   10.7179  -16.0770   27.5144 C   0  0  0  0  0  0  0  0  0  0  0  0
   10.4156  -16.4907   26.1304 C   0  0  0  0  0  0  0  0  0  0  0  0
   11.7110  -16.6662   25.3577 C   0  0  2  0  0  0  0  0  0  0  0  0
   11.3338  -17.0120   23.9727 N   0  0  0  0  0  0  0  0  0  0  0  0
   12.4802  -17.7729   25.9164 C   0  0  0  0  0  0  0  0  0  0  0  0
   13.5803  -17.5490   26.7414 O   0  0  0  0  0  0  0  0  0  0  0  0
   10.9072  -16.9883   28.5263 C   0  0  0  0  0  0  0  0  0  0  0  0
   11.1659  -16.5610   29.8144 C   0  0  0  0  0  0  0  0  0  0  0  0
   12.1760  -18.9520   25.6709 O   0  0  0  0  0  0  0  0  0  0  0  0
  2  1  1  0
  2  3  1  0
  3  5  1  0
  3  4  1  1
  5  6  1  1
  7  8  2  0
  7  5  1  0
  9  7  1  0
 10  9  1  0
 10 11  1  6
 12 13  1  0
 12 11  1  0
 13 14  2  0
 15 16  2  0
 15 10  1  0
 17 13  1  0
 18 19  1  0
 19 20  2  0
 20 21  1  0
 22 23  1  0
 22 21  2  0
 24 23  1  1
 24 25  1  0
 25 15  1  0
 26 24  1  0
 27 26  1  0
 28 22  1  0
 29 28  2  0
 29 19  1  0
 30 26  2  0
M  END
$$$$
