IEY.pdb
     RDKit          3D

 30 30  0  0  1  0  0  0  0  0999 V2000
    7.1366  -12.5903   19.2504 C   0  0  0  0  0  0  0  0  0  0  0  0
    7.6154  -13.9922   19.1281 C   0  0  0  0  0  0  0  0  0  0  0  0
    8.3375  -14.4913   20.3676 C   0  0  2  0  0  0  0  0  0  0  0  0
    9.4704  -13.5803   20.6660 C   0  0  0  0  0  0  0  0  0  0  0  0
    8.7226  -15.9225   20.0654 C   0  0  2  0  0  0  0  0  0  0  0  0
    7.4326  -16.5937   19.8054 N   0  0  0  0  0  0  0  0  0  0  0  0
    9.4175  -16.6104   21.1460 C   0  0  0  0  0  0  0  0  0  0  0  0
    8.7516  -17.1516   22.0605 O   0  0  0  0  0  0  0  0  0  0  0  0
   10.8228  -16.6946   21.2052 N   0  0  0  0  0  0  0  0  0  0  0  0
   11.4436  -17.4013   22.3299 C   0  0  1  0  0  0  0  0  0  0  0  0
   12.7852  -17.8875   21.9018 C   0  0  0  0  0  0  0  0  0  0  0  0
   13.5983  -18.5113   22.9941 C   0  0  0  0  0  0  0  0  0  0  0  0
   14.9207  -18.8472   22.3513 C   0  0  0  0  0  0  0  0  0  0  0  0
   14.9841  -19.7273   21.4819 O   0  0  0  0  0  0  0  0  0  0  0  0
   11.4672  -16.5350   23.5214 C   0  0  0  0  0  0  0  0  0  0  0  0
   11.6082  -15.2700   23.3491 O   0  0  0  0  0  0  0  0  0  0  0  0
   16.0458  -18.1633   22.7494 O   0  0  0  0  0  0  0  0  0  0  0  0
    6.8756  -11.8237   28.6334 O   0  0  0  0  0  0  0  0  0  0  0  0
    7.5183  -12.6780   27.7335 C   0  0  0  0  0  0  0  0  0  0  0  0
    6.8781  -13.3703   26.7504 C   0  0  0  0  0  0  0  0  0  0  0  0
    7.5661  -14.1994   25.8925 C   0  0  0  0  0  0  0  0  0  0  0  0
    8.9259  -14.3577   25.9968 C   0  0  0  0  0  0  0  0  0  0  0  0
    9.6283  -15.2721   25.0756 C   0  0  0  0  0  0  0  0  0  0  0  0
   10.6397  -16.0974   25.8513 C   0  0  2  0  0  0  0  0  0  0  0  0
   11.3435  -16.9405   24.8644 N   0  0  0  0  0  0  0  0  0  0  0  0
    9.9525  -16.9701   26.7971 C   0  0  0  0  0  0  0  0  0  0  0  0
    9.7712  -18.3261   26.5341 O   0  0  0  0  0  0  0  0  0  0  0  0
    9.5849  -13.6646   26.9845 C   0  0  0  0  0  0  0  0  0  0  0  0
    8.8884  -12.8352   27.8422 C   0  0  0  0  0  0  0  0  0  0  0  0
    9.5061  -16.5274   27.8684 O   0  0  0  0  0  0  0  0  0  0  0  0
  2  1  1  0
  2  3  1  0
  3  5  1  0
  3  4  1  6
  5  6  1  1
  7  8  2  0
  7  5  1  0
  9  7  1  0
 10  9  1  0
 10 11  1  6
 12 13  1  0
 12 11  1  0
 13 14  2  0
 15 16  2  0
 15 10  1  0
 17 13  1  0
 18 19  1  0
 19 20  2  0
 20 21  1  0
 22 23  1  0
 22 21  2  0
 24 23  1  6
 24 25  1  0
 25 15  1  0
 26 24  1  0
 27 26  1  0
 28 22  1  0
 29 28  2  0
 29 19  1  0
 30 26  2  0
M  END
$$$$
