IEY.pdb
     RDKit          3D

 30 30  0  0  1  0  0  0  0  0999 V2000
    7.1365  -11.7251   19.3040 C   0  0  0  0  0  0  0  0  0  0  0  0
    7.3270  -13.1529   18.9366 C   0  0  0  0  0  0  0  0  0  0  0  0
    7.9178  -13.9888   20.0587 C   0  0  2  0  0  0  0  0  0  0  0  0
    9.1590  -13.3364   20.5446 C   0  0  0  0  0  0  0  0  0  0  0  0
    8.1008  -15.3745   19.4804 C   0  0  2  0  0  0  0  0  0  0  0  0
    6.7227  -15.8434   19.2298 N   0  0  0  0  0  0  0  0  0  0  0  0
    8.7817  -16.3184   20.3575 C   0  0  0  0  0  0  0  0  0  0  0  0
    8.1507  -16.8444   21.3050 O   0  0  0  0  0  0  0  0  0  0  0  0
   10.1350  -16.6694   20.1815 N   0  0  0  0  0  0  0  0  0  0  0  0
   10.7671  -17.5653   21.1551 C   0  0  1  0  0  0  0  0  0  0  0  0
   12.0206  -18.1055   20.5580 C   0  0  0  0  0  0  0  0  0  0  0  0
   12.8188  -18.9810   21.4742 C   0  0  0  0  0  0  0  0  0  0  0  0
   13.9607  -19.4889   20.6300 C   0  0  0  0  0  0  0  0  0  0  0  0
   14.0406  -20.6931   20.3510 O   0  0  0  0  0  0  0  0  0  0  0  0
   10.9618  -16.8644   22.4364 C   0  0  0  0  0  0  0  0  0  0  0  0
   11.6443  -15.7763   22.4351 O   0  0  0  0  0  0  0  0  0  0  0  0
   14.9053  -18.5946   20.1824 O   0  0  0  0  0  0  0  0  0  0  0  0
   10.9362  -14.1519   30.7799 O   0  0  0  0  0  0  0  0  0  0  0  0
   10.6002  -14.6927   29.5360 C   0  0  0  0  0  0  0  0  0  0  0  0
   10.4478  -16.0257   29.3008 C   0  0  0  0  0  0  0  0  0  0  0  0
   10.1161  -16.5002   28.0512 C   0  0  0  0  0  0  0  0  0  0  0  0
    9.9253  -15.6443   26.9947 C   0  0  0  0  0  0  0  0  0  0  0  0
    9.5933  -16.1885   25.6637 C   0  0  0  0  0  0  0  0  0  0  0  0
   10.8724  -16.5398   24.9246 C   0  0  2  0  0  0  0  0  0  0  0  0
   10.4688  -17.2538   23.6968 N   0  0  0  0  0  0  0  0  0  0  0  0
   11.6868  -17.4392   25.7347 C   0  0  0  0  0  0  0  0  0  0  0  0
   11.4230  -18.8060   25.7900 O   0  0  0  0  0  0  0  0  0  0  0  0
   10.0755  -14.2961   27.2180 C   0  0  0  0  0  0  0  0  0  0  0  0
   10.4093  -13.8270   28.4739 C   0  0  0  0  0  0  0  0  0  0  0  0
   12.6425  -17.0105   26.4025 O   0  0  0  0  0  0  0  0  0  0  0  0
  2  1  1  0
  2  3  1  0
  3  5  1  0
  3  4  1  6
  5  6  1  1
  7  8  2  0
  7  5  1  0
  9  7  1  0
 10  9  1  0
 10 11  1  6
 12 13  1  0
 12 11  1  0
 13 14  2  0
 15 16  2  0
 15 10  1  0
 17 13  1  0
 18 19  1  0
 19 20  2  0
 20 21  1  0
 22 23  1  0
 22 21  2  0
 24 23  1  1
 24 25  1  0
 25 15  1  0
 26 24  1  0
 27 26  1  0
 28 22  1  0
 29 28  2  0
 29 19  1  0
 30 26  2  0
M  END
$$$$
