IEY.pdb
     RDKit          3D

 30 30  0  0  1  0  0  0  0  0999 V2000
    6.9508  -11.8893   19.2533 C   0  0  0  0  0  0  0  0  0  0  0  0
    7.1453  -13.3423   19.0066 C   0  0  0  0  0  0  0  0  0  0  0  0
    7.9450  -14.0354   20.0960 C   0  0  2  0  0  0  0  0  0  0  0  0
    9.1802  -13.2557   20.3583 C   0  0  0  0  0  0  0  0  0  0  0  0
    8.1660  -15.4479   19.6021 C   0  0  2  0  0  0  0  0  0  0  0  0
    6.8009  -15.9855   19.4304 N   0  0  0  0  0  0  0  0  0  0  0  0
    8.9131  -16.3050   20.5137 C   0  0  0  0  0  0  0  0  0  0  0  0
    8.3521  -16.7434   21.5461 O   0  0  0  0  0  0  0  0  0  0  0  0
   10.2546  -16.6666   20.2793 N   0  0  0  0  0  0  0  0  0  0  0  0
   10.9235  -17.5620   21.2285 C   0  0  1  0  0  0  0  0  0  0  0  0
   12.2128  -18.0088   20.6307 C   0  0  0  0  0  0  0  0  0  0  0  0
   13.0125  -18.9330   21.4965 C   0  0  0  0  0  0  0  0  0  0  0  0
   14.2738  -19.2040   20.7152 C   0  0  0  0  0  0  0  0  0  0  0  0
   15.3573  -18.7475   21.1050 O   0  0  0  0  0  0  0  0  0  0  0  0
   11.0620  -16.9001   22.5375 C   0  0  0  0  0  0  0  0  0  0  0  0
   11.4860  -15.6880   22.5626 O   0  0  0  0  0  0  0  0  0  0  0  0
   14.1958  -19.9600   19.5686 O   0  0  0  0  0  0  0  0  0  0  0  0
   10.6914  -14.1274   30.8021 O   0  0  0  0  0  0  0  0  0  0  0  0
   10.4504  -14.7383   29.5686 C   0  0  0  0  0  0  0  0  0  0  0  0
   10.3501  -16.0851   29.3921 C   0  0  0  0  0  0  0  0  0  0  0  0
   10.1120  -16.6300   28.1498 C   0  0  0  0  0  0  0  0  0  0  0  0
    9.9655  -15.8327   27.0415 C   0  0  0  0  0  0  0  0  0  0  0  0
    9.7343  -16.4510   25.7216 C   0  0  0  0  0  0  0  0  0  0  0  0
   11.0668  -16.7106   25.0413 C   0  0  2  0  0  0  0  0  0  0  0  0
   10.7701  -17.4526   23.7996 N   0  0  0  0  0  0  0  0  0  0  0  0
   11.9065  -17.5488   25.8903 C   0  0  0  0  0  0  0  0  0  0  0  0
   12.8744  -16.9962   26.7261 O   0  0  0  0  0  0  0  0  0  0  0  0
   10.0641  -14.4713   27.2053 C   0  0  0  0  0  0  0  0  0  0  0  0
   10.3039  -13.9315   28.4543 C   0  0  0  0  0  0  0  0  0  0  0  0
   11.7831  -18.7848   25.8918 O   0  0  0  0  0  0  0  0  0  0  0  0
  2  1  1  0
  2  3  1  0
  3  5  1  0
  3  4  1  6
  5  6  1  1
  7  8  2  0
  7  5  1  0
  9  7  1  0
 10  9  1  0
 10 11  1  6
 12 13  1  0
 12 11  1  0
 13 14  2  0
 15 16  2  0
 15 10  1  0
 17 13  1  0
 18 19  1  0
 19 20  2  0
 20 21  1  0
 22 23  1  0
 22 21  2  0
 24 23  1  1
 24 25  1  0
 25 15  1  0
 26 24  1  0
 27 26  1  0
 28 22  1  0
 29 28  2  0
 29 19  1  0
 30 26  2  0
M  END
$$$$
