IEY.pdb
     RDKit          3D

 30 30  0  0  1  0  0  0  0  0999 V2000
    6.9747  -12.6663   17.9454 C   0  0  0  0  0  0  0  0  0  0  0  0
    8.3306  -13.2251   18.1880 C   0  0  0  0  0  0  0  0  0  0  0  0
    8.4543  -13.9465   19.5189 C   0  0  2  0  0  0  0  0  0  0  0  0
    9.4229  -13.2176   20.3749 C   0  0  0  0  0  0  0  0  0  0  0  0
    8.8386  -15.3688   19.1762 C   0  0  2  0  0  0  0  0  0  0  0  0
    7.6315  -15.9201   18.5273 N   0  0  0  0  0  0  0  0  0  0  0  0
    9.1954  -16.1986   20.3199 C   0  0  0  0  0  0  0  0  0  0  0  0
    8.2886  -16.6612   21.0522 O   0  0  0  0  0  0  0  0  0  0  0  0
   10.5327  -16.5071   20.6393 N   0  0  0  0  0  0  0  0  0  0  0  0
   10.8096  -17.2985   21.8422 C   0  0  1  0  0  0  0  0  0  0  0  0
   12.2210  -17.7719   21.7836 C   0  0  0  0  0  0  0  0  0  0  0  0
   12.7091  -18.4288   23.0380 C   0  0  0  0  0  0  0  0  0  0  0  0
   14.1323  -18.8285   22.7393 C   0  0  0  0  0  0  0  0  0  0  0  0
   15.0539  -18.4414   23.4708 O   0  0  0  0  0  0  0  0  0  0  0  0
   10.4841  -16.5175   23.0483 C   0  0  0  0  0  0  0  0  0  0  0  0
   11.1871  -15.4730   23.3027 O   0  0  0  0  0  0  0  0  0  0  0  0
   14.3836  -19.6231   21.6449 O   0  0  0  0  0  0  0  0  0  0  0  0
    6.0837  -11.2772   28.3102 O   0  0  0  0  0  0  0  0  0  0  0  0
    6.5623  -12.1854   27.3622 C   0  0  0  0  0  0  0  0  0  0  0  0
    7.7114  -12.0109   26.6520 C   0  0  0  0  0  0  0  0  0  0  0  0
    8.1326  -12.9422   25.7289 C   0  0  0  0  0  0  0  0  0  0  0  0
    7.4078  -14.0838   25.4913 C   0  0  0  0  0  0  0  0  0  0  0  0
    7.8761  -15.0495   24.4783 C   0  0  0  0  0  0  0  0  0  0  0  0
    9.0905  -15.7921   25.0070 C   0  0  2  0  0  0  0  0  0  0  0  0
    9.4605  -16.7843   23.9780 N   0  0  0  0  0  0  0  0  0  0  0  0
    8.7461  -16.5049   26.2325 C   0  0  0  0  0  0  0  0  0  0  0  0
    8.5574  -17.8852   26.2410 O   0  0  0  0  0  0  0  0  0  0  0  0
    6.2458  -14.2730   26.2014 C   0  0  0  0  0  0  0  0  0  0  0  0
    5.8288  -13.3343   27.1253 C   0  0  0  0  0  0  0  0  0  0  0  0
    8.6094  -15.8992   27.3083 O   0  0  0  0  0  0  0  0  0  0  0  0
  2  1  1  0
  2  3  1  0
  3  5  1  0
  3  4  1  1
  5  6  1  1
  7  8  2  0
  7  5  1  0
  9  7  1  0
 10  9  1  0
 10 11  1  1
 12 13  1  0
 12 11  1  0
 13 14  2  0
 15 16  2  0
 15 10  1  0
 17 13  1  0
 18 19  1  0
 19 20  2  0
 20 21  1  0
 22 23  1  0
 22 21  2  0
 24 23  1  6
 24 25  1  0
 25 15  1  0
 26 24  1  0
 27 26  1  0
 28 22  1  0
 29 28  2  0
 29 19  1  0
 30 26  2  0
M  END
$$$$
