IEY.pdb
     RDKit          3D

 30 30  0  0  1  0  0  0  0  0999 V2000
    7.8588  -12.1871   21.2400 C   0  0  0  0  0  0  0  0  0  0  0  0
    7.6697  -13.5357   20.6441 C   0  0  0  0  0  0  0  0  0  0  0  0
    8.4074  -13.7210   19.3295 C   0  0  2  0  0  0  0  0  0  0  0  0
    7.8868  -12.7434   18.3418 C   0  0  0  0  0  0  0  0  0  0  0  0
    8.2189  -15.1754   18.9590 C   0  0  2  0  0  0  0  0  0  0  0  0
    6.7581  -15.3164   18.7911 N   0  0  0  0  0  0  0  0  0  0  0  0
    8.6857  -16.1270   19.9592 C   0  0  0  0  0  0  0  0  0  0  0  0
    7.8841  -16.5555   20.8232 O   0  0  0  0  0  0  0  0  0  0  0  0
   10.0154  -16.5918   19.9948 N   0  0  0  0  0  0  0  0  0  0  0  0
   10.3968  -17.5710   21.0174 C   0  0  1  0  0  0  0  0  0  0  0  0
   11.5578  -18.3561   20.5123 C   0  0  0  0  0  0  0  0  0  0  0  0
   12.0904  -19.3697   21.4778 C   0  0  0  0  0  0  0  0  0  0  0  0
   13.2459  -20.0211   20.7600 C   0  0  0  0  0  0  0  0  0  0  0  0
   13.0647  -21.0501   20.0949 O   0  0  0  0  0  0  0  0  0  0  0  0
   10.6397  -16.8926   22.3025 C   0  0  0  0  0  0  0  0  0  0  0  0
   11.3557  -15.8262   22.2999 O   0  0  0  0  0  0  0  0  0  0  0  0
   14.4953  -19.4546   20.8611 O   0  0  0  0  0  0  0  0  0  0  0  0
   10.3045  -13.9046   30.5738 O   0  0  0  0  0  0  0  0  0  0  0  0
   10.0334  -14.4741   29.3268 C   0  0  0  0  0  0  0  0  0  0  0  0
    9.5847  -13.7714   28.2497 C   0  0  0  0  0  0  0  0  0  0  0  0
    9.3339  -14.3889   27.0444 C   0  0  0  0  0  0  0  0  0  0  0  0
    9.5287  -15.7385   26.8845 C   0  0  0  0  0  0  0  0  0  0  0  0
    9.2277  -16.3717   25.5858 C   0  0  0  0  0  0  0  0  0  0  0  0
   10.5076  -16.5153   24.7814 C   0  0  2  0  0  0  0  0  0  0  0  0
   10.1609  -17.2823   23.5683 N   0  0  0  0  0  0  0  0  0  0  0  0
   11.4933  -17.2757   25.5421 C   0  0  0  0  0  0  0  0  0  0  0  0
   12.5547  -16.6461   26.1887 O   0  0  0  0  0  0  0  0  0  0  0  0
    9.9817  -16.4600   27.9635 C   0  0  0  0  0  0  0  0  0  0  0  0
   10.2305  -15.8344   29.1699 C   0  0  0  0  0  0  0  0  0  0  0  0
   11.4153  -18.5120   25.6349 O   0  0  0  0  0  0  0  0  0  0  0  0
  2  1  1  0
  2  3  1  0
  3  5  1  0
  3  4  1  6
  5  6  1  1
  7  8  2  0
  7  5  1  0
  9  7  1  0
 10  9  1  0
 10 11  1  6
 12 13  1  0
 12 11  1  0
 13 14  2  0
 15 16  2  0
 15 10  1  0
 17 13  1  0
 18 19  1  0
 19 20  2  0
 20 21  1  0
 22 23  1  0
 22 21  2  0
 24 23  1  1
 24 25  1  0
 25 15  1  0
 26 24  1  0
 27 26  1  0
 28 22  1  0
 29 28  2  0
 29 19  1  0
 30 26  2  0
M  END
$$$$
