IEY.pdb
     RDKit          3D

 30 30  0  0  1  0  0  0  0  0999 V2000
    7.3855  -12.1545   18.8027 C   0  0  0  0  0  0  0  0  0  0  0  0
    7.8094  -13.5656   18.6059 C   0  0  0  0  0  0  0  0  0  0  0  0
    8.2290  -14.2526   19.8939 C   0  0  2  0  0  0  0  0  0  0  0  0
    9.2641  -13.4283   20.5656 C   0  0  0  0  0  0  0  0  0  0  0  0
    8.6721  -15.6409   19.4886 C   0  0  2  0  0  0  0  0  0  0  0  0
    7.4560  -16.2523   18.9147 N   0  0  0  0  0  0  0  0  0  0  0  0
    9.1616  -16.4705   20.5822 C   0  0  0  0  0  0  0  0  0  0  0  0
    8.3415  -16.9918   21.3749 O   0  0  0  0  0  0  0  0  0  0  0  0
   10.5342  -16.7149   20.7868 N   0  0  0  0  0  0  0  0  0  0  0  0
   10.9520  -17.4519   21.9836 C   0  0  1  0  0  0  0  0  0  0  0  0
   12.3648  -17.8886   21.8021 C   0  0  0  0  0  0  0  0  0  0  0  0
   12.9881  -18.4996   23.0193 C   0  0  0  0  0  0  0  0  0  0  0  0
   14.3607  -18.9387   22.5747 C   0  0  0  0  0  0  0  0  0  0  0  0
   14.5082  -20.0185   21.9860 O   0  0  0  0  0  0  0  0  0  0  0  0
   10.7226  -16.6344   23.1876 C   0  0  0  0  0  0  0  0  0  0  0  0
   11.2953  -15.4870   23.2600 O   0  0  0  0  0  0  0  0  0  0  0  0
   15.4368  -18.1229   22.8370 O   0  0  0  0  0  0  0  0  0  0  0  0
    6.3245  -11.1572   27.9803 O   0  0  0  0  0  0  0  0  0  0  0  0
    6.7729  -12.1718   27.1304 C   0  0  0  0  0  0  0  0  0  0  0  0
    5.9982  -13.2091   26.7072 C   0  0  0  0  0  0  0  0  0  0  0  0
    6.4969  -14.1814   25.8689 C   0  0  0  0  0  0  0  0  0  0  0  0
    7.7963  -14.1394   25.4275 C   0  0  0  0  0  0  0  0  0  0  0  0
    8.3047  -15.2104   24.5485 C   0  0  0  0  0  0  0  0  0  0  0  0
    9.4517  -15.9304   25.2355 C   0  0  2  0  0  0  0  0  0  0  0  0
    9.9219  -16.9687   24.2969 N   0  0  0  0  0  0  0  0  0  0  0  0
    8.9751  -16.5864   26.4483 C   0  0  0  0  0  0  0  0  0  0  0  0
    9.1240  -15.9942   27.7005 O   0  0  0  0  0  0  0  0  0  0  0  0
    8.5895  -13.0977   25.8466 C   0  0  0  0  0  0  0  0  0  0  0  0
    8.0830  -12.1262   26.6883 C   0  0  0  0  0  0  0  0  0  0  0  0
    8.4214  -17.6973   26.3997 O   0  0  0  0  0  0  0  0  0  0  0  0
  2  1  1  0
  2  3  1  0
  3  5  1  0
  3  4  1  6
  5  6  1  1
  7  8  2  0
  7  5  1  0
  9  7  1  0
 10  9  1  0
 10 11  1  6
 12 13  1  0
 12 11  1  0
 13 14  2  0
 15 16  2  0
 15 10  1  0
 17 13  1  0
 18 19  1  0
 19 20  2  0
 20 21  1  0
 22 23  1  0
 22 21  2  0
 24 23  1  6
 24 25  1  0
 25 15  1  0
 26 24  1  0
 27 26  1  0
 28 22  1  0
 29 28  2  0
 29 19  1  0
 30 26  2  0
M  END
$$$$
