IEY.pdb
     RDKit          3D

 30 30  0  0  1  0  0  0  0  0999 V2000
    7.1029  -12.0537   19.2357 C   0  0  0  0  0  0  0  0  0  0  0  0
    6.9248  -13.4943   19.5562 C   0  0  0  0  0  0  0  0  0  0  0  0
    7.7960  -13.9663   20.7073 C   0  0  2  0  0  0  0  0  0  0  0  0
    9.2091  -13.6178   20.4176 C   0  0  0  0  0  0  0  0  0  0  0  0
    7.5126  -15.4451   20.8519 C   0  0  2  0  0  0  0  0  0  0  0  0
    6.0489  -15.5131   21.0394 N   0  0  0  0  0  0  0  0  0  0  0  0
    8.1757  -16.0878   21.9793 C   0  0  0  0  0  0  0  0  0  0  0  0
    7.7507  -15.8847   23.1415 O   0  0  0  0  0  0  0  0  0  0  0  0
    9.2866  -16.9389   21.8150 N   0  0  0  0  0  0  0  0  0  0  0  0
    9.9559  -17.4688   23.0071 C   0  0  1  0  0  0  0  0  0  0  0  0
   10.6705  -18.7211   22.6323 C   0  0  0  0  0  0  0  0  0  0  0  0
   11.4592  -19.3435   23.7432 C   0  0  0  0  0  0  0  0  0  0  0  0
   12.1354  -20.5380   23.1184 C   0  0  0  0  0  0  0  0  0  0  0  0
   12.0916  -21.6415   23.6791 O   0  0  0  0  0  0  0  0  0  0  0  0
   10.8203  -16.4357   23.6039 C   0  0  0  0  0  0  0  0  0  0  0  0
   11.5719  -15.7477   22.8219 O   0  0  0  0  0  0  0  0  0  0  0  0
   12.7988  -20.3768   21.9241 O   0  0  0  0  0  0  0  0  0  0  0  0
   10.0435  -18.0625   30.6650 O   0  0  0  0  0  0  0  0  0  0  0  0
   10.2512  -17.1397   29.6364 C   0  0  0  0  0  0  0  0  0  0  0  0
    9.3684  -16.9163   28.6235 C   0  0  0  0  0  0  0  0  0  0  0  0
    9.6290  -15.9928   27.6356 C   0  0  0  0  0  0  0  0  0  0  0  0
   10.7908  -15.2611   27.6367 C   0  0  0  0  0  0  0  0  0  0  0  0
   11.0483  -14.2965   26.5499 C   0  0  0  0  0  0  0  0  0  0  0  0
   11.7838  -14.9910   25.4174 C   0  0  2  0  0  0  0  0  0  0  0  0
   10.9182  -16.0995   24.9680 N   0  0  0  0  0  0  0  0  0  0  0  0
   13.0376  -15.5539   25.9068 C   0  0  0  0  0  0  0  0  0  0  0  0
   14.1056  -14.7380   26.2737 O   0  0  0  0  0  0  0  0  0  0  0  0
   11.6907  -15.4762   28.6535 C   0  0  0  0  0  0  0  0  0  0  0  0
   11.4233  -16.4049   29.6409 C   0  0  0  0  0  0  0  0  0  0  0  0
   13.1905  -16.7823   26.0100 O   0  0  0  0  0  0  0  0  0  0  0  0
  2  1  1  0
  2  3  1  0
  3  5  1  0
  3  4  1  6
  5  6  1  1
  7  8  2  0
  7  5  1  0
  9  7  1  0
 10  9  1  0
 10 11  1  6
 12 13  1  0
 12 11  1  0
 13 14  2  0
 15 16  2  0
 15 10  1  0
 17 13  1  0
 18 19  1  0
 19 20  2  0
 20 21  1  0
 22 23  1  0
 22 21  2  0
 24 23  1  1
 24 25  1  0
 25 15  1  0
 26 24  1  0
 27 26  1  0
 28 22  1  0
 29 28  2  0
 29 19  1  0
 30 26  2  0
M  END
$$$$
