IEY.pdb
     RDKit          3D

 30 30  0  0  1  0  0  0  0  0999 V2000
    5.9107  -11.4937   26.3082 C   0  0  0  0  0  0  0  0  0  0  0  0
    5.6962  -12.8129   25.6575 C   0  0  0  0  0  0  0  0  0  0  0  0
    6.9853  -13.4771   25.2057 C   0  0  2  0  0  0  0  0  0  0  0  0
    7.7256  -12.5430   24.3217 C   0  0  0  0  0  0  0  0  0  0  0  0
    6.5672  -14.7804   24.5618 C   0  0  2  0  0  0  0  0  0  0  0  0
    5.7898  -15.4670   25.6137 N   0  0  0  0  0  0  0  0  0  0  0  0
    7.6692  -15.6349   24.1383 C   0  0  0  0  0  0  0  0  0  0  0  0
    8.2040  -16.4075   24.9688 O   0  0  0  0  0  0  0  0  0  0  0  0
    8.1631  -15.6294   22.8187 N   0  0  0  0  0  0  0  0  0  0  0  0
    9.2563  -16.5412   22.4673 C   0  0  1  0  0  0  0  0  0  0  0  0
    9.4250  -16.5307   20.9871 C   0  0  0  0  0  0  0  0  0  0  0  0
   10.5402  -17.3937   20.4822 C   0  0  0  0  0  0  0  0  0  0  0  0
   10.4516  -17.3040   18.9793 C   0  0  0  0  0  0  0  0  0  0  0  0
    9.4601  -17.7512   18.3868 O   0  0  0  0  0  0  0  0  0  0  0  0
   10.4738  -16.1844   23.2164 C   0  0  0  0  0  0  0  0  0  0  0  0
   10.8205  -14.9484   23.2575 O   0  0  0  0  0  0  0  0  0  0  0  0
   11.4878  -16.7226   18.2861 O   0  0  0  0  0  0  0  0  0  0  0  0
   11.5566  -15.3235   31.5004 O   0  0  0  0  0  0  0  0  0  0  0  0
   11.2969  -15.4967   30.1384 C   0  0  0  0  0  0  0  0  0  0  0  0
   11.0377  -14.4747   29.2762 C   0  0  0  0  0  0  0  0  0  0  0  0
   10.7876  -14.7078   27.9420 C   0  0  0  0  0  0  0  0  0  0  0  0
   10.7918  -15.9823   27.4314 C   0  0  0  0  0  0  0  0  0  0  0  0
   10.4969  -16.1979   26.0015 C   0  0  0  0  0  0  0  0  0  0  0  0
   11.7167  -16.7853   25.3137 C   0  0  2  0  0  0  0  0  0  0  0  0
   11.3228  -17.0622   23.9179 N   0  0  0  0  0  0  0  0  0  0  0  0
   12.0888  -18.0458   25.9469 C   0  0  0  0  0  0  0  0  0  0  0  0
   13.0845  -18.1036   26.9197 O   0  0  0  0  0  0  0  0  0  0  0  0
   11.0523  -17.0235   28.2905 C   0  0  0  0  0  0  0  0  0  0  0  0
   11.3015  -16.7825   29.6279 C   0  0  0  0  0  0  0  0  0  0  0  0
   11.5273  -19.1090   25.6350 O   0  0  0  0  0  0  0  0  0  0  0  0
  2  1  1  0
  2  3  1  0
  3  5  1  0
  3  4  1  6
  5  6  1  1
  7  8  2  0
  7  5  1  0
  9  7  1  0
 10  9  1  0
 10 11  1  6
 12 13  1  0
 12 11  1  0
 13 14  2  0
 15 16  2  0
 15 10  1  0
 17 13  1  0
 18 19  1  0
 19 20  2  0
 20 21  1  0
 22 23  1  0
 22 21  2  0
 24 23  1  1
 24 25  1  0
 25 15  1  0
 26 24  1  0
 27 26  1  0
 28 22  1  0
 29 28  2  0
 29 19  1  0
 30 26  2  0
M  END
$$$$
