PHQ.pdb
     RDKit          3D

 27 28  0  0  1  0  0  0  0  0999 V2000
   28.0024  -28.6423  -19.2036 N   0  0  0  0  0  0  0  0  0  0  0  0
   29.3481  -29.1101  -19.4284 C   0  0  0  0  0  0  0  0  0  0  0  0
   29.6019  -30.1723  -18.3727 C   0  0  0  0  0  0  0  0  0  0  0  0
   28.6578  -29.8529  -17.2508 C   0  0  0  0  0  0  0  0  0  0  0  0
   27.6037  -29.0156  -17.8900 C   0  0  1  0  0  0  0  0  0  0  0  0
   27.2476  -27.8094  -17.0580 C   0  0  0  0  0  0  0  0  0  0  0  0
   27.0361  -28.0476  -15.8584 O   0  0  0  0  0  0  0  0  0  0  0  0
   27.1749  -26.5534  -17.6347 N   0  0  0  0  0  0  0  0  0  0  0  0
   26.7934  -25.3422  -17.0275 C   0  0  1  0  0  0  0  0  0  0  0  0
   27.8653  -24.2635  -17.1555 C   0  0  0  0  0  0  0  0  0  0  0  0
   29.1082  -24.6770  -16.4697 C   0  0  0  0  0  0  0  0  0  0  0  0
   29.3509  -25.8858  -15.8586 C   0  0  0  0  0  0  0  0  0  0  0  0
   30.5991  -25.8378  -15.3663 N   0  0  0  0  0  0  0  0  0  0  0  0
   31.1594  -24.6393  -15.6432 C   0  0  0  0  0  0  0  0  0  0  0  0
   30.2366  -23.9505  -16.3136 N   0  0  0  0  0  0  0  0  0  0  0  0
   25.4647  -24.9129  -17.4271 C   0  0  0  0  0  0  0  0  0  0  0  0
   25.0449  -25.1918  -18.6007 O   0  0  0  0  0  0  0  0  0  0  0  0
   21.2831  -23.1023  -13.2622 N   0  0  0  0  0  0  0  0  0  0  0  0
   20.4806  -22.9770  -14.4172 C   0  0  0  0  0  0  0  0  0  0  0  0
   19.2528  -22.6476  -14.2973 O   0  0  0  0  0  0  0  0  0  0  0  0
   21.0877  -23.2256  -15.7424 C   0  0  0  0  0  0  0  0  0  0  0  0
   22.5362  -23.5354  -15.6872 C   0  0  0  0  0  0  0  0  0  0  0  0
   23.2491  -23.7773  -16.9610 C   0  0  2  0  0  0  0  0  0  0  0  0
   24.6110  -24.1995  -16.5789 N   0  0  0  0  0  0  0  0  0  0  0  0
   23.2570  -22.7708  -17.9953 C   0  0  0  0  0  0  0  0  0  0  0  0
   24.2099  -21.9333  -18.0550 O   0  0  0  0  0  0  0  0  0  0  0  0
   22.2529  -22.6666  -18.9660 O   0  0  0  0  0  0  0  0  0  0  0  0
  2  1  1  0
  3  4  1  0
  3  2  1  0
  4  5  1  0
  5  6  1  1
  5  1  1  0
  6  8  1  0
  7  6  2  0
  8  9  1  0
  9 10  1  6
 10 11  1  0
 11 12  2  0
 11 15  1  0
 12 13  1  0
 13 14  1  0
 15 14  2  0
 16  9  1  0
 16 17  2  0
 18 19  1  0
 19 21  1  0
 20 19  2  0
 21 22  1  0
 23 24  1  0
 23 22  1  1
 24 16  1  0
 25 23  1  0
 26 25  2  0
 27 25  1  0
M  END
$$$$
