PHQ.pdb
     RDKit          3D

 27 28  0  0  1  0  0  0  0  0999 V2000
   18.9074  -19.7692    1.7891 N   0  0  0  0  0  0  0  0  0  0  0  0
   18.6024  -19.2874    0.4642 C   0  0  0  0  0  0  0  0  0  0  0  0
   19.1068  -17.8555    0.4152 C   0  0  0  0  0  0  0  0  0  0  0  0
   19.1264  -17.3907    1.8418 C   0  0  0  0  0  0  0  0  0  0  0  0
   19.1531  -18.6521    2.6349 C   0  0  1  0  0  0  0  0  0  0  0  0
   18.1928  -18.6185    3.7970 C   0  0  0  0  0  0  0  0  0  0  0  0
   18.1599  -17.5426    4.4151 O   0  0  0  0  0  0  0  0  0  0  0  0
   17.4282  -19.7287    4.1104 N   0  0  0  0  0  0  0  0  0  0  0  0
   16.5786  -19.9108    5.2178 C   0  0  1  0  0  0  0  0  0  0  0  0
   15.3444  -20.7403    4.8748 C   0  0  0  0  0  0  0  0  0  0  0  0
   15.5969  -21.5891    3.6908 C   0  0  0  0  0  0  0  0  0  0  0  0
   15.9975  -22.9055    3.6891 C   0  0  0  0  0  0  0  0  0  0  0  0
   16.1064  -23.2853    2.4059 N   0  0  0  0  0  0  0  0  0  0  0  0
   15.7888  -22.2551    1.5905 C   0  0  0  0  0  0  0  0  0  0  0  0
   15.4826  -21.2356    2.3917 N   0  0  0  0  0  0  0  0  0  0  0  0
   17.2921  -20.3639    6.3989 C   0  0  0  0  0  0  0  0  0  0  0  0
   18.3098  -21.1233    6.2607 O   0  0  0  0  0  0  0  0  0  0  0  0
   21.1670  -17.6905    7.7117 N   0  0  0  0  0  0  0  0  0  0  0  0
   21.4687  -18.9371    8.3026 C   0  0  0  0  0  0  0  0  0  0  0  0
   22.6883  -19.2668    8.4873 O   0  0  0  0  0  0  0  0  0  0  0  0
   20.3587  -19.8296    8.6996 C   0  0  0  0  0  0  0  0  0  0  0  0
   19.0140  -19.2559    8.4545 C   0  0  0  0  0  0  0  0  0  0  0  0
   17.8310  -20.0499    8.8538 C   0  0  2  0  0  0  0  0  0  0  0  0
   16.9148  -20.0049    7.6973 N   0  0  0  0  0  0  0  0  0  0  0  0
   17.1554  -19.7765   10.0994 C   0  0  0  0  0  0  0  0  0  0  0  0
   16.1344  -19.0212   10.1123 O   0  0  0  0  0  0  0  0  0  0  0  0
   17.5668  -20.3157   11.3247 O   0  0  0  0  0  0  0  0  0  0  0  0
  2  1  1  0
  3  4  1  0
  3  2  1  0
  4  5  1  0
  5  6  1  1
  5  1  1  0
  6  8  1  0
  7  6  2  0
  8  9  1  0
  9 10  1  6
 10 11  1  0
 11 12  2  0
 11 15  1  0
 12 13  1  0
 13 14  1  0
 15 14  2  0
 16  9  1  0
 16 17  2  0
 18 19  1  0
 19 21  1  0
 20 19  2  0
 21 22  1  0
 23 24  1  0
 23 22  1  6
 24 16  1  0
 25 23  1  0
 26 25  2  0
 27 25  1  0
M  END
$$$$
