PHQ.pdb
     RDKit          3D

 27 28  0  0  1  0  0  0  0  0999 V2000
   26.9928  -19.2825  -17.4026 N   0  0  0  0  0  0  0  0  0  0  0  0
   27.8551  -18.8613  -18.4793 C   0  0  0  0  0  0  0  0  0  0  0  0
   28.7540  -17.7845  -17.8964 C   0  0  0  0  0  0  0  0  0  0  0  0
   27.9966  -17.2214  -16.7297 C   0  0  0  0  0  0  0  0  0  0  0  0
   27.0125  -18.2868  -16.3868 C   0  0  1  0  0  0  0  0  0  0  0  0
   25.6338  -17.7322  -16.1312 C   0  0  0  0  0  0  0  0  0  0  0  0
   25.5766  -16.8655  -15.2445 O   0  0  0  0  0  0  0  0  0  0  0  0
   24.5466  -18.1875  -16.8565 N   0  0  0  0  0  0  0  0  0  0  0  0
   23.1994  -17.7983  -16.7344 C   0  0  1  0  0  0  0  0  0  0  0  0
   22.6645  -17.1445  -18.0054 C   0  0  0  0  0  0  0  0  0  0  0  0
   23.3671  -15.8717  -18.2745 C   0  0  0  0  0  0  0  0  0  0  0  0
   23.3345  -14.7319  -17.5042 C   0  0  0  0  0  0  0  0  0  0  0  0
   24.1100  -13.8200  -18.1122 N   0  0  0  0  0  0  0  0  0  0  0  0
   24.6354  -14.3406  -19.2435 C   0  0  0  0  0  0  0  0  0  0  0  0
   24.1712  -15.5870  -19.3224 N   0  0  0  0  0  0  0  0  0  0  0  0
   22.3580  -18.8599  -16.2106 C   0  0  0  0  0  0  0  0  0  0  0  0
   22.5413  -20.0582  -16.6131 O   0  0  0  0  0  0  0  0  0  0  0  0
   21.2041  -19.4108  -10.5284 N   0  0  0  0  0  0  0  0  0  0  0  0
   20.2408  -20.3646  -10.9238 C   0  0  0  0  0  0  0  0  0  0  0  0
   19.6216  -21.0391  -10.0339 O   0  0  0  0  0  0  0  0  0  0  0  0
   19.9686  -20.5536  -12.3647 C   0  0  0  0  0  0  0  0  0  0  0  0
   20.7897  -19.6899  -13.2461 C   0  0  0  0  0  0  0  0  0  0  0  0
   20.5097  -19.7054  -14.6990 C   0  0  2  0  0  0  0  0  0  0  0  0
   21.3435  -18.6318  -15.2747 N   0  0  0  0  0  0  0  0  0  0  0  0
   19.1500  -19.6613  -15.1805 C   0  0  0  0  0  0  0  0  0  0  0  0
   18.6470  -18.5564  -15.5537 O   0  0  0  0  0  0  0  0  0  0  0  0
   18.3350  -20.7968  -15.2693 O   0  0  0  0  0  0  0  0  0  0  0  0
  2  1  1  0
  3  4  1  0
  3  2  1  0
  4  5  1  0
  5  6  1  6
  5  1  1  0
  6  8  1  0
  7  6  2  0
  8  9  1  0
  9 10  1  6
 10 11  1  0
 11 12  2  0
 11 15  1  0
 12 13  1  0
 13 14  1  0
 15 14  2  0
 16  9  1  0
 16 17  2  0
 18 19  1  0
 19 21  1  0
 20 19  2  0
 21 22  1  0
 23 24  1  0
 23 22  1  1
 24 16  1  0
 25 23  1  0
 26 25  2  0
 27 25  1  0
M  END
$$$$
