PHQ.pdb
     RDKit          3D

 27 28  0  0  1  0  0  0  0  0999 V2000
   28.1440  -21.5660  -13.4223 N   0  0  0  0  0  0  0  0  0  0  0  0
   29.5380  -21.2321  -13.5825 C   0  0  0  0  0  0  0  0  0  0  0  0
   29.8934  -20.3485  -12.3992 C   0  0  0  0  0  0  0  0  0  0  0  0
   28.5977  -19.7345  -11.9566 C   0  0  0  0  0  0  0  0  0  0  0  0
   27.5560  -20.6434  -12.5130 C   0  0  1  0  0  0  0  0  0  0  0  0
   26.4187  -19.8875  -13.1526 C   0  0  0  0  0  0  0  0  0  0  0  0
   25.9901  -18.9305  -12.4885 O   0  0  0  0  0  0  0  0  0  0  0  0
   25.9255  -20.2708  -14.3876 N   0  0  0  0  0  0  0  0  0  0  0  0
   24.9422  -19.6299  -15.1646 C   0  0  1  0  0  0  0  0  0  0  0  0
   25.3376  -19.5265  -16.6349 C   0  0  0  0  0  0  0  0  0  0  0  0
   26.5528  -18.6993  -16.7930 C   0  0  0  0  0  0  0  0  0  0  0  0
   26.6079  -17.3316  -16.9341 C   0  0  0  0  0  0  0  0  0  0  0  0
   27.9031  -16.9964  -17.0471 N   0  0  0  0  0  0  0  0  0  0  0  0
   28.6746  -18.1044  -16.9828 C   0  0  0  0  0  0  0  0  0  0  0  0
   27.8341  -19.1267  -16.8284 N   0  0  0  0  0  0  0  0  0  0  0  0
   23.6139  -20.1732  -14.9411 C   0  0  0  0  0  0  0  0  0  0  0  0
   23.4697  -21.4353  -14.8084 O   0  0  0  0  0  0  0  0  0  0  0  0
   20.5486  -22.1580  -12.2448 N   0  0  0  0  0  0  0  0  0  0  0  0
   19.3732  -21.3755  -12.2493 C   0  0  0  0  0  0  0  0  0  0  0  0
   18.2772  -21.8845  -11.8370 O   0  0  0  0  0  0  0  0  0  0  0  0
   19.4440  -19.9783  -12.7281 C   0  0  0  0  0  0  0  0  0  0  0  0
   20.7800  -19.5889  -13.2388 C   0  0  0  0  0  0  0  0  0  0  0  0
   21.1123  -19.9089  -14.6447 C   0  0  2  0  0  0  0  0  0  0  0  0
   22.4699  -19.3719  -14.8631 N   0  0  0  0  0  0  0  0  0  0  0  0
   20.2042  -19.5529  -15.7083 C   0  0  0  0  0  0  0  0  0  0  0  0
   19.4370  -20.4342  -16.2060 O   0  0  0  0  0  0  0  0  0  0  0  0
   20.1125  -18.2569  -16.2312 O   0  0  0  0  0  0  0  0  0  0  0  0
  2  1  1  0
  3  4  1  0
  3  2  1  0
  4  5  1  0
  5  6  1  6
  5  1  1  0
  6  8  1  0
  7  6  2  0
  8  9  1  0
  9 10  1  6
 10 11  1  0
 11 12  2  0
 11 15  1  0
 12 13  1  0
 13 14  1  0
 15 14  2  0
 16  9  1  0
 16 17  2  0
 18 19  1  0
 19 21  1  0
 20 19  2  0
 21 22  1  0
 23 24  1  0
 23 22  1  1
 24 16  1  0
 25 23  1  0
 26 25  2  0
 27 25  1  0
M  END
$$$$
