PHQ.pdb
     RDKit          3D

 27 28  0  0  1  0  0  0  0  0999 V2000
   24.0091  -12.3649  -15.0639 N   0  0  0  0  0  0  0  0  0  0  0  0
   23.8502  -13.7846  -14.8654 C   0  0  0  0  0  0  0  0  0  0  0  0
   23.7814  -14.3944  -16.2549 C   0  0  0  0  0  0  0  0  0  0  0  0
   23.3075  -13.2892  -17.1524 C   0  0  0  0  0  0  0  0  0  0  0  0
   23.6251  -12.0451  -16.3958 C   0  0  1  0  0  0  0  0  0  0  0  0
   22.4884  -11.0545  -16.4194 C   0  0  0  0  0  0  0  0  0  0  0  0
   22.1328  -10.6959  -17.5532 O   0  0  0  0  0  0  0  0  0  0  0  0
   21.9185  -10.6093  -15.2393 N   0  0  0  0  0  0  0  0  0  0  0  0
   20.8230   -9.7398  -15.0805 C   0  0  1  0  0  0  0  0  0  0  0  0
   19.6882  -10.3729  -14.2803 C   0  0  0  0  0  0  0  0  0  0  0  0
   19.0310  -11.4428  -15.0610 C   0  0  0  0  0  0  0  0  0  0  0  0
   18.1207  -11.2809  -16.0801 C   0  0  0  0  0  0  0  0  0  0  0  0
   17.7824  -12.5077  -16.5083 N   0  0  0  0  0  0  0  0  0  0  0  0
   18.4465  -13.4452  -15.7963 C   0  0  0  0  0  0  0  0  0  0  0  0
   19.1987  -12.7764  -14.9233 N   0  0  0  0  0  0  0  0  0  0  0  0
   21.2199   -8.4232  -14.6131 C   0  0  0  0  0  0  0  0  0  0  0  0
   21.8939   -8.3209  -13.5330 O   0  0  0  0  0  0  0  0  0  0  0  0
   24.4291   -4.9071  -17.6070 N   0  0  0  0  0  0  0  0  0  0  0  0
   24.2409   -4.0038  -16.5381 C   0  0  0  0  0  0  0  0  0  0  0  0
   24.9693   -2.9578  -16.4630 O   0  0  0  0  0  0  0  0  0  0  0  0
   23.1959   -4.2912  -15.5322 C   0  0  0  0  0  0  0  0  0  0  0  0
   22.4777   -5.5669  -15.7647 C   0  0  0  0  0  0  0  0  0  0  0  0
   21.3480   -5.9068  -14.8715 C   0  0  2  0  0  0  0  0  0  0  0  0
   20.8961   -7.2463  -15.2965 N   0  0  0  0  0  0  0  0  0  0  0  0
   20.2499   -4.9860  -14.7015 C   0  0  0  0  0  0  0  0  0  0  0  0
   19.2015   -5.1152  -15.4067 O   0  0  0  0  0  0  0  0  0  0  0  0
   20.2711   -3.9362  -13.7747 O   0  0  0  0  0  0  0  0  0  0  0  0
  2  1  1  0
  3  4  1  0
  3  2  1  0
  4  5  1  0
  5  6  1  1
  5  1  1  0
  6  8  1  0
  7  6  2  0
  8  9  1  0
  9 10  1  1
 10 11  1  0
 11 12  2  0
 11 15  1  0
 12 13  1  0
 13 14  1  0
 15 14  2  0
 16  9  1  0
 16 17  2  0
 18 19  1  0
 19 21  1  0
 20 19  2  0
 21 22  1  0
 23 24  1  0
 23 22  1  6
 24 16  1  0
 25 23  1  0
 26 25  2  0
 27 25  1  0
M  END
$$$$
