PHQ.pdb
     RDKit          3D

 27 28  0  0  1  0  0  0  0  0999 V2000
   41.9142   -5.3819   -5.6413 N   0  0  0  0  0  0  0  0  0  0  0  0
   42.0133   -5.9436   -4.3165 C   0  0  0  0  0  0  0  0  0  0  0  0
   43.2087   -6.8802   -4.3495 C   0  0  0  0  0  0  0  0  0  0  0  0
   43.3696   -7.2708   -5.7894 C   0  0  0  0  0  0  0  0  0  0  0  0
   42.6575   -6.1975   -6.5390 C   0  0  1  0  0  0  0  0  0  0  0  0
   41.7826   -6.7490   -7.6363 C   0  0  0  0  0  0  0  0  0  0  0  0
   42.3736   -7.4539   -8.4697 O   0  0  0  0  0  0  0  0  0  0  0  0
   40.4290   -6.4624   -7.6680 N   0  0  0  0  0  0  0  0  0  0  0  0
   39.4799   -6.8676   -8.6254 C   0  0  1  0  0  0  0  0  0  0  0  0
   38.1833   -7.3594   -7.9882 C   0  0  0  0  0  0  0  0  0  0  0  0
   38.3687   -8.6998   -7.3924 C   0  0  0  0  0  0  0  0  0  0  0  0
   39.5047   -9.4749   -7.4412 C   0  0  0  0  0  0  0  0  0  0  0  0
   39.2393  -10.6098   -6.7746 N   0  0  0  0  0  0  0  0  0  0  0  0
   37.9728  -10.5835   -6.3031 C   0  0  0  0  0  0  0  0  0  0  0  0
   37.4629   -9.4149   -6.6898 N   0  0  0  0  0  0  0  0  0  0  0  0
   39.2918   -5.8819   -9.6754 C   0  0  0  0  0  0  0  0  0  0  0  0
   39.2757   -4.6414   -9.3717 O   0  0  0  0  0  0  0  0  0  0  0  0
   40.5483   -7.1045  -15.5727 N   0  0  0  0  0  0  0  0  0  0  0  0
   41.3908   -6.1604  -14.9461 C   0  0  0  0  0  0  0  0  0  0  0  0
   42.5429   -5.9194  -15.4409 O   0  0  0  0  0  0  0  0  0  0  0  0
   40.9120   -5.4676  -13.7307 C   0  0  0  0  0  0  0  0  0  0  0  0
   39.5507   -5.8746  -13.3083 C   0  0  0  0  0  0  0  0  0  0  0  0
   38.9721   -5.2384  -12.1042 C   0  0  2  0  0  0  0  0  0  0  0  0
   39.1253   -6.2288  -11.0203 N   0  0  0  0  0  0  0  0  0  0  0  0
   37.6458   -4.6710  -12.1448 C   0  0  0  0  0  0  0  0  0  0  0  0
   36.6406   -5.3919  -11.8568 O   0  0  0  0  0  0  0  0  0  0  0  0
   37.3976   -3.3352  -12.4848 O   0  0  0  0  0  0  0  0  0  0  0  0
  2  1  1  0
  3  4  1  0
  3  2  1  0
  4  5  1  0
  5  6  1  6
  5  1  1  0
  6  8  1  0
  7  6  2  0
  8  9  1  0
  9 10  1  1
 10 11  1  0
 11 12  2  0
 11 15  1  0
 12 13  1  0
 13 14  1  0
 15 14  2  0
 16  9  1  0
 16 17  2  0
 18 19  1  0
 19 21  1  0
 20 19  2  0
 21 22  1  0
 23 24  1  0
 23 22  1  6
 24 16  1  0
 25 23  1  0
 26 25  2  0
 27 25  1  0
M  END
$$$$
