PHQ.pdb
     RDKit          3D

 27 28  0  0  1  0  0  0  0  0999 V2000
   24.2962  -34.7725  -10.5984 N   0  0  0  0  0  0  0  0  0  0  0  0
   24.5413  -34.0643  -11.8308 C   0  0  0  0  0  0  0  0  0  0  0  0
   26.0508  -33.9433  -11.9486 C   0  0  0  0  0  0  0  0  0  0  0  0
   26.5694  -34.0391  -10.5438 C   0  0  0  0  0  0  0  0  0  0  0  0
   25.4680  -34.7074   -9.7945 C   0  0  1  0  0  0  0  0  0  0  0  0
   25.1915  -34.0431   -8.4693 C   0  0  0  0  0  0  0  0  0  0  0  0
   26.1956  -33.8396   -7.7686 O   0  0  0  0  0  0  0  0  0  0  0  0
   23.8990  -33.7056   -8.1075 N   0  0  0  0  0  0  0  0  0  0  0  0
   23.4557  -33.1572   -6.8893 C   0  0  1  0  0  0  0  0  0  0  0  0
   22.2061  -32.2976   -7.0580 C   0  0  0  0  0  0  0  0  0  0  0  0
   22.4905  -31.1221   -7.9085 C   0  0  0  0  0  0  0  0  0  0  0  0
   23.7027  -30.7766   -8.4607 C   0  0  0  0  0  0  0  0  0  0  0  0
   23.5132  -29.6441   -9.1565 N   0  0  0  0  0  0  0  0  0  0  0  0
   22.2213  -29.2568   -9.0661 C   0  0  0  0  0  0  0  0  0  0  0  0
   21.6188  -30.1685   -8.3039 N   0  0  0  0  0  0  0  0  0  0  0  0
   23.3583  -34.1502   -5.8339 C   0  0  0  0  0  0  0  0  0  0  0  0
   22.6549  -35.1988   -6.0260 O   0  0  0  0  0  0  0  0  0  0  0  0
   27.9894  -35.2529   -2.2708 N   0  0  0  0  0  0  0  0  0  0  0  0
   27.1639  -34.3758   -1.5339 C   0  0  0  0  0  0  0  0  0  0  0  0
   27.6650  -33.6970   -0.5754 O   0  0  0  0  0  0  0  0  0  0  0  0
   25.7352  -34.2612   -1.8971 C   0  0  0  0  0  0  0  0  0  0  0  0
   25.3313  -35.1429   -3.0181 C   0  0  0  0  0  0  0  0  0  0  0  0
   23.9488  -35.0308   -3.5335 C   0  0  2  0  0  0  0  0  0  0  0  0
   24.0053  -34.0129   -4.6012 N   0  0  0  0  0  0  0  0  0  0  0  0
   22.8474  -34.8135   -2.6266 C   0  0  0  0  0  0  0  0  0  0  0  0
   22.4287  -35.7677   -1.9005 O   0  0  0  0  0  0  0  0  0  0  0  0
   22.2024  -33.5777   -2.4922 O   0  0  0  0  0  0  0  0  0  0  0  0
  2  1  1  0
  3  4  1  0
  3  2  1  0
  4  5  1  0
  5  6  1  1
  5  1  1  0
  6  8  1  0
  7  6  2  0
  8  9  1  0
  9 10  1  6
 10 11  1  0
 11 12  2  0
 11 15  1  0
 12 13  1  0
 13 14  1  0
 15 14  2  0
 16  9  1  0
 16 17  2  0
 18 19  1  0
 19 21  1  0
 20 19  2  0
 21 22  1  0
 23 24  1  0
 23 22  1  1
 24 16  1  0
 25 23  1  0
 26 25  2  0
 27 25  1  0
M  END
$$$$
