PHQ.pdb
     RDKit          3D

 27 28  0  0  1  0  0  0  0  0999 V2000
   25.4770  -34.4041   -3.0982 N   0  0  0  0  0  0  0  0  0  0  0  0
   24.5592  -34.4078   -4.2108 C   0  0  0  0  0  0  0  0  0  0  0  0
   24.9338  -33.2082   -5.0640 C   0  0  0  0  0  0  0  0  0  0  0  0
   25.6210  -32.2546   -4.1312 C   0  0  0  0  0  0  0  0  0  0  0  0
   26.0637  -33.1123   -2.9957 C   0  0  1  0  0  0  0  0  0  0  0  0
   25.7781  -32.4815   -1.6562 C   0  0  0  0  0  0  0  0  0  0  0  0
   26.1552  -31.3044   -1.5432 O   0  0  0  0  0  0  0  0  0  0  0  0
   25.1413  -33.2019   -0.6607 N   0  0  0  0  0  0  0  0  0  0  0  0
   24.7395  -32.7529    0.6115 C   0  0  1  0  0  0  0  0  0  0  0  0
   23.3069  -33.1583    0.9465 C   0  0  0  0  0  0  0  0  0  0  0  0
   22.3392  -32.3060    0.2233 C   0  0  0  0  0  0  0  0  0  0  0  0
   22.6227  -31.3882   -0.7620 C   0  0  0  0  0  0  0  0  0  0  0  0
   21.4568  -30.8413   -1.1419 N   0  0  0  0  0  0  0  0  0  0  0  0
   20.4406  -31.3798   -0.4318 C   0  0  0  0  0  0  0  0  0  0  0  0
   20.9991  -32.2666    0.3910 N   0  0  0  0  0  0  0  0  0  0  0  0
   25.7071  -33.0723    1.6464 C   0  0  0  0  0  0  0  0  0  0  0  0
   26.4039  -34.1378    1.5424 O   0  0  0  0  0  0  0  0  0  0  0  0
   27.5600  -28.9150    5.8383 N   0  0  0  0  0  0  0  0  0  0  0  0
   28.6307  -29.8355    5.8525 C   0  0  0  0  0  0  0  0  0  0  0  0
   29.7133  -29.5316    6.4573 O   0  0  0  0  0  0  0  0  0  0  0  0
   28.4670  -31.1361    5.1684 C   0  0  0  0  0  0  0  0  0  0  0  0
   27.1330  -31.3217    4.5493 C   0  0  0  0  0  0  0  0  0  0  0  0
   26.8560  -32.5977    3.8533 C   0  0  2  0  0  0  0  0  0  0  0  0
   25.9164  -32.2601    2.7660 N   0  0  0  0  0  0  0  0  0  0  0  0
   26.4365  -33.7596    4.5994 C   0  0  0  0  0  0  0  0  0  0  0  0
   25.1991  -33.9838    4.7773 O   0  0  0  0  0  0  0  0  0  0  0  0
   27.3379  -34.6816    5.1460 O   0  0  0  0  0  0  0  0  0  0  0  0
  2  1  1  0
  3  4  1  0
  3  2  1  0
  4  5  1  0
  5  6  1  1
  5  1  1  0
  6  8  1  0
  7  6  2  0
  8  9  1  0
  9 10  1  1
 10 11  1  0
 11 12  2  0
 11 15  1  0
 12 13  1  0
 13 14  1  0
 15 14  2  0
 16  9  1  0
 16 17  2  0
 18 19  1  0
 19 21  1  0
 20 19  2  0
 21 22  1  0
 23 24  1  0
 23 22  1  1
 24 16  1  0
 25 23  1  0
 26 25  2  0
 27 25  1  0
M  END
$$$$
