PHQ.pdb
     RDKit          3D

 27 28  0  0  1  0  0  0  0  0999 V2000
   24.7462  -12.6844  -15.3878 N   0  0  0  0  0  0  0  0  0  0  0  0
   24.5269  -14.1056  -15.2769 C   0  0  0  0  0  0  0  0  0  0  0  0
   24.4777  -14.6320  -16.7009 C   0  0  0  0  0  0  0  0  0  0  0  0
   24.0746  -13.4592  -17.5457 C   0  0  0  0  0  0  0  0  0  0  0  0
   24.4161  -12.2741  -16.7093 C   0  0  1  0  0  0  0  0  0  0  0  0
   23.3195  -11.2390  -16.7077 C   0  0  0  0  0  0  0  0  0  0  0  0
   22.9850  -10.8322  -17.8317 O   0  0  0  0  0  0  0  0  0  0  0  0
   22.7607  -10.8077  -15.5173 N   0  0  0  0  0  0  0  0  0  0  0  0
   21.7404   -9.8554  -15.3342 C   0  0  1  0  0  0  0  0  0  0  0  0
   20.5510  -10.4175  -14.5607 C   0  0  0  0  0  0  0  0  0  0  0  0
   19.7797  -11.3598  -15.3993 C   0  0  0  0  0  0  0  0  0  0  0  0
   19.8013  -12.7340  -15.3306 C   0  0  0  0  0  0  0  0  0  0  0  0
   18.9557  -13.1913  -16.2678 N   0  0  0  0  0  0  0  0  0  0  0  0
   18.3964  -12.1548  -16.9310 C   0  0  0  0  0  0  0  0  0  0  0  0
   18.9109  -11.0525  -16.3874 N   0  0  0  0  0  0  0  0  0  0  0  0
   22.2424   -8.5928  -14.8212 C   0  0  0  0  0  0  0  0  0  0  0  0
   22.9995   -8.5934  -13.7925 O   0  0  0  0  0  0  0  0  0  0  0  0
   23.3234   -3.8768  -18.4400 N   0  0  0  0  0  0  0  0  0  0  0  0
   23.5498   -3.1978  -17.2228 C   0  0  0  0  0  0  0  0  0  0  0  0
   23.9799   -1.9957  -17.2438 O   0  0  0  0  0  0  0  0  0  0  0  0
   23.2759   -3.8980  -15.9496 C   0  0  0  0  0  0  0  0  0  0  0  0
   22.7300   -5.2649  -16.1251 C   0  0  0  0  0  0  0  0  0  0  0  0
   22.4585   -6.0708  -14.9142 C   0  0  2  0  0  0  0  0  0  0  0  0
   21.9334   -7.3599  -15.4057 N   0  0  0  0  0  0  0  0  0  0  0  0
   21.6619   -5.5281  -13.8401 C   0  0  0  0  0  0  0  0  0  0  0  0
   20.4318   -5.8308  -13.7501 O   0  0  0  0  0  0  0  0  0  0  0  0
   22.1823   -4.6713  -12.8622 O   0  0  0  0  0  0  0  0  0  0  0  0
  2  1  1  0
  3  4  1  0
  3  2  1  0
  4  5  1  0
  5  6  1  1
  5  1  1  0
  6  8  1  0
  7  6  2  0
  8  9  1  0
  9 10  1  1
 10 11  1  0
 11 12  2  0
 11 15  1  0
 12 13  1  0
 13 14  1  0
 15 14  2  0
 16  9  1  0
 16 17  2  0
 18 19  1  0
 19 21  1  0
 20 19  2  0
 21 22  1  0
 23 24  1  0
 23 22  1  6
 24 16  1  0
 25 23  1  0
 26 25  2  0
 27 25  1  0
M  END
$$$$
