PHQ.pdb
     RDKit          3D

 27 28  0  0  1  0  0  0  0  0999 V2000
   30.0744  -21.9474  -11.2748 N   0  0  0  0  0  0  0  0  0  0  0  0
   31.2447  -21.3870  -10.6449 C   0  0  0  0  0  0  0  0  0  0  0  0
   30.8215  -21.0171   -9.2337 C   0  0  0  0  0  0  0  0  0  0  0  0
   29.3354  -20.8211   -9.3016 C   0  0  0  0  0  0  0  0  0  0  0  0
   28.9265  -21.5628  -10.5278 C   0  0  1  0  0  0  0  0  0  0  0  0
   27.9551  -20.7790  -11.3740 C   0  0  0  0  0  0  0  0  0  0  0  0
   26.9456  -20.3784  -10.7731 O   0  0  0  0  0  0  0  0  0  0  0  0
   28.2145  -20.5505  -12.7141 N   0  0  0  0  0  0  0  0  0  0  0  0
   27.4340  -19.8287  -13.6367 C   0  0  1  0  0  0  0  0  0  0  0  0
   28.1596  -19.5989  -14.9594 C   0  0  0  0  0  0  0  0  0  0  0  0
   27.3875  -18.6846  -15.8277 C   0  0  0  0  0  0  0  0  0  0  0  0
   26.1427  -18.1572  -15.5712 C   0  0  0  0  0  0  0  0  0  0  0  0
   25.8169  -17.3821  -16.6179 N   0  0  0  0  0  0  0  0  0  0  0  0
   26.8122  -17.3982  -17.5324 C   0  0  0  0  0  0  0  0  0  0  0  0
   27.7555  -18.1951  -17.0321 N   0  0  0  0  0  0  0  0  0  0  0  0
   26.0943  -20.3715  -13.7781 C   0  0  0  0  0  0  0  0  0  0  0  0
   25.9470  -21.5723  -14.1880 O   0  0  0  0  0  0  0  0  0  0  0  0
   22.8154  -20.4189   -9.2217 N   0  0  0  0  0  0  0  0  0  0  0  0
   21.7357  -20.7611  -10.0650 C   0  0  0  0  0  0  0  0  0  0  0  0
   20.6144  -21.0886   -9.5496 O   0  0  0  0  0  0  0  0  0  0  0  0
   21.9312  -20.7251  -11.5302 C   0  0  0  0  0  0  0  0  0  0  0  0
   23.2785  -20.2641  -11.9420 C   0  0  0  0  0  0  0  0  0  0  0  0
   23.5957  -20.2316  -13.3869 C   0  0  2  0  0  0  0  0  0  0  0  0
   24.9423  -19.6345  -13.4836 N   0  0  0  0  0  0  0  0  0  0  0  0
   22.6678  -19.6462  -14.3245 C   0  0  0  0  0  0  0  0  0  0  0  0
   22.8285  -18.4459  -14.7072 O   0  0  0  0  0  0  0  0  0  0  0  0
   21.5772  -20.3458  -14.8561 O   0  0  0  0  0  0  0  0  0  0  0  0
  2  1  1  0
  3  4  1  0
  3  2  1  0
  4  5  1  0
  5  6  1  6
  5  1  1  0
  6  8  1  0
  7  6  2  0
  8  9  1  0
  9 10  1  6
 10 11  1  0
 11 12  2  0
 11 15  1  0
 12 13  1  0
 13 14  1  0
 15 14  2  0
 16  9  1  0
 16 17  2  0
 18 19  1  0
 19 21  1  0
 20 19  2  0
 21 22  1  0
 23 24  1  0
 23 22  1  1
 24 16  1  0
 25 23  1  0
 26 25  2  0
 27 25  1  0
M  END
$$$$
