PHQ.pdb
     RDKit          3D

 27 28  0  0  1  0  0  0  0  0999 V2000
   23.7148  -10.8452  -16.3126 N   0  0  0  0  0  0  0  0  0  0  0  0
   23.6161  -12.2645  -16.0755 C   0  0  0  0  0  0  0  0  0  0  0  0
   22.9869  -12.8531  -17.3265 C   0  0  0  0  0  0  0  0  0  0  0  0
   22.2202  -11.7267  -17.9550 C   0  0  0  0  0  0  0  0  0  0  0  0
   22.8402  -10.4996  -17.3800 C   0  0  1  0  0  0  0  0  0  0  0  0
   21.8104   -9.4881  -16.9438 C   0  0  0  0  0  0  0  0  0  0  0  0
   21.0339   -9.1159  -17.8377 O   0  0  0  0  0  0  0  0  0  0  0  0
   21.7748   -9.0399  -15.6348 N   0  0  0  0  0  0  0  0  0  0  0  0
   20.8878   -8.1092  -15.0618 C   0  0  1  0  0  0  0  0  0  0  0  0
   20.1270   -8.6863  -13.8714 C   0  0  0  0  0  0  0  0  0  0  0  0
   19.0839   -9.6308  -14.3253 C   0  0  0  0  0  0  0  0  0  0  0  0
   18.1207   -9.4003  -15.2807 C   0  0  0  0  0  0  0  0  0  0  0  0
   17.3855  -10.5192  -15.3808 N   0  0  0  0  0  0  0  0  0  0  0  0
   17.8480  -11.4545  -14.5215 C   0  0  0  0  0  0  0  0  0  0  0  0
   18.8792  -10.8937  -13.8910 N   0  0  0  0  0  0  0  0  0  0  0  0
   21.5175   -6.8265  -14.8018 C   0  0  0  0  0  0  0  0  0  0  0  0
   22.6426   -6.7941  -14.1979 O   0  0  0  0  0  0  0  0  0  0  0  0
   20.0110   -1.8855  -18.0965 N   0  0  0  0  0  0  0  0  0  0  0  0
   20.9627   -1.2616  -17.2604 C   0  0  0  0  0  0  0  0  0  0  0  0
   21.2683   -0.0379  -17.4593 O   0  0  0  0  0  0  0  0  0  0  0  0
   21.5788   -2.0438  -16.1673 C   0  0  0  0  0  0  0  0  0  0  0  0
   21.1360   -3.4576  -16.1214 C   0  0  0  0  0  0  0  0  0  0  0  0
   21.6095   -4.3033  -15.0033 C   0  0  2  0  0  0  0  0  0  0  0  0
   20.9451   -5.6089  -15.1850 N   0  0  0  0  0  0  0  0  0  0  0  0
   21.5239   -3.8291  -13.6429 C   0  0  0  0  0  0  0  0  0  0  0  0
   22.4142   -3.0450  -13.1896 O   0  0  0  0  0  0  0  0  0  0  0  0
   20.4852   -4.1869  -12.7744 O   0  0  0  0  0  0  0  0  0  0  0  0
  2  1  1  0
  3  4  1  0
  3  2  1  0
  4  5  1  0
  5  6  1  1
  5  1  1  0
  6  8  1  0
  7  6  2  0
  8  9  1  0
  9 10  1  1
 10 11  1  0
 11 12  2  0
 11 15  1  0
 12 13  1  0
 13 14  1  0
 15 14  2  0
 16  9  1  0
 16 17  2  0
 18 19  1  0
 19 21  1  0
 20 19  2  0
 21 22  1  0
 23 24  1  0
 23 22  1  6
 24 16  1  0
 25 23  1  0
 26 25  2  0
 27 25  1  0
M  END
$$$$
