PHQ.pdb
     RDKit          3D

 27 28  0  0  1  0  0  0  0  0999 V2000
   26.6946  -21.3165  -15.8839 N   0  0  0  0  0  0  0  0  0  0  0  0
   27.8546  -21.2595  -16.7393 C   0  0  0  0  0  0  0  0  0  0  0  0
   28.8888  -20.4418  -15.9849 C   0  0  0  0  0  0  0  0  0  0  0  0
   28.1040  -19.5830  -15.0371 C   0  0  0  0  0  0  0  0  0  0  0  0
   26.7947  -20.2835  -14.9110 C   0  0  1  0  0  0  0  0  0  0  0  0
   25.6265  -19.3335  -14.9931 C   0  0  0  0  0  0  0  0  0  0  0  0
   25.5808  -18.4841  -14.0892 O   0  0  0  0  0  0  0  0  0  0  0  0
   24.7026  -19.4413  -16.0179 N   0  0  0  0  0  0  0  0  0  0  0  0
   23.5463  -18.6663  -16.2267 C   0  0  1  0  0  0  0  0  0  0  0  0
   23.4273  -18.1738  -17.6662 C   0  0  0  0  0  0  0  0  0  0  0  0
   22.2806  -17.2516  -17.8105 C   0  0  0  0  0  0  0  0  0  0  0  0
   21.3775  -16.8981  -16.8342 C   0  0  0  0  0  0  0  0  0  0  0  0
   20.5054  -16.0430  -17.3916 N   0  0  0  0  0  0  0  0  0  0  0  0
   20.8225  -15.8400  -18.6898 C   0  0  0  0  0  0  0  0  0  0  0  0
   21.9034  -16.5834  -18.9227 N   0  0  0  0  0  0  0  0  0  0  0  0
   22.3471  -19.3057  -15.7143 C   0  0  0  0  0  0  0  0  0  0  0  0
   22.1859  -20.5609  -15.8876 O   0  0  0  0  0  0  0  0  0  0  0  0
   21.8764  -19.8211  -10.4043 N   0  0  0  0  0  0  0  0  0  0  0  0
   20.5362  -20.2320  -10.5742 C   0  0  0  0  0  0  0  0  0  0  0  0
   19.8914  -20.7022   -9.5775 O   0  0  0  0  0  0  0  0  0  0  0  0
   19.9096  -20.1005  -11.9070 C   0  0  0  0  0  0  0  0  0  0  0  0
   20.8182  -19.5543  -12.9430 C   0  0  0  0  0  0  0  0  0  0  0  0
   20.2587  -19.2633  -14.2816 C   0  0  2  0  0  0  0  0  0  0  0  0
   21.3469  -18.6055  -15.0314 N   0  0  0  0  0  0  0  0  0  0  0  0
   19.0029  -18.5642  -14.4112 C   0  0  0  0  0  0  0  0  0  0  0  0
   17.9974  -19.1580  -14.9106 O   0  0  0  0  0  0  0  0  0  0  0  0
   18.8226  -17.2374  -14.0006 O   0  0  0  0  0  0  0  0  0  0  0  0
  2  1  1  0
  3  4  1  0
  3  2  1  0
  4  5  1  0
  5  6  1  6
  5  1  1  0
  6  8  1  0
  7  6  2  0
  8  9  1  0
  9 10  1  6
 10 11  1  0
 11 12  2  0
 11 15  1  0
 12 13  1  0
 13 14  1  0
 15 14  2  0
 16  9  1  0
 16 17  2  0
 18 19  1  0
 19 21  1  0
 20 19  2  0
 21 22  1  0
 23 24  1  0
 23 22  1  1
 24 16  1  0
 25 23  1  0
 26 25  2  0
 27 25  1  0
M  END
$$$$
