ERL.pdb
     RDKit          3D

 29 28  0  0  1  0  0  0  0  0999 V2000
   27.9181  -21.5086  -18.7030 N   0  0  0  0  0  0  0  0  0  0  0  0
   27.3768  -20.6042  -17.7229 C   0  0  1  0  0  0  0  0  0  0  0  0
   27.1413  -19.2338  -18.2652 C   0  0  0  0  0  0  0  0  0  0  0  0
   25.9164  -19.1548  -19.1493 C   0  0  0  0  0  0  0  0  0  0  0  0
   25.8006  -17.7510  -19.6550 C   0  0  0  0  0  0  0  0  0  0  0  0
   26.7957  -17.0932  -20.0525 O   0  0  0  0  0  0  0  0  0  0  0  0
   26.2065  -21.2003  -17.0568 C   0  0  0  0  0  0  0  0  0  0  0  0
   25.5031  -22.1108  -17.5617 O   0  0  0  0  0  0  0  0  0  0  0  0
   24.5649  -17.0993  -19.7089 O   0  0  0  0  0  0  0  0  0  0  0  0
   26.2762  -19.9311   -9.1854 N   0  0  0  0  0  0  0  0  0  0  0  0
   25.2117  -20.7534   -9.6179 C   0  0  0  0  0  0  0  0  0  0  0  0
   24.0930  -20.8203   -8.9820 N   0  0  0  0  0  0  0  0  0  0  0  0
   25.3457  -21.5524  -10.7979 N   0  0  0  0  0  0  0  0  0  0  0  0
   26.5059  -21.3723  -11.6446 C   0  0  0  0  0  0  0  0  0  0  0  0
   26.1218  -20.8900  -13.0232 C   0  0  0  0  0  0  0  0  0  0  0  0
   25.2951  -21.8904  -13.7585 C   0  0  0  0  0  0  0  0  0  0  0  0
   24.7388  -21.3864  -15.0632 C   0  0  2  0  0  0  0  0  0  0  0  0
   25.8281  -20.7378  -15.7681 N   0  0  0  0  0  0  0  0  0  0  0  0
   23.6426  -20.4034  -14.8579 C   0  0  0  0  0  0  0  0  0  0  0  0
   23.8738  -19.1988  -14.5878 O   0  0  0  0  0  0  0  0  0  0  0  0
   23.3088  -21.3906   -9.3061 C   0  0  0  0  0  0  0  0  0  0  0  0
   20.0091  -18.5979  -18.1749 C   0  0  2  0  0  0  0  0  0  0  0  0
   21.0009  -18.5639  -16.9720 C   0  0  0  0  0  0  0  0  0  0  0  0
   20.8654  -17.1661  -16.4050 C   0  0  0  0  0  0  0  0  0  0  0  0
   20.5619  -19.6465  -16.0759 C   0  0  2  0  0  0  0  0  0  0  0  0
   21.1653  -19.8493  -14.7462 N   0  0  0  0  0  0  0  0  0  0  0  0
   22.2862  -20.8072  -14.9635 C   0  0  0  0  0  0  0  0  0  0  0  0
   20.3012  -20.3788  -13.6943 O   0  0  0  0  0  0  0  0  0  0  0  0
   20.2892  -21.6444  -13.5206 O   0  0  0  0  0  0  0  0  0  0  0  0
  2  1  1  6
  2  7  1  0
  2  3  1  0
  3  4  1  0
  4  5  1  0
  5  6  2  0
  7  8  2  0
  9  5  1  0
 11 13  1  0
 11 10  1  0
 12 11  2  0
 14 15  1  0
 14 13  1  0
 17 16  1  1
 16 15  1  0
 18 17  1  0
 18  7  1  0
 19 20  2  0
 19 17  1  0
 22 21  1  6
 22 24  1  0
 23 22  1  0
 25 24  1  6
 25 27  1  0
 25 26  1  0
 26 19  1  0
 27 29  1  0
 28 27  2  0
M  END
$$$$
