ERL.pdb
     RDKit          3D

 29 28  0  0  1  0  0  0  0  0999 V2000
   28.2441  -21.2165  -14.9609 N   0  0  0  0  0  0  0  0  0  0  0  0
   28.4405  -19.8963  -14.4222 C   0  0  1  0  0  0  0  0  0  0  0  0
   28.5405  -18.8473  -15.4792 C   0  0  0  0  0  0  0  0  0  0  0  0
   28.2564  -19.3816  -16.8655 C   0  0  0  0  0  0  0  0  0  0  0  0
   27.8680  -18.2275  -17.7356 C   0  0  0  0  0  0  0  0  0  0  0  0
   26.7546  -18.1657  -18.3166 O   0  0  0  0  0  0  0  0  0  0  0  0
   27.4439  -19.6085  -13.3770 C   0  0  0  0  0  0  0  0  0  0  0  0
   27.3315  -18.4951  -12.8058 O   0  0  0  0  0  0  0  0  0  0  0  0
   28.7368  -17.1522  -17.9443 O   0  0  0  0  0  0  0  0  0  0  0  0
   20.4323  -19.7188  -14.0541 N   0  0  0  0  0  0  0  0  0  0  0  0
   19.9676  -19.7777  -12.7210 C   0  0  0  0  0  0  0  0  0  0  0  0
   18.9433  -19.1066  -12.3202 N   0  0  0  0  0  0  0  0  0  0  0  0
   20.6327  -20.6004  -11.7568 N   0  0  0  0  0  0  0  0  0  0  0  0
   21.8052  -21.3492  -12.1564 C   0  0  0  0  0  0  0  0  0  0  0  0
   23.0706  -20.7491  -11.5911 C   0  0  0  0  0  0  0  0  0  0  0  0
   24.2219  -20.8777  -12.5306 C   0  0  0  0  0  0  0  0  0  0  0  0
   25.5185  -20.3372  -11.9896 C   0  0  2  0  0  0  0  0  0  0  0  0
   26.5448  -20.6308  -12.9716 N   0  0  0  0  0  0  0  0  0  0  0  0
   25.8898  -20.9719  -10.6976 C   0  0  0  0  0  0  0  0  0  0  0  0
   26.2456  -22.1744  -10.6274 O   0  0  0  0  0  0  0  0  0  0  0  0
   18.5631  -19.1945  -11.3752 C   0  0  0  0  0  0  0  0  0  0  0  0
   28.5059  -18.3515   -6.5576 C   0  0  2  0  0  0  0  0  0  0  0  0
   28.1947  -19.4814   -7.5864 C   0  0  0  0  0  0  0  0  0  0  0  0
   29.1887  -20.5771   -7.2621 C   0  0  0  0  0  0  0  0  0  0  0  0
   26.7827  -19.8328   -7.3621 C   0  0  2  0  0  0  0  0  0  0  0  0
   26.0988  -20.8607   -8.1677 N   0  0  0  0  0  0  0  0  0  0  0  0
   25.8512  -20.2239   -9.4922 C   0  0  0  0  0  0  0  0  0  0  0  0
   24.8307  -21.3752   -7.6571 O   0  0  0  0  0  0  0  0  0  0  0  0
   23.7557  -20.9033   -8.1608 O   0  0  0  0  0  0  0  0  0  0  0  0
  2  1  1  6
  2  7  1  0
  2  3  1  0
  3  4  1  0
  4  5  1  0
  5  6  2  0
  7  8  2  0
  9  5  1  0
 11 13  1  0
 11 10  1  0
 12 11  2  0
 14 15  1  0
 14 13  1  0
 17 16  1  6
 16 15  1  0
 18 17  1  0
 18  7  1  0
 19 20  2  0
 19 17  1  0
 22 21  1  6
 22 24  1  0
 23 22  1  0
 25 24  1  6
 25 27  1  0
 25 26  1  0
 26 19  1  0
 27 29  1  0
 28 27  2  0
M  END
$$$$
