ERL.pdb
     RDKit          3D

 29 28  0  0  1  0  0  0  0  0999 V2000
   28.8922  -11.7259  -17.1851 N   0  0  0  0  0  0  0  0  0  0  0  0
   29.4066  -10.9111  -18.2543 C   0  0  1  0  0  0  0  0  0  0  0  0
   28.3963  -10.6477  -19.3209 C   0  0  0  0  0  0  0  0  0  0  0  0
   27.8169  -11.9162  -19.9069 C   0  0  0  0  0  0  0  0  0  0  0  0
   26.7923  -11.5288  -20.9266 C   0  0  0  0  0  0  0  0  0  0  0  0
   25.6292  -11.1699  -20.6113 O   0  0  0  0  0  0  0  0  0  0  0  0
   30.0515   -9.6998  -17.7199 C   0  0  0  0  0  0  0  0  0  0  0  0
   29.6474   -9.0835  -16.7024 O   0  0  0  0  0  0  0  0  0  0  0  0
   27.0859  -11.5486  -22.2934 O   0  0  0  0  0  0  0  0  0  0  0  0
   38.0962  -10.0667  -16.9741 N   0  0  0  0  0  0  0  0  0  0  0  0
   37.1641  -10.9161  -16.3366 C   0  0  0  0  0  0  0  0  0  0  0  0
   37.5282  -11.9470  -15.6548 N   0  0  0  0  0  0  0  0  0  0  0  0
   35.7603  -10.6524  -16.4304 N   0  0  0  0  0  0  0  0  0  0  0  0
   35.3091   -9.4726  -17.1372 C   0  0  0  0  0  0  0  0  0  0  0  0
   33.8051   -9.3403  -17.1002 C   0  0  0  0  0  0  0  0  0  0  0  0
   33.3208   -8.1997  -17.9305 C   0  0  0  0  0  0  0  0  0  0  0  0
   31.8337   -7.9772  -17.8592 C   0  0  2  0  0  0  0  0  0  0  0  0
   31.1989   -9.1758  -18.3732 N   0  0  0  0  0  0  0  0  0  0  0  0
   31.4054   -6.8135  -18.6792 C   0  0  0  0  0  0  0  0  0  0  0  0
   31.2973   -6.8863  -19.9285 O   0  0  0  0  0  0  0  0  0  0  0  0
   36.8619  -12.5392  -15.1542 C   0  0  0  0  0  0  0  0  0  0  0  0
   27.8819   -2.7782  -18.8012 C   0  0  2  0  0  0  0  0  0  0  0  0
   29.2316   -2.2998  -18.1837 C   0  0  0  0  0  0  0  0  0  0  0  0
   28.8279   -1.4178  -17.0207 C   0  0  0  0  0  0  0  0  0  0  0  0
   29.9478   -3.5318  -17.8139 C   0  0  1  0  0  0  0  0  0  0  0  0
   30.5099   -4.4403  -18.8297 N   0  0  0  0  0  0  0  0  0  0  0  0
   31.1031   -5.5719  -18.0622 C   0  0  0  0  0  0  0  0  0  0  0  0
   31.5337   -3.8969  -19.7187 O   0  0  0  0  0  0  0  0  0  0  0  0
   32.7332   -3.8527  -19.2813 O   0  0  0  0  0  0  0  0  0  0  0  0
  2  1  1  1
  2  7  1  0
  2  3  1  0
  3  4  1  0
  4  5  1  0
  5  6  2  0
  7  8  2  0
  9  5  1  0
 11 13  1  0
 11 10  1  0
 12 11  2  0
 14 15  1  0
 14 13  1  0
 17 16  1  6
 16 15  1  0
 18 17  1  0
 18  7  1  0
 19 20  2  0
 19 17  1  0
 22 21  1  6
 22 24  1  0
 23 22  1  0
 25 24  1  6
 25 27  1  0
 25 26  1  0
 26 19  1  0
 27 29  1  0
 28 27  2  0
M  END
$$$$
