ERL.pdb
     RDKit          3D

 29 28  0  0  1  0  0  0  0  0999 V2000
   27.2744  -21.0149  -14.5760 N   0  0  0  0  0  0  0  0  0  0  0  0
   27.9014  -19.9607  -13.8229 C   0  0  1  0  0  0  0  0  0  0  0  0
   28.2487  -18.7758  -14.6614 C   0  0  0  0  0  0  0  0  0  0  0  0
   28.3656  -19.1112  -16.1319 C   0  0  0  0  0  0  0  0  0  0  0  0
   27.0065  -18.9828  -16.7451 C   0  0  0  0  0  0  0  0  0  0  0  0
   26.4648  -17.8680  -16.9568 O   0  0  0  0  0  0  0  0  0  0  0  0
   27.1122  -19.6407  -12.6214 C   0  0  0  0  0  0  0  0  0  0  0  0
   27.3499  -18.6633  -11.8686 O   0  0  0  0  0  0  0  0  0  0  0  0
   26.2683  -20.1110  -17.1152 O   0  0  0  0  0  0  0  0  0  0  0  0
   21.7768  -20.7738  -15.3997 N   0  0  0  0  0  0  0  0  0  0  0  0
   21.7778  -21.9307  -14.5884 C   0  0  0  0  0  0  0  0  0  0  0  0
   21.8147  -23.1187  -15.0859 N   0  0  0  0  0  0  0  0  0  0  0  0
   21.7373  -21.8163  -13.1622 N   0  0  0  0  0  0  0  0  0  0  0  0
   21.6878  -20.5008  -12.5604 C   0  0  0  0  0  0  0  0  0  0  0  0
   23.0702  -19.9301  -12.3508 C   0  0  0  0  0  0  0  0  0  0  0  0
   23.8423  -20.6900  -11.3255 C   0  0  0  0  0  0  0  0  0  0  0  0
   25.2312  -20.1609  -11.0870 C   0  0  2  0  0  0  0  0  0  0  0  0
   26.0128  -20.4686  -12.2696 N   0  0  0  0  0  0  0  0  0  0  0  0
   25.8726  -20.7948   -9.9051 C   0  0  0  0  0  0  0  0  0  0  0  0
   26.3597  -21.9514   -9.9554 O   0  0  0  0  0  0  0  0  0  0  0  0
   21.7545  -23.9597  -14.5077 C   0  0  0  0  0  0  0  0  0  0  0  0
   29.2035  -19.0624   -5.4246 C   0  0  2  0  0  0  0  0  0  0  0  0
   28.1091  -20.1624   -5.5796 C   0  0  0  0  0  0  0  0  0  0  0  0
   27.2137  -19.9830   -4.3714 C   0  0  0  0  0  0  0  0  0  0  0  0
   27.4683  -19.8926   -6.8774 C   0  0  1  0  0  0  0  0  0  0  0  0
   26.4156  -20.7686   -7.4230 N   0  0  0  0  0  0  0  0  0  0  0  0
   25.9523  -20.0986   -8.6711 C   0  0  0  0  0  0  0  0  0  0  0  0
   25.2534  -21.0239   -6.5758 O   0  0  0  0  0  0  0  0  0  0  0  0
   24.2178  -20.2987   -6.7590 O   0  0  0  0  0  0  0  0  0  0  0  0
  2  1  1  6
  2  7  1  0
  2  3  1  0
  3  4  1  0
  4  5  1  0
  5  6  2  0
  7  8  2  0
  9  5  1  0
 11 13  1  0
 11 10  1  0
 12 11  2  0
 14 15  1  0
 14 13  1  0
 17 16  1  6
 16 15  1  0
 18 17  1  0
 18  7  1  0
 19 20  2  0
 19 17  1  0
 22 21  1  1
 22 24  1  0
 23 22  1  0
 25 24  1  6
 25 27  1  0
 25 26  1  0
 26 19  1  0
 27 29  1  0
 28 27  2  0
M  END
$$$$
