ERL.pdb
     RDKit          3D

 29 28  0  0  1  0  0  0  0  0999 V2000
   29.6614  -11.8942  -18.4834 N   0  0  0  0  0  0  0  0  0  0  0  0
   31.0681  -12.1812  -18.5853 C   0  0  1  0  0  0  0  0  0  0  0  0
   31.4124  -12.9716  -19.8036 C   0  0  0  0  0  0  0  0  0  0  0  0
   30.6207  -14.2559  -19.9134 C   0  0  0  0  0  0  0  0  0  0  0  0
   31.0125  -14.9333  -21.1891 C   0  0  0  0  0  0  0  0  0  0  0  0
   31.5580  -14.3171  -22.1398 O   0  0  0  0  0  0  0  0  0  0  0  0
   31.8622  -10.9524  -18.4173 C   0  0  0  0  0  0  0  0  0  0  0  0
   33.1183  -10.9259  -18.4199 O   0  0  0  0  0  0  0  0  0  0  0  0
   30.7868  -16.2992  -21.3838 O   0  0  0  0  0  0  0  0  0  0  0  0
   27.9051   -4.0638  -20.8712 N   0  0  0  0  0  0  0  0  0  0  0  0
   27.5871   -5.2493  -20.1711 C   0  0  0  0  0  0  0  0  0  0  0  0
   26.3836   -5.5302  -19.8066 N   0  0  0  0  0  0  0  0  0  0  0  0
   28.6115   -6.1923  -19.8391 N   0  0  0  0  0  0  0  0  0  0  0  0
   29.9867   -5.8877  -20.1726 C   0  0  0  0  0  0  0  0  0  0  0  0
   30.8990   -7.0617  -19.9077 C   0  0  0  0  0  0  0  0  0  0  0  0
   31.0373   -7.3483  -18.4504 C   0  0  0  0  0  0  0  0  0  0  0  0
   31.9684   -8.4882  -18.1351 C   0  0  2  0  0  0  0  0  0  0  0  0
   31.1950   -9.7109  -18.2401 N   0  0  0  0  0  0  0  0  0  0  0  0
   32.5274   -8.3862  -16.7614 C   0  0  0  0  0  0  0  0  0  0  0  0
   31.8018   -8.4849  -15.7409 O   0  0  0  0  0  0  0  0  0  0  0  0
   26.1358   -6.4173  -19.3628 C   0  0  0  0  0  0  0  0  0  0  0  0
   36.1166  -11.1279  -13.6342 C   0  0  2  0  0  0  0  0  0  0  0  0
   35.7366   -9.6159  -13.5941 C   0  0  0  0  0  0  0  0  0  0  0  0
   37.0537   -8.8966  -13.3905 C   0  0  0  0  0  0  0  0  0  0  0  0
   35.0712   -9.3485  -14.8800 C   0  0  1  0  0  0  0  0  0  0  0  0
   34.5009   -8.0276  -15.2015 N   0  0  0  0  0  0  0  0  0  0  0  0
   33.9164   -8.1715  -16.5649 C   0  0  0  0  0  0  0  0  0  0  0  0
   35.4155   -6.8887  -15.2078 O   0  0  0  0  0  0  0  0  0  0  0  0
   35.9636   -6.5770  -16.3188 O   0  0  0  0  0  0  0  0  0  0  0  0
  2  1  1  6
  2  7  1  0
  2  3  1  0
  3  4  1  0
  4  5  1  0
  5  6  2  0
  7  8  2  0
  9  5  1  0
 11 13  1  0
 11 10  1  0
 12 11  2  0
 14 15  1  0
 14 13  1  0
 17 16  1  1
 16 15  1  0
 18 17  1  0
 18  7  1  0
 19 20  2  0
 19 17  1  0
 22 21  1  1
 22 24  1  0
 23 22  1  0
 25 24  1  1
 25 27  1  0
 25 26  1  0
 26 19  1  0
 27 29  1  0
 28 27  2  0
M  END
$$$$
