ERL.pdb
     RDKit          3D

 29 28  0  0  1  0  0  0  0  0999 V2000
   28.8010  -23.3608  -17.5753 N   0  0  0  0  0  0  0  0  0  0  0  0
   27.8162  -22.3400  -17.3307 C   0  0  1  0  0  0  0  0  0  0  0  0
   26.4181  -22.8228  -17.5300 C   0  0  0  0  0  0  0  0  0  0  0  0
   26.1653  -24.1700  -16.8900 C   0  0  0  0  0  0  0  0  0  0  0  0
   25.1800  -23.9774  -15.7802 C   0  0  0  0  0  0  0  0  0  0  0  0
   25.5130  -24.0166  -14.5684 O   0  0  0  0  0  0  0  0  0  0  0  0
   28.0525  -21.6919  -16.0297 C   0  0  0  0  0  0  0  0  0  0  0  0
   28.9231  -22.0715  -15.2072 O   0  0  0  0  0  0  0  0  0  0  0  0
   23.8273  -23.7421  -16.0442 O   0  0  0  0  0  0  0  0  0  0  0  0
   24.4604  -17.8366  -17.8085 N   0  0  0  0  0  0  0  0  0  0  0  0
   23.6400  -17.0755  -16.9458 C   0  0  0  0  0  0  0  0  0  0  0  0
   22.3884  -16.8812  -17.1821 N   0  0  0  0  0  0  0  0  0  0  0  0
   24.1843  -16.4862  -15.7603 N   0  0  0  0  0  0  0  0  0  0  0  0
   25.5694  -16.7338  -15.4206 C   0  0  0  0  0  0  0  0  0  0  0  0
   25.8021  -18.1770  -15.0414 C   0  0  0  0  0  0  0  0  0  0  0  0
   27.2125  -18.4286  -14.6265 C   0  0  0  0  0  0  0  0  0  0  0  0
   27.5381  -19.8823  -14.4098 C   0  0  2  0  0  0  0  0  0  0  0  0
   27.2645  -20.5702  -15.6572 N   0  0  0  0  0  0  0  0  0  0  0  0
   26.7076  -20.4840  -13.3336 C   0  0  0  0  0  0  0  0  0  0  0  0
   25.6913  -21.1764  -13.5887 O   0  0  0  0  0  0  0  0  0  0  0  0
   21.7793  -16.3715  -16.5383 C   0  0  0  0  0  0  0  0  0  0  0  0
   27.5668  -20.6283   -7.3035 C   0  0  2  0  0  0  0  0  0  0  0  0
   26.4265  -20.9661   -8.3123 C   0  0  0  0  0  0  0  0  0  0  0  0
   25.2605  -20.1055   -7.8724 C   0  0  0  0  0  0  0  0  0  0  0  0
   26.9747  -20.6437   -9.6401 C   0  0  1  0  0  0  0  0  0  0  0  0
   26.1676  -20.7703  -10.8672 N   0  0  0  0  0  0  0  0  0  0  0  0
   27.0472  -20.2884  -11.9696 C   0  0  0  0  0  0  0  0  0  0  0  0
   24.9107  -20.0278  -10.9197 O   0  0  0  0  0  0  0  0  0  0  0  0
   24.9724  -18.7794  -11.1835 O   0  0  0  0  0  0  0  0  0  0  0  0
  2  1  1  1
  2  7  1  0
  2  3  1  0
  3  4  1  0
  4  5  1  0
  5  6  2  0
  7  8  2  0
  9  5  1  0
 11 13  1  0
 11 10  1  0
 12 11  2  0
 14 15  1  0
 14 13  1  0
 17 16  1  6
 16 15  1  0
 18 17  1  0
 18  7  1  0
 19 20  2  0
 19 17  1  0
 22 21  1  1
 22 24  1  0
 23 22  1  0
 25 24  1  6
 25 27  1  0
 25 26  1  0
 26 19  1  0
 27 29  1  0
 28 27  2  0
M  END
$$$$
