ERL.pdb
     RDKit          3D

 29 28  0  0  1  0  0  0  0  0999 V2000
   27.1750  -22.2053  -14.8723 N   0  0  0  0  0  0  0  0  0  0  0  0
   26.8367  -21.0142  -15.6061 C   0  0  1  0  0  0  0  0  0  0  0  0
   27.7707  -20.7454  -16.7387 C   0  0  0  0  0  0  0  0  0  0  0  0
   28.3551  -19.3506  -16.6995 C   0  0  0  0  0  0  0  0  0  0  0  0
   28.5890  -18.9072  -18.1096 C   0  0  0  0  0  0  0  0  0  0  0  0
   27.7848  -18.1611  -18.7240 O   0  0  0  0  0  0  0  0  0  0  0  0
   25.4137  -21.0246  -15.9853 C   0  0  0  0  0  0  0  0  0  0  0  0
   24.8592  -20.1100  -16.6445 O   0  0  0  0  0  0  0  0  0  0  0  0
   29.7268  -19.3077  -18.8164 O   0  0  0  0  0  0  0  0  0  0  0  0
   26.0617  -26.1915  -16.3467 N   0  0  0  0  0  0  0  0  0  0  0  0
   26.0773  -26.3767  -17.7475 C   0  0  0  0  0  0  0  0  0  0  0  0
   27.0782  -26.9103  -18.3588 N   0  0  0  0  0  0  0  0  0  0  0  0
   24.9608  -25.9697  -18.5453 N   0  0  0  0  0  0  0  0  0  0  0  0
   23.8005  -25.3972  -17.8962 C   0  0  0  0  0  0  0  0  0  0  0  0
   24.1142  -24.0592  -17.2699 C   0  0  0  0  0  0  0  0  0  0  0  0
   22.9153  -23.4425  -16.6320 C   0  0  0  0  0  0  0  0  0  0  0  0
   23.1906  -22.1290  -15.9501 C   0  0  2  0  0  0  0  0  0  0  0  0
   24.5973  -22.1199  -15.5961 N   0  0  0  0  0  0  0  0  0  0  0  0
   22.3802  -21.9627  -14.7150 C   0  0  0  0  0  0  0  0  0  0  0  0
   22.4859  -22.7492  -13.7414 O   0  0  0  0  0  0  0  0  0  0  0  0
   27.0971  -27.0426  -19.3725 C   0  0  0  0  0  0  0  0  0  0  0  0
   20.9232  -18.7804  -11.1599 C   0  0  2  0  0  0  0  0  0  0  0  0
   19.7744  -18.5749  -12.1943 C   0  0  0  0  0  0  0  0  0  0  0  0
   19.6538  -17.0721  -12.3373 C   0  0  0  0  0  0  0  0  0  0  0  0
   20.2128  -19.2844  -13.4077 C   0  0  2  0  0  0  0  0  0  0  0  0
   20.6308  -20.6977  -13.3749 N   0  0  0  0  0  0  0  0  0  0  0  0
   21.4523  -20.8949  -14.6027 C   0  0  0  0  0  0  0  0  0  0  0  0
   19.5745  -21.7065  -13.3577 O   0  0  0  0  0  0  0  0  0  0  0  0
   19.1031  -22.0878  -14.4822 O   0  0  0  0  0  0  0  0  0  0  0  0
  2  1  1  6
  2  7  1  0
  2  3  1  0
  3  4  1  0
  4  5  1  0
  5  6  2  0
  7  8  2  0
  9  5  1  0
 11 13  1  0
 11 10  1  0
 12 11  2  0
 14 15  1  0
 14 13  1  0
 17 16  1  1
 16 15  1  0
 18 17  1  0
 18  7  1  0
 19 20  2  0
 19 17  1  0
 22 21  1  1
 22 24  1  0
 23 22  1  0
 25 24  1  1
 25 27  1  0
 25 26  1  0
 26 19  1  0
 27 29  1  0
 28 27  2  0
M  END
$$$$
