ERL.pdb
     RDKit          3D

 29 28  0  0  1  0  0  0  0  0999 V2000
   22.3068  -32.4256   -4.4714 N   0  0  0  0  0  0  0  0  0  0  0  0
   21.3330  -32.1355   -3.4519 C   0  0  1  0  0  0  0  0  0  0  0  0
   21.6315  -32.8113   -2.1551 C   0  0  0  0  0  0  0  0  0  0  0  0
   20.5386  -32.6182   -1.1272 C   0  0  0  0  0  0  0  0  0  0  0  0
   20.9156  -33.3887    0.0992 C   0  0  0  0  0  0  0  0  0  0  0  0
   20.6521  -34.6106    0.2355 O   0  0  0  0  0  0  0  0  0  0  0  0
   21.1145  -30.6834   -3.3408 C   0  0  0  0  0  0  0  0  0  0  0  0
   22.0380  -29.8324   -3.3798 O   0  0  0  0  0  0  0  0  0  0  0  0
   21.5865  -32.7768    1.1623 O   0  0  0  0  0  0  0  0  0  0  0  0
   17.8587  -24.3898   -6.0753 N   0  0  0  0  0  0  0  0  0  0  0  0
   17.8861  -25.4551   -7.0033 C   0  0  0  0  0  0  0  0  0  0  0  0
   18.4050  -25.3314   -8.1762 N   0  0  0  0  0  0  0  0  0  0  0  0
   17.3278  -26.7283   -6.6625 N   0  0  0  0  0  0  0  0  0  0  0  0
   16.8606  -26.9556   -5.3115 C   0  0  0  0  0  0  0  0  0  0  0  0
   18.0084  -27.1161   -4.3431 C   0  0  0  0  0  0  0  0  0  0  0  0
   18.4866  -28.5269   -4.2675 C   0  0  0  0  0  0  0  0  0  0  0  0
   19.5501  -28.7591   -3.2277 C   0  0  2  0  0  0  0  0  0  0  0  0
   19.7929  -30.1884   -3.1792 N   0  0  0  0  0  0  0  0  0  0  0  0
   19.1225  -28.2954   -1.8816 C   0  0  0  0  0  0  0  0  0  0  0  0
   18.1668  -28.8316   -1.2679 O   0  0  0  0  0  0  0  0  0  0  0  0
   18.4855  -26.1150   -8.8279 C   0  0  0  0  0  0  0  0  0  0  0  0
   20.5354  -26.1009    2.9366 C   0  0  2  0  0  0  0  0  0  0  0  0
   20.3506  -25.0566    1.7933 C   0  0  0  0  0  0  0  0  0  0  0  0
   21.4605  -24.0500    2.0127 C   0  0  0  0  0  0  0  0  0  0  0  0
   20.4458  -25.8286    0.5431 C   0  0  1  0  0  0  0  0  0  0  0  0
   19.3405  -26.6807    0.0682 N   0  0  0  0  0  0  0  0  0  0  0  0
   19.7936  -27.2187   -1.2457 C   0  0  0  0  0  0  0  0  0  0  0  0
   18.0385  -26.0448   -0.1160 O   0  0  0  0  0  0  0  0  0  0  0  0
   17.8243  -25.4469   -1.2245 O   0  0  0  0  0  0  0  0  0  0  0  0
  2  1  1  6
  2  7  1  0
  2  3  1  0
  3  4  1  0
  4  5  1  0
  5  6  2  0
  7  8  2  0
  9  5  1  0
 11 13  1  0
 11 10  1  0
 12 11  2  0
 14 15  1  0
 14 13  1  0
 17 16  1  6
 16 15  1  0
 18 17  1  0
 18  7  1  0
 19 20  2  0
 19 17  1  0
 22 21  1  1
 22 24  1  0
 23 22  1  0
 25 24  1  1
 25 27  1  0
 25 26  1  0
 26 19  1  0
 27 29  1  0
 28 27  2  0
M  END
$$$$
