ERL.pdb
     RDKit          3D

 29 28  0  0  1  0  0  0  0  0999 V2000
   26.0816  -19.5720  -15.9643 N   0  0  0  0  0  0  0  0  0  0  0  0
   26.9301  -19.6225  -14.8027 C   0  0  1  0  0  0  0  0  0  0  0  0
   28.0668  -18.6578  -14.8720 C   0  0  0  0  0  0  0  0  0  0  0  0
   28.9614  -18.8895  -16.0697 C   0  0  0  0  0  0  0  0  0  0  0  0
   28.3236  -18.2379  -17.2564 C   0  0  0  0  0  0  0  0  0  0  0  0
   28.1728  -16.9925  -17.3419 O   0  0  0  0  0  0  0  0  0  0  0  0
   26.1296  -19.5262  -13.5705 C   0  0  0  0  0  0  0  0  0  0  0  0
   25.4188  -18.5334  -13.2743 O   0  0  0  0  0  0  0  0  0  0  0  0
   27.8609  -18.9941  -18.3375 O   0  0  0  0  0  0  0  0  0  0  0  0
   19.0327  -22.3651  -10.6205 N   0  0  0  0  0  0  0  0  0  0  0  0
   19.1972  -21.4992  -11.7250 C   0  0  0  0  0  0  0  0  0  0  0  0
   18.1954  -20.9673  -12.3362 N   0  0  0  0  0  0  0  0  0  0  0  0
   20.5065  -21.1802  -12.2077 N   0  0  0  0  0  0  0  0  0  0  0  0
   21.6524  -21.8614  -11.6436 C   0  0  0  0  0  0  0  0  0  0  0  0
   22.7884  -20.9062  -11.3646 C   0  0  0  0  0  0  0  0  0  0  0  0
   24.1084  -21.4688  -11.7720 C   0  0  0  0  0  0  0  0  0  0  0  0
   25.2763  -20.5640  -11.4829 C   0  0  2  0  0  0  0  0  0  0  0  0
   26.1433  -20.6038  -12.6451 N   0  0  0  0  0  0  0  0  0  0  0  0
   26.0444  -21.0108  -10.2911 C   0  0  0  0  0  0  0  0  0  0  0  0
   26.5578  -22.1551  -10.2235 O   0  0  0  0  0  0  0  0  0  0  0  0
   18.3064  -20.3689  -13.1577 C   0  0  0  0  0  0  0  0  0  0  0  0
   28.4669  -18.1698   -5.6896 C   0  0  2  0  0  0  0  0  0  0  0  0
   28.6008  -19.5940   -6.3106 C   0  0  0  0  0  0  0  0  0  0  0  0
   28.0542  -20.5260   -5.2494 C   0  0  0  0  0  0  0  0  0  0  0  0
   27.8242  -19.5472   -7.5606 C   0  0  1  0  0  0  0  0  0  0  0  0
   26.8627  -20.6053   -7.9199 N   0  0  0  0  0  0  0  0  0  0  0  0
   26.2201  -20.1425   -9.1824 C   0  0  0  0  0  0  0  0  0  0  0  0
   25.8130  -20.9111   -6.9512 O   0  0  0  0  0  0  0  0  0  0  0  0
   24.7462  -20.2096   -6.9946 O   0  0  0  0  0  0  0  0  0  0  0  0
  2  1  1  6
  2  7  1  0
  2  3  1  0
  3  4  1  0
  4  5  1  0
  5  6  2  0
  7  8  2  0
  9  5  1  0
 11 13  1  0
 11 10  1  0
 12 11  2  0
 14 15  1  0
 14 13  1  0
 17 16  1  6
 16 15  1  0
 18 17  1  0
 18  7  1  0
 19 20  2  0
 19 17  1  0
 22 21  1  1
 22 24  1  0
 23 22  1  0
 25 24  1  6
 25 27  1  0
 25 26  1  0
 26 19  1  0
 27 29  1  0
 28 27  2  0
M  END
$$$$
