ERL.pdb
     RDKit          3D

 29 28  0  0  1  0  0  0  0  0999 V2000
   20.7834  -11.8200  -17.0632 N   0  0  0  0  0  0  0  0  0  0  0  0
   20.9180  -10.6119  -17.8339 C   0  0  1  0  0  0  0  0  0  0  0  0
   21.0057  -10.8668  -19.3019 C   0  0  0  0  0  0  0  0  0  0  0  0
   22.3263  -11.4788  -19.7137 C   0  0  0  0  0  0  0  0  0  0  0  0
   23.2066  -10.3805  -20.2223 C   0  0  0  0  0  0  0  0  0  0  0  0
   22.8377   -9.5822  -21.1210 O   0  0  0  0  0  0  0  0  0  0  0  0
   19.8860   -9.6339  -17.4506 C   0  0  0  0  0  0  0  0  0  0  0  0
   19.8557   -8.4493  -17.8684 O   0  0  0  0  0  0  0  0  0  0  0  0
   24.4953  -10.1901  -19.7146 O   0  0  0  0  0  0  0  0  0  0  0  0
   11.8348  -11.0566  -14.0833 N   0  0  0  0  0  0  0  0  0  0  0  0
   11.9264   -9.6488  -14.1631 C   0  0  0  0  0  0  0  0  0  0  0  0
   10.9145   -8.8810  -13.9469 N   0  0  0  0  0  0  0  0  0  0  0  0
   13.1696   -9.0205  -14.4926 N   0  0  0  0  0  0  0  0  0  0  0  0
   14.3079   -9.8454  -14.8379 C   0  0  0  0  0  0  0  0  0  0  0  0
   15.4993   -9.0111  -15.2446 C   0  0  0  0  0  0  0  0  0  0  0  0
   16.6612   -9.8524  -15.6533 C   0  0  0  0  0  0  0  0  0  0  0  0
   17.8359   -9.0662  -16.1707 C   0  0  2  0  0  0  0  0  0  0  0  0
   18.8528  -10.0254  -16.5579 N   0  0  0  0  0  0  0  0  0  0  0  0
   18.3969   -8.1582  -15.1358 C   0  0  0  0  0  0  0  0  0  0  0  0
   18.8853   -8.5952  -14.0643 O   0  0  0  0  0  0  0  0  0  0  0  0
   10.9752   -7.8619  -14.0014 C   0  0  0  0  0  0  0  0  0  0  0  0
   22.9790   -6.1409  -14.4498 C   0  0  2  0  0  0  0  0  0  0  0  0
   21.6720   -5.3771  -14.0752 C   0  0  0  0  0  0  0  0  0  0  0  0
   21.8859   -3.9735  -14.6023 C   0  0  0  0  0  0  0  0  0  0  0  0
   20.5839   -6.1283  -14.7229 C   0  0  1  0  0  0  0  0  0  0  0  0
   19.1654   -5.8358  -14.4486 N   0  0  0  0  0  0  0  0  0  0  0  0
   18.3947   -6.7532  -15.3351 C   0  0  0  0  0  0  0  0  0  0  0  0
   18.7070   -4.4694  -14.6859 O   0  0  0  0  0  0  0  0  0  0  0  0
   18.9585   -3.5971  -13.7871 O   0  0  0  0  0  0  0  0  0  0  0  0
  2  1  1  1
  2  7  1  0
  2  3  1  0
  3  4  1  0
  4  5  1  0
  5  6  2  0
  7  8  2  0
  9  5  1  0
 11 13  1  0
 11 10  1  0
 12 11  2  0
 14 15  1  0
 14 13  1  0
 17 16  1  1
 16 15  1  0
 18 17  1  0
 18  7  1  0
 19 20  2  0
 19 17  1  0
 22 21  1  1
 22 24  1  0
 23 22  1  0
 25 24  1  1
 25 27  1  0
 25 26  1  0
 26 19  1  0
 27 29  1  0
 28 27  2  0
M  END
$$$$
