ERL.pdb
     RDKit          3D

 29 28  0  0  1  0  0  0  0  0999 V2000
   16.4392  -25.5053   -4.7711 N   0  0  0  0  0  0  0  0  0  0  0  0
   16.5329  -26.4998   -3.7347 C   0  0  1  0  0  0  0  0  0  0  0  0
   17.8240  -27.2481   -3.7635 C   0  0  0  0  0  0  0  0  0  0  0  0
   17.6326  -28.7461   -3.8502 C   0  0  0  0  0  0  0  0  0  0  0  0
   17.8813  -29.1631   -5.2658 C   0  0  0  0  0  0  0  0  0  0  0  0
   18.3116  -28.3661   -6.1379 O   0  0  0  0  0  0  0  0  0  0  0  0
   16.2013  -25.9164   -2.4239 C   0  0  0  0  0  0  0  0  0  0  0  0
   16.5299  -24.7560   -2.0717 O   0  0  0  0  0  0  0  0  0  0  0  0
   17.6435  -30.4746   -5.6879 O   0  0  0  0  0  0  0  0  0  0  0  0
    8.6622  -26.7325    1.0772 N   0  0  0  0  0  0  0  0  0  0  0  0
    8.9611  -25.5232    0.4102 C   0  0  0  0  0  0  0  0  0  0  0  0
    8.0463  -24.6825    0.0689 N   0  0  0  0  0  0  0  0  0  0  0  0
   10.3148  -25.1886    0.0873 N   0  0  0  0  0  0  0  0  0  0  0  0
   11.3727  -26.1141    0.4331 C   0  0  0  0  0  0  0  0  0  0  0  0
   12.7246  -25.6085   -0.0115 C   0  0  0  0  0  0  0  0  0  0  0  0
   13.8021  -26.6157    0.2107 C   0  0  0  0  0  0  0  0  0  0  0  0
   15.1769  -26.1380   -0.1734 C   0  0  2  0  0  0  0  0  0  0  0  0
   15.4681  -26.6884   -1.4835 N   0  0  0  0  0  0  0  0  0  0  0  0
   16.2144  -26.5993    0.7862 C   0  0  0  0  0  0  0  0  0  0  0  0
   16.7016  -27.7557    0.7312 O   0  0  0  0  0  0  0  0  0  0  0  0
    8.2549  -23.8133   -0.4273 C   0  0  0  0  0  0  0  0  0  0  0  0
   20.8731  -26.0905    3.1308 C   0  0  2  0  0  0  0  0  0  0  0  0
   19.8452  -25.1070    3.7695 C   0  0  0  0  0  0  0  0  0  0  0  0
   20.5979  -23.7993    3.8990 C   0  0  0  0  0  0  0  0  0  0  0  0
   18.7035  -25.0810    2.8401 C   0  0  1  0  0  0  0  0  0  0  0  0
   17.7127  -26.1715    2.7934 N   0  0  0  0  0  0  0  0  0  0  0  0
   16.6881  -25.7317    1.8044 C   0  0  0  0  0  0  0  0  0  0  0  0
   17.0349  -26.5123    4.0416 O   0  0  0  0  0  0  0  0  0  0  0  0
   16.0383  -25.7923    4.3887 O   0  0  0  0  0  0  0  0  0  0  0  0
  2  1  1  6
  2  7  1  0
  2  3  1  0
  3  4  1  0
  4  5  1  0
  5  6  2  0
  7  8  2  0
  9  5  1  0
 11 13  1  0
 11 10  1  0
 12 11  2  0
 14 15  1  0
 14 13  1  0
 17 16  1  1
 16 15  1  0
 18 17  1  0
 18  7  1  0
 19 20  2  0
 19 17  1  0
 22 21  1  1
 22 24  1  0
 23 22  1  0
 25 24  1  6
 25 27  1  0
 25 26  1  0
 26 19  1  0
 27 29  1  0
 28 27  2  0
M  END
$$$$
