ERL.pdb
     RDKit          3D

 29 28  0  0  1  0  0  0  0  0999 V2000
   21.5169  -21.6338  -12.5275 N   0  0  0  0  0  0  0  0  0  0  0  0
   22.2284  -20.4681  -12.0729 C   0  0  1  0  0  0  0  0  0  0  0  0
   21.3684  -19.5316  -11.2912 C   0  0  0  0  0  0  0  0  0  0  0  0
   20.3371  -18.8292  -12.1464 C   0  0  0  0  0  0  0  0  0  0  0  0
   19.1246  -19.7033  -12.2204 C   0  0  0  0  0  0  0  0  0  0  0  0
   18.6945  -20.1692  -13.3062 O   0  0  0  0  0  0  0  0  0  0  0  0
   23.4761  -20.8539  -11.3925 C   0  0  0  0  0  0  0  0  0  0  0  0
   23.5312  -21.6839  -10.4509 O   0  0  0  0  0  0  0  0  0  0  0  0
   18.4062  -20.0458  -11.0710 O   0  0  0  0  0  0  0  0  0  0  0  0
   28.7929  -23.0680  -14.9290 N   0  0  0  0  0  0  0  0  0  0  0  0
   29.9122  -22.3715  -14.4205 C   0  0  0  0  0  0  0  0  0  0  0  0
   30.9045  -22.0273  -15.1669 N   0  0  0  0  0  0  0  0  0  0  0  0
   29.9795  -22.0203  -13.0345 N   0  0  0  0  0  0  0  0  0  0  0  0
   28.7759  -22.0772  -12.2324 C   0  0  0  0  0  0  0  0  0  0  0  0
   28.4141  -20.7226  -11.6711 C   0  0  0  0  0  0  0  0  0  0  0  0
   27.0608  -20.2754  -12.1108 C   0  0  0  0  0  0  0  0  0  0  0  0
   25.9460  -20.7013  -11.1933 C   0  0  2  0  0  0  0  0  0  0  0  0
   24.7034  -20.2691  -11.8043 N   0  0  0  0  0  0  0  0  0  0  0  0
   26.0648  -20.0802   -9.8479 C   0  0  0  0  0  0  0  0  0  0  0  0
   25.5452  -18.9679   -9.5825 O   0  0  0  0  0  0  0  0  0  0  0  0
   31.6989  -21.4897  -14.8131 C   0  0  0  0  0  0  0  0  0  0  0  0
   27.3326  -20.8409   -4.4851 C   0  0  2  0  0  0  0  0  0  0  0  0
   28.5246  -20.6441   -5.4712 C   0  0  0  0  0  0  0  0  0  0  0  0
   29.5989  -21.5831   -4.9635 C   0  0  0  0  0  0  0  0  0  0  0  0
   27.9862  -20.9723   -6.8017 C   0  0  1  0  0  0  0  0  0  0  0  0
   27.0536  -20.0747   -7.5072 N   0  0  0  0  0  0  0  0  0  0  0  0
   26.7792  -20.7383   -8.8132 C   0  0  0  0  0  0  0  0  0  0  0  0
   27.5070  -18.7108   -7.7671 O   0  0  0  0  0  0  0  0  0  0  0  0
   28.2852  -18.5264   -8.7633 O   0  0  0  0  0  0  0  0  0  0  0  0
  2  1  1  1
  2  7  1  0
  2  3  1  0
  3  4  1  0
  4  5  1  0
  5  6  2  0
  7  8  2  0
  9  5  1  0
 11 13  1  0
 11 10  1  0
 12 11  2  0
 14 15  1  0
 14 13  1  0
 17 16  1  6
 16 15  1  0
 18 17  1  0
 18  7  1  0
 19 20  2  0
 19 17  1  0
 22 21  1  1
 22 24  1  0
 23 22  1  0
 25 24  1  1
 25 27  1  0
 25 26  1  0
 26 19  1  0
 27 29  1  0
 28 27  2  0
M  END
$$$$
