ERL.pdb
     RDKit          3D

 29 28  0  0  1  0  0  0  0  0999 V2000
   25.9238  -18.6559  -20.2627 N   0  0  0  0  0  0  0  0  0  0  0  0
   25.6986  -18.1223  -18.9450 C   0  0  1  0  0  0  0  0  0  0  0  0
   25.3609  -16.6686  -18.9576 C   0  0  0  0  0  0  0  0  0  0  0  0
   23.9048  -16.4068  -19.2733 C   0  0  0  0  0  0  0  0  0  0  0  0
   23.7149  -14.9267  -19.3869 C   0  0  0  0  0  0  0  0  0  0  0  0
   24.6483  -14.1094  -19.1824 O   0  0  0  0  0  0  0  0  0  0  0  0
   24.7410  -18.9592  -18.2027 C   0  0  0  0  0  0  0  0  0  0  0  0
   23.6979  -19.4442  -18.7081 O   0  0  0  0  0  0  0  0  0  0  0  0
   22.4752  -14.3789  -19.7299 O   0  0  0  0  0  0  0  0  0  0  0  0
   26.8138  -20.7602  -11.6112 N   0  0  0  0  0  0  0  0  0  0  0  0
   25.5575  -20.9713  -10.9998 C   0  0  0  0  0  0  0  0  0  0  0  0
   25.2900  -20.5441   -9.8140 N   0  0  0  0  0  0  0  0  0  0  0  0
   24.5239  -21.6793  -11.6922 N   0  0  0  0  0  0  0  0  0  0  0  0
   24.8031  -22.2371  -12.9983 C   0  0  0  0  0  0  0  0  0  0  0  0
   23.9812  -21.5722  -14.0769 C   0  0  0  0  0  0  0  0  0  0  0  0
   24.8100  -20.6975  -14.9560 C   0  0  0  0  0  0  0  0  0  0  0  0
   24.0488  -20.0768  -16.0967 C   0  0  2  0  0  0  0  0  0  0  0  0
   24.9858  -19.2508  -16.8342 N   0  0  0  0  0  0  0  0  0  0  0  0
   22.9266  -19.2266  -15.6194 C   0  0  0  0  0  0  0  0  0  0  0  0
   23.1194  -18.0826  -15.1380 O   0  0  0  0  0  0  0  0  0  0  0  0
   24.3852  -20.6995   -9.3640 C   0  0  0  0  0  0  0  0  0  0  0  0
   19.0619  -16.0493  -16.3697 C   0  0  2  0  0  0  0  0  0  0  0  0
   18.5547  -17.5180  -16.2361 C   0  0  0  0  0  0  0  0  0  0  0  0
   17.5513  -17.6789  -17.3590 C   0  0  0  0  0  0  0  0  0  0  0  0
   19.7593  -18.3568  -16.3500 C   0  0  1  0  0  0  0  0  0  0  0  0
   20.4492  -18.8937  -15.1631 N   0  0  0  0  0  0  0  0  0  0  0  0
   21.5885  -19.6928  -15.6966 C   0  0  0  0  0  0  0  0  0  0  0  0
   19.6702  -19.7414  -14.2640 O   0  0  0  0  0  0  0  0  0  0  0  0
   19.7545  -21.0061  -14.4232 O   0  0  0  0  0  0  0  0  0  0  0  0
  2  1  1  6
  2  7  1  0
  2  3  1  0
  3  4  1  0
  4  5  1  0
  5  6  2  0
  7  8  2  0
  9  5  1  0
 11 13  1  0
 11 10  1  0
 12 11  2  0
 14 15  1  0
 14 13  1  0
 17 16  1  1
 16 15  1  0
 18 17  1  0
 18  7  1  0
 19 20  2  0
 19 17  1  0
 22 21  1  1
 22 24  1  0
 23 22  1  0
 25 24  1  1
 25 27  1  0
 25 26  1  0
 26 19  1  0
 27 29  1  0
 28 27  2  0
M  END
$$$$
