PTQ.pdb
     RDKit          3D

 24 24  0  0  1  0  0  0  0  0999 V2000
   28.7356  -21.4676  -11.6181 N   0  0  0  0  0  0  0  0  0  0  0  0
   29.8919  -21.9926  -12.2686 C   0  0  0  0  0  0  0  0  0  0  0  0
   30.9913  -21.0621  -11.7324 C   0  0  0  0  0  0  0  0  0  0  0  0
   30.2756  -19.7182  -11.9133 C   0  0  0  0  0  0  0  0  0  0  0  0
   28.8228  -20.0519  -11.6547 C   0  0  1  0  0  0  0  0  0  0  0  0
   27.9090  -19.3703  -12.5690 C   0  0  0  0  0  0  0  0  0  0  0  0
   28.1178  -18.1223  -12.7551 O   0  0  0  0  0  0  0  0  0  0  0  0
   28.0457  -18.0623  -14.7154 C   0  0  0  0  0  0  0  0  0  0  0  0
   26.6750  -18.4743  -15.2727 C   0  0  1  0  0  0  0  0  0  0  0  0
   26.9791  -19.4030  -16.2868 O   0  0  0  0  0  0  0  0  0  0  0  0
   25.9802  -19.2142  -14.1808 C   0  0  2  0  0  0  0  0  0  0  0  0
   26.8250  -19.9220  -13.2703 N   0  0  0  0  0  0  0  0  0  0  0  0
   24.9835  -20.1468  -14.7609 C   0  0  0  0  0  0  0  0  0  0  0  0
   25.2721  -21.3396  -15.0521 O   0  0  0  0  0  0  0  0  0  0  0  0
   20.1145  -21.6001  -12.1300 N   0  0  0  0  0  0  0  0  0  0  0  0
   20.0784  -20.2584  -12.5874 C   0  0  0  0  0  0  0  0  0  0  0  0
   19.2912  -19.4542  -12.0372 O   0  0  0  0  0  0  0  0  0  0  0  0
   20.9364  -19.7558  -13.6972 C   0  0  0  0  0  0  0  0  0  0  0  0
   21.7121  -20.8769  -14.2898 C   0  0  0  0  0  0  0  0  0  0  0  0
   22.5739  -20.5269  -15.4500 C   0  0  2  0  0  0  0  0  0  0  0  0
   23.6689  -19.6742  -14.9923 N   0  0  0  0  0  0  0  0  0  0  0  0
   21.8746  -19.8811  -16.5815 C   0  0  0  0  0  0  0  0  0  0  0  0
   22.0918  -18.6910  -16.9159 O   0  0  0  0  0  0  0  0  0  0  0  0
   20.9488  -20.6063  -17.3023 O   0  0  0  0  0  0  0  0  0  0  0  0
  1  2  1  0
  3  2  1  0
  4  5  1  0
  4  3  1  0
  5  1  1  0
  5  6  1  6
  7  6  2  0
  9  8  1  1
  9 11  1  0
 10  9  1  0
 11 13  1  0
 11 12  1  6
 12  6  1  0
 13 21  1  0
 14 13  2  0
 16 15  1  0
 17 16  2  0
 18 16  1  0
 19 18  1  0
 20 19  1  1
 21 20  1  0
 22 24  1  0
 22 20  1  0
 23 22  2  0
M  END
$$$$
