PTQ.pdb
     RDKit          3D

 24 24  0  0  1  0  0  0  0  0999 V2000
   29.1513  -21.8814  -12.4521 N   0  0  0  0  0  0  0  0  0  0  0  0
   30.5308  -21.6304  -12.7166 C   0  0  0  0  0  0  0  0  0  0  0  0
   30.9693  -20.9407  -11.4151 C   0  0  0  0  0  0  0  0  0  0  0  0
   29.7967  -19.9660  -11.2548 C   0  0  0  0  0  0  0  0  0  0  0  0
   28.6175  -20.7347  -11.8091 C   0  0  1  0  0  0  0  0  0  0  0  0
   27.7190  -19.9040  -12.6078 C   0  0  0  0  0  0  0  0  0  0  0  0
   27.2465  -18.8636  -12.0333 O   0  0  0  0  0  0  0  0  0  0  0  0
   28.3546  -18.0951  -15.5528 C   0  0  0  0  0  0  0  0  0  0  0  0
   26.9773  -18.6682  -15.9188 C   0  0  1  0  0  0  0  0  0  0  0  0
   27.2669  -19.7265  -16.8016 O   0  0  0  0  0  0  0  0  0  0  0  0
   26.4228  -19.2646  -14.6702 C   0  0  2  0  0  0  0  0  0  0  0  0
   27.3098  -20.1108  -13.9349 N   0  0  0  0  0  0  0  0  0  0  0  0
   25.1734  -20.0024  -14.9777 C   0  0  0  0  0  0  0  0  0  0  0  0
   25.0495  -21.2361  -14.7459 O   0  0  0  0  0  0  0  0  0  0  0  0
   20.6837  -21.5209  -12.4439 N   0  0  0  0  0  0  0  0  0  0  0  0
   20.4788  -20.1467  -12.7273 C   0  0  0  0  0  0  0  0  0  0  0  0
   19.5790  -19.5308  -12.1107 O   0  0  0  0  0  0  0  0  0  0  0  0
   21.2867  -19.3953  -13.7289 C   0  0  0  0  0  0  0  0  0  0  0  0
   22.2438  -20.3116  -14.4028 C   0  0  0  0  0  0  0  0  0  0  0  0
   22.7550  -19.8579  -15.7234 C   0  0  2  0  0  0  0  0  0  0  0  0
   24.0909  -19.2913  -15.5500 N   0  0  0  0  0  0  0  0  0  0  0  0
   21.8899  -18.8935  -16.4360 C   0  0  0  0  0  0  0  0  0  0  0  0
   20.7438  -19.1953  -16.8494 O   0  0  0  0  0  0  0  0  0  0  0  0
   22.3508  -17.6125  -16.6578 O   0  0  0  0  0  0  0  0  0  0  0  0
  1  2  1  0
  3  2  1  0
  4  5  1  0
  4  3  1  0
  5  1  1  0
  5  6  1  6
  7  6  2  0
  9  8  1  1
  9 11  1  0
 10  9  1  0
 11 13  1  0
 11 12  1  6
 12  6  1  0
 13 21  1  0
 14 13  2  0
 16 15  1  0
 17 16  2  0
 18 16  1  0
 19 18  1  0
 20 19  1  1
 21 20  1  0
 22 24  1  0
 22 20  1  0
 23 22  2  0
M  END
$$$$
