PTQ.pdb
     RDKit          3D

 24 24  0  0  1  0  0  0  0  0999 V2000
   22.4062  -12.3093  -15.4126 N   0  0  0  0  0  0  0  0  0  0  0  0
   22.8158  -13.0809  -16.5408 C   0  0  0  0  0  0  0  0  0  0  0  0
   24.2689  -13.4158  -16.1687 C   0  0  0  0  0  0  0  0  0  0  0  0
   24.7209  -12.0280  -15.6992 C   0  0  0  0  0  0  0  0  0  0  0  0
   23.4764  -11.4439  -15.0676 C   0  0  1  0  0  0  0  0  0  0  0  0
   23.2898  -10.0280  -15.3772 C   0  0  0  0  0  0  0  0  0  0  0  0
   24.2335   -9.2403  -15.0238 O   0  0  0  0  0  0  0  0  0  0  0  0
   22.7774   -8.3441  -18.5903 C   0  0  0  0  0  0  0  0  0  0  0  0
   21.7191   -7.6740  -17.7012 C   0  0  1  0  0  0  0  0  0  0  0  0
   20.5222   -8.3411  -18.0261 O   0  0  0  0  0  0  0  0  0  0  0  0
   22.0630   -8.0292  -16.2948 C   0  0  2  0  0  0  0  0  0  0  0  0
   22.1955   -9.4254  -16.0178 N   0  0  0  0  0  0  0  0  0  0  0  0
   21.0709   -7.4310  -15.3686 C   0  0  0  0  0  0  0  0  0  0  0  0
   20.1604   -8.1166  -14.8282 O   0  0  0  0  0  0  0  0  0  0  0  0
   19.8413   -5.7936  -10.1261 N   0  0  0  0  0  0  0  0  0  0  0  0
   21.1484   -5.6034  -10.6419 C   0  0  0  0  0  0  0  0  0  0  0  0
   22.0807   -5.3493   -9.8448 O   0  0  0  0  0  0  0  0  0  0  0  0
   21.4685   -5.6915  -12.0946 C   0  0  0  0  0  0  0  0  0  0  0  0
   20.2261   -5.9229  -12.8773 C   0  0  0  0  0  0  0  0  0  0  0  0
   20.2007   -5.3335  -14.2423 C   0  0  2  0  0  0  0  0  0  0  0  0
   21.1560   -6.0456  -15.0884 N   0  0  0  0  0  0  0  0  0  0  0  0
   20.4617   -3.8795  -14.3052 C   0  0  0  0  0  0  0  0  0  0  0  0
   21.4774   -3.4017  -14.8670 O   0  0  0  0  0  0  0  0  0  0  0  0
   19.5604   -3.0087  -13.7290 O   0  0  0  0  0  0  0  0  0  0  0  0
  1  2  1  0
  3  2  1  0
  4  5  1  0
  4  3  1  0
  5  1  1  0
  5  6  1  6
  7  6  2  0
  9  8  1  6
  9 11  1  0
 10  9  1  0
 11 13  1  0
 11 12  1  6
 12  6  1  0
 13 21  1  0
 14 13  2  0
 16 15  1  0
 17 16  2  0
 18 16  1  0
 19 18  1  0
 20 19  1  1
 21 20  1  0
 22 24  1  0
 22 20  1  0
 23 22  2  0
M  END
$$$$
