PTQ.pdb
     RDKit          3D

 24 24  0  0  1  0  0  0  0  0999 V2000
   19.4912  -12.7467  -17.3479 N   0  0  0  0  0  0  0  0  0  0  0  0
   20.1507  -13.9804  -17.0668 C   0  0  0  0  0  0  0  0  0  0  0  0
   18.9747  -14.8554  -16.6049 C   0  0  0  0  0  0  0  0  0  0  0  0
   18.2915  -13.8583  -15.6614 C   0  0  0  0  0  0  0  0  0  0  0  0
   18.5407  -12.5189  -16.3193 C   0  0  1  0  0  0  0  0  0  0  0  0
   18.8637  -11.4637  -15.3614 C   0  0  0  0  0  0  0  0  0  0  0  0
   18.9714  -11.8208  -14.1380 O   0  0  0  0  0  0  0  0  0  0  0  0
   21.8227   -9.3162  -15.1767 C   0  0  0  0  0  0  0  0  0  0  0  0
   20.6701   -8.3166  -14.9987 C   0  0  1  0  0  0  0  0  0  0  0  0
   20.4733   -7.7830  -16.2870 O   0  0  0  0  0  0  0  0  0  0  0  0
   19.4624   -9.1211  -14.6572 C   0  0  2  0  0  0  0  0  0  0  0  0
   19.0705  -10.0998  -15.6226 N   0  0  0  0  0  0  0  0  0  0  0  0
   18.3206   -8.2177  -14.3739 C   0  0  0  0  0  0  0  0  0  0  0  0
   17.3295   -8.1274  -15.1488 O   0  0  0  0  0  0  0  0  0  0  0  0
   16.2620   -7.3340   -8.7623 N   0  0  0  0  0  0  0  0  0  0  0  0
   15.6452   -8.1015   -9.7828 C   0  0  0  0  0  0  0  0  0  0  0  0
   14.8587   -9.0198   -9.4554 O   0  0  0  0  0  0  0  0  0  0  0  0
   15.8886   -7.8670  -11.2341 C   0  0  0  0  0  0  0  0  0  0  0  0
   16.8811   -6.7752  -11.4147 C   0  0  0  0  0  0  0  0  0  0  0  0
   17.2950   -6.5009  -12.8164 C   0  0  2  0  0  0  0  0  0  0  0  0
   18.3531   -7.4354  -13.1941 N   0  0  0  0  0  0  0  0  0  0  0  0
   17.7320   -5.1138  -13.0837 C   0  0  0  0  0  0  0  0  0  0  0  0
   18.9358   -4.8118  -13.2714 O   0  0  0  0  0  0  0  0  0  0  0  0
   16.7886   -4.1087  -13.1317 O   0  0  0  0  0  0  0  0  0  0  0  0
  1  2  1  0
  3  2  1  0
  4  5  1  0
  4  3  1  0
  5  1  1  0
  5  6  1  1
  7  6  2  0
  9  8  1  6
  9 11  1  0
 10  9  1  0
 11 13  1  0
 11 12  1  6
 12  6  1  0
 13 21  1  0
 14 13  2  0
 16 15  1  0
 17 16  2  0
 18 16  1  0
 19 18  1  0
 20 19  1  1
 21 20  1  0
 22 24  1  0
 22 20  1  0
 23 22  2  0
M  END
$$$$
