PTQ.pdb
     RDKit          3D

 24 24  0  0  1  0  0  0  0  0999 V2000
   26.8435  -18.9924  -15.7354 N   0  0  0  0  0  0  0  0  0  0  0  0
   27.8744  -18.1109  -15.2924 C   0  0  0  0  0  0  0  0  0  0  0  0
   29.1301  -18.8201  -15.8238 C   0  0  0  0  0  0  0  0  0  0  0  0
   28.7961  -20.2527  -15.3912 C   0  0  0  0  0  0  0  0  0  0  0  0
   27.2908  -20.3225  -15.5259 C   0  0  1  0  0  0  0  0  0  0  0  0
   26.6534  -21.0556  -14.4343 C   0  0  0  0  0  0  0  0  0  0  0  0
   26.4552  -22.3041  -14.6282 O   0  0  0  0  0  0  0  0  0  0  0  0
   25.7539  -19.8665  -10.3612 C   0  0  0  0  0  0  0  0  0  0  0  0
   25.5985  -21.2902  -10.9164 C   0  0  1  0  0  0  0  0  0  0  0  0
   24.4716  -21.8021  -10.2445 O   0  0  0  0  0  0  0  0  0  0  0  0
   25.2353  -21.1451  -12.3550 C   0  0  2  0  0  0  0  0  0  0  0  0
   26.2301  -20.5529  -13.1935 N   0  0  0  0  0  0  0  0  0  0  0  0
   23.9661  -20.3876  -12.4788 C   0  0  0  0  0  0  0  0  0  0  0  0
   23.9117  -19.1391  -12.3080 O   0  0  0  0  0  0  0  0  0  0  0  0
   20.7580  -20.3354  -17.2819 N   0  0  0  0  0  0  0  0  0  0  0  0
   19.7899  -19.9298  -16.3284 C   0  0  0  0  0  0  0  0  0  0  0  0
   18.8243  -19.2287  -16.7094 O   0  0  0  0  0  0  0  0  0  0  0  0
   19.8661  -20.2993  -14.8868 C   0  0  0  0  0  0  0  0  0  0  0  0
   21.2602  -20.1462  -14.3942 C   0  0  0  0  0  0  0  0  0  0  0  0
   21.4778  -20.4591  -12.9568 C   0  0  2  0  0  0  0  0  0  0  0  0
   22.7831  -21.0970  -12.7987 N   0  0  0  0  0  0  0  0  0  0  0  0
   20.4319  -21.2946  -12.3290 C   0  0  0  0  0  0  0  0  0  0  0  0
   20.6017  -22.5138  -12.0838 O   0  0  0  0  0  0  0  0  0  0  0  0
   19.2225  -20.7210  -11.9961 O   0  0  0  0  0  0  0  0  0  0  0  0
  1  2  1  0
  3  2  1  0
  4  5  1  0
  4  3  1  0
  5  1  1  0
  5  6  1  1
  7  6  2  0
  9  8  1  1
  9 11  1  0
 10  9  1  0
 11 13  1  0
 11 12  1  6
 12  6  1  0
 13 21  1  0
 14 13  2  0
 16 15  1  0
 17 16  2  0
 18 16  1  0
 19 18  1  0
 20 19  1  6
 21 20  1  0
 22 24  1  0
 22 20  1  0
 23 22  2  0
M  END
$$$$
