PTQ.pdb
     RDKit          3D

 24 24  0  0  1  0  0  0  0  0999 V2000
   21.3781  -16.1206  -19.7317 N   0  0  0  0  0  0  0  0  0  0  0  0
   21.3747  -16.9428  -18.5656 C   0  0  0  0  0  0  0  0  0  0  0  0
   19.9154  -16.8081  -18.1028 C   0  0  0  0  0  0  0  0  0  0  0  0
   19.7587  -15.2896  -18.2464 C   0  0  0  0  0  0  0  0  0  0  0  0
   20.6224  -14.9550  -19.4426 C   0  0  1  0  0  0  0  0  0  0  0  0
   21.3808  -13.7178  -19.2710 C   0  0  0  0  0  0  0  0  0  0  0  0
   22.4070  -13.7816  -18.5103 O   0  0  0  0  0  0  0  0  0  0  0  0
   22.9033  -11.6249  -21.8999 C   0  0  0  0  0  0  0  0  0  0  0  0
   22.2747  -10.5827  -20.9629 C   0  0  1  0  0  0  0  0  0  0  0  0
   21.0627  -10.2387  -21.5921 O   0  0  0  0  0  0  0  0  0  0  0  0
   21.9369  -11.2993  -19.7002 C   0  0  2  0  0  0  0  0  0  0  0  0
   21.1180  -12.4624  -19.8421 N   0  0  0  0  0  0  0  0  0  0  0  0
   21.3036  -10.3596  -18.7432 C   0  0  0  0  0  0  0  0  0  0  0  0
   20.1369  -10.5406  -18.2992 O   0  0  0  0  0  0  0  0  0  0  0  0
   22.4519   -9.8460  -13.4576 N   0  0  0  0  0  0  0  0  0  0  0  0
   21.7717   -8.6042  -13.5355 C   0  0  0  0  0  0  0  0  0  0  0  0
   21.4332   -8.0337  -12.4730 O   0  0  0  0  0  0  0  0  0  0  0  0
   21.4381   -7.9413  -14.8277 C   0  0  0  0  0  0  0  0  0  0  0  0
   21.7942   -8.8310  -15.9641 C   0  0  0  0  0  0  0  0  0  0  0  0
   21.5539   -8.2754  -17.3223 C   0  0  2  0  0  0  0  0  0  0  0  0
   22.0394   -9.2260  -18.3205 N   0  0  0  0  0  0  0  0  0  0  0  0
   22.1436   -6.9425  -17.5707 C   0  0  0  0  0  0  0  0  0  0  0  0
   23.2406   -6.7913  -18.1616 O   0  0  0  0  0  0  0  0  0  0  0  0
   21.4694   -5.8181  -17.1418 O   0  0  0  0  0  0  0  0  0  0  0  0
  1  2  1  0
  3  2  1  0
  4  5  1  0
  4  3  1  0
  5  1  1  0
  5  6  1  1
  7  6  2  0
  9  8  1  6
  9 11  1  0
 10  9  1  0
 11 13  1  0
 11 12  1  6
 12  6  1  0
 13 21  1  0
 14 13  2  0
 16 15  1  0
 17 16  2  0
 18 16  1  0
 19 18  1  0
 20 19  1  1
 21 20  1  0
 22 24  1  0
 22 20  1  0
 23 22  2  0
M  END
$$$$
