PTQ.pdb
     RDKit          3D

 24 24  0  0  1  0  0  0  0  0999 V2000
   18.7283  -12.7344  -15.8231 N   0  0  0  0  0  0  0  0  0  0  0  0
   17.4757  -13.4085  -15.9358 C   0  0  0  0  0  0  0  0  0  0  0  0
   16.8348  -12.6635  -17.1175 C   0  0  0  0  0  0  0  0  0  0  0  0
   17.1523  -11.2248  -16.6930 C   0  0  0  0  0  0  0  0  0  0  0  0
   18.4911  -11.3465  -15.9990 C   0  0  1  0  0  0  0  0  0  0  0  0
   18.5907  -10.5158  -14.8009 C   0  0  0  0  0  0  0  0  0  0  0  0
   18.2284  -11.0593  -13.7013 O   0  0  0  0  0  0  0  0  0  0  0  0
   20.3738   -6.5985  -14.5249 C   0  0  0  0  0  0  0  0  0  0  0  0
   20.4140   -7.6200  -13.3785 C   0  0  1  0  0  0  0  0  0  0  0  0
   20.2916   -6.8376  -12.2140 O   0  0  0  0  0  0  0  0  0  0  0  0
   19.1751   -8.4401  -13.5000 C   0  0  2  0  0  0  0  0  0  0  0  0
   19.0374   -9.1879  -14.7106 N   0  0  0  0  0  0  0  0  0  0  0  0
   17.9822   -7.5796  -13.3093 C   0  0  0  0  0  0  0  0  0  0  0  0
   17.3010   -7.1536  -14.2817 O   0  0  0  0  0  0  0  0  0  0  0  0
   15.4089   -7.1638   -7.6015 N   0  0  0  0  0  0  0  0  0  0  0  0
   14.5975   -6.2650   -8.3394 C   0  0  0  0  0  0  0  0  0  0  0  0
   13.6308   -5.7135   -7.7646 O   0  0  0  0  0  0  0  0  0  0  0  0
   14.8405   -5.9430   -9.7739 C   0  0  0  0  0  0  0  0  0  0  0  0
   15.9685   -6.7585  -10.2955 C   0  0  0  0  0  0  0  0  0  0  0  0
   16.4194   -6.4342  -11.6750 C   0  0  2  0  0  0  0  0  0  0  0  0
   17.6039   -7.2299  -11.9903 N   0  0  0  0  0  0  0  0  0  0  0  0
   16.6946   -5.0035  -11.9273 C   0  0  0  0  0  0  0  0  0  0  0  0
   17.8534   -4.5232  -11.8840 O   0  0  0  0  0  0  0  0  0  0  0  0
   15.6451   -4.1586  -12.2231 O   0  0  0  0  0  0  0  0  0  0  0  0
  1  2  1  0
  3  2  1  0
  4  5  1  0
  4  3  1  0
  5  1  1  0
  5  6  1  1
  7  6  2  0
  9  8  1  6
  9 11  1  0
 10  9  1  0
 11 13  1  0
 11 12  1  6
 12  6  1  0
 13 21  1  0
 14 13  2  0
 16 15  1  0
 17 16  2  0
 18 16  1  0
 19 18  1  0
 20 19  1  1
 21 20  1  0
 22 24  1  0
 22 20  1  0
 23 22  2  0
M  END
$$$$
