PTQ.pdb
     RDKit          3D

 24 24  0  0  1  0  0  0  0  0999 V2000
   23.5442  -15.0338  -15.2003 N   0  0  0  0  0  0  0  0  0  0  0  0
   23.6763  -16.0879  -16.1529 C   0  0  0  0  0  0  0  0  0  0  0  0
   25.2038  -16.2406  -16.2276 C   0  0  0  0  0  0  0  0  0  0  0  0
   25.5871  -14.7594  -16.3276 C   0  0  0  0  0  0  0  0  0  0  0  0
   24.5397  -14.0639  -15.4862 C   0  0  1  0  0  0  0  0  0  0  0  0
   24.0726  -12.8113  -16.0764 C   0  0  0  0  0  0  0  0  0  0  0  0
   24.9754  -12.0198  -16.5170 O   0  0  0  0  0  0  0  0  0  0  0  0
   21.8983  -12.0249  -18.9555 C   0  0  0  0  0  0  0  0  0  0  0  0
   21.3158  -11.1547  -17.8316 C   0  0  1  0  0  0  0  0  0  0  0  0
   20.2285  -11.9042  -17.3426 O   0  0  0  0  0  0  0  0  0  0  0  0
   22.3475  -11.1073  -16.7566 C   0  0  2  0  0  0  0  0  0  0  0  0
   22.7474  -12.3699  -16.2186 N   0  0  0  0  0  0  0  0  0  0  0  0
   21.8884  -10.2224  -15.6584 C   0  0  0  0  0  0  0  0  0  0  0  0
   21.5256  -10.6768  -14.5391 O   0  0  0  0  0  0  0  0  0  0  0  0
   23.2562   -4.1075  -15.7248 N   0  0  0  0  0  0  0  0  0  0  0  0
   22.4801   -4.2211  -14.5434 C   0  0  0  0  0  0  0  0  0  0  0  0
   22.3302   -3.2094  -13.8202 O   0  0  0  0  0  0  0  0  0  0  0  0
   21.8305   -5.4930  -14.1183 C   0  0  0  0  0  0  0  0  0  0  0  0
   22.1190   -6.5673  -15.1043 C   0  0  0  0  0  0  0  0  0  0  0  0
   21.4111   -7.8563  -14.8842 C   0  0  2  0  0  0  0  0  0  0  0  0
   21.8594   -8.8246  -15.8828 N   0  0  0  0  0  0  0  0  0  0  0  0
   19.9348   -7.7734  -14.8935 C   0  0  0  0  0  0  0  0  0  0  0  0
   19.2537   -8.0128  -15.9202 O   0  0  0  0  0  0  0  0  0  0  0  0
   19.2735   -7.4220  -13.7351 O   0  0  0  0  0  0  0  0  0  0  0  0
  1  2  1  0
  3  2  1  0
  4  5  1  0
  4  3  1  0
  5  1  1  0
  5  6  1  6
  7  6  2  0
  9  8  1  6
  9 11  1  0
 10  9  1  0
 11 13  1  0
 11 12  1  1
 12  6  1  0
 13 21  1  0
 14 13  2  0
 16 15  1  0
 17 16  2  0
 18 16  1  0
 19 18  1  0
 20 19  1  6
 21 20  1  0
 22 24  1  0
 22 20  1  0
 23 22  2  0
M  END
$$$$
