PTQ.pdb
     RDKit          3D

 24 24  0  0  1  0  0  0  0  0999 V2000
   35.6795  -27.9268  -19.2494 N   0  0  0  0  0  0  0  0  0  0  0  0
   35.8316  -27.9991  -20.6663 C   0  0  0  0  0  0  0  0  0  0  0  0
   36.4815  -26.6404  -20.9721 C   0  0  0  0  0  0  0  0  0  0  0  0
   35.5777  -25.7455  -20.1160 C   0  0  0  0  0  0  0  0  0  0  0  0
   35.2380  -26.6173  -18.9271 C   0  0  1  0  0  0  0  0  0  0  0  0
   33.8450  -26.4893  -18.5048 C   0  0  0  0  0  0  0  0  0  0  0  0
   33.0512  -27.4210  -18.8759 O   0  0  0  0  0  0  0  0  0  0  0  0
   32.1989  -24.3152  -15.1646 C   0  0  0  0  0  0  0  0  0  0  0  0
   31.6824  -25.5927  -15.8434 C   0  0  1  0  0  0  0  0  0  0  0  0
   30.2918  -25.5632  -15.6228 O   0  0  0  0  0  0  0  0  0  0  0  0
   31.9084  -25.4145  -17.3061 C   0  0  2  0  0  0  0  0  0  0  0  0
   33.2703  -25.4632  -17.7380 N   0  0  0  0  0  0  0  0  0  0  0  0
   31.2885  -24.1456  -17.7594 C   0  0  0  0  0  0  0  0  0  0  0  0
   31.9129  -23.0499  -17.7380 O   0  0  0  0  0  0  0  0  0  0  0  0
   26.4872  -25.6744  -20.0245 N   0  0  0  0  0  0  0  0  0  0  0  0
   27.4441  -25.2853  -20.9960 C   0  0  0  0  0  0  0  0  0  0  0  0
   27.5269  -25.9429  -22.0589 O   0  0  0  0  0  0  0  0  0  0  0  0
   28.3613  -24.1252  -20.8126 C   0  0  0  0  0  0  0  0  0  0  0  0
   28.0683  -23.4422  -19.5253 C   0  0  0  0  0  0  0  0  0  0  0  0
   29.2524  -22.9994  -18.7422 C   0  0  2  0  0  0  0  0  0  0  0  0
   29.9529  -24.1748  -18.2290 N   0  0  0  0  0  0  0  0  0  0  0  0
   28.9606  -22.0657  -17.6334 C   0  0  0  0  0  0  0  0  0  0  0  0
   28.7415  -22.4595  -16.4619 O   0  0  0  0  0  0  0  0  0  0  0  0
   28.9272  -20.7102  -17.8866 O   0  0  0  0  0  0  0  0  0  0  0  0
  1  2  1  0
  3  2  1  0
  4  5  1  0
  4  3  1  0
  5  1  1  0
  5  6  1  6
  7  6  2  0
  9  8  1  1
  9 11  1  0
 10  9  1  0
 11 13  1  0
 11 12  1  1
 12  6  1  0
 13 21  1  0
 14 13  2  0
 16 15  1  0
 17 16  2  0
 18 16  1  0
 19 18  1  0
 20 19  1  1
 21 20  1  0
 22 24  1  0
 22 20  1  0
 23 22  2  0
M  END
$$$$
