PTQ.pdb
     RDKit          3D

 24 24  0  0  1  0  0  0  0  0999 V2000
   24.4319  -22.1559  -13.6922 N   0  0  0  0  0  0  0  0  0  0  0  0
   25.6416  -22.7681  -13.2473 C   0  0  0  0  0  0  0  0  0  0  0  0
   25.5140  -22.6209  -11.7228 C   0  0  0  0  0  0  0  0  0  0  0  0
   25.0622  -21.1570  -11.6614 C   0  0  0  0  0  0  0  0  0  0  0  0
   24.2210  -20.9924  -12.9080 C   0  0  1  0  0  0  0  0  0  0  0  0
   24.4378  -19.7119  -13.5780 C   0  0  0  0  0  0  0  0  0  0  0  0
   24.1727  -18.6625  -12.8967 O   0  0  0  0  0  0  0  0  0  0  0  0
   27.4553  -18.2124  -15.3021 C   0  0  0  0  0  0  0  0  0  0  0  0
   26.2958  -18.0036  -16.2876 C   0  0  1  0  0  0  0  0  0  0  0  0
   26.4191  -19.0713  -17.1976 O   0  0  0  0  0  0  0  0  0  0  0  0
   25.0399  -18.2171  -15.5133 C   0  0  2  0  0  0  0  0  0  0  0  0
   24.9034  -19.4936  -14.8844 N   0  0  0  0  0  0  0  0  0  0  0  0
   23.8648  -17.9629  -16.3818 C   0  0  0  0  0  0  0  0  0  0  0  0
   23.0141  -18.8586  -16.6371 O   0  0  0  0  0  0  0  0  0  0  0  0
   18.7652  -15.3644  -16.3305 N   0  0  0  0  0  0  0  0  0  0  0  0
   19.6172  -14.2792  -16.6577 C   0  0  0  0  0  0  0  0  0  0  0  0
   19.1371  -13.1226  -16.6878 O   0  0  0  0  0  0  0  0  0  0  0  0
   21.0645  -14.4489  -16.9692 C   0  0  0  0  0  0  0  0  0  0  0  0
   21.4302  -15.8891  -16.9245 C   0  0  0  0  0  0  0  0  0  0  0  0
   22.5720  -16.2951  -17.7862 C   0  0  2  0  0  0  0  0  0  0  0  0
   23.7011  -16.6711  -16.9380 N   0  0  0  0  0  0  0  0  0  0  0  0
   23.0032  -15.2856  -18.7768 C   0  0  0  0  0  0  0  0  0  0  0  0
   24.1234  -14.7222  -18.7197 O   0  0  0  0  0  0  0  0  0  0  0  0
   22.1498  -14.9453  -19.8057 O   0  0  0  0  0  0  0  0  0  0  0  0
  1  2  1  0
  3  2  1  0
  4  5  1  0
  4  3  1  0
  5  1  1  0
  5  6  1  6
  7  6  2  0
  9  8  1  1
  9 11  1  0
 10  9  1  0
 11 13  1  0
 11 12  1  6
 12  6  1  0
 13 21  1  0
 14 13  2  0
 16 15  1  0
 17 16  2  0
 18 16  1  0
 19 18  1  0
 20 19  1  1
 21 20  1  0
 22 24  1  0
 22 20  1  0
 23 22  2  0
M  END
$$$$
