PTQ.pdb
     RDKit          3D

 24 24  0  0  1  0  0  0  0  0999 V2000
   22.7833  -12.8194  -18.6832 N   0  0  0  0  0  0  0  0  0  0  0  0
   24.1811  -12.7581  -18.4031 C   0  0  0  0  0  0  0  0  0  0  0  0
   24.1995  -13.0197  -16.8888 C   0  0  0  0  0  0  0  0  0  0  0  0
   23.0619  -12.0806  -16.4706 C   0  0  0  0  0  0  0  0  0  0  0  0
   22.1017  -12.1441  -17.6379 C   0  0  1  0  0  0  0  0  0  0  0  0
   21.5257  -10.8440  -17.9747 C   0  0  0  0  0  0  0  0  0  0  0  0
   22.2043  -10.1123  -18.7747 O   0  0  0  0  0  0  0  0  0  0  0  0
   18.7735  -10.1939  -19.9228 C   0  0  0  0  0  0  0  0  0  0  0  0
   18.4659   -9.2230  -18.7729 C   0  0  1  0  0  0  0  0  0  0  0  0
   17.5450   -9.9211  -17.9681 O   0  0  0  0  0  0  0  0  0  0  0  0
   19.7274   -9.0811  -17.9913 C   0  0  2  0  0  0  0  0  0  0  0  0
   20.3129  -10.2986  -17.5242 N   0  0  0  0  0  0  0  0  0  0  0  0
   19.5085   -8.1639  -16.8464 C   0  0  0  0  0  0  0  0  0  0  0  0
   19.5866   -8.5555  -15.6499 O   0  0  0  0  0  0  0  0  0  0  0  0
   22.8252   -5.2390  -14.0270 N   0  0  0  0  0  0  0  0  0  0  0  0
   21.8386   -6.0593  -13.4233 C   0  0  0  0  0  0  0  0  0  0  0  0
   22.0821   -6.5744  -12.3077 O   0  0  0  0  0  0  0  0  0  0  0  0
   20.5186   -6.3399  -14.0553 C   0  0  0  0  0  0  0  0  0  0  0  0
   20.4435   -5.6889  -15.3895 C   0  0  0  0  0  0  0  0  0  0  0  0
   19.1299   -5.7773  -16.0808 C   0  0  2  0  0  0  0  0  0  0  0  0
   19.2021   -6.8077  -17.1146 N   0  0  0  0  0  0  0  0  0  0  0  0
   18.6410   -4.5113  -16.6679 C   0  0  0  0  0  0  0  0  0  0  0  0
   18.8541   -4.1978  -17.8645 O   0  0  0  0  0  0  0  0  0  0  0  0
   17.9223   -3.6374  -15.8791 O   0  0  0  0  0  0  0  0  0  0  0  0
  1  2  1  0
  3  2  1  0
  4  5  1  0
  4  3  1  0
  5  1  1  0
  5  6  1  6
  7  6  2  0
  9  8  1  6
  9 11  1  0
 10  9  1  0
 11 13  1  0
 11 12  1  1
 12  6  1  0
 13 21  1  0
 14 13  2  0
 16 15  1  0
 17 16  2  0
 18 16  1  0
 19 18  1  0
 20 19  1  6
 21 20  1  0
 22 24  1  0
 22 20  1  0
 23 22  2  0
M  END
$$$$
