PTQ.pdb
     RDKit          3D

 24 24  0  0  1  0  0  0  0  0999 V2000
   23.3287  -12.1976  -17.4014 N   0  0  0  0  0  0  0  0  0  0  0  0
   24.7459  -12.0564  -17.3144 C   0  0  0  0  0  0  0  0  0  0  0  0
   25.0322  -12.6993  -15.9481 C   0  0  0  0  0  0  0  0  0  0  0  0
   23.9170  -12.0340  -15.1329 C   0  0  0  0  0  0  0  0  0  0  0  0
   22.7839  -11.8977  -16.1260 C   0  0  1  0  0  0  0  0  0  0  0  0
   22.0717  -10.6272  -16.0087 C   0  0  0  0  0  0  0  0  0  0  0  0
   21.7224  -10.0686  -17.1050 O   0  0  0  0  0  0  0  0  0  0  0  0
   18.8279   -9.9482  -14.4992 C   0  0  0  0  0  0  0  0  0  0  0  0
   19.7103   -8.8391  -13.9071 C   0  0  1  0  0  0  0  0  0  0  0  0
   20.1119   -9.3475  -12.6567 O   0  0  0  0  0  0  0  0  0  0  0  0
   20.9237   -8.7593  -14.7695 C   0  0  2  0  0  0  0  0  0  0  0  0
   21.7233   -9.9426  -14.8335 N   0  0  0  0  0  0  0  0  0  0  0  0
   21.7654   -7.6132  -14.3477 C   0  0  0  0  0  0  0  0  0  0  0  0
   22.9102   -7.7728  -13.8428 O   0  0  0  0  0  0  0  0  0  0  0  0
   23.7157   -3.9917  -18.1053 N   0  0  0  0  0  0  0  0  0  0  0  0
   24.0651   -3.2190  -16.9688 C   0  0  0  0  0  0  0  0  0  0  0  0
   24.8458   -2.2503  -17.1144 O   0  0  0  0  0  0  0  0  0  0  0  0
   23.5456   -3.5052  -15.6018 C   0  0  0  0  0  0  0  0  0  0  0  0
   22.6598   -4.6985  -15.6325 C   0  0  0  0  0  0  0  0  0  0  0  0
   22.0621   -5.0959  -14.3302 C   0  0  2  0  0  0  0  0  0  0  0  0
   21.2593   -6.3021  -14.5207 N   0  0  0  0  0  0  0  0  0  0  0  0
   21.2509   -4.0535  -13.6656 C   0  0  0  0  0  0  0  0  0  0  0  0
   19.9966   -4.0462  -13.7105 O   0  0  0  0  0  0  0  0  0  0  0  0
   21.8879   -3.0488  -12.9673 O   0  0  0  0  0  0  0  0  0  0  0  0
  1  2  1  0
  3  2  1  0
  4  5  1  0
  4  3  1  0
  5  1  1  0
  5  6  1  6
  7  6  2  0
  9  8  1  6
  9 11  1  0
 10  9  1  0
 11 13  1  0
 11 12  1  1
 12  6  1  0
 13 21  1  0
 14 13  2  0
 16 15  1  0
 17 16  2  0
 18 16  1  0
 19 18  1  0
 20 19  1  6
 21 20  1  0
 22 24  1  0
 22 20  1  0
 23 22  2  0
M  END
$$$$
