PTQ.pdb
     RDKit          3D

 24 24  0  0  1  0  0  0  0  0999 V2000
   24.6861  -12.7532  -15.7603 N   0  0  0  0  0  0  0  0  0  0  0  0
   24.0567  -14.0136  -15.5334 C   0  0  0  0  0  0  0  0  0  0  0  0
   24.1630  -14.6610  -16.9232 C   0  0  0  0  0  0  0  0  0  0  0  0
   23.7160  -13.4684  -17.7769 C   0  0  0  0  0  0  0  0  0  0  0  0
   24.2490  -12.2711  -17.0211 C   0  0  1  0  0  0  0  0  0  0  0  0
   23.3133  -11.1489  -16.9962 C   0  0  0  0  0  0  0  0  0  0  0  0
   23.0508  -10.6032  -18.1227 O   0  0  0  0  0  0  0  0  0  0  0  0
   19.7992  -11.0173  -16.0224 C   0  0  0  0  0  0  0  0  0  0  0  0
   20.3951   -9.8118  -15.2799 C   0  0  1  0  0  0  0  0  0  0  0  0
   20.6495  -10.2964  -13.9823 O   0  0  0  0  0  0  0  0  0  0  0  0
   21.7118   -9.5306  -15.9198 C   0  0  2  0  0  0  0  0  0  0  0  0
   22.6652  -10.5950  -15.8806 N   0  0  0  0  0  0  0  0  0  0  0  0
   22.3074   -8.3082  -15.3275 C   0  0  0  0  0  0  0  0  0  0  0  0
   23.2686   -8.3586  -14.5123 O   0  0  0  0  0  0  0  0  0  0  0  0
   21.5070   -2.8043  -18.1716 N   0  0  0  0  0  0  0  0  0  0  0  0
   22.1135   -2.3953  -16.9568 C   0  0  0  0  0  0  0  0  0  0  0  0
   22.3689   -1.1806  -16.7886 O   0  0  0  0  0  0  0  0  0  0  0  0
   22.4636   -3.3462  -15.8642 C   0  0  0  0  0  0  0  0  0  0  0  0
   22.0323   -4.7215  -16.2275 C   0  0  0  0  0  0  0  0  0  0  0  0
   22.3073   -5.7758  -15.2155 C   0  0  2  0  0  0  0  0  0  0  0  0
   21.7732   -7.0491  -15.6941 N   0  0  0  0  0  0  0  0  0  0  0  0
   21.7931   -5.4948  -13.8579 C   0  0  0  0  0  0  0  0  0  0  0  0
   22.4504   -4.8421  -13.0110 O   0  0  0  0  0  0  0  0  0  0  0  0
   20.5454   -5.9625  -13.5011 O   0  0  0  0  0  0  0  0  0  0  0  0
  1  2  1  0
  3  2  1  0
  4  5  1  0
  4  3  1  0
  5  1  1  0
  5  6  1  1
  7  6  2  0
  9  8  1  6
  9 11  1  0
 10  9  1  0
 11 13  1  0
 11 12  1  1
 12  6  1  0
 13 21  1  0
 14 13  2  0
 16 15  1  0
 17 16  2  0
 18 16  1  0
 19 18  1  0
 20 19  1  6
 21 20  1  0
 22 24  1  0
 22 20  1  0
 23 22  2  0
M  END
$$$$
