PTQ.pdb
     RDKit          3D

 24 24  0  0  1  0  0  0  0  0999 V2000
   20.4476  -13.0395  -16.0889 N   0  0  0  0  0  0  0  0  0  0  0  0
   19.2633  -13.8000  -15.8545 C   0  0  0  0  0  0  0  0  0  0  0  0
   18.9354  -14.2966  -17.2715 C   0  0  0  0  0  0  0  0  0  0  0  0
   19.1356  -12.9833  -18.0369 C   0  0  0  0  0  0  0  0  0  0  0  0
   20.2599  -12.3030  -17.2871 C   0  0  1  0  0  0  0  0  0  0  0  0
   20.0573  -10.8636  -17.1374 C   0  0  0  0  0  0  0  0  0  0  0  0
   20.0255  -10.1792  -18.2174 O   0  0  0  0  0  0  0  0  0  0  0  0
   17.1574   -9.1358  -15.9030 C   0  0  0  0  0  0  0  0  0  0  0  0
   18.2886   -8.4374  -15.1335 C   0  0  1  0  0  0  0  0  0  0  0  0
   18.3322   -9.1101  -13.8971 O   0  0  0  0  0  0  0  0  0  0  0  0
   19.5513   -8.7528  -15.8605 C   0  0  2  0  0  0  0  0  0  0  0  0
   19.8929  -10.1382  -15.9466 N   0  0  0  0  0  0  0  0  0  0  0  0
   20.6787   -7.9996  -15.2593 C   0  0  0  0  0  0  0  0  0  0  0  0
   21.4804   -8.5315  -14.4435 O   0  0  0  0  0  0  0  0  0  0  0  0
   22.2165   -2.3128  -17.5104 N   0  0  0  0  0  0  0  0  0  0  0  0
   23.0778   -2.4216  -16.3891 C   0  0  0  0  0  0  0  0  0  0  0  0
   23.8810   -1.4900  -16.1524 O   0  0  0  0  0  0  0  0  0  0  0  0
   23.0736   -3.5972  -15.4735 C   0  0  0  0  0  0  0  0  0  0  0  0
   22.0785   -4.6000  -15.9359 C   0  0  0  0  0  0  0  0  0  0  0  0
   21.8966   -5.7857  -15.0571 C   0  0  2  0  0  0  0  0  0  0  0  0
   20.8525   -6.6408  -15.6178 N   0  0  0  0  0  0  0  0  0  0  0  0
   21.5893   -5.4804  -13.6434 C   0  0  0  0  0  0  0  0  0  0  0  0
   20.4132   -5.3739  -13.2181 O   0  0  0  0  0  0  0  0  0  0  0  0
   22.6273   -5.3057  -12.7520 O   0  0  0  0  0  0  0  0  0  0  0  0
  1  2  1  0
  3  2  1  0
  4  5  1  0
  4  3  1  0
  5  1  1  0
  5  6  1  1
  7  6  2  0
  9  8  1  6
  9 11  1  0
 10  9  1  0
 11 13  1  0
 11 12  1  1
 12  6  1  0
 13 21  1  0
 14 13  2  0
 16 15  1  0
 17 16  2  0
 18 16  1  0
 19 18  1  0
 20 19  1  6
 21 20  1  0
 22 24  1  0
 22 20  1  0
 23 22  2  0
M  END
$$$$
