PTQ.pdb
     RDKit          3D

 24 24  0  0  1  0  0  0  0  0999 V2000
   28.6179  -16.6305  -19.3212 N   0  0  0  0  0  0  0  0  0  0  0  0
   28.4519  -17.9217  -19.9054 C   0  0  0  0  0  0  0  0  0  0  0  0
   27.6919  -17.5762  -21.1957 C   0  0  0  0  0  0  0  0  0  0  0  0
   26.6539  -16.6114  -20.6103 C   0  0  0  0  0  0  0  0  0  0  0  0
   27.4040  -15.9167  -19.4951 C   0  0  1  0  0  0  0  0  0  0  0  0
   26.5914  -15.7196  -18.2967 C   0  0  0  0  0  0  0  0  0  0  0  0
   26.4451  -16.7374  -17.5362 O   0  0  0  0  0  0  0  0  0  0  0  0
   27.0556  -13.5433  -15.4219 C   0  0  0  0  0  0  0  0  0  0  0  0
   25.5798  -13.2982  -15.7705 C   0  0  1  0  0  0  0  0  0  0  0  0
   25.5957  -12.1082  -16.5234 O   0  0  0  0  0  0  0  0  0  0  0  0
   25.1730  -14.4025  -16.6856 C   0  0  2  0  0  0  0  0  0  0  0  0
   25.9491  -14.5435  -17.8778 N   0  0  0  0  0  0  0  0  0  0  0  0
   23.7399  -14.2593  -17.0398 C   0  0  0  0  0  0  0  0  0  0  0  0
   23.3655  -13.9390  -18.2009 O   0  0  0  0  0  0  0  0  0  0  0  0
   19.3883  -17.7441  -14.5369 N   0  0  0  0  0  0  0  0  0  0  0  0
   18.5807  -16.6820  -15.0170 C   0  0  0  0  0  0  0  0  0  0  0  0
   17.3358  -16.7768  -14.9155 O   0  0  0  0  0  0  0  0  0  0  0  0
   19.1445  -15.4513  -15.6401 C   0  0  0  0  0  0  0  0  0  0  0  0
   20.6296  -15.4871  -15.5862 C   0  0  0  0  0  0  0  0  0  0  0  0
   21.3300  -14.3619  -16.2605 C   0  0  2  0  0  0  0  0  0  0  0  0
   22.7683  -14.4909  -16.0361 N   0  0  0  0  0  0  0  0  0  0  0  0
   20.8795  -13.0110  -15.8628 C   0  0  0  0  0  0  0  0  0  0  0  0
   21.4047  -12.3784  -14.9144 O   0  0  0  0  0  0  0  0  0  0  0  0
   19.8452  -12.4159  -16.5548 O   0  0  0  0  0  0  0  0  0  0  0  0
  1  2  1  0
  3  2  1  0
  4  5  1  0
  4  3  1  0
  5  1  1  0
  5  6  1  1
  7  6  2  0
  9  8  1  6
  9 11  1  0
 10  9  1  0
 11 13  1  0
 11 12  1  6
 12  6  1  0
 13 21  1  0
 14 13  2  0
 16 15  1  0
 17 16  2  0
 18 16  1  0
 19 18  1  0
 20 19  1  1
 21 20  1  0
 22 24  1  0
 22 20  1  0
 23 22  2  0
M  END
$$$$
