AVG.pdb
     RDKit          3D

 17 16  0  0  1  0  0  0  0  0999 V2000
   17.7228  -10.1435  -18.7802 C   0  0  0  0  0  0  0  0  0  0  0  0
   18.6664  -11.2248  -18.2594 C   0  0  2  0  0  0  0  0  0  0  0  0
   17.7706  -12.2727  -17.7482 N   0  0  0  0  0  0  0  0  0  0  0  0
   19.4313  -10.7082  -17.0743 C   0  0  0  0  0  0  0  0  0  0  0  0
   18.8747  -10.5181  -15.9627 O   0  0  0  0  0  0  0  0  0  0  0  0
   22.3733  -12.2331  -15.2851 C   0  0  0  0  0  0  0  0  0  0  0  0
   22.7994  -10.8355  -15.7591 C   0  0  2  0  0  0  0  0  0  0  0  0
   23.5311  -10.2221  -14.5954 C   0  0  0  0  0  0  0  0  0  0  0  0
   21.5711   -9.9856  -16.0228 C   0  0  2  0  0  0  0  0  0  0  0  0
   20.8310  -10.4139  -17.1650 N   0  0  0  0  0  0  0  0  0  0  0  0
   21.8913   -8.5543  -16.0907 C   0  0  0  0  0  0  0  0  0  0  0  0
   22.3981   -8.0416  -17.1361 O   0  0  0  0  0  0  0  0  0  0  0  0
   21.6642   -7.6410  -15.0171 N   0  0  0  0  0  0  0  0  0  0  0  0
   22.0208   -6.2379  -15.0539 C   0  0  0  0  0  0  0  0  0  0  0  0
   21.6030   -5.6382  -13.7638 C   0  0  0  0  0  0  0  0  0  0  0  0
   20.8816   -6.2566  -12.9386 O   0  0  0  0  0  0  0  0  0  0  0  0
   21.9876   -4.3413  -13.3901 O   0  0  0  0  0  0  0  0  0  0  0  0
  2  4  1  0
  2  1  1  1
  3  2  1  0
  4  5  2  0
  7  6  1  1
  7  8  1  0
  7  9  1  0
  9 10  1  6
 10  4  1  0
 11  9  1  0
 12 11  2  0
 13 11  1  0
 14 13  1  0
 14 15  1  0
 15 17  1  0
 16 15  2  0
M  END
$$$$
