AVG.pdb
     RDKit          3D

 17 16  0  0  1  0  0  0  0  0999 V2000
   27.3571  -11.1152  -15.2977 C   0  0  0  0  0  0  0  0  0  0  0  0
   26.1900  -11.8081  -15.9967 C   0  0  2  0  0  0  0  0  0  0  0  0
   26.7725  -12.3352  -17.2395 N   0  0  0  0  0  0  0  0  0  0  0  0
   25.1646  -10.7908  -16.4092 C   0  0  0  0  0  0  0  0  0  0  0  0
   25.3644  -10.0069  -17.3721 O   0  0  0  0  0  0  0  0  0  0  0  0
   21.0669  -11.3558  -15.6495 C   0  0  0  0  0  0  0  0  0  0  0  0
   21.6801  -10.4304  -16.7113 C   0  0  2  0  0  0  0  0  0  0  0  0
   22.1304  -11.3385  -17.8241 C   0  0  0  0  0  0  0  0  0  0  0  0
   22.9151   -9.7520  -16.1501 C   0  0  2  0  0  0  0  0  0  0  0  0
   23.9131  -10.6767  -15.7203 N   0  0  0  0  0  0  0  0  0  0  0  0
   22.5855   -8.7830  -15.0975 C   0  0  0  0  0  0  0  0  0  0  0  0
   22.8210   -9.0330  -13.8749 O   0  0  0  0  0  0  0  0  0  0  0  0
   21.9903   -7.5103  -15.3517 N   0  0  0  0  0  0  0  0  0  0  0  0
   21.5540   -6.5955  -14.3174 C   0  0  0  0  0  0  0  0  0  0  0  0
   21.0314   -5.3810  -14.9885 C   0  0  0  0  0  0  0  0  0  0  0  0
   19.8039   -5.1047  -15.0151 O   0  0  0  0  0  0  0  0  0  0  0  0
   21.8789   -4.4693  -15.6364 O   0  0  0  0  0  0  0  0  0  0  0  0
  2  4  1  0
  2  1  1  1
  3  2  1  0
  4  5  2  0
  7  6  1  1
  7  8  1  0
  7  9  1  0
  9 10  1  1
 10  4  1  0
 11  9  1  0
 12 11  2  0
 13 11  1  0
 14 13  1  0
 14 15  1  0
 15 17  1  0
 16 15  2  0
M  END
$$$$
