AVG.pdb
     RDKit          3D

 17 16  0  0  1  0  0  0  0  0999 V2000
   18.7001   -7.1469  -18.0801 C   0  0  0  0  0  0  0  0  0  0  0  0
   19.2980   -8.4971  -17.6927 C   0  0  2  0  0  0  0  0  0  0  0  0
   18.1798   -9.4418  -17.8293 N   0  0  0  0  0  0  0  0  0  0  0  0
   19.6712   -8.4922  -16.2376 C   0  0  0  0  0  0  0  0  0  0  0  0
   18.8138   -8.6791  -15.3368 O   0  0  0  0  0  0  0  0  0  0  0  0
   23.7606   -8.9821  -14.9652 C   0  0  0  0  0  0  0  0  0  0  0  0
   22.4946   -9.3829  -14.1928 C   0  0  2  0  0  0  0  0  0  0  0  0
   22.0506  -10.6876  -14.7982 C   0  0  0  0  0  0  0  0  0  0  0  0
   21.3962   -8.3677  -14.4444 C   0  0  2  0  0  0  0  0  0  0  0  0
   21.0248   -8.2767  -15.8191 N   0  0  0  0  0  0  0  0  0  0  0  0
   21.7194   -7.0503  -13.8824 C   0  0  0  0  0  0  0  0  0  0  0  0
   21.9812   -6.9071  -12.6481 O   0  0  0  0  0  0  0  0  0  0  0  0
   21.7680   -5.8508  -14.6551 N   0  0  0  0  0  0  0  0  0  0  0  0
   22.2571   -4.5820  -14.1571 C   0  0  0  0  0  0  0  0  0  0  0  0
   21.0893   -3.6796  -14.0141 C   0  0  0  0  0  0  0  0  0  0  0  0
   19.9048   -4.1020  -14.0635 O   0  0  0  0  0  0  0  0  0  0  0  0
   21.2396   -2.2983  -13.8178 O   0  0  0  0  0  0  0  0  0  0  0  0
  2  4  1  0
  2  1  1  1
  3  2  1  0
  4  5  2  0
  7  6  1  6
  7  8  1  0
  7  9  1  0
  9 10  1  6
 10  4  1  0
 11  9  1  0
 12 11  2  0
 13 11  1  0
 14 13  1  0
 14 15  1  0
 15 17  1  0
 16 15  2  0
M  END
$$$$
