AVG.pdb
     RDKit          3D

 17 16  0  0  1  0  0  0  0  0999 V2000
   17.6257  -10.9589  -17.1462 C   0  0  0  0  0  0  0  0  0  0  0  0
   18.9070  -11.5866  -16.6030 C   0  0  2  0  0  0  0  0  0  0  0  0
   18.4619  -12.8458  -15.9881 N   0  0  0  0  0  0  0  0  0  0  0  0
   19.4565  -10.7433  -15.4879 C   0  0  0  0  0  0  0  0  0  0  0  0
   18.8373  -10.6013  -14.4026 O   0  0  0  0  0  0  0  0  0  0  0  0
   23.5501   -9.5596  -15.5159 C   0  0  0  0  0  0  0  0  0  0  0  0
   22.7072   -9.6810  -14.2374 C   0  0  2  0  0  0  0  0  0  0  0  0
   22.7391  -11.1409  -13.8720 C   0  0  0  0  0  0  0  0  0  0  0  0
   21.2651   -9.3186  -14.5363 C   0  0  2  0  0  0  0  0  0  0  0  0
   20.7140  -10.0684  -15.6180 N   0  0  0  0  0  0  0  0  0  0  0  0
   21.0853   -7.8745  -14.7314 C   0  0  0  0  0  0  0  0  0  0  0  0
   21.4669   -7.0389  -13.8547 O   0  0  0  0  0  0  0  0  0  0  0  0
   20.4845   -7.3018  -15.8931 N   0  0  0  0  0  0  0  0  0  0  0  0
   20.2870   -5.8808  -16.0897 C   0  0  0  0  0  0  0  0  0  0  0  0
   18.9571   -5.5347  -15.5327 C   0  0  0  0  0  0  0  0  0  0  0  0
   18.2109   -6.3933  -14.9943 O   0  0  0  0  0  0  0  0  0  0  0  0
   18.4526   -4.2259  -15.5771 O   0  0  0  0  0  0  0  0  0  0  0  0
  2  4  1  0
  2  1  1  1
  3  2  1  0
  4  5  2  0
  7  6  1  6
  7  8  1  0
  7  9  1  0
  9 10  1  6
 10  4  1  0
 11  9  1  0
 12 11  2  0
 13 11  1  0
 14 13  1  0
 14 15  1  0
 15 17  1  0
 16 15  2  0
M  END
$$$$
