AVG.pdb
     RDKit          3D

 17 16  0  0  1  0  0  0  0  0999 V2000
   17.4445  -12.8824  -15.8931 C   0  0  0  0  0  0  0  0  0  0  0  0
   16.6581  -12.7890  -14.5878 C   0  0  2  0  0  0  0  0  0  0  0  0
   15.3950  -13.4846  -14.8746 N   0  0  0  0  0  0  0  0  0  0  0  0
   16.2981  -11.3574  -14.3094 C   0  0  0  0  0  0  0  0  0  0  0  0
   15.5165  -10.7170  -15.0580 O   0  0  0  0  0  0  0  0  0  0  0  0
   16.6874   -9.6623  -10.4452 C   0  0  0  0  0  0  0  0  0  0  0  0
   15.7978   -9.1168  -11.5725 C   0  0  2  0  0  0  0  0  0  0  0  0
   14.5698   -9.9875  -11.5724 C   0  0  0  0  0  0  0  0  0  0  0  0
   16.4888   -9.3056  -12.9094 C   0  0  2  0  0  0  0  0  0  0  0  0
   16.8313  -10.6653  -13.1734 N   0  0  0  0  0  0  0  0  0  0  0  0
   17.6459   -8.4154  -13.0660 C   0  0  0  0  0  0  0  0  0  0  0  0
   18.7809   -8.7197  -12.5846 O   0  0  0  0  0  0  0  0  0  0  0  0
   17.5958   -7.1667  -13.7564 N   0  0  0  0  0  0  0  0  0  0  0  0
   18.7165   -6.2573  -13.8743 C   0  0  0  0  0  0  0  0  0  0  0  0
   18.3275   -5.1926  -14.8301 C   0  0  0  0  0  0  0  0  0  0  0  0
   17.2888   -5.2715  -15.5363 O   0  0  0  0  0  0  0  0  0  0  0  0
   19.1000   -4.0340  -15.0039 O   0  0  0  0  0  0  0  0  0  0  0  0
  2  4  1  0
  2  1  1  6
  3  2  1  0
  4  5  2  0
  7  6  1  1
  7  8  1  0
  7  9  1  0
  9 10  1  1
 10  4  1  0
 11  9  1  0
 12 11  2  0
 13 11  1  0
 14 13  1  0
 14 15  1  0
 15 17  1  0
 16 15  2  0
M  END
$$$$
