AVG.pdb
     RDKit          3D

 17 16  0  0  1  0  0  0  0  0999 V2000
   17.8706   -9.6157  -18.6196 C   0  0  0  0  0  0  0  0  0  0  0  0
   19.0340  -10.5558  -18.3138 C   0  0  2  0  0  0  0  0  0  0  0  0
   18.4376  -11.8988  -18.3614 N   0  0  0  0  0  0  0  0  0  0  0  0
   19.4993  -10.3503  -16.9004 C   0  0  0  0  0  0  0  0  0  0  0  0
   18.7356  -10.5449  -15.9204 O   0  0  0  0  0  0  0  0  0  0  0  0
   22.9088  -10.1849  -13.4534 C   0  0  0  0  0  0  0  0  0  0  0  0
   22.5156  -10.4799  -14.9087 C   0  0  2  0  0  0  0  0  0  0  0  0
   23.6455   -9.9445  -15.7468 C   0  0  0  0  0  0  0  0  0  0  0  0
   21.2687   -9.6968  -15.2729 C   0  0  2  0  0  0  0  0  0  0  0  0
   20.8378   -9.9258  -16.6137 N   0  0  0  0  0  0  0  0  0  0  0  0
   21.4109   -8.2637  -14.9871 C   0  0  0  0  0  0  0  0  0  0  0  0
   21.6159   -7.8448  -13.8060 O   0  0  0  0  0  0  0  0  0  0  0  0
   21.3354   -7.2464  -15.9860 N   0  0  0  0  0  0  0  0  0  0  0  0
   21.4887   -5.8314  -15.7188 C   0  0  0  0  0  0  0  0  0  0  0  0
   20.1365   -5.2237  -15.7473 C   0  0  0  0  0  0  0  0  0  0  0  0
   19.0967   -5.9086  -15.9305 O   0  0  0  0  0  0  0  0  0  0  0  0
   19.9395   -3.8452  -15.5737 O   0  0  0  0  0  0  0  0  0  0  0  0
  2  4  1  0
  2  1  1  1
  3  2  1  0
  4  5  2  0
  7  6  1  1
  7  8  1  0
  7  9  1  0
  9 10  1  6
 10  4  1  0
 11  9  1  0
 12 11  2  0
 13 11  1  0
 14 13  1  0
 14 15  1  0
 15 17  1  0
 16 15  2  0
M  END
$$$$
