AVG.pdb
     RDKit          3D

 17 16  0  0  1  0  0  0  0  0999 V2000
   22.6213   -9.4402  -20.5947 C   0  0  0  0  0  0  0  0  0  0  0  0
   22.8761   -8.3913  -19.5150 C   0  0  2  0  0  0  0  0  0  0  0  0
   24.2358   -8.6839  -19.0383 N   0  0  0  0  0  0  0  0  0  0  0  0
   21.9599   -8.6262  -18.3479 C   0  0  0  0  0  0  0  0  0  0  0  0
   20.7106   -8.5374  -18.4626 O   0  0  0  0  0  0  0  0  0  0  0  0
   20.6981  -10.8147  -14.2774 C   0  0  0  0  0  0  0  0  0  0  0  0
   21.8074  -10.5551  -15.3079 C   0  0  2  0  0  0  0  0  0  0  0  0
   23.0859  -10.4954  -14.5157 C   0  0  0  0  0  0  0  0  0  0  0  0
   21.6055   -9.1952  -15.9485 C   0  0  2  0  0  0  0  0  0  0  0  0
   22.4766   -8.9648  -17.0548 N   0  0  0  0  0  0  0  0  0  0  0  0
   21.6752   -8.1046  -14.9680 C   0  0  0  0  0  0  0  0  0  0  0  0
   20.8625   -8.0413  -13.9943 O   0  0  0  0  0  0  0  0  0  0  0  0
   22.6381   -7.0519  -15.0227 N   0  0  0  0  0  0  0  0  0  0  0  0
   22.7826   -6.0286  -14.0082 C   0  0  0  0  0  0  0  0  0  0  0  0
   21.9377   -4.8789  -14.4117 C   0  0  0  0  0  0  0  0  0  0  0  0
   21.0235   -4.9865  -15.2699 O   0  0  0  0  0  0  0  0  0  0  0  0
   22.1123   -3.6008  -13.8593 O   0  0  0  0  0  0  0  0  0  0  0  0
  2  4  1  0
  2  1  1  6
  3  2  1  0
  4  5  2  0
  7  6  1  1
  7  8  1  0
  7  9  1  0
  9 10  1  6
 10  4  1  0
 11  9  1  0
 12 11  2  0
 13 11  1  0
 14 13  1  0
 14 15  1  0
 15 17  1  0
 16 15  2  0
M  END
$$$$
