AVG.pdb
     RDKit          3D

 17 16  0  0  1  0  0  0  0  0999 V2000
   40.2391   -9.4006  -12.6342 C   0  0  0  0  0  0  0  0  0  0  0  0
   39.5558  -10.5703  -13.3382 C   0  0  2  0  0  0  0  0  0  0  0  0
   40.6096  -11.1509  -14.1833 N   0  0  0  0  0  0  0  0  0  0  0  0
   38.4990  -10.0568  -14.2742 C   0  0  0  0  0  0  0  0  0  0  0  0
   38.7782   -9.6843  -15.4425 O   0  0  0  0  0  0  0  0  0  0  0  0
   34.4391  -11.0628  -13.7424 C   0  0  0  0  0  0  0  0  0  0  0  0
   35.0657  -10.5817  -15.0599 C   0  0  2  0  0  0  0  0  0  0  0  0
   35.7743  -11.7813  -15.6296 C   0  0  0  0  0  0  0  0  0  0  0  0
   36.1167   -9.5263  -14.7738 C   0  0  2  0  0  0  0  0  0  0  0  0
   37.1263   -9.9746  -13.8707 N   0  0  0  0  0  0  0  0  0  0  0  0
   35.5229   -8.2570  -14.3353 C   0  0  0  0  0  0  0  0  0  0  0  0
   35.4066   -7.9754  -13.1025 O   0  0  0  0  0  0  0  0  0  0  0  0
   35.0410   -7.2571  -15.2332 N   0  0  0  0  0  0  0  0  0  0  0  0
   34.4168   -6.0197  -14.8131 C   0  0  0  0  0  0  0  0  0  0  0  0
   35.4824   -4.9930  -14.7187 C   0  0  0  0  0  0  0  0  0  0  0  0
   36.6961   -5.2659  -14.9094 O   0  0  0  0  0  0  0  0  0  0  0  0
   35.1969   -3.6547  -14.4076 O   0  0  0  0  0  0  0  0  0  0  0  0
  2  4  1  0
  2  1  1  6
  3  2  1  0
  4  5  2  0
  7  6  1  1
  7  8  1  0
  7  9  1  0
  9 10  1  1
 10  4  1  0
 11  9  1  0
 12 11  2  0
 13 11  1  0
 14 13  1  0
 14 15  1  0
 15 17  1  0
 16 15  2  0
M  END
$$$$
