AVG.pdb
     RDKit          3D

 17 16  0  0  1  0  0  0  0  0999 V2000
   15.9964   -9.8192  -16.7719 C   0  0  0  0  0  0  0  0  0  0  0  0
   17.2154  -10.7318  -16.8808 C   0  0  2  0  0  0  0  0  0  0  0  0
   16.7073  -12.0616  -16.5132 N   0  0  0  0  0  0  0  0  0  0  0  0
   18.2263  -10.3616  -15.8331 C   0  0  0  0  0  0  0  0  0  0  0  0
   18.0725  -10.6820  -14.6268 O   0  0  0  0  0  0  0  0  0  0  0  0
   22.5799   -9.4047  -14.1088 C   0  0  0  0  0  0  0  0  0  0  0  0
   21.6632   -9.9088  -15.2336 C   0  0  2  0  0  0  0  0  0  0  0  0
   22.3307   -9.4874  -16.5153 C   0  0  0  0  0  0  0  0  0  0  0  0
   20.3250   -9.1984  -15.1631 C   0  0  2  0  0  0  0  0  0  0  0  0
   19.4109   -9.6289  -16.1705 N   0  0  0  0  0  0  0  0  0  0  0  0
   20.4725   -7.7376  -15.1544 C   0  0  0  0  0  0  0  0  0  0  0  0
   20.7361   -7.0958  -16.2180 O   0  0  0  0  0  0  0  0  0  0  0  0
   20.3334   -6.9352  -13.9817 N   0  0  0  0  0  0  0  0  0  0  0  0
   20.4170   -5.4896  -13.9709 C   0  0  0  0  0  0  0  0  0  0  0  0
   21.8540   -5.1262  -14.0116 C   0  0  0  0  0  0  0  0  0  0  0  0
   22.7647   -5.9636  -13.7812 O   0  0  0  0  0  0  0  0  0  0  0  0
   22.2808   -3.8226  -14.3076 O   0  0  0  0  0  0  0  0  0  0  0  0
  2  4  1  0
  2  1  1  1
  3  2  1  0
  4  5  2  0
  7  6  1  1
  7  8  1  0
  7  9  1  0
  9 10  1  6
 10  4  1  0
 11  9  1  0
 12 11  2  0
 13 11  1  0
 14 13  1  0
 14 15  1  0
 15 17  1  0
 16 15  2  0
M  END
$$$$
