AVG.pdb
     RDKit          3D

 17 16  0  0  1  0  0  0  0  0999 V2000
   17.2349  -10.7873  -17.1114 C   0  0  0  0  0  0  0  0  0  0  0  0
   17.8790   -9.4226  -16.8803 C   0  0  2  0  0  0  0  0  0  0  0  0
   18.6646   -9.1809  -18.0993 N   0  0  0  0  0  0  0  0  0  0  0  0
   18.8666   -9.5081  -15.7516 C   0  0  0  0  0  0  0  0  0  0  0  0
   18.5045   -9.7804  -14.5784 O   0  0  0  0  0  0  0  0  0  0  0  0
   21.9460  -11.6573  -14.9232 C   0  0  0  0  0  0  0  0  0  0  0  0
   22.3770  -10.1947  -15.1091 C   0  0  2  0  0  0  0  0  0  0  0  0
   23.3701   -9.9256  -14.0104 C   0  0  0  0  0  0  0  0  0  0  0  0
   21.1906   -9.2768  -14.8844 C   0  0  2  0  0  0  0  0  0  0  0  0
   20.2652   -9.2849  -15.9704 N   0  0  0  0  0  0  0  0  0  0  0  0
   21.6039   -7.9118  -14.5352 C   0  0  0  0  0  0  0  0  0  0  0  0
   22.2022   -7.6639  -13.4429 O   0  0  0  0  0  0  0  0  0  0  0  0
   21.3769   -6.7779  -15.3724 N   0  0  0  0  0  0  0  0  0  0  0  0
   21.8998   -5.4538  -15.1074 C   0  0  0  0  0  0  0  0  0  0  0  0
   20.7932   -4.6419  -14.5462 C   0  0  0  0  0  0  0  0  0  0  0  0
   20.9310   -3.4230  -14.2649 O   0  0  0  0  0  0  0  0  0  0  0  0
   19.5262   -5.1897  -14.2935 O   0  0  0  0  0  0  0  0  0  0  0  0
  2  4  1  0
  2  1  1  6
  3  2  1  0
  4  5  2  0
  7  6  1  1
  7  8  1  0
  7  9  1  0
  9 10  1  6
 10  4  1  0
 11  9  1  0
 12 11  2  0
 13 11  1  0
 14 13  1  0
 14 15  1  0
 15 17  1  0
 16 15  2  0
M  END
$$$$
