AVG.pdb
     RDKit          3D

 17 16  0  0  1  0  0  0  0  0999 V2000
   17.2343  -10.0814  -17.8624 C   0  0  0  0  0  0  0  0  0  0  0  0
   18.2064  -11.1711  -17.4172 C   0  0  2  0  0  0  0  0  0  0  0  0
   17.3601  -12.1484  -16.7170 N   0  0  0  0  0  0  0  0  0  0  0  0
   19.1549  -10.6215  -16.3903 C   0  0  0  0  0  0  0  0  0  0  0  0
   18.7801  -10.3650  -15.2175 O   0  0  0  0  0  0  0  0  0  0  0  0
   22.3773  -12.2188  -15.2164 C   0  0  0  0  0  0  0  0  0  0  0  0
   22.7159  -10.7918  -15.6734 C   0  0  2  0  0  0  0  0  0  0  0  0
   23.6071  -10.2268  -14.5999 C   0  0  0  0  0  0  0  0  0  0  0  0
   21.4546   -9.9501  -15.7066 C   0  0  2  0  0  0  0  0  0  0  0  0
   20.5295  -10.3704  -16.7084 N   0  0  0  0  0  0  0  0  0  0  0  0
   21.7481   -8.5151  -15.8085 C   0  0  0  0  0  0  0  0  0  0  0  0
   22.2892   -8.0257  -16.8479 O   0  0  0  0  0  0  0  0  0  0  0  0
   21.4560   -7.5725  -14.7767 N   0  0  0  0  0  0  0  0  0  0  0  0
   21.8304   -6.1744  -14.8228 C   0  0  0  0  0  0  0  0  0  0  0  0
   22.0202   -5.7178  -13.4249 C   0  0  0  0  0  0  0  0  0  0  0  0
   21.7561   -6.4520  -12.4375 O   0  0  0  0  0  0  0  0  0  0  0  0
   22.5041   -4.4356  -13.1231 O   0  0  0  0  0  0  0  0  0  0  0  0
  2  4  1  0
  2  1  1  1
  3  2  1  0
  4  5  2  0
  7  6  1  1
  7  8  1  0
  7  9  1  0
  9 10  1  6
 10  4  1  0
 11  9  1  0
 12 11  2  0
 13 11  1  0
 14 13  1  0
 14 15  1  0
 15 17  1  0
 16 15  2  0
M  END
$$$$
