AVG.pdb
     RDKit          3D

 17 16  0  0  1  0  0  0  0  0999 V2000
   17.6607   -8.7911  -18.9875 C   0  0  0  0  0  0  0  0  0  0  0  0
   18.9857   -9.5350  -18.8404 C   0  0  2  0  0  0  0  0  0  0  0  0
   18.6850  -10.9035  -19.2860 N   0  0  0  0  0  0  0  0  0  0  0  0
   19.3569   -9.6358  -17.3883 C   0  0  0  0  0  0  0  0  0  0  0  0
   18.7200  -10.3755  -16.5952 O   0  0  0  0  0  0  0  0  0  0  0  0
   22.0986  -11.1454  -15.1866 C   0  0  0  0  0  0  0  0  0  0  0  0
   22.2089   -9.6167  -15.2891 C   0  0  2  0  0  0  0  0  0  0  0  0
   22.7214   -9.1599  -13.9495 C   0  0  0  0  0  0  0  0  0  0  0  0
   20.8300   -9.0136  -15.4781 C   0  0  2  0  0  0  0  0  0  0  0  0
   20.4573   -8.8922  -16.8500 N   0  0  0  0  0  0  0  0  0  0  0  0
   20.6784   -7.7413  -14.7611 C   0  0  0  0  0  0  0  0  0  0  0  0
   20.6927   -7.6946  -13.4921 O   0  0  0  0  0  0  0  0  0  0  0  0
   20.5089   -6.4818  -15.4117 N   0  0  0  0  0  0  0  0  0  0  0  0
   20.2840   -5.2314  -14.7168 C   0  0  0  0  0  0  0  0  0  0  0  0
   21.6113   -4.6341  -14.4337 C   0  0  0  0  0  0  0  0  0  0  0  0
   22.6631   -5.3240  -14.3949 O   0  0  0  0  0  0  0  0  0  0  0  0
   21.7695   -3.2613  -14.1892 O   0  0  0  0  0  0  0  0  0  0  0  0
  2  4  1  0
  2  1  1  1
  3  2  1  0
  4  5  2  0
  7  6  1  1
  7  8  1  0
  7  9  1  0
  9 10  1  6
 10  4  1  0
 11  9  1  0
 12 11  2  0
 13 11  1  0
 14 13  1  0
 14 15  1  0
 15 17  1  0
 16 15  2  0
M  END
$$$$
