AVG.pdb
     RDKit          3D

 17 16  0  0  1  0  0  0  0  0999 V2000
   21.1241  -23.3052  -15.3573 C   0  0  0  0  0  0  0  0  0  0  0  0
   21.0819  -23.2496  -13.8322 C   0  0  2  0  0  0  0  0  0  0  0  0
   19.6729  -22.9707  -13.5180 N   0  0  0  0  0  0  0  0  0  0  0  0
   21.8660  -22.0657  -13.3420 C   0  0  0  0  0  0  0  0  0  0  0  0
   21.3372  -20.9317  -13.2155 O   0  0  0  0  0  0  0  0  0  0  0  0
   25.5400  -20.0437  -10.8729 C   0  0  0  0  0  0  0  0  0  0  0  0
   24.8679  -21.3393  -11.3519 C   0  0  2  0  0  0  0  0  0  0  0  0
   25.9927  -22.2342  -11.7989 C   0  0  0  0  0  0  0  0  0  0  0  0
   24.0055  -21.0522  -12.5662 C   0  0  2  0  0  0  0  0  0  0  0  0
   23.2515  -22.1849  -12.9955 N   0  0  0  0  0  0  0  0  0  0  0  0
   24.7779  -20.4662  -13.6688 C   0  0  0  0  0  0  0  0  0  0  0  0
   25.9788  -20.8150  -13.8899 O   0  0  0  0  0  0  0  0  0  0  0  0
   24.2581  -19.4829  -14.5639 N   0  0  0  0  0  0  0  0  0  0  0  0
   25.0014  -18.9164  -15.6702 C   0  0  0  0  0  0  0  0  0  0  0  0
   24.0984  -17.9784  -16.3796 C   0  0  0  0  0  0  0  0  0  0  0  0
   22.8902  -17.8368  -16.0571 O   0  0  0  0  0  0  0  0  0  0  0  0
   24.5411  -17.1949  -17.4564 O   0  0  0  0  0  0  0  0  0  0  0  0
  2  4  1  0
  2  1  1  6
  3  2  1  0
  4  5  2  0
  7  6  1  6
  7  8  1  0
  7  9  1  0
  9 10  1  6
 10  4  1  0
 11  9  1  0
 12 11  2  0
 13 11  1  0
 14 13  1  0
 14 15  1  0
 15 17  1  0
 16 15  2  0
M  END
$$$$
