AVG.pdb
     RDKit          3D

 17 16  0  0  1  0  0  0  0  0999 V2000
   27.0058  -21.8833  -16.0069 C   0  0  0  0  0  0  0  0  0  0  0  0
   28.3736  -22.0812  -16.6554 C   0  0  2  0  0  0  0  0  0  0  0  0
   28.4342  -21.0462  -17.6979 N   0  0  0  0  0  0  0  0  0  0  0  0
   28.4146  -23.4024  -17.3691 C   0  0  0  0  0  0  0  0  0  0  0  0
   27.8738  -23.5609  -18.4934 O   0  0  0  0  0  0  0  0  0  0  0  0
   31.5480  -26.1492  -16.8012 C   0  0  0  0  0  0  0  0  0  0  0  0
   30.5891  -26.0516  -17.9973 C   0  0  2  0  0  0  0  0  0  0  0  0
   31.0443  -24.8492  -18.7803 C   0  0  0  0  0  0  0  0  0  0  0  0
   29.1823  -25.7684  -17.5064 C   0  0  2  0  0  0  0  0  0  0  0  0
   29.0770  -24.5361  -16.7950 N   0  0  0  0  0  0  0  0  0  0  0  0
   28.6284  -26.8881  -16.7349 C   0  0  0  0  0  0  0  0  0  0  0  0
   28.7407  -26.9364  -15.4708 O   0  0  0  0  0  0  0  0  0  0  0  0
   27.9330  -27.9873  -17.3236 N   0  0  0  0  0  0  0  0  0  0  0  0
   27.3530  -29.0798  -16.5706 C   0  0  0  0  0  0  0  0  0  0  0  0
   28.3654  -30.1611  -16.5031 C   0  0  0  0  0  0  0  0  0  0  0  0
   29.5028  -30.0493  -17.0301 O   0  0  0  0  0  0  0  0  0  0  0  0
   28.1104  -31.3756  -15.8479 O   0  0  0  0  0  0  0  0  0  0  0  0
  2  4  1  0
  2  1  1  6
  3  2  1  0
  4  5  2  0
  7  6  1  1
  7  8  1  0
  7  9  1  0
  9 10  1  1
 10  4  1  0
 11  9  1  0
 12 11  2  0
 13 11  1  0
 14 13  1  0
 14 15  1  0
 15 17  1  0
 16 15  2  0
M  END
$$$$
