AVG.pdb
     RDKit          3D

 17 16  0  0  1  0  0  0  0  0999 V2000
   17.7846   -8.2474  -17.2778 C   0  0  0  0  0  0  0  0  0  0  0  0
   18.6850   -9.4084  -16.8629 C   0  0  2  0  0  0  0  0  0  0  0  0
   17.7487  -10.4834  -16.5033 N   0  0  0  0  0  0  0  0  0  0  0  0
   19.4264   -9.0559  -15.6048 C   0  0  0  0  0  0  0  0  0  0  0  0
   18.8603   -9.0652  -14.4818 O   0  0  0  0  0  0  0  0  0  0  0  0
   23.6055   -9.4077  -15.3386 C   0  0  0  0  0  0  0  0  0  0  0  0
   22.6516   -9.3316  -14.1370 C   0  0  2  0  0  0  0  0  0  0  0  0
   22.0534  -10.7072  -14.0109 C   0  0  0  0  0  0  0  0  0  0  0  0
   21.5190   -8.3694  -14.4401 C   0  0  2  0  0  0  0  0  0  0  0  0
   20.8135   -8.6971  -15.6363 N   0  0  0  0  0  0  0  0  0  0  0  0
   21.9650   -6.9705  -14.4404 C   0  0  0  0  0  0  0  0  0  0  0  0
   22.5144   -6.4546  -15.4625 O   0  0  0  0  0  0  0  0  0  0  0  0
   21.8207   -6.0939  -13.3229 N   0  0  0  0  0  0  0  0  0  0  0  0
   22.3349   -4.7408  -13.2791 C   0  0  0  0  0  0  0  0  0  0  0  0
   21.2830   -3.8469  -13.8204 C   0  0  0  0  0  0  0  0  0  0  0  0
   20.1743   -4.2835  -14.2252 O   0  0  0  0  0  0  0  0  0  0  0  0
   21.4663   -2.4588  -13.9147 O   0  0  0  0  0  0  0  0  0  0  0  0
  2  4  1  0
  2  1  1  1
  3  2  1  0
  4  5  2  0
  7  6  1  6
  7  8  1  0
  7  9  1  0
  9 10  1  6
 10  4  1  0
 11  9  1  0
 12 11  2  0
 13 11  1  0
 14 13  1  0
 14 15  1  0
 15 17  1  0
 16 15  2  0
M  END
$$$$
