LKD.pdb
     RDKit          3D

 26 25  0  0  1  0  0  0  0  0999 V2000
    7.1722  -12.0137   19.1780 C   0  0  0  0  0  0  0  0  0  0  0  0
    7.2562  -13.4606   19.5915 C   0  0  1  0  0  0  0  0  0  0  0  0
    8.2650  -14.2313   18.7698 C   0  0  0  0  0  0  0  0  0  0  0  0
    7.6619  -13.6089   21.0481 C   0  0  0  0  0  0  0  0  0  0  0  0
    7.4942  -15.0771   21.3703 C   0  0  2  0  0  0  0  0  0  0  0  0
    6.0660  -15.3480   21.1380 N   0  0  0  0  0  0  0  0  0  0  0  0
    7.8172  -15.4118   22.7560 C   0  0  0  0  0  0  0  0  0  0  0  0
    7.6984  -14.5205   23.6415 O   0  0  0  0  0  0  0  0  0  0  0  0
    8.2538  -16.7015   23.1092 N   0  0  0  0  0  0  0  0  0  0  0  0
    8.6439  -17.0606   24.5122 C   0  0  1  0  0  0  0  0  0  0  0  0
    7.7225  -18.1350   24.9798 C   0  0  0  0  0  0  0  0  0  0  0  0
    8.0227  -18.6854   26.3354 C   0  0  0  0  0  0  0  0  0  0  0  0
    7.0654  -19.8256   26.6338 C   0  0  0  0  0  0  0  0  0  0  0  0
    7.4070  -20.4056   28.0012 C   0  0  0  0  0  0  0  0  0  0  0  0
    6.3962  -21.4053   28.3233 N   0  0  0  0  0  0  0  0  0  0  0  0
   10.0736  -17.4604   24.4818 C   0  0  0  0  0  0  0  0  0  0  0  0
   10.4437  -18.3575   23.6496 O   0  0  0  0  0  0  0  0  0  0  0  0
   11.0893  -16.9299   25.2987 N   0  0  0  0  0  0  0  0  0  0  0  0
   12.4169  -17.6157   25.3866 C   0  0  1  0  0  0  0  0  0  0  0  0
   13.4600  -16.6072   25.0369 C   0  0  0  0  0  0  0  0  0  0  0  0
   13.5882  -16.2874   23.6182 C   0  0  0  0  0  0  0  0  0  0  0  0
   12.8931  -16.8047   22.7205 O   0  0  0  0  0  0  0  0  0  0  0  0
   12.5405  -18.1401   26.7650 C   0  0  0  0  0  0  0  0  0  0  0  0
   11.6149  -17.8592   27.7247 O   0  0  0  0  0  0  0  0  0  0  0  0
   14.5411  -15.3440   23.2003 O   0  0  0  0  0  0  0  0  0  0  0  0
   13.5157  -18.8637   27.0811 O   0  0  0  0  0  0  0  0  0  0  0  0
  2  1  1  6
  2  3  1  0
  4  2  1  0
  5  4  1  0
  5  6  1  1
  7  5  1  0
  8  7  2  0
  9  7  1  0
 10  9  1  0
 11 12  1  0
 10 11  1  6
 13 14  1  0
 13 12  1  0
 14 15  1  0
 16 18  1  0
 16 10  1  0
 17 16  2  0
 19 20  1  1
 19 18  1  0
 20 21  1  0
 21 22  2  0
 21 25  1  0
 23 24  1  0
 23 19  1  0
 26 23  2  0
M  END
$$$$
