LKD.pdb
     RDKit          3D

 26 25  0  0  1  0  0  0  0  0999 V2000
    7.7272  -12.2299   28.0817 C   0  0  0  0  0  0  0  0  0  0  0  0
    6.8545  -13.1031   27.2173 C   0  0  1  0  0  0  0  0  0  0  0  0
    5.8722  -12.2957   26.3987 C   0  0  0  0  0  0  0  0  0  0  0  0
    7.6737  -13.9301   26.2409 C   0  0  0  0  0  0  0  0  0  0  0  0
    6.6667  -14.6612   25.3813 C   0  0  2  0  0  0  0  0  0  0  0  0
    6.2315  -15.8004   26.2057 N   0  0  0  0  0  0  0  0  0  0  0  0
    7.2270  -15.1718   24.1314 C   0  0  0  0  0  0  0  0  0  0  0  0
    7.5920  -16.3786   24.0757 O   0  0  0  0  0  0  0  0  0  0  0  0
    7.3620  -14.3425   23.0033 N   0  0  0  0  0  0  0  0  0  0  0  0
    8.0119  -14.8115   21.7356 C   0  0  1  0  0  0  0  0  0  0  0  0
    7.8951  -13.7155   20.7320 C   0  0  0  0  0  0  0  0  0  0  0  0
    8.6716  -13.9203   19.4727 C   0  0  0  0  0  0  0  0  0  0  0  0
    7.7065  -14.0564   18.3085 C   0  0  0  0  0  0  0  0  0  0  0  0
    8.5075  -14.3090   17.0366 C   0  0  0  0  0  0  0  0  0  0  0  0
    7.5656  -14.3753   15.9260 N   0  0  0  0  0  0  0  0  0  0  0  0
    9.4111  -15.1796   22.0695 C   0  0  0  0  0  0  0  0  0  0  0  0
   10.1056  -14.3754   22.7802 O   0  0  0  0  0  0  0  0  0  0  0  0
   10.0631  -16.3620   21.6730 N   0  0  0  0  0  0  0  0  0  0  0  0
   11.4643  -16.6339   22.1238 C   0  0  1  0  0  0  0  0  0  0  0  0
   11.5853  -18.1073   22.3286 C   0  0  0  0  0  0  0  0  0  0  0  0
   12.8892  -18.5839   22.7802 C   0  0  0  0  0  0  0  0  0  0  0  0
   13.8847  -17.8485   22.9387 O   0  0  0  0  0  0  0  0  0  0  0  0
   12.3646  -16.1075   21.0738 C   0  0  0  0  0  0  0  0  0  0  0  0
   13.5322  -15.4757   21.3811 O   0  0  0  0  0  0  0  0  0  0  0  0
   13.0725  -19.9472   23.0639 O   0  0  0  0  0  0  0  0  0  0  0  0
   12.0647  -16.2338   19.8620 O   0  0  0  0  0  0  0  0  0  0  0  0
  2  1  1  6
  2  3  1  0
  4  2  1  0
  5  4  1  0
  5  6  1  1
  7  5  1  0
  8  7  2  0
  9  7  1  0
 10  9  1  0
 11 12  1  0
 10 11  1  6
 13 14  1  0
 13 12  1  0
 14 15  1  0
 16 18  1  0
 16 10  1  0
 17 16  2  0
 19 20  1  6
 19 18  1  0
 20 21  1  0
 21 22  2  0
 21 25  1  0
 23 24  1  0
 23 19  1  0
 26 23  2  0
M  END
$$$$
