LKD.pdb
     RDKit          3D

 26 25  0  0  1  0  0  0  0  0999 V2000
    7.3216  -12.0675   19.3117 C   0  0  0  0  0  0  0  0  0  0  0  0
    8.5154  -12.9696   19.4916 C   0  0  1  0  0  0  0  0  0  0  0  0
    9.7163  -12.2261   20.0319 C   0  0  0  0  0  0  0  0  0  0  0  0
    8.2241  -14.1061   20.4568 C   0  0  0  0  0  0  0  0  0  0  0  0
    9.5386  -14.8310   20.6414 C   0  0  2  0  0  0  0  0  0  0  0  0
    9.9574  -15.1946   19.2777 N   0  0  0  0  0  0  0  0  0  0  0  0
    9.4264  -16.0502   21.4398 C   0  0  0  0  0  0  0  0  0  0  0  0
    8.6426  -16.0607   22.4289 O   0  0  0  0  0  0  0  0  0  0  0  0
   10.1737  -17.1986   21.1214 N   0  0  0  0  0  0  0  0  0  0  0  0
   10.0039  -18.4956   21.8552 C   0  0  1  0  0  0  0  0  0  0  0  0
   10.2026  -19.6018   20.8760 C   0  0  0  0  0  0  0  0  0  0  0  0
    9.0102  -19.9335   20.0400 C   0  0  0  0  0  0  0  0  0  0  0  0
    9.3655  -21.0645   19.0913 C   0  0  0  0  0  0  0  0  0  0  0  0
    8.1344  -21.4125   18.2628 C   0  0  0  0  0  0  0  0  0  0  0  0
    8.5096  -22.4738   17.3366 N   0  0  0  0  0  0  0  0  0  0  0  0
   10.9783  -18.4971   22.9757 C   0  0  0  0  0  0  0  0  0  0  0  0
   12.0937  -17.8917   22.8214 O   0  0  0  0  0  0  0  0  0  0  0  0
   10.7862  -19.1125   24.2265 N   0  0  0  0  0  0  0  0  0  0  0  0
   11.8747  -19.0813   25.2536 C   0  0  1  0  0  0  0  0  0  0  0  0
   11.2183  -19.0096   26.5920 C   0  0  0  0  0  0  0  0  0  0  0  0
   12.1008  -19.1640   27.7447 C   0  0  0  0  0  0  0  0  0  0  0  0
   13.3392  -19.2923   27.6635 O   0  0  0  0  0  0  0  0  0  0  0  0
   12.6866  -20.3031   25.0584 C   0  0  0  0  0  0  0  0  0  0  0  0
   12.2292  -21.3589   24.3283 O   0  0  0  0  0  0  0  0  0  0  0  0
   11.5589  -19.1733   29.0405 O   0  0  0  0  0  0  0  0  0  0  0  0
   13.8288  -20.3918   25.5702 O   0  0  0  0  0  0  0  0  0  0  0  0
  2  1  1  1
  2  3  1  0
  4  2  1  0
  5  4  1  0
  5  6  1  6
  7  5  1  0
  8  7  2  0
  9  7  1  0
 10  9  1  0
 11 12  1  0
 10 11  1  6
 13 14  1  0
 13 12  1  0
 14 15  1  0
 16 18  1  0
 16 10  1  0
 17 16  2  0
 19 20  1  1
 19 18  1  0
 20 21  1  0
 21 22  2  0
 21 25  1  0
 23 24  1  0
 23 19  1  0
 26 23  2  0
M  END
$$$$
