LKD.pdb
     RDKit          3D

 26 25  0  0  1  0  0  0  0  0999 V2000
    7.1846  -12.1519   28.1739 C   0  0  0  0  0  0  0  0  0  0  0  0
    6.4595  -13.1559   27.3151 C   0  0  1  0  0  0  0  0  0  0  0  0
    5.5521  -12.4920   26.3038 C   0  0  0  0  0  0  0  0  0  0  0  0
    7.4241  -14.0356   26.5379 C   0  0  0  0  0  0  0  0  0  0  0  0
    6.5581  -14.9300   25.6790 C   0  0  2  0  0  0  0  0  0  0  0  0
    6.2385  -16.0785   26.5427 N   0  0  0  0  0  0  0  0  0  0  0  0
    7.2332  -15.4181   24.4779 C   0  0  0  0  0  0  0  0  0  0  0  0
    7.7274  -16.5793   24.4862 O   0  0  0  0  0  0  0  0  0  0  0  0
    7.3366  -14.6170   23.3263 N   0  0  0  0  0  0  0  0  0  0  0  0
    8.0593  -15.0730   22.0937 C   0  0  1  0  0  0  0  0  0  0  0  0
    7.8886  -14.0214   21.0510 C   0  0  0  0  0  0  0  0  0  0  0  0
    8.5945  -14.2837   19.7612 C   0  0  0  0  0  0  0  0  0  0  0  0
    7.8551  -13.5811   18.6364 C   0  0  0  0  0  0  0  0  0  0  0  0
    8.5857  -13.8526   17.3266 C   0  0  0  0  0  0  0  0  0  0  0  0
    7.9608  -13.0358   16.2935 N   0  0  0  0  0  0  0  0  0  0  0  0
    9.4719  -15.3197   22.4788 C   0  0  0  0  0  0  0  0  0  0  0  0
   10.0568  -14.4783   23.2433 O   0  0  0  0  0  0  0  0  0  0  0  0
   10.2492  -16.4219   22.0772 N   0  0  0  0  0  0  0  0  0  0  0  0
   11.6634  -16.5552   22.5492 C   0  0  1  0  0  0  0  0  0  0  0  0
   11.8028  -17.9135   23.1515 C   0  0  0  0  0  0  0  0  0  0  0  0
   13.0322  -18.1564   23.9005 C   0  0  0  0  0  0  0  0  0  0  0  0
   13.9377  -17.3109   24.0491 O   0  0  0  0  0  0  0  0  0  0  0  0
   12.5330  -16.3389   21.3715 C   0  0  0  0  0  0  0  0  0  0  0  0
   13.8405  -15.9781   21.5023 O   0  0  0  0  0  0  0  0  0  0  0  0
   13.2441  -19.4063   24.5051 O   0  0  0  0  0  0  0  0  0  0  0  0
   12.0755  -16.4849   20.2123 O   0  0  0  0  0  0  0  0  0  0  0  0
  2  1  1  6
  2  3  1  0
  4  2  1  0
  5  4  1  0
  5  6  1  1
  7  5  1  0
  8  7  2  0
  9  7  1  0
 10  9  1  0
 11 12  1  0
 10 11  1  6
 13 14  1  0
 13 12  1  0
 14 15  1  0
 16 18  1  0
 16 10  1  0
 17 16  2  0
 19 20  1  6
 19 18  1  0
 20 21  1  0
 21 22  2  0
 21 25  1  0
 23 24  1  0
 23 19  1  0
 26 23  2  0
M  END
$$$$
