LKD.pdb
     RDKit          3D

 26 25  0  0  1  0  0  0  0  0999 V2000
    6.9397  -11.9566   19.4390 C   0  0  0  0  0  0  0  0  0  0  0  0
    7.6066  -13.2974   19.6090 C   0  0  1  0  0  0  0  0  0  0  0  0
    9.0658  -13.2631   19.2137 C   0  0  0  0  0  0  0  0  0  0  0  0
    7.5466  -13.7796   21.0485 C   0  0  0  0  0  0  0  0  0  0  0  0
    8.1867  -15.1499   21.0462 C   0  0  2  0  0  0  0  0  0  0  0  0
    7.4173  -15.9180   20.0537 N   0  0  0  0  0  0  0  0  0  0  0  0
    8.1068  -15.8342   22.3354 C   0  0  0  0  0  0  0  0  0  0  0  0
    8.5627  -15.2568   23.3608 O   0  0  0  0  0  0  0  0  0  0  0  0
    7.5338  -17.1142   22.4443 N   0  0  0  0  0  0  0  0  0  0  0  0
    7.5143  -17.8777   23.7352 C   0  0  1  0  0  0  0  0  0  0  0  0
    6.6164  -19.0538   23.5547 C   0  0  0  0  0  0  0  0  0  0  0  0
    6.6206  -20.0362   24.6796 C   0  0  0  0  0  0  0  0  0  0  0  0
    5.7537  -21.2255   24.3060 C   0  0  0  0  0  0  0  0  0  0  0  0
    5.7354  -22.2034   25.4750 C   0  0  0  0  0  0  0  0  0  0  0  0
    4.9853  -23.3808   25.0556 N   0  0  0  0  0  0  0  0  0  0  0  0
    8.9198  -18.2331   24.0564 C   0  0  0  0  0  0  0  0  0  0  0  0
    9.6293  -18.8061   23.1606 O   0  0  0  0  0  0  0  0  0  0  0  0
    9.5657  -17.9894   25.2827 N   0  0  0  0  0  0  0  0  0  0  0  0
   11.0060  -18.3572   25.4587 C   0  0  1  0  0  0  0  0  0  0  0  0
   11.8186  -17.2848   24.8131 C   0  0  0  0  0  0  0  0  0  0  0  0
   13.2663  -17.4690   24.8540 C   0  0  0  0  0  0  0  0  0  0  0  0
   13.8337  -18.4099   25.4453 O   0  0  0  0  0  0  0  0  0  0  0  0
   11.2437  -18.4837   26.9139 C   0  0  0  0  0  0  0  0  0  0  0  0
   10.2388  -18.3276   27.8208 O   0  0  0  0  0  0  0  0  0  0  0  0
   14.1040  -16.5514   24.1991 O   0  0  0  0  0  0  0  0  0  0  0  0
   12.3932  -18.7400   27.3468 O   0  0  0  0  0  0  0  0  0  0  0  0
  2  1  1  1
  2  3  1  0
  4  2  1  0
  5  4  1  0
  5  6  1  6
  7  5  1  0
  8  7  2  0
  9  7  1  0
 10  9  1  0
 11 12  1  0
 10 11  1  6
 13 14  1  0
 13 12  1  0
 14 15  1  0
 16 18  1  0
 16 10  1  0
 17 16  2  0
 19 20  1  1
 19 18  1  0
 20 21  1  0
 21 22  2  0
 21 25  1  0
 23 24  1  0
 23 19  1  0
 26 23  2  0
M  END
$$$$
