LKD.pdb
     RDKit          3D

 26 25  0  0  1  0  0  0  0  0999 V2000
    6.7299  -12.0433   19.0305 C   0  0  0  0  0  0  0  0  0  0  0  0
    7.6732  -13.2076   19.1918 C   0  0  1  0  0  0  0  0  0  0  0  0
    9.0867  -12.8575   18.7840 C   0  0  0  0  0  0  0  0  0  0  0  0
    7.7319  -13.6918   20.6307 C   0  0  0  0  0  0  0  0  0  0  0  0
    8.7042  -14.8503   20.6313 C   0  0  2  0  0  0  0  0  0  0  0  0
    8.1737  -15.7815   19.6221 N   0  0  0  0  0  0  0  0  0  0  0  0
    8.7852  -15.5443   21.9152 C   0  0  0  0  0  0  0  0  0  0  0  0
    9.1674  -14.9017   22.9320 O   0  0  0  0  0  0  0  0  0  0  0  0
    8.4456  -16.9046   22.0286 N   0  0  0  0  0  0  0  0  0  0  0  0
    8.5298  -17.6472   23.3289 C   0  0  1  0  0  0  0  0  0  0  0  0
    7.6415  -18.8402   23.2300 C   0  0  0  0  0  0  0  0  0  0  0  0
    7.6809  -19.7622   24.4043 C   0  0  0  0  0  0  0  0  0  0  0  0
    6.7508  -20.9348   24.1489 C   0  0  0  0  0  0  0  0  0  0  0  0
    6.8645  -21.9116   25.3135 C   0  0  0  0  0  0  0  0  0  0  0  0
    5.9105  -22.9892   25.0822 N   0  0  0  0  0  0  0  0  0  0  0  0
    9.9602  -17.9751   23.5556 C   0  0  0  0  0  0  0  0  0  0  0  0
   10.5671  -18.7047   22.6991 O   0  0  0  0  0  0  0  0  0  0  0  0
   10.7351  -17.5450   24.6488 N   0  0  0  0  0  0  0  0  0  0  0  0
   12.1743  -17.9434   24.7517 C   0  0  1  0  0  0  0  0  0  0  0  0
   12.9916  -16.7345   24.4388 C   0  0  0  0  0  0  0  0  0  0  0  0
   14.2622  -16.9806   23.7632 C   0  0  0  0  0  0  0  0  0  0  0  0
   14.6936  -18.1166   23.4798 O   0  0  0  0  0  0  0  0  0  0  0  0
   12.3819  -18.4581   26.1236 C   0  0  0  0  0  0  0  0  0  0  0  0
   13.3236  -19.4035   26.3998 O   0  0  0  0  0  0  0  0  0  0  0  0
   15.0759  -15.8970   23.3937 O   0  0  0  0  0  0  0  0  0  0  0  0
   11.6832  -18.0280   27.0729 O   0  0  0  0  0  0  0  0  0  0  0  0
  2  1  1  1
  2  3  1  0
  4  2  1  0
  5  4  1  0
  5  6  1  6
  7  5  1  0
  8  7  2  0
  9  7  1  0
 10  9  1  0
 11 12  1  0
 10 11  1  6
 13 14  1  0
 13 12  1  0
 14 15  1  0
 16 18  1  0
 16 10  1  0
 17 16  2  0
 19 20  1  1
 19 18  1  0
 20 21  1  0
 21 22  2  0
 21 25  1  0
 23 24  1  0
 23 19  1  0
 26 23  2  0
M  END
$$$$
