LKD.pdb
     RDKit          3D

 26 25  0  0  1  0  0  0  0  0999 V2000
    7.2400  -12.1440   20.7665 C   0  0  0  0  0  0  0  0  0  0  0  0
    7.9714  -13.1449   19.9094 C   0  0  1  0  0  0  0  0  0  0  0  0
    9.2050  -12.5520   19.2663 C   0  0  0  0  0  0  0  0  0  0  0  0
    8.4246  -14.3521   20.7128 C   0  0  0  0  0  0  0  0  0  0  0  0
    9.0198  -15.3113   19.7062 C   0  0  2  0  0  0  0  0  0  0  0  0
    7.8950  -15.6747   18.8287 N   0  0  0  0  0  0  0  0  0  0  0  0
    9.5596  -16.5291   20.3080 C   0  0  0  0  0  0  0  0  0  0  0  0
    8.7574  -17.3963   20.7522 O   0  0  0  0  0  0  0  0  0  0  0  0
   10.9471  -16.7427   20.3962 N   0  0  0  0  0  0  0  0  0  0  0  0
   11.5307  -18.0117   20.9425 C   0  0  1  0  0  0  0  0  0  0  0  0
   12.6446  -18.4247   20.0421 C   0  0  0  0  0  0  0  0  0  0  0  0
   12.2252  -19.1186   18.7877 C   0  0  0  0  0  0  0  0  0  0  0  0
   13.4614  -19.5224   18.0041 C   0  0  0  0  0  0  0  0  0  0  0  0
   13.0214  -20.1567   16.6899 C   0  0  0  0  0  0  0  0  0  0  0  0
   14.2184  -20.6221   16.0003 N   0  0  0  0  0  0  0  0  0  0  0  0
   11.9524  -17.7356   22.3392 C   0  0  0  0  0  0  0  0  0  0  0  0
   12.5500  -16.6347   22.5949 O   0  0  0  0  0  0  0  0  0  0  0  0
   11.7482  -18.5887   23.4395 N   0  0  0  0  0  0  0  0  0  0  0  0
   12.3181  -18.2368   24.7782 C   0  0  1  0  0  0  0  0  0  0  0  0
   11.5319  -18.9833   25.8039 C   0  0  0  0  0  0  0  0  0  0  0  0
   12.0068  -18.8688   27.1798 C   0  0  0  0  0  0  0  0  0  0  0  0
   11.4817  -19.4514   28.1502 O   0  0  0  0  0  0  0  0  0  0  0  0
   13.7507  -18.6065   24.7474 C   0  0  0  0  0  0  0  0  0  0  0  0
   14.7242  -17.7369   25.1384 O   0  0  0  0  0  0  0  0  0  0  0  0
   13.1204  -18.0626   27.4674 O   0  0  0  0  0  0  0  0  0  0  0  0
   14.1016  -19.7450   24.3535 O   0  0  0  0  0  0  0  0  0  0  0  0
  2  1  1  1
  2  3  1  0
  4  2  1  0
  5  4  1  0
  5  6  1  6
  7  5  1  0
  8  7  2  0
  9  7  1  0
 10  9  1  0
 11 12  1  0
 10 11  1  6
 13 14  1  0
 13 12  1  0
 14 15  1  0
 16 18  1  0
 16 10  1  0
 17 16  2  0
 19 20  1  1
 19 18  1  0
 20 21  1  0
 21 22  2  0
 21 25  1  0
 23 24  1  0
 23 19  1  0
 26 23  2  0
M  END
$$$$
