LKD.pdb
     RDKit          3D

 26 25  0  0  1  0  0  0  0  0999 V2000
    5.9330  -12.1841   27.1049 C   0  0  0  0  0  0  0  0  0  0  0  0
    6.4960  -12.7563   25.8293 C   0  0  1  0  0  0  0  0  0  0  0  0
    7.1311  -11.6950   24.9593 C   0  0  0  0  0  0  0  0  0  0  0  0
    7.5615  -13.8044   26.1025 C   0  0  0  0  0  0  0  0  0  0  0  0
    8.1085  -14.1923   24.7468 C   0  0  2  0  0  0  0  0  0  0  0  0
    7.0203  -13.8836   23.8046 N   0  0  0  0  0  0  0  0  0  0  0  0
    8.4394  -15.6116   24.6347 C   0  0  0  0  0  0  0  0  0  0  0  0
    8.7638  -16.2456   25.6765 O   0  0  0  0  0  0  0  0  0  0  0  0
    8.4006  -16.2708   23.3926 N   0  0  0  0  0  0  0  0  0  0  0  0
    8.8515  -17.6912   23.2234 C   0  0  1  0  0  0  0  0  0  0  0  0
    8.2930  -18.1956   21.9367 C   0  0  0  0  0  0  0  0  0  0  0  0
    8.5784  -19.6310   21.6382 C   0  0  0  0  0  0  0  0  0  0  0  0
    7.8880  -20.5021   22.6726 C   0  0  0  0  0  0  0  0  0  0  0  0
    7.1145  -21.5988   21.9501 C   0  0  0  0  0  0  0  0  0  0  0  0
    6.4913  -22.4418   22.9629 N   0  0  0  0  0  0  0  0  0  0  0  0
   10.3353  -17.6907   23.2802 C   0  0  0  0  0  0  0  0  0  0  0  0
   10.9920  -17.5223   22.1964 O   0  0  0  0  0  0  0  0  0  0  0  0
   11.1099  -17.8572   24.4432 N   0  0  0  0  0  0  0  0  0  0  0  0
   12.6033  -17.8979   24.3511 C   0  0  1  0  0  0  0  0  0  0  0  0
   13.0754  -16.4911   24.1916 C   0  0  0  0  0  0  0  0  0  0  0  0
   14.3831  -16.3241   23.5643 C   0  0  0  0  0  0  0  0  0  0  0  0
   14.7999  -15.2453   23.0959 O   0  0  0  0  0  0  0  0  0  0  0  0
   13.0937  -18.5493   25.5862 C   0  0  0  0  0  0  0  0  0  0  0  0
   14.3344  -19.1081   25.6580 O   0  0  0  0  0  0  0  0  0  0  0  0
   15.2529  -17.4223   23.4640 O   0  0  0  0  0  0  0  0  0  0  0  0
   12.3646  -18.6010   26.6060 O   0  0  0  0  0  0  0  0  0  0  0  0
  2  1  1  1
  2  3  1  0
  4  2  1  0
  5  4  1  0
  5  6  1  6
  7  5  1  0
  8  7  2  0
  9  7  1  0
 10  9  1  0
 11 12  1  0
 10 11  1  6
 13 14  1  0
 13 12  1  0
 14 15  1  0
 16 18  1  0
 16 10  1  0
 17 16  2  0
 19 20  1  1
 19 18  1  0
 20 21  1  0
 21 22  2  0
 21 25  1  0
 23 24  1  0
 23 19  1  0
 26 23  2  0
M  END
$$$$
