LKD.pdb
     RDKit          3D

 26 25  0  0  1  0  0  0  0  0999 V2000
    7.3902  -12.0700   27.8735 C   0  0  0  0  0  0  0  0  0  0  0  0
    6.5883  -13.0602   27.0685 C   0  0  1  0  0  0  0  0  0  0  0  0
    5.6765  -12.3802   26.0720 C   0  0  0  0  0  0  0  0  0  0  0  0
    7.4820  -14.0043   26.2822 C   0  0  0  0  0  0  0  0  0  0  0  0
    6.5476  -14.8388   25.4349 C   0  0  2  0  0  0  0  0  0  0  0  0
    6.1196  -15.9334   26.3213 N   0  0  0  0  0  0  0  0  0  0  0  0
    7.1871  -15.4134   24.2528 C   0  0  0  0  0  0  0  0  0  0  0  0
    7.6576  -16.5824   24.3223 O   0  0  0  0  0  0  0  0  0  0  0  0
    7.2826  -14.6862   23.0525 N   0  0  0  0  0  0  0  0  0  0  0  0
    7.9591  -15.2365   21.8323 C   0  0  1  0  0  0  0  0  0  0  0  0
    7.7396  -14.2726   20.7166 C   0  0  0  0  0  0  0  0  0  0  0  0
    8.3183  -14.6793   19.4011 C   0  0  0  0  0  0  0  0  0  0  0  0
    7.9137  -13.6670   18.3442 C   0  0  0  0  0  0  0  0  0  0  0  0
    8.3707  -14.1740   16.9814 C   0  0  0  0  0  0  0  0  0  0  0  0
    7.8591  -13.2545   15.9726 N   0  0  0  0  0  0  0  0  0  0  0  0
    9.3877  -15.4458   22.1789 C   0  0  0  0  0  0  0  0  0  0  0  0
    9.8375  -14.9409   23.2638 O   0  0  0  0  0  0  0  0  0  0  0  0
   10.3187  -16.1695   21.4109 N   0  0  0  0  0  0  0  0  0  0  0  0
   11.6902  -16.4354   21.9484 C   0  0  1  0  0  0  0  0  0  0  0  0
   11.5265  -17.1913   23.2248 C   0  0  0  0  0  0  0  0  0  0  0  0
   12.7008  -17.2434   24.0907 C   0  0  0  0  0  0  0  0  0  0  0  0
   13.7680  -16.6410   23.8565 O   0  0  0  0  0  0  0  0  0  0  0  0
   12.4232  -17.1877   20.9059 C   0  0  0  0  0  0  0  0  0  0  0  0
   13.7808  -17.3034   20.9262 O   0  0  0  0  0  0  0  0  0  0  0  0
   12.6643  -18.0079   25.2684 O   0  0  0  0  0  0  0  0  0  0  0  0
   11.7990  -17.7409   19.9685 O   0  0  0  0  0  0  0  0  0  0  0  0
  2  1  1  6
  2  3  1  0
  4  2  1  0
  5  4  1  0
  5  6  1  1
  7  5  1  0
  8  7  2  0
  9  7  1  0
 10  9  1  0
 11 12  1  0
 10 11  1  6
 13 14  1  0
 13 12  1  0
 14 15  1  0
 16 18  1  0
 16 10  1  0
 17 16  2  0
 19 20  1  1
 19 18  1  0
 20 21  1  0
 21 22  2  0
 21 25  1  0
 23 24  1  0
 23 19  1  0
 26 23  2  0
M  END
$$$$
