LKD.pdb
     RDKit          3D

 26 25  0  0  1  0  0  0  0  0999 V2000
    7.4985  -11.9381   25.9541 C   0  0  0  0  0  0  0  0  0  0  0  0
    7.0433  -12.8958   27.0250 C   0  0  1  0  0  0  0  0  0  0  0  0
    6.3940  -12.1827   28.1898 C   0  0  0  0  0  0  0  0  0  0  0  0
    6.0301  -13.8960   26.4946 C   0  0  0  0  0  0  0  0  0  0  0  0
    6.8341  -15.1053   26.0720 C   0  0  2  0  0  0  0  0  0  0  0  0
    8.2135  -14.7970   26.4836 N   0  0  0  0  0  0  0  0  0  0  0  0
    6.8157  -15.3443   24.6301 C   0  0  0  0  0  0  0  0  0  0  0  0
    5.8019  -15.8931   24.1165 O   0  0  0  0  0  0  0  0  0  0  0  0
    7.9029  -14.9735   23.8182 N   0  0  0  0  0  0  0  0  0  0  0  0
    7.8748  -15.1153   22.3253 C   0  0  1  0  0  0  0  0  0  0  0  0
    7.8135  -13.7460   21.7393 C   0  0  0  0  0  0  0  0  0  0  0  0
    7.3657  -13.6824   20.3159 C   0  0  0  0  0  0  0  0  0  0  0  0
    8.5333  -13.2545   19.4446 C   0  0  0  0  0  0  0  0  0  0  0  0
    8.0586  -13.1686   17.9988 C   0  0  0  0  0  0  0  0  0  0  0  0
    9.1951  -12.7584   17.1833 N   0  0  0  0  0  0  0  0  0  0  0  0
    9.0816  -15.8872   21.9347 C   0  0  0  0  0  0  0  0  0  0  0  0
    9.3976  -15.9499   20.6976 O   0  0  0  0  0  0  0  0  0  0  0  0
    9.9373  -16.5708   22.8183 N   0  0  0  0  0  0  0  0  0  0  0  0
   11.2434  -17.1141   22.3288 C   0  0  1  0  0  0  0  0  0  0  0  0
   11.9904  -15.9800   21.7098 C   0  0  0  0  0  0  0  0  0  0  0  0
   13.3639  -16.2654   21.3058 C   0  0  0  0  0  0  0  0  0  0  0  0
   13.7853  -17.4047   21.0208 O   0  0  0  0  0  0  0  0  0  0  0  0
   11.9300  -17.7052   23.4989 C   0  0  0  0  0  0  0  0  0  0  0  0
   12.9122  -18.6391   23.3576 O   0  0  0  0  0  0  0  0  0  0  0  0
   14.2968  -15.2188   21.2210 O   0  0  0  0  0  0  0  0  0  0  0  0
   11.6151  -17.3530   24.6613 O   0  0  0  0  0  0  0  0  0  0  0  0
  2  1  1  6
  2  3  1  0
  4  2  1  0
  5  4  1  0
  5  6  1  6
  7  5  1  0
  8  7  2  0
  9  7  1  0
 10  9  1  0
 11 12  1  0
 10 11  1  6
 13 14  1  0
 13 12  1  0
 14 15  1  0
 16 18  1  0
 16 10  1  0
 17 16  2  0
 19 20  1  1
 19 18  1  0
 20 21  1  0
 21 22  2  0
 21 25  1  0
 23 24  1  0
 23 19  1  0
 26 23  2  0
M  END
$$$$
