LKD.pdb
     RDKit          3D

 26 25  0  0  1  0  0  0  0  0999 V2000
    7.1403  -11.9249   19.4154 C   0  0  0  0  0  0  0  0  0  0  0  0
    7.7229  -13.3144   19.3788 C   0  0  1  0  0  0  0  0  0  0  0  0
    9.2059  -13.3193   19.6744 C   0  0  0  0  0  0  0  0  0  0  0  0
    7.0631  -14.2304   20.3957 C   0  0  0  0  0  0  0  0  0  0  0  0
    8.0116  -15.3954   20.5704 C   0  0  2  0  0  0  0  0  0  0  0  0
    7.2566  -16.5647   20.0911 N   0  0  0  0  0  0  0  0  0  0  0  0
    8.4042  -15.6259   21.9594 C   0  0  0  0  0  0  0  0  0  0  0  0
    9.1534  -14.7846   22.5283 O   0  0  0  0  0  0  0  0  0  0  0  0
    7.9612  -16.7620   22.6606 N   0  0  0  0  0  0  0  0  0  0  0  0
    8.3663  -17.0389   24.0779 C   0  0  1  0  0  0  0  0  0  0  0  0
    7.4923  -18.1295   24.5962 C   0  0  0  0  0  0  0  0  0  0  0  0
    7.8448  -18.6354   25.9565 C   0  0  0  0  0  0  0  0  0  0  0  0
    6.8712  -19.7328   26.3481 C   0  0  0  0  0  0  0  0  0  0  0  0
    7.2909  -20.2994   27.6993 C   0  0  0  0  0  0  0  0  0  0  0  0
    6.2817  -21.2697   28.1053 N   0  0  0  0  0  0  0  0  0  0  0  0
    9.8120  -17.3774   24.0633 C   0  0  0  0  0  0  0  0  0  0  0  0
   10.3382  -17.7799   22.9699 O   0  0  0  0  0  0  0  0  0  0  0  0
   10.6839  -17.2913   25.1645 N   0  0  0  0  0  0  0  0  0  0  0  0
   12.1409  -17.5887   24.9935 C   0  0  1  0  0  0  0  0  0  0  0  0
   12.7100  -16.5239   24.1161 C   0  0  0  0  0  0  0  0  0  0  0  0
   14.0019  -16.8229   23.5055 C   0  0  0  0  0  0  0  0  0  0  0  0
   14.6347  -17.8817   23.6940 O   0  0  0  0  0  0  0  0  0  0  0  0
   12.7365  -17.6190   26.3479 C   0  0  0  0  0  0  0  0  0  0  0  0
   13.9277  -18.2334   26.5938 O   0  0  0  0  0  0  0  0  0  0  0  0
   14.6005  -15.8858   22.6475 O   0  0  0  0  0  0  0  0  0  0  0  0
   12.1462  -17.0722   27.3106 O   0  0  0  0  0  0  0  0  0  0  0  0
  2  1  1  1
  2  3  1  0
  4  2  1  0
  5  4  1  0
  5  6  1  1
  7  5  1  0
  8  7  2  0
  9  7  1  0
 10  9  1  0
 11 12  1  0
 10 11  1  6
 13 14  1  0
 13 12  1  0
 14 15  1  0
 16 18  1  0
 16 10  1  0
 17 16  2  0
 19 20  1  6
 19 18  1  0
 20 21  1  0
 21 22  2  0
 21 25  1  0
 23 24  1  0
 23 19  1  0
 26 23  2  0
M  END
$$$$
