LKD.pdb
     RDKit          3D

 26 25  0  0  1  0  0  0  0  0999 V2000
    5.5259  -11.3248   26.5247 C   0  0  0  0  0  0  0  0  0  0  0  0
    6.4818  -12.1099   25.6637 C   0  0  1  0  0  0  0  0  0  0  0  0
    7.8300  -11.4351   25.5464 C   0  0  0  0  0  0  0  0  0  0  0  0
    6.7278  -13.5028   26.2184 C   0  0  0  0  0  0  0  0  0  0  0  0
    7.7109  -14.1514   25.2697 C   0  0  2  0  0  0  0  0  0  0  0  0
    7.1191  -13.9631   23.9350 N   0  0  0  0  0  0  0  0  0  0  0  0
    7.8935  -15.5823   25.5057 C   0  0  0  0  0  0  0  0  0  0  0  0
    8.2408  -15.9706   26.6552 O   0  0  0  0  0  0  0  0  0  0  0  0
    7.6885  -16.5203   24.4777 N   0  0  0  0  0  0  0  0  0  0  0  0
    7.9342  -17.9874   24.6692 C   0  0  1  0  0  0  0  0  0  0  0  0
    7.1029  -18.7217   23.6733 C   0  0  0  0  0  0  0  0  0  0  0  0
    7.2514  -20.2078   23.6925 C   0  0  0  0  0  0  0  0  0  0  0  0
    5.8759  -20.8453   23.7761 C   0  0  0  0  0  0  0  0  0  0  0  0
    6.0350  -22.3601   23.7201 C   0  0  0  0  0  0  0  0  0  0  0  0
    4.7005  -22.9464   23.7405 N   0  0  0  0  0  0  0  0  0  0  0  0
    9.3946  -18.2111   24.5207 C   0  0  0  0  0  0  0  0  0  0  0  0
    9.8467  -19.4033   24.6139 O   0  0  0  0  0  0  0  0  0  0  0  0
   10.3549  -17.2120   24.2759 N   0  0  0  0  0  0  0  0  0  0  0  0
   11.7892  -17.5848   24.0654 C   0  0  1  0  0  0  0  0  0  0  0  0
   12.4256  -16.4774   23.2933 C   0  0  0  0  0  0  0  0  0  0  0  0
   13.8561  -16.6175   23.0378 C   0  0  0  0  0  0  0  0  0  0  0  0
   14.3931  -17.6683   22.6322 O   0  0  0  0  0  0  0  0  0  0  0  0
   12.3829  -17.7878   25.4057 C   0  0  0  0  0  0  0  0  0  0  0  0
   11.7529  -17.3705   26.5396 O   0  0  0  0  0  0  0  0  0  0  0  0
   14.7119  -15.5242   23.2498 O   0  0  0  0  0  0  0  0  0  0  0  0
   13.4953  -18.3559   25.5251 O   0  0  0  0  0  0  0  0  0  0  0  0
  2  1  1  1
  2  3  1  0
  4  2  1  0
  5  4  1  0
  5  6  1  6
  7  5  1  0
  8  7  2  0
  9  7  1  0
 10  9  1  0
 11 12  1  0
 10 11  1  6
 13 14  1  0
 13 12  1  0
 14 15  1  0
 16 18  1  0
 16 10  1  0
 17 16  2  0
 19 20  1  1
 19 18  1  0
 20 21  1  0
 21 22  2  0
 21 25  1  0
 23 24  1  0
 23 19  1  0
 26 23  2  0
M  END
$$$$
