LKD.pdb
     RDKit          3D

 26 25  0  0  1  0  0  0  0  0999 V2000
    5.7768  -11.3758   26.7914 C   0  0  0  0  0  0  0  0  0  0  0  0
    6.4170  -12.2988   25.7866 C   0  0  1  0  0  0  0  0  0  0  0  0
    7.5119  -11.6142   24.9995 C   0  0  0  0  0  0  0  0  0  0  0  0
    7.0405  -13.5137   26.4527 C   0  0  0  0  0  0  0  0  0  0  0  0
    7.6076  -14.3494   25.3269 C   0  0  2  0  0  0  0  0  0  0  0  0
    6.5867  -14.2887   24.2680 N   0  0  0  0  0  0  0  0  0  0  0  0
    7.8257  -15.7483   25.6904 C   0  0  0  0  0  0  0  0  0  0  0  0
    8.3299  -16.0136   26.8165 O   0  0  0  0  0  0  0  0  0  0  0  0
    7.4836  -16.7899   24.8090 N   0  0  0  0  0  0  0  0  0  0  0  0
    7.6488  -18.2356   25.1725 C   0  0  1  0  0  0  0  0  0  0  0  0
    6.7208  -19.0287   24.3171 C   0  0  0  0  0  0  0  0  0  0  0  0
    6.7212  -20.5004   24.5720 C   0  0  0  0  0  0  0  0  0  0  0  0
    5.7011  -21.1639   23.6640 C   0  0  0  0  0  0  0  0  0  0  0  0
    5.7323  -22.6677   23.9106 C   0  0  0  0  0  0  0  0  0  0  0  0
    4.7696  -23.2846   23.0064 N   0  0  0  0  0  0  0  0  0  0  0  0
    9.0824  -18.5744   24.9857 C   0  0  0  0  0  0  0  0  0  0  0  0
    9.7015  -18.0929   23.9761 O   0  0  0  0  0  0  0  0  0  0  0  0
    9.8479  -19.3920   25.8376 N   0  0  0  0  0  0  0  0  0  0  0  0
   11.3428  -19.3263   25.7976 C   0  0  1  0  0  0  0  0  0  0  0  0
   11.7124  -17.9902   25.2448 C   0  0  0  0  0  0  0  0  0  0  0  0
   12.7884  -17.9833   24.2581 C   0  0  0  0  0  0  0  0  0  0  0  0
   13.4564  -18.9901   23.9466 O   0  0  0  0  0  0  0  0  0  0  0  0
   11.8210  -19.5464   27.1807 C   0  0  0  0  0  0  0  0  0  0  0  0
   11.0618  -19.2157   28.2630 O   0  0  0  0  0  0  0  0  0  0  0  0
   13.1204  -16.7889   23.5980 O   0  0  0  0  0  0  0  0  0  0  0  0
   12.9524  -20.0484   27.3862 O   0  0  0  0  0  0  0  0  0  0  0  0
  2  1  1  1
  2  3  1  0
  4  2  1  0
  5  4  1  0
  5  6  1  6
  7  5  1  0
  8  7  2  0
  9  7  1  0
 10  9  1  0
 11 12  1  0
 10 11  1  6
 13 14  1  0
 13 12  1  0
 14 15  1  0
 16 18  1  0
 16 10  1  0
 17 16  2  0
 19 20  1  1
 19 18  1  0
 20 21  1  0
 21 22  2  0
 21 25  1  0
 23 24  1  0
 23 19  1  0
 26 23  2  0
M  END
$$$$
