LKD.pdb
     RDKit          3D

 26 25  0  0  1  0  0  0  0  0999 V2000
    8.2001  -11.7955   20.0295 C   0  0  0  0  0  0  0  0  0  0  0  0
    7.6994  -13.1720   20.3844 C   0  0  1  0  0  0  0  0  0  0  0  0
    7.3360  -13.9804   19.1592 C   0  0  0  0  0  0  0  0  0  0  0  0
    8.7391  -13.9705   21.1524 C   0  0  0  0  0  0  0  0  0  0  0  0
    7.9908  -15.1363   21.7594 C   0  0  2  0  0  0  0  0  0  0  0  0
    7.0891  -14.5245   22.7492 N   0  0  0  0  0  0  0  0  0  0  0  0
    8.8575  -16.0952   22.4419 C   0  0  0  0  0  0  0  0  0  0  0  0
    9.2542  -15.8330   23.6110 O   0  0  0  0  0  0  0  0  0  0  0  0
    9.2496  -17.2930   21.8173 N   0  0  0  0  0  0  0  0  0  0  0  0
   10.1796  -18.2717   22.4705 C   0  0  1  0  0  0  0  0  0  0  0  0
    9.9798  -19.5958   21.8157 C   0  0  0  0  0  0  0  0  0  0  0  0
   10.8910  -20.6821   22.2854 C   0  0  0  0  0  0  0  0  0  0  0  0
   10.1499  -22.0067   22.2450 C   0  0  0  0  0  0  0  0  0  0  0  0
   11.0438  -23.0854   22.8452 C   0  0  0  0  0  0  0  0  0  0  0  0
   10.3035  -24.3408   22.8159 N   0  0  0  0  0  0  0  0  0  0  0  0
   11.5552  -17.7298   22.3324 C   0  0  0  0  0  0  0  0  0  0  0  0
   11.8421  -17.0372   21.2969 O   0  0  0  0  0  0  0  0  0  0  0  0
   12.6006  -17.9051   23.2579 N   0  0  0  0  0  0  0  0  0  0  0  0
   14.0133  -17.6122   22.8591 C   0  0  1  0  0  0  0  0  0  0  0  0
   14.3864  -16.3067   23.4784 C   0  0  0  0  0  0  0  0  0  0  0  0
   15.7743  -15.8897   23.3012 C   0  0  0  0  0  0  0  0  0  0  0  0
   16.4893  -16.2347   22.3387 O   0  0  0  0  0  0  0  0  0  0  0  0
   14.8383  -18.7470   23.3302 C   0  0  0  0  0  0  0  0  0  0  0  0
   14.5327  -19.4318   24.4679 O   0  0  0  0  0  0  0  0  0  0  0  0
   16.3756  -15.0486   24.2518 O   0  0  0  0  0  0  0  0  0  0  0  0
   15.8509  -19.1048   22.6815 O   0  0  0  0  0  0  0  0  0  0  0  0
  2  1  1  6
  2  3  1  0
  4  2  1  0
  5  4  1  0
  5  6  1  1
  7  5  1  0
  8  7  2  0
  9  7  1  0
 10  9  1  0
 11 12  1  0
 10 11  1  6
 13 14  1  0
 13 12  1  0
 14 15  1  0
 16 18  1  0
 16 10  1  0
 17 16  2  0
 19 20  1  1
 19 18  1  0
 20 21  1  0
 21 22  2  0
 21 25  1  0
 23 24  1  0
 23 19  1  0
 26 23  2  0
M  END
$$$$
