LKD.pdb
     RDKit          3D

 26 25  0  0  1  0  0  0  0  0999 V2000
    7.5690  -12.0210   28.1405 C   0  0  0  0  0  0  0  0  0  0  0  0
    6.7103  -12.8337   27.2059 C   0  0  1  0  0  0  0  0  0  0  0  0
    6.0578  -11.9795   26.1424 C   0  0  0  0  0  0  0  0  0  0  0  0
    7.5145  -13.9033   26.4865 C   0  0  0  0  0  0  0  0  0  0  0  0
    6.5369  -14.5966   25.5639 C   0  0  2  0  0  0  0  0  0  0  0  0
    5.6350  -15.3337   26.4640 N   0  0  0  0  0  0  0  0  0  0  0  0
    7.1690  -15.5463   24.6501 C   0  0  0  0  0  0  0  0  0  0  0  0
    7.2718  -16.7540   25.0019 O   0  0  0  0  0  0  0  0  0  0  0  0
    7.6580  -15.1338   23.3973 N   0  0  0  0  0  0  0  0  0  0  0  0
    8.2976  -16.0870   22.4320 C   0  0  1  0  0  0  0  0  0  0  0  0
    8.2260  -15.4758   21.0742 C   0  0  0  0  0  0  0  0  0  0  0  0
    8.8014  -16.3039   19.9724 C   0  0  0  0  0  0  0  0  0  0  0  0
    8.5477  -15.6126   18.6446 C   0  0  0  0  0  0  0  0  0  0  0  0
    8.9585  -16.5530   17.5176 C   0  0  0  0  0  0  0  0  0  0  0  0
    8.6562  -15.8897   16.2552 N   0  0  0  0  0  0  0  0  0  0  0  0
    9.6808  -16.3354   22.9115 C   0  0  0  0  0  0  0  0  0  0  0  0
   10.2838  -15.4103   23.5556 O   0  0  0  0  0  0  0  0  0  0  0  0
   10.4105  -17.5242   22.7251 N   0  0  0  0  0  0  0  0  0  0  0  0
   11.8424  -17.6013   23.1545 C   0  0  1  0  0  0  0  0  0  0  0  0
   12.4615  -16.2732   22.8715 C   0  0  0  0  0  0  0  0  0  0  0  0
   13.9170  -16.2141   22.9677 C   0  0  0  0  0  0  0  0  0  0  0  0
   14.6420  -17.2029   23.1987 O   0  0  0  0  0  0  0  0  0  0  0  0
   11.8430  -17.9596   24.5904 C   0  0  0  0  0  0  0  0  0  0  0  0
   12.7244  -18.8632   25.1035 O   0  0  0  0  0  0  0  0  0  0  0  0
   14.5772  -14.9864   22.7952 O   0  0  0  0  0  0  0  0  0  0  0  0
   11.0184  -17.4307   25.3744 O   0  0  0  0  0  0  0  0  0  0  0  0
  2  1  1  6
  2  3  1  0
  4  2  1  0
  5  4  1  0
  5  6  1  1
  7  5  1  0
  8  7  2  0
  9  7  1  0
 10  9  1  0
 11 12  1  0
 10 11  1  6
 13 14  1  0
 13 12  1  0
 14 15  1  0
 16 18  1  0
 16 10  1  0
 17 16  2  0
 19 20  1  1
 19 18  1  0
 20 21  1  0
 21 22  2  0
 21 25  1  0
 23 24  1  0
 23 19  1  0
 26 23  2  0
M  END
$$$$
