LRT.pdb
     RDKit          3D

 27 26  0  0  1  0  0  0  0  0999 V2000
   27.7788  -17.3501  -16.9371 C   0  0  0  0  0  0  0  0  0  0  0  0
   27.9687  -18.5066  -15.9722 C   0  0  1  0  0  0  0  0  0  0  0  0
   28.6054  -17.8762  -14.7167 C   0  0  0  0  0  0  0  0  0  0  0  0
   26.6748  -19.1094  -15.5468 C   0  0  0  0  0  0  0  0  0  0  0  0
   26.8224  -20.2101  -14.5076 C   0  0  2  0  0  0  0  0  0  0  0  0
   27.5138  -21.3121  -15.2224 N   0  0  0  0  0  0  0  0  0  0  0  0
   25.5274  -20.7718  -14.0696 C   0  0  0  0  0  0  0  0  0  0  0  0
   24.9130  -21.5387  -14.8511 O   0  0  0  0  0  0  0  0  0  0  0  0
   21.2104  -22.5125   -6.7870 N   0  0  0  0  0  0  0  0  0  0  0  0
   20.1781  -22.1041   -7.6504 C   0  0  0  0  0  0  0  0  0  0  0  0
   18.9821  -22.5219   -7.4900 N   0  0  0  0  0  0  0  0  0  0  0  0
   20.4571  -21.2127   -8.7221 N   0  0  0  0  0  0  0  0  0  0  0  0
   21.8082  -20.8125   -9.0466 C   0  0  0  0  0  0  0  0  0  0  0  0
   22.0671  -21.0831  -10.5029 C   0  0  0  0  0  0  0  0  0  0  0  0
   23.4363  -20.6819  -10.9560 C   0  0  0  0  0  0  0  0  0  0  0  0
   23.5791  -20.8618  -12.4452 C   0  0  2  0  0  0  0  0  0  0  0  0
   24.9403  -20.4922  -12.8070 N   0  0  0  0  0  0  0  0  0  0  0  0
   22.5831  -20.0569  -13.1919 C   0  0  0  0  0  0  0  0  0  0  0  0
   22.6119  -18.8119  -13.0776 O   0  0  0  0  0  0  0  0  0  0  0  0
   18.2073  -22.2161   -8.1057 C   0  0  0  0  0  0  0  0  0  0  0  0
   22.0923  -19.2105  -16.5858 C   0  0  2  0  0  0  0  0  0  0  0  0
   20.8037  -19.9071  -16.2438 O   0  0  0  0  0  0  0  0  0  0  0  0
   20.9709  -21.2623  -16.5760 C   0  0  2  0  0  0  0  0  0  0  0  0
   20.6144  -19.8440  -14.7447 N   0  0  0  0  0  0  0  0  0  0  0  0
   21.5976  -20.6335  -14.0312 C   0  0  0  0  0  0  0  0  0  0  0  0
   19.2411  -20.2383  -14.3541 O   0  0  0  0  0  0  0  0  0  0  0  0
   19.0871  -21.2179  -13.5824 O   0  0  0  0  0  0  0  0  0  0  0  0
  2  1  1  6
  3  2  1  0
  4  2  1  0
  5  4  1  0
  5  6  1  6
  7  5  1  0
  7  8  2  0
  9 10  1  0
 10 12  1  0
 11 10  2  0
 12 13  1  0
 13 14  1  0
 14 15  1  0
 16 17  1  0
 16 15  1  1
 17  7  1  0
 18 16  1  0
 19 18  2  0
 21 20  1  6
 21 23  1  0
 22 21  1  0
 23 24  1  1
 24 18  1  0
 25 23  1  0
 25 27  1  0
 26 25  2  0
M  END
$$$$
