LRT.pdb
     RDKit          3D

 27 26  0  0  1  0  0  0  0  0999 V2000
   33.1098  -24.9531  -19.3541 C   0  0  0  0  0  0  0  0  0  0  0  0
   32.3059  -24.5176  -18.1422 C   0  0  1  0  0  0  0  0  0  0  0  0
   31.6932  -23.1589  -18.5392 C   0  0  0  0  0  0  0  0  0  0  0  0
   31.1710  -25.4378  -17.8532 C   0  0  0  0  0  0  0  0  0  0  0  0
   30.3267  -25.0158  -16.6604 C   0  0  2  0  0  0  0  0  0  0  0  0
   31.2356  -25.1403  -15.4934 N   0  0  0  0  0  0  0  0  0  0  0  0
   29.2038  -25.9377  -16.3894 C   0  0  0  0  0  0  0  0  0  0  0  0
   29.4406  -27.0022  -15.7673 O   0  0  0  0  0  0  0  0  0  0  0  0
   22.3140  -22.4546  -14.1599 N   0  0  0  0  0  0  0  0  0  0  0  0
   23.0945  -22.4464  -15.3297 C   0  0  0  0  0  0  0  0  0  0  0  0
   22.8679  -21.6082  -16.2661 N   0  0  0  0  0  0  0  0  0  0  0  0
   24.1550  -23.3804  -15.4847 N   0  0  0  0  0  0  0  0  0  0  0  0
   24.4926  -24.3275  -14.4455 C   0  0  0  0  0  0  0  0  0  0  0  0
   25.6942  -25.1234  -14.8739 C   0  0  0  0  0  0  0  0  0  0  0  0
   25.5452  -25.7622  -16.2195 C   0  0  0  0  0  0  0  0  0  0  0  0
   26.7571  -26.5935  -16.5521 C   0  0  2  0  0  0  0  0  0  0  0  0
   27.8665  -25.6816  -16.7934 N   0  0  0  0  0  0  0  0  0  0  0  0
   26.5145  -27.4719  -17.7213 C   0  0  0  0  0  0  0  0  0  0  0  0
   26.5042  -26.9609  -18.8627 O   0  0  0  0  0  0  0  0  0  0  0  0
   23.4412  -21.5813  -17.1284 C   0  0  0  0  0  0  0  0  0  0  0  0
   28.3020  -30.7599  -18.4841 C   0  0  2  0  0  0  0  0  0  0  0  0
   26.8310  -31.0466  -18.6125 O   0  0  0  0  0  0  0  0  0  0  0  0
   26.4166  -31.6114  -17.3943 C   0  0  2  0  0  0  0  0  0  0  0  0
   26.1021  -29.7291  -18.7545 N   0  0  0  0  0  0  0  0  0  0  0  0
   26.2932  -28.8668  -17.6060 C   0  0  0  0  0  0  0  0  0  0  0  0
   24.6599  -29.9330  -19.0235 O   0  0  0  0  0  0  0  0  0  0  0  0
   23.8197  -29.4691  -18.2125 O   0  0  0  0  0  0  0  0  0  0  0  0
  2  1  1  6
  3  2  1  0
  4  2  1  0
  5  4  1  0
  5  6  1  1
  7  5  1  0
  7  8  2  0
  9 10  1  0
 10 12  1  0
 11 10  2  0
 12 13  1  0
 13 14  1  0
 14 15  1  0
 16 17  1  0
 16 15  1  6
 17  7  1  0
 18 16  1  0
 19 18  2  0
 21 20  1  6
 21 23  1  0
 22 21  1  0
 23 24  1  6
 24 18  1  0
 25 23  1  0
 25 27  1  0
 26 25  2  0
M  END
$$$$
