LRT.pdb
     RDKit          3D

 27 26  0  0  1  0  0  0  0  0999 V2000
   21.7191  -20.5770  -16.8265 C   0  0  0  0  0  0  0  0  0  0  0  0
   21.2389  -21.9717  -17.1853 C   0  0  1  0  0  0  0  0  0  0  0  0
   22.5260  -22.7783  -17.4534 C   0  0  0  0  0  0  0  0  0  0  0  0
   20.5362  -22.6388  -16.0541 C   0  0  0  0  0  0  0  0  0  0  0  0
   20.1775  -24.0918  -16.3253 C   0  0  2  0  0  0  0  0  0  0  0  0
   19.0560  -24.0275  -17.2957 N   0  0  0  0  0  0  0  0  0  0  0  0
   19.6364  -24.7869  -15.1385 C   0  0  0  0  0  0  0  0  0  0  0  0
   18.5553  -24.3789  -14.6475 O   0  0  0  0  0  0  0  0  0  0  0  0
   22.3605  -32.3167  -11.9203 N   0  0  0  0  0  0  0  0  0  0  0  0
   22.3007  -31.4289  -13.0093 C   0  0  0  0  0  0  0  0  0  0  0  0
   22.8629  -31.7115  -14.1205 N   0  0  0  0  0  0  0  0  0  0  0  0
   21.6067  -30.1944  -12.8842 N   0  0  0  0  0  0  0  0  0  0  0  0
   20.8383  -29.8699  -11.7030 C   0  0  0  0  0  0  0  0  0  0  0  0
   20.1265  -28.5634  -11.9203 C   0  0  0  0  0  0  0  0  0  0  0  0
   20.5487  -27.8471  -13.1652 C   0  0  0  0  0  0  0  0  0  0  0  0
   19.7629  -26.5734  -13.3399 C   0  0  2  0  0  0  0  0  0  0  0  0
   20.2742  -25.8969  -14.5237 N   0  0  0  0  0  0  0  0  0  0  0  0
   19.8513  -25.7066  -12.1406 C   0  0  0  0  0  0  0  0  0  0  0  0
   20.9528  -25.1864  -11.8573 O   0  0  0  0  0  0  0  0  0  0  0  0
   22.8350  -31.0648  -14.9291 C   0  0  0  0  0  0  0  0  0  0  0  0
   16.5826  -23.6598  -10.4964 C   0  0  2  0  0  0  0  0  0  0  0  0
   18.0317  -23.2910  -10.3327 O   0  0  0  0  0  0  0  0  0  0  0  0
   18.1363  -22.5670   -9.1328 C   0  0  1  0  0  0  0  0  0  0  0  0
   18.8265  -24.5641  -10.1465 N   0  0  0  0  0  0  0  0  0  0  0  0
   18.7436  -25.4391  -11.2982 C   0  0  0  0  0  0  0  0  0  0  0  0
   18.4238  -25.2797   -8.9137 O   0  0  0  0  0  0  0  0  0  0  0  0
   18.0747  -26.4839   -8.9974 O   0  0  0  0  0  0  0  0  0  0  0  0
  2  1  1  1
  3  2  1  0
  4  2  1  0
  5  4  1  0
  5  6  1  6
  7  5  1  0
  7  8  2  0
  9 10  1  0
 10 12  1  0
 11 10  2  0
 12 13  1  0
 13 14  1  0
 14 15  1  0
 16 17  1  0
 16 15  1  1
 17  7  1  0
 18 16  1  0
 19 18  2  0
 21 20  1  6
 21 23  1  0
 22 21  1  0
 23 24  1  6
 24 18  1  0
 25 23  1  0
 25 27  1  0
 26 25  2  0
M  END
$$$$
