LRT.pdb
     RDKit          3D

 27 26  0  0  1  0  0  0  0  0999 V2000
   11.4009   -7.9675   -9.4640 C   0  0  0  0  0  0  0  0  0  0  0  0
   12.7836   -8.4429   -9.0556 C   0  0  1  0  0  0  0  0  0  0  0  0
   12.9743   -9.7866   -9.7886 C   0  0  0  0  0  0  0  0  0  0  0  0
   13.8611   -7.5317   -9.5320 C   0  0  0  0  0  0  0  0  0  0  0  0
   15.2553   -7.9421   -9.0836 C   0  0  2  0  0  0  0  0  0  0  0  0
   15.4682   -7.2170   -7.8059 N   0  0  0  0  0  0  0  0  0  0  0  0
   16.3201   -7.4672   -9.9919 C   0  0  0  0  0  0  0  0  0  0  0  0
   16.8046   -6.3249   -9.8000 O   0  0  0  0  0  0  0  0  0  0  0  0
   23.2059  -11.0139  -14.3547 N   0  0  0  0  0  0  0  0  0  0  0  0
   22.7847   -9.9048  -15.1099 C   0  0  0  0  0  0  0  0  0  0  0  0
   23.3905   -9.5712  -16.1834 N   0  0  0  0  0  0  0  0  0  0  0  0
   21.6687   -9.1348  -14.6825 N   0  0  0  0  0  0  0  0  0  0  0  0
   20.8205   -9.5643  -13.5931 C   0  0  0  0  0  0  0  0  0  0  0  0
   19.7764   -8.5132  -13.3359 C   0  0  0  0  0  0  0  0  0  0  0  0
   18.7936   -8.8882  -12.2709 C   0  0  0  0  0  0  0  0  0  0  0  0
   17.8339   -7.7565  -12.0086 C   0  0  2  0  0  0  0  0  0  0  0  0
   16.8284   -8.2373  -11.0715 N   0  0  0  0  0  0  0  0  0  0  0  0
   17.2141   -7.2627  -13.2614 C   0  0  0  0  0  0  0  0  0  0  0  0
   16.5223   -8.0535  -13.9397 O   0  0  0  0  0  0  0  0  0  0  0  0
   23.1041   -8.7465  -16.7409 C   0  0  0  0  0  0  0  0  0  0  0  0
   16.2570   -3.2841  -13.8743 C   0  0  2  0  0  0  0  0  0  0  0  0
   15.6362   -4.4329  -14.6210 O   0  0  0  0  0  0  0  0  0  0  0  0
   15.1927   -3.9266  -15.8547 C   0  0  1  0  0  0  0  0  0  0  0  0
   16.7211   -5.4413  -14.9262 N   0  0  0  0  0  0  0  0  0  0  0  0
   17.3691   -5.9335  -13.7275 C   0  0  0  0  0  0  0  0  0  0  0  0
   17.7185   -4.8948  -15.8752 O   0  0  0  0  0  0  0  0  0  0  0  0
   18.9098   -4.7668  -15.4969 O   0  0  0  0  0  0  0  0  0  0  0  0
  2  1  1  6
  3  2  1  0
  4  2  1  0
  5  4  1  0
  5  6  1  1
  7  5  1  0
  7  8  2  0
  9 10  1  0
 10 12  1  0
 11 10  2  0
 12 13  1  0
 13 14  1  0
 14 15  1  0
 16 17  1  0
 16 15  1  6
 17  7  1  0
 18 16  1  0
 19 18  2  0
 21 20  1  1
 21 23  1  0
 22 21  1  0
 23 24  1  1
 24 18  1  0
 25 23  1  0
 25 27  1  0
 26 25  2  0
M  END
$$$$
