LRT.pdb
     RDKit          3D

 27 26  0  0  1  0  0  0  0  0999 V2000
   28.2664  -17.8552  -18.7248 C   0  0  0  0  0  0  0  0  0  0  0  0
   28.8200  -18.8290  -17.7001 C   0  0  1  0  0  0  0  0  0  0  0  0
   29.5923  -17.9510  -16.6943 C   0  0  0  0  0  0  0  0  0  0  0  0
   27.7450  -19.5213  -16.9363 C   0  0  0  0  0  0  0  0  0  0  0  0
   28.2609  -20.3824  -15.7936 C   0  0  2  0  0  0  0  0  0  0  0  0
   28.8651  -21.5650  -16.4569 N   0  0  0  0  0  0  0  0  0  0  0  0
   27.1816  -20.9161  -14.9365 C   0  0  0  0  0  0  0  0  0  0  0  0
   26.4089  -21.7814  -15.4167 O   0  0  0  0  0  0  0  0  0  0  0  0
   22.5276  -19.7047   -9.4198 N   0  0  0  0  0  0  0  0  0  0  0  0
   22.7960  -20.6713   -8.4341 C   0  0  0  0  0  0  0  0  0  0  0  0
   21.8595  -21.1510   -7.7106 N   0  0  0  0  0  0  0  0  0  0  0  0
   24.1261  -21.1299   -8.2301 N   0  0  0  0  0  0  0  0  0  0  0  0
   25.2331  -20.6249   -9.0113 C   0  0  0  0  0  0  0  0  0  0  0  0
   24.9789  -20.9047  -10.4666 C   0  0  0  0  0  0  0  0  0  0  0  0
   26.1031  -20.4918  -11.3648 C   0  0  0  0  0  0  0  0  0  0  0  0
   25.8349  -20.9178  -12.7850 C   0  0  2  0  0  0  0  0  0  0  0  0
   26.9730  -20.5038  -13.5935 N   0  0  0  0  0  0  0  0  0  0  0  0
   24.5685  -20.3436  -13.2990 C   0  0  0  0  0  0  0  0  0  0  0  0
   24.4376  -19.1000  -13.3150 O   0  0  0  0  0  0  0  0  0  0  0  0
   22.0483  -21.8172   -6.9402 C   0  0  0  0  0  0  0  0  0  0  0  0
   21.4933  -22.6398  -15.3796 C   0  0  2  0  0  0  0  0  0  0  0  0
   21.9168  -21.2236  -15.6582 O   0  0  0  0  0  0  0  0  0  0  0  0
   20.7839  -20.5452  -16.1391 C   0  0  1  0  0  0  0  0  0  0  0  0
   22.2914  -20.5740  -14.3449 N   0  0  0  0  0  0  0  0  0  0  0  0
   23.4969  -21.1398  -13.7741 C   0  0  0  0  0  0  0  0  0  0  0  0
   21.1745  -20.6302  -13.3737 O   0  0  0  0  0  0  0  0  0  0  0  0
   21.3599  -21.1964  -12.2674 O   0  0  0  0  0  0  0  0  0  0  0  0
  2  1  1  6
  3  2  1  0
  4  2  1  0
  5  4  1  0
  5  6  1  6
  7  5  1  0
  7  8  2  0
  9 10  1  0
 10 12  1  0
 11 10  2  0
 12 13  1  0
 13 14  1  0
 14 15  1  0
 16 17  1  0
 16 15  1  1
 17  7  1  0
 18 16  1  0
 19 18  2  0
 21 20  1  6
 21 23  1  0
 22 21  1  0
 23 24  1  6
 24 18  1  0
 25 23  1  0
 25 27  1  0
 26 25  2  0
M  END
$$$$
