LRT.pdb
     RDKit          3D

 27 26  0  0  1  0  0  0  0  0999 V2000
   28.6390  -18.2077  -19.4841 C   0  0  0  0  0  0  0  0  0  0  0  0
   28.8894  -19.0032  -18.2157 C   0  0  1  0  0  0  0  0  0  0  0  0
   29.3650  -17.9625  -17.1813 C   0  0  0  0  0  0  0  0  0  0  0  0
   27.6443  -19.6157  -17.6745 C   0  0  0  0  0  0  0  0  0  0  0  0
   27.8239  -20.2720  -16.3142 C   0  0  2  0  0  0  0  0  0  0  0  0
   28.5108  -21.5557  -16.6037 N   0  0  0  0  0  0  0  0  0  0  0  0
   26.5436  -20.6420  -15.6751 C   0  0  0  0  0  0  0  0  0  0  0  0
   25.7410  -21.3633  -16.3170 O   0  0  0  0  0  0  0  0  0  0  0  0
   23.5385  -20.5606   -7.1567 N   0  0  0  0  0  0  0  0  0  0  0  0
   22.5244  -21.0529   -7.9976 C   0  0  0  0  0  0  0  0  0  0  0  0
   21.3960  -21.4176   -7.5239 N   0  0  0  0  0  0  0  0  0  0  0  0
   22.7463  -21.1512   -9.3984 N   0  0  0  0  0  0  0  0  0  0  0  0
   23.9487  -20.6379  -10.0161 C   0  0  0  0  0  0  0  0  0  0  0  0
   23.8620  -20.8343  -11.5043 C   0  0  0  0  0  0  0  0  0  0  0  0
   25.1014  -20.4277  -12.2388 C   0  0  0  0  0  0  0  0  0  0  0  0
   24.9194  -20.5949  -13.7252 C   0  0  2  0  0  0  0  0  0  0  0  0
   26.1727  -20.2267  -14.3686 N   0  0  0  0  0  0  0  0  0  0  0  0
   23.7902  -19.7801  -14.2336 C   0  0  0  0  0  0  0  0  0  0  0  0
   23.8465  -18.5367  -14.1125 O   0  0  0  0  0  0  0  0  0  0  0  0
   20.6381  -21.7799   -8.1300 C   0  0  0  0  0  0  0  0  0  0  0  0
   22.4084  -18.9503  -17.4560 C   0  0  2  0  0  0  0  0  0  0  0  0
   21.2636  -19.6308  -16.7566 O   0  0  0  0  0  0  0  0  0  0  0  0
   21.3193  -20.9902  -17.1087 C   0  0  2  0  0  0  0  0  0  0  0  0
   21.5064  -19.5544  -15.2659 N   0  0  0  0  0  0  0  0  0  0  0  0
   22.6473  -20.3455  -14.8519 C   0  0  0  0  0  0  0  0  0  0  0  0
   20.2977  -19.9352  -14.4990 O   0  0  0  0  0  0  0  0  0  0  0  0
   20.3709  -20.8898  -13.6853 O   0  0  0  0  0  0  0  0  0  0  0  0
  2  1  1  6
  3  2  1  0
  4  2  1  0
  5  4  1  0
  5  6  1  6
  7  5  1  0
  7  8  2  0
  9 10  1  0
 10 12  1  0
 11 10  2  0
 12 13  1  0
 13 14  1  0
 14 15  1  0
 16 17  1  0
 16 15  1  1
 17  7  1  0
 18 16  1  0
 19 18  2  0
 21 20  1  6
 21 23  1  0
 22 21  1  0
 23 24  1  1
 24 18  1  0
 25 23  1  0
 25 27  1  0
 26 25  2  0
M  END
$$$$
