LRT.pdb
     RDKit          3D

 27 26  0  0  1  0  0  0  0  0999 V2000
   28.0403  -18.0643  -17.7984 C   0  0  0  0  0  0  0  0  0  0  0  0
   28.2020  -19.1178  -16.7174 C   0  0  1  0  0  0  0  0  0  0  0  0
   28.9961  -18.4177  -15.5957 C   0  0  0  0  0  0  0  0  0  0  0  0
   26.8977  -19.5344  -16.1311 C   0  0  0  0  0  0  0  0  0  0  0  0
   27.0303  -20.4901  -14.9553 C   0  0  2  0  0  0  0  0  0  0  0  0
   27.4229  -21.7851  -15.5655 N   0  0  0  0  0  0  0  0  0  0  0  0
   25.7468  -20.7472  -14.2692 C   0  0  0  0  0  0  0  0  0  0  0  0
   24.8673  -21.4085  -14.8738 O   0  0  0  0  0  0  0  0  0  0  0  0
   20.1579  -23.0987   -9.3138 N   0  0  0  0  0  0  0  0  0  0  0  0
   20.8179  -22.3440   -8.3276 C   0  0  0  0  0  0  0  0  0  0  0  0
   20.6265  -22.5728   -7.0859 N   0  0  0  0  0  0  0  0  0  0  0  0
   21.7144  -21.3074   -8.7055 N   0  0  0  0  0  0  0  0  0  0  0  0
   22.1179  -21.1143  -10.0805 C   0  0  0  0  0  0  0  0  0  0  0  0
   23.0533  -19.9397  -10.1605 C   0  0  0  0  0  0  0  0  0  0  0  0
   24.3538  -20.2501  -10.8338 C   0  0  0  0  0  0  0  0  0  0  0  0
   24.1561  -20.4344  -12.3161 C   0  0  2  0  0  0  0  0  0  0  0  0
   25.4552  -20.2876  -12.9574 N   0  0  0  0  0  0  0  0  0  0  0  0
   23.1714  -19.4696  -12.8613 C   0  0  0  0  0  0  0  0  0  0  0  0
   23.3033  -18.2574  -12.5833 O   0  0  0  0  0  0  0  0  0  0  0  0
   21.0814  -22.0065   -6.3475 C   0  0  0  0  0  0  0  0  0  0  0  0
   22.1248  -18.7061  -16.4052 C   0  0  2  0  0  0  0  0  0  0  0  0
   20.8646  -19.0816  -15.6749 O   0  0  0  0  0  0  0  0  0  0  0  0
   20.6542  -20.4526  -15.9009 C   0  0  2  0  0  0  0  0  0  0  0  0
   21.1088  -18.9148  -14.1918 N   0  0  0  0  0  0  0  0  0  0  0  0
   22.0852  -19.8575  -13.6845 C   0  0  0  0  0  0  0  0  0  0  0  0
   19.8469  -19.0005  -13.4210 O   0  0  0  0  0  0  0  0  0  0  0  0
   19.7062  -19.9310  -12.5884 O   0  0  0  0  0  0  0  0  0  0  0  0
  2  1  1  6
  3  2  1  0
  4  2  1  0
  5  4  1  0
  5  6  1  6
  7  5  1  0
  7  8  2  0
  9 10  1  0
 10 12  1  0
 11 10  2  0
 12 13  1  0
 13 14  1  0
 14 15  1  0
 16 17  1  0
 16 15  1  1
 17  7  1  0
 18 16  1  0
 19 18  2  0
 21 20  1  6
 21 23  1  0
 22 21  1  0
 23 24  1  1
 24 18  1  0
 25 23  1  0
 25 27  1  0
 26 25  2  0
M  END
$$$$
