LRT.pdb
     RDKit          3D

 27 26  0  0  1  0  0  0  0  0999 V2000
   29.5224  -20.2047   -5.3981 C   0  0  0  0  0  0  0  0  0  0  0  0
   28.0420  -20.2555   -5.7305 C   0  0  1  0  0  0  0  0  0  0  0  0
   27.4421  -18.9996   -5.0656 C   0  0  0  0  0  0  0  0  0  0  0  0
   27.7840  -20.1379   -7.1927 C   0  0  0  0  0  0  0  0  0  0  0  0
   26.3071  -20.1060   -7.5550 C   0  0  2  0  0  0  0  0  0  0  0  0
   25.8270  -21.4870   -7.2987 N   0  0  0  0  0  0  0  0  0  0  0  0
   26.0678  -19.8628   -8.9930 C   0  0  0  0  0  0  0  0  0  0  0  0
   26.2665  -18.7087   -9.4457 O   0  0  0  0  0  0  0  0  0  0  0  0
   26.0377  -23.7855  -15.9670 N   0  0  0  0  0  0  0  0  0  0  0  0
   26.4960  -22.5830  -16.5343 C   0  0  0  0  0  0  0  0  0  0  0  0
   26.2761  -22.3087  -17.7619 N   0  0  0  0  0  0  0  0  0  0  0  0
   27.2164  -21.6500  -15.7396 N   0  0  0  0  0  0  0  0  0  0  0  0
   27.4558  -21.8750  -14.3314 C   0  0  0  0  0  0  0  0  0  0  0  0
   26.3899  -21.1784  -13.5317 C   0  0  0  0  0  0  0  0  0  0  0  0
   26.5542  -21.3264  -12.0512 C   0  0  0  0  0  0  0  0  0  0  0  0
   25.4246  -20.6493  -11.3191 C   0  0  2  0  0  0  0  0  0  0  0  0
   25.6269  -20.8684   -9.8937 N   0  0  0  0  0  0  0  0  0  0  0  0
   24.1037  -21.1553  -11.7623 C   0  0  0  0  0  0  0  0  0  0  0  0
   23.7674  -22.3157  -11.4390 O   0  0  0  0  0  0  0  0  0  0  0  0
   26.6191  -21.4341  -18.1982 C   0  0  0  0  0  0  0  0  0  0  0  0
   20.8167  -18.6421  -12.3773 C   0  0  2  0  0  0  0  0  0  0  0  0
   20.8243  -20.0918  -11.9763 O   0  0  0  0  0  0  0  0  0  0  0  0
   19.5676  -20.6180  -12.3210 C   0  0  1  0  0  0  0  0  0  0  0  0
   21.8482  -20.8127  -12.8243 N   0  0  0  0  0  0  0  0  0  0  0  0
   23.2020  -20.3840  -12.5370 C   0  0  0  0  0  0  0  0  0  0  0  0
   21.5498  -20.6759  -14.2686 O   0  0  0  0  0  0  0  0  0  0  0  0
   22.3435  -20.0254  -14.9935 O   0  0  0  0  0  0  0  0  0  0  0  0
  2  1  1  6
  3  2  1  0
  4  2  1  0
  5  4  1  0
  5  6  1  6
  7  5  1  0
  7  8  2  0
  9 10  1  0
 10 12  1  0
 11 10  2  0
 12 13  1  0
 13 14  1  0
 14 15  1  0
 16 17  1  0
 16 15  1  6
 17  7  1  0
 18 16  1  0
 19 18  2  0
 21 20  1  1
 21 23  1  0
 22 21  1  0
 23 24  1  1
 24 18  1  0
 25 23  1  0
 25 27  1  0
 26 25  2  0
M  END
$$$$
