LRT.pdb
     RDKit          3D

 27 26  0  0  1  0  0  0  0  0999 V2000
   12.4564  -11.7976  -16.6465 C   0  0  0  0  0  0  0  0  0  0  0  0
   13.7253  -12.4872  -17.1145 C   0  0  1  0  0  0  0  0  0  0  0  0
   14.0068  -11.8961  -18.5111 C   0  0  0  0  0  0  0  0  0  0  0  0
   14.8991  -12.1576  -16.2589 C   0  0  0  0  0  0  0  0  0  0  0  0
   16.2123  -12.7285  -16.7718 C   0  0  2  0  0  0  0  0  0  0  0  0
   16.2192  -14.1367  -16.3024 N   0  0  0  0  0  0  0  0  0  0  0  0
   17.3987  -12.0986  -16.1554 C   0  0  0  0  0  0  0  0  0  0  0  0
   17.5997  -12.2742  -14.9286 O   0  0  0  0  0  0  0  0  0  0  0  0
   25.2896  -13.0920  -15.8720 N   0  0  0  0  0  0  0  0  0  0  0  0
   25.4059  -11.6992  -15.7156 C   0  0  0  0  0  0  0  0  0  0  0  0
   26.4252  -11.1840  -15.1444 N   0  0  0  0  0  0  0  0  0  0  0  0
   24.3800  -10.8405  -16.1964 N   0  0  0  0  0  0  0  0  0  0  0  0
   23.2328  -11.3526  -16.9123 C   0  0  0  0  0  0  0  0  0  0  0  0
   21.9772  -10.8223  -16.2772 C   0  0  0  0  0  0  0  0  0  0  0  0
   20.7202  -11.3572  -16.8895 C   0  0  0  0  0  0  0  0  0  0  0  0
   19.5092  -10.6944  -16.2856 C   0  0  2  0  0  0  0  0  0  0  0  0
   18.3282  -11.3055  -16.8793 N   0  0  0  0  0  0  0  0  0  0  0  0
   19.5245   -9.2275  -16.4986 C   0  0  0  0  0  0  0  0  0  0  0  0
   19.6960   -8.7922  -17.6584 O   0  0  0  0  0  0  0  0  0  0  0  0
   26.5443  -10.1589  -15.0556 C   0  0  0  0  0  0  0  0  0  0  0  0
   17.0762   -6.6428  -16.2747 C   0  0  2  0  0  0  0  0  0  0  0  0
   18.1301   -6.1625  -15.3150 O   0  0  0  0  0  0  0  0  0  0  0  0
   17.7496   -6.6030  -14.0359 C   0  0  2  0  0  0  0  0  0  0  0  0
   19.4293   -6.8605  -15.6498 N   0  0  0  0  0  0  0  0  0  0  0  0
   19.3535   -8.2930  -15.4471 C   0  0  0  0  0  0  0  0  0  0  0  0
   20.5656   -6.2831  -14.8952 O   0  0  0  0  0  0  0  0  0  0  0  0
   21.2270   -7.0281  -14.1295 O   0  0  0  0  0  0  0  0  0  0  0  0
  2  1  1  1
  3  2  1  0
  4  2  1  0
  5  4  1  0
  5  6  1  1
  7  5  1  0
  7  8  2  0
  9 10  1  0
 10 12  1  0
 11 10  2  0
 12 13  1  0
 13 14  1  0
 14 15  1  0
 16 17  1  0
 16 15  1  6
 17  7  1  0
 18 16  1  0
 19 18  2  0
 21 20  1  1
 21 23  1  0
 22 21  1  0
 23 24  1  6
 24 18  1  0
 25 23  1  0
 25 27  1  0
 26 25  2  0
M  END
$$$$
