LRT.pdb
     RDKit          3D

 27 26  0  0  1  0  0  0  0  0999 V2000
   24.2169  -13.9329  -17.7243 C   0  0  0  0  0  0  0  0  0  0  0  0
   23.5480  -13.3536  -16.4908 C   0  0  1  0  0  0  0  0  0  0  0  0
   24.5421  -13.6136  -15.3405 C   0  0  0  0  0  0  0  0  0  0  0  0
   23.3672  -11.8781  -16.5832 C   0  0  0  0  0  0  0  0  0  0  0  0
   22.6010  -11.2789  -15.4137 C   0  0  2  0  0  0  0  0  0  0  0  0
   21.6801  -12.3574  -14.9752 N   0  0  0  0  0  0  0  0  0  0  0  0
   21.7319  -10.1501  -15.8070 C   0  0  0  0  0  0  0  0  0  0  0  0
   22.2631   -9.1409  -16.3322 O   0  0  0  0  0  0  0  0  0  0  0  0
   12.7630   -8.8670  -15.7946 N   0  0  0  0  0  0  0  0  0  0  0  0
   13.3921   -7.6778  -16.2042 C   0  0  0  0  0  0  0  0  0  0  0  0
   12.7099   -6.6355  -16.4851 N   0  0  0  0  0  0  0  0  0  0  0  0
   14.8086   -7.6219  -16.3113 N   0  0  0  0  0  0  0  0  0  0  0  0
   15.6376   -8.7769  -16.0477 C   0  0  0  0  0  0  0  0  0  0  0  0
   17.0834   -8.3914  -16.1957 C   0  0  0  0  0  0  0  0  0  0  0  0
   18.0365   -9.5158  -15.9346 C   0  0  0  0  0  0  0  0  0  0  0  0
   19.4616   -9.0287  -15.9820 C   0  0  2  0  0  0  0  0  0  0  0  0
   20.3235  -10.1468  -15.6250 N   0  0  0  0  0  0  0  0  0  0  0  0
   19.6750   -7.8715  -15.0805 C   0  0  0  0  0  0  0  0  0  0  0  0
   19.5715   -8.0464  -13.8465 O   0  0  0  0  0  0  0  0  0  0  0  0
   13.1557   -5.7612  -16.8166 C   0  0  0  0  0  0  0  0  0  0  0  0
   22.3686   -6.0274  -13.8706 C   0  0  2  0  0  0  0  0  0  0  0  0
   21.5715   -4.9621  -14.5724 O   0  0  0  0  0  0  0  0  0  0  0  0
   22.0653   -4.8803  -15.8855 C   0  0  2  0  0  0  0  0  0  0  0  0
   20.1375   -5.4319  -14.6723 N   0  0  0  0  0  0  0  0  0  0  0  0
   19.9915   -6.5734  -15.5525 C   0  0  0  0  0  0  0  0  0  0  0  0
   19.2339   -4.3329  -15.0840 O   0  0  0  0  0  0  0  0  0  0  0  0
   18.5553   -4.4657  -16.1331 O   0  0  0  0  0  0  0  0  0  0  0  0
  2  1  1  6
  3  2  1  0
  4  2  1  0
  5  4  1  0
  5  6  1  6
  7  5  1  0
  7  8  2  0
  9 10  1  0
 10 12  1  0
 11 10  2  0
 12 13  1  0
 13 14  1  0
 14 15  1  0
 16 17  1  0
 16 15  1  1
 17  7  1  0
 18 16  1  0
 19 18  2  0
 21 20  1  1
 21 23  1  0
 22 21  1  0
 23 24  1  1
 24 18  1  0
 25 23  1  0
 25 27  1  0
 26 25  2  0
M  END
$$$$
