LRT.pdb
     RDKit          3D

 27 26  0  0  1  0  0  0  0  0999 V2000
   24.8297  -13.3892  -16.6626 C   0  0  0  0  0  0  0  0  0  0  0  0
   25.7146  -14.6223  -16.6973 C   0  0  1  0  0  0  0  0  0  0  0  0
   26.7885  -14.3712  -15.6191 C   0  0  0  0  0  0  0  0  0  0  0  0
   24.9826  -15.8577  -16.3018 C   0  0  0  0  0  0  0  0  0  0  0  0
   25.8734  -17.0836  -16.1703 C   0  0  2  0  0  0  0  0  0  0  0  0
   26.1090  -17.5289  -17.5666 N   0  0  0  0  0  0  0  0  0  0  0  0
   25.2040  -18.2176  -15.4993 C   0  0  0  0  0  0  0  0  0  0  0  0
   24.3803  -18.9000  -16.1567 O   0  0  0  0  0  0  0  0  0  0  0  0
   29.1051  -23.2173  -10.2537 N   0  0  0  0  0  0  0  0  0  0  0  0
   29.6650  -21.9508  -10.4994 C   0  0  0  0  0  0  0  0  0  0  0  0
   30.7685  -21.6031   -9.9590 N   0  0  0  0  0  0  0  0  0  0  0  0
   29.0023  -21.0343  -11.3607 N   0  0  0  0  0  0  0  0  0  0  0  0
   27.6785  -20.5333  -11.0648 C   0  0  0  0  0  0  0  0  0  0  0  0
   26.8731  -20.4863  -12.3336 C   0  0  0  0  0  0  0  0  0  0  0  0
   25.5044  -19.9063  -12.1572 C   0  0  0  0  0  0  0  0  0  0  0  0
   24.8271  -19.7229  -13.4906 C   0  0  2  0  0  0  0  0  0  0  0  0
   25.4456  -18.5799  -14.1475 N   0  0  0  0  0  0  0  0  0  0  0  0
   23.3644  -19.5346  -13.3406 C   0  0  0  0  0  0  0  0  0  0  0  0
   22.9434  -18.4453  -12.8930 O   0  0  0  0  0  0  0  0  0  0  0  0
   31.2020  -20.6804  -10.1424 C   0  0  0  0  0  0  0  0  0  0  0  0
   21.0680  -19.5596  -16.0897 C   0  0  2  0  0  0  0  0  0  0  0  0
   20.6629  -19.1444  -14.7019 O   0  0  0  0  0  0  0  0  0  0  0  0
   19.2636  -19.0147  -14.7060 C   0  0  1  0  0  0  0  0  0  0  0  0
   20.9949  -20.2746  -13.7534 N   0  0  0  0  0  0  0  0  0  0  0  0
   22.4186  -20.5334  -13.6812 C   0  0  0  0  0  0  0  0  0  0  0  0
   20.2540  -21.5094  -14.1001 O   0  0  0  0  0  0  0  0  0  0  0  0
   20.9019  -22.5300  -14.4429 O   0  0  0  0  0  0  0  0  0  0  0  0
  2  1  1  1
  3  2  1  0
  4  2  1  0
  5  4  1  0
  5  6  1  6
  7  5  1  0
  7  8  2  0
  9 10  1  0
 10 12  1  0
 11 10  2  0
 12 13  1  0
 13 14  1  0
 14 15  1  0
 16 17  1  0
 16 15  1  1
 17  7  1  0
 18 16  1  0
 19 18  2  0
 21 20  1  6
 21 23  1  0
 22 21  1  0
 23 24  1  1
 24 18  1  0
 25 23  1  0
 25 27  1  0
 26 25  2  0
M  END
$$$$
