LRT.pdb
     RDKit          3D

 27 26  0  0  1  0  0  0  0  0999 V2000
   25.8295  -20.9154   -8.2182 C   0  0  0  0  0  0  0  0  0  0  0  0
   24.7149  -20.7133   -9.2289 C   0  0  1  0  0  0  0  0  0  0  0  0
   23.8043  -19.6354   -8.6060 C   0  0  0  0  0  0  0  0  0  0  0  0
   25.2131  -20.1665  -10.5217 C   0  0  0  0  0  0  0  0  0  0  0  0
   24.1170  -19.9180  -11.5465 C   0  0  2  0  0  0  0  0  0  0  0  0
   23.0312  -20.8582  -11.1714 N   0  0  0  0  0  0  0  0  0  0  0  0
   24.5112  -20.2941  -12.9203 C   0  0  0  0  0  0  0  0  0  0  0  0
   25.5910  -19.8449  -13.3769 O   0  0  0  0  0  0  0  0  0  0  0  0
   24.7177  -25.9086  -15.2207 N   0  0  0  0  0  0  0  0  0  0  0  0
   24.9592  -26.1643  -16.5824 C   0  0  0  0  0  0  0  0  0  0  0  0
   25.8465  -27.0074  -16.9463 N   0  0  0  0  0  0  0  0  0  0  0  0
   24.2108  -25.4803  -17.5789 N   0  0  0  0  0  0  0  0  0  0  0  0
   23.1646  -24.5431  -17.2353 C   0  0  0  0  0  0  0  0  0  0  0  0
   23.7861  -23.2319  -16.8409 C   0  0  0  0  0  0  0  0  0  0  0  0
   23.5361  -22.8515  -15.4148 C   0  0  0  0  0  0  0  0  0  0  0  0
   24.0880  -21.4799  -15.1243 C   0  0  2  0  0  0  0  0  0  0  0  0
   23.7332  -21.1415  -13.7531 N   0  0  0  0  0  0  0  0  0  0  0  0
   23.5760  -20.4698  -16.0808 C   0  0  0  0  0  0  0  0  0  0  0  0
   22.3778  -20.1208  -15.9994 O   0  0  0  0  0  0  0  0  0  0  0  0
   26.0612  -27.1809  -17.9447 C   0  0  0  0  0  0  0  0  0  0  0  0
   24.3821  -16.8267  -19.2687 C   0  0  2  0  0  0  0  0  0  0  0  0
   24.9687  -17.8298  -18.3135 O   0  0  0  0  0  0  0  0  0  0  0  0
   25.2679  -17.1384  -17.1272 C   0  0  1  0  0  0  0  0  0  0  0  0
   23.8977  -18.8416  -17.9723 N   0  0  0  0  0  0  0  0  0  0  0  0
   24.3825  -19.8796  -17.0854 C   0  0  0  0  0  0  0  0  0  0  0  0
   23.2995  -19.4309  -19.1924 O   0  0  0  0  0  0  0  0  0  0  0  0
   23.8163  -20.4659  -19.6827 O   0  0  0  0  0  0  0  0  0  0  0  0
  2  1  1  1
  3  2  1  0
  4  2  1  0
  5  4  1  0
  5  6  1  1
  7  5  1  0
  7  8  2  0
  9 10  1  0
 10 12  1  0
 11 10  2  0
 12 13  1  0
 13 14  1  0
 14 15  1  0
 16 17  1  0
 16 15  1  6
 17  7  1  0
 18 16  1  0
 19 18  2  0
 21 20  1  6
 21 23  1  0
 22 21  1  0
 23 24  1  6
 24 18  1  0
 25 23  1  0
 25 27  1  0
 26 25  2  0
M  END
$$$$
