LRT.pdb
     RDKit          3D

 27 26  0  0  1  0  0  0  0  0999 V2000
   29.1424  -19.4287   -6.6112 C   0  0  0  0  0  0  0  0  0  0  0  0
   27.8091  -19.9699   -7.0951 C   0  0  1  0  0  0  0  0  0  0  0  0
   26.7502  -19.2272   -6.2548 C   0  0  0  0  0  0  0  0  0  0  0  0
   27.5444  -19.6345   -8.5219 C   0  0  0  0  0  0  0  0  0  0  0  0
   26.1598  -20.0418   -9.0018 C   0  0  2  0  0  0  0  0  0  0  0  0
   26.0506  -21.4815   -8.6571 N   0  0  0  0  0  0  0  0  0  0  0  0
   26.0113  -19.9727  -10.4706 C   0  0  0  0  0  0  0  0  0  0  0  0
   25.9973  -18.8428  -11.0180 O   0  0  0  0  0  0  0  0  0  0  0  0
   29.3159  -22.9854  -16.8805 N   0  0  0  0  0  0  0  0  0  0  0  0
   28.4512  -22.0478  -17.4731 C   0  0  0  0  0  0  0  0  0  0  0  0
   28.1757  -22.1022  -18.7188 N   0  0  0  0  0  0  0  0  0  0  0  0
   27.8683  -21.0187  -16.6843 N   0  0  0  0  0  0  0  0  0  0  0  0
   27.8901  -21.0632  -15.2392 C   0  0  0  0  0  0  0  0  0  0  0  0
   26.8863  -22.0755  -14.7609 C   0  0  0  0  0  0  0  0  0  0  0  0
   26.7684  -22.1492  -13.2704 C   0  0  0  0  0  0  0  0  0  0  0  0
   25.8526  -21.0698  -12.7541 C   0  0  2  0  0  0  0  0  0  0  0  0
   25.8865  -21.1194  -11.2991 N   0  0  0  0  0  0  0  0  0  0  0  0
   24.4719  -21.2304  -13.2691 C   0  0  0  0  0  0  0  0  0  0  0  0
   23.8758  -22.3095  -13.0588 O   0  0  0  0  0  0  0  0  0  0  0  0
   27.5378  -21.4218  -19.1695 C   0  0  0  0  0  0  0  0  0  0  0  0
   21.1868  -19.6389  -12.6358 C   0  0  2  0  0  0  0  0  0  0  0  0
   21.4856  -19.3708  -14.0854 O   0  0  0  0  0  0  0  0  0  0  0  0
   22.1361  -18.1266  -14.1455 C   0  0  2  0  0  0  0  0  0  0  0  0
   22.4777  -20.4070  -14.5642 N   0  0  0  0  0  0  0  0  0  0  0  0
   23.7942  -20.2162  -13.9903 C   0  0  0  0  0  0  0  0  0  0  0  0
   22.5505  -20.4459  -16.0431 O   0  0  0  0  0  0  0  0  0  0  0  0
   23.6332  -20.1459  -16.6056 O   0  0  0  0  0  0  0  0  0  0  0  0
  2  1  1  1
  3  2  1  0
  4  2  1  0
  5  4  1  0
  5  6  1  6
  7  5  1  0
  7  8  2  0
  9 10  1  0
 10 12  1  0
 11 10  2  0
 12 13  1  0
 13 14  1  0
 14 15  1  0
 16 17  1  0
 16 15  1  6
 17  7  1  0
 18 16  1  0
 19 18  2  0
 21 20  1  6
 21 23  1  0
 22 21  1  0
 23 24  1  6
 24 18  1  0
 25 23  1  0
 25 27  1  0
 26 25  2  0
M  END
$$$$
