WWT.pdb
     RDKit          3D

 36 39  0  0  1  0  0  0  0  0999 V2000
   27.2356  -20.7131  -18.3152 N   0  0  0  0  0  0  0  0  0  0  0  0
   26.3141  -20.1908  -17.3718 C   0  0  1  0  0  0  0  0  0  0  0  0
   24.9104  -20.2969  -17.8492 C   0  0  0  0  0  0  0  0  0  0  0  0
   24.7540  -19.5617  -19.1310 C   0  0  0  0  0  0  0  0  0  0  0  0
   24.9494  -20.1071  -20.4119 C   0  0  0  0  0  0  0  0  0  0  0  0
   24.6926  -19.1850  -21.3438 N   0  0  0  0  0  0  0  0  0  0  0  0
   24.3332  -18.0419  -20.7412 C   0  0  0  0  0  0  0  0  0  0  0  0
   23.9742  -16.7936  -21.2111 C   0  0  0  0  0  0  0  0  0  0  0  0
   23.6494  -15.7558  -20.3724 C   0  0  0  0  0  0  0  0  0  0  0  0
   23.6983  -16.0168  -19.0263 C   0  0  0  0  0  0  0  0  0  0  0  0
   24.0521  -17.2519  -18.5001 C   0  0  0  0  0  0  0  0  0  0  0  0
   24.3668  -18.2584  -19.3708 C   0  0  0  0  0  0  0  0  0  0  0  0
   26.4804  -20.7676  -15.9896 C   0  0  0  0  0  0  0  0  0  0  0  0
   26.3856  -21.9918  -15.8845 O   0  0  0  0  0  0  0  0  0  0  0  0
   26.7328  -19.9607  -14.8605 N   0  0  0  0  0  0  0  0  0  0  0  0
   26.3670  -20.1954  -13.5008 C   0  0  1  0  0  0  0  0  0  0  0  0
   27.0691  -19.3597  -12.4889 C   0  0  0  0  0  0  0  0  0  0  0  0
   26.7020  -19.6706  -11.0979 C   0  0  0  0  0  0  0  0  0  0  0  0
   25.4397  -19.6098  -10.5070 C   0  0  0  0  0  0  0  0  0  0  0  0
   25.5322  -19.9972   -9.2272 N   0  0  0  0  0  0  0  0  0  0  0  0
   26.8164  -20.3074   -8.9688 C   0  0  0  0  0  0  0  0  0  0  0  0
   27.4538  -20.7488   -7.8279 C   0  0  0  0  0  0  0  0  0  0  0  0
   28.8105  -20.9999   -7.7967 C   0  0  0  0  0  0  0  0  0  0  0  0
   29.5655  -20.8074   -8.9349 C   0  0  0  0  0  0  0  0  0  0  0  0
   28.9099  -20.3659  -10.0649 C   0  0  0  0  0  0  0  0  0  0  0  0
   27.5560  -20.1104  -10.1170 C   0  0  0  0  0  0  0  0  0  0  0  0
   24.8952  -20.3427  -13.2528 C   0  0  0  0  0  0  0  0  0  0  0  0
   24.1772  -19.3216  -13.3740 O   0  0  0  0  0  0  0  0  0  0  0  0
   22.7210  -22.7344  -15.1378 C   0  0  0  0  0  0  0  0  0  0  0  0
   22.4404  -22.9005  -13.6919 C   0  0  1  0  0  0  0  0  0  0  0  0
   23.0832  -24.0801  -13.2496 O   0  0  0  0  0  0  0  0  0  0  0  0
   22.9065  -21.7704  -12.8082 C   0  0  2  0  0  0  0  0  0  0  0  0
   24.3443  -21.6047  -12.8935 N   0  0  0  0  0  0  0  0  0  0  0  0
   22.5221  -21.8772  -11.4105 C   0  0  0  0  0  0  0  0  0  0  0  0
   21.2336  -21.9091  -10.9063 O   0  0  0  0  0  0  0  0  0  0  0  0
   23.4376  -21.9510  -10.5283 O   0  0  0  0  0  0  0  0  0  0  0  0
  2  3  1  0
  2  1  1  6
  4 12  1  0
  4  3  1  0
  5  4  2  0
  6  5  1  0
  6  7  1  0
  7  8  1  0
  7 12  2  0
  8  9  2  0
  9 10  1  0
 11 10  2  0
 12 11  1  0
 13  2  1  0
 14 13  2  0
 15 13  1  0
 16 15  1  0
 16 17  1  1
 18 17  1  0
 19 18  2  0
 20 19  1  0
 21 20  1  0
 21 26  2  0
 22 21  1  0
 23 22  2  0
 23 24  1  0
 24 25  2  0
 25 26  1  0
 26 18  1  0
 27 16  1  0
 27 28  2  0
 30 32  1  0
 30 29  1  6
 31 30  1  0
 32 33  1  1
 33 27  1  0
 34 32  1  0
 35 34  1  0
 36 34  2  0
M  END
$$$$
