WWT.pdb
     RDKit          3D

 36 39  0  0  1  0  0  0  0  0999 V2000
   24.3301  -19.8028   -8.8268 N   0  0  0  0  0  0  0  0  0  0  0  0
   25.5907  -20.2801   -9.2684 C   0  0  1  0  0  0  0  0  0  0  0  0
   26.1207  -21.3500   -8.3830 C   0  0  0  0  0  0  0  0  0  0  0  0
   26.4625  -20.7838   -7.0524 C   0  0  0  0  0  0  0  0  0  0  0  0
   25.5362  -20.4243   -6.0578 C   0  0  0  0  0  0  0  0  0  0  0  0
   26.1800  -19.9817   -4.9742 N   0  0  0  0  0  0  0  0  0  0  0  0
   27.5012  -20.0285   -5.2003 C   0  0  0  0  0  0  0  0  0  0  0  0
   28.6062  -19.6914   -4.4431 C   0  0  0  0  0  0  0  0  0  0  0  0
   29.8898  -19.8255   -4.9121 C   0  0  0  0  0  0  0  0  0  0  0  0
   30.0293  -20.3163   -6.1859 C   0  0  0  0  0  0  0  0  0  0  0  0
   28.9543  -20.6706   -6.9898 C   0  0  0  0  0  0  0  0  0  0  0  0
   27.6927  -20.5224   -6.4831 C   0  0  0  0  0  0  0  0  0  0  0  0
   25.5996  -20.6964  -10.7167 C   0  0  0  0  0  0  0  0  0  0  0  0
   24.6042  -21.2958  -11.1274 O   0  0  0  0  0  0  0  0  0  0  0  0
   26.6852  -20.4215  -11.5743 N   0  0  0  0  0  0  0  0  0  0  0  0
   26.6643  -19.8272  -12.8720 C   0  0  1  0  0  0  0  0  0  0  0  0
   27.7901  -18.9031  -13.1781 C   0  0  0  0  0  0  0  0  0  0  0  0
   27.7083  -18.2814  -14.5097 C   0  0  0  0  0  0  0  0  0  0  0  0
   27.0464  -17.1082  -14.8724 C   0  0  0  0  0  0  0  0  0  0  0  0
   27.2387  -16.8785  -16.1788 N   0  0  0  0  0  0  0  0  0  0  0  0
   28.0050  -17.8674  -16.6759 C   0  0  0  0  0  0  0  0  0  0  0  0
   28.4903  -18.1192  -17.9423 C   0  0  0  0  0  0  0  0  0  0  0  0
   29.2676  -19.2244  -18.2232 C   0  0  0  0  0  0  0  0  0  0  0  0
   29.5767  -20.1141  -17.2155 C   0  0  0  0  0  0  0  0  0  0  0  0
   29.0822  -19.8449  -15.9566 C   0  0  0  0  0  0  0  0  0  0  0  0
   28.3052  -18.7464  -15.6554 C   0  0  0  0  0  0  0  0  0  0  0  0
   26.3201  -20.7598  -13.9950 C   0  0  0  0  0  0  0  0  0  0  0  0
   27.0147  -21.7955  -14.1280 O   0  0  0  0  0  0  0  0  0  0  0  0
   23.3941  -22.9733  -14.6652 C   0  0  0  0  0  0  0  0  0  0  0  0
   23.5172  -21.9601  -15.7400 C   0  0  1  0  0  0  0  0  0  0  0  0
   22.6534  -20.8830  -15.4330 O   0  0  0  0  0  0  0  0  0  0  0  0
   24.9000  -21.3914  -15.9381 C   0  0  2  0  0  0  0  0  0  0  0  0
   25.2385  -20.4682  -14.8726 N   0  0  0  0  0  0  0  0  0  0  0  0
   25.1261  -20.7427  -17.2191 C   0  0  0  0  0  0  0  0  0  0  0  0
   25.3728  -21.3653  -18.4302 O   0  0  0  0  0  0  0  0  0  0  0  0
   25.1028  -19.4705  -17.2731 O   0  0  0  0  0  0  0  0  0  0  0  0
  2  3  1  0
  2  1  1  1
  4 12  1  0
  4  3  1  0
  5  4  2  0
  6  5  1  0
  6  7  1  0
  7  8  1  0
  7 12  2  0
  8  9  2  0
  9 10  1  0
 11 10  2  0
 12 11  1  0
 13  2  1  0
 14 13  2  0
 15 13  1  0
 16 15  1  0
 16 17  1  6
 18 17  1  0
 19 18  2  0
 20 19  1  0
 21 20  1  0
 21 26  2  0
 22 21  1  0
 23 22  2  0
 23 24  1  0
 24 25  2  0
 25 26  1  0
 26 18  1  0
 27 16  1  0
 27 28  2  0
 30 32  1  0
 30 29  1  1
 31 30  1  0
 32 33  1  1
 33 27  1  0
 34 32  1  0
 35 34  1  0
 36 34  2  0
M  END
$$$$
