WWT.pdb
     RDKit          3D

 36 39  0  0  1  0  0  0  0  0999 V2000
   27.3624  -21.3996  -15.0014 N   0  0  0  0  0  0  0  0  0  0  0  0
   26.6743  -20.5527  -14.0952 C   0  0  1  0  0  0  0  0  0  0  0  0
   25.4081  -20.0318  -14.6740 C   0  0  0  0  0  0  0  0  0  0  0  0
   25.7030  -19.1849  -15.8587 C   0  0  0  0  0  0  0  0  0  0  0  0
   26.4297  -19.5927  -16.9910 C   0  0  0  0  0  0  0  0  0  0  0  0
   26.4798  -18.5991  -17.8825 N   0  0  0  0  0  0  0  0  0  0  0  0
   25.8169  -17.5398  -17.3952 C   0  0  0  0  0  0  0  0  0  0  0  0
   25.5647  -16.2720  -17.8819 C   0  0  0  0  0  0  0  0  0  0  0  0
   24.8503  -15.3386  -17.1720 C   0  0  0  0  0  0  0  0  0  0  0  0
   24.3910  -15.7260  -15.9384 C   0  0  0  0  0  0  0  0  0  0  0  0
   24.6152  -16.9864  -15.4012 C   0  0  0  0  0  0  0  0  0  0  0  0
   25.3304  -17.8862  -16.1424 C   0  0  0  0  0  0  0  0  0  0  0  0
   26.4559  -21.1763  -12.7408 C   0  0  0  0  0  0  0  0  0  0  0  0
   25.8288  -22.2369  -12.7134 O   0  0  0  0  0  0  0  0  0  0  0  0
   26.9386  -20.5889  -11.5528 N   0  0  0  0  0  0  0  0  0  0  0  0
   26.3549  -20.6096  -10.2502 C   0  0  1  0  0  0  0  0  0  0  0  0
   27.1468  -19.9503   -9.1763 C   0  0  0  0  0  0  0  0  0  0  0  0
   26.6667  -20.2402   -7.8155 C   0  0  0  0  0  0  0  0  0  0  0  0
   25.4853  -20.8790   -7.4378 C   0  0  0  0  0  0  0  0  0  0  0  0
   25.4384  -20.9660   -6.1011 N   0  0  0  0  0  0  0  0  0  0  0  0
   26.5532  -20.4026   -5.5991 C   0  0  0  0  0  0  0  0  0  0  0  0
   27.0013  -20.2210   -4.3072 C   0  0  0  0  0  0  0  0  0  0  0  0
   28.1997  -19.5961   -4.0280 C   0  0  0  0  0  0  0  0  0  0  0  0
   28.9844  -19.1333   -5.0636 C   0  0  0  0  0  0  0  0  0  0  0  0
   28.5193  -19.3245   -6.3476 C   0  0  0  0  0  0  0  0  0  0  0  0
   27.3260  -19.9468   -6.6476 C   0  0  0  0  0  0  0  0  0  0  0  0
   24.8886  -20.2978  -10.2036 C   0  0  0  0  0  0  0  0  0  0  0  0
   24.5477  -19.0909  -10.2020 O   0  0  0  0  0  0  0  0  0  0  0  0
   22.5258  -20.5359  -12.7057 C   0  0  0  0  0  0  0  0  0  0  0  0
   21.9544  -21.3354  -11.5961 C   0  0  1  0  0  0  0  0  0  0  0  0
   22.1993  -22.7023  -11.8645 O   0  0  0  0  0  0  0  0  0  0  0  0
   22.5120  -21.0341  -10.2274 C   0  0  2  0  0  0  0  0  0  0  0  0
   23.9266  -21.3457  -10.1637 N   0  0  0  0  0  0  0  0  0  0  0  0
   21.8307  -21.6883   -9.1225 C   0  0  0  0  0  0  0  0  0  0  0  0
   20.4984  -21.5513   -8.7738 O   0  0  0  0  0  0  0  0  0  0  0  0
   22.4951  -22.4766   -8.3748 O   0  0  0  0  0  0  0  0  0  0  0  0
  2  3  1  0
  2  1  1  6
  4 12  1  0
  4  3  1  0
  5  4  2  0
  6  5  1  0
  6  7  1  0
  7  8  1  0
  7 12  2  0
  8  9  2  0
  9 10  1  0
 11 10  2  0
 12 11  1  0
 13  2  1  0
 14 13  2  0
 15 13  1  0
 16 15  1  0
 16 17  1  1
 18 17  1  0
 19 18  2  0
 20 19  1  0
 21 20  1  0
 21 26  2  0
 22 21  1  0
 23 22  2  0
 23 24  1  0
 24 25  2  0
 25 26  1  0
 26 18  1  0
 27 16  1  0
 27 28  2  0
 30 32  1  0
 30 29  1  6
 31 30  1  0
 32 33  1  6
 33 27  1  0
 34 32  1  0
 35 34  1  0
 36 34  2  0
M  END
$$$$
