WWT.pdb
     RDKit          3D

 36 39  0  0  1  0  0  0  0  0999 V2000
   29.3847  -23.0821  -17.3955 N   0  0  0  0  0  0  0  0  0  0  0  0
   28.5149  -21.9851  -17.1680 C   0  0  1  0  0  0  0  0  0  0  0  0
   27.5615  -21.7899  -18.2916 C   0  0  0  0  0  0  0  0  0  0  0  0
   28.2356  -21.0830  -19.4113 C   0  0  0  0  0  0  0  0  0  0  0  0
   28.9875  -21.6978  -20.4277 C   0  0  0  0  0  0  0  0  0  0  0  0
   29.4235  -20.7773  -21.2921 N   0  0  0  0  0  0  0  0  0  0  0  0
   28.9958  -19.5689  -20.8977 C   0  0  0  0  0  0  0  0  0  0  0  0
   29.1558  -18.2937  -21.4039 C   0  0  0  0  0  0  0  0  0  0  0  0
   28.6137  -17.1869  -20.7981 C   0  0  0  0  0  0  0  0  0  0  0  0
   27.8953  -17.4062  -19.6499 C   0  0  0  0  0  0  0  0  0  0  0  0
   27.7032  -18.6655  -19.0979 C   0  0  0  0  0  0  0  0  0  0  0  0
   28.2592  -19.7409  -19.7341 C   0  0  0  0  0  0  0  0  0  0  0  0
   27.8081  -22.0469  -15.8384 C   0  0  0  0  0  0  0  0  0  0  0  0
   27.1840  -23.0800  -15.5898 O   0  0  0  0  0  0  0  0  0  0  0  0
   27.8486  -20.9840  -14.9121 N   0  0  0  0  0  0  0  0  0  0  0  0
   27.1133  -20.8350  -13.6976 C   0  0  1  0  0  0  0  0  0  0  0  0
   27.7902  -20.0590  -12.6230 C   0  0  0  0  0  0  0  0  0  0  0  0
   27.1010  -20.1104  -11.3235 C   0  0  0  0  0  0  0  0  0  0  0  0
   25.8386  -19.6134  -10.9988 C   0  0  0  0  0  0  0  0  0  0  0  0
   25.5732  -19.8875   -9.7139 N   0  0  0  0  0  0  0  0  0  0  0  0
   26.6253  -20.5470   -9.1941 C   0  0  0  0  0  0  0  0  0  0  0  0
   26.8755  -21.0509   -7.9346 C   0  0  0  0  0  0  0  0  0  0  0  0
   28.0544  -21.6979   -7.6247 C   0  0  0  0  0  0  0  0  0  0  0  0
   29.0223  -21.8526   -8.5952 C   0  0  0  0  0  0  0  0  0  0  0  0
   28.7534  -21.3421   -9.8477 C   0  0  0  0  0  0  0  0  0  0  0  0
   27.5821  -20.6937  -10.1775 C   0  0  0  0  0  0  0  0  0  0  0  0
   25.6616  -20.4993  -13.8682 C   0  0  0  0  0  0  0  0  0  0  0  0
   25.3747  -19.4173  -14.4338 O   0  0  0  0  0  0  0  0  0  0  0  0
   23.2812  -22.3382  -15.9373 C   0  0  0  0  0  0  0  0  0  0  0  0
   22.6943  -22.2318  -14.5804 C   0  0  1  0  0  0  0  0  0  0  0  0
   22.9088  -23.4578  -13.9087 O   0  0  0  0  0  0  0  0  0  0  0  0
   23.2607  -21.1342  -13.7146 C   0  0  2  0  0  0  0  0  0  0  0  0
   24.6532  -21.3879  -13.4006 N   0  0  0  0  0  0  0  0  0  0  0  0
   22.5339  -20.8795  -12.4818 C   0  0  0  0  0  0  0  0  0  0  0  0
   21.2417  -20.3974  -12.3670 O   0  0  0  0  0  0  0  0  0  0  0  0
   23.1128  -21.1114  -11.3714 O   0  0  0  0  0  0  0  0  0  0  0  0
  2  3  1  0
  2  1  1  6
  4 12  1  0
  4  3  1  0
  5  4  2  0
  6  5  1  0
  6  7  1  0
  7  8  1  0
  7 12  2  0
  8  9  2  0
  9 10  1  0
 11 10  2  0
 12 11  1  0
 13  2  1  0
 14 13  2  0
 15 13  1  0
 16 15  1  0
 16 17  1  1
 18 17  1  0
 19 18  2  0
 20 19  1  0
 21 20  1  0
 21 26  2  0
 22 21  1  0
 23 22  2  0
 23 24  1  0
 24 25  2  0
 25 26  1  0
 26 18  1  0
 27 16  1  0
 27 28  2  0
 30 32  1  0
 30 29  1  6
 31 30  1  0
 32 33  1  1
 33 27  1  0
 34 32  1  0
 35 34  1  0
 36 34  2  0
M  END
$$$$
