WWT.pdb
     RDKit          3D

 36 39  0  0  1  0  0  0  0  0999 V2000
   26.9931  -20.4935  -16.2097 N   0  0  0  0  0  0  0  0  0  0  0  0
   26.6389  -19.7923  -15.0287 C   0  0  1  0  0  0  0  0  0  0  0  0
   25.5477  -18.8124  -15.2707 C   0  0  0  0  0  0  0  0  0  0  0  0
   25.9844  -17.8041  -16.2709 C   0  0  0  0  0  0  0  0  0  0  0  0
   25.6745  -17.8296  -17.6420 C   0  0  0  0  0  0  0  0  0  0  0  0
   26.1942  -16.7578  -18.2466 N   0  0  0  0  0  0  0  0  0  0  0  0
   26.8414  -16.0133  -17.3378 C   0  0  0  0  0  0  0  0  0  0  0  0
   27.5509  -14.8304  -17.4114 C   0  0  0  0  0  0  0  0  0  0  0  0
   28.1443  -14.2575  -16.3135 C   0  0  0  0  0  0  0  0  0  0  0  0
   27.9998  -14.9217  -15.1216 C   0  0  0  0  0  0  0  0  0  0  0  0
   27.2980  -16.1123  -14.9910 C   0  0  0  0  0  0  0  0  0  0  0  0
   26.7213  -16.6480  -16.1094 C   0  0  0  0  0  0  0  0  0  0  0  0
   26.3302  -20.6979  -13.8644 C   0  0  0  0  0  0  0  0  0  0  0  0
   25.5879  -21.6557  -14.0886 O   0  0  0  0  0  0  0  0  0  0  0  0
   26.8565  -20.4752  -12.5749 N   0  0  0  0  0  0  0  0  0  0  0  0
   26.3118  -20.8626  -11.3135 C   0  0  1  0  0  0  0  0  0  0  0  0
   27.2238  -20.7243  -10.1454 C   0  0  0  0  0  0  0  0  0  0  0  0
   26.5501  -20.8485   -8.8428 C   0  0  0  0  0  0  0  0  0  0  0  0
   25.3344  -21.4712   -8.5587 C   0  0  0  0  0  0  0  0  0  0  0  0
   25.0898  -21.3830   -7.2438 N   0  0  0  0  0  0  0  0  0  0  0  0
   26.1095  -20.7214   -6.6653 C   0  0  0  0  0  0  0  0  0  0  0  0
   26.3574  -20.3563   -5.3584 C   0  0  0  0  0  0  0  0  0  0  0  0
   27.4921  -19.6604   -4.9943 C   0  0  0  0  0  0  0  0  0  0  0  0
   28.4162  -19.3119   -5.9572 C   0  0  0  0  0  0  0  0  0  0  0  0
   28.1504  -19.6860   -7.2576 C   0  0  0  0  0  0  0  0  0  0  0  0
   27.0238  -20.3820   -7.6416 C   0  0  0  0  0  0  0  0  0  0  0  0
   24.9122  -20.3918  -11.0517 C   0  0  0  0  0  0  0  0  0  0  0  0
   24.7505  -19.1905  -10.7297 O   0  0  0  0  0  0  0  0  0  0  0  0
   22.5665  -20.3028  -13.7385 C   0  0  0  0  0  0  0  0  0  0  0  0
   21.8810  -21.0062  -12.6284 C   0  0  1  0  0  0  0  0  0  0  0  0
   21.9400  -22.3963  -12.8827 O   0  0  0  0  0  0  0  0  0  0  0  0
   22.4615  -20.7702  -11.2564 C   0  0  2  0  0  0  0  0  0  0  0  0
   23.8130  -21.2879  -11.1691 N   0  0  0  0  0  0  0  0  0  0  0  0
   21.6775  -21.2985  -10.1522 C   0  0  0  0  0  0  0  0  0  0  0  0
   20.4265  -20.8689   -9.7450 O   0  0  0  0  0  0  0  0  0  0  0  0
   22.1581  -22.2563   -9.4641 O   0  0  0  0  0  0  0  0  0  0  0  0
  2  3  1  0
  2  1  1  6
  4 12  1  0
  4  3  1  0
  5  4  2  0
  6  5  1  0
  6  7  1  0
  7  8  1  0
  7 12  2  0
  8  9  2  0
  9 10  1  0
 11 10  2  0
 12 11  1  0
 13  2  1  0
 14 13  2  0
 15 13  1  0
 16 15  1  0
 16 17  1  1
 18 17  1  0
 19 18  2  0
 20 19  1  0
 21 20  1  0
 21 26  2  0
 22 21  1  0
 23 22  2  0
 23 24  1  0
 24 25  2  0
 25 26  1  0
 26 18  1  0
 27 16  1  0
 27 28  2  0
 30 32  1  0
 30 29  1  6
 31 30  1  0
 32 33  1  6
 33 27  1  0
 34 32  1  0
 35 34  1  0
 36 34  2  0
M  END
$$$$
