WWT.pdb
     RDKit          3D

 36 39  0  0  1  0  0  0  0  0999 V2000
   27.6097  -21.0289  -17.0454 N   0  0  0  0  0  0  0  0  0  0  0  0
   27.3538  -20.3792  -15.8109 C   0  0  1  0  0  0  0  0  0  0  0  0
   26.4596  -19.2034  -15.9769 C   0  0  0  0  0  0  0  0  0  0  0  0
   26.9424  -18.3534  -17.0959 C   0  0  0  0  0  0  0  0  0  0  0  0
   26.2392  -18.0969  -18.2861 C   0  0  0  0  0  0  0  0  0  0  0  0
   26.9430  -17.2674  -19.0613 N   0  0  0  0  0  0  0  0  0  0  0  0
   28.0908  -16.9564  -18.4411 C   0  0  0  0  0  0  0  0  0  0  0  0
   29.1688  -16.1628  -18.7816 C   0  0  0  0  0  0  0  0  0  0  0  0
   30.2579  -16.0068  -17.9598 C   0  0  0  0  0  0  0  0  0  0  0  0
   30.2285  -16.6847  -16.7673 C   0  0  0  0  0  0  0  0  0  0  0  0
   29.1716  -17.4950  -16.3752 C   0  0  0  0  0  0  0  0  0  0  0  0
   28.1060  -17.6215  -17.2230 C   0  0  0  0  0  0  0  0  0  0  0  0
   26.8593  -21.3111  -14.7348 C   0  0  0  0  0  0  0  0  0  0  0  0
   26.2525  -22.3166  -15.1080 O   0  0  0  0  0  0  0  0  0  0  0  0
   27.0720  -21.0603  -13.3631 N   0  0  0  0  0  0  0  0  0  0  0  0
   26.3978  -21.6292  -12.2407 C   0  0  1  0  0  0  0  0  0  0  0  0
   27.2218  -21.8084  -11.0142 C   0  0  0  0  0  0  0  0  0  0  0  0
   26.7962  -20.9719   -9.8805 C   0  0  0  0  0  0  0  0  0  0  0  0
   25.5902  -20.2893   -9.7198 C   0  0  0  0  0  0  0  0  0  0  0  0
   25.5908  -19.6649   -8.5338 N   0  0  0  0  0  0  0  0  0  0  0  0
   26.7610  -19.9208   -7.9195 C   0  0  0  0  0  0  0  0  0  0  0  0
   27.2761  -19.5279   -6.7017 C   0  0  0  0  0  0  0  0  0  0  0  0
   28.5300  -19.9169   -6.2762 C   0  0  0  0  0  0  0  0  0  0  0  0
   29.3038  -20.7240   -7.0839 C   0  0  0  0  0  0  0  0  0  0  0  0
   28.7711  -21.1061   -8.2972 C   0  0  0  0  0  0  0  0  0  0  0  0
   27.5209  -20.7292   -8.7400 C   0  0  0  0  0  0  0  0  0  0  0  0
   25.0256  -21.0839  -11.9776 C   0  0  0  0  0  0  0  0  0  0  0  0
   24.9390  -19.9462  -11.4570 O   0  0  0  0  0  0  0  0  0  0  0  0
   22.8280  -20.6218  -14.8536 C   0  0  0  0  0  0  0  0  0  0  0  0
   22.0211  -21.2859  -13.8024 C   0  0  1  0  0  0  0  0  0  0  0  0
   21.9165  -22.6586  -14.1268 O   0  0  0  0  0  0  0  0  0  0  0  0
   22.5765  -21.1906  -12.4033 C   0  0  2  0  0  0  0  0  0  0  0  0
   23.8688  -21.8417  -12.3130 N   0  0  0  0  0  0  0  0  0  0  0  0
   21.7102  -21.7057  -11.3559 C   0  0  0  0  0  0  0  0  0  0  0  0
   21.9291  -22.8296  -10.5786 O   0  0  0  0  0  0  0  0  0  0  0  0
   20.6280  -21.0860  -11.0974 O   0  0  0  0  0  0  0  0  0  0  0  0
  2  3  1  0
  2  1  1  6
  4 12  1  0
  4  3  1  0
  5  4  2  0
  6  5  1  0
  6  7  1  0
  7  8  1  0
  7 12  2  0
  8  9  2  0
  9 10  1  0
 11 10  2  0
 12 11  1  0
 13  2  1  0
 14 13  2  0
 15 13  1  0
 16 15  1  0
 16 17  1  1
 18 17  1  0
 19 18  2  0
 20 19  1  0
 21 20  1  0
 21 26  2  0
 22 21  1  0
 23 22  2  0
 23 24  1  0
 24 25  2  0
 25 26  1  0
 26 18  1  0
 27 16  1  0
 27 28  2  0
 30 32  1  0
 30 29  1  6
 31 30  1  0
 32 33  1  6
 33 27  1  0
 34 32  1  0
 35 34  1  0
 36 34  2  0
M  END
$$$$
