WWT.pdb
     RDKit          3D

 36 39  0  0  1  0  0  0  0  0999 V2000
   28.1409  -20.1224   -9.6016 N   0  0  0  0  0  0  0  0  0  0  0  0
   26.8620  -20.7210   -9.4676 C   0  0  1  0  0  0  0  0  0  0  0  0
   26.2206  -20.3766   -8.1716 C   0  0  0  0  0  0  0  0  0  0  0  0
   27.2358  -19.8342   -7.2319 C   0  0  0  0  0  0  0  0  0  0  0  0
   28.0275  -18.6944   -7.4571 C   0  0  0  0  0  0  0  0  0  0  0  0
   28.8092  -18.4661   -6.3981 N   0  0  0  0  0  0  0  0  0  0  0  0
   28.5755  -19.4064   -5.4706 C   0  0  0  0  0  0  0  0  0  0  0  0
   29.0966  -19.6512   -4.2151 C   0  0  0  0  0  0  0  0  0  0  0  0
   28.6904  -20.7112   -3.4424 C   0  0  0  0  0  0  0  0  0  0  0  0
   27.7296  -21.5297   -3.9804 C   0  0  0  0  0  0  0  0  0  0  0  0
   27.1720  -21.3302   -5.2360 C   0  0  0  0  0  0  0  0  0  0  0  0
   27.6041  -20.2616   -5.9720 C   0  0  0  0  0  0  0  0  0  0  0  0
   25.9480  -20.4487  -10.6344 C   0  0  0  0  0  0  0  0  0  0  0  0
   25.5802  -19.2829  -10.7903 O   0  0  0  0  0  0  0  0  0  0  0  0
   25.5247  -21.4661  -11.5149 N   0  0  0  0  0  0  0  0  0  0  0  0
   24.7644  -21.3418  -12.7167 C   0  0  1  0  0  0  0  0  0  0  0  0
   25.4621  -21.7457  -13.9678 C   0  0  0  0  0  0  0  0  0  0  0  0
   26.6616  -20.9473  -14.2679 C   0  0  0  0  0  0  0  0  0  0  0  0
   27.9992  -21.3174  -14.1262 C   0  0  0  0  0  0  0  0  0  0  0  0
   28.7820  -20.3085  -14.5333 N   0  0  0  0  0  0  0  0  0  0  0  0
   27.9934  -19.2940  -14.9346 C   0  0  0  0  0  0  0  0  0  0  0  0
   28.2758  -18.0387  -15.4318 C   0  0  0  0  0  0  0  0  0  0  0  0
   27.2814  -17.1460  -15.7767 C   0  0  0  0  0  0  0  0  0  0  0  0
   25.9589  -17.5069  -15.6244 C   0  0  0  0  0  0  0  0  0  0  0  0
   25.6972  -18.7658  -15.1261 C   0  0  0  0  0  0  0  0  0  0  0  0
   26.6757  -19.6722  -14.7767 C   0  0  0  0  0  0  0  0  0  0  0  0
   23.3472  -21.8244  -12.6274 C   0  0  0  0  0  0  0  0  0  0  0  0
   23.1478  -22.9659  -12.1475 O   0  0  0  0  0  0  0  0  0  0  0  0
   20.4843  -20.1163  -10.8158 C   0  0  0  0  0  0  0  0  0  0  0  0
   20.0728  -20.4160  -12.2079 C   0  0  1  0  0  0  0  0  0  0  0  0
   20.1507  -19.2200  -12.9589 O   0  0  0  0  0  0  0  0  0  0  0  0
   20.9040  -21.4543  -12.9191 C   0  0  2  0  0  0  0  0  0  0  0  0
   22.2736  -21.0045  -13.0747 N   0  0  0  0  0  0  0  0  0  0  0  0
   20.3930  -21.8784  -14.2121 C   0  0  0  0  0  0  0  0  0  0  0  0
   19.2404  -22.6072  -14.4482 O   0  0  0  0  0  0  0  0  0  0  0  0
   21.0459  -21.5664  -15.2602 O   0  0  0  0  0  0  0  0  0  0  0  0
  2  3  1  0
  2  1  1  6
  4 12  1  0
  4  3  1  0
  5  4  2  0
  6  5  1  0
  6  7  1  0
  7  8  1  0
  7 12  2  0
  8  9  2  0
  9 10  1  0
 11 10  2  0
 12 11  1  0
 13  2  1  0
 14 13  2  0
 15 13  1  0
 16 15  1  0
 16 17  1  6
 18 17  1  0
 19 18  2  0
 20 19  1  0
 21 20  1  0
 21 26  2  0
 22 21  1  0
 23 22  2  0
 23 24  1  0
 24 25  2  0
 25 26  1  0
 26 18  1  0
 27 16  1  0
 27 28  2  0
 30 32  1  0
 30 29  1  1
 31 30  1  0
 32 33  1  6
 33 27  1  0
 34 32  1  0
 35 34  1  0
 36 34  2  0
M  END
$$$$
