WWT.pdb
     RDKit          3D

 36 39  0  0  1  0  0  0  0  0999 V2000
   28.2135  -19.7007  -14.9582 N   0  0  0  0  0  0  0  0  0  0  0  0
   27.4963  -19.3858  -13.7756 C   0  0  1  0  0  0  0  0  0  0  0  0
   26.2613  -18.6107  -14.0649 C   0  0  0  0  0  0  0  0  0  0  0  0
   26.5942  -17.4106  -14.8754 C   0  0  0  0  0  0  0  0  0  0  0  0
   27.8921  -16.9342  -15.1302 C   0  0  0  0  0  0  0  0  0  0  0  0
   27.8356  -15.8584  -15.9201 N   0  0  0  0  0  0  0  0  0  0  0  0
   26.5526  -15.5920  -16.2060 C   0  0  0  0  0  0  0  0  0  0  0  0
   25.9309  -14.6132  -16.9568 C   0  0  0  0  0  0  0  0  0  0  0  0
   24.5663  -14.5449  -17.0938 C   0  0  0  0  0  0  0  0  0  0  0  0
   23.8356  -15.5061  -16.4420 C   0  0  0  0  0  0  0  0  0  0  0  0
   24.4082  -16.5117  -15.6750 C   0  0  0  0  0  0  0  0  0  0  0  0
   25.7711  -16.5438  -15.5661 C   0  0  0  0  0  0  0  0  0  0  0  0
   27.2140  -20.5857  -12.9089 C   0  0  0  0  0  0  0  0  0  0  0  0
   26.5904  -21.5120  -13.4303 O   0  0  0  0  0  0  0  0  0  0  0  0
   27.6356  -20.6620  -11.5650 N   0  0  0  0  0  0  0  0  0  0  0  0
   26.9735  -21.2759  -10.4593 C   0  0  1  0  0  0  0  0  0  0  0  0
   27.7979  -21.4621   -9.2342 C   0  0  0  0  0  0  0  0  0  0  0  0
   27.5614  -20.4476   -8.1945 C   0  0  0  0  0  0  0  0  0  0  0  0
   26.8825  -19.2347   -8.3143 C   0  0  0  0  0  0  0  0  0  0  0  0
   26.8704  -18.6162   -7.1252 N   0  0  0  0  0  0  0  0  0  0  0  0
   27.5213  -19.3903   -6.2369 C   0  0  0  0  0  0  0  0  0  0  0  0
   27.8013  -19.2308   -4.8956 C   0  0  0  0  0  0  0  0  0  0  0  0
   28.5052  -20.1751   -4.1764 C   0  0  0  0  0  0  0  0  0  0  0  0
   28.9493  -21.3193   -4.8057 C   0  0  0  0  0  0  0  0  0  0  0  0
   28.6594  -21.4602   -6.1465 C   0  0  0  0  0  0  0  0  0  0  0  0
   27.9570  -20.5295   -6.8823 C   0  0  0  0  0  0  0  0  0  0  0  0
   25.5860  -20.7748  -10.1886 C   0  0  0  0  0  0  0  0  0  0  0  0
   25.4422  -19.5513   -9.9537 O   0  0  0  0  0  0  0  0  0  0  0  0
   22.9286  -20.2883  -12.3988 C   0  0  0  0  0  0  0  0  0  0  0  0
   22.3815  -21.1713  -11.3415 C   0  0  1  0  0  0  0  0  0  0  0  0
   22.3946  -22.5004  -11.8250 O   0  0  0  0  0  0  0  0  0  0  0  0
   23.1322  -21.1562  -10.0333 C   0  0  2  0  0  0  0  0  0  0  0  0
   24.4783  -21.6679  -10.2020 N   0  0  0  0  0  0  0  0  0  0  0  0
   22.4874  -21.8651   -8.9402 C   0  0  0  0  0  0  0  0  0  0  0  0
   21.2383  -21.6022   -8.4056 O   0  0  0  0  0  0  0  0  0  0  0  0
   23.1046  -22.8346   -8.3915 O   0  0  0  0  0  0  0  0  0  0  0  0
  2  3  1  0
  2  1  1  6
  4 12  1  0
  4  3  1  0
  5  4  2  0
  6  5  1  0
  6  7  1  0
  7  8  1  0
  7 12  2  0
  8  9  2  0
  9 10  1  0
 11 10  2  0
 12 11  1  0
 13  2  1  0
 14 13  2  0
 15 13  1  0
 16 15  1  0
 16 17  1  1
 18 17  1  0
 19 18  2  0
 20 19  1  0
 21 20  1  0
 21 26  2  0
 22 21  1  0
 23 22  2  0
 23 24  1  0
 24 25  2  0
 25 26  1  0
 26 18  1  0
 27 16  1  0
 27 28  2  0
 30 32  1  0
 30 29  1  6
 31 30  1  0
 32 33  1  6
 33 27  1  0
 34 32  1  0
 35 34  1  0
 36 34  2  0
M  END
$$$$
