WWT.pdb
     RDKit          3D

 36 39  0  0  1  0  0  0  0  0999 V2000
   28.9920  -20.6397  -15.6652 N   0  0  0  0  0  0  0  0  0  0  0  0
   27.8997  -20.3376  -14.8122 C   0  0  1  0  0  0  0  0  0  0  0  0
   26.7100  -19.8772  -15.5752 C   0  0  0  0  0  0  0  0  0  0  0  0
   27.0353  -18.6328  -16.3192 C   0  0  0  0  0  0  0  0  0  0  0  0
   27.4395  -18.5701  -17.6643 C   0  0  0  0  0  0  0  0  0  0  0  0
   27.6175  -17.2970  -18.0277 N   0  0  0  0  0  0  0  0  0  0  0  0
   27.3500  -16.5016  -16.9814 C   0  0  0  0  0  0  0  0  0  0  0  0
   27.3778  -15.1327  -16.7983 C   0  0  0  0  0  0  0  0  0  0  0  0
   27.0619  -14.5430  -15.5991 C   0  0  0  0  0  0  0  0  0  0  0  0
   26.7123  -15.3859  -14.5744 C   0  0  0  0  0  0  0  0  0  0  0  0
   26.6678  -16.7675  -14.7033 C   0  0  0  0  0  0  0  0  0  0  0  0
   26.9886  -17.3135  -15.9154 C   0  0  0  0  0  0  0  0  0  0  0  0
   27.5566  -21.4542  -13.8602 C   0  0  0  0  0  0  0  0  0  0  0  0
   27.5315  -22.5939  -14.3284 O   0  0  0  0  0  0  0  0  0  0  0  0
   27.2754  -21.2243  -12.4973 N   0  0  0  0  0  0  0  0  0  0  0  0
   26.1955  -21.7331  -11.7145 C   0  0  1  0  0  0  0  0  0  0  0  0
   26.5480  -22.1787  -10.3388 C   0  0  0  0  0  0  0  0  0  0  0  0
   26.7560  -21.0749   -9.3876 C   0  0  0  0  0  0  0  0  0  0  0  0
   25.9995  -19.9121   -9.2401 C   0  0  0  0  0  0  0  0  0  0  0  0
   26.5103  -19.1766   -8.2427 N   0  0  0  0  0  0  0  0  0  0  0  0
   27.5759  -19.8263   -7.7383 C   0  0  0  0  0  0  0  0  0  0  0  0
   28.4554  -19.5185   -6.7212 C   0  0  0  0  0  0  0  0  0  0  0  0
   29.5003  -20.3523   -6.3782 C   0  0  0  0  0  0  0  0  0  0  0  0
   29.6834  -21.5338   -7.0659 C   0  0  0  0  0  0  0  0  0  0  0  0
   28.7938  -21.8235   -8.0791 C   0  0  0  0  0  0  0  0  0  0  0  0
   27.7434  -21.0049   -8.4363 C   0  0  0  0  0  0  0  0  0  0  0  0
   24.9243  -20.9408  -11.7904 C   0  0  0  0  0  0  0  0  0  0  0  0
   24.9962  -19.7020  -11.6086 O   0  0  0  0  0  0  0  0  0  0  0  0
   23.2576  -20.7842  -14.9499 C   0  0  0  0  0  0  0  0  0  0  0  0
   22.2173  -21.1414  -13.9564 C   0  0  1  0  0  0  0  0  0  0  0  0
   21.9957  -22.5363  -14.0305 O   0  0  0  0  0  0  0  0  0  0  0  0
   22.5501  -20.8096  -12.5231 C   0  0  2  0  0  0  0  0  0  0  0  0
   23.6848  -21.5852  -12.0614 N   0  0  0  0  0  0  0  0  0  0  0  0
   21.4541  -20.9629  -11.5806 C   0  0  0  0  0  0  0  0  0  0  0  0
   20.2843  -20.2243  -11.5439 O   0  0  0  0  0  0  0  0  0  0  0  0
   21.5427  -21.8590  -10.6800 O   0  0  0  0  0  0  0  0  0  0  0  0
  2  3  1  0
  2  1  1  6
  4 12  1  0
  4  3  1  0
  5  4  2  0
  6  5  1  0
  6  7  1  0
  7  8  1  0
  7 12  2  0
  8  9  2  0
  9 10  1  0
 11 10  2  0
 12 11  1  0
 13  2  1  0
 14 13  2  0
 15 13  1  0
 16 15  1  0
 16 17  1  1
 18 17  1  0
 19 18  2  0
 20 19  1  0
 21 20  1  0
 21 26  2  0
 22 21  1  0
 23 22  2  0
 23 24  1  0
 24 25  2  0
 25 26  1  0
 26 18  1  0
 27 16  1  0
 27 28  2  0
 30 32  1  0
 30 29  1  6
 31 30  1  0
 32 33  1  1
 33 27  1  0
 34 32  1  0
 35 34  1  0
 36 34  2  0
M  END
$$$$
