WWT.pdb
     RDKit          3D

 36 39  0  0  1  0  0  0  0  0999 V2000
   25.4151  -19.2428   -8.5654 N   0  0  0  0  0  0  0  0  0  0  0  0
   26.5240  -20.0107   -9.0042 C   0  0  1  0  0  0  0  0  0  0  0  0
   27.0930  -20.8402   -7.9098 C   0  0  0  0  0  0  0  0  0  0  0  0
   27.5807  -19.9657   -6.8119 C   0  0  0  0  0  0  0  0  0  0  0  0
   27.6397  -18.5617   -6.8541 C   0  0  0  0  0  0  0  0  0  0  0  0
   28.0942  -18.0896   -5.6900 N   0  0  0  0  0  0  0  0  0  0  0  0
   28.3436  -19.1192   -4.8674 C   0  0  0  0  0  0  0  0  0  0  0  0
   28.8232  -19.2069   -3.5750 C   0  0  0  0  0  0  0  0  0  0  0  0
   29.0043  -20.4088   -2.9360 C   0  0  0  0  0  0  0  0  0  0  0  0
   28.6836  -21.5367   -3.6485 C   0  0  0  0  0  0  0  0  0  0  0  0
   28.1981  -21.5063   -4.9488 C   0  0  0  0  0  0  0  0  0  0  0  0
   28.0313  -20.2881   -5.5475 C   0  0  0  0  0  0  0  0  0  0  0  0
   26.2357  -20.8299  -10.2356 C   0  0  0  0  0  0  0  0  0  0  0  0
   25.2616  -21.5831  -10.1850 O   0  0  0  0  0  0  0  0  0  0  0  0
   27.0309  -20.7509  -11.3980 N   0  0  0  0  0  0  0  0  0  0  0  0
   26.7434  -20.0857  -12.6279 C   0  0  1  0  0  0  0  0  0  0  0  0
   27.8702  -19.3201  -13.2276 C   0  0  0  0  0  0  0  0  0  0  0  0
   27.5289  -18.6438  -14.4895 C   0  0  0  0  0  0  0  0  0  0  0  0
   26.8120  -17.4599  -14.6647 C   0  0  0  0  0  0  0  0  0  0  0  0
   26.7431  -17.1748  -15.9726 N   0  0  0  0  0  0  0  0  0  0  0  0
   27.3931  -18.1380  -16.6522 C   0  0  0  0  0  0  0  0  0  0  0  0
   27.6180  -18.3340  -17.9990 C   0  0  0  0  0  0  0  0  0  0  0  0
   28.3212  -19.4224  -18.4740 C   0  0  0  0  0  0  0  0  0  0  0  0
   28.8204  -20.3518  -17.5855 C   0  0  0  0  0  0  0  0  0  0  0  0
   28.5851  -20.1381  -16.2436 C   0  0  0  0  0  0  0  0  0  0  0  0
   27.8863  -19.0573  -15.7489 C   0  0  0  0  0  0  0  0  0  0  0  0
   25.9589  -20.8913  -13.6203 C   0  0  0  0  0  0  0  0  0  0  0  0
   26.3964  -22.0256  -13.9283 O   0  0  0  0  0  0  0  0  0  0  0  0
   22.9247  -22.7379  -13.3880 C   0  0  0  0  0  0  0  0  0  0  0  0
   22.7201  -21.6900  -14.4161 C   0  0  1  0  0  0  0  0  0  0  0  0
   22.0980  -20.5801  -13.7983 O   0  0  0  0  0  0  0  0  0  0  0  0
   23.9738  -21.1911  -15.0902 C   0  0  2  0  0  0  0  0  0  0  0  0
   24.7593  -20.3748  -14.1853 N   0  0  0  0  0  0  0  0  0  0  0  0
   23.7630  -20.4602  -16.3288 C   0  0  0  0  0  0  0  0  0  0  0  0
   23.2142  -20.9549  -17.4990 O   0  0  0  0  0  0  0  0  0  0  0  0
   24.1065  -19.2350  -16.3820 O   0  0  0  0  0  0  0  0  0  0  0  0
  2  3  1  0
  2  1  1  1
  4 12  1  0
  4  3  1  0
  5  4  2  0
  6  5  1  0
  6  7  1  0
  7  8  1  0
  7 12  2  0
  8  9  2  0
  9 10  1  0
 11 10  2  0
 12 11  1  0
 13  2  1  0
 14 13  2  0
 15 13  1  0
 16 15  1  0
 16 17  1  6
 18 17  1  0
 19 18  2  0
 20 19  1  0
 21 20  1  0
 21 26  2  0
 22 21  1  0
 23 22  2  0
 23 24  1  0
 24 25  2  0
 25 26  1  0
 26 18  1  0
 27 16  1  0
 27 28  2  0
 30 32  1  0
 30 29  1  1
 31 30  1  0
 32 33  1  1
 33 27  1  0
 34 32  1  0
 35 34  1  0
 36 34  2  0
M  END
$$$$
