WWT.pdb
     RDKit          3D

 36 39  0  0  1  0  0  0  0  0999 V2000
   26.4644  -18.8388  -13.8793 N   0  0  0  0  0  0  0  0  0  0  0  0
   27.3618  -19.9010  -14.1589 C   0  0  1  0  0  0  0  0  0  0  0  0
   28.5854  -19.4255  -14.8563 C   0  0  0  0  0  0  0  0  0  0  0  0
   28.2101  -18.5707  -16.0122 C   0  0  0  0  0  0  0  0  0  0  0  0
   28.4356  -17.1863  -16.1088 C   0  0  0  0  0  0  0  0  0  0  0  0
   28.0080  -16.7365  -17.2917 N   0  0  0  0  0  0  0  0  0  0  0  0
   27.5038  -17.7619  -17.9939 C   0  0  0  0  0  0  0  0  0  0  0  0
   26.9313  -17.8639  -19.2468 C   0  0  0  0  0  0  0  0  0  0  0  0
   26.4716  -19.0550  -19.7524 C   0  0  0  0  0  0  0  0  0  0  0  0
   26.6075  -20.1568  -18.9460 C   0  0  0  0  0  0  0  0  0  0  0  0
   27.1748  -20.1112  -17.6798 C   0  0  0  0  0  0  0  0  0  0  0  0
   27.6209  -18.9048  -17.2152 C   0  0  0  0  0  0  0  0  0  0  0  0
   27.6954  -20.7370  -12.9503 C   0  0  0  0  0  0  0  0  0  0  0  0
   28.6495  -21.5098  -13.0569 O   0  0  0  0  0  0  0  0  0  0  0  0
   26.9625  -20.6520  -11.7482 N   0  0  0  0  0  0  0  0  0  0  0  0
   25.9316  -21.5173  -11.2726 C   0  0  1  0  0  0  0  0  0  0  0  0
   26.0668  -21.9692   -9.8610 C   0  0  0  0  0  0  0  0  0  0  0  0
   26.3945  -20.8892   -8.9162 C   0  0  0  0  0  0  0  0  0  0  0  0
   25.6135  -19.7885   -8.5631 C   0  0  0  0  0  0  0  0  0  0  0  0
   26.2691  -19.0561   -7.6518 N   0  0  0  0  0  0  0  0  0  0  0  0
   27.4524  -19.6475   -7.4028 C   0  0  0  0  0  0  0  0  0  0  0  0
   28.4986  -19.3164   -6.5669 C   0  0  0  0  0  0  0  0  0  0  0  0
   29.6404  -20.0868   -6.4809 C   0  0  0  0  0  0  0  0  0  0  0  0
   29.7529  -21.2266   -7.2495 C   0  0  0  0  0  0  0  0  0  0  0  0
   28.6965  -21.5406   -8.0785 C   0  0  0  0  0  0  0  0  0  0  0  0
   27.5475  -20.7851   -8.1782 C   0  0  0  0  0  0  0  0  0  0  0  0
   24.5371  -21.1166  -11.6523 C   0  0  0  0  0  0  0  0  0  0  0  0
   23.6606  -21.1302  -10.7554 O   0  0  0  0  0  0  0  0  0  0  0  0
   23.4754  -18.1473  -14.3291 C   0  0  0  0  0  0  0  0  0  0  0  0
   22.8427  -19.4706  -14.5422 C   0  0  1  0  0  0  0  0  0  0  0  0
   23.5172  -20.1171  -15.6040 O   0  0  0  0  0  0  0  0  0  0  0  0
   22.8696  -20.3996  -13.3542 C   0  0  2  0  0  0  0  0  0  0  0  0
   24.2321  -20.7348  -12.9888 N   0  0  0  0  0  0  0  0  0  0  0  0
   22.1032  -21.6251  -13.5079 C   0  0  0  0  0  0  0  0  0  0  0  0
   22.5978  -22.8751  -13.8370 O   0  0  0  0  0  0  0  0  0  0  0  0
   20.8428  -21.5848  -13.3297 O   0  0  0  0  0  0  0  0  0  0  0  0
  2  3  1  0
  2  1  1  1
  4 12  1  0
  4  3  1  0
  5  4  2  0
  6  5  1  0
  6  7  1  0
  7  8  1  0
  7 12  2  0
  8  9  2  0
  9 10  1  0
 11 10  2  0
 12 11  1  0
 13  2  1  0
 14 13  2  0
 15 13  1  0
 16 15  1  0
 16 17  1  1
 18 17  1  0
 19 18  2  0
 20 19  1  0
 21 20  1  0
 21 26  2  0
 22 21  1  0
 23 22  2  0
 23 24  1  0
 24 25  2  0
 25 26  1  0
 26 18  1  0
 27 16  1  0
 27 28  2  0
 30 32  1  0
 30 29  1  1
 31 30  1  0
 32 33  1  6
 33 27  1  0
 34 32  1  0
 35 34  1  0
 36 34  2  0
M  END
$$$$
