RHL.pdb
     RDKit          3D

 30 30  0  0  1  0  0  0  0  0999 V2000
   27.6154  -21.7077  -18.5332 N   0  0  0  0  0  0  0  0  0  0  0  0
   27.8763  -22.0114  -17.1696 C   0  0  0  0  0  0  0  0  0  0  0  0
   27.5645  -23.1577  -16.6509 N   0  0  0  0  0  0  0  0  0  0  0  0
   28.4990  -21.0464  -16.3205 N   0  0  0  0  0  0  0  0  0  0  0  0
   28.8524  -19.7145  -16.7741 C   0  0  0  0  0  0  0  0  0  0  0  0
   28.2444  -18.7306  -15.8037 C   0  0  0  0  0  0  0  0  0  0  0  0
   27.6242  -17.5443  -16.5123 C   0  0  0  0  0  0  0  0  0  0  0  0
   26.3568  -18.0339  -17.1677 C   0  0  2  0  0  0  0  0  0  0  0  0
   26.0024  -17.0863  -18.2067 N   0  0  0  0  0  0  0  0  0  0  0  0
   25.2554  -18.2615  -16.2255 C   0  0  0  0  0  0  0  0  0  0  0  0
   24.7135  -17.2998  -15.6527 O   0  0  0  0  0  0  0  0  0  0  0  0
   27.7851  -23.4182  -15.6833 N   0  0  0  0  0  0  0  0  0  0  0  0
   24.8126  -19.5735  -15.9709 C   0  0  2  0  0  0  0  0  0  0  0  0
   23.8306  -19.8230  -14.9442 C   0  0  0  0  0  0  0  0  0  0  0  0
   22.8037  -20.7796  -15.5176 C   0  0  0  0  0  0  0  0  0  0  0  0
   22.0219  -20.1545  -16.6054 C   0  0  0  0  0  0  0  0  0  0  0  0
   21.5352  -20.8257  -17.7080 N   0  0  0  0  0  0  0  0  0  0  0  0
   20.8816  -19.9409  -18.4722 C   0  0  0  0  0  0  0  0  0  0  0  0
   20.9545  -18.7409  -17.8663 N   0  0  0  0  0  0  0  0  0  0  0  0
   21.6469  -18.8847  -16.7384 C   0  0  0  0  0  0  0  0  0  0  0  0
   24.4748  -20.3822  -13.7233 O   0  0  0  0  0  0  0  0  0  0  0  0
   25.6543  -20.0667  -13.4246 C   0  0  0  0  0  0  0  0  0  0  0  0
   26.0048  -19.3609   -9.0978 C   0  0  1  0  0  0  0  0  0  0  0  0
   25.3769  -20.6893   -9.4927 C   0  0  0  0  0  0  0  0  0  0  0  0
   26.2848  -21.7821   -8.9718 C   0  0  0  0  0  0  0  0  0  0  0  0
   25.1991  -20.7465  -10.9786 C   0  0  2  0  0  0  0  0  0  0  0  0
   23.8942  -21.2991  -11.4263 N   0  0  0  0  0  0  0  0  0  0  0  0
   23.7683  -21.2777  -12.8805 C   0  0  0  0  0  0  0  0  0  0  0  0
   22.7067  -20.7152  -10.7783 O   0  0  0  0  0  0  0  0  0  0  0  0
   21.8548  -20.0414  -11.4571 O   0  0  0  0  0  0  0  0  0  0  0  0
  2  3  2  0
  2  1  1  0
  4  2  1  0
  5  4  1  0
  6  5  1  0
  7  6  1  0
  8  9  1  6
  8  7  1  0
 10 11  2  0
 10  8  1  0
 12 10  1  0
 13 12  1  0
 13 20  1  0
 13 14  1  6
 15 19  1  0
 15 14  1  0
 16 15  2  0
 17 16  1  0
 17 18  1  0
 18 19  2  0
 20 27  1  0
 21 20  2  0
 23 22  1  1
 23 25  1  0
 24 23  1  0
 26 25  1  6
 26 28  1  0
 27 26  1  0
 28 29  2  0
 28 30  1  0
M  END
$$$$
