RHL.pdb
     RDKit          3D

 30 30  0  0  1  0  0  0  0  0999 V2000
   22.7281  -16.6844  -19.0209 N   0  0  0  0  0  0  0  0  0  0  0  0
   23.1167  -17.4798  -20.1326 C   0  0  0  0  0  0  0  0  0  0  0  0
   22.9471  -17.0802  -21.3540 N   0  0  0  0  0  0  0  0  0  0  0  0
   23.7142  -18.7614  -19.9308 N   0  0  0  0  0  0  0  0  0  0  0  0
   24.0452  -19.2739  -18.6146 C   0  0  0  0  0  0  0  0  0  0  0  0
   24.6785  -20.6312  -18.8044 C   0  0  0  0  0  0  0  0  0  0  0  0
   24.9837  -21.3048  -17.4827 C   0  0  0  0  0  0  0  0  0  0  0  0
   26.4635  -21.1457  -17.2366 C   0  0  2  0  0  0  0  0  0  0  0  0
   27.1647  -21.8948  -18.2613 N   0  0  0  0  0  0  0  0  0  0  0  0
   26.8813  -21.5311  -15.8841 C   0  0  0  0  0  0  0  0  0  0  0  0
   27.5902  -22.5383  -15.7115 O   0  0  0  0  0  0  0  0  0  0  0  0
   23.2177  -17.6365  -22.1726 N   0  0  0  0  0  0  0  0  0  0  0  0
   26.4772  -20.7568  -14.7798 C   0  0  2  0  0  0  0  0  0  0  0  0
   27.0412  -21.0012  -13.4749 C   0  0  0  0  0  0  0  0  0  0  0  0
   28.5493  -20.9213  -13.6071 C   0  0  0  0  0  0  0  0  0  0  0  0
   29.2259  -21.1938  -12.3213 C   0  0  0  0  0  0  0  0  0  0  0  0
   28.5787  -21.5197  -11.1474 N   0  0  0  0  0  0  0  0  0  0  0  0
   29.5093  -21.6941  -10.1999 C   0  0  0  0  0  0  0  0  0  0  0  0
   30.7139  -21.4832  -10.7627 N   0  0  0  0  0  0  0  0  0  0  0  0
   30.5277  -21.1815  -12.0458 C   0  0  0  0  0  0  0  0  0  0  0  0
   26.5276  -20.0138  -12.4852 O   0  0  0  0  0  0  0  0  0  0  0  0
   26.5190  -18.7864  -12.7562 C   0  0  0  0  0  0  0  0  0  0  0  0
   21.4909  -21.7284  -12.5069 C   0  0  1  0  0  0  0  0  0  0  0  0
   22.2831  -20.9044  -11.5027 C   0  0  0  0  0  0  0  0  0  0  0  0
   21.7015  -19.5075  -11.5169 C   0  0  0  0  0  0  0  0  0  0  0  0
   23.7373  -20.9275  -11.8599 C   0  0  2  0  0  0  0  0  0  0  0  0
   24.6400  -20.3653  -10.8217 N   0  0  0  0  0  0  0  0  0  0  0  0
   26.0411  -20.4427  -11.2240 C   0  0  0  0  0  0  0  0  0  0  0  0
   24.4442  -20.8965   -9.4614 O   0  0  0  0  0  0  0  0  0  0  0  0
   24.9788  -22.0055   -9.1081 O   0  0  0  0  0  0  0  0  0  0  0  0
  2  3  2  0
  2  1  1  0
  4  2  1  0
  5  4  1  0
  6  5  1  0
  7  6  1  0
  8  9  1  6
  8  7  1  0
 10 11  2  0
 10  8  1  0
 12 10  1  0
 13 12  1  0
 13 20  1  0
 13 14  1  6
 15 19  1  0
 15 14  1  0
 16 15  2  0
 17 16  1  0
 17 18  1  0
 18 19  2  0
 20 27  1  0
 21 20  2  0
 23 22  1  1
 23 25  1  0
 24 23  1  0
 26 25  1  6
 26 28  1  0
 27 26  1  0
 28 29  2  0
 28 30  1  0
M  END
$$$$
