RHL.pdb
     RDKit          3D

 30 30  0  0  1  0  0  0  0  0999 V2000
   28.5990  -27.1671  -16.5463 N   0  0  0  0  0  0  0  0  0  0  0  0
   29.7115  -26.5985  -17.2236 C   0  0  0  0  0  0  0  0  0  0  0  0
   30.3069  -27.2114  -18.1984 N   0  0  0  0  0  0  0  0  0  0  0  0
   30.2115  -25.3160  -16.8425 N   0  0  0  0  0  0  0  0  0  0  0  0
   29.4788  -24.4154  -15.9726 C   0  0  0  0  0  0  0  0  0  0  0  0
   28.8454  -23.3592  -16.8459 C   0  0  0  0  0  0  0  0  0  0  0  0
   28.1623  -22.2822  -16.0290 C   0  0  0  0  0  0  0  0  0  0  0  0
   26.8051  -22.0531  -16.6463 C   0  0  2  0  0  0  0  0  0  0  0  0
   26.8311  -22.6041  -17.9875 N   0  0  0  0  0  0  0  0  0  0  0  0
   26.3799  -20.6490  -16.6317 C   0  0  0  0  0  0  0  0  0  0  0  0
   27.2262  -19.7387  -16.6749 O   0  0  0  0  0  0  0  0  0  0  0  0
   31.0538  -26.7872  -18.7595 N   0  0  0  0  0  0  0  0  0  0  0  0
   25.0092  -20.3338  -16.5686 C   0  0  2  0  0  0  0  0  0  0  0  0
   24.5716  -18.9646  -16.6890 C   0  0  0  0  0  0  0  0  0  0  0  0
   25.0824  -18.4370  -18.0153 C   0  0  0  0  0  0  0  0  0  0  0  0
   26.5117  -18.0665  -17.9421 C   0  0  0  0  0  0  0  0  0  0  0  0
   27.4854  -18.5200  -18.8076 N   0  0  0  0  0  0  0  0  0  0  0  0
   28.6516  -17.9765  -18.4353 C   0  0  0  0  0  0  0  0  0  0  0  0
   28.4189  -17.1992  -17.3611 N   0  0  0  0  0  0  0  0  0  0  0  0
   27.1206  -17.2629  -17.0737 C   0  0  0  0  0  0  0  0  0  0  0  0
   23.0874  -18.8759  -16.6021 O   0  0  0  0  0  0  0  0  0  0  0  0
   22.4991  -17.7921  -16.8451 C   0  0  0  0  0  0  0  0  0  0  0  0
   20.5105  -21.5343  -12.8256 C   0  0  1  0  0  0  0  0  0  0  0  0
   21.5509  -20.4569  -12.5582 C   0  0  0  0  0  0  0  0  0  0  0  0
   20.8108  -19.2441  -12.0375 C   0  0  0  0  0  0  0  0  0  0  0  0
   22.3198  -20.1697  -13.8109 C   0  0  1  0  0  0  0  0  0  0  0  0
   21.4918  -20.0906  -15.0424 N   0  0  0  0  0  0  0  0  0  0  0  0
   22.3165  -20.0113  -16.2443 C   0  0  0  0  0  0  0  0  0  0  0  0
   20.4526  -19.0460  -15.0373 O   0  0  0  0  0  0  0  0  0  0  0  0
   20.7701  -17.8060  -15.0846 O   0  0  0  0  0  0  0  0  0  0  0  0
  2  3  2  0
  2  1  1  0
  4  2  1  0
  5  4  1  0
  6  5  1  0
  7  6  1  0
  8  9  1  6
  8  7  1  0
 10 11  2  0
 10  8  1  0
 12 10  1  0
 13 12  1  0
 13 20  1  0
 13 14  1  1
 15 19  1  0
 15 14  1  0
 16 15  2  0
 17 16  1  0
 17 18  1  0
 18 19  2  0
 20 27  1  0
 21 20  2  0
 23 22  1  1
 23 25  1  0
 24 23  1  0
 26 25  1  6
 26 28  1  0
 27 26  1  0
 28 29  2  0
 28 30  1  0
M  END
$$$$
