RHL.pdb
     RDKit          3D

 30 30  0  0  1  0  0  0  0  0999 V2000
   26.4162  -18.6801  -21.7598 N   0  0  0  0  0  0  0  0  0  0  0  0
   26.6222  -17.3124  -22.0868 C   0  0  0  0  0  0  0  0  0  0  0  0
   26.0400  -16.7552  -23.1022 N   0  0  0  0  0  0  0  0  0  0  0  0
   27.4900  -16.5022  -21.2928 N   0  0  0  0  0  0  0  0  0  0  0  0
   28.1343  -16.9902  -20.0880 C   0  0  0  0  0  0  0  0  0  0  0  0
   27.0470  -17.2941  -19.0856 C   0  0  0  0  0  0  0  0  0  0  0  0
   27.3571  -16.7176  -17.7199 C   0  0  0  0  0  0  0  0  0  0  0  0
   26.9615  -17.7573  -16.7009 C   0  0  2  0  0  0  0  0  0  0  0  0
   27.0216  -19.0542  -17.3469 N   0  0  0  0  0  0  0  0  0  0  0  0
   25.6562  -17.5073  -16.0793 C   0  0  0  0  0  0  0  0  0  0  0  0
   25.4557  -16.4553  -15.4470 O   0  0  0  0  0  0  0  0  0  0  0  0
   26.1293  -15.7582  -23.3268 N   0  0  0  0  0  0  0  0  0  0  0  0
   24.6293  -18.4627  -16.2005 C   0  0  1  0  0  0  0  0  0  0  0  0
   23.3751  -18.2732  -15.5137 C   0  0  0  0  0  0  0  0  0  0  0  0
   22.2641  -18.5536  -16.5064 C   0  0  0  0  0  0  0  0  0  0  0  0
   20.9304  -18.3080  -15.9178 C   0  0  0  0  0  0  0  0  0  0  0  0
   20.4502  -18.9204  -14.7788 N   0  0  0  0  0  0  0  0  0  0  0  0
   19.2156  -18.4536  -14.5507 C   0  0  0  0  0  0  0  0  0  0  0  0
   18.9245  -17.5683  -15.5222 N   0  0  0  0  0  0  0  0  0  0  0  0
   19.9704  -17.4900  -16.3421 C   0  0  0  0  0  0  0  0  0  0  0  0
   23.2839  -19.1675  -14.3262 O   0  0  0  0  0  0  0  0  0  0  0  0
   22.2764  -19.1284  -13.5757 C   0  0  0  0  0  0  0  0  0  0  0  0
   25.1740  -20.3261   -9.3305 C   0  0  1  0  0  0  0  0  0  0  0  0
   25.2796  -21.2437  -10.5396 C   0  0  0  0  0  0  0  0  0  0  0  0
   26.5555  -22.0418  -10.3815 C   0  0  0  0  0  0  0  0  0  0  0  0
   25.2591  -20.4320  -11.7980 C   0  0  2  0  0  0  0  0  0  0  0  0
   24.3439  -20.9436  -12.8512 N   0  0  0  0  0  0  0  0  0  0  0  0
   24.3309  -20.0754  -14.0246 C   0  0  0  0  0  0  0  0  0  0  0  0
   22.9758  -21.2544  -12.4009 O   0  0  0  0  0  0  0  0  0  0  0  0
   22.3265  -20.4328  -11.6633 O   0  0  0  0  0  0  0  0  0  0  0  0
  2  3  2  0
  2  1  1  0
  4  2  1  0
  5  4  1  0
  6  5  1  0
  7  6  1  0
  8  9  1  6
  8  7  1  0
 10 11  2  0
 10  8  1  0
 12 10  1  0
 13 12  1  0
 13 20  1  0
 13 14  1  1
 15 19  1  0
 15 14  1  0
 16 15  2  0
 17 16  1  0
 17 18  1  0
 18 19  2  0
 20 27  1  0
 21 20  2  0
 23 22  1  1
 23 25  1  0
 24 23  1  0
 26 25  1  6
 26 28  1  0
 27 26  1  0
 28 29  2  0
 28 30  1  0
M  END
$$$$
