RHL.pdb
     RDKit          3D

 30 30  0  0  1  0  0  0  0  0999 V2000
   28.7972  -20.6671  -19.6110 N   0  0  0  0  0  0  0  0  0  0  0  0
   29.5055  -21.8783  -19.3848 C   0  0  0  0  0  0  0  0  0  0  0  0
   29.9342  -22.6144  -20.3618 N   0  0  0  0  0  0  0  0  0  0  0  0
   29.7683  -22.3242  -18.0535 N   0  0  0  0  0  0  0  0  0  0  0  0
   29.2151  -21.6689  -16.8834 C   0  0  0  0  0  0  0  0  0  0  0  0
   27.9479  -20.9699  -17.3137 C   0  0  0  0  0  0  0  0  0  0  0  0
   27.3149  -20.1930  -16.1782 C   0  0  0  0  0  0  0  0  0  0  0  0
   26.9433  -21.1928  -15.1114 C   0  0  2  0  0  0  0  0  0  0  0  0
   26.0186  -22.1428  -15.6993 N   0  0  0  0  0  0  0  0  0  0  0  0
   26.4080  -20.5809  -13.8902 C   0  0  0  0  0  0  0  0  0  0  0  0
   26.9236  -19.5465  -13.4309 O   0  0  0  0  0  0  0  0  0  0  0  0
   30.3674  -23.5346  -20.2273 N   0  0  0  0  0  0  0  0  0  0  0  0
   25.3071  -21.1683  -13.2380 C   0  0  1  0  0  0  0  0  0  0  0  0
   24.7868  -20.5883  -12.0242 C   0  0  0  0  0  0  0  0  0  0  0  0
   23.3230  -20.9704  -11.9265 C   0  0  0  0  0  0  0  0  0  0  0  0
   22.5074  -20.2748  -12.9445 C   0  0  0  0  0  0  0  0  0  0  0  0
   22.9899  -19.3272  -13.8234 N   0  0  0  0  0  0  0  0  0  0  0  0
   21.9698  -18.9213  -14.5907 C   0  0  0  0  0  0  0  0  0  0  0  0
   20.8709  -19.5967  -14.2052 N   0  0  0  0  0  0  0  0  0  0  0  0
   21.2105  -20.4116  -13.2089 C   0  0  0  0  0  0  0  0  0  0  0  0
   25.5549  -21.0651  -10.8406 O   0  0  0  0  0  0  0  0  0  0  0  0
   25.7399  -22.2944  -10.6548 C   0  0  0  0  0  0  0  0  0  0  0  0
   27.8793  -18.3589   -5.7135 C   0  0  1  0  0  0  0  0  0  0  0  0
   27.5297  -19.6558   -6.4281 C   0  0  0  0  0  0  0  0  0  0  0  0
   28.7446  -20.5536   -6.3388 C   0  0  0  0  0  0  0  0  0  0  0  0
   27.1292  -19.3661   -7.8418 C   0  0  2  0  0  0  0  0  0  0  0  0
   26.4117  -20.4751   -8.5229 N   0  0  0  0  0  0  0  0  0  0  0  0
   26.0886  -20.1408   -9.9066 C   0  0  0  0  0  0  0  0  0  0  0  0
   25.2323  -20.9951   -7.8091 O   0  0  0  0  0  0  0  0  0  0  0  0
   24.1040  -20.3933   -7.8828 O   0  0  0  0  0  0  0  0  0  0  0  0
  2  3  2  0
  2  1  1  0
  4  2  1  0
  5  4  1  0
  6  5  1  0
  7  6  1  0
  8  9  1  6
  8  7  1  0
 10 11  2  0
 10  8  1  0
 12 10  1  0
 13 12  1  0
 13 20  1  0
 13 14  1  6
 15 19  1  0
 15 14  1  0
 16 15  2  0
 17 16  1  0
 17 18  1  0
 18 19  2  0
 20 27  1  0
 21 20  2  0
 23 22  1  1
 23 25  1  0
 24 23  1  0
 26 25  1  6
 26 28  1  0
 27 26  1  0
 28 29  2  0
 28 30  1  0
M  END
$$$$
