RHL.pdb
     RDKit          3D

 30 30  0  0  1  0  0  0  0  0999 V2000
   24.0353  -20.6676   -9.0719 N   0  0  0  0  0  0  0  0  0  0  0  0
   25.1477  -20.6580   -8.1874 C   0  0  0  0  0  0  0  0  0  0  0  0
   25.0631  -21.1078   -6.9747 N   0  0  0  0  0  0  0  0  0  0  0  0
   26.4090  -20.1443   -8.6179 N   0  0  0  0  0  0  0  0  0  0  0  0
   26.6605  -19.7255   -9.9840 C   0  0  0  0  0  0  0  0  0  0  0  0
   26.7516  -20.9731  -10.8294 C   0  0  0  0  0  0  0  0  0  0  0  0
   27.1167  -20.6599  -12.2655 C   0  0  0  0  0  0  0  0  0  0  0  0
   26.0123  -21.2112  -13.1328 C   0  0  2  0  0  0  0  0  0  0  0  0
   26.5298  -22.3807  -13.8165 N   0  0  0  0  0  0  0  0  0  0  0  0
   25.4478  -20.2285  -14.0646 C   0  0  0  0  0  0  0  0  0  0  0  0
   25.0619  -19.1218  -13.6486 O   0  0  0  0  0  0  0  0  0  0  0  0
   25.8554  -21.1268   -6.3231 N   0  0  0  0  0  0  0  0  0  0  0  0
   25.3437  -20.5417  -15.4332 C   0  0  1  0  0  0  0  0  0  0  0  0
   24.8800  -19.5504  -16.3728 C   0  0  0  0  0  0  0  0  0  0  0  0
   25.7733  -19.6269  -17.5953 C   0  0  0  0  0  0  0  0  0  0  0  0
   26.9260  -18.7076  -17.4885 C   0  0  0  0  0  0  0  0  0  0  0  0
   27.1163  -17.8030  -16.4645 N   0  0  0  0  0  0  0  0  0  0  0  0
   28.2601  -17.1479  -16.7022 C   0  0  0  0  0  0  0  0  0  0  0  0
   28.7784  -17.6277  -17.8483 N   0  0  0  0  0  0  0  0  0  0  0  0
   27.9614  -18.5703  -18.3130 C   0  0  0  0  0  0  0  0  0  0  0  0
   23.4521  -19.7852  -16.7252 O   0  0  0  0  0  0  0  0  0  0  0  0
   23.0309  -20.9512  -16.9320 C   0  0  0  0  0  0  0  0  0  0  0  0
   18.4302  -16.2752  -17.7737 C   0  0  1  0  0  0  0  0  0  0  0  0
   18.9394  -17.6570  -17.3912 C   0  0  0  0  0  0  0  0  0  0  0  0
   18.0710  -18.1516  -16.2549 C   0  0  0  0  0  0  0  0  0  0  0  0
   20.3880  -17.5805  -17.0190 C   0  0  2  0  0  0  0  0  0  0  0  0
   21.1516  -18.8368  -17.2371 N   0  0  0  0  0  0  0  0  0  0  0  0
   22.5473  -18.6983  -16.8326 C   0  0  0  0  0  0  0  0  0  0  0  0
   21.0412  -19.4150  -18.5878 O   0  0  0  0  0  0  0  0  0  0  0  0
   21.7577  -18.9696  -19.5516 O   0  0  0  0  0  0  0  0  0  0  0  0
  2  3  2  0
  2  1  1  0
  4  2  1  0
  5  4  1  0
  6  5  1  0
  7  6  1  0
  8  9  1  6
  8  7  1  0
 10 11  2  0
 10  8  1  0
 12 10  1  0
 13 12  1  0
 13 20  1  0
 13 14  1  1
 15 19  1  0
 15 14  1  0
 16 15  2  0
 17 16  1  0
 17 18  1  0
 18 19  2  0
 20 27  1  0
 21 20  2  0
 23 22  1  6
 23 25  1  0
 24 23  1  0
 26 25  1  1
 26 28  1  0
 27 26  1  0
 28 29  2  0
 28 30  1  0
M  END
$$$$
