RHL.pdb
     RDKit          3D

 30 30  0  0  1  0  0  0  0  0999 V2000
   32.9085  -25.2909  -15.1776 N   0  0  0  0  0  0  0  0  0  0  0  0
   32.9443  -24.6642  -16.4527 C   0  0  0  0  0  0  0  0  0  0  0  0
   33.9915  -24.7199  -17.2146 N   0  0  0  0  0  0  0  0  0  0  0  0
   31.8094  -23.9445  -16.9365 N   0  0  0  0  0  0  0  0  0  0  0  0
   30.5207  -23.9726  -16.2707 C   0  0  0  0  0  0  0  0  0  0  0  0
   29.5769  -23.1130  -17.0767 C   0  0  0  0  0  0  0  0  0  0  0  0
   28.9545  -22.0149  -16.2397 C   0  0  0  0  0  0  0  0  0  0  0  0
   28.1237  -22.6875  -15.1752 C   0  0  2  0  0  0  0  0  0  0  0  0
   27.1219  -23.4965  -15.8422 N   0  0  0  0  0  0  0  0  0  0  0  0
   27.5307  -21.7532  -14.2118 C   0  0  0  0  0  0  0  0  0  0  0  0
   28.1746  -20.7627  -13.8234 O   0  0  0  0  0  0  0  0  0  0  0  0
   34.0400  -24.2802  -18.1404 N   0  0  0  0  0  0  0  0  0  0  0  0
   26.2286  -21.9810  -13.7271 C   0  0  1  0  0  0  0  0  0  0  0  0
   25.6009  -21.0225  -12.8509 C   0  0  0  0  0  0  0  0  0  0  0  0
   24.1314  -20.9619  -13.2183 C   0  0  0  0  0  0  0  0  0  0  0  0
   23.8628  -19.9146  -14.2265 C   0  0  0  0  0  0  0  0  0  0  0  0
   24.8123  -19.0527  -14.7350 N   0  0  0  0  0  0  0  0  0  0  0  0
   24.2064  -18.2488  -15.6185 C   0  0  0  0  0  0  0  0  0  0  0  0
   22.9064  -18.5953  -15.6660 N   0  0  0  0  0  0  0  0  0  0  0  0
   22.7126  -19.6040  -14.8192 C   0  0  0  0  0  0  0  0  0  0  0  0
   25.7910  -21.4084  -11.4249 O   0  0  0  0  0  0  0  0  0  0  0  0
   25.5597  -22.5848  -11.0475 C   0  0  0  0  0  0  0  0  0  0  0  0
   27.4027  -18.5895   -6.1659 C   0  0  1  0  0  0  0  0  0  0  0  0
   27.3139  -19.9353   -6.8701 C   0  0  0  0  0  0  0  0  0  0  0  0
   28.5555  -20.7152   -6.4959 C   0  0  0  0  0  0  0  0  0  0  0  0
   27.1856  -19.7291   -8.3479 C   0  0  2  0  0  0  0  0  0  0  0  0
   26.3096  -20.7117   -9.0375 N   0  0  0  0  0  0  0  0  0  0  0  0
   26.2351  -20.4557  -10.4727 C   0  0  0  0  0  0  0  0  0  0  0  0
   24.9670  -20.8778   -8.4537 O   0  0  0  0  0  0  0  0  0  0  0  0
   23.9997  -20.1171   -8.8087 O   0  0  0  0  0  0  0  0  0  0  0  0
  2  3  2  0
  2  1  1  0
  4  2  1  0
  5  4  1  0
  6  5  1  0
  7  6  1  0
  8  9  1  6
  8  7  1  0
 10 11  2  0
 10  8  1  0
 12 10  1  0
 13 12  1  0
 13 20  1  0
 13 14  1  1
 15 19  1  0
 15 14  1  0
 16 15  2  0
 17 16  1  0
 17 18  1  0
 18 19  2  0
 20 27  1  0
 21 20  2  0
 23 22  1  1
 23 25  1  0
 24 23  1  0
 26 25  1  6
 26 28  1  0
 27 26  1  0
 28 29  2  0
 28 30  1  0
M  END
$$$$
