RHL.pdb
     RDKit          3D

 30 30  0  0  1  0  0  0  0  0999 V2000
   22.0848  -22.0254   -7.4548 N   0  0  0  0  0  0  0  0  0  0  0  0
   22.8225  -21.4818   -8.5411 C   0  0  0  0  0  0  0  0  0  0  0  0
   22.2423  -20.8701   -9.5257 N   0  0  0  0  0  0  0  0  0  0  0  0
   24.2457  -21.5966   -8.5777 N   0  0  0  0  0  0  0  0  0  0  0  0
   25.0592  -20.9478   -9.5887 C   0  0  0  0  0  0  0  0  0  0  0  0
   24.8426  -21.6883  -10.8864 C   0  0  0  0  0  0  0  0  0  0  0  0
   25.6197  -21.0692  -12.0296 C   0  0  0  0  0  0  0  0  0  0  0  0
   25.2344  -21.8165  -13.2821 C   0  0  2  0  0  0  0  0  0  0  0  0
   26.3027  -22.7487  -13.5865 N   0  0  0  0  0  0  0  0  0  0  0  0
   24.9209  -20.9421  -14.4177 C   0  0  0  0  0  0  0  0  0  0  0  0
   25.8372  -20.4175  -15.0748 O   0  0  0  0  0  0  0  0  0  0  0  0
   22.7409  -20.5481  -10.3626 N   0  0  0  0  0  0  0  0  0  0  0  0
   23.5779  -20.6978  -14.7626 C   0  0  2  0  0  0  0  0  0  0  0  0
   23.2583  -19.8731  -15.9020 C   0  0  0  0  0  0  0  0  0  0  0  0
   21.9369  -20.3610  -16.4625 C   0  0  0  0  0  0  0  0  0  0  0  0
   22.1193  -21.5200  -17.3618 C   0  0  0  0  0  0  0  0  0  0  0  0
   23.3410  -22.0517  -17.7191 N   0  0  0  0  0  0  0  0  0  0  0  0
   23.1149  -23.0855  -18.5402 C   0  0  0  0  0  0  0  0  0  0  0  0
   21.7830  -23.2028  -18.6969 N   0  0  0  0  0  0  0  0  0  0  0  0
   21.1932  -22.2497  -17.9787 C   0  0  0  0  0  0  0  0  0  0  0  0
   23.1879  -18.4377  -15.5106 O   0  0  0  0  0  0  0  0  0  0  0  0
   22.5335  -18.0857  -14.4969 C   0  0  0  0  0  0  0  0  0  0  0  0
   24.2536  -13.2863  -17.2225 C   0  0  1  0  0  0  0  0  0  0  0  0
   25.0567  -13.8563  -16.0628 C   0  0  0  0  0  0  0  0  0  0  0  0
   26.4338  -13.2324  -16.1269 C   0  0  0  0  0  0  0  0  0  0  0  0
   25.0954  -15.3505  -16.1562 C   0  0  1  0  0  0  0  0  0  0  0  0
   23.7752  -16.0158  -16.0039 N   0  0  0  0  0  0  0  0  0  0  0  0
   23.8570  -17.4479  -16.2747 C   0  0  0  0  0  0  0  0  0  0  0  0
   22.6662  -15.3935  -16.7480 O   0  0  0  0  0  0  0  0  0  0  0  0
   21.8804  -14.5592  -16.1760 O   0  0  0  0  0  0  0  0  0  0  0  0
  2  3  2  0
  2  1  1  0
  4  2  1  0
  5  4  1  0
  6  5  1  0
  7  6  1  0
  8  9  1  6
  8  7  1  0
 10 11  2  0
 10  8  1  0
 12 10  1  0
 13 12  1  0
 13 20  1  0
 13 14  1  1
 15 19  1  0
 15 14  1  0
 16 15  2  0
 17 16  1  0
 17 18  1  0
 18 19  2  0
 20 27  1  0
 21 20  2  0
 23 22  1  1
 23 25  1  0
 24 23  1  0
 26 25  1  1
 26 28  1  0
 27 26  1  0
 28 29  2  0
 28 30  1  0
M  END
$$$$
