RHL.pdb
     RDKit          3D

 30 30  0  0  1  0  0  0  0  0999 V2000
   32.9778   -6.7324  -18.7799 N   0  0  0  0  0  0  0  0  0  0  0  0
   33.4508   -8.0475  -18.5218 C   0  0  0  0  0  0  0  0  0  0  0  0
   34.6980   -8.2891  -18.2643 N   0  0  0  0  0  0  0  0  0  0  0  0
   32.5503   -9.1560  -18.5393 N   0  0  0  0  0  0  0  0  0  0  0  0
   31.1953   -9.0579  -19.0485 C   0  0  0  0  0  0  0  0  0  0  0  0
   30.2728   -8.9433  -17.8590 C   0  0  0  0  0  0  0  0  0  0  0  0
   28.8300   -8.7486  -18.2765 C   0  0  0  0  0  0  0  0  0  0  0  0
   28.2332  -10.1221  -18.4584 C   0  0  2  0  0  0  0  0  0  0  0  0
   29.0484  -10.8335  -19.4241 N   0  0  0  0  0  0  0  0  0  0  0  0
   26.8155  -10.1040  -18.8356 C   0  0  0  0  0  0  0  0  0  0  0  0
   26.4194  -10.7651  -19.8116 O   0  0  0  0  0  0  0  0  0  0  0  0
   35.0648   -9.2297  -18.0822 N   0  0  0  0  0  0  0  0  0  0  0  0
   25.9027   -9.3350  -18.0888 C   0  0  1  0  0  0  0  0  0  0  0  0
   24.4974   -9.3571  -18.4129 C   0  0  0  0  0  0  0  0  0  0  0  0
   24.0329  -10.7979  -18.3327 C   0  0  0  0  0  0  0  0  0  0  0  0
   24.3301  -11.5380  -19.5774 C   0  0  0  0  0  0  0  0  0  0  0  0
   25.0122  -11.0163  -20.6570 N   0  0  0  0  0  0  0  0  0  0  0  0
   25.0910  -11.9707  -21.5935 C   0  0  0  0  0  0  0  0  0  0  0  0
   24.4735  -13.0675  -21.1160 N   0  0  0  0  0  0  0  0  0  0  0  0
   24.0182  -12.7918  -19.8959 C   0  0  0  0  0  0  0  0  0  0  0  0
   23.7282   -8.4837  -17.4833 O   0  0  0  0  0  0  0  0  0  0  0  0
   23.6533   -8.7653  -16.2607 C   0  0  0  0  0  0  0  0  0  0  0  0
   23.7797   -4.1384  -15.2315 C   0  0  1  0  0  0  0  0  0  0  0  0
   24.7531   -4.3060  -16.3887 C   0  0  0  0  0  0  0  0  0  0  0  0
   24.4885   -3.1756  -17.3592 C   0  0  0  0  0  0  0  0  0  0  0  0
   24.5745   -5.6557  -17.0126 C   0  0  1  0  0  0  0  0  0  0  0  0
   23.1668   -6.0108  -17.3304 N   0  0  0  0  0  0  0  0  0  0  0  0
   23.0697   -7.3227  -17.9629 C   0  0  0  0  0  0  0  0  0  0  0  0
   22.4163   -4.9947  -18.0888 O   0  0  0  0  0  0  0  0  0  0  0  0
   22.4634   -4.9652  -19.3685 O   0  0  0  0  0  0  0  0  0  0  0  0
  2  3  2  0
  2  1  1  0
  4  2  1  0
  5  4  1  0
  6  5  1  0
  7  6  1  0
  8  9  1  6
  8  7  1  0
 10 11  2  0
 10  8  1  0
 12 10  1  0
 13 12  1  0
 13 20  1  0
 13 14  1  6
 15 19  1  0
 15 14  1  0
 16 15  2  0
 17 16  1  0
 17 18  1  0
 18 19  2  0
 20 27  1  0
 21 20  2  0
 23 22  1  1
 23 25  1  0
 24 23  1  0
 26 25  1  1
 26 28  1  0
 27 26  1  0
 28 29  2  0
 28 30  1  0
M  END
$$$$
