RHL.pdb
     RDKit          3D

 30 30  0  0  1  0  0  0  0  0999 V2000
   28.2128  -18.3237  -19.2279 N   0  0  0  0  0  0  0  0  0  0  0  0
   28.9320  -19.5357  -19.4107 C   0  0  0  0  0  0  0  0  0  0  0  0
   30.0249  -19.5861  -20.1061 N   0  0  0  0  0  0  0  0  0  0  0  0
   28.4626  -20.7503  -18.8239 N   0  0  0  0  0  0  0  0  0  0  0  0
   27.7416  -20.7860  -17.5655 C   0  0  0  0  0  0  0  0  0  0  0  0
   28.1034  -19.5349  -16.8018 C   0  0  0  0  0  0  0  0  0  0  0  0
   27.0527  -19.1747  -15.7722 C   0  0  0  0  0  0  0  0  0  0  0  0
   27.5580  -19.6602  -14.4363 C   0  0  2  0  0  0  0  0  0  0  0  0
   28.2045  -20.9410  -14.6476 N   0  0  0  0  0  0  0  0  0  0  0  0
   26.5198  -19.7269  -13.4018 C   0  0  0  0  0  0  0  0  0  0  0  0
   25.3763  -19.2967  -13.6345 O   0  0  0  0  0  0  0  0  0  0  0  0
   30.4914  -20.4634  -20.3615 N   0  0  0  0  0  0  0  0  0  0  0  0
   26.8215  -20.2799  -12.1427 C   0  0  2  0  0  0  0  0  0  0  0  0
   25.7715  -20.5190  -11.1831 C   0  0  0  0  0  0  0  0  0  0  0  0
   24.8542  -21.5770  -11.7639 C   0  0  0  0  0  0  0  0  0  0  0  0
   23.8524  -20.9895  -12.6785 C   0  0  0  0  0  0  0  0  0  0  0  0
   23.7010  -19.6387  -12.9137 N   0  0  0  0  0  0  0  0  0  0  0  0
   22.7020  -19.4840  -13.7924 C   0  0  0  0  0  0  0  0  0  0  0  0
   22.2349  -20.7075  -14.1038 N   0  0  0  0  0  0  0  0  0  0  0  0
   22.9396  -21.6086  -13.4230 C   0  0  0  0  0  0  0  0  0  0  0  0
   26.3403  -20.9487   -9.8753 O   0  0  0  0  0  0  0  0  0  0  0  0
   26.9723  -22.0311   -9.7809 C   0  0  0  0  0  0  0  0  0  0  0  0
   29.1991  -20.4736   -6.8624 C   0  0  2  0  0  0  0  0  0  0  0  0
   28.2537  -19.2815   -6.8573 C   0  0  0  0  0  0  0  0  0  0  0  0
   28.8534  -18.2429   -5.9346 C   0  0  0  0  0  0  0  0  0  0  0  0
   26.8876  -19.7171   -6.4251 C   0  0  2  0  0  0  0  0  0  0  0  0
   26.2150  -20.6622   -7.3542 N   0  0  0  0  0  0  0  0  0  0  0  0
   26.1777  -20.1445   -8.7185 C   0  0  0  0  0  0  0  0  0  0  0  0
   24.8862  -21.1309   -6.9237 O   0  0  0  0  0  0  0  0  0  0  0  0
   23.8308  -20.7823   -7.5602 O   0  0  0  0  0  0  0  0  0  0  0  0
  2  3  2  0
  2  1  1  0
  4  2  1  0
  5  4  1  0
  6  5  1  0
  7  6  1  0
  8  9  1  6
  8  7  1  0
 10 11  2  0
 10  8  1  0
 12 10  1  0
 13 12  1  0
 13 20  1  0
 13 14  1  6
 15 19  1  0
 15 14  1  0
 16 15  2  0
 17 16  1  0
 17 18  1  0
 18 19  2  0
 20 27  1  0
 21 20  2  0
 23 22  1  6
 23 25  1  0
 24 23  1  0
 26 25  1  6
 26 28  1  0
 27 26  1  0
 28 29  2  0
 28 30  1  0
M  END
$$$$
