RHL.pdb
     RDKit          3D

 30 30  0  0  1  0  0  0  0  0999 V2000
   25.4770   -7.3568  -23.1887 N   0  0  0  0  0  0  0  0  0  0  0  0
   24.1192   -6.9384  -23.1543 C   0  0  0  0  0  0  0  0  0  0  0  0
   23.6969   -5.9238  -23.8417 N   0  0  0  0  0  0  0  0  0  0  0  0
   23.1681   -7.6358  -22.3485 N   0  0  0  0  0  0  0  0  0  0  0  0
   23.5402   -8.7145  -21.4526 C   0  0  0  0  0  0  0  0  0  0  0  0
   22.2709   -9.2400  -20.8265 C   0  0  0  0  0  0  0  0  0  0  0  0
   22.5436  -10.3640  -19.8488 C   0  0  0  0  0  0  0  0  0  0  0  0
   21.2155  -10.7689  -19.2590 C   0  0  2  0  0  0  0  0  0  0  0  0
   20.2786  -10.9356  -20.3533 N   0  0  0  0  0  0  0  0  0  0  0  0
   20.7161   -9.8412  -18.2379 C   0  0  0  0  0  0  0  0  0  0  0  0
   19.9902   -8.8851  -18.5627 O   0  0  0  0  0  0  0  0  0  0  0  0
   22.7181   -5.6167  -23.8514 N   0  0  0  0  0  0  0  0  0  0  0  0
   21.0614  -10.0361  -16.8869 C   0  0  1  0  0  0  0  0  0  0  0  0
   20.5934   -9.1185  -15.8772 C   0  0  0  0  0  0  0  0  0  0  0  0
   20.3181   -9.9225  -14.6218 C   0  0  0  0  0  0  0  0  0  0  0  0
   19.0716  -10.7085  -14.7385 C   0  0  0  0  0  0  0  0  0  0  0  0
   18.2586  -10.7300  -15.8528 N   0  0  0  0  0  0  0  0  0  0  0  0
   17.2290  -11.5469  -15.5946 C   0  0  0  0  0  0  0  0  0  0  0  0
   17.3890  -12.0289  -14.3478 N   0  0  0  0  0  0  0  0  0  0  0  0
   18.5072  -11.5136  -13.8418 C   0  0  0  0  0  0  0  0  0  0  0  0
   21.5998   -8.0487  -15.6299 O   0  0  0  0  0  0  0  0  0  0  0  0
   22.8144   -8.2457  -15.8864 C   0  0  0  0  0  0  0  0  0  0  0  0
   24.3241   -4.0391  -15.3920 C   0  0  1  0  0  0  0  0  0  0  0  0
   23.4628   -4.1593  -16.6405 C   0  0  0  0  0  0  0  0  0  0  0  0
   22.7012   -2.8593  -16.7816 C   0  0  0  0  0  0  0  0  0  0  0  0
   22.5590   -5.3476  -16.5228 C   0  0  1  0  0  0  0  0  0  0  0  0
   22.0276   -5.5897  -15.1562 N   0  0  0  0  0  0  0  0  0  0  0  0
   21.2035   -6.7934  -15.1020 C   0  0  0  0  0  0  0  0  0  0  0  0
   21.3414   -4.4436  -14.5345 O   0  0  0  0  0  0  0  0  0  0  0  0
   20.0921   -4.2422  -14.7322 O   0  0  0  0  0  0  0  0  0  0  0  0
  2  3  2  0
  2  1  1  0
  4  2  1  0
  5  4  1  0
  6  5  1  0
  7  6  1  0
  8  9  1  6
  8  7  1  0
 10 11  2  0
 10  8  1  0
 12 10  1  0
 13 12  1  0
 13 20  1  0
 13 14  1  1
 15 19  1  0
 15 14  1  0
 16 15  2  0
 17 16  1  0
 17 18  1  0
 18 19  2  0
 20 27  1  0
 21 20  2  0
 23 22  1  6
 23 25  1  0
 24 23  1  0
 26 25  1  1
 26 28  1  0
 27 26  1  0
 28 29  2  0
 28 30  1  0
M  END
$$$$
