RHL.pdb
     RDKit          3D

 30 30  0  0  1  0  0  0  0  0999 V2000
   26.0670  -22.6296  -10.4843 N   0  0  0  0  0  0  0  0  0  0  0  0
   25.5082  -21.3299  -10.6201 C   0  0  0  0  0  0  0  0  0  0  0  0
   24.7941  -20.7895   -9.6830 N   0  0  0  0  0  0  0  0  0  0  0  0
   25.7219  -20.5722  -11.8119 N   0  0  0  0  0  0  0  0  0  0  0  0
   25.3203  -21.0438  -13.1238 C   0  0  0  0  0  0  0  0  0  0  0  0
   26.5132  -21.7334  -13.7407 C   0  0  0  0  0  0  0  0  0  0  0  0
   27.3724  -20.7750  -14.5390 C   0  0  0  0  0  0  0  0  0  0  0  0
   26.4682  -20.0988  -15.5393 C   0  0  2  0  0  0  0  0  0  0  0  0
   26.8905  -20.5091  -16.8645 N   0  0  0  0  0  0  0  0  0  0  0  0
   26.4211  -18.6390  -15.3994 C   0  0  0  0  0  0  0  0  0  0  0  0
   26.7397  -18.1032  -14.3232 O   0  0  0  0  0  0  0  0  0  0  0  0
   24.4440  -19.8260   -9.7247 N   0  0  0  0  0  0  0  0  0  0  0  0
   26.0135  -17.8448  -16.4880 C   0  0  1  0  0  0  0  0  0  0  0  0
   25.9820  -16.4077  -16.3681 C   0  0  0  0  0  0  0  0  0  0  0  0
   27.3981  -15.9413  -16.0935 C   0  0  0  0  0  0  0  0  0  0  0  0
   27.5216  -14.4726  -16.2079 C   0  0  0  0  0  0  0  0  0  0  0  0
   26.7743  -13.5635  -15.4881 N   0  0  0  0  0  0  0  0  0  0  0  0
   27.1592  -12.3339  -15.8540 C   0  0  0  0  0  0  0  0  0  0  0  0
   28.1257  -12.4644  -16.7820 N   0  0  0  0  0  0  0  0  0  0  0  0
   28.3349  -13.7631  -16.9864 C   0  0  0  0  0  0  0  0  0  0  0  0
   25.4340  -15.7873  -17.6063 O   0  0  0  0  0  0  0  0  0  0  0  0
   25.7825  -16.2093  -18.7378 C   0  0  0  0  0  0  0  0  0  0  0  0
   20.8379  -16.6726  -20.0948 C   0  0  1  0  0  0  0  0  0  0  0  0
   21.7369  -15.4479  -20.0119 C   0  0  0  0  0  0  0  0  0  0  0  0
   22.3082  -15.2217  -21.3947 C   0  0  0  0  0  0  0  0  0  0  0  0
   22.7981  -15.6647  -18.9775 C   0  0  2  0  0  0  0  0  0  0  0  0
   23.5013  -14.4299  -18.5422 N   0  0  0  0  0  0  0  0  0  0  0  0
   24.5120  -14.7125  -17.5276 C   0  0  0  0  0  0  0  0  0  0  0  0
   22.6263  -13.3183  -18.1302 O   0  0  0  0  0  0  0  0  0  0  0  0
   22.0497  -12.5801  -19.0038 O   0  0  0  0  0  0  0  0  0  0  0  0
  2  3  2  0
  2  1  1  0
  4  2  1  0
  5  4  1  0
  6  5  1  0
  7  6  1  0
  8  9  1  6
  8  7  1  0
 10 11  2  0
 10  8  1  0
 12 10  1  0
 13 12  1  0
 13 20  1  0
 13 14  1  6
 15 19  1  0
 15 14  1  0
 16 15  2  0
 17 16  1  0
 17 18  1  0
 18 19  2  0
 20 27  1  0
 21 20  2  0
 23 22  1  6
 23 25  1  0
 24 23  1  0
 26 25  1  6
 26 28  1  0
 27 26  1  0
 28 29  2  0
 28 30  1  0
M  END
$$$$
