YFA.pdb
     RDKit          3D

 29 30  0  0  1  0  0  0  0  0999 V2000
   36.3508  -40.1250   -4.9398 O   0  0  0  0  0  0  0  0  0  0  0  0
   36.0092  -39.4643   -3.7498 C   0  0  0  0  0  0  0  0  0  0  0  0
   34.8432  -38.7658   -3.6906 C   0  0  0  0  0  0  0  0  0  0  0  0
   34.5015  -38.1158   -2.5283 C   0  0  0  0  0  0  0  0  0  0  0  0
   35.3349  -38.1640   -1.4104 C   0  0  0  0  0  0  0  0  0  0  0  0
   34.9052  -37.4465   -0.2050 C   0  0  0  0  0  0  0  0  0  0  0  0
   35.1668  -35.9600   -0.3705 C   0  0  2  0  0  0  0  0  0  0  0  0
   36.5861  -35.6655   -0.3073 N   0  0  0  0  0  0  0  0  0  0  0  0
   34.5177  -35.2929    0.8026 C   0  0  0  0  0  0  0  0  0  0  0  0
   35.1084  -35.1826    1.9083 O   0  0  0  0  0  0  0  0  0  0  0  0
   36.5062  -38.8699   -1.4804 C   0  0  0  0  0  0  0  0  0  0  0  0
   36.8402  -39.5195   -2.6535 C   0  0  0  0  0  0  0  0  0  0  0  0
   33.2046  -34.7593    0.7042 N   0  0  0  0  0  0  0  0  0  0  0  0
   32.6154  -34.1002    1.8266 C   0  0  1  0  0  0  0  0  0  0  0  0
   31.8524  -32.8503    1.4350 C   0  0  0  0  0  0  0  0  0  0  0  0
   31.1676  -32.2290    2.5719 C   0  0  0  0  0  0  0  0  0  0  0  0
   29.8315  -32.4237    2.8586 C   0  0  0  0  0  0  0  0  0  0  0  0
   29.2153  -31.8261    3.9342 C   0  0  0  0  0  0  0  0  0  0  0  0
   29.9384  -30.9942    4.7764 C   0  0  0  0  0  0  0  0  0  0  0  0
   31.2729  -30.7855    4.5097 C   0  0  0  0  0  0  0  0  0  0  0  0
   31.8720  -31.3978    3.4209 C   0  0  0  0  0  0  0  0  0  0  0  0
   31.7548  -35.0213    2.6257 C   0  0  0  0  0  0  0  0  0  0  0  0
   30.8361  -35.6576    2.0497 O   0  0  0  0  0  0  0  0  0  0  0  0
   32.0944  -36.4709    6.0359 C   0  0  0  0  0  0  0  0  0  0  0  0
   31.2172  -36.1008    4.8356 C   0  0  2  0  0  0  0  0  0  0  0  0
   31.9638  -35.1834    4.0212 N   0  0  0  0  0  0  0  0  0  0  0  0
   29.9873  -35.4901    5.3994 C   0  0  0  0  0  0  0  0  0  0  0  0
   28.8560  -36.0340    5.3949 O   0  0  0  0  0  0  0  0  0  0  0  0
   30.0963  -34.2308    5.9710 O   0  0  0  0  0  0  0  0  0  0  0  0
  2  1  1  0
  3  2  2  0
  4  3  1  0
  5 11  1  0
  5  4  2  0
  6  5  1  0
  7  6  1  0
  7  8  1  1
  9  7  1  0
  9 10  2  0
 11 12  2  0
 12  2  1  0
 13  9  1  0
 14 13  1  0
 14 15  1  6
 16 15  1  0
 16 17  2  0
 18 17  1  0
 19 18  2  0
 20 21  2  0
 20 19  1  0
 21 16  1  0
 22 14  1  0
 23 22  2  0
 25 24  1  1
 25 27  1  0
 25 26  1  0
 26 22  1  0
 27 29  1  0
 28 27  2  0
M  END
$$$$
