YFA.pdb
     RDKit          3D

 29 30  0  0  1  0  0  0  0  0999 V2000
   16.7522  -25.4016  -10.2993 O   0  0  0  0  0  0  0  0  0  0  0  0
   17.8233  -24.5783  -10.6792 C   0  0  0  0  0  0  0  0  0  0  0  0
   17.5753  -23.2870  -11.0289 C   0  0  0  0  0  0  0  0  0  0  0  0
   18.6193  -22.4742  -11.4022 C   0  0  0  0  0  0  0  0  0  0  0  0
   19.9281  -22.9568  -11.4268 C   0  0  0  0  0  0  0  0  0  0  0  0
   20.9911  -22.0320  -11.8355 C   0  0  0  0  0  0  0  0  0  0  0  0
   21.9935  -21.8692  -10.7066 C   0  0  2  0  0  0  0  0  0  0  0  0
   21.4026  -21.1820   -9.5736 N   0  0  0  0  0  0  0  0  0  0  0  0
   23.0827  -20.9932  -11.2440 C   0  0  0  0  0  0  0  0  0  0  0  0
   22.9422  -19.7459  -11.3329 O   0  0  0  0  0  0  0  0  0  0  0  0
   20.1670  -24.2580  -11.0730 C   0  0  0  0  0  0  0  0  0  0  0  0
   19.1104  -25.0665  -10.6994 C   0  0  0  0  0  0  0  0  0  0  0  0
   24.3187  -21.5465  -11.6740 N   0  0  0  0  0  0  0  0  0  0  0  0
   25.3640  -20.6880  -12.1342 C   0  0  1  0  0  0  0  0  0  0  0  0
   26.7101  -21.0304  -11.5273 C   0  0  0  0  0  0  0  0  0  0  0  0
   26.8236  -20.6020  -10.1304 C   0  0  0  0  0  0  0  0  0  0  0  0
   26.2339  -19.4580   -9.6317 C   0  0  0  0  0  0  0  0  0  0  0  0
   26.3582  -19.0808   -8.3140 C   0  0  0  0  0  0  0  0  0  0  0  0
   27.0962  -19.8589   -7.4343 C   0  0  0  0  0  0  0  0  0  0  0  0
   27.6934  -21.0048   -7.9099 C   0  0  0  0  0  0  0  0  0  0  0  0
   27.5545  -21.3646   -9.2404 C   0  0  0  0  0  0  0  0  0  0  0  0
   25.4441  -20.6559  -13.6242 C   0  0  0  0  0  0  0  0  0  0  0  0
   26.0059  -21.6040  -14.2295 O   0  0  0  0  0  0  0  0  0  0  0  0
   24.1942  -18.1991  -16.1915 C   0  0  0  0  0  0  0  0  0  0  0  0
   24.9266  -19.4839  -15.7914 C   0  0  2  0  0  0  0  0  0  0  0  0
   24.8948  -19.5711  -14.3583 N   0  0  0  0  0  0  0  0  0  0  0  0
   26.3063  -19.3518  -16.3229 C   0  0  0  0  0  0  0  0  0  0  0  0
   26.6393  -19.5988  -17.5078 O   0  0  0  0  0  0  0  0  0  0  0  0
   27.2959  -18.9258  -15.4492 O   0  0  0  0  0  0  0  0  0  0  0  0
  2  1  1  0
  3  2  2  0
  4  3  1  0
  5 11  1  0
  5  4  2  0
  6  5  1  0
  7  6  1  0
  7  8  1  1
  9  7  1  0
  9 10  2  0
 11 12  2  0
 12  2  1  0
 13  9  1  0
 14 13  1  0
 14 15  1  1
 16 15  1  0
 16 17  2  0
 18 17  1  0
 19 18  2  0
 20 21  2  0
 20 19  1  0
 21 16  1  0
 22 14  1  0
 23 22  2  0
 25 24  1  1
 25 27  1  0
 25 26  1  0
 26 22  1  0
 27 29  1  0
 28 27  2  0
M  END
$$$$
