YFA.pdb
     RDKit          3D

 29 30  0  0  1  0  0  0  0  0999 V2000
   21.9258  -18.7820  -16.4913 O   0  0  0  0  0  0  0  0  0  0  0  0
   22.4655  -19.2612  -15.2878 C   0  0  0  0  0  0  0  0  0  0  0  0
   23.1181  -18.3975  -14.4636 C   0  0  0  0  0  0  0  0  0  0  0  0
   23.6496  -18.8593  -13.2828 C   0  0  0  0  0  0  0  0  0  0  0  0
   23.5280  -20.2010  -12.9201 C   0  0  0  0  0  0  0  0  0  0  0  0
   24.1200  -20.6217  -11.6454 C   0  0  0  0  0  0  0  0  0  0  0  0
   25.6214  -20.7837  -11.8041 C   0  0  2  0  0  0  0  0  0  0  0  0
   25.9424  -21.9400  -12.6197 N   0  0  0  0  0  0  0  0  0  0  0  0
   26.1570  -21.0418  -10.4297 C   0  0  0  0  0  0  0  0  0  0  0  0
   26.1263  -22.1897   -9.9150 O   0  0  0  0  0  0  0  0  0  0  0  0
   22.8693  -21.0621  -13.7566 C   0  0  0  0  0  0  0  0  0  0  0  0
   22.3388  -20.5875  -14.9412 C   0  0  0  0  0  0  0  0  0  0  0  0
   26.7210  -19.9912   -9.6571 N   0  0  0  0  0  0  0  0  0  0  0  0
   27.2308  -20.2603   -8.3498 C   0  0  1  0  0  0  0  0  0  0  0  0
   28.3572  -19.3243   -7.9586 C   0  0  0  0  0  0  0  0  0  0  0  0
   28.8175  -19.5404   -6.5842 C   0  0  0  0  0  0  0  0  0  0  0  0
   29.5543  -20.6387   -6.1888 C   0  0  0  0  0  0  0  0  0  0  0  0
   29.9727  -20.8148   -4.8896 C   0  0  0  0  0  0  0  0  0  0  0  0
   29.6571  -19.8712   -3.9231 C   0  0  0  0  0  0  0  0  0  0  0  0
   28.9227  -18.7674   -4.2949 C   0  0  0  0  0  0  0  0  0  0  0  0
   28.5124  -18.6113   -5.6087 C   0  0  0  0  0  0  0  0  0  0  0  0
   26.1520  -20.2557   -7.3185 C   0  0  0  0  0  0  0  0  0  0  0  0
   25.4026  -19.2511   -7.2183 O   0  0  0  0  0  0  0  0  0  0  0  0
   24.6704  -22.8927   -5.1401 C   0  0  0  0  0  0  0  0  0  0  0  0
   24.9690  -21.4171   -5.4239 C   0  0  2  0  0  0  0  0  0  0  0  0
   25.9664  -21.3688   -6.4560 N   0  0  0  0  0  0  0  0  0  0  0  0
   25.4482  -20.8420   -4.1421 C   0  0  0  0  0  0  0  0  0  0  0  0
   26.6400  -20.5280   -3.9042 O   0  0  0  0  0  0  0  0  0  0  0  0
   24.5136  -20.6374   -3.1376 O   0  0  0  0  0  0  0  0  0  0  0  0
  2  1  1  0
  3  2  2  0
  4  3  1  0
  5 11  1  0
  5  4  2  0
  6  5  1  0
  7  6  1  0
  7  8  1  6
  9  7  1  0
  9 10  2  0
 11 12  2  0
 12  2  1  0
 13  9  1  0
 14 13  1  0
 14 15  1  1
 16 15  1  0
 16 17  2  0
 18 17  1  0
 19 18  2  0
 20 21  2  0
 20 19  1  0
 21 16  1  0
 22 14  1  0
 23 22  2  0
 25 24  1  1
 25 27  1  0
 25 26  1  0
 26 22  1  0
 27 29  1  0
 28 27  2  0
M  END
$$$$
