YFA.pdb
     RDKit          3D

 29 30  0  0  1  0  0  0  0  0999 V2000
   25.4697  -18.0325  -19.6354 O   0  0  0  0  0  0  0  0  0  0  0  0
   25.2151  -18.7063  -18.4310 C   0  0  0  0  0  0  0  0  0  0  0  0
   24.9276  -17.9832  -17.3149 C   0  0  0  0  0  0  0  0  0  0  0  0
   24.6770  -18.6360  -16.1312 C   0  0  0  0  0  0  0  0  0  0  0  0
   24.7140  -20.0289  -16.0608 C   0  0  0  0  0  0  0  0  0  0  0  0
   24.4360  -20.6563  -14.7641 C   0  0  0  0  0  0  0  0  0  0  0  0
   25.6728  -20.5918  -13.8857 C   0  0  2  0  0  0  0  0  0  0  0  0
   26.7149  -21.4726  -14.3793 N   0  0  0  0  0  0  0  0  0  0  0  0
   25.2529  -21.1029  -12.5423 C   0  0  0  0  0  0  0  0  0  0  0  0
   24.9472  -22.3102  -12.3622 O   0  0  0  0  0  0  0  0  0  0  0  0
   25.0043  -20.7473  -17.1899 C   0  0  0  0  0  0  0  0  0  0  0  0
   25.2546  -20.0813  -18.3746 C   0  0  0  0  0  0  0  0  0  0  0  0
   25.1856  -20.2347  -11.4196 N   0  0  0  0  0  0  0  0  0  0  0  0
   24.6716  -20.7140  -10.1757 C   0  0  1  0  0  0  0  0  0  0  0  0
   25.1645  -19.9072   -8.9908 C   0  0  0  0  0  0  0  0  0  0  0  0
   26.5437  -20.2359   -8.6201 C   0  0  0  0  0  0  0  0  0  0  0  0
   27.1505  -19.7916   -7.4627 C   0  0  0  0  0  0  0  0  0  0  0  0
   28.4485  -20.1168   -7.1410 C   0  0  0  0  0  0  0  0  0  0  0  0
   29.1962  -20.9178   -7.9916 C   0  0  0  0  0  0  0  0  0  0  0  0
   28.6112  -21.3726   -9.1521 C   0  0  0  0  0  0  0  0  0  0  0  0
   27.3030  -21.0322   -9.4551 C   0  0  0  0  0  0  0  0  0  0  0  0
   23.1813  -20.7951  -10.1820 C   0  0  0  0  0  0  0  0  0  0  0  0
   22.5088  -19.7333  -10.2171 O   0  0  0  0  0  0  0  0  0  0  0  0
   20.7180  -23.3659  -11.0181 C   0  0  0  0  0  0  0  0  0  0  0  0
   21.0942  -22.2004  -10.0976 C   0  0  2  0  0  0  0  0  0  0  0  0
   22.5217  -22.0526  -10.1491 N   0  0  0  0  0  0  0  0  0  0  0  0
   20.6090  -22.5730   -8.7452 C   0  0  0  0  0  0  0  0  0  0  0  0
   21.3535  -22.8530   -7.7740 O   0  0  0  0  0  0  0  0  0  0  0  0
   19.2376  -22.6147   -8.5408 O   0  0  0  0  0  0  0  0  0  0  0  0
  2  1  1  0
  3  2  2  0
  4  3  1  0
  5 11  1  0
  5  4  2  0
  6  5  1  0
  7  6  1  0
  7  8  1  6
  9  7  1  0
  9 10  2  0
 11 12  2  0
 12  2  1  0
 13  9  1  0
 14 13  1  0
 14 15  1  1
 16 15  1  0
 16 17  2  0
 18 17  1  0
 19 18  2  0
 20 21  2  0
 20 19  1  0
 21 16  1  0
 22 14  1  0
 23 22  2  0
 25 24  1  6
 25 27  1  0
 25 26  1  0
 26 22  1  0
 27 29  1  0
 28 27  2  0
M  END
$$$$
