YFA.pdb
     RDKit          3D

 29 30  0  0  1  0  0  0  0  0999 V2000
   20.0000  -18.2159  -18.4933 O   0  0  0  0  0  0  0  0  0  0  0  0
   20.6100  -18.8254  -17.3862 C   0  0  0  0  0  0  0  0  0  0  0  0
   21.2449  -18.0480  -16.4676 C   0  0  0  0  0  0  0  0  0  0  0  0
   21.8449  -18.6376  -15.3803 C   0  0  0  0  0  0  0  0  0  0  0  0
   21.8107  -20.0216  -15.2077 C   0  0  0  0  0  0  0  0  0  0  0  0
   22.4725  -20.5802  -14.0235 C   0  0  0  0  0  0  0  0  0  0  0  0
   23.9782  -20.5608  -14.2184 C   0  0  2  0  0  0  0  0  0  0  0  0
   24.3951  -21.5502  -15.1943 N   0  0  0  0  0  0  0  0  0  0  0  0
   24.5708  -20.9536  -12.9004 C   0  0  0  0  0  0  0  0  0  0  0  0
   24.5297  -22.1413  -12.4868 O   0  0  0  0  0  0  0  0  0  0  0  0
   21.1692  -20.7952  -16.1380 C   0  0  0  0  0  0  0  0  0  0  0  0
   20.5693  -20.1924  -17.2273 C   0  0  0  0  0  0  0  0  0  0  0  0
   25.2030  -19.9907  -12.0685 N   0  0  0  0  0  0  0  0  0  0  0  0
   25.7424  -20.3826  -10.8049 C   0  0  1  0  0  0  0  0  0  0  0  0
   26.8590  -19.4696  -10.3385 C   0  0  0  0  0  0  0  0  0  0  0  0
   27.3786  -19.8433   -9.0202 C   0  0  0  0  0  0  0  0  0  0  0  0
   28.2796  -20.8690   -8.8166 C   0  0  0  0  0  0  0  0  0  0  0  0
   28.7502  -21.1972   -7.5658 C   0  0  0  0  0  0  0  0  0  0  0  0
   28.3207  -20.4892   -6.4529 C   0  0  0  0  0  0  0  0  0  0  0  0
   27.4218  -19.4617   -6.6323 C   0  0  0  0  0  0  0  0  0  0  0  0
   26.9619  -19.1492   -7.9011 C   0  0  0  0  0  0  0  0  0  0  0  0
   24.6834  -20.5054   -9.7604 C   0  0  0  0  0  0  0  0  0  0  0  0
   23.8584  -19.5688   -9.6092 O   0  0  0  0  0  0  0  0  0  0  0  0
   23.7097  -23.2705   -7.4069 C   0  0  0  0  0  0  0  0  0  0  0  0
   23.6661  -21.8081   -7.8614 C   0  0  2  0  0  0  0  0  0  0  0  0
   24.6008  -21.6634   -8.9419 N   0  0  0  0  0  0  0  0  0  0  0  0
   24.0388  -20.9986   -6.6743 C   0  0  0  0  0  0  0  0  0  0  0  0
   25.2148  -20.6844   -6.3676 O   0  0  0  0  0  0  0  0  0  0  0  0
   23.0160  -20.5590   -5.8466 O   0  0  0  0  0  0  0  0  0  0  0  0
  2  1  1  0
  3  2  2  0
  4  3  1  0
  5 11  1  0
  5  4  2  0
  6  5  1  0
  7  6  1  0
  7  8  1  6
  9  7  1  0
  9 10  2  0
 11 12  2  0
 12  2  1  0
 13  9  1  0
 14 13  1  0
 14 15  1  1
 16 15  1  0
 16 17  2  0
 18 17  1  0
 19 18  2  0
 20 21  2  0
 20 19  1  0
 21 16  1  0
 22 14  1  0
 23 22  2  0
 25 24  1  1
 25 27  1  0
 25 26  1  0
 26 22  1  0
 27 29  1  0
 28 27  2  0
M  END
$$$$
