YFA.pdb
     RDKit          3D

 29 30  0  0  1  0  0  0  0  0999 V2000
   28.2192  -15.7031  -19.6729 O   0  0  0  0  0  0  0  0  0  0  0  0
   27.4298  -16.5226  -18.8516 C   0  0  0  0  0  0  0  0  0  0  0  0
   27.0464  -17.7457  -19.3079 C   0  0  0  0  0  0  0  0  0  0  0  0
   26.2729  -18.5544  -18.5093 C   0  0  0  0  0  0  0  0  0  0  0  0
   25.8771  -18.1366  -17.2384 C   0  0  0  0  0  0  0  0  0  0  0  0
   25.0526  -19.0528  -16.4427 C   0  0  0  0  0  0  0  0  0  0  0  0
   25.9250  -19.7975  -15.4477 C   0  0  2  0  0  0  0  0  0  0  0  0
   26.8607  -20.6766  -16.1235 N   0  0  0  0  0  0  0  0  0  0  0  0
   24.9972  -20.6593  -14.6484 C   0  0  0  0  0  0  0  0  0  0  0  0
   24.6776  -21.8150  -15.0303 O   0  0  0  0  0  0  0  0  0  0  0  0
   26.2684  -16.9038  -16.7885 C   0  0  0  0  0  0  0  0  0  0  0  0
   27.0457  -16.0988  -17.5993 C   0  0  0  0  0  0  0  0  0  0  0  0
   24.4440  -20.1965  -13.4243 N   0  0  0  0  0  0  0  0  0  0  0  0
   23.6620  -21.0772  -12.6156 C   0  0  1  0  0  0  0  0  0  0  0  0
   24.0300  -21.0024  -11.1470 C   0  0  0  0  0  0  0  0  0  0  0  0
   25.4791  -20.9750  -10.9302 C   0  0  0  0  0  0  0  0  0  0  0  0
   26.3324  -21.9795  -11.3406 C   0  0  0  0  0  0  0  0  0  0  0  0
   27.6901  -21.9260  -11.1226 C   0  0  0  0  0  0  0  0  0  0  0  0
   28.2477  -20.8362  -10.4702 C   0  0  0  0  0  0  0  0  0  0  0  0
   27.4154  -19.8222  -10.0520 C   0  0  0  0  0  0  0  0  0  0  0  0
   26.0516  -19.8977  -10.2824 C   0  0  0  0  0  0  0  0  0  0  0  0
   22.1981  -20.8603  -12.8096 C   0  0  0  0  0  0  0  0  0  0  0  0
   21.7142  -19.7180  -12.6052 O   0  0  0  0  0  0  0  0  0  0  0  0
   19.4347  -23.0363  -14.1249 C   0  0  0  0  0  0  0  0  0  0  0  0
   19.9302  -21.8022  -13.3642 C   0  0  2  0  0  0  0  0  0  0  0  0
   21.3536  -21.9261  -13.2202 N   0  0  0  0  0  0  0  0  0  0  0  0
   19.2231  -21.8138  -12.0591 C   0  0  0  0  0  0  0  0  0  0  0  0
   19.6721  -22.3383  -11.0108 O   0  0  0  0  0  0  0  0  0  0  0  0
   17.9796  -21.2024  -11.9940 O   0  0  0  0  0  0  0  0  0  0  0  0
  2  1  1  0
  3  2  2  0
  4  3  1  0
  5 11  1  0
  5  4  2  0
  6  5  1  0
  7  6  1  0
  7  8  1  6
  9  7  1  0
  9 10  2  0
 11 12  2  0
 12  2  1  0
 13  9  1  0
 14 13  1  0
 14 15  1  1
 16 15  1  0
 16 17  2  0
 18 17  1  0
 19 18  2  0
 20 21  2  0
 20 19  1  0
 21 16  1  0
 22 14  1  0
 23 22  2  0
 25 24  1  6
 25 27  1  0
 25 26  1  0
 26 22  1  0
 27 29  1  0
 28 27  2  0
M  END
$$$$
