YFA.pdb
     RDKit          3D

 29 30  0  0  1  0  0  0  0  0999 V2000
   33.8518  -34.8512  -21.4164 O   0  0  0  0  0  0  0  0  0  0  0  0
   32.8435  -34.5778  -20.4795 C   0  0  0  0  0  0  0  0  0  0  0  0
   32.8400  -35.2471  -19.2949 C   0  0  0  0  0  0  0  0  0  0  0  0
   31.8556  -34.9848  -18.3718 C   0  0  0  0  0  0  0  0  0  0  0  0
   30.8614  -34.0420  -18.6348 C   0  0  0  0  0  0  0  0  0  0  0  0
   29.8436  -33.8146  -17.6030 C   0  0  0  0  0  0  0  0  0  0  0  0
   29.8803  -32.3642  -17.1550 C   0  0  2  0  0  0  0  0  0  0  0  0
   31.0590  -32.0907  -16.3544 N   0  0  0  0  0  0  0  0  0  0  0  0
   28.6851  -32.1736  -16.2731 C   0  0  0  0  0  0  0  0  0  0  0  0
   28.7382  -32.3906  -15.0347 O   0  0  0  0  0  0  0  0  0  0  0  0
   30.8738  -33.3738  -19.8301 C   0  0  0  0  0  0  0  0  0  0  0  0
   31.8679  -33.6451  -20.7510 C   0  0  0  0  0  0  0  0  0  0  0  0
   27.4438  -31.7384  -16.8103 N   0  0  0  0  0  0  0  0  0  0  0  0
   26.3448  -31.4657  -15.9391 C   0  0  1  0  0  0  0  0  0  0  0  0
   25.7498  -30.0896  -16.1634 C   0  0  0  0  0  0  0  0  0  0  0  0
   25.2874  -29.8935  -17.5401 C   0  0  0  0  0  0  0  0  0  0  0  0
   24.0015  -30.1672  -17.9607 C   0  0  0  0  0  0  0  0  0  0  0  0
   23.5959  -29.9729  -19.2614 C   0  0  0  0  0  0  0  0  0  0  0  0
   24.4900  -29.4861  -20.2036 C   0  0  0  0  0  0  0  0  0  0  0  0
   25.7783  -29.2061  -19.8065 C   0  0  0  0  0  0  0  0  0  0  0  0
   26.1640  -29.4096  -18.4916 C   0  0  0  0  0  0  0  0  0  0  0  0
   25.2926  -32.5209  -16.0215 C   0  0  0  0  0  0  0  0  0  0  0  0
   25.1082  -33.1205  -17.1111 O   0  0  0  0  0  0  0  0  0  0  0  0
   22.7568  -33.7921  -13.5473 C   0  0  0  0  0  0  0  0  0  0  0  0
   23.4786  -33.8564  -14.8971 C   0  0  2  0  0  0  0  0  0  0  0  0
   24.5038  -32.8508  -14.8872 N   0  0  0  0  0  0  0  0  0  0  0  0
   22.4421  -33.6021  -15.9288 C   0  0  0  0  0  0  0  0  0  0  0  0
   22.2131  -32.4819  -16.4469 O   0  0  0  0  0  0  0  0  0  0  0  0
   21.6733  -34.6775  -16.3492 O   0  0  0  0  0  0  0  0  0  0  0  0
  2  1  1  0
  3  2  2  0
  4  3  1  0
  5 11  1  0
  5  4  2  0
  6  5  1  0
  7  6  1  0
  7  8  1  1
  9  7  1  0
  9 10  2  0
 11 12  2  0
 12  2  1  0
 13  9  1  0
 14 13  1  0
 14 15  1  6
 16 15  1  0
 16 17  2  0
 18 17  1  0
 19 18  2  0
 20 21  2  0
 20 19  1  0
 21 16  1  0
 22 14  1  0
 23 22  2  0
 25 24  1  1
 25 27  1  0
 25 26  1  0
 26 22  1  0
 27 29  1  0
 28 27  2  0
M  END
$$$$
