YFA.pdb
     RDKit          3D

 29 30  0  0  1  0  0  0  0  0999 V2000
   22.5186  -18.6859  -16.9036 O   0  0  0  0  0  0  0  0  0  0  0  0
   22.9996  -19.0955  -15.6506 C   0  0  0  0  0  0  0  0  0  0  0  0
   22.4873  -20.2188  -15.0787 C   0  0  0  0  0  0  0  0  0  0  0  0
   22.9533  -20.6266  -13.8513 C   0  0  0  0  0  0  0  0  0  0  0  0
   23.9438  -19.9035  -13.1860 C   0  0  0  0  0  0  0  0  0  0  0  0
   24.3921  -20.3987  -11.8798 C   0  0  0  0  0  0  0  0  0  0  0  0
   25.8016  -20.9514  -11.9953 C   0  0  2  0  0  0  0  0  0  0  0  0
   25.8132  -22.2195  -12.7003 N   0  0  0  0  0  0  0  0  0  0  0  0
   26.2590  -21.2134  -10.5937 C   0  0  0  0  0  0  0  0  0  0  0  0
   25.9099  -22.2483   -9.9688 O   0  0  0  0  0  0  0  0  0  0  0  0
   24.4528  -18.7744  -13.7702 C   0  0  0  0  0  0  0  0  0  0  0  0
   23.9774  -18.3733  -15.0043 C   0  0  0  0  0  0  0  0  0  0  0  0
   27.1081  -20.2950   -9.9195 N   0  0  0  0  0  0  0  0  0  0  0  0
   27.4367  -20.5030   -8.5447 C   0  0  1  0  0  0  0  0  0  0  0  0
   28.6725  -19.7361   -8.1176 C   0  0  0  0  0  0  0  0  0  0  0  0
   28.8978  -19.7918   -6.6706 C   0  0  0  0  0  0  0  0  0  0  0  0
   29.5028  -20.8554   -6.0318 C   0  0  0  0  0  0  0  0  0  0  0  0
   29.7010  -20.8795   -4.6701 C   0  0  0  0  0  0  0  0  0  0  0  0
   29.2881  -19.8109   -3.8879 C   0  0  0  0  0  0  0  0  0  0  0  0
   28.6821  -18.7389   -4.5039 C   0  0  0  0  0  0  0  0  0  0  0  0
   28.4932  -18.7367   -5.8762 C   0  0  0  0  0  0  0  0  0  0  0  0
   26.2852  -20.2019   -7.6442 C   0  0  0  0  0  0  0  0  0  0  0  0
   25.6829  -19.1047   -7.7636 O   0  0  0  0  0  0  0  0  0  0  0  0
   23.8175  -22.0807   -5.8595 C   0  0  0  0  0  0  0  0  0  0  0  0
   24.7870  -20.9001   -5.7452 C   0  0  2  0  0  0  0  0  0  0  0  0
   25.8674  -21.1379   -6.6609 N   0  0  0  0  0  0  0  0  0  0  0  0
   25.2356  -20.8734   -4.3305 C   0  0  0  0  0  0  0  0  0  0  0  0
   26.3174  -21.3581   -3.9175 O   0  0  0  0  0  0  0  0  0  0  0  0
   24.4010  -20.2709   -3.4006 O   0  0  0  0  0  0  0  0  0  0  0  0
  2  1  1  0
  3  2  2  0
  4  3  1  0
  5 11  1  0
  5  4  2  0
  6  5  1  0
  7  6  1  0
  7  8  1  6
  9  7  1  0
  9 10  2  0
 11 12  2  0
 12  2  1  0
 13  9  1  0
 14 13  1  0
 14 15  1  1
 16 15  1  0
 16 17  2  0
 18 17  1  0
 19 18  2  0
 20 21  2  0
 20 19  1  0
 21 16  1  0
 22 14  1  0
 23 22  2  0
 25 24  1  1
 25 27  1  0
 25 26  1  0
 26 22  1  0
 27 29  1  0
 28 27  2  0
M  END
$$$$
