YFA.pdb
     RDKit          3D

 29 30  0  0  1  0  0  0  0  0999 V2000
   20.1776  -19.5175  -15.3773 O   0  0  0  0  0  0  0  0  0  0  0  0
   21.0257  -19.9420  -14.3430 C   0  0  0  0  0  0  0  0  0  0  0  0
   21.4874  -19.0280  -13.4470 C   0  0  0  0  0  0  0  0  0  0  0  0
   22.3187  -19.4361  -12.4309 C   0  0  0  0  0  0  0  0  0  0  0  0
   22.6940  -20.7742  -12.3077 C   0  0  0  0  0  0  0  0  0  0  0  0
   23.5834  -21.1361  -11.1985 C   0  0  0  0  0  0  0  0  0  0  0  0
   24.9750  -20.5850  -11.4542 C   0  0  2  0  0  0  0  0  0  0  0  0
   25.6249  -21.2839  -12.5470 N   0  0  0  0  0  0  0  0  0  0  0  0
   25.7641  -20.8626  -10.2121 C   0  0  0  0  0  0  0  0  0  0  0  0
   25.9660  -22.0370   -9.8078 O   0  0  0  0  0  0  0  0  0  0  0  0
   22.2238  -21.6861  -13.2146 C   0  0  0  0  0  0  0  0  0  0  0  0
   21.3887  -21.2654  -14.2322 C   0  0  0  0  0  0  0  0  0  0  0  0
   26.3143  -19.8009   -9.4446 N   0  0  0  0  0  0  0  0  0  0  0  0
   27.0213  -20.0850   -8.2360 C   0  0  1  0  0  0  0  0  0  0  0  0
   27.9666  -18.9693   -7.8368 C   0  0  0  0  0  0  0  0  0  0  0  0
   28.6583  -19.2419   -6.5739 C   0  0  0  0  0  0  0  0  0  0  0  0
   29.5747  -20.2609   -6.4090 C   0  0  0  0  0  0  0  0  0  0  0  0
   30.2088  -20.4930   -5.2099 C   0  0  0  0  0  0  0  0  0  0  0  0
   29.9364  -19.6902   -4.1120 C   0  0  0  0  0  0  0  0  0  0  0  0
   29.0255  -18.6675   -4.2534 C   0  0  0  0  0  0  0  0  0  0  0  0
   28.3994  -18.4527   -5.4703 C   0  0  0  0  0  0  0  0  0  0  0  0
   26.0961  -20.4258   -7.1155 C   0  0  0  0  0  0  0  0  0  0  0  0
   25.0425  -19.7568   -6.9642 O   0  0  0  0  0  0  0  0  0  0  0  0
   25.2665  -23.2616   -5.0722 C   0  0  0  0  0  0  0  0  0  0  0  0
   25.6339  -21.7746   -5.0406 C   0  0  2  0  0  0  0  0  0  0  0  0
   26.3943  -21.4920   -6.2256 N   0  0  0  0  0  0  0  0  0  0  0  0
   26.4207  -21.5730   -3.7981 C   0  0  0  0  0  0  0  0  0  0  0  0
   27.6554  -21.7754   -3.6966 O   0  0  0  0  0  0  0  0  0  0  0  0
   25.7440  -21.1301   -2.6710 O   0  0  0  0  0  0  0  0  0  0  0  0
  2  1  1  0
  3  2  2  0
  4  3  1  0
  5 11  1  0
  5  4  2  0
  6  5  1  0
  7  6  1  0
  7  8  1  6
  9  7  1  0
  9 10  2  0
 11 12  2  0
 12  2  1  0
 13  9  1  0
 14 13  1  0
 14 15  1  1
 16 15  1  0
 16 17  2  0
 18 17  1  0
 19 18  2  0
 20 21  2  0
 20 19  1  0
 21 16  1  0
 22 14  1  0
 23 22  2  0
 25 24  1  6
 25 27  1  0
 25 26  1  0
 26 22  1  0
 27 29  1  0
 28 27  2  0
M  END
$$$$
