YFA.pdb
     RDKit          3D

 29 30  0  0  1  0  0  0  0  0999 V2000
   12.3266  -22.1754    1.0098 O   0  0  0  0  0  0  0  0  0  0  0  0
   13.3151  -21.5982    1.8215 C   0  0  0  0  0  0  0  0  0  0  0  0
   12.9560  -20.6557    2.7347 C   0  0  0  0  0  0  0  0  0  0  0  0
   13.9186  -20.0856    3.5337 C   0  0  0  0  0  0  0  0  0  0  0  0
   15.2574  -20.4612    3.4194 C   0  0  0  0  0  0  0  0  0  0  0  0
   16.2289  -19.8102    4.3052 C   0  0  0  0  0  0  0  0  0  0  0  0
   16.6045  -18.4497    3.7453 C   0  0  2  0  0  0  0  0  0  0  0  0
   17.3157  -18.5768    2.4871 N   0  0  0  0  0  0  0  0  0  0  0  0
   17.5496  -17.8419    4.7352 C   0  0  0  0  0  0  0  0  0  0  0  0
   18.7963  -17.9690    4.6205 O   0  0  0  0  0  0  0  0  0  0  0  0
   15.6084  -21.4107    2.4971 C   0  0  0  0  0  0  0  0  0  0  0  0
   14.6329  -21.9775    1.6990 C   0  0  0  0  0  0  0  0  0  0  0  0
   17.0654  -17.0967    5.8439 N   0  0  0  0  0  0  0  0  0  0  0  0
   17.9808  -16.3963    6.6883 C   0  0  1  0  0  0  0  0  0  0  0  0
   17.5859  -14.9486    6.9030 C   0  0  0  0  0  0  0  0  0  0  0  0
   17.9036  -14.1013    5.7504 C   0  0  0  0  0  0  0  0  0  0  0  0
   17.2155  -14.1483    4.5546 C   0  0  0  0  0  0  0  0  0  0  0  0
   17.5371  -13.3395    3.4886 C   0  0  0  0  0  0  0  0  0  0  0  0
   18.5848  -12.4362    3.5918 C   0  0  0  0  0  0  0  0  0  0  0  0
   19.2852  -12.3720    4.7755 C   0  0  0  0  0  0  0  0  0  0  0  0
   18.9435  -13.1962    5.8352 C   0  0  0  0  0  0  0  0  0  0  0  0
   18.1810  -17.0931    7.9929 C   0  0  0  0  0  0  0  0  0  0  0  0
   17.1779  -17.5051    8.6292 O   0  0  0  0  0  0  0  0  0  0  0  0
   21.2063  -18.3520    9.8024 C   0  0  0  0  0  0  0  0  0  0  0  0
   19.7452  -17.8912    9.7968 C   0  0  2  0  0  0  0  0  0  0  0  0
   19.4857  -17.2928    8.5174 N   0  0  0  0  0  0  0  0  0  0  0  0
   19.6164  -16.9230   10.9146 C   0  0  0  0  0  0  0  0  0  0  0  0
   19.7956  -15.6852   10.8083 O   0  0  0  0  0  0  0  0  0  0  0  0
   19.2742  -17.4213   12.1631 O   0  0  0  0  0  0  0  0  0  0  0  0
  2  1  1  0
  3  2  2  0
  4  3  1  0
  5 11  1  0
  5  4  2  0
  6  5  1  0
  7  6  1  0
  7  8  1  6
  9  7  1  0
  9 10  2  0
 11 12  2  0
 12  2  1  0
 13  9  1  0
 14 13  1  0
 14 15  1  1
 16 15  1  0
 16 17  2  0
 18 17  1  0
 19 18  2  0
 20 21  2  0
 20 19  1  0
 21 16  1  0
 22 14  1  0
 23 22  2  0
 25 24  1  6
 25 27  1  0
 25 26  1  0
 26 22  1  0
 27 29  1  0
 28 27  2  0
M  END
$$$$
