YFA.pdb
     RDKit          3D

 29 30  0  0  1  0  0  0  0  0999 V2000
   21.6882  -18.7586  -17.2389 O   0  0  0  0  0  0  0  0  0  0  0  0
   22.2050  -19.2755  -16.0410 C   0  0  0  0  0  0  0  0  0  0  0  0
   22.6463  -18.4154  -15.0836 C   0  0  0  0  0  0  0  0  0  0  0  0
   23.1539  -18.9141  -13.9073 C   0  0  0  0  0  0  0  0  0  0  0  0
   23.2218  -20.2896  -13.6839 C   0  0  0  0  0  0  0  0  0  0  0  0
   23.7753  -20.7488  -12.4052 C   0  0  0  0  0  0  0  0  0  0  0  0
   25.2905  -20.6556  -12.4374 C   0  0  2  0  0  0  0  0  0  0  0  0
   25.8611  -21.6643  -13.3103 N   0  0  0  0  0  0  0  0  0  0  0  0
   25.7527  -20.9543  -11.0447 C   0  0  0  0  0  0  0  0  0  0  0  0
   25.6688  -22.1108  -10.5560 O   0  0  0  0  0  0  0  0  0  0  0  0
   22.7749  -21.1468  -14.6538 C   0  0  0  0  0  0  0  0  0  0  0  0
   22.2665  -20.6350  -15.8326 C   0  0  0  0  0  0  0  0  0  0  0  0
   26.3049  -19.9339  -10.2244 N   0  0  0  0  0  0  0  0  0  0  0  0
   26.6275  -20.2105   -8.8603 C   0  0  1  0  0  0  0  0  0  0  0  0
   27.5582  -19.1759   -8.2594 C   0  0  0  0  0  0  0  0  0  0  0  0
   27.9693  -19.5135   -6.8939 C   0  0  0  0  0  0  0  0  0  0  0  0
   28.8814  -20.5050   -6.5935 C   0  0  0  0  0  0  0  0  0  0  0  0
   29.2481  -20.7998   -5.3003 C   0  0  0  0  0  0  0  0  0  0  0  0
   28.6976  -20.0915   -4.2423 C   0  0  0  0  0  0  0  0  0  0  0  0
   27.7854  -19.0977   -4.5184 C   0  0  0  0  0  0  0  0  0  0  0  0
   27.4313  -18.8186   -5.8283 C   0  0  0  0  0  0  0  0  0  0  0  0
   25.4048  -20.3785   -8.0210 C   0  0  0  0  0  0  0  0  0  0  0  0
   24.5009  -19.5061   -8.0713 O   0  0  0  0  0  0  0  0  0  0  0  0
   24.0831  -23.2126   -5.9673 C   0  0  0  0  0  0  0  0  0  0  0  0
   24.1111  -21.7250   -6.3325 C   0  0  2  0  0  0  0  0  0  0  0  0
   25.2554  -21.5076   -7.1724 N   0  0  0  0  0  0  0  0  0  0  0  0
   24.2008  -20.9888   -5.0467 C   0  0  0  0  0  0  0  0  0  0  0  0
   23.2148  -20.5367   -4.4149 O   0  0  0  0  0  0  0  0  0  0  0  0
   25.4622  -20.7865   -4.5061 O   0  0  0  0  0  0  0  0  0  0  0  0
  2  1  1  0
  3  2  2  0
  4  3  1  0
  5 11  1  0
  5  4  2  0
  6  5  1  0
  7  6  1  0
  7  8  1  6
  9  7  1  0
  9 10  2  0
 11 12  2  0
 12  2  1  0
 13  9  1  0
 14 13  1  0
 14 15  1  1
 16 15  1  0
 16 17  2  0
 18 17  1  0
 19 18  2  0
 20 21  2  0
 20 19  1  0
 21 16  1  0
 22 14  1  0
 23 22  2  0
 25 24  1  1
 25 27  1  0
 25 26  1  0
 26 22  1  0
 27 29  1  0
 28 27  2  0
M  END
$$$$
