YFA.pdb
     RDKit          3D

 29 30  0  0  1  0  0  0  0  0999 V2000
   23.6139  -19.9335  -19.0732 O   0  0  0  0  0  0  0  0  0  0  0  0
   24.4641  -19.7039  -17.9806 C   0  0  0  0  0  0  0  0  0  0  0  0
   25.6816  -19.1360  -18.1958 C   0  0  0  0  0  0  0  0  0  0  0  0
   26.5201  -18.9078  -17.1306 C   0  0  0  0  0  0  0  0  0  0  0  0
   26.1382  -19.2512  -15.8333 C   0  0  0  0  0  0  0  0  0  0  0  0
   27.0847  -18.9781  -14.7462 C   0  0  0  0  0  0  0  0  0  0  0  0
   27.6292  -20.2850  -14.1976 C   0  0  2  0  0  0  0  0  0  0  0  0
   27.8920  -21.2339  -15.2633 N   0  0  0  0  0  0  0  0  0  0  0  0
   26.5417  -20.8598  -13.3436 C   0  0  0  0  0  0  0  0  0  0  0  0
   25.9558  -21.9295  -13.6534 O   0  0  0  0  0  0  0  0  0  0  0  0
   24.9107  -19.8223  -15.6275 C   0  0  0  0  0  0  0  0  0  0  0  0
   24.0755  -20.0473  -16.7053 C   0  0  0  0  0  0  0  0  0  0  0  0
   26.1335  -20.2111  -12.1472 N   0  0  0  0  0  0  0  0  0  0  0  0
   25.1055  -20.7855  -11.3381 C   0  0  1  0  0  0  0  0  0  0  0  0
   25.1597  -20.3087   -9.9002 C   0  0  0  0  0  0  0  0  0  0  0  0
   26.4806  -20.4963   -9.2940 C   0  0  0  0  0  0  0  0  0  0  0  0
   27.4451  -21.3388   -9.8090 C   0  0  0  0  0  0  0  0  0  0  0  0
   28.6777  -21.4948   -9.2171 C   0  0  0  0  0  0  0  0  0  0  0  0
   28.9884  -20.7929   -8.0616 C   0  0  0  0  0  0  0  0  0  0  0  0
   28.0413  -19.9466   -7.5300 C   0  0  0  0  0  0  0  0  0  0  0  0
   26.8072  -19.8057   -8.1432 C   0  0  0  0  0  0  0  0  0  0  0  0
   23.7492  -20.5666  -11.9212 C   0  0  0  0  0  0  0  0  0  0  0  0
   23.3231  -19.3920  -12.0610 O   0  0  0  0  0  0  0  0  0  0  0  0
   21.3122  -22.8206  -13.6376 C   0  0  0  0  0  0  0  0  0  0  0  0
   21.6290  -21.5265  -12.8812 C   0  0  2  0  0  0  0  0  0  0  0  0
   22.9419  -21.6664  -12.3165 N   0  0  0  0  0  0  0  0  0  0  0  0
   20.5754  -21.3890  -11.8447 C   0  0  0  0  0  0  0  0  0  0  0  0
   19.3696  -21.1357  -12.0846 O   0  0  0  0  0  0  0  0  0  0  0  0
   20.9498  -21.5518  -10.5190 O   0  0  0  0  0  0  0  0  0  0  0  0
  2  1  1  0
  3  2  2  0
  4  3  1  0
  5 11  1  0
  5  4  2  0
  6  5  1  0
  7  6  1  0
  7  8  1  6
  9  7  1  0
  9 10  2  0
 11 12  2  0
 12  2  1  0
 13  9  1  0
 14 13  1  0
 14 15  1  1
 16 15  1  0
 16 17  2  0
 18 17  1  0
 19 18  2  0
 20 21  2  0
 20 19  1  0
 21 16  1  0
 22 14  1  0
 23 22  2  0
 25 24  1  1
 25 27  1  0
 25 26  1  0
 26 22  1  0
 27 29  1  0
 28 27  2  0
M  END
$$$$
