YFA.pdb
     RDKit          3D

 29 30  0  0  1  0  0  0  0  0999 V2000
   21.1382  -36.5432  -13.0209 O   0  0  0  0  0  0  0  0  0  0  0  0
   21.1959  -35.1751  -12.7139 C   0  0  0  0  0  0  0  0  0  0  0  0
   22.4091  -34.5650  -12.6307 C   0  0  0  0  0  0  0  0  0  0  0  0
   22.4740  -33.2250  -12.3304 C   0  0  0  0  0  0  0  0  0  0  0  0
   21.3123  -32.4844  -12.1102 C   0  0  0  0  0  0  0  0  0  0  0  0
   21.4588  -31.0592  -11.7944 C   0  0  0  0  0  0  0  0  0  0  0  0
   21.2698  -30.2313  -13.0532 C   0  0  2  0  0  0  0  0  0  0  0  0
   22.4642  -30.2462  -13.8767 N   0  0  0  0  0  0  0  0  0  0  0  0
   21.0598  -28.8217  -12.5932 C   0  0  0  0  0  0  0  0  0  0  0  0
   22.0041  -28.1325  -12.1276 O   0  0  0  0  0  0  0  0  0  0  0  0
   20.0962  -33.1079  -12.1962 C   0  0  0  0  0  0  0  0  0  0  0  0
   20.0422  -34.4553  -12.4987 C   0  0  0  0  0  0  0  0  0  0  0  0
   19.7782  -28.2129  -12.6684 N   0  0  0  0  0  0  0  0  0  0  0  0
   19.6191  -26.8374  -12.3162 C   0  0  1  0  0  0  0  0  0  0  0  0
   19.2722  -25.9664  -13.5073 C   0  0  0  0  0  0  0  0  0  0  0  0
   20.3745  -25.8596  -14.4672 C   0  0  0  0  0  0  0  0  0  0  0  0
   21.3416  -24.8761  -14.4140 C   0  0  0  0  0  0  0  0  0  0  0  0
   22.3656  -24.8012  -15.3303 C   0  0  0  0  0  0  0  0  0  0  0  0
   22.4533  -25.7336  -16.3535 C   0  0  0  0  0  0  0  0  0  0  0  0
   21.4993  -26.7238  -16.4261 C   0  0  0  0  0  0  0  0  0  0  0  0
   20.4774  -26.7794  -15.4925 C   0  0  0  0  0  0  0  0  0  0  0  0
   18.6277  -26.6545  -11.2157 C   0  0  0  0  0  0  0  0  0  0  0  0
   17.4554  -27.0826  -11.3680 O   0  0  0  0  0  0  0  0  0  0  0  0
   18.8267  -24.8813   -7.8995 C   0  0  0  0  0  0  0  0  0  0  0  0
   18.0580  -25.6514   -8.9780 C   0  0  2  0  0  0  0  0  0  0  0  0
   18.9952  -26.0056  -10.0069 N   0  0  0  0  0  0  0  0  0  0  0  0
   17.0003  -24.7303   -9.4642 C   0  0  0  0  0  0  0  0  0  0  0  0
   15.8459  -24.6517   -8.9775 O   0  0  0  0  0  0  0  0  0  0  0  0
   17.3096  -23.8987  -10.5306 O   0  0  0  0  0  0  0  0  0  0  0  0
  2  1  1  0
  3  2  2  0
  4  3  1  0
  5 11  1  0
  5  4  2  0
  6  5  1  0
  7  6  1  0
  7  8  1  6
  9  7  1  0
  9 10  2  0
 11 12  2  0
 12  2  1  0
 13  9  1  0
 14 13  1  0
 14 15  1  6
 16 15  1  0
 16 17  2  0
 18 17  1  0
 19 18  2  0
 20 21  2  0
 20 19  1  0
 21 16  1  0
 22 14  1  0
 23 22  2  0
 25 24  1  1
 25 27  1  0
 25 26  1  0
 26 22  1  0
 27 29  1  0
 28 27  2  0
M  END
$$$$
