YFA.pdb
     RDKit          3D

 29 30  0  0  1  0  0  0  0  0999 V2000
   34.3542   -0.9793  -13.0002 O   0  0  0  0  0  0  0  0  0  0  0  0
   35.3852   -1.7930  -12.5061 C   0  0  0  0  0  0  0  0  0  0  0  0
   36.5884   -1.7974  -13.1413 C   0  0  0  0  0  0  0  0  0  0  0  0
   37.6034   -2.5919  -12.6633 C   0  0  0  0  0  0  0  0  0  0  0  0
   37.4148   -3.3926  -11.5364 C   0  0  0  0  0  0  0  0  0  0  0  0
   38.5429   -4.2141  -11.0839 C   0  0  0  0  0  0  0  0  0  0  0  0
   38.7614   -4.0124   -9.5948 C   0  0  2  0  0  0  0  0  0  0  0  0
   39.2920   -2.6913   -9.3153 N   0  0  0  0  0  0  0  0  0  0  0  0
   39.8038   -5.0089   -9.1913 C   0  0  0  0  0  0  0  0  0  0  0  0
   41.0196   -4.6948   -9.1099 O   0  0  0  0  0  0  0  0  0  0  0  0
   36.2000   -3.3809  -10.9045 C   0  0  0  0  0  0  0  0  0  0  0  0
   35.1864   -2.5786  -11.3932 C   0  0  0  0  0  0  0  0  0  0  0  0
   39.4509   -6.3507   -8.8851 N   0  0  0  0  0  0  0  0  0  0  0  0
   40.4489   -7.2652   -8.4279 C   0  0  1  0  0  0  0  0  0  0  0  0
   40.1668   -7.7877   -7.0332 C   0  0  0  0  0  0  0  0  0  0  0  0
   38.8818   -8.4863   -6.9427 C   0  0  0  0  0  0  0  0  0  0  0  0
   38.7553   -9.8077   -6.5639 C   0  0  0  0  0  0  0  0  0  0  0  0
   37.5341  -10.4375   -6.4881 C   0  0  0  0  0  0  0  0  0  0  0  0
   36.3732   -9.7441   -6.7976 C   0  0  0  0  0  0  0  0  0  0  0  0
   36.4754   -8.4248   -7.1781 C   0  0  0  0  0  0  0  0  0  0  0  0
   37.7157   -7.8115   -7.2472 C   0  0  0  0  0  0  0  0  0  0  0  0
   40.6556   -8.3903   -9.3866 C   0  0  0  0  0  0  0  0  0  0  0  0
   39.6620   -8.8820   -9.9797 O   0  0  0  0  0  0  0  0  0  0  0  0
   43.7203  -10.3293  -10.4038 C   0  0  0  0  0  0  0  0  0  0  0  0
   42.2122  -10.0627  -10.4441 C   0  0  2  0  0  0  0  0  0  0  0  0
   41.9560   -8.9060   -9.6324 N   0  0  0  0  0  0  0  0  0  0  0  0
   41.5649  -11.2872   -9.9104 C   0  0  0  0  0  0  0  0  0  0  0  0
   41.3100  -11.4867   -8.6975 O   0  0  0  0  0  0  0  0  0  0  0  0
   41.2178  -12.2798  -10.8151 O   0  0  0  0  0  0  0  0  0  0  0  0
  2  1  1  0
  3  2  2  0
  4  3  1  0
  5 11  1  0
  5  4  2  0
  6  5  1  0
  7  6  1  0
  7  8  1  6
  9  7  1  0
  9 10  2  0
 11 12  2  0
 12  2  1  0
 13  9  1  0
 14 13  1  0
 14 15  1  1
 16 15  1  0
 16 17  2  0
 18 17  1  0
 19 18  2  0
 20 21  2  0
 20 19  1  0
 21 16  1  0
 22 14  1  0
 23 22  2  0
 25 24  1  1
 25 27  1  0
 25 26  1  0
 26 22  1  0
 27 29  1  0
 28 27  2  0
M  END
$$$$
