ALR.pdb
     RDKit          3D

 25 24  0  0  1  0  0  0  0  0999 V2000
    7.9561  -12.8857   20.1879 C   0  0  0  0  0  0  0  0  0  0  0  0
    7.8086  -14.2479   20.7968 C   0  0  2  0  0  0  0  0  0  0  0  0
    6.4327  -14.6907   20.8728 N   0  0  0  0  0  0  0  0  0  0  0  0
    8.3599  -14.2690   22.1810 C   0  0  0  0  0  0  0  0  0  0  0  0
    9.6203  -14.2287   22.3313 O   0  0  0  0  0  0  0  0  0  0  0  0
    5.7825  -11.8240   26.5287 C   0  0  0  0  0  0  0  0  0  0  0  0
    6.7621  -12.3608   25.5577 C   0  0  1  0  0  0  0  0  0  0  0  0
    8.0237  -11.4879   25.6973 C   0  0  0  0  0  0  0  0  0  0  0  0
    7.2061  -13.7569   25.7069 C   0  0  0  0  0  0  0  0  0  0  0  0
    8.0801  -14.3574   24.6844 C   0  0  2  0  0  0  0  0  0  0  0  0
    7.5524  -14.3319   23.3460 N   0  0  0  0  0  0  0  0  0  0  0  0
    8.5628  -15.6854   25.0881 C   0  0  0  0  0  0  0  0  0  0  0  0
    7.9055  -16.3055   25.9736 O   0  0  0  0  0  0  0  0  0  0  0  0
   12.8399  -17.6581   19.4925 N   0  0  0  0  0  0  0  0  0  0  0  0
   11.5459  -18.1900   19.2778 C   0  0  0  0  0  0  0  0  0  0  0  0
   10.8390  -17.9130   18.2479 N   0  0  0  0  0  0  0  0  0  0  0  0
   10.9995  -19.0941   20.2745 N   0  0  0  0  0  0  0  0  0  0  0  0
   11.4727  -18.9507   21.6098 C   0  0  0  0  0  0  0  0  0  0  0  0
   10.5707  -18.4594   22.6556 C   0  0  0  0  0  0  0  0  0  0  0  0
   11.0613  -18.2845   24.0432 C   0  0  0  0  0  0  0  0  0  0  0  0
   10.1133  -17.6978   24.9935 C   0  0  2  0  0  0  0  0  0  0  0  0
    9.6991  -16.3301   24.5756 N   0  0  0  0  0  0  0  0  0  0  0  0
   10.7268  -17.5109   26.3171 C   0  0  0  0  0  0  0  0  0  0  0  0
   10.9368  -16.3162   26.7572 O   0  0  0  0  0  0  0  0  0  0  0  0
   11.1189  -18.4999   27.1732 O   0  0  0  0  0  0  0  0  0  0  0  0
  2  1  1  1
  2  4  1  0
  2  3  1  0
  4  5  2  0
  7  6  1  1
  7  8  1  0
  9  7  1  0
 10  9  1  1
 10 12  1  0
 11 10  1  0
 11  4  1  0
 12 13  2  0
 14 15  1  0
 15 16  2  0
 17 18  1  0
 17 15  1  0
 19 20  1  0
 19 18  1  0
 21 20  1  6
 21 23  1  0
 22 21  1  0
 22 12  1  0
 23 24  2  0
 23 25  1  0
M  END
$$$$
