ALR.pdb
     RDKit          3D

 25 24  0  0  1  0  0  0  0  0999 V2000
    8.4609  -14.7890   19.6416 C   0  0  0  0  0  0  0  0  0  0  0  0
    7.9663  -15.7143   20.7127 C   0  0  2  0  0  0  0  0  0  0  0  0
    6.5334  -15.9157   20.6730 N   0  0  0  0  0  0  0  0  0  0  0  0
    8.3037  -15.1845   22.0640 C   0  0  0  0  0  0  0  0  0  0  0  0
    9.5244  -15.1480   22.4123 O   0  0  0  0  0  0  0  0  0  0  0  0
    8.0341  -11.8814   26.5504 C   0  0  0  0  0  0  0  0  0  0  0  0
    6.9261  -12.8235   26.2759 C   0  0  1  0  0  0  0  0  0  0  0  0
    5.6319  -12.0870   26.6706 C   0  0  0  0  0  0  0  0  0  0  0  0
    6.7299  -13.2936   24.8943 C   0  0  0  0  0  0  0  0  0  0  0  0
    7.6423  -14.3037   24.3311 C   0  0  2  0  0  0  0  0  0  0  0  0
    7.3336  -14.7165   22.9876 N   0  0  0  0  0  0  0  0  0  0  0  0
    7.8424  -15.4334   25.2493 C   0  0  0  0  0  0  0  0  0  0  0  0
    6.8126  -16.0079   25.7075 O   0  0  0  0  0  0  0  0  0  0  0  0
    5.9040  -22.2682   26.7095 N   0  0  0  0  0  0  0  0  0  0  0  0
    6.8939  -22.0245   27.6915 C   0  0  0  0  0  0  0  0  0  0  0  0
    6.8374  -22.5076   28.8750 N   0  0  0  0  0  0  0  0  0  0  0  0
    8.0264  -21.1884   27.3342 N   0  0  0  0  0  0  0  0  0  0  0  0
    7.9947  -20.5650   26.0544 C   0  0  0  0  0  0  0  0  0  0  0  0
    9.1216  -19.7353   25.6180 C   0  0  0  0  0  0  0  0  0  0  0  0
    8.9000  -18.3254   25.2182 C   0  0  0  0  0  0  0  0  0  0  0  0
    9.2660  -17.3091   26.2076 C   0  0  2  0  0  0  0  0  0  0  0  0
    9.0852  -15.9333   25.6678 N   0  0  0  0  0  0  0  0  0  0  0  0
   10.6934  -17.3867   26.5537 C   0  0  0  0  0  0  0  0  0  0  0  0
   11.5033  -16.4819   26.1172 O   0  0  0  0  0  0  0  0  0  0  0  0
   11.2887  -18.3496   27.3174 O   0  0  0  0  0  0  0  0  0  0  0  0
  2  1  1  6
  2  4  1  0
  2  3  1  0
  4  5  2  0
  7  6  1  6
  7  8  1  0
  9  7  1  0
 10  9  1  1
 10 12  1  0
 11 10  1  0
 11  4  1  0
 12 13  2  0
 14 15  1  0
 15 16  2  0
 17 18  1  0
 17 15  1  0
 19 20  1  0
 19 18  1  0
 21 20  1  6
 21 23  1  0
 22 21  1  0
 22 12  1  0
 23 24  2  0
 23 25  1  0
M  END
$$$$
