ALR.pdb
     RDKit          3D

 25 24  0  0  1  0  0  0  0  0999 V2000
    8.1590  -17.8216   20.3729 C   0  0  0  0  0  0  0  0  0  0  0  0
    7.2937  -16.6016   20.4772 C   0  0  2  0  0  0  0  0  0  0  0  0
    7.1685  -15.8845   19.2261 N   0  0  0  0  0  0  0  0  0  0  0  0
    7.8441  -15.6493   21.4826 C   0  0  0  0  0  0  0  0  0  0  0  0
    9.0545  -15.2819   21.3690 O   0  0  0  0  0  0  0  0  0  0  0  0
    7.3745  -11.3558   25.1343 C   0  0  0  0  0  0  0  0  0  0  0  0
    7.0509  -12.7412   25.5423 C   0  0  1  0  0  0  0  0  0  0  0  0
    5.8773  -12.6311   26.5341 C   0  0  0  0  0  0  0  0  0  0  0  0
    6.6284  -13.6981   24.5058 C   0  0  0  0  0  0  0  0  0  0  0  0
    7.6126  -14.1994   23.5312 C   0  0  2  0  0  0  0  0  0  0  0  0
    7.0889  -15.1276   22.5645 N   0  0  0  0  0  0  0  0  0  0  0  0
    8.8367  -14.6801   24.1871 C   0  0  0  0  0  0  0  0  0  0  0  0
    9.5892  -13.8201   24.7299 O   0  0  0  0  0  0  0  0  0  0  0  0
   11.9610  -16.7647   30.5326 N   0  0  0  0  0  0  0  0  0  0  0  0
   11.1181  -15.6520   30.7667 C   0  0  0  0  0  0  0  0  0  0  0  0
   11.2474  -14.8783   31.7777 N   0  0  0  0  0  0  0  0  0  0  0  0
   10.0596  -15.3774   29.8110 N   0  0  0  0  0  0  0  0  0  0  0  0
    9.8802  -16.3147   28.7542 C   0  0  0  0  0  0  0  0  0  0  0  0
   10.4560  -16.0453   27.4334 C   0  0  0  0  0  0  0  0  0  0  0  0
   10.1955  -16.9678   26.3029 C   0  0  0  0  0  0  0  0  0  0  0  0
   10.4894  -16.4481   24.9653 C   0  0  2  0  0  0  0  0  0  0  0  0
    9.2488  -16.0195   24.2626 N   0  0  0  0  0  0  0  0  0  0  0  0
   11.0647  -17.4889   24.0998 C   0  0  0  0  0  0  0  0  0  0  0  0
   12.2921  -17.8494   24.2692 O   0  0  0  0  0  0  0  0  0  0  0  0
   10.4219  -18.1477   23.0911 O   0  0  0  0  0  0  0  0  0  0  0  0
  2  1  1  6
  2  4  1  0
  2  3  1  0
  4  5  2  0
  7  6  1  6
  7  8  1  0
  9  7  1  0
 10  9  1  1
 10 12  1  0
 11 10  1  0
 11  4  1  0
 12 13  2  0
 14 15  1  0
 15 16  2  0
 17 18  1  0
 17 15  1  0
 19 20  1  0
 19 18  1  0
 21 20  1  1
 21 23  1  0
 22 21  1  0
 22 12  1  0
 23 24  2  0
 23 25  1  0
M  END
$$$$
