ALR.pdb
     RDKit          3D

 25 24  0  0  1  0  0  0  0  0999 V2000
    8.5820  -19.7292   21.0003 C   0  0  0  0  0  0  0  0  0  0  0  0
    8.5490  -18.5432   20.0836 C   0  0  2  0  0  0  0  0  0  0  0  0
    9.4903  -18.6444   18.9887 N   0  0  0  0  0  0  0  0  0  0  0  0
    8.8661  -17.2923   20.8287 C   0  0  0  0  0  0  0  0  0  0  0  0
    9.9969  -17.1977   21.3991 O   0  0  0  0  0  0  0  0  0  0  0  0
    6.9099  -12.3391   19.2514 C   0  0  0  0  0  0  0  0  0  0  0  0
    7.7043  -13.4742   19.7721 C   0  0  1  0  0  0  0  0  0  0  0  0
    9.1775  -13.1364   19.4745 C   0  0  0  0  0  0  0  0  0  0  0  0
    7.6323  -13.7805   21.2107 C   0  0  0  0  0  0  0  0  0  0  0  0
    8.2394  -15.0208   21.7235 C   0  0  2  0  0  0  0  0  0  0  0  0
    7.9721  -16.1959   20.9373 N   0  0  0  0  0  0  0  0  0  0  0  0
    7.9686  -15.2117   23.1552 C   0  0  0  0  0  0  0  0  0  0  0  0
    6.7875  -15.0111   23.5618 O   0  0  0  0  0  0  0  0  0  0  0  0
    5.4143  -20.4113   23.5957 N   0  0  0  0  0  0  0  0  0  0  0  0
    6.5932  -21.1374   23.8898 C   0  0  0  0  0  0  0  0  0  0  0  0
    6.9532  -22.1782   23.2384 N   0  0  0  0  0  0  0  0  0  0  0  0
    7.4321  -20.6746   24.9813 N   0  0  0  0  0  0  0  0  0  0  0  0
    7.1234  -19.4032   25.5430 C   0  0  0  0  0  0  0  0  0  0  0  0
    7.8511  -18.2115   25.0968 C   0  0  0  0  0  0  0  0  0  0  0  0
    7.5214  -16.8807   25.6600 C   0  0  0  0  0  0  0  0  0  0  0  0
    8.5605  -15.8550   25.5424 C   0  0  2  0  0  0  0  0  0  0  0  0
    8.9130  -15.5974   24.1190 N   0  0  0  0  0  0  0  0  0  0  0  0
    9.8200  -16.2936   26.1625 C   0  0  0  0  0  0  0  0  0  0  0  0
   10.8256  -16.5967   25.4129 O   0  0  0  0  0  0  0  0  0  0  0  0
   10.0596  -16.4242   27.5006 O   0  0  0  0  0  0  0  0  0  0  0  0
  2  1  1  1
  2  4  1  0
  2  3  1  0
  4  5  2  0
  7  6  1  1
  7  8  1  0
  9  7  1  0
 10  9  1  6
 10 12  1  0
 11 10  1  0
 11  4  1  0
 12 13  2  0
 14 15  1  0
 15 16  2  0
 17 18  1  0
 17 15  1  0
 19 20  1  0
 19 18  1  0
 21 20  1  6
 21 23  1  0
 22 21  1  0
 22 12  1  0
 23 24  2  0
 23 25  1  0
M  END
$$$$
