ALR.pdb
     RDKit          3D

 25 24  0  0  1  0  0  0  0  0999 V2000
    7.6913  -17.7729   21.4996 C   0  0  0  0  0  0  0  0  0  0  0  0
    8.0150  -16.3555   21.1332 C   0  0  2  0  0  0  0  0  0  0  0  0
    9.0553  -16.2504   20.1322 N   0  0  0  0  0  0  0  0  0  0  0  0
    8.4702  -15.5926   22.3295 C   0  0  0  0  0  0  0  0  0  0  0  0
    9.7176  -15.4960   22.5473 O   0  0  0  0  0  0  0  0  0  0  0  0
    6.5112  -11.1963   26.3334 C   0  0  0  0  0  0  0  0  0  0  0  0
    7.4609  -12.2570   25.9291 C   0  0  1  0  0  0  0  0  0  0  0  0
    7.6102  -13.1844   27.1501 C   0  0  0  0  0  0  0  0  0  0  0  0
    7.1045  -13.1230   24.7927 C   0  0  0  0  0  0  0  0  0  0  0  0
    8.0198  -14.2021   24.3830 C   0  0  2  0  0  0  0  0  0  0  0  0
    7.5845  -14.9652   23.2433 N   0  0  0  0  0  0  0  0  0  0  0  0
    8.4194  -15.0424   25.5204 C   0  0  0  0  0  0  0  0  0  0  0  0
    7.5396  -15.7915   26.0354 O   0  0  0  0  0  0  0  0  0  0  0  0
   15.4711  -15.4569   23.9098 N   0  0  0  0  0  0  0  0  0  0  0  0
   14.8232  -16.3569   23.0302 C   0  0  0  0  0  0  0  0  0  0  0  0
   15.1378  -16.4750   21.7956 N   0  0  0  0  0  0  0  0  0  0  0  0
   13.7533  -17.1850   23.5582 N   0  0  0  0  0  0  0  0  0  0  0  0
   13.3888  -16.9840   24.9199 C   0  0  0  0  0  0  0  0  0  0  0  0
   11.9805  -16.7915   25.2782 C   0  0  0  0  0  0  0  0  0  0  0  0
   11.5998  -16.5010   26.6809 C   0  0  0  0  0  0  0  0  0  0  0  0
   10.1814  -16.2249   26.9205 C   0  0  2  0  0  0  0  0  0  0  0  0
    9.7007  -15.0854   26.0914 N   0  0  0  0  0  0  0  0  0  0  0  0
    9.9446  -15.7992   28.3083 C   0  0  0  0  0  0  0  0  0  0  0  0
    9.6542  -14.5661   28.5540 O   0  0  0  0  0  0  0  0  0  0  0  0
    9.9997  -16.5933   29.4179 O   0  0  0  0  0  0  0  0  0  0  0  0
  2  1  1  1
  2  4  1  0
  2  3  1  0
  4  5  2  0
  7  6  1  1
  7  8  1  0
  9  7  1  0
 10  9  1  1
 10 12  1  0
 11 10  1  0
 11  4  1  0
 12 13  2  0
 14 15  1  0
 15 16  2  0
 17 18  1  0
 17 15  1  0
 19 20  1  0
 19 18  1  0
 21 20  1  1
 21 23  1  0
 22 21  1  0
 22 12  1  0
 23 24  2  0
 23 25  1  0
M  END
$$$$
