ALR.pdb
     RDKit          3D

 25 24  0  0  1  0  0  0  0  0999 V2000
    6.7849  -15.8662   20.4274 C   0  0  0  0  0  0  0  0  0  0  0  0
    7.1088  -14.4807   20.9001 C   0  0  2  0  0  0  0  0  0  0  0  0
    7.9480  -13.7466   19.9770 N   0  0  0  0  0  0  0  0  0  0  0  0
    7.8190  -14.5230   22.2094 C   0  0  0  0  0  0  0  0  0  0  0  0
    9.0551  -14.8141   22.2185 O   0  0  0  0  0  0  0  0  0  0  0  0
    5.9960  -11.3413   26.4960 C   0  0  0  0  0  0  0  0  0  0  0  0
    6.7839  -12.0622   25.4712 C   0  0  1  0  0  0  0  0  0  0  0  0
    8.0612  -11.2296   25.2510 C   0  0  0  0  0  0  0  0  0  0  0  0
    7.2299  -13.4345   25.7651 C   0  0  0  0  0  0  0  0  0  0  0  0
    7.8842  -14.2300   24.7120 C   0  0  2  0  0  0  0  0  0  0  0  0
    7.1891  -14.2553   23.4523 N   0  0  0  0  0  0  0  0  0  0  0  0
    8.2593  -15.5680   25.1899 C   0  0  0  0  0  0  0  0  0  0  0  0
    7.3364  -16.4217   25.3317 O   0  0  0  0  0  0  0  0  0  0  0  0
   11.4815  -19.9726   21.8517 N   0  0  0  0  0  0  0  0  0  0  0  0
   12.2719  -18.9866   21.2142 C   0  0  0  0  0  0  0  0  0  0  0  0
   12.3844  -18.8961   19.9429 N   0  0  0  0  0  0  0  0  0  0  0  0
   12.9853  -18.0331   22.0457 N   0  0  0  0  0  0  0  0  0  0  0  0
   12.7677  -18.1072   23.4509 C   0  0  0  0  0  0  0  0  0  0  0  0
   11.4353  -17.8369   23.9989 C   0  0  0  0  0  0  0  0  0  0  0  0
   11.2316  -17.7641   25.4652 C   0  0  0  0  0  0  0  0  0  0  0  0
    9.8906  -17.3792   25.9119 C   0  0  2  0  0  0  0  0  0  0  0  0
    9.5612  -15.9846   25.5078 N   0  0  0  0  0  0  0  0  0  0  0  0
    9.7956  -17.3719   27.3797 C   0  0  0  0  0  0  0  0  0  0  0  0
    9.7059  -16.2467   28.0050 O   0  0  0  0  0  0  0  0  0  0  0  0
    9.7921  -18.4674   28.1949 O   0  0  0  0  0  0  0  0  0  0  0  0
  2  1  1  6
  2  4  1  0
  2  3  1  0
  4  5  2  0
  7  6  1  1
  7  8  1  0
  9  7  1  0
 10  9  1  1
 10 12  1  0
 11 10  1  0
 11  4  1  0
 12 13  2  0
 14 15  1  0
 15 16  2  0
 17 18  1  0
 17 15  1  0
 19 20  1  0
 19 18  1  0
 21 20  1  1
 21 23  1  0
 22 21  1  0
 22 12  1  0
 23 24  2  0
 23 25  1  0
M  END
$$$$
