ALR.pdb
     RDKit          3D

 25 24  0  0  1  0  0  0  0  0999 V2000
    6.9781  -15.3080   20.1528 C   0  0  0  0  0  0  0  0  0  0  0  0
    7.0959  -13.9217   20.7118 C   0  0  2  0  0  0  0  0  0  0  0  0
    7.8638  -13.0315   19.8673 N   0  0  0  0  0  0  0  0  0  0  0  0
    7.7553  -13.9463   22.0478 C   0  0  0  0  0  0  0  0  0  0  0  0
    9.0235  -13.9006   22.0979 O   0  0  0  0  0  0  0  0  0  0  0  0
    5.3887  -11.8975   26.7804 C   0  0  0  0  0  0  0  0  0  0  0  0
    6.3119  -12.2920   25.6928 C   0  0  1  0  0  0  0  0  0  0  0  0
    7.5235  -11.3464   25.7973 C   0  0  0  0  0  0  0  0  0  0  0  0
    6.8540  -13.6611   25.6937 C   0  0  0  0  0  0  0  0  0  0  0  0
    7.6759  -14.1208   24.5610 C   0  0  2  0  0  0  0  0  0  0  0  0
    7.0430  -14.0184   23.2728 N   0  0  0  0  0  0  0  0  0  0  0  0
    8.2617  -15.4451   24.8115 C   0  0  0  0  0  0  0  0  0  0  0  0
    7.4822  -16.4416   24.8142 O   0  0  0  0  0  0  0  0  0  0  0  0
   11.2244  -21.4269   22.7671 N   0  0  0  0  0  0  0  0  0  0  0  0
   12.5153  -21.6267   23.3123 C   0  0  0  0  0  0  0  0  0  0  0  0
   13.0195  -22.7865   23.5066 N   0  0  0  0  0  0  0  0  0  0  0  0
   13.3020  -20.4576   23.6643 N   0  0  0  0  0  0  0  0  0  0  0  0
   12.6766  -19.1867   23.5190 C   0  0  0  0  0  0  0  0  0  0  0  0
   12.2145  -18.4603   24.7054 C   0  0  0  0  0  0  0  0  0  0  0  0
   11.5143  -17.1620   24.5604 C   0  0  0  0  0  0  0  0  0  0  0  0
   10.1782  -17.0796   25.1552 C   0  0  2  0  0  0  0  0  0  0  0  0
    9.6200  -15.7032   25.0522 N   0  0  0  0  0  0  0  0  0  0  0  0
   10.2158  -17.3571   26.5991 C   0  0  0  0  0  0  0  0  0  0  0  0
   10.1183  -16.3803   27.4367 O   0  0  0  0  0  0  0  0  0  0  0  0
   10.3489  -18.5843   27.1832 O   0  0  0  0  0  0  0  0  0  0  0  0
  2  1  1  6
  2  4  1  0
  2  3  1  0
  4  5  2  0
  7  6  1  1
  7  8  1  0
  9  7  1  0
 10  9  1  1
 10 12  1  0
 11 10  1  0
 11  4  1  0
 12 13  2  0
 14 15  1  0
 15 16  2  0
 17 18  1  0
 17 15  1  0
 19 20  1  0
 19 18  1  0
 21 20  1  1
 21 23  1  0
 22 21  1  0
 22 12  1  0
 23 24  2  0
 23 25  1  0
M  END
$$$$
