ALR.pdb
     RDKit          3D

 25 24  0  0  1  0  0  0  0  0999 V2000
    8.1066  -13.6241   19.6601 C   0  0  0  0  0  0  0  0  0  0  0  0
    7.9555  -14.8807   20.4638 C   0  0  2  0  0  0  0  0  0  0  0  0
    6.5965  -15.3785   20.4908 N   0  0  0  0  0  0  0  0  0  0  0  0
    8.3753  -14.6569   21.8759 C   0  0  0  0  0  0  0  0  0  0  0  0
    9.6171  -14.6029   22.1369 O   0  0  0  0  0  0  0  0  0  0  0  0
    8.3344  -12.0630   26.7192 C   0  0  0  0  0  0  0  0  0  0  0  0
    7.2306  -13.0136   26.4575 C   0  0  1  0  0  0  0  0  0  0  0  0
    5.9580  -12.3569   27.0252 C   0  0  0  0  0  0  0  0  0  0  0  0
    6.9256  -13.3687   25.0613 C   0  0  0  0  0  0  0  0  0  0  0  0
    7.8604  -14.2187   24.3040 C   0  0  2  0  0  0  0  0  0  0  0  0
    7.4620  -14.5002   22.9503 N   0  0  0  0  0  0  0  0  0  0  0  0
    8.2367  -15.4238   25.0562 C   0  0  0  0  0  0  0  0  0  0  0  0
    7.3043  -16.1535   25.5019 O   0  0  0  0  0  0  0  0  0  0  0  0
    9.3663  -21.6213   25.2885 N   0  0  0  0  0  0  0  0  0  0  0  0
    9.7710  -22.0637   24.0063 C   0  0  0  0  0  0  0  0  0  0  0  0
   10.4629  -23.1237   23.8194 N   0  0  0  0  0  0  0  0  0  0  0  0
    9.3784  -21.2760   22.8510 N   0  0  0  0  0  0  0  0  0  0  0  0
    9.3308  -19.8624   23.0152 C   0  0  0  0  0  0  0  0  0  0  0  0
   10.3904  -19.1777   23.7616 C   0  0  0  0  0  0  0  0  0  0  0  0
   10.3288  -17.7117   23.9709 C   0  0  0  0  0  0  0  0  0  0  0  0
    9.9675  -17.2672   25.3191 C   0  0  2  0  0  0  0  0  0  0  0  0
    9.5498  -15.8381   25.3278 N   0  0  0  0  0  0  0  0  0  0  0  0
   11.1218  -17.3214   26.2291 C   0  0  0  0  0  0  0  0  0  0  0  0
   11.4998  -18.4580   26.7091 O   0  0  0  0  0  0  0  0  0  0  0  0
   11.8737  -16.2600   26.6449 O   0  0  0  0  0  0  0  0  0  0  0  0
  2  1  1  6
  2  4  1  0
  2  3  1  0
  4  5  2  0
  7  6  1  6
  7  8  1  0
  9  7  1  0
 10  9  1  1
 10 12  1  0
 11 10  1  0
 11  4  1  0
 12 13  2  0
 14 15  1  0
 15 16  2  0
 17 18  1  0
 17 15  1  0
 19 20  1  0
 19 18  1  0
 21 20  1  6
 21 23  1  0
 22 21  1  0
 22 12  1  0
 23 24  2  0
 23 25  1  0
M  END
$$$$
