ALR.pdb
     RDKit          3D

 25 24  0  0  1  0  0  0  0  0999 V2000
    7.4175  -15.7858   19.8304 C   0  0  0  0  0  0  0  0  0  0  0  0
    7.3188  -14.3536   20.2628 C   0  0  2  0  0  0  0  0  0  0  0  0
    8.0540  -13.4487   19.4049 N   0  0  0  0  0  0  0  0  0  0  0  0
    7.8467  -14.1829   21.6458 C   0  0  0  0  0  0  0  0  0  0  0  0
    9.1019  -14.0742   21.8054 O   0  0  0  0  0  0  0  0  0  0  0  0
    7.7664  -11.9669   26.7052 C   0  0  0  0  0  0  0  0  0  0  0  0
    6.9380  -13.1744   26.4905 C   0  0  1  0  0  0  0  0  0  0  0  0
    5.6439  -12.9531   27.2963 C   0  0  0  0  0  0  0  0  0  0  0  0
    6.5195  -13.5041   25.1177 C   0  0  0  0  0  0  0  0  0  0  0  0
    7.5249  -13.9416   24.1340 C   0  0  2  0  0  0  0  0  0  0  0  0
    7.0223  -14.1348   22.7996 N   0  0  0  0  0  0  0  0  0  0  0  0
    8.3106  -15.0825   24.6245 C   0  0  0  0  0  0  0  0  0  0  0  0
    7.7990  -16.2351   24.5239 O   0  0  0  0  0  0  0  0  0  0  0  0
   16.8534  -16.5614   24.0302 N   0  0  0  0  0  0  0  0  0  0  0  0
   16.3006  -17.8025   23.6331 C   0  0  0  0  0  0  0  0  0  0  0  0
   17.0000  -18.7509   23.1345 N   0  0  0  0  0  0  0  0  0  0  0  0
   14.8727  -18.0058   23.8034 N   0  0  0  0  0  0  0  0  0  0  0  0
   14.1103  -16.8970   24.2689 C   0  0  0  0  0  0  0  0  0  0  0  0
   12.6477  -16.9834   24.3135 C   0  0  0  0  0  0  0  0  0  0  0  0
   11.8482  -15.8501   24.8361 C   0  0  0  0  0  0  0  0  0  0  0  0
   10.5010  -16.1755   25.3104 C   0  0  2  0  0  0  0  0  0  0  0  0
    9.5876  -15.0048   25.2015 N   0  0  0  0  0  0  0  0  0  0  0  0
   10.5030  -16.5119   26.7422 C   0  0  0  0  0  0  0  0  0  0  0  0
   10.9317  -17.6680   27.1228 O   0  0  0  0  0  0  0  0  0  0  0  0
   10.0839  -15.7066   27.7624 O   0  0  0  0  0  0  0  0  0  0  0  0
  2  1  1  6
  2  4  1  0
  2  3  1  0
  4  5  2  0
  7  6  1  6
  7  8  1  0
  9  7  1  0
 10  9  1  1
 10 12  1  0
 11 10  1  0
 11  4  1  0
 12 13  2  0
 14 15  1  0
 15 16  2  0
 17 18  1  0
 17 15  1  0
 19 20  1  0
 19 18  1  0
 21 20  1  1
 21 23  1  0
 22 21  1  0
 22 12  1  0
 23 24  2  0
 23 25  1  0
M  END
$$$$
