ALR.pdb
     RDKit          3D

 25 24  0  0  1  0  0  0  0  0999 V2000
    6.8013  -16.5058   20.2157 C   0  0  0  0  0  0  0  0  0  0  0  0
    7.3158  -15.1018   20.3245 C   0  0  2  0  0  0  0  0  0  0  0  0
    8.3984  -14.8202   19.4060 N   0  0  0  0  0  0  0  0  0  0  0  0
    7.8180  -14.8295   21.7008 C   0  0  0  0  0  0  0  0  0  0  0  0
    9.0017  -15.1839   21.9943 O   0  0  0  0  0  0  0  0  0  0  0  0
    8.1168  -11.6659   26.3982 C   0  0  0  0  0  0  0  0  0  0  0  0
    7.0608  -12.6862   26.2121 C   0  0  1  0  0  0  0  0  0  0  0  0
    5.8001  -12.1256   26.8973 C   0  0  0  0  0  0  0  0  0  0  0  0
    6.6624  -13.0425   24.8400 C   0  0  0  0  0  0  0  0  0  0  0  0
    7.5292  -13.9184   24.0331 C   0  0  2  0  0  0  0  0  0  0  0  0
    7.0447  -14.1940   22.7065 N   0  0  0  0  0  0  0  0  0  0  0  0
    7.9187  -15.1302   24.7674 C   0  0  0  0  0  0  0  0  0  0  0  0
    7.0293  -16.0074   24.9678 O   0  0  0  0  0  0  0  0  0  0  0  0
   12.2692  -20.9665   22.2784 N   0  0  0  0  0  0  0  0  0  0  0  0
   12.8066  -21.3560   23.5286 C   0  0  0  0  0  0  0  0  0  0  0  0
   13.1282  -22.5633   23.8049 N   0  0  0  0  0  0  0  0  0  0  0  0
   13.0027  -20.3341   24.5418 N   0  0  0  0  0  0  0  0  0  0  0  0
   12.4724  -19.0408   24.2703 C   0  0  0  0  0  0  0  0  0  0  0  0
   11.3491  -18.5311   25.0621 C   0  0  0  0  0  0  0  0  0  0  0  0
   10.7598  -17.2061   24.7556 C   0  0  0  0  0  0  0  0  0  0  0  0
    9.6608  -16.7729   25.6218 C   0  0  2  0  0  0  0  0  0  0  0  0
    9.2000  -15.4010   25.2721 N   0  0  0  0  0  0  0  0  0  0  0  0
   10.0908  -16.6730   27.0247 C   0  0  0  0  0  0  0  0  0  0  0  0
   10.3148  -15.5111   27.5396 O   0  0  0  0  0  0  0  0  0  0  0  0
   10.2906  -17.7145   27.8850 O   0  0  0  0  0  0  0  0  0  0  0  0
  2  1  1  1
  2  4  1  0
  2  3  1  0
  4  5  2  0
  7  6  1  6
  7  8  1  0
  9  7  1  0
 10  9  1  1
 10 12  1  0
 11 10  1  0
 11  4  1  0
 12 13  2  0
 14 15  1  0
 15 16  2  0
 17 18  1  0
 17 15  1  0
 19 20  1  0
 19 18  1  0
 21 20  1  6
 21 23  1  0
 22 21  1  0
 22 12  1  0
 23 24  2  0
 23 25  1  0
M  END
$$$$
