ALR.pdb
     RDKit          3D

 25 24  0  0  1  0  0  0  0  0999 V2000
    6.7578  -17.7205   21.4730 C   0  0  0  0  0  0  0  0  0  0  0  0
    6.9864  -16.3017   21.0456 C   0  0  2  0  0  0  0  0  0  0  0  0
    7.8175  -16.1901   19.8658 N   0  0  0  0  0  0  0  0  0  0  0  0
    7.6481  -15.5242   22.1310 C   0  0  0  0  0  0  0  0  0  0  0  0
    8.8772  -15.2314   22.0029 O   0  0  0  0  0  0  0  0  0  0  0  0
    8.1595  -11.7256   26.1150 C   0  0  0  0  0  0  0  0  0  0  0  0
    7.2723  -12.8758   26.3988 C   0  0  1  0  0  0  0  0  0  0  0  0
    6.0646  -12.3044   27.1655 C   0  0  0  0  0  0  0  0  0  0  0  0
    6.7207  -13.6342   25.2635 C   0  0  0  0  0  0  0  0  0  0  0  0
    7.6273  -14.3890   24.3813 C   0  0  2  0  0  0  0  0  0  0  0  0
    6.9795  -15.0907   23.3049 N   0  0  0  0  0  0  0  0  0  0  0  0
    8.5552  -15.2351   25.1445 C   0  0  0  0  0  0  0  0  0  0  0  0
    9.2823  -14.6737   26.0145 O   0  0  0  0  0  0  0  0  0  0  0  0
   12.1515  -21.2508   22.5504 N   0  0  0  0  0  0  0  0  0  0  0  0
   13.2828  -20.4097   22.4238 C   0  0  0  0  0  0  0  0  0  0  0  0
   14.4617  -20.8538   22.1999 N   0  0  0  0  0  0  0  0  0  0  0  0
   13.0919  -18.9757   22.5523 N   0  0  0  0  0  0  0  0  0  0  0  0
   11.7748  -18.5199   22.8436 C   0  0  0  0  0  0  0  0  0  0  0  0
   11.2356  -18.6627   24.1992 C   0  0  0  0  0  0  0  0  0  0  0  0
   10.9990  -17.4645   25.0389 C   0  0  0  0  0  0  0  0  0  0  0  0
    9.7170  -17.4149   25.7458 C   0  0  2  0  0  0  0  0  0  0  0  0
    8.7088  -16.6215   24.9903 N   0  0  0  0  0  0  0  0  0  0  0  0
    9.8426  -16.7214   27.0367 C   0  0  0  0  0  0  0  0  0  0  0  0
   10.3835  -15.5506   27.0792 O   0  0  0  0  0  0  0  0  0  0  0  0
    9.4355  -17.1945   28.2514 O   0  0  0  0  0  0  0  0  0  0  0  0
  2  1  1  1
  2  4  1  0
  2  3  1  0
  4  5  2  0
  7  6  1  6
  7  8  1  0
  9  7  1  0
 10  9  1  1
 10 12  1  0
 11 10  1  0
 11  4  1  0
 12 13  2  0
 14 15  1  0
 15 16  2  0
 17 18  1  0
 17 15  1  0
 19 20  1  0
 19 18  1  0
 21 20  1  6
 21 23  1  0
 22 21  1  0
 22 12  1  0
 23 24  2  0
 23 25  1  0
M  END
$$$$
