ALR.pdb
     RDKit          3D

 25 24  0  0  1  0  0  0  0  0999 V2000
    8.3390  -12.4143   19.3263 C   0  0  0  0  0  0  0  0  0  0  0  0
    8.1147  -13.7622   19.9435 C   0  0  2  0  0  0  0  0  0  0  0  0
    6.7507  -14.2283   19.8110 N   0  0  0  0  0  0  0  0  0  0  0  0
    8.4365  -13.7360   21.3982 C   0  0  0  0  0  0  0  0  0  0  0  0
    9.6294  -13.4787   21.7497 O   0  0  0  0  0  0  0  0  0  0  0  0
    7.8167  -12.0760   26.5558 C   0  0  0  0  0  0  0  0  0  0  0  0
    6.8788  -13.1199   26.0855 C   0  0  1  0  0  0  0  0  0  0  0  0
    5.4998  -12.7454   26.6610 C   0  0  0  0  0  0  0  0  0  0  0  0
    6.6892  -13.2922   24.6354 C   0  0  0  0  0  0  0  0  0  0  0  0
    7.7676  -13.8824   23.8239 C   0  0  2  0  0  0  0  0  0  0  0  0
    7.4810  -13.9836   22.4175 N   0  0  0  0  0  0  0  0  0  0  0  0
    8.2633  -15.1389   24.4027 C   0  0  0  0  0  0  0  0  0  0  0  0
    7.4236  -16.0624   24.6094 O   0  0  0  0  0  0  0  0  0  0  0  0
   13.8243  -14.5683   20.6520 N   0  0  0  0  0  0  0  0  0  0  0  0
   12.8853  -15.3534   19.9409 C   0  0  0  0  0  0  0  0  0  0  0  0
   12.7326  -15.2810   18.6726 N   0  0  0  0  0  0  0  0  0  0  0  0
   12.0602  -16.2851   20.6895 N   0  0  0  0  0  0  0  0  0  0  0  0
   12.1180  -16.2067   22.1100 C   0  0  0  0  0  0  0  0  0  0  0  0
   11.3273  -17.1333   22.9254 C   0  0  0  0  0  0  0  0  0  0  0  0
   11.3684  -17.0481   24.4046 C   0  0  0  0  0  0  0  0  0  0  0  0
   10.0932  -16.7724   25.0706 C   0  0  2  0  0  0  0  0  0  0  0  0
    9.5963  -15.4057   24.7514 N   0  0  0  0  0  0  0  0  0  0  0  0
   10.2395  -16.7811   26.5341 C   0  0  0  0  0  0  0  0  0  0  0  0
   10.1715  -15.6696   27.1861 O   0  0  0  0  0  0  0  0  0  0  0  0
   10.4494  -17.8787   27.3189 O   0  0  0  0  0  0  0  0  0  0  0  0
  2  1  1  1
  2  4  1  0
  2  3  1  0
  4  5  2  0
  7  6  1  6
  7  8  1  0
  9  7  1  0
 10  9  1  1
 10 12  1  0
 11 10  1  0
 11  4  1  0
 12 13  2  0
 14 15  1  0
 15 16  2  0
 17 18  1  0
 17 15  1  0
 19 20  1  0
 19 18  1  0
 21 20  1  6
 21 23  1  0
 22 21  1  0
 22 12  1  0
 23 24  2  0
 23 25  1  0
M  END
$$$$
