ALR.pdb
     RDKit          3D

 25 24  0  0  1  0  0  0  0  0999 V2000
    7.4705  -17.0260   21.6306 C   0  0  0  0  0  0  0  0  0  0  0  0
    7.5207  -15.5334   21.7642 C   0  0  2  0  0  0  0  0  0  0  0  0
    8.2645  -14.8921   20.7009 N   0  0  0  0  0  0  0  0  0  0  0  0
    8.1581  -15.1406   23.0526 C   0  0  0  0  0  0  0  0  0  0  0  0
    9.4261  -15.1115   23.1164 O   0  0  0  0  0  0  0  0  0  0  0  0
    5.3101  -11.7962   26.6020 C   0  0  0  0  0  0  0  0  0  0  0  0
    6.3293  -12.4385   25.7422 C   0  0  1  0  0  0  0  0  0  0  0  0
    7.3265  -11.3283   25.3600 C   0  0  0  0  0  0  0  0  0  0  0  0
    7.1304  -13.5386   26.3047 C   0  0  0  0  0  0  0  0  0  0  0  0
    8.0303  -14.3078   25.4281 C   0  0  2  0  0  0  0  0  0  0  0  0
    7.4249  -14.7958   24.2174 N   0  0  0  0  0  0  0  0  0  0  0  0
    8.7583  -15.3480   26.1680 C   0  0  0  0  0  0  0  0  0  0  0  0
    8.1073  -16.3645   26.5468 O   0  0  0  0  0  0  0  0  0  0  0  0
   15.5262  -17.9808   23.8825 N   0  0  0  0  0  0  0  0  0  0  0  0
   15.7031  -16.5922   23.6728 C   0  0  0  0  0  0  0  0  0  0  0  0
   16.7686  -16.0918   23.1713 N   0  0  0  0  0  0  0  0  0  0  0  0
   14.6212  -15.6970   24.0436 N   0  0  0  0  0  0  0  0  0  0  0  0
   14.1434  -15.7761   25.3825 C   0  0  0  0  0  0  0  0  0  0  0  0
   12.7794  -16.2444   25.6448 C   0  0  0  0  0  0  0  0  0  0  0  0
   12.2738  -16.3305   27.0354 C   0  0  0  0  0  0  0  0  0  0  0  0
   10.8203  -16.4294   27.1885 C   0  0  2  0  0  0  0  0  0  0  0  0
   10.1224  -15.3113   26.4961 N   0  0  0  0  0  0  0  0  0  0  0  0
   10.4193  -16.3005   28.5977 C   0  0  0  0  0  0  0  0  0  0  0  0
    9.9182  -15.1876   29.0165 O   0  0  0  0  0  0  0  0  0  0  0  0
   10.5211  -17.2655   29.5586 O   0  0  0  0  0  0  0  0  0  0  0  0
  2  1  1  6
  2  4  1  0
  2  3  1  0
  4  5  2  0
  7  6  1  1
  7  8  1  0
  9  7  1  0
 10  9  1  1
 10 12  1  0
 11 10  1  0
 11  4  1  0
 12 13  2  0
 14 15  1  0
 15 16  2  0
 17 18  1  0
 17 15  1  0
 19 20  1  0
 19 18  1  0
 21 20  1  1
 21 23  1  0
 22 21  1  0
 22 12  1  0
 23 24  2  0
 23 25  1  0
M  END
$$$$
