SAL.pdb
     RDKit          3D

 20 19  0  0  1  0  0  0  0  0999 V2000
    9.3820  -11.8365   18.4846 O   0  0  0  0  0  0  0  0  0  0  0  0
    8.5974  -12.4671   19.4264 C   0  0  0  0  0  0  0  0  0  0  0  0
    8.5505  -13.9637   19.1105 C   0  0  2  0  0  0  0  0  0  0  0  0
    7.6550  -14.1986   17.9845 N   0  0  0  0  0  0  0  0  0  0  0  0
    8.1445  -14.7719   20.2897 C   0  0  0  0  0  0  0  0  0  0  0  0
    6.8836  -14.8367   20.5231 O   0  0  0  0  0  0  0  0  0  0  0  0
    9.2966  -17.5750   22.1886 C   0  0  0  0  0  0  0  0  0  0  0  0
    8.5874  -16.2140   22.2240 C   0  0  2  0  0  0  0  0  0  0  0  0
    9.0732  -15.4391   21.1185 N   0  0  0  0  0  0  0  0  0  0  0  0
    8.9560  -15.6102   23.5364 C   0  0  0  0  0  0  0  0  0  0  0  0
   10.1331  -15.1902   23.6740 O   0  0  0  0  0  0  0  0  0  0  0  0
    5.5911  -12.3126   26.4861 C   0  0  0  0  0  0  0  0  0  0  0  0
    6.8804  -12.8717   25.7476 C   0  0  1  0  0  0  0  0  0  0  0  0
    7.8893  -11.7494   25.8910 C   0  0  0  0  0  0  0  0  0  0  0  0
    7.2377  -14.1498   26.4135 C   0  0  0  0  0  0  0  0  0  0  0  0
    8.4071  -14.8849   25.9121 C   0  0  2  0  0  0  0  0  0  0  0  0
    8.0579  -15.4965   24.5989 N   0  0  0  0  0  0  0  0  0  0  0  0
    8.9018  -15.9579   26.7526 C   0  0  0  0  0  0  0  0  0  0  0  0
    8.5966  -17.1739   26.7091 O   0  0  0  0  0  0  0  0  0  0  0  0
    9.8524  -15.6352   27.7635 O   0  0  0  0  0  0  0  0  0  0  0  0
  2  1  1  0
  3  2  1  0
  3  5  1  0
  3  4  1  6
  5  6  2  0
  8  7  1  1
  9  8  1  0
  9  5  1  0
 10  8  1  0
 10 11  2  0
 13 12  1  1
 13 14  1  0
 13 15  1  0
 16 15  1  1
 16 17  1  0
 16 18  1  0
 17 10  1  0
 18 19  2  0
 18 20  1  0
M  END
$$$$
