SAL.pdb
     RDKit          3D

 20 19  0  0  1  0  0  0  0  0999 V2000
    5.3799  -17.3891   24.0439 O   0  0  0  0  0  0  0  0  0  0  0  0
    5.5158  -18.4687   23.1976 C   0  0  0  0  0  0  0  0  0  0  0  0
    5.7422  -17.9565   21.7734 C   0  0  2  0  0  0  0  0  0  0  0  0
    5.8497  -19.0860   20.8581 N   0  0  0  0  0  0  0  0  0  0  0  0
    6.9381  -17.0796   21.6778 C   0  0  0  0  0  0  0  0  0  0  0  0
    8.0772  -17.6669   21.7584 O   0  0  0  0  0  0  0  0  0  0  0  0
    7.7074  -13.5185   20.9149 C   0  0  0  0  0  0  0  0  0  0  0  0
    8.0603  -14.9091   21.4612 C   0  0  2  0  0  0  0  0  0  0  0  0
    6.8514  -15.6803   21.5072 N   0  0  0  0  0  0  0  0  0  0  0  0
    8.6236  -14.6686   22.8204 C   0  0  0  0  0  0  0  0  0  0  0  0
    9.8043  -14.2425   22.8943 O   0  0  0  0  0  0  0  0  0  0  0  0
    5.3903  -12.7141   26.7198 C   0  0  0  0  0  0  0  0  0  0  0  0
    6.6906  -12.8548   25.8198 C   0  0  1  0  0  0  0  0  0  0  0  0
    7.4759  -11.5951   26.1270 C   0  0  0  0  0  0  0  0  0  0  0  0
    7.3435  -14.1321   26.2034 C   0  0  0  0  0  0  0  0  0  0  0  0
    8.4376  -14.6282   25.3572 C   0  0  2  0  0  0  0  0  0  0  0  0
    7.9009  -14.8951   23.9929 N   0  0  0  0  0  0  0  0  0  0  0  0
    9.0873  -15.8484   25.7950 C   0  0  0  0  0  0  0  0  0  0  0  0
    9.1130  -16.9592   25.2127 O   0  0  0  0  0  0  0  0  0  0  0  0
    9.7943  -15.8261   27.0316 O   0  0  0  0  0  0  0  0  0  0  0  0
  2  1  1  0
  3  2  1  0
  3  5  1  0
  3  4  1  6
  5  6  2  0
  8  7  1  1
  9  8  1  0
  9  5  1  0
 10  8  1  0
 10 11  2  0
 13 12  1  1
 13 14  1  0
 13 15  1  0
 16 15  1  1
 16 17  1  0
 16 18  1  0
 17 10  1  0
 18 19  2  0
 18 20  1  0
M  END
$$$$
