SAL.pdb
     RDKit          3D

 20 19  0  0  1  0  0  0  0  0999 V2000
    9.0584  -12.2656   18.7082 O   0  0  0  0  0  0  0  0  0  0  0  0
    8.4987  -12.7119   19.8862 C   0  0  0  0  0  0  0  0  0  0  0  0
    8.0970  -14.1791   19.7194 C   0  0  2  0  0  0  0  0  0  0  0  0
    6.9034  -14.2683   18.8872 N   0  0  0  0  0  0  0  0  0  0  0  0
    7.8846  -14.8531   21.0266 C   0  0  0  0  0  0  0  0  0  0  0  0
    6.7249  -14.7040   21.5574 O   0  0  0  0  0  0  0  0  0  0  0  0
    9.3090  -17.6226   22.9154 C   0  0  0  0  0  0  0  0  0  0  0  0
    8.5728  -16.2755   22.9029 C   0  0  2  0  0  0  0  0  0  0  0  0
    8.8844  -15.6186   21.6661 N   0  0  0  0  0  0  0  0  0  0  0  0
    9.0962  -15.5281   24.0818 C   0  0  0  0  0  0  0  0  0  0  0  0
   10.2588  -15.0557   24.0025 O   0  0  0  0  0  0  0  0  0  0  0  0
    5.7157  -12.3557   26.8714 C   0  0  0  0  0  0  0  0  0  0  0  0
    6.9577  -12.9098   26.0524 C   0  0  1  0  0  0  0  0  0  0  0  0
    7.6700  -11.6541   25.5901 C   0  0  0  0  0  0  0  0  0  0  0  0
    7.7254  -13.7851   26.9740 C   0  0  0  0  0  0  0  0  0  0  0  0
    8.8472  -14.5549   26.4190 C   0  0  2  0  0  0  0  0  0  0  0  0
    8.3559  -15.3369   25.2497 N   0  0  0  0  0  0  0  0  0  0  0  0
    9.4841  -15.5009   27.3146 C   0  0  0  0  0  0  0  0  0  0  0  0
    9.4018  -16.7525   27.2985 O   0  0  0  0  0  0  0  0  0  0  0  0
   10.3136  -14.9884   28.3533 O   0  0  0  0  0  0  0  0  0  0  0  0
  2  1  1  0
  3  2  1  0
  3  5  1  0
  3  4  1  6
  5  6  2  0
  8  7  1  6
  9  8  1  0
  9  5  1  0
 10  8  1  0
 10 11  2  0
 13 12  1  1
 13 14  1  0
 13 15  1  0
 16 15  1  1
 16 17  1  0
 16 18  1  0
 17 10  1  0
 18 19  2  0
 18 20  1  0
M  END
$$$$
