SAL.pdb
     RDKit          3D

 20 19  0  0  1  0  0  0  0  0999 V2000
   10.6527  -12.8227   20.1456 O   0  0  0  0  0  0  0  0  0  0  0  0
   10.2639  -13.8156   19.2721 C   0  0  0  0  0  0  0  0  0  0  0  0
    8.7388  -13.9374   19.3074 C   0  0  2  0  0  0  0  0  0  0  0  0
    8.1371  -12.6647   18.9291 N   0  0  0  0  0  0  0  0  0  0  0  0
    8.2439  -14.3850   20.6353 C   0  0  0  0  0  0  0  0  0  0  0  0
    7.7042  -13.4815   21.3710 O   0  0  0  0  0  0  0  0  0  0  0  0
    7.8483  -17.6107   22.4728 C   0  0  0  0  0  0  0  0  0  0  0  0
    7.7419  -16.0859   22.3300 C   0  0  2  0  0  0  0  0  0  0  0  0
    8.3493  -15.7204   21.0826 N   0  0  0  0  0  0  0  0  0  0  0  0
    8.4807  -15.5270   23.4981 C   0  0  0  0  0  0  0  0  0  0  0  0
    9.7156  -15.3306   23.3663 O   0  0  0  0  0  0  0  0  0  0  0  0
    5.8204  -12.2156   26.8945 C   0  0  0  0  0  0  0  0  0  0  0  0
    6.7725  -12.9403   25.8512 C   0  0  1  0  0  0  0  0  0  0  0  0
    7.4068  -11.7934   25.0895 C   0  0  0  0  0  0  0  0  0  0  0  0
    7.7053  -13.7880   26.6361 C   0  0  0  0  0  0  0  0  0  0  0  0
    8.5932  -14.6992   25.9009 C   0  0  2  0  0  0  0  0  0  0  0  0
    7.8623  -15.2193   24.7111 N   0  0  0  0  0  0  0  0  0  0  0  0
    9.0765  -15.8551   26.6308 C   0  0  0  0  0  0  0  0  0  0  0  0
    8.7687  -17.0590   26.4586 O   0  0  0  0  0  0  0  0  0  0  0  0
   10.0174  -15.6421   27.6791 O   0  0  0  0  0  0  0  0  0  0  0  0
  2  1  1  0
  3  2  1  0
  3  5  1  0
  3  4  1  1
  5  6  2  0
  8  7  1  1
  9  8  1  0
  9  5  1  0
 10  8  1  0
 10 11  2  0
 13 12  1  1
 13 14  1  0
 13 15  1  0
 16 15  1  1
 16 17  1  0
 16 18  1  0
 17 10  1  0
 18 19  2  0
 18 20  1  0
M  END
$$$$
