SAL.pdb
     RDKit          3D

 20 19  0  0  1  0  0  0  0  0999 V2000
    4.7576  -19.4837   23.8103 O   0  0  0  0  0  0  0  0  0  0  0  0
    5.9015  -18.7387   23.6185 C   0  0  0  0  0  0  0  0  0  0  0  0
    6.0108  -18.3712   22.1370 C   0  0  2  0  0  0  0  0  0  0  0  0
    6.1853  -19.5817   21.3438 N   0  0  0  0  0  0  0  0  0  0  0  0
    7.1101  -17.4047   21.8799 C   0  0  0  0  0  0  0  0  0  0  0  0
    8.2943  -17.8980   21.8235 O   0  0  0  0  0  0  0  0  0  0  0  0
    7.5221  -13.8076   21.0278 C   0  0  0  0  0  0  0  0  0  0  0  0
    8.0197  -15.1445   21.5949 C   0  0  2  0  0  0  0  0  0  0  0  0
    6.8891  -16.0210   21.7039 N   0  0  0  0  0  0  0  0  0  0  0  0
    8.6045  -14.8159   22.9263 C   0  0  0  0  0  0  0  0  0  0  0  0
    9.7242  -14.2444   22.9455 O   0  0  0  0  0  0  0  0  0  0  0  0
    5.6766  -12.4952   26.7248 C   0  0  0  0  0  0  0  0  0  0  0  0
    6.9535  -12.8117   25.8363 C   0  0  1  0  0  0  0  0  0  0  0  0
    7.8732  -11.6360   26.1006 C   0  0  0  0  0  0  0  0  0  0  0  0
    7.4612  -14.1383   26.2691 C   0  0  0  0  0  0  0  0  0  0  0  0
    8.5219  -14.7652   25.4684 C   0  0  2  0  0  0  0  0  0  0  0  0
    7.9655  -15.1144   24.1310 N   0  0  0  0  0  0  0  0  0  0  0  0
    9.1030  -15.9793   26.0075 C   0  0  0  0  0  0  0  0  0  0  0  0
    9.0009  -17.1469   25.5603 O   0  0  0  0  0  0  0  0  0  0  0  0
    9.8940  -15.8784   27.1881 O   0  0  0  0  0  0  0  0  0  0  0  0
  2  1  1  0
  3  2  1  0
  3  5  1  0
  3  4  1  6
  5  6  2  0
  8  7  1  1
  9  8  1  0
  9  5  1  0
 10  8  1  0
 10 11  2  0
 13 12  1  1
 13 14  1  0
 13 15  1  0
 16 15  1  1
 16 17  1  0
 16 18  1  0
 17 10  1  0
 18 19  2  0
 18 20  1  0
M  END
$$$$
