SAL.pdb
     RDKit          3D

 20 19  0  0  1  0  0  0  0  0999 V2000
    6.5696  -18.4390   24.7218 O   0  0  0  0  0  0  0  0  0  0  0  0
    5.4979  -18.2647   23.8725 C   0  0  0  0  0  0  0  0  0  0  0  0
    5.9971  -18.3207   22.4269 C   0  0  2  0  0  0  0  0  0  0  0  0
    6.3858  -19.6861   22.0957 N   0  0  0  0  0  0  0  0  0  0  0  0
    7.1183  -17.3758   22.1852 C   0  0  0  0  0  0  0  0  0  0  0  0
    8.2999  -17.8755   22.2393 O   0  0  0  0  0  0  0  0  0  0  0  0
    7.5877  -13.8189   21.1800 C   0  0  0  0  0  0  0  0  0  0  0  0
    8.0641  -15.1489   21.7806 C   0  0  2  0  0  0  0  0  0  0  0  0
    6.9200  -16.0050   21.9094 N   0  0  0  0  0  0  0  0  0  0  0  0
    8.6523  -14.7966   23.1044 C   0  0  0  0  0  0  0  0  0  0  0  0
    9.7660  -14.2130   23.1100 O   0  0  0  0  0  0  0  0  0  0  0  0
    5.7257  -12.4591   26.8503 C   0  0  0  0  0  0  0  0  0  0  0  0
    6.9738  -12.8045   25.9320 C   0  0  1  0  0  0  0  0  0  0  0  0
    7.8609  -11.5820   26.0599 C   0  0  0  0  0  0  0  0  0  0  0  0
    7.5472  -14.0746   26.4447 C   0  0  0  0  0  0  0  0  0  0  0  0
    8.5921  -14.7308   25.6468 C   0  0  2  0  0  0  0  0  0  0  0  0
    8.0228  -15.0858   24.3163 N   0  0  0  0  0  0  0  0  0  0  0  0
    9.1531  -15.9490   26.1980 C   0  0  0  0  0  0  0  0  0  0  0  0
    9.7663  -16.0929   27.2829 O   0  0  0  0  0  0  0  0  0  0  0  0
    9.0124  -17.1523   25.4483 O   0  0  0  0  0  0  0  0  0  0  0  0
  2  1  1  0
  3  2  1  0
  3  5  1  0
  3  4  1  1
  5  6  2  0
  8  7  1  1
  9  8  1  0
  9  5  1  0
 10  8  1  0
 10 11  2  0
 13 12  1  1
 13 14  1  0
 13 15  1  0
 16 15  1  1
 16 17  1  0
 16 18  1  0
 17 10  1  0
 18 19  2  0
 18 20  1  0
M  END
$$$$
