SAL.pdb
     RDKit          3D

 20 19  0  0  1  0  0  0  0  0999 V2000
    6.6839  -17.6981   23.1640 O   0  0  0  0  0  0  0  0  0  0  0  0
    5.6595  -17.8553   22.2552 C   0  0  0  0  0  0  0  0  0  0  0  0
    6.1649  -17.4608   20.8656 C   0  0  2  0  0  0  0  0  0  0  0  0
    6.5434  -18.6575   20.1243 N   0  0  0  0  0  0  0  0  0  0  0  0
    7.2953  -16.4986   20.9339 C   0  0  0  0  0  0  0  0  0  0  0  0
    8.4720  -17.0112   20.9716 O   0  0  0  0  0  0  0  0  0  0  0  0
    7.8346  -12.8264   20.6926 C   0  0  0  0  0  0  0  0  0  0  0  0
    8.2579  -14.2477   21.0893 C   0  0  2  0  0  0  0  0  0  0  0  0
    7.1105  -15.0986   20.9561 N   0  0  0  0  0  0  0  0  0  0  0  0
    8.7168  -14.1430   22.5039 C   0  0  0  0  0  0  0  0  0  0  0  0
    9.7556  -13.4720   22.7309 O   0  0  0  0  0  0  0  0  0  0  0  0
    5.2980  -12.6507   26.3338 C   0  0  0  0  0  0  0  0  0  0  0  0
    6.7009  -12.7342   25.5954 C   0  0  1  0  0  0  0  0  0  0  0  0
    7.5423  -11.6939   26.3079 C   0  0  0  0  0  0  0  0  0  0  0  0
    7.1694  -14.1379   25.7186 C   0  0  0  0  0  0  0  0  0  0  0  0
    8.3909  -14.5226   24.9981 C   0  0  2  0  0  0  0  0  0  0  0  0
    8.0471  -14.7520   23.5665 N   0  0  0  0  0  0  0  0  0  0  0  0
    9.0614  -15.7214   25.4625 C   0  0  0  0  0  0  0  0  0  0  0  0
    9.4920  -15.9661   26.6151 O   0  0  0  0  0  0  0  0  0  0  0  0
    9.2772  -16.7749   24.5280 O   0  0  0  0  0  0  0  0  0  0  0  0
  2  1  1  0
  3  2  1  0
  3  5  1  0
  3  4  1  1
  5  6  2  0
  8  7  1  1
  9  8  1  0
  9  5  1  0
 10  8  1  0
 10 11  2  0
 13 12  1  1
 13 14  1  0
 13 15  1  0
 16 15  1  1
 16 17  1  0
 16 18  1  0
 17 10  1  0
 18 19  2  0
 18 20  1  0
M  END
$$$$
