SAL.pdb
     RDKit          3D

 20 19  0  0  1  0  0  0  0  0999 V2000
    6.4900  -18.8465   23.9718 O   0  0  0  0  0  0  0  0  0  0  0  0
    5.5277  -18.2625   23.1760 C   0  0  0  0  0  0  0  0  0  0  0  0
    6.0793  -18.1195   21.7557 C   0  0  2  0  0  0  0  0  0  0  0  0
    6.5490  -19.4150   21.2801 N   0  0  0  0  0  0  0  0  0  0  0  0
    7.1582  -17.1008   21.6745 C   0  0  0  0  0  0  0  0  0  0  0  0
    8.3613  -17.5489   21.6984 O   0  0  0  0  0  0  0  0  0  0  0  0
    7.4666  -13.4410   21.0657 C   0  0  0  0  0  0  0  0  0  0  0  0
    8.0056  -14.8038   21.5229 C   0  0  2  0  0  0  0  0  0  0  0  0
    6.8994  -15.7160   21.5753 N   0  0  0  0  0  0  0  0  0  0  0  0
    8.5977  -14.5630   22.8697 C   0  0  0  0  0  0  0  0  0  0  0  0
    9.6668  -13.9037   22.9264 O   0  0  0  0  0  0  0  0  0  0  0  0
    5.6679  -12.3988   26.6020 C   0  0  0  0  0  0  0  0  0  0  0  0
    6.9937  -12.7084   25.7856 C   0  0  1  0  0  0  0  0  0  0  0  0
    7.9284  -11.5826   26.1816 C   0  0  0  0  0  0  0  0  0  0  0  0
    7.4285  -14.0745   26.1726 C   0  0  0  0  0  0  0  0  0  0  0  0
    8.5218  -14.6920   25.4093 C   0  0  2  0  0  0  0  0  0  0  0  0
    8.0187  -15.0346   24.0491 N   0  0  0  0  0  0  0  0  0  0  0  0
    9.0866  -15.9074   25.9626 C   0  0  0  0  0  0  0  0  0  0  0  0
    9.6340  -16.0633   27.0805 O   0  0  0  0  0  0  0  0  0  0  0  0
    9.0339  -17.0923   25.1733 O   0  0  0  0  0  0  0  0  0  0  0  0
  2  1  1  0
  3  2  1  0
  3  5  1  0
  3  4  1  1
  5  6  2  0
  8  7  1  1
  9  8  1  0
  9  5  1  0
 10  8  1  0
 10 11  2  0
 13 12  1  1
 13 14  1  0
 13 15  1  0
 16 15  1  1
 16 17  1  0
 16 18  1  0
 17 10  1  0
 18 19  2  0
 18 20  1  0
M  END
$$$$
