SAL.pdb
     RDKit          3D

 20 19  0  0  1  0  0  0  0  0999 V2000
   10.1360  -16.6182   18.9015 O   0  0  0  0  0  0  0  0  0  0  0  0
    9.4362  -16.0200   19.9275 C   0  0  0  0  0  0  0  0  0  0  0  0
    8.1651  -16.8283   20.1977 C   0  0  2  0  0  0  0  0  0  0  0  0
    7.1615  -16.5145   19.1881 N   0  0  0  0  0  0  0  0  0  0  0  0
    7.6337  -16.5945   21.5656 C   0  0  0  0  0  0  0  0  0  0  0  0
    7.0002  -15.4921   21.7449 O   0  0  0  0  0  0  0  0  0  0  0  0
    7.2677  -18.4900   24.7488 C   0  0  0  0  0  0  0  0  0  0  0  0
    7.2604  -17.2026   23.9126 C   0  0  2  0  0  0  0  0  0  0  0  0
    7.8024  -17.5168   22.6218 N   0  0  0  0  0  0  0  0  0  0  0  0
    8.1181  -16.2402   24.6614 C   0  0  0  0  0  0  0  0  0  0  0  0
    9.3437  -16.2130   24.3818 O   0  0  0  0  0  0  0  0  0  0  0  0
    5.7909  -11.7084   27.0446 C   0  0  0  0  0  0  0  0  0  0  0  0
    6.6356  -12.6830   26.1189 C   0  0  1  0  0  0  0  0  0  0  0  0
    7.2613  -11.7534   25.0980 C   0  0  0  0  0  0  0  0  0  0  0  0
    7.5859  -13.4021   27.0048 C   0  0  0  0  0  0  0  0  0  0  0  0
    8.4621  -14.4141   26.3988 C   0  0  2  0  0  0  0  0  0  0  0  0
    7.6189  -15.3835   25.6439 N   0  0  0  0  0  0  0  0  0  0  0  0
    9.2744  -15.1929   27.3132 C   0  0  0  0  0  0  0  0  0  0  0  0
   10.3116  -14.8329   27.9201 O   0  0  0  0  0  0  0  0  0  0  0  0
    8.8816  -16.5354   27.5836 O   0  0  0  0  0  0  0  0  0  0  0  0
  2  1  1  0
  3  2  1  0
  3  5  1  0
  3  4  1  6
  5  6  2  0
  8  7  1  1
  9  8  1  0
  9  5  1  0
 10  8  1  0
 10 11  2  0
 13 12  1  1
 13 14  1  0
 13 15  1  0
 16 15  1  1
 16 17  1  0
 16 18  1  0
 17 10  1  0
 18 19  2  0
 18 20  1  0
M  END
$$$$
