SAL.pdb
     RDKit          3D

 20 19  0  0  1  0  0  0  0  0999 V2000
    6.5262  -18.2048   23.5753 O   0  0  0  0  0  0  0  0  0  0  0  0
    5.4456  -18.0195   22.7397 C   0  0  0  0  0  0  0  0  0  0  0  0
    5.9561  -17.7265   21.3271 C   0  0  2  0  0  0  0  0  0  0  0  0
    6.3251  -18.9749   20.6710 N   0  0  0  0  0  0  0  0  0  0  0  0
    7.0948  -16.7716   21.3306 C   0  0  0  0  0  0  0  0  0  0  0  0
    8.2656  -17.2889   21.4322 O   0  0  0  0  0  0  0  0  0  0  0  0
    7.6336  -13.1005   20.9345 C   0  0  0  0  0  0  0  0  0  0  0  0
    8.0778  -14.5244   21.2977 C   0  0  2  0  0  0  0  0  0  0  0  0
    6.9234  -15.3735   21.2282 N   0  0  0  0  0  0  0  0  0  0  0  0
    8.6199  -14.4279   22.6832 C   0  0  0  0  0  0  0  0  0  0  0  0
    9.8013  -14.0195   22.8190 O   0  0  0  0  0  0  0  0  0  0  0  0
    5.7529  -12.3895   26.7338 C   0  0  0  0  0  0  0  0  0  0  0  0
    7.0366  -12.6863   25.8482 C   0  0  1  0  0  0  0  0  0  0  0  0
    8.0474  -11.6646   26.3302 C   0  0  0  0  0  0  0  0  0  0  0  0
    7.3974  -14.1085   26.0761 C   0  0  0  0  0  0  0  0  0  0  0  0
    8.4150  -14.7099   25.2031 C   0  0  2  0  0  0  0  0  0  0  0  0
    7.8769  -14.7685   23.8148 N   0  0  0  0  0  0  0  0  0  0  0  0
    8.8406  -16.0540   25.5417 C   0  0  0  0  0  0  0  0  0  0  0  0
    8.7193  -17.0966   24.8548 O   0  0  0  0  0  0  0  0  0  0  0  0
    9.4794  -16.2595   26.7985 O   0  0  0  0  0  0  0  0  0  0  0  0
  2  1  1  0
  3  2  1  0
  3  5  1  0
  3  4  1  1
  5  6  2  0
  8  7  1  1
  9  8  1  0
  9  5  1  0
 10  8  1  0
 10 11  2  0
 13 12  1  1
 13 14  1  0
 13 15  1  0
 16 15  1  1
 16 17  1  0
 16 18  1  0
 17 10  1  0
 18 19  2  0
 18 20  1  0
M  END
$$$$
