ELS.pdb
     RDKit          3D

 24 23  0  0  1  0  0  0  0  0999 V2000
   27.6614  -22.1629  -15.5806 N   0  0  0  0  0  0  0  0  0  0  0  0
   27.1332  -20.9279  -15.1204 C   0  0  1  0  0  0  0  0  0  0  0  0
   26.8900  -19.8664  -16.1198 C   0  0  0  0  0  0  0  0  0  0  0  0
   25.8753  -20.2277  -17.1274 C   0  0  0  0  0  0  0  0  0  0  0  0
   25.6036  -19.2827  -18.2052 C   0  0  0  0  0  0  0  0  0  0  0  0
   26.2390  -18.2113  -18.3061 O   0  0  0  0  0  0  0  0  0  0  0  0
   25.9036  -21.2342  -14.3057 C   0  0  0  0  0  0  0  0  0  0  0  0
   25.0952  -22.1401  -14.6579 O   0  0  0  0  0  0  0  0  0  0  0  0
   24.6148  -19.5348  -19.1773 O   0  0  0  0  0  0  0  0  0  0  0  0
   25.8598  -22.2885  -10.0026 C   0  0  0  0  0  0  0  0  0  0  0  0
   26.0584  -20.7949  -10.3001 C   0  0  2  0  0  0  0  0  0  0  0  0
   26.4164  -20.1437   -8.9996 C   0  0  0  0  0  0  0  0  0  0  0  0
   24.7927  -20.3109  -10.9025 C   0  0  0  0  0  0  0  0  0  0  0  0
   24.4610  -20.8279  -12.2585 C   0  0  2  0  0  0  0  0  0  0  0  0
   25.5929  -20.5306  -13.1165 N   0  0  0  0  0  0  0  0  0  0  0  0
   23.2584  -20.1805  -12.8499 C   0  0  0  0  0  0  0  0  0  0  0  0
   23.4232  -19.2404  -13.6642 O   0  0  0  0  0  0  0  0  0  0  0  0
   20.0279  -21.2869  -15.6209 O   0  0  0  0  0  0  0  0  0  0  0  0
   21.0664  -21.3801  -14.7017 C   0  0  0  0  0  0  0  0  0  0  0  0
   20.8371  -20.5022  -13.4922 C   0  0  2  0  0  0  0  0  0  0  0  0
   21.9240  -20.5581  -12.5521 N   0  0  0  0  0  0  0  0  0  0  0  0
   19.5294  -20.7950  -12.8717 C   0  0  0  0  0  0  0  0  0  0  0  0
   18.3200  -20.2490  -13.2773 O   0  0  0  0  0  0  0  0  0  0  0  0
   19.4911  -21.5953  -11.9038 O   0  0  0  0  0  0  0  0  0  0  0  0
  2  1  1  6
  2  3  1  0
  3  4  1  0
  4  5  1  0
  5  6  2  0
  5  9  1  0
  7  2  1  0
  7  8  2  0
 11 10  1  1
 11 13  1  0
 11 12  1  0
 14 13  1  1
 14 15  1  0
 14 16  1  0
 15  7  1  0
 16 21  1  0
 17 16  2  0
 19 18  1  0
 20 19  1  6
 20 22  1  0
 21 20  1  0
 22 24  2  0
 22 23  1  0
M  END
$$$$
