ELS.pdb
     RDKit          3D

 24 23  0  0  1  0  0  0  0  0999 V2000
   22.7030  -33.6986  -13.3496 N   0  0  0  0  0  0  0  0  0  0  0  0
   23.7650  -34.6330  -13.4710 C   0  0  1  0  0  0  0  0  0  0  0  0
   24.9224  -34.2567  -14.3097 C   0  0  0  0  0  0  0  0  0  0  0  0
   24.5711  -34.0066  -15.7201 C   0  0  0  0  0  0  0  0  0  0  0  0
   24.3334  -35.1550  -16.5880 C   0  0  0  0  0  0  0  0  0  0  0  0
   24.4202  -36.3247  -16.1568 O   0  0  0  0  0  0  0  0  0  0  0  0
   24.1784  -35.0355  -12.0793 C   0  0  0  0  0  0  0  0  0  0  0  0
   25.0993  -35.8805  -11.8897 O   0  0  0  0  0  0  0  0  0  0  0  0
   23.9968  -34.9968  -17.9473 O   0  0  0  0  0  0  0  0  0  0  0  0
   26.5634  -33.5875   -8.8753 C   0  0  0  0  0  0  0  0  0  0  0  0
   25.3254  -32.7523   -9.2339 C   0  0  2  0  0  0  0  0  0  0  0  0
   25.4654  -31.4479   -8.5110 C   0  0  0  0  0  0  0  0  0  0  0  0
   24.1433  -33.5535   -8.8342 C   0  0  0  0  0  0  0  0  0  0  0  0
   23.9307  -34.8344   -9.5623 C   0  0  2  0  0  0  0  0  0  0  0  0
   23.5630  -34.4943  -10.9243 N   0  0  0  0  0  0  0  0  0  0  0  0
   22.8322  -35.6562   -8.9853 C   0  0  0  0  0  0  0  0  0  0  0  0
   22.9247  -36.0260   -7.7901 O   0  0  0  0  0  0  0  0  0  0  0  0
   19.0287  -35.2971  -10.1506 O   0  0  0  0  0  0  0  0  0  0  0  0
   19.2963  -36.6358   -9.8889 C   0  0  0  0  0  0  0  0  0  0  0  0
   20.5965  -36.8209   -9.1398 C   0  0  2  0  0  0  0  0  0  0  0  0
   21.6751  -36.0541   -9.7028 N   0  0  0  0  0  0  0  0  0  0  0  0
   20.9245  -38.2544   -9.0043 C   0  0  0  0  0  0  0  0  0  0  0  0
   20.4772  -39.0762   -7.9798 O   0  0  0  0  0  0  0  0  0  0  0  0
   21.6622  -38.7849   -9.8723 O   0  0  0  0  0  0  0  0  0  0  0  0
  2  1  1  1
  2  3  1  0
  3  4  1  0
  4  5  1  0
  5  6  2  0
  5  9  1  0
  7  2  1  0
  7  8  2  0
 11 10  1  1
 11 13  1  0
 11 12  1  0
 14 13  1  1
 14 15  1  0
 14 16  1  0
 15  7  1  0
 16 21  1  0
 17 16  2  0
 19 18  1  0
 20 19  1  6
 20 22  1  0
 21 20  1  0
 22 24  2  0
 22 23  1  0
M  END
$$$$
