ELS.pdb
     RDKit          3D

 24 23  0  0  1  0  0  0  0  0999 V2000
   26.8510  -20.3250  -14.9184 N   0  0  0  0  0  0  0  0  0  0  0  0
   26.5705  -19.3553  -15.9169 C   0  0  1  0  0  0  0  0  0  0  0  0
   26.1239  -19.8374  -17.2407 C   0  0  0  0  0  0  0  0  0  0  0  0
   24.8922  -20.6469  -17.1878 C   0  0  0  0  0  0  0  0  0  0  0  0
   23.6241  -19.9987  -17.5045 C   0  0  0  0  0  0  0  0  0  0  0  0
   23.4535  -19.3982  -18.5871 O   0  0  0  0  0  0  0  0  0  0  0  0
   25.6130  -18.3550  -15.3234 C   0  0  0  0  0  0  0  0  0  0  0  0
   24.7486  -18.7046  -14.4697 O   0  0  0  0  0  0  0  0  0  0  0  0
   22.5385  -20.0203  -16.6060 O   0  0  0  0  0  0  0  0  0  0  0  0
   26.9197  -15.1223  -16.9813 C   0  0  0  0  0  0  0  0  0  0  0  0
   25.9426  -14.1177  -16.3528 C   0  0  2  0  0  0  0  0  0  0  0  0
   26.6870  -12.8252  -16.2162 C   0  0  0  0  0  0  0  0  0  0  0  0
   25.4951  -14.7087  -15.0685 C   0  0  0  0  0  0  0  0  0  0  0  0
   24.7297  -15.9827  -15.1532 C   0  0  2  0  0  0  0  0  0  0  0  0
   25.6311  -16.9865  -15.6876 N   0  0  0  0  0  0  0  0  0  0  0  0
   23.5541  -15.8958  -16.0619 C   0  0  0  0  0  0  0  0  0  0  0  0
   23.7153  -16.1611  -17.2774 O   0  0  0  0  0  0  0  0  0  0  0  0
   18.9020  -16.3610  -16.9248 O   0  0  0  0  0  0  0  0  0  0  0  0
   20.0217  -16.4529  -16.1064 C   0  0  0  0  0  0  0  0  0  0  0  0
   21.1040  -15.4775  -16.5103 C   0  0  2  0  0  0  0  0  0  0  0  0
   22.2497  -15.5294  -15.6423 N   0  0  0  0  0  0  0  0  0  0  0  0
   20.5554  -14.1137  -16.6512 C   0  0  0  0  0  0  0  0  0  0  0  0
   21.0021  -13.0035  -15.9490 O   0  0  0  0  0  0  0  0  0  0  0  0
   19.6142  -13.9273  -17.4626 O   0  0  0  0  0  0  0  0  0  0  0  0
  2  1  1  1
  2  3  1  0
  3  4  1  0
  4  5  1  0
  5  6  2  0
  5  9  1  0
  7  2  1  0
  7  8  2  0
 11 10  1  1
 11 13  1  0
 11 12  1  0
 14 13  1  6
 14 15  1  0
 14 16  1  0
 15  7  1  0
 16 21  1  0
 17 16  2  0
 19 18  1  0
 20 19  1  1
 20 22  1  0
 21 20  1  0
 22 24  2  0
 22 23  1  0
M  END
$$$$
