ELS.pdb
     RDKit          3D

 24 23  0  0  1  0  0  0  0  0999 V2000
   18.8410  -10.8585  -17.7064 N   0  0  0  0  0  0  0  0  0  0  0  0
   18.0245  -10.3205  -16.6769 C   0  0  1  0  0  0  0  0  0  0  0  0
   17.1016  -11.2391  -15.9775 C   0  0  0  0  0  0  0  0  0  0  0  0
   16.3516  -12.1256  -16.8869 C   0  0  0  0  0  0  0  0  0  0  0  0
   15.4762  -13.1357  -16.3023 C   0  0  0  0  0  0  0  0  0  0  0  0
   15.3917  -13.2849  -15.0644 O   0  0  0  0  0  0  0  0  0  0  0  0
   18.9250   -9.5825  -15.7208 C   0  0  0  0  0  0  0  0  0  0  0  0
   18.4818   -9.1193  -14.6312 O   0  0  0  0  0  0  0  0  0  0  0  0
   14.6897  -13.9860  -17.1051 O   0  0  0  0  0  0  0  0  0  0  0  0
   22.5510  -10.8430  -13.4960 C   0  0  0  0  0  0  0  0  0  0  0  0
   22.7438  -10.7061  -15.0135 C   0  0  2  0  0  0  0  0  0  0  0  0
   24.1045  -11.2506  -15.3225 C   0  0  0  0  0  0  0  0  0  0  0  0
   22.5686   -9.2691  -15.3350 C   0  0  0  0  0  0  0  0  0  0  0  0
   21.2171   -8.6934  -15.0941 C   0  0  2  0  0  0  0  0  0  0  0  0
   20.2992   -9.3716  -15.9904 N   0  0  0  0  0  0  0  0  0  0  0  0
   21.1453   -7.2357  -15.3855 C   0  0  0  0  0  0  0  0  0  0  0  0
   21.1893   -6.8608  -16.5819 O   0  0  0  0  0  0  0  0  0  0  0  0
   19.5815   -2.8499  -14.5394 O   0  0  0  0  0  0  0  0  0  0  0  0
   19.6418   -4.2086  -14.2522 C   0  0  0  0  0  0  0  0  0  0  0  0
   20.9599   -4.8209  -14.6690 C   0  0  2  0  0  0  0  0  0  0  0  0
   21.0292   -6.2304  -14.3916 N   0  0  0  0  0  0  0  0  0  0  0  0
   22.0931   -4.0690  -14.0934 C   0  0  0  0  0  0  0  0  0  0  0  0
   22.7211   -2.9925  -14.7032 O   0  0  0  0  0  0  0  0  0  0  0  0
   22.5336   -4.4166  -12.9691 O   0  0  0  0  0  0  0  0  0  0  0  0
  2  1  1  6
  2  3  1  0
  3  4  1  0
  4  5  1  0
  5  6  2  0
  5  9  1  0
  7  2  1  0
  7  8  2  0
 11 10  1  1
 11 13  1  0
 11 12  1  0
 14 13  1  6
 14 15  1  0
 14 16  1  0
 15  7  1  0
 16 21  1  0
 17 16  2  0
 19 18  1  0
 20 19  1  1
 20 22  1  0
 21 20  1  0
 22 24  2  0
 22 23  1  0
M  END
$$$$
