ELS.pdb
     RDKit          3D

 24 23  0  0  1  0  0  0  0  0999 V2000
   19.3607  -23.0142  -11.8666 N   0  0  0  0  0  0  0  0  0  0  0  0
   19.9696  -22.9453  -13.1474 C   0  0  1  0  0  0  0  0  0  0  0  0
   19.0901  -23.0069  -14.3336 C   0  0  0  0  0  0  0  0  0  0  0  0
   17.7894  -22.3397  -14.1377 C   0  0  0  0  0  0  0  0  0  0  0  0
   16.5899  -23.0015  -14.6393 C   0  0  0  0  0  0  0  0  0  0  0  0
   16.6447  -24.1313  -15.1706 O   0  0  0  0  0  0  0  0  0  0  0  0
   20.8606  -21.7305  -13.1628 C   0  0  0  0  0  0  0  0  0  0  0  0
   20.4193  -20.5921  -12.8352 O   0  0  0  0  0  0  0  0  0  0  0  0
   15.3198  -22.3977  -14.5477 O   0  0  0  0  0  0  0  0  0  0  0  0
   24.0188  -20.2809  -10.7815 C   0  0  0  0  0  0  0  0  0  0  0  0
   24.4522  -21.5276  -11.5668 C   0  0  2  0  0  0  0  0  0  0  0  0
   25.8015  -21.9147  -11.0441 C   0  0  0  0  0  0  0  0  0  0  0  0
   24.4325  -21.1528  -13.0014 C   0  0  0  0  0  0  0  0  0  0  0  0
   23.1335  -20.6700  -13.5451 C   0  0  2  0  0  0  0  0  0  0  0  0
   22.2235  -21.8003  -13.5413 N   0  0  0  0  0  0  0  0  0  0  0  0
   23.2371  -20.1730  -14.9442 C   0  0  0  0  0  0  0  0  0  0  0  0
   23.3730  -21.0098  -15.8689 O   0  0  0  0  0  0  0  0  0  0  0  0
   23.3331  -16.3555  -18.0525 O   0  0  0  0  0  0  0  0  0  0  0  0
   23.2129  -16.8115  -16.7449 C   0  0  0  0  0  0  0  0  0  0  0  0
   23.3422  -18.3150  -16.6518 C   0  0  2  0  0  0  0  0  0  0  0  0
   23.1922  -18.8025  -15.3070 N   0  0  0  0  0  0  0  0  0  0  0  0
   24.5920  -18.7748  -17.2900 C   0  0  0  0  0  0  0  0  0  0  0  0
   24.6915  -19.2402  -18.5934 O   0  0  0  0  0  0  0  0  0  0  0  0
   25.6530  -18.7494  -16.6173 O   0  0  0  0  0  0  0  0  0  0  0  0
  2  1  1  1
  2  3  1  0
  3  4  1  0
  4  5  1  0
  5  6  2  0
  5  9  1  0
  7  2  1  0
  7  8  2  0
 11 10  1  1
 11 13  1  0
 11 12  1  0
 14 13  1  6
 14 15  1  0
 14 16  1  0
 15  7  1  0
 16 21  1  0
 17 16  2  0
 19 18  1  0
 20 19  1  1
 20 22  1  0
 21 20  1  0
 22 24  2  0
 22 23  1  0
M  END
$$$$
