ELS.pdb
     RDKit          3D

 24 23  0  0  1  0  0  0  0  0999 V2000
   20.1071  -12.6538  -17.2590 N   0  0  0  0  0  0  0  0  0  0  0  0
   20.6328  -11.4839  -17.8680 C   0  0  1  0  0  0  0  0  0  0  0  0
   19.7648  -10.7474  -18.8108 C   0  0  0  0  0  0  0  0  0  0  0  0
   19.2577  -11.5800  -19.9175 C   0  0  0  0  0  0  0  0  0  0  0  0
   19.1453  -10.9773  -21.2414 C   0  0  0  0  0  0  0  0  0  0  0  0
   18.4460   -9.9599  -21.4352 O   0  0  0  0  0  0  0  0  0  0  0  0
   21.1606  -10.5974  -16.7702 C   0  0  0  0  0  0  0  0  0  0  0  0
   20.4573  -10.3238  -15.7560 O   0  0  0  0  0  0  0  0  0  0  0  0
   19.8179  -11.5143  -22.3573 O   0  0  0  0  0  0  0  0  0  0  0  0
   24.6804  -11.0339  -14.0664 C   0  0  0  0  0  0  0  0  0  0  0  0
   24.9994  -10.7430  -15.5403 C   0  0  2  0  0  0  0  0  0  0  0  0
   26.4799  -10.9072  -15.6980 C   0  0  0  0  0  0  0  0  0  0  0  0
   24.4989   -9.3754  -15.8203 C   0  0  0  0  0  0  0  0  0  0  0  0
   23.0228   -9.1863  -15.7812 C   0  0  2  0  0  0  0  0  0  0  0  0
   22.4576  -10.0305  -16.8174 N   0  0  0  0  0  0  0  0  0  0  0  0
   22.6084   -7.7841  -16.0592 C   0  0  0  0  0  0  0  0  0  0  0  0
   22.7574   -7.3343  -17.2208 O   0  0  0  0  0  0  0  0  0  0  0  0
   19.5024   -5.8402  -14.2805 O   0  0  0  0  0  0  0  0  0  0  0  0
   20.1367   -5.4137  -15.4414 C   0  0  0  0  0  0  0  0  0  0  0  0
   21.6391   -5.5602  -15.3565 C   0  0  2  0  0  0  0  0  0  0  0  0
   22.0504   -6.9123  -15.0895 N   0  0  0  0  0  0  0  0  0  0  0  0
   22.2077   -4.5905  -14.3988 C   0  0  0  0  0  0  0  0  0  0  0  0
   22.1254   -3.2111  -14.5250 O   0  0  0  0  0  0  0  0  0  0  0  0
   22.8140   -5.0298  -13.3898 O   0  0  0  0  0  0  0  0  0  0  0  0
  2  1  1  1
  2  3  1  0
  3  4  1  0
  4  5  1  0
  5  6  2  0
  5  9  1  0
  7  2  1  0
  7  8  2  0
 11 10  1  1
 11 13  1  0
 11 12  1  0
 14 13  1  6
 14 15  1  0
 14 16  1  0
 15  7  1  0
 16 21  1  0
 17 16  2  0
 19 18  1  0
 20 19  1  1
 20 22  1  0
 21 20  1  0
 22 24  2  0
 22 23  1  0
M  END
$$$$
