ELS.pdb
     RDKit          3D

 24 23  0  0  1  0  0  0  0  0999 V2000
   24.0659  -20.5636  -14.2344 N   0  0  0  0  0  0  0  0  0  0  0  0
   23.1504  -20.2947  -13.1831 C   0  0  1  0  0  0  0  0  0  0  0  0
   21.7293  -20.6375  -13.4013 C   0  0  0  0  0  0  0  0  0  0  0  0
   21.0906  -19.8481  -14.4709 C   0  0  0  0  0  0  0  0  0  0  0  0
   20.5401  -18.5404  -14.1311 C   0  0  0  0  0  0  0  0  0  0  0  0
   21.2622  -17.5212  -14.0924 O   0  0  0  0  0  0  0  0  0  0  0  0
   23.7005  -20.9225  -11.9290 C   0  0  0  0  0  0  0  0  0  0  0  0
   24.0356  -22.1411  -11.9009 O   0  0  0  0  0  0  0  0  0  0  0  0
   19.1737  -18.3690  -13.8316 O   0  0  0  0  0  0  0  0  0  0  0  0
   26.6632  -19.1498   -7.0156 C   0  0  0  0  0  0  0  0  0  0  0  0
   25.6966  -20.2550   -7.4661 C   0  0  2  0  0  0  0  0  0  0  0  0
   26.4500  -21.5463   -7.3732 C   0  0  0  0  0  0  0  0  0  0  0  0
   25.2536  -19.8983   -8.8356 C   0  0  0  0  0  0  0  0  0  0  0  0
   24.2192  -20.7752   -9.4498 C   0  0  2  0  0  0  0  0  0  0  0  0
   23.8685  -20.1881  -10.7297 N   0  0  0  0  0  0  0  0  0  0  0  0
   22.9770  -20.8680   -8.6353 C   0  0  0  0  0  0  0  0  0  0  0  0
   22.3595  -19.8109   -8.3615 O   0  0  0  0  0  0  0  0  0  0  0  0
   21.2290  -24.5878   -7.3193 O   0  0  0  0  0  0  0  0  0  0  0  0
   20.4723  -23.4629   -7.6266 C   0  0  0  0  0  0  0  0  0  0  0  0
   21.2291  -22.1796   -7.3691 C   0  0  2  0  0  0  0  0  0  0  0  0
   22.4381  -22.0839   -8.1421 N   0  0  0  0  0  0  0  0  0  0  0  0
   21.4588  -21.9870   -5.9230 C   0  0  0  0  0  0  0  0  0  0  0  0
   20.4584  -21.8026   -4.9795 O   0  0  0  0  0  0  0  0  0  0  0  0
   22.6416  -21.9874   -5.4989 O   0  0  0  0  0  0  0  0  0  0  0  0
  2  1  1  6
  2  3  1  0
  3  4  1  0
  4  5  1  0
  5  6  2  0
  5  9  1  0
  7  2  1  0
  7  8  2  0
 11 10  1  6
 11 13  1  0
 11 12  1  0
 14 13  1  1
 14 15  1  0
 14 16  1  0
 15  7  1  0
 16 21  1  0
 17 16  2  0
 19 18  1  0
 20 19  1  1
 20 22  1  0
 21 20  1  0
 22 24  2  0
 22 23  1  0
M  END
$$$$
