ELS.pdb
     RDKit          3D

 24 23  0  0  1  0  0  0  0  0999 V2000
   21.3882  -11.9577  -18.0081 N   0  0  0  0  0  0  0  0  0  0  0  0
   20.5739  -11.7791  -16.8588 C   0  0  1  0  0  0  0  0  0  0  0  0
   20.0570  -12.9887  -16.1848 C   0  0  0  0  0  0  0  0  0  0  0  0
   19.3058  -13.8870  -17.0816 C   0  0  0  0  0  0  0  0  0  0  0  0
   18.7418  -15.1104  -16.5215 C   0  0  0  0  0  0  0  0  0  0  0  0
   19.1004  -16.2366  -16.9272 O   0  0  0  0  0  0  0  0  0  0  0  0
   21.3168  -10.8738  -15.9110 C   0  0  0  0  0  0  0  0  0  0  0  0
   20.9063  -10.6855  -14.7303 O   0  0  0  0  0  0  0  0  0  0  0  0
   17.7700  -15.0766  -15.5015 O   0  0  0  0  0  0  0  0  0  0  0  0
   25.5055  -10.6697  -14.1351 C   0  0  0  0  0  0  0  0  0  0  0  0
   25.3574  -10.5013  -15.6545 C   0  0  2  0  0  0  0  0  0  0  0  0
   26.7427  -10.5185  -16.2238 C   0  0  0  0  0  0  0  0  0  0  0  0
   24.6193   -9.2333  -15.8704 C   0  0  0  0  0  0  0  0  0  0  0  0
   23.1875   -9.2194  -15.4633 C   0  0  2  0  0  0  0  0  0  0  0  0
   22.5001  -10.1941  -16.2898 N   0  0  0  0  0  0  0  0  0  0  0  0
   22.5346   -7.8991  -15.6771 C   0  0  0  0  0  0  0  0  0  0  0  0
   22.4560   -7.4518  -16.8465 O   0  0  0  0  0  0  0  0  0  0  0  0
   19.3792   -4.5150  -14.4787 O   0  0  0  0  0  0  0  0  0  0  0  0
   19.9998   -5.7289  -14.2081 C   0  0  0  0  0  0  0  0  0  0  0  0
   21.3714   -5.8204  -14.8377 C   0  0  2  0  0  0  0  0  0  0  0  0
   21.9895   -7.1034  -14.6371 N   0  0  0  0  0  0  0  0  0  0  0  0
   22.2264   -4.6994  -14.3980 C   0  0  0  0  0  0  0  0  0  0  0  0
   22.3823   -3.5046  -15.0860 O   0  0  0  0  0  0  0  0  0  0  0  0
   22.8671   -4.8200  -13.3238 O   0  0  0  0  0  0  0  0  0  0  0  0
  2  1  1  6
  2  3  1  0
  3  4  1  0
  4  5  1  0
  5  6  2  0
  5  9  1  0
  7  2  1  0
  7  8  2  0
 11 10  1  1
 11 13  1  0
 11 12  1  0
 14 13  1  6
 14 15  1  0
 14 16  1  0
 15  7  1  0
 16 21  1  0
 17 16  2  0
 19 18  1  0
 20 19  1  1
 20 22  1  0
 21 20  1  0
 22 24  2  0
 22 23  1  0
M  END
$$$$
