ELS.pdb
     RDKit          3D

 24 23  0  0  1  0  0  0  0  0999 V2000
   18.2237  -12.1991  -17.0192 N   0  0  0  0  0  0  0  0  0  0  0  0
   18.8341  -10.9974  -17.4656 C   0  0  1  0  0  0  0  0  0  0  0  0
   17.9848  -10.0110  -18.1658 C   0  0  0  0  0  0  0  0  0  0  0  0
   17.3489  -10.5422  -19.3859 C   0  0  0  0  0  0  0  0  0  0  0  0
   16.5196   -9.6434  -20.1813 C   0  0  0  0  0  0  0  0  0  0  0  0
   15.3741   -9.9754  -20.5545 O   0  0  0  0  0  0  0  0  0  0  0  0
   19.5588  -10.3920  -16.2918 C   0  0  0  0  0  0  0  0  0  0  0  0
   19.0587  -10.4174  -15.1311 O   0  0  0  0  0  0  0  0  0  0  0  0
   16.9721   -8.3646  -20.5635 O   0  0  0  0  0  0  0  0  0  0  0  0
   22.9306  -11.0775  -13.5270 C   0  0  0  0  0  0  0  0  0  0  0  0
   23.1935  -10.9539  -15.0351 C   0  0  2  0  0  0  0  0  0  0  0  0
   24.6024  -11.4089  -15.2623 C   0  0  0  0  0  0  0  0  0  0  0  0
   22.9387   -9.5381  -15.3951 C   0  0  0  0  0  0  0  0  0  0  0  0
   21.5210   -9.0858  -15.3532 C   0  0  2  0  0  0  0  0  0  0  0  0
   20.8238   -9.7696  -16.4266 N   0  0  0  0  0  0  0  0  0  0  0  0
   21.3708   -7.6214  -15.5723 C   0  0  0  0  0  0  0  0  0  0  0  0
   21.6717   -7.1494  -16.6951 O   0  0  0  0  0  0  0  0  0  0  0  0
   19.4819   -3.3208  -14.5159 O   0  0  0  0  0  0  0  0  0  0  0  0
   19.5538   -4.6871  -14.2706 C   0  0  0  0  0  0  0  0  0  0  0  0
   20.8523   -5.2864  -14.7611 C   0  0  2  0  0  0  0  0  0  0  0  0
   20.9055   -6.7131  -14.5872 N   0  0  0  0  0  0  0  0  0  0  0  0
   22.0099   -4.5941  -14.1599 C   0  0  0  0  0  0  0  0  0  0  0  0
   22.6580   -3.5021  -14.7191 O   0  0  0  0  0  0  0  0  0  0  0  0
   22.4535   -5.0119  -13.0610 O   0  0  0  0  0  0  0  0  0  0  0  0
  2  1  1  1
  2  3  1  0
  3  4  1  0
  4  5  1  0
  5  6  2  0
  5  9  1  0
  7  2  1  0
  7  8  2  0
 11 10  1  1
 11 13  1  0
 11 12  1  0
 14 13  1  6
 14 15  1  0
 14 16  1  0
 15  7  1  0
 16 21  1  0
 17 16  2  0
 19 18  1  0
 20 19  1  1
 20 22  1  0
 21 20  1  0
 22 24  2  0
 22 23  1  0
M  END
$$$$
