ELS.pdb
     RDKit          3D

 24 23  0  0  1  0  0  0  0  0999 V2000
   19.8029  -21.0163  -11.6966 N   0  0  0  0  0  0  0  0  0  0  0  0
   20.4856  -21.5302  -12.8306 C   0  0  1  0  0  0  0  0  0  0  0  0
   19.6952  -21.7913  -14.0519 C   0  0  0  0  0  0  0  0  0  0  0  0
   18.6990  -22.8667  -13.8900 C   0  0  0  0  0  0  0  0  0  0  0  0
   19.1504  -24.2499  -13.9968 C   0  0  0  0  0  0  0  0  0  0  0  0
   18.3724  -25.2055  -13.7892 O   0  0  0  0  0  0  0  0  0  0  0  0
   21.6647  -20.6313  -13.0978 C   0  0  0  0  0  0  0  0  0  0  0  0
   21.5394  -19.3733  -13.1036 O   0  0  0  0  0  0  0  0  0  0  0  0
   20.4803  -24.5689  -14.3372 O   0  0  0  0  0  0  0  0  0  0  0  0
   27.6886  -21.5947  -13.1648 C   0  0  0  0  0  0  0  0  0  0  0  0
   26.6396  -20.5735  -13.6291 C   0  0  2  0  0  0  0  0  0  0  0  0
   27.0138  -19.2631  -13.0076 C   0  0  0  0  0  0  0  0  0  0  0  0
   25.3193  -21.1002  -13.2064 C   0  0  0  0  0  0  0  0  0  0  0  0
   24.1242  -20.3259  -13.6403 C   0  0  2  0  0  0  0  0  0  0  0  0
   22.9600  -21.1433  -13.3540 N   0  0  0  0  0  0  0  0  0  0  0  0
   24.1232  -20.0259  -15.0981 C   0  0  0  0  0  0  0  0  0  0  0  0
   24.0955  -20.9843  -15.9071 O   0  0  0  0  0  0  0  0  0  0  0  0
   23.8988  -16.0843  -16.4856 O   0  0  0  0  0  0  0  0  0  0  0  0
   23.4338  -17.0849  -17.3310 C   0  0  0  0  0  0  0  0  0  0  0  0
   24.0851  -18.4193  -17.0465 C   0  0  2  0  0  0  0  0  0  0  0  0
   24.1518  -18.7157  -15.6407 N   0  0  0  0  0  0  0  0  0  0  0  0
   25.3993  -18.5146  -17.7134 C   0  0  0  0  0  0  0  0  0  0  0  0
   25.5849  -18.6930  -19.0768 O   0  0  0  0  0  0  0  0  0  0  0  0
   26.4363  -18.4299  -17.0089 O   0  0  0  0  0  0  0  0  0  0  0  0
  2  1  1  1
  2  3  1  0
  3  4  1  0
  4  5  1  0
  5  6  2  0
  5  9  1  0
  7  2  1  0
  7  8  2  0
 11 10  1  1
 11 13  1  0
 11 12  1  0
 14 13  1  6
 14 15  1  0
 14 16  1  0
 15  7  1  0
 16 21  1  0
 17 16  2  0
 19 18  1  0
 20 19  1  1
 20 22  1  0
 21 20  1  0
 22 24  2  0
 22 23  1  0
M  END
$$$$
