ELS.pdb
     RDKit          3D

 24 23  0  0  1  0  0  0  0  0999 V2000
   27.6852  -19.2429  -16.8516 N   0  0  0  0  0  0  0  0  0  0  0  0
   26.7786  -18.5650  -15.9945 C   0  0  1  0  0  0  0  0  0  0  0  0
   25.8876  -17.5508  -16.5962 C   0  0  0  0  0  0  0  0  0  0  0  0
   25.1754  -18.0298  -17.7956 C   0  0  0  0  0  0  0  0  0  0  0  0
   23.8708  -18.6590  -17.6203 C   0  0  0  0  0  0  0  0  0  0  0  0
   23.0023  -18.1578  -16.8746 O   0  0  0  0  0  0  0  0  0  0  0  0
   26.0130  -19.6095  -15.2247 C   0  0  0  0  0  0  0  0  0  0  0  0
   25.8940  -20.7888  -15.6641 O   0  0  0  0  0  0  0  0  0  0  0  0
   23.5332  -19.8567  -18.2819 O   0  0  0  0  0  0  0  0  0  0  0  0
   25.3788  -20.5333   -9.3965 C   0  0  0  0  0  0  0  0  0  0  0  0
   25.2326  -21.1294  -10.8044 C   0  0  2  0  0  0  0  0  0  0  0  0
   26.4542  -21.9619  -11.0454 C   0  0  0  0  0  0  0  0  0  0  0  0
   25.0744  -19.9854  -11.7346 C   0  0  0  0  0  0  0  0  0  0  0  0
   24.7408  -20.3174  -13.1469 C   0  0  2  0  0  0  0  0  0  0  0  0
   25.3933  -19.3270  -13.9829 N   0  0  0  0  0  0  0  0  0  0  0  0
   23.2804  -20.2608  -13.4285 C   0  0  0  0  0  0  0  0  0  0  0  0
   22.7005  -19.1502  -13.3650 O   0  0  0  0  0  0  0  0  0  0  0  0
   19.2107  -22.5060  -15.0005 O   0  0  0  0  0  0  0  0  0  0  0  0
   20.5524  -22.6100  -14.6526 C   0  0  0  0  0  0  0  0  0  0  0  0
   21.0748  -21.3437  -14.0128 C   0  0  2  0  0  0  0  0  0  0  0  0
   22.4912  -21.3896  -13.7674 N   0  0  0  0  0  0  0  0  0  0  0  0
   20.2962  -21.0067  -12.8040 C   0  0  0  0  0  0  0  0  0  0  0  0
   19.1888  -20.1709  -12.7823 O   0  0  0  0  0  0  0  0  0  0  0  0
   20.6490  -21.5050  -11.7058 O   0  0  0  0  0  0  0  0  0  0  0  0
  2  1  1  6
  2  3  1  0
  3  4  1  0
  4  5  1  0
  5  6  2  0
  5  9  1  0
  7  2  1  0
  7  8  2  0
 11 10  1  1
 11 13  1  0
 11 12  1  0
 14 13  1  1
 14 15  1  0
 14 16  1  0
 15  7  1  0
 16 21  1  0
 17 16  2  0
 19 18  1  0
 20 19  1  1
 20 22  1  0
 21 20  1  0
 22 24  2  0
 22 23  1  0
M  END
$$$$
