ELS.pdb
     RDKit          3D

 24 23  0  0  1  0  0  0  0  0999 V2000
   18.8686  -13.4109  -15.4210 N   0  0  0  0  0  0  0  0  0  0  0  0
   18.7274  -12.2389  -16.2100 C   0  0  1  0  0  0  0  0  0  0  0  0
   17.3675  -11.8638  -16.6511 C   0  0  0  0  0  0  0  0  0  0  0  0
   16.7038  -12.9023  -17.4611 C   0  0  0  0  0  0  0  0  0  0  0  0
   15.9222  -12.4821  -18.6191 C   0  0  0  0  0  0  0  0  0  0  0  0
   15.8055  -11.2751  -18.9213 O   0  0  0  0  0  0  0  0  0  0  0  0
   19.4195  -11.1152  -15.4833 C   0  0  0  0  0  0  0  0  0  0  0  0
   19.2208  -10.9132  -14.2513 O   0  0  0  0  0  0  0  0  0  0  0  0
   15.2655  -13.4158  -19.4456 O   0  0  0  0  0  0  0  0  0  0  0  0
   23.0779   -9.8026  -13.4737 C   0  0  0  0  0  0  0  0  0  0  0  0
   23.1235  -10.2691  -14.9363 C   0  0  2  0  0  0  0  0  0  0  0  0
   24.5696  -10.4462  -15.2839 C   0  0  0  0  0  0  0  0  0  0  0  0
   22.4215   -9.2341  -15.7333 C   0  0  0  0  0  0  0  0  0  0  0  0
   20.9571   -9.0971  -15.5035 C   0  0  2  0  0  0  0  0  0  0  0  0
   20.3182  -10.2364  -16.1357 N   0  0  0  0  0  0  0  0  0  0  0  0
   20.3866   -7.8619  -16.1067 C   0  0  0  0  0  0  0  0  0  0  0  0
   20.5275   -7.6767  -17.3394 O   0  0  0  0  0  0  0  0  0  0  0  0
   17.2762   -5.6170  -14.4416 O   0  0  0  0  0  0  0  0  0  0  0  0
   17.6565   -5.5466  -15.7767 C   0  0  0  0  0  0  0  0  0  0  0  0
   19.1540   -5.6630  -15.9492 C   0  0  2  0  0  0  0  0  0  0  0  0
   19.6866   -6.8690  -15.3744 N   0  0  0  0  0  0  0  0  0  0  0  0
   19.8348   -4.4476  -15.4593 C   0  0  0  0  0  0  0  0  0  0  0  0
   19.5927   -3.1624  -15.9229 O   0  0  0  0  0  0  0  0  0  0  0  0
   20.7001   -4.5682  -14.5561 O   0  0  0  0  0  0  0  0  0  0  0  0
  2  1  1  1
  2  3  1  0
  3  4  1  0
  4  5  1  0
  5  6  2  0
  5  9  1  0
  7  2  1  0
  7  8  2  0
 11 10  1  1
 11 13  1  0
 11 12  1  0
 14 13  1  6
 14 15  1  0
 14 16  1  0
 15  7  1  0
 16 21  1  0
 17 16  2  0
 19 18  1  0
 20 19  1  1
 20 22  1  0
 21 20  1  0
 22 24  2  0
 22 23  1  0
M  END
$$$$
