ELS.pdb
     RDKit          3D

 24 23  0  0  1  0  0  0  0  0999 V2000
   26.6818  -22.9247  -16.0157 N   0  0  0  0  0  0  0  0  0  0  0  0
   25.9020  -21.7490  -15.8560 C   0  0  1  0  0  0  0  0  0  0  0  0
   25.3222  -21.1356  -17.0693 C   0  0  0  0  0  0  0  0  0  0  0  0
   26.3337  -20.5960  -17.9972 C   0  0  0  0  0  0  0  0  0  0  0  0
   27.2280  -19.5498  -17.5135 C   0  0  0  0  0  0  0  0  0  0  0  0
   26.7922  -18.4310  -17.1668 O   0  0  0  0  0  0  0  0  0  0  0  0
   24.8573  -22.0348  -14.8087 C   0  0  0  0  0  0  0  0  0  0  0  0
   24.2043  -23.1172  -14.8153 O   0  0  0  0  0  0  0  0  0  0  0  0
   28.6192  -19.7534  -17.4164 O   0  0  0  0  0  0  0  0  0  0  0  0
   25.2430  -22.5116  -10.5601 C   0  0  0  0  0  0  0  0  0  0  0  0
   25.3712  -21.0448  -10.9968 C   0  0  2  0  0  0  0  0  0  0  0  0
   25.8281  -20.2786   -9.7935 C   0  0  0  0  0  0  0  0  0  0  0  0
   24.0426  -20.6396  -11.5161 C   0  0  0  0  0  0  0  0  0  0  0  0
   23.5643  -21.3406  -12.7391 C   0  0  2  0  0  0  0  0  0  0  0  0
   24.5558  -21.1155  -13.7745 N   0  0  0  0  0  0  0  0  0  0  0  0
   22.2609  -20.8209  -13.2354 C   0  0  0  0  0  0  0  0  0  0  0  0
   22.2003  -19.6305  -13.6267 O   0  0  0  0  0  0  0  0  0  0  0  0
   19.5024  -23.1552  -15.0113 O   0  0  0  0  0  0  0  0  0  0  0  0
   18.8754  -22.2093  -14.2086 C   0  0  0  0  0  0  0  0  0  0  0  0
   19.8145  -21.0975  -13.7988 C   0  0  2  0  0  0  0  0  0  0  0  0
   21.0697  -21.5884  -13.2968 N   0  0  0  0  0  0  0  0  0  0  0  0
   19.1500  -20.1671  -12.8641 C   0  0  0  0  0  0  0  0  0  0  0  0
   19.6065  -19.8640  -11.5894 O   0  0  0  0  0  0  0  0  0  0  0  0
   18.0919  -19.5996  -13.2345 O   0  0  0  0  0  0  0  0  0  0  0  0
  2  1  1  6
  2  3  1  0
  3  4  1  0
  4  5  1  0
  5  6  2  0
  5  9  1  0
  7  2  1  0
  7  8  2  0
 11 10  1  1
 11 13  1  0
 11 12  1  0
 14 13  1  1
 14 15  1  0
 14 16  1  0
 15  7  1  0
 16 21  1  0
 17 16  2  0
 19 18  1  0
 20 19  1  1
 20 22  1  0
 21 20  1  0
 22 24  2  0
 22 23  1  0
M  END
$$$$
