MPF.pdb
     RDKit          3D

 27 28  0  0  1  0  0  0  0  0999 V2000
   25.5574  -27.2426  -16.0351 C   0  0  0  0  0  0  0  0  0  0  0  0
   26.8339  -27.9765  -17.0747 S   0  0  0  0  0  0  0  0  0  0  0  0
   27.5840  -26.7638  -18.1561 C   0  0  0  0  0  0  0  0  0  0  0  0
   27.5905  -25.3972  -17.5632 C   0  0  0  0  0  0  0  0  0  0  0  0
   28.9589  -24.9215  -17.2404 C   0  0  2  0  0  0  0  0  0  0  0  0
   29.6879  -25.8372  -16.4351 N   0  0  0  0  0  0  0  0  0  0  0  0
   28.9685  -23.5154  -16.7875 C   0  0  0  0  0  0  0  0  0  0  0  0
   29.2585  -23.3407  -15.5525 O   0  0  0  0  0  0  0  0  0  0  0  0
   28.6962  -22.3777  -17.5575 N   0  0  0  0  0  0  0  0  0  0  0  0
   28.1691  -22.2681  -18.8915 C   0  0  0  0  0  0  0  0  0  0  0  0
   29.1458  -21.2166  -19.4568 C   0  0  0  0  0  0  0  0  0  0  0  0
   29.0877  -20.1791  -18.3762 C   0  0  0  0  0  0  0  0  0  0  0  0
   28.8710  -20.9683  -17.1090 C   0  0  1  0  0  0  0  0  0  0  0  0
   27.5907  -20.5411  -16.4693 C   0  0  0  0  0  0  0  0  0  0  0  0
   26.4850  -21.0903  -16.7782 O   0  0  0  0  0  0  0  0  0  0  0  0
   27.5642  -19.5220  -15.5080 N   0  0  0  0  0  0  0  0  0  0  0  0
   26.3176  -19.1167  -14.8229 C   0  0  1  0  0  0  0  0  0  0  0  0
   26.7062  -18.6101  -13.4571 C   0  0  0  0  0  0  0  0  0  0  0  0
   26.3430  -19.5781  -12.4065 C   0  0  0  0  0  0  0  0  0  0  0  0
   25.1266  -19.5251  -11.7195 C   0  0  0  0  0  0  0  0  0  0  0  0
   24.7905  -20.4403  -10.7443 C   0  0  0  0  0  0  0  0  0  0  0  0
   25.6728  -21.4496  -10.4220 C   0  0  0  0  0  0  0  0  0  0  0  0
   26.8642  -21.5157  -11.0822 C   0  0  0  0  0  0  0  0  0  0  0  0
   27.2034  -20.6128  -12.0492 C   0  0  0  0  0  0  0  0  0  0  0  0
   25.6901  -18.0236  -15.5803 C   0  0  0  0  0  0  0  0  0  0  0  0
   24.5457  -17.5954  -15.3228 O   0  0  0  0  0  0  0  0  0  0  0  0
   26.3890  -17.4391  -16.6230 O   0  0  0  0  0  0  0  0  0  0  0  0
  2  1  1  0
  3  2  1  0
  4  3  1  0
  4  5  1  0
  5  7  1  0
  5  6  1  1
  7  8  2  0
  9 13  1  0
  9  7  1  0
 10  9  1  0
 11 10  1  0
 11 12  1  0
 12 13  1  0
 14 15  2  0
 13 14  1  6
 16 14  1  0
 17 16  1  0
 17 25  1  0
 17 18  1  1
 19 18  1  0
 20 19  2  0
 21 20  1  0
 22 21  2  0
 22 23  1  0
 23 24  2  0
 24 19  1  0
 25 27  1  0
 26 25  2  0
M  END
$$$$
