MPF.pdb
     RDKit          3D

 27 28  0  0  1  0  0  0  0  0999 V2000
   20.4662  -24.3008  -17.0344 C   0  0  0  0  0  0  0  0  0  0  0  0
   21.2451  -25.1611  -18.4136 S   0  0  0  0  0  0  0  0  0  0  0  0
   22.7938  -25.9173  -17.9313 C   0  0  0  0  0  0  0  0  0  0  0  0
   23.6529  -24.9990  -17.1327 C   0  0  0  0  0  0  0  0  0  0  0  0
   24.8963  -25.6528  -16.6538 C   0  0  2  0  0  0  0  0  0  0  0  0
   24.6461  -26.7989  -15.8523 N   0  0  0  0  0  0  0  0  0  0  0  0
   25.8621  -24.6797  -16.1036 C   0  0  0  0  0  0  0  0  0  0  0  0
   25.8885  -24.5983  -14.8259 O   0  0  0  0  0  0  0  0  0  0  0  0
   26.7327  -23.8530  -16.8248 N   0  0  0  0  0  0  0  0  0  0  0  0
   26.8658  -23.6650  -18.2448 C   0  0  0  0  0  0  0  0  0  0  0  0
   28.4026  -23.7312  -18.3591 C   0  0  0  0  0  0  0  0  0  0  0  0
   28.7998  -22.7684  -17.2808 C   0  0  0  0  0  0  0  0  0  0  0  0
   27.7277  -22.9178  -16.2302 C   0  0  1  0  0  0  0  0  0  0  0  0
   27.0425  -21.6061  -16.0280 C   0  0  0  0  0  0  0  0  0  0  0  0
   26.0035  -21.2964  -16.6944 O   0  0  0  0  0  0  0  0  0  0  0  0
   27.5205  -20.6732  -15.0982 N   0  0  0  0  0  0  0  0  0  0  0  0
   26.8529  -19.3730  -14.8715 C   0  0  1  0  0  0  0  0  0  0  0  0
   27.2054  -18.9306  -13.4740 C   0  0  0  0  0  0  0  0  0  0  0  0
   26.4979  -19.7391  -12.4647 C   0  0  0  0  0  0  0  0  0  0  0  0
   25.1336  -19.5890  -12.1988 C   0  0  0  0  0  0  0  0  0  0  0  0
   24.4772  -20.3560  -11.2593 C   0  0  0  0  0  0  0  0  0  0  0  0
   25.1747  -21.3089  -10.5477 C   0  0  0  0  0  0  0  0  0  0  0  0
   26.5063  -21.4682  -10.7944 C   0  0  0  0  0  0  0  0  0  0  0  0
   27.1628  -20.7123  -11.7234 C   0  0  0  0  0  0  0  0  0  0  0  0
   27.3784  -18.3922  -15.8329 C   0  0  0  0  0  0  0  0  0  0  0  0
   26.8719  -17.2613  -15.9870 O   0  0  0  0  0  0  0  0  0  0  0  0
   28.4793  -18.7274  -16.6029 O   0  0  0  0  0  0  0  0  0  0  0  0
  2  1  1  0
  3  2  1  0
  4  3  1  0
  4  5  1  0
  5  7  1  0
  5  6  1  1
  7  8  2  0
  9 13  1  0
  9  7  1  0
 10  9  1  0
 11 10  1  0
 11 12  1  0
 12 13  1  0
 14 15  2  0
 13 14  1  6
 16 14  1  0
 17 16  1  0
 17 25  1  0
 17 18  1  1
 19 18  1  0
 20 19  2  0
 21 20  1  0
 22 21  2  0
 22 23  1  0
 23 24  2  0
 24 19  1  0
 25 27  1  0
 26 25  2  0
M  END
$$$$
