MPF.pdb
     RDKit          3D

 27 28  0  0  1  0  0  0  0  0999 V2000
   25.2828  -14.2710  -15.4768 C   0  0  0  0  0  0  0  0  0  0  0  0
   24.9040  -14.4925  -17.2250 S   0  0  0  0  0  0  0  0  0  0  0  0
   25.3059  -16.1442  -17.7846 C   0  0  0  0  0  0  0  0  0  0  0  0
   25.9180  -16.9769  -16.7117 C   0  0  0  0  0  0  0  0  0  0  0  0
   26.2836  -18.3361  -17.1827 C   0  0  2  0  0  0  0  0  0  0  0  0
   25.6653  -18.6803  -18.4147 N   0  0  0  0  0  0  0  0  0  0  0  0
   26.1843  -19.3446  -16.1078 C   0  0  0  0  0  0  0  0  0  0  0  0
   25.1633  -20.1148  -16.1732 O   0  0  0  0  0  0  0  0  0  0  0  0
   27.0760  -19.5377  -15.0452 N   0  0  0  0  0  0  0  0  0  0  0  0
   28.2204  -18.7629  -14.6455 C   0  0  0  0  0  0  0  0  0  0  0  0
   29.2249  -19.9099  -14.4118 C   0  0  0  0  0  0  0  0  0  0  0  0
   28.4056  -20.8202  -13.5471 C   0  0  0  0  0  0  0  0  0  0  0  0
   26.9905  -20.6260  -14.0320 C   0  0  1  0  0  0  0  0  0  0  0  0
   26.1436  -20.1246  -12.9084 C   0  0  0  0  0  0  0  0  0  0  0  0
   26.1756  -18.9026  -12.5543 O   0  0  0  0  0  0  0  0  0  0  0  0
   25.2861  -20.9824  -12.2070 N   0  0  0  0  0  0  0  0  0  0  0  0
   24.4913  -20.5263  -11.0460 C   0  0  1  0  0  0  0  0  0  0  0  0
   23.0517  -20.8726  -11.3299 C   0  0  0  0  0  0  0  0  0  0  0  0
   22.5775  -20.2128  -12.5598 C   0  0  0  0  0  0  0  0  0  0  0  0
   22.7102  -20.7913  -13.8256 C   0  0  0  0  0  0  0  0  0  0  0  0
   22.2553  -20.1715  -14.9705 C   0  0  0  0  0  0  0  0  0  0  0  0
   21.6462  -18.9376  -14.8829 C   0  0  0  0  0  0  0  0  0  0  0  0
   21.5090  -18.3589  -13.6557 C   0  0  0  0  0  0  0  0  0  0  0  0
   21.9569  -18.9672  -12.5178 C   0  0  0  0  0  0  0  0  0  0  0  0
   24.9337  -21.2557   -9.8482 C   0  0  0  0  0  0  0  0  0  0  0  0
   25.7222  -22.2225   -9.9006 O   0  0  0  0  0  0  0  0  0  0  0  0
   24.4622  -20.8615   -8.6074 O   0  0  0  0  0  0  0  0  0  0  0  0
  2  1  1  0
  3  2  1  0
  4  3  1  0
  4  5  1  0
  5  7  1  0
  5  6  1  6
  7  8  2  0
  9 13  1  0
  9  7  1  0
 10  9  1  0
 11 10  1  0
 11 12  1  0
 12 13  1  0
 14 15  2  0
 13 14  1  1
 16 14  1  0
 17 16  1  0
 17 25  1  0
 17 18  1  6
 19 18  1  0
 20 19  2  0
 21 20  1  0
 22 21  2  0
 22 23  1  0
 23 24  2  0
 24 19  1  0
 25 27  1  0
 26 25  2  0
M  END
$$$$
