MPF.pdb
     RDKit          3D

 27 28  0  0  1  0  0  0  0  0999 V2000
   24.3983  -16.3030  -15.1974 C   0  0  0  0  0  0  0  0  0  0  0  0
   22.9956  -17.3767  -15.5559 S   0  0  0  0  0  0  0  0  0  0  0  0
   23.4594  -19.1048  -15.5190 C   0  0  0  0  0  0  0  0  0  0  0  0
   23.8713  -19.5561  -14.1605 C   0  0  0  0  0  0  0  0  0  0  0  0
   24.2889  -20.9802  -14.1344 C   0  0  2  0  0  0  0  0  0  0  0  0
   23.2598  -21.8669  -14.5506 N   0  0  0  0  0  0  0  0  0  0  0  0
   24.9776  -21.3368  -12.8770 C   0  0  0  0  0  0  0  0  0  0  0  0
   24.3125  -22.0913  -12.0843 O   0  0  0  0  0  0  0  0  0  0  0  0
   26.2581  -20.9390  -12.4726 N   0  0  0  0  0  0  0  0  0  0  0  0
   27.1696  -20.0036  -13.0756 C   0  0  0  0  0  0  0  0  0  0  0  0
   28.4669  -20.8336  -12.9901 C   0  0  0  0  0  0  0  0  0  0  0  0
   28.4283  -21.2559  -11.5521 C   0  0  0  0  0  0  0  0  0  0  0  0
   26.9591  -21.4025  -11.2430 C   0  0  1  0  0  0  0  0  0  0  0  0
   26.5872  -20.4687  -10.1381 C   0  0  0  0  0  0  0  0  0  0  0  0
   26.1889  -19.2850  -10.3825 O   0  0  0  0  0  0  0  0  0  0  0  0
   26.6645  -20.8646   -8.7962 N   0  0  0  0  0  0  0  0  0  0  0  0
   26.2399  -19.9818   -7.6881 C   0  0  1  0  0  0  0  0  0  0  0  0
   26.2899  -20.8011   -6.4236 C   0  0  0  0  0  0  0  0  0  0  0  0
   27.5379  -20.5555   -5.6785 C   0  0  0  0  0  0  0  0  0  0  0  0
   28.0916  -19.2800   -5.5338 C   0  0  0  0  0  0  0  0  0  0  0  0
   29.2547  -19.0574   -4.8271 C   0  0  0  0  0  0  0  0  0  0  0  0
   29.9081  -20.1180   -4.2361 C   0  0  0  0  0  0  0  0  0  0  0  0
   29.3817  -21.3690   -4.3677 C   0  0  0  0  0  0  0  0  0  0  0  0
   28.2302  -21.5967   -5.0660 C   0  0  0  0  0  0  0  0  0  0  0  0
   27.1908  -18.8657   -7.5755 C   0  0  0  0  0  0  0  0  0  0  0  0
   28.3592  -18.9292   -8.0114 O   0  0  0  0  0  0  0  0  0  0  0  0
   26.7829  -17.6929   -6.9628 O   0  0  0  0  0  0  0  0  0  0  0  0
  2  1  1  0
  3  2  1  0
  4  3  1  0
  4  5  1  0
  5  7  1  0
  5  6  1  1
  7  8  2  0
  9 13  1  0
  9  7  1  0
 10  9  1  0
 11 10  1  0
 11 12  1  0
 12 13  1  0
 14 15  2  0
 13 14  1  1
 16 14  1  0
 17 16  1  0
 17 25  1  0
 17 18  1  1
 19 18  1  0
 20 19  2  0
 21 20  1  0
 22 21  2  0
 22 23  1  0
 23 24  2  0
 24 19  1  0
 25 27  1  0
 26 25  2  0
M  END
$$$$
