MPF.pdb
     RDKit          3D

 27 28  0  0  1  0  0  0  0  0999 V2000
   17.9520  -14.6354  -15.1357 C   0  0  0  0  0  0  0  0  0  0  0  0
   17.0833  -14.5559  -16.7131 S   0  0  0  0  0  0  0  0  0  0  0  0
   18.1292  -13.9064  -18.0119 C   0  0  0  0  0  0  0  0  0  0  0  0
   18.9689  -12.7654  -17.5512 C   0  0  0  0  0  0  0  0  0  0  0  0
   19.9970  -12.3744  -18.5478 C   0  0  2  0  0  0  0  0  0  0  0  0
   20.9654  -13.3895  -18.7719 N   0  0  0  0  0  0  0  0  0  0  0  0
   20.5295  -11.0193  -18.2980 C   0  0  0  0  0  0  0  0  0  0  0  0
   21.7763  -10.9661  -18.0109 O   0  0  0  0  0  0  0  0  0  0  0  0
   19.8212   -9.8118  -18.3410 N   0  0  0  0  0  0  0  0  0  0  0  0
   18.4130   -9.5709  -18.5094 C   0  0  0  0  0  0  0  0  0  0  0  0
   18.4800   -8.4379  -19.5540 C   0  0  0  0  0  0  0  0  0  0  0  0
   19.4797   -7.5270  -18.9070 C   0  0  0  0  0  0  0  0  0  0  0  0
   20.4136   -8.4558  -18.1717 C   0  0  1  0  0  0  0  0  0  0  0  0
   20.3873   -8.1360  -16.7129 C   0  0  0  0  0  0  0  0  0  0  0  0
   19.5486   -8.6899  -15.9324 O   0  0  0  0  0  0  0  0  0  0  0  0
   21.2848   -7.2157  -16.1553 N   0  0  0  0  0  0  0  0  0  0  0  0
   21.3326   -6.9423  -14.7026 C   0  0  1  0  0  0  0  0  0  0  0  0
   22.7519   -7.1793  -14.2526 C   0  0  0  0  0  0  0  0  0  0  0  0
   23.7110   -6.4704  -15.1189 C   0  0  0  0  0  0  0  0  0  0  0  0
   24.4057   -7.1049  -16.1530 C   0  0  0  0  0  0  0  0  0  0  0  0
   25.2944   -6.4321  -16.9650 C   0  0  0  0  0  0  0  0  0  0  0  0
   25.5184   -5.0865  -16.7645 C   0  0  0  0  0  0  0  0  0  0  0  0
   24.8492   -4.4522  -15.7599 C   0  0  0  0  0  0  0  0  0  0  0  0
   23.9676   -5.1121  -14.9521 C   0  0  0  0  0  0  0  0  0  0  0  0
   20.9840   -5.5327  -14.4702 C   0  0  0  0  0  0  0  0  0  0  0  0
   20.8444   -4.7108  -15.3999 O   0  0  0  0  0  0  0  0  0  0  0  0
   20.8010   -5.0896  -13.1712 O   0  0  0  0  0  0  0  0  0  0  0  0
  2  1  1  0
  3  2  1  0
  4  3  1  0
  4  5  1  0
  5  7  1  0
  5  6  1  1
  7  8  2  0
  9 13  1  0
  9  7  1  0
 10  9  1  0
 11 10  1  0
 11 12  1  0
 12 13  1  0
 14 15  2  0
 13 14  1  1
 16 14  1  0
 17 16  1  0
 17 25  1  0
 17 18  1  6
 19 18  1  0
 20 19  2  0
 21 20  1  0
 22 21  2  0
 22 23  1  0
 23 24  2  0
 24 19  1  0
 25 27  1  0
 26 25  2  0
M  END
$$$$
