MPF.pdb
     RDKit          3D

 27 28  0  0  1  0  0  0  0  0999 V2000
   21.4897  -21.6484  -14.4700 C   0  0  0  0  0  0  0  0  0  0  0  0
   22.0234  -21.8153  -16.1836 S   0  0  0  0  0  0  0  0  0  0  0  0
   21.3793  -23.3068  -16.9343 C   0  0  0  0  0  0  0  0  0  0  0  0
   20.7706  -24.2306  -15.9368 C   0  0  0  0  0  0  0  0  0  0  0  0
   20.1605  -25.4284  -16.5662 C   0  0  2  0  0  0  0  0  0  0  0  0
   19.2263  -25.1030  -17.5859 N   0  0  0  0  0  0  0  0  0  0  0  0
   19.7043  -26.4138  -15.5645 C   0  0  0  0  0  0  0  0  0  0  0  0
   18.4575  -26.3637  -15.2768 O   0  0  0  0  0  0  0  0  0  0  0  0
   20.4833  -27.3764  -14.9103 N   0  0  0  0  0  0  0  0  0  0  0  0
   21.9056  -27.5905  -14.9387 C   0  0  0  0  0  0  0  0  0  0  0  0
   21.9206  -29.1219  -15.1225 C   0  0  0  0  0  0  0  0  0  0  0  0
   20.9675  -29.5373  -14.0423 C   0  0  0  0  0  0  0  0  0  0  0  0
   19.9699  -28.4083  -13.9670 C   0  0  1  0  0  0  0  0  0  0  0  0
   19.9943  -27.8130  -12.5973 C   0  0  0  0  0  0  0  0  0  0  0  0
   20.8367  -26.9111  -12.2863 O   0  0  0  0  0  0  0  0  0  0  0  0
   19.0911  -28.2273  -11.6095 N   0  0  0  0  0  0  0  0  0  0  0  0
   19.0862  -27.6432  -10.2507 C   0  0  1  0  0  0  0  0  0  0  0  0
   18.5278  -26.2478  -10.3693 C   0  0  0  0  0  0  0  0  0  0  0  0
   18.3167  -25.6437   -9.0414 C   0  0  0  0  0  0  0  0  0  0  0  0
   19.3580  -25.0916   -8.2894 C   0  0  0  0  0  0  0  0  0  0  0  0
   19.1504  -24.5199   -7.0518 C   0  0  0  0  0  0  0  0  0  0  0  0
   17.8783  -24.4828   -6.5214 C   0  0  0  0  0  0  0  0  0  0  0  0
   16.8510  -25.0173   -7.2417 C   0  0  0  0  0  0  0  0  0  0  0  0
   17.0493  -25.5849   -8.4680 C   0  0  0  0  0  0  0  0  0  0  0  0
   18.2017  -28.4431   -9.3902 C   0  0  0  0  0  0  0  0  0  0  0  0
   17.1280  -28.9333   -9.7977 O   0  0  0  0  0  0  0  0  0  0  0  0
   18.5662  -28.6672   -8.0733 O   0  0  0  0  0  0  0  0  0  0  0  0
  2  1  1  0
  3  2  1  0
  4  3  1  0
  4  5  1  0
  5  7  1  0
  5  6  1  1
  7  8  2  0
  9 13  1  0
  9  7  1  0
 10  9  1  0
 11 10  1  0
 11 12  1  0
 12 13  1  0
 14 15  2  0
 13 14  1  1
 16 14  1  0
 17 16  1  0
 17 25  1  0
 17 18  1  6
 19 18  1  0
 20 19  2  0
 21 20  1  0
 22 21  2  0
 22 23  1  0
 23 24  2  0
 24 19  1  0
 25 27  1  0
 26 25  2  0
M  END
$$$$
