MPF.pdb
     RDKit          3D

 27 28  0  0  1  0  0  0  0  0999 V2000
   15.8655  -11.5243  -19.5505 C   0  0  0  0  0  0  0  0  0  0  0  0
   16.5955  -13.1722  -19.5758 S   0  0  0  0  0  0  0  0  0  0  0  0
   18.3558  -13.1107  -19.8925 C   0  0  0  0  0  0  0  0  0  0  0  0
   19.0720  -12.1976  -18.9585 C   0  0  0  0  0  0  0  0  0  0  0  0
   20.5412  -12.2027  -19.1697 C   0  0  2  0  0  0  0  0  0  0  0  0
   21.1194  -13.4905  -19.0086 N   0  0  0  0  0  0  0  0  0  0  0  0
   21.2121  -11.1003  -18.4508 C   0  0  0  0  0  0  0  0  0  0  0  0
   21.8322  -11.4411  -17.3835 O   0  0  0  0  0  0  0  0  0  0  0  0
   21.2360   -9.7472  -18.8114 N   0  0  0  0  0  0  0  0  0  0  0  0
   20.5790   -9.0672  -19.8957 C   0  0  0  0  0  0  0  0  0  0  0  0
   21.7597   -8.2139  -20.4028 C   0  0  0  0  0  0  0  0  0  0  0  0
   22.2348   -7.6101  -19.1154 C   0  0  0  0  0  0  0  0  0  0  0  0
   21.9573   -8.6699  -18.0784 C   0  0  1  0  0  0  0  0  0  0  0  0
   21.0215   -8.1263  -17.0490 C   0  0  0  0  0  0  0  0  0  0  0  0
   19.7602   -8.1937  -17.2047 O   0  0  0  0  0  0  0  0  0  0  0  0
   21.5007   -7.5242  -15.8781 N   0  0  0  0  0  0  0  0  0  0  0  0
   20.5944   -6.9837  -14.8417 C   0  0  1  0  0  0  0  0  0  0  0  0
   19.9880   -8.1626  -14.1236 C   0  0  0  0  0  0  0  0  0  0  0  0
   20.9612   -8.7881  -13.2100 C   0  0  0  0  0  0  0  0  0  0  0  0
   21.9800   -9.6345  -13.6573 C   0  0  0  0  0  0  0  0  0  0  0  0
   22.8922  -10.2083  -12.7969 C   0  0  0  0  0  0  0  0  0  0  0  0
   22.8118   -9.9497  -11.4449 C   0  0  0  0  0  0  0  0  0  0  0  0
   21.8238   -9.1265  -10.9917 C   0  0  0  0  0  0  0  0  0  0  0  0
   20.9171   -8.5547  -11.8380 C   0  0  0  0  0  0  0  0  0  0  0  0
   21.3815   -6.1913  -13.8851 C   0  0  0  0  0  0  0  0  0  0  0  0
   20.8700   -5.6269  -12.8956 O   0  0  0  0  0  0  0  0  0  0  0  0
   22.7459   -6.0601  -14.0814 O   0  0  0  0  0  0  0  0  0  0  0  0
  2  1  1  0
  3  2  1  0
  4  3  1  0
  4  5  1  0
  5  7  1  0
  5  6  1  1
  7  8  2  0
  9 13  1  0
  9  7  1  0
 10  9  1  0
 11 10  1  0
 11 12  1  0
 12 13  1  0
 14 15  2  0
 13 14  1  1
 16 14  1  0
 17 16  1  0
 17 25  1  0
 17 18  1  1
 19 18  1  0
 20 19  2  0
 21 20  1  0
 22 21  2  0
 22 23  1  0
 23 24  2  0
 24 19  1  0
 25 27  1  0
 26 25  2  0
M  END
$$$$
