MPF.pdb
     RDKit          3D

 27 28  0  0  1  0  0  0  0  0999 V2000
   28.7928  -15.1717  -16.5621 C   0  0  0  0  0  0  0  0  0  0  0  0
   29.0610  -15.6645  -18.2751 S   0  0  0  0  0  0  0  0  0  0  0  0
   27.8656  -16.8856  -18.8068 C   0  0  0  0  0  0  0  0  0  0  0  0
   27.4065  -17.7584  -17.6904 C   0  0  0  0  0  0  0  0  0  0  0  0
   26.4386  -18.7921  -18.1350 C   0  0  2  0  0  0  0  0  0  0  0  0
   25.3268  -18.2468  -18.8315 N   0  0  0  0  0  0  0  0  0  0  0  0
   26.1177  -19.7547  -17.0613 C   0  0  0  0  0  0  0  0  0  0  0  0
   25.0022  -19.5561  -16.4645 O   0  0  0  0  0  0  0  0  0  0  0  0
   26.8961  -20.8394  -16.6382 N   0  0  0  0  0  0  0  0  0  0  0  0
   28.2071  -21.2567  -17.0585 C   0  0  0  0  0  0  0  0  0  0  0  0
   27.9441  -22.7679  -17.2213 C   0  0  0  0  0  0  0  0  0  0  0  0
   27.2766  -23.0727  -15.9139 C   0  0  0  0  0  0  0  0  0  0  0  0
   26.5171  -21.8135  -15.5773 C   0  0  1  0  0  0  0  0  0  0  0  0
   27.0073  -21.2694  -14.2756 C   0  0  0  0  0  0  0  0  0  0  0  0
   28.1963  -20.8333  -14.1501 O   0  0  0  0  0  0  0  0  0  0  0  0
   26.1749  -21.2208  -13.1495 N   0  0  0  0  0  0  0  0  0  0  0  0
   26.6744  -20.8193  -11.8166 C   0  0  1  0  0  0  0  0  0  0  0  0
   25.9482  -19.5552  -11.4326 C   0  0  0  0  0  0  0  0  0  0  0  0
   24.4882  -19.7243  -11.5450 C   0  0  0  0  0  0  0  0  0  0  0  0
   23.8191  -19.7085  -12.7724 C   0  0  0  0  0  0  0  0  0  0  0  0
   22.4538  -19.8768  -12.8696 C   0  0  0  0  0  0  0  0  0  0  0  0
   21.7063  -20.0682  -11.7269 C   0  0  0  0  0  0  0  0  0  0  0  0
   22.3432  -20.0860  -10.5213 C   0  0  0  0  0  0  0  0  0  0  0  0
   23.6949  -19.9202  -10.4176 C   0  0  0  0  0  0  0  0  0  0  0  0
   26.3476  -21.8749  -10.8463 C   0  0  0  0  0  0  0  0  0  0  0  0
   26.7013  -21.8236   -9.6498 O   0  0  0  0  0  0  0  0  0  0  0  0
   25.6183  -22.9741  -11.2672 O   0  0  0  0  0  0  0  0  0  0  0  0
  2  1  1  0
  3  2  1  0
  4  3  1  0
  4  5  1  0
  5  7  1  0
  5  6  1  1
  7  8  2  0
  9 13  1  0
  9  7  1  0
 10  9  1  0
 11 10  1  0
 11 12  1  0
 12 13  1  0
 14 15  2  0
 13 14  1  1
 16 14  1  0
 17 16  1  0
 17 25  1  0
 17 18  1  1
 19 18  1  0
 20 19  2  0
 21 20  1  0
 22 21  2  0
 22 23  1  0
 23 24  2  0
 24 19  1  0
 25 27  1  0
 26 25  2  0
M  END
$$$$
