MPF.pdb
     RDKit          3D

 27 28  0  0  1  0  0  0  0  0999 V2000
   25.5579  -14.5317  -14.5656 C   0  0  0  0  0  0  0  0  0  0  0  0
   24.6832  -14.4348  -16.1386 S   0  0  0  0  0  0  0  0  0  0  0  0
   24.3206  -16.0599  -16.7947 C   0  0  0  0  0  0  0  0  0  0  0  0
   25.4052  -17.0425  -16.5167 C   0  0  0  0  0  0  0  0  0  0  0  0
   25.0874  -18.4015  -17.0218 C   0  0  2  0  0  0  0  0  0  0  0  0
   23.8040  -18.4818  -17.6258 N   0  0  0  0  0  0  0  0  0  0  0  0
   25.4008  -19.4522  -16.0318 C   0  0  0  0  0  0  0  0  0  0  0  0
   24.3858  -20.0452  -15.5239 O   0  0  0  0  0  0  0  0  0  0  0  0
   26.6709  -19.8552  -15.6006 N   0  0  0  0  0  0  0  0  0  0  0  0
   27.9698  -19.3371  -15.9380 C   0  0  0  0  0  0  0  0  0  0  0  0
   28.7081  -20.6679  -16.1895 C   0  0  0  0  0  0  0  0  0  0  0  0
   28.3337  -21.4275  -14.9523 C   0  0  0  0  0  0  0  0  0  0  0  0
   26.9461  -20.9397  -14.6175 C   0  0  1  0  0  0  0  0  0  0  0  0
   26.9506  -20.3200  -13.2585 C   0  0  0  0  0  0  0  0  0  0  0  0
   27.3185  -19.1139  -13.0860 O   0  0  0  0  0  0  0  0  0  0  0  0
   26.5502  -21.0454  -12.1286 N   0  0  0  0  0  0  0  0  0  0  0  0
   26.5493  -20.4552  -10.7724 C   0  0  1  0  0  0  0  0  0  0  0  0
   25.4887  -19.3839  -10.7551 C   0  0  0  0  0  0  0  0  0  0  0  0
   24.1571  -19.9478  -11.0413 C   0  0  0  0  0  0  0  0  0  0  0  0
   23.1252  -19.9619  -10.0982 C   0  0  0  0  0  0  0  0  0  0  0  0
   21.8792  -20.4830  -10.3770 C   0  0  0  0  0  0  0  0  0  0  0  0
   21.6242  -21.0131  -11.6241 C   0  0  0  0  0  0  0  0  0  0  0  0
   22.6200  -21.0075  -12.5558 C   0  0  0  0  0  0  0  0  0  0  0  0
   23.8562  -20.4930  -12.2865 C   0  0  0  0  0  0  0  0  0  0  0  0
   26.1949  -21.4980   -9.7980 C   0  0  0  0  0  0  0  0  0  0  0  0
   25.9154  -22.6677  -10.1342 O   0  0  0  0  0  0  0  0  0  0  0  0
   26.1675  -21.1794   -8.4508 O   0  0  0  0  0  0  0  0  0  0  0  0
  2  1  1  0
  3  2  1  0
  4  3  1  0
  4  5  1  0
  5  7  1  0
  5  6  1  1
  7  8  2  0
  9 13  1  0
  9  7  1  0
 10  9  1  0
 11 10  1  0
 11 12  1  0
 12 13  1  0
 14 15  2  0
 13 14  1  1
 16 14  1  0
 17 16  1  0
 17 25  1  0
 17 18  1  6
 19 18  1  0
 20 19  2  0
 21 20  1  0
 22 21  2  0
 22 23  1  0
 23 24  2  0
 24 19  1  0
 25 27  1  0
 26 25  2  0
M  END
$$$$
