MPF.pdb
     RDKit          3D

 27 28  0  0  1  0  0  0  0  0999 V2000
   20.3885  -21.7578  -12.7617 C   0  0  0  0  0  0  0  0  0  0  0  0
   20.1213  -20.2638  -13.7343 S   0  0  0  0  0  0  0  0  0  0  0  0
   21.4004  -20.0390  -14.9656 C   0  0  0  0  0  0  0  0  0  0  0  0
   22.7601  -19.9423  -14.3648 C   0  0  0  0  0  0  0  0  0  0  0  0
   23.7598  -20.7758  -15.0781 C   0  0  2  0  0  0  0  0  0  0  0  0
   23.1702  -21.8339  -15.8206 N   0  0  0  0  0  0  0  0  0  0  0  0
   24.8943  -21.1517  -14.2098 C   0  0  0  0  0  0  0  0  0  0  0  0
   24.9490  -22.3897  -13.8869 O   0  0  0  0  0  0  0  0  0  0  0  0
   25.8947  -20.3067  -13.7132 N   0  0  0  0  0  0  0  0  0  0  0  0
   26.0389  -18.8796  -13.8236 C   0  0  0  0  0  0  0  0  0  0  0  0
   27.5333  -18.8114  -14.1999 C   0  0  0  0  0  0  0  0  0  0  0  0
   28.1227  -19.6984  -13.1448 C   0  0  0  0  0  0  0  0  0  0  0  0
   27.0583  -20.7361  -12.8887 C   0  0  1  0  0  0  0  0  0  0  0  0
   26.6378  -20.6751  -11.4568 C   0  0  0  0  0  0  0  0  0  0  0  0
   25.5686  -20.0787  -11.1093 O   0  0  0  0  0  0  0  0  0  0  0  0
   27.4061  -21.2722  -10.4485 N   0  0  0  0  0  0  0  0  0  0  0  0
   27.0509  -21.1621   -9.0170 C   0  0  1  0  0  0  0  0  0  0  0  0
   28.3391  -21.2088   -8.2351 C   0  0  0  0  0  0  0  0  0  0  0  0
   28.1685  -20.6263   -6.8918 C   0  0  0  0  0  0  0  0  0  0  0  0
   27.8420  -21.3961   -5.7714 C   0  0  0  0  0  0  0  0  0  0  0  0
   27.6934  -20.8446   -4.5163 C   0  0  0  0  0  0  0  0  0  0  0  0
   27.8687  -19.4882   -4.3413 C   0  0  0  0  0  0  0  0  0  0  0  0
   28.1871  -18.7225   -5.4238 C   0  0  0  0  0  0  0  0  0  0  0  0
   28.3360  -19.2620   -6.6697 C   0  0  0  0  0  0  0  0  0  0  0  0
   26.3953  -19.8662   -8.7860 C   0  0  0  0  0  0  0  0  0  0  0  0
   26.8348  -18.7954   -9.2546 O   0  0  0  0  0  0  0  0  0  0  0  0
   25.2433  -19.8217   -8.0190 O   0  0  0  0  0  0  0  0  0  0  0  0
  2  1  1  0
  3  2  1  0
  4  3  1  0
  4  5  1  0
  5  7  1  0
  5  6  1  1
  7  8  2  0
  9 13  1  0
  9  7  1  0
 10  9  1  0
 11 10  1  0
 11 12  1  0
 12 13  1  0
 14 15  2  0
 13 14  1  1
 16 14  1  0
 17 16  1  0
 17 25  1  0
 17 18  1  1
 19 18  1  0
 20 19  2  0
 21 20  1  0
 22 21  2  0
 22 23  1  0
 23 24  2  0
 24 19  1  0
 25 27  1  0
 26 25  2  0
M  END
$$$$
