MPF.pdb
     RDKit          3D

 27 28  0  0  1  0  0  0  0  0999 V2000
   25.2000  -20.5510   -8.1452 C   0  0  0  0  0  0  0  0  0  0  0  0
   26.7781  -20.3060   -8.9810 S   0  0  0  0  0  0  0  0  0  0  0  0
   27.0317  -21.5098  -10.2808 C   0  0  0  0  0  0  0  0  0  0  0  0
   25.9231  -21.5172  -11.2758 C   0  0  0  0  0  0  0  0  0  0  0  0
   26.3435  -21.0012  -12.6025 C   0  0  2  0  0  0  0  0  0  0  0  0
   27.1820  -19.8578  -12.5117 N   0  0  0  0  0  0  0  0  0  0  0  0
   25.2108  -20.8967  -13.5450 C   0  0  0  0  0  0  0  0  0  0  0  0
   24.5770  -19.7844  -13.5170 O   0  0  0  0  0  0  0  0  0  0  0  0
   24.7688  -21.8731  -14.4466 N   0  0  0  0  0  0  0  0  0  0  0  0
   25.2710  -23.1982  -14.6946 C   0  0  0  0  0  0  0  0  0  0  0  0
   25.2760  -23.1750  -16.2370 C   0  0  0  0  0  0  0  0  0  0  0  0
   23.8907  -22.6702  -16.5083 C   0  0  0  0  0  0  0  0  0  0  0  0
   23.5963  -21.7428  -15.3556 C   0  0  1  0  0  0  0  0  0  0  0  0
   22.3982  -22.2366  -14.6128 C   0  0  0  0  0  0  0  0  0  0  0  0
   22.4417  -23.3118  -13.9335 O   0  0  0  0  0  0  0  0  0  0  0  0
   21.1869  -21.5328  -14.6391 N   0  0  0  0  0  0  0  0  0  0  0  0
   20.0062  -21.9662  -13.8608 C   0  0  1  0  0  0  0  0  0  0  0  0
   20.0178  -21.1910  -12.5678 C   0  0  0  0  0  0  0  0  0  0  0  0
   20.0364  -19.7383  -12.8176 C   0  0  0  0  0  0  0  0  0  0  0  0
   18.8796  -18.9537  -12.7928 C   0  0  0  0  0  0  0  0  0  0  0  0
   18.9069  -17.5935  -13.0183 C   0  0  0  0  0  0  0  0  0  0  0  0
   20.1079  -16.9686  -13.2794 C   0  0  0  0  0  0  0  0  0  0  0  0
   21.2459  -17.7193  -13.3076 C   0  0  0  0  0  0  0  0  0  0  0  0
   21.2263  -19.0667  -13.0849 C   0  0  0  0  0  0  0  0  0  0  0  0
   18.7884  -21.6285  -14.6126 C   0  0  0  0  0  0  0  0  0  0  0  0
   18.8101  -20.9540  -15.6632 O   0  0  0  0  0  0  0  0  0  0  0  0
   17.5632  -22.0722  -14.1442 O   0  0  0  0  0  0  0  0  0  0  0  0
  2  1  1  0
  3  2  1  0
  4  3  1  0
  4  5  1  0
  5  7  1  0
  5  6  1  1
  7  8  2  0
  9 13  1  0
  9  7  1  0
 10  9  1  0
 11 10  1  0
 11 12  1  0
 12 13  1  0
 14 15  2  0
 13 14  1  1
 16 14  1  0
 17 16  1  0
 17 25  1  0
 17 18  1  1
 19 18  1  0
 20 19  2  0
 21 20  1  0
 22 21  2  0
 22 23  1  0
 23 24  2  0
 24 19  1  0
 25 27  1  0
 26 25  2  0
M  END
$$$$
