MPF.pdb
     RDKit          3D

 27 28  0  0  1  0  0  0  0  0999 V2000
   20.2088  -17.4131  -16.9857 C   0  0  0  0  0  0  0  0  0  0  0  0
   21.5935  -16.2784  -16.7759 S   0  0  0  0  0  0  0  0  0  0  0  0
   23.1632  -17.0929  -17.0508 C   0  0  0  0  0  0  0  0  0  0  0  0
   23.5957  -17.9079  -15.8813 C   0  0  0  0  0  0  0  0  0  0  0  0
   24.0317  -19.2732  -16.2670 C   0  0  2  0  0  0  0  0  0  0  0  0
   23.0224  -20.0052  -16.9481 N   0  0  0  0  0  0  0  0  0  0  0  0
   24.7017  -19.9797  -15.1560 C   0  0  0  0  0  0  0  0  0  0  0  0
   23.9677  -20.8102  -14.5145 O   0  0  0  0  0  0  0  0  0  0  0  0
   26.0315  -19.8338  -14.7414 N   0  0  0  0  0  0  0  0  0  0  0  0
   27.0540  -18.9378  -15.2117 C   0  0  0  0  0  0  0  0  0  0  0  0
   28.2247  -19.9361  -15.3217 C   0  0  0  0  0  0  0  0  0  0  0  0
   28.1514  -20.5943  -13.9768 C   0  0  0  0  0  0  0  0  0  0  0  0
   26.6814  -20.5948  -13.6383 C   0  0  1  0  0  0  0  0  0  0  0  0
   26.4608  -19.8275  -12.3760 C   0  0  0  0  0  0  0  0  0  0  0  0
   26.5540  -18.5585  -12.3520 O   0  0  0  0  0  0  0  0  0  0  0  0
   26.1441  -20.4789  -11.1765 N   0  0  0  0  0  0  0  0  0  0  0  0
   26.1353  -19.7751   -9.8757 C   0  0  1  0  0  0  0  0  0  0  0  0
   24.7742  -19.1456   -9.7207 C   0  0  0  0  0  0  0  0  0  0  0  0
   23.7066  -20.1592   -9.7967 C   0  0  0  0  0  0  0  0  0  0  0  0
   23.1296  -20.5580  -11.0061 C   0  0  0  0  0  0  0  0  0  0  0  0
   22.1376  -21.5139  -11.0694 C   0  0  0  0  0  0  0  0  0  0  0  0
   21.6864  -22.1075   -9.9096 C   0  0  0  0  0  0  0  0  0  0  0  0
   22.2383  -21.7299   -8.7212 C   0  0  0  0  0  0  0  0  0  0  0  0
   23.2211  -20.7840   -8.6511 C   0  0  0  0  0  0  0  0  0  0  0  0
   26.3358  -20.7573   -8.7999 C   0  0  0  0  0  0  0  0  0  0  0  0
   26.4306  -21.9835   -9.0158 O   0  0  0  0  0  0  0  0  0  0  0  0
   26.4243  -20.3139   -7.4912 O   0  0  0  0  0  0  0  0  0  0  0  0
  2  1  1  0
  3  2  1  0
  4  3  1  0
  4  5  1  0
  5  7  1  0
  5  6  1  1
  7  8  2  0
  9 13  1  0
  9  7  1  0
 10  9  1  0
 11 10  1  0
 11 12  1  0
 12 13  1  0
 14 15  2  0
 13 14  1  1
 16 14  1  0
 17 16  1  0
 17 25  1  0
 17 18  1  1
 19 18  1  0
 20 19  2  0
 21 20  1  0
 22 21  2  0
 22 23  1  0
 23 24  2  0
 24 19  1  0
 25 27  1  0
 26 25  2  0
M  END
$$$$
