MPF.pdb
     RDKit          3D

 27 28  0  0  1  0  0  0  0  0999 V2000
   27.1542  -15.0984  -14.4781 C   0  0  0  0  0  0  0  0  0  0  0  0
   25.5113  -14.8085  -15.1607 S   0  0  0  0  0  0  0  0  0  0  0  0
   24.8437  -16.2824  -15.9255 C   0  0  0  0  0  0  0  0  0  0  0  0
   25.2099  -17.5238  -15.1880 C   0  0  0  0  0  0  0  0  0  0  0  0
   24.6980  -18.7512  -15.8471 C   0  0  2  0  0  0  0  0  0  0  0  0
   23.3182  -18.6691  -16.1757 N   0  0  0  0  0  0  0  0  0  0  0  0
   25.1213  -19.9798  -15.1444 C   0  0  0  0  0  0  0  0  0  0  0  0
   24.1878  -20.6111  -14.5363 O   0  0  0  0  0  0  0  0  0  0  0  0
   26.4153  -20.5115  -15.0768 N   0  0  0  0  0  0  0  0  0  0  0  0
   27.6733  -19.9364  -15.4719 C   0  0  0  0  0  0  0  0  0  0  0  0
   28.2716  -21.1443  -16.2218 C   0  0  0  0  0  0  0  0  0  0  0  0
   28.0541  -22.2300  -15.2110 C   0  0  0  0  0  0  0  0  0  0  0  0
   26.7746  -21.8421  -14.5125 C   0  0  1  0  0  0  0  0  0  0  0  0
   27.0408  -21.6521  -13.0552 C   0  0  0  0  0  0  0  0  0  0  0  0
   28.2229  -21.4714  -12.6199 O   0  0  0  0  0  0  0  0  0  0  0  0
   25.9984  -21.6665  -12.1189 N   0  0  0  0  0  0  0  0  0  0  0  0
   26.2318  -21.4426  -10.6757 C   0  0  1  0  0  0  0  0  0  0  0  0
   27.1812  -20.2776  -10.5550 C   0  0  0  0  0  0  0  0  0  0  0  0
   27.4506  -19.9540   -9.1423 C   0  0  0  0  0  0  0  0  0  0  0  0
   28.2672  -20.7456   -8.3294 C   0  0  0  0  0  0  0  0  0  0  0  0
   28.5218  -20.4306   -7.0112 C   0  0  0  0  0  0  0  0  0  0  0  0
   27.9595  -19.2994   -6.4586 C   0  0  0  0  0  0  0  0  0  0  0  0
   27.1600  -18.5162   -7.2376 C   0  0  0  0  0  0  0  0  0  0  0  0
   26.9038  -18.8220   -8.5438 C   0  0  0  0  0  0  0  0  0  0  0  0
   24.9560  -21.0912  -10.0344 C   0  0  0  0  0  0  0  0  0  0  0  0
   24.6809  -21.4129   -8.8597 O   0  0  0  0  0  0  0  0  0  0  0  0
   24.0153  -20.3745  -10.7547 O   0  0  0  0  0  0  0  0  0  0  0  0
  2  1  1  0
  3  2  1  0
  4  3  1  0
  4  5  1  0
  5  7  1  0
  5  6  1  1
  7  8  2  0
  9 13  1  0
  9  7  1  0
 10  9  1  0
 11 10  1  0
 11 12  1  0
 12 13  1  0
 14 15  2  0
 13 14  1  1
 16 14  1  0
 17 16  1  0
 17 25  1  0
 17 18  1  6
 19 18  1  0
 20 19  2  0
 21 20  1  0
 22 21  2  0
 22 23  1  0
 23 24  2  0
 24 19  1  0
 25 27  1  0
 26 25  2  0
M  END
$$$$
