MPF.pdb
     RDKit          3D

 27 28  0  0  1  0  0  0  0  0999 V2000
   30.0906  -22.8708  -14.6512 C   0  0  0  0  0  0  0  0  0  0  0  0
   29.2289  -22.6694  -16.2216 S   0  0  0  0  0  0  0  0  0  0  0  0
   27.9858  -21.3849  -16.1336 C   0  0  0  0  0  0  0  0  0  0  0  0
   27.6590  -21.0022  -14.7316 C   0  0  0  0  0  0  0  0  0  0  0  0
   26.7121  -19.8617  -14.6572 C   0  0  2  0  0  0  0  0  0  0  0  0
   27.1670  -18.7171  -15.3653 N   0  0  0  0  0  0  0  0  0  0  0  0
   26.2362  -19.6205  -13.2796 C   0  0  0  0  0  0  0  0  0  0  0  0
   26.8537  -18.6978  -12.6415 O   0  0  0  0  0  0  0  0  0  0  0  0
   25.1996  -20.2875  -12.6147 N   0  0  0  0  0  0  0  0  0  0  0  0
   24.4094  -21.4156  -13.0299 C   0  0  0  0  0  0  0  0  0  0  0  0
   23.0118  -20.8965  -12.6341 C   0  0  0  0  0  0  0  0  0  0  0  0
   23.2739  -20.4477  -11.2279 C   0  0  0  0  0  0  0  0  0  0  0  0
   24.7043  -19.9688  -11.2467 C   0  0  1  0  0  0  0  0  0  0  0  0
   25.5113  -20.7729  -10.2809 C   0  0  0  0  0  0  0  0  0  0  0  0
   25.9058  -21.9477  -10.5704 O   0  0  0  0  0  0  0  0  0  0  0  0
   25.8608  -20.2610   -9.0242 N   0  0  0  0  0  0  0  0  0  0  0  0
   26.6364  -21.0474   -8.0406 C   0  0  1  0  0  0  0  0  0  0  0  0
   28.0188  -20.4483   -7.9841 C   0  0  0  0  0  0  0  0  0  0  0  0
   28.2786  -19.8306   -6.6711 C   0  0  0  0  0  0  0  0  0  0  0  0
   28.9569  -20.4956   -5.6454 C   0  0  0  0  0  0  0  0  0  0  0  0
   29.2041  -19.9071   -4.4230 C   0  0  0  0  0  0  0  0  0  0  0  0
   28.7743  -18.6186   -4.1862 C   0  0  0  0  0  0  0  0  0  0  0  0
   28.1107  -17.9556   -5.1759 C   0  0  0  0  0  0  0  0  0  0  0  0
   27.8626  -18.5322   -6.3889 C   0  0  0  0  0  0  0  0  0  0  0  0
   26.0026  -20.9187   -6.7199 C   0  0  0  0  0  0  0  0  0  0  0  0
   25.1958  -20.0061   -6.4456 O   0  0  0  0  0  0  0  0  0  0  0  0
   26.3067  -21.8425   -5.7343 O   0  0  0  0  0  0  0  0  0  0  0  0
  2  1  1  0
  3  2  1  0
  4  3  1  0
  4  5  1  0
  5  7  1  0
  5  6  1  1
  7  8  2  0
  9 13  1  0
  9  7  1  0
 10  9  1  0
 11 10  1  0
 11 12  1  0
 12 13  1  0
 14 15  2  0
 13 14  1  1
 16 14  1  0
 17 16  1  0
 17 25  1  0
 17 18  1  1
 19 18  1  0
 20 19  2  0
 21 20  1  0
 22 21  2  0
 22 23  1  0
 23 24  2  0
 24 19  1  0
 25 27  1  0
 26 25  2  0
M  END
$$$$
