MPF.pdb
     RDKit          3D

 27 28  0  0  1  0  0  0  0  0999 V2000
   23.0709  -22.0410  -19.5727 C   0  0  0  0  0  0  0  0  0  0  0  0
   22.0043  -23.2143  -18.7154 S   0  0  0  0  0  0  0  0  0  0  0  0
   22.9227  -24.2105  -17.5462 C   0  0  0  0  0  0  0  0  0  0  0  0
   24.2133  -24.7015  -18.1049 C   0  0  0  0  0  0  0  0  0  0  0  0
   25.0187  -25.4504  -17.1081 C   0  0  2  0  0  0  0  0  0  0  0  0
   24.4185  -26.6786  -16.7212 N   0  0  0  0  0  0  0  0  0  0  0  0
   25.4861  -24.5857  -16.0053 C   0  0  0  0  0  0  0  0  0  0  0  0
   25.0003  -24.8593  -14.8525 O   0  0  0  0  0  0  0  0  0  0  0  0
   26.3876  -23.5174  -16.0928 N   0  0  0  0  0  0  0  0  0  0  0  0
   27.0157  -22.9293  -17.2457 C   0  0  0  0  0  0  0  0  0  0  0  0
   28.4598  -22.8260  -16.7136 C   0  0  0  0  0  0  0  0  0  0  0  0
   28.2172  -22.1717  -15.3867 C   0  0  0  0  0  0  0  0  0  0  0  0
   26.8756  -22.7021  -14.9460 C   0  0  1  0  0  0  0  0  0  0  0  0
   25.9240  -21.5644  -14.7699 C   0  0  0  0  0  0  0  0  0  0  0  0
   25.0894  -21.2571  -15.6802 O   0  0  0  0  0  0  0  0  0  0  0  0
   25.9183  -20.7976  -13.5971 N   0  0  0  0  0  0  0  0  0  0  0  0
   25.0071  -19.6475  -13.4116 C   0  0  1  0  0  0  0  0  0  0  0  0
   24.1623  -19.9416  -12.1980 C   0  0  0  0  0  0  0  0  0  0  0  0
   24.9993  -20.1335  -10.9999 C   0  0  0  0  0  0  0  0  0  0  0  0
   25.3516  -19.0815  -10.1492 C   0  0  0  0  0  0  0  0  0  0  0  0
   26.1275  -19.2711   -9.0250 C   0  0  0  0  0  0  0  0  0  0  0  0
   26.5808  -20.5355   -8.7135 C   0  0  0  0  0  0  0  0  0  0  0  0
   26.2466  -21.5730   -9.5330 C   0  0  0  0  0  0  0  0  0  0  0  0
   25.4785  -21.3925  -10.6478 C   0  0  0  0  0  0  0  0  0  0  0  0
   25.8076  -18.4401  -13.1587 C   0  0  0  0  0  0  0  0  0  0  0  0
   27.0339  -18.4807  -12.9271 O   0  0  0  0  0  0  0  0  0  0  0  0
   25.1847  -17.2035  -13.1761 O   0  0  0  0  0  0  0  0  0  0  0  0
  2  1  1  0
  3  2  1  0
  4  3  1  0
  4  5  1  0
  5  7  1  0
  5  6  1  1
  7  8  2  0
  9 13  1  0
  9  7  1  0
 10  9  1  0
 11 10  1  0
 11 12  1  0
 12 13  1  0
 14 15  2  0
 13 14  1  6
 16 14  1  0
 17 16  1  0
 17 25  1  0
 17 18  1  1
 19 18  1  0
 20 19  2  0
 21 20  1  0
 22 21  2  0
 22 23  1  0
 23 24  2  0
 24 19  1  0
 25 27  1  0
 26 25  2  0
M  END
$$$$
