RCC.pdb
     RDKit          3D

 24 23  0  0  1  0  0  0  0  0999 V2000
   20.8217  -22.3975   -6.7867 N   0  0  0  0  0  0  0  0  0  0  0  0
   19.9864  -22.4944   -7.9258 C   0  0  0  0  0  0  0  0  0  0  0  0
   18.7313  -22.7666   -7.7965 N   0  0  0  0  0  0  0  0  0  0  0  0
   20.5336  -22.2991   -9.2156 N   0  0  0  0  0  0  0  0  0  0  0  0
   21.9099  -21.9818   -9.4232 C   0  0  0  0  0  0  0  0  0  0  0  0
   22.2192  -20.5161   -9.3850 C   0  0  0  0  0  0  0  0  0  0  0  0
   23.6141  -20.2104   -9.7701 C   0  0  0  0  0  0  0  0  0  0  0  0
   24.2222  -21.2200  -10.7514 C   0  0  2  0  0  0  0  0  0  0  0  0
   25.3305  -21.8843  -10.0794 N   0  0  0  0  0  0  0  0  0  0  0  0
   24.6107  -20.6352  -12.0322 C   0  0  0  0  0  0  0  0  0  0  0  0
   24.3237  -19.4545  -12.2950 O   0  0  0  0  0  0  0  0  0  0  0  0
   18.1140  -22.7848   -8.6165 N   0  0  0  0  0  0  0  0  0  0  0  0
   25.3220  -21.3362  -13.0477 C   0  0  2  0  0  0  0  0  0  0  0  0
   25.6760  -20.7844  -14.3039 C   0  0  0  0  0  0  0  0  0  0  0  0
   26.8359  -21.4530  -14.9833 S   0  0  0  0  0  0  0  0  0  0  0  0
   28.2835  -21.6528  -13.9483 C   0  0  0  0  0  0  0  0  0  0  0  0
   24.5047  -20.7384  -15.2353 O   0  0  0  0  0  0  0  0  0  0  0  0
   23.7425  -21.7388  -15.2677 N   0  0  0  0  0  0  0  0  0  0  0  0
   24.2245  -19.6306  -16.0685 C   0  0  1  0  0  0  0  0  0  0  0  0
   23.0661  -19.5758  -16.9617 C   0  0  0  0  0  0  0  0  0  0  0  0
   21.9244  -18.8242  -16.3043 S   0  0  0  0  0  0  0  0  0  0  0  0
   20.6285  -18.4100  -17.4960 C   0  0  0  0  0  0  0  0  0  0  0  0
   23.4558  -18.8124  -18.1715 O   0  0  0  0  0  0  0  0  0  0  0  0
   22.8285  -19.0428  -19.4047 O   0  0  0  0  0  0  0  0  0  0  0  0
  1  2  1  0
  2  4  1  0
  3  2  2  0
  4  5  1  0
  6  7  1  0
  6  5  1  0
  7  8  1  0
  8 10  1  0
  8  9  1  1
 10 12  1  0
 11 10  2  0
 12 13  1  0
 13 16  1  0
 13 14  1  1
 14 15  1  0
 16 18  1  0
 16 17  2  0
 18 19  1  0
 19 22  1  0
 19 20  1  6
 21 20  1  0
 22 23  1  0
 24 22  2  0
M  END
$$$$
