RCC.pdb
     RDKit          3D

 24 23  0  0  1  0  0  0  0  0999 V2000
   22.8513  -25.1562  -14.7202 N   0  0  0  0  0  0  0  0  0  0  0  0
   24.1798  -24.9913  -15.1814 C   0  0  0  0  0  0  0  0  0  0  0  0
   24.5041  -25.3369  -16.3821 N   0  0  0  0  0  0  0  0  0  0  0  0
   25.1605  -24.4509  -14.3170 N   0  0  0  0  0  0  0  0  0  0  0  0
   24.8397  -23.9257  -13.0288 C   0  0  0  0  0  0  0  0  0  0  0  0
   23.7380  -22.9101  -13.0318 C   0  0  0  0  0  0  0  0  0  0  0  0
   24.0893  -21.6753  -12.2973 C   0  0  0  0  0  0  0  0  0  0  0  0
   25.4021  -21.0311  -12.7592 C   0  0  2  0  0  0  0  0  0  0  0  0
   26.2752  -20.9150  -11.5992 N   0  0  0  0  0  0  0  0  0  0  0  0
   25.2209  -19.7600  -13.4556 C   0  0  0  0  0  0  0  0  0  0  0  0
   24.3822  -18.9370  -13.0499 O   0  0  0  0  0  0  0  0  0  0  0  0
   25.4589  -25.1878  -16.7283 N   0  0  0  0  0  0  0  0  0  0  0  0
   25.9578  -19.3694  -14.6102 C   0  0  2  0  0  0  0  0  0  0  0  0
   25.8764  -18.0919  -15.2179 C   0  0  0  0  0  0  0  0  0  0  0  0
   27.1623  -17.3174  -15.2351 S   0  0  0  0  0  0  0  0  0  0  0  0
   27.0249  -15.6427  -14.6165 C   0  0  0  0  0  0  0  0  0  0  0  0
   25.3200  -18.1761  -16.6053 O   0  0  0  0  0  0  0  0  0  0  0  0
   25.8303  -19.0159  -17.3909 N   0  0  0  0  0  0  0  0  0  0  0  0
   24.2586  -17.3607  -17.0619 C   0  0  1  0  0  0  0  0  0  0  0  0
   23.7360  -17.4207  -18.4279 C   0  0  0  0  0  0  0  0  0  0  0  0
   22.2802  -17.8460  -18.4207 S   0  0  0  0  0  0  0  0  0  0  0  0
   21.3855  -17.1287  -17.0221 C   0  0  0  0  0  0  0  0  0  0  0  0
   23.7918  -16.0542  -19.0004 O   0  0  0  0  0  0  0  0  0  0  0  0
   23.5136  -15.8267  -20.3562 O   0  0  0  0  0  0  0  0  0  0  0  0
  1  2  1  0
  2  4  1  0
  3  2  2  0
  4  5  1  0
  6  7  1  0
  6  5  1  0
  7  8  1  0
  8 10  1  0
  8  9  1  1
 10 12  1  0
 11 10  2  0
 12 13  1  0
 13 16  1  0
 13 14  1  1
 14 15  1  0
 16 18  1  0
 16 17  2  0
 18 19  1  0
 19 22  1  0
 19 20  1  6
 21 20  1  0
 22 23  1  0
 24 22  2  0
M  END
$$$$
