RCC.pdb
     RDKit          3D

 24 23  0  0  1  0  0  0  0  0999 V2000
   20.5073  -24.0600  -14.7745 N   0  0  0  0  0  0  0  0  0  0  0  0
   19.1570  -24.2988  -14.4217 C   0  0  0  0  0  0  0  0  0  0  0  0
   18.5478  -25.3569  -14.8404 N   0  0  0  0  0  0  0  0  0  0  0  0
   18.4685  -23.3665  -13.6104 N   0  0  0  0  0  0  0  0  0  0  0  0
   19.1486  -22.4332  -12.7711 C   0  0  0  0  0  0  0  0  0  0  0  0
   19.8941  -21.3648  -13.5114 C   0  0  0  0  0  0  0  0  0  0  0  0
   20.5844  -20.4143  -12.6127 C   0  0  0  0  0  0  0  0  0  0  0  0
   21.6226  -21.0710  -11.6948 C   0  0  2  0  0  0  0  0  0  0  0  0
   21.0870  -21.0683  -10.3405 N   0  0  0  0  0  0  0  0  0  0  0  0
   22.9483  -20.4631  -11.7761 C   0  0  0  0  0  0  0  0  0  0  0  0
   23.2087  -19.4375  -11.1236 O   0  0  0  0  0  0  0  0  0  0  0  0
   17.5751  -25.5411  -14.5689 N   0  0  0  0  0  0  0  0  0  0  0  0
   24.0125  -20.9708  -12.5751 C   0  0  2  0  0  0  0  0  0  0  0  0
   25.3283  -20.4451  -12.5843 C   0  0  0  0  0  0  0  0  0  0  0  0
   26.4103  -21.4455  -12.2975 S   0  0  0  0  0  0  0  0  0  0  0  0
   26.2480  -22.2779  -10.7204 C   0  0  0  0  0  0  0  0  0  0  0  0
   25.6279  -19.7321  -13.8663 O   0  0  0  0  0  0  0  0  0  0  0  0
   25.1648  -20.2196  -14.9296 N   0  0  0  0  0  0  0  0  0  0  0  0
   26.4000  -18.5489  -13.9290 C   0  0  2  0  0  0  0  0  0  0  0  0
   26.5874  -17.7820  -15.1616 C   0  0  0  0  0  0  0  0  0  0  0  0
   27.5070  -16.6009  -14.9169 S   0  0  0  0  0  0  0  0  0  0  0  0
   27.8799  -15.7203  -16.4520 C   0  0  0  0  0  0  0  0  0  0  0  0
   27.2551  -18.6611  -16.1513 O   0  0  0  0  0  0  0  0  0  0  0  0
   28.2576  -19.5603  -15.7591 O   0  0  0  0  0  0  0  0  0  0  0  0
  1  2  1  0
  2  4  1  0
  3  2  2  0
  4  5  1  0
  6  7  1  0
  6  5  1  0
  7  8  1  0
  8 10  1  0
  8  9  1  1
 10 12  1  0
 11 10  2  0
 12 13  1  0
 13 16  1  0
 13 14  1  1
 14 15  1  0
 16 18  1  0
 16 17  2  0
 18 19  1  0
 19 22  1  0
 19 20  1  6
 21 20  1  0
 22 23  1  0
 24 22  2  0
M  END
$$$$
