RCC.pdb
     RDKit          3D

 24 23  0  0  1  0  0  0  0  0999 V2000
   26.8215  -21.3977  -10.7082 N   0  0  0  0  0  0  0  0  0  0  0  0
   25.8590  -20.4826  -11.1990 C   0  0  0  0  0  0  0  0  0  0  0  0
   24.6082  -20.6340  -10.9183 N   0  0  0  0  0  0  0  0  0  0  0  0
   26.2708  -19.3988  -12.0095 N   0  0  0  0  0  0  0  0  0  0  0  0
   27.3190  -19.5174  -12.9715 C   0  0  0  0  0  0  0  0  0  0  0  0
   26.9046  -19.2112  -14.3786 C   0  0  0  0  0  0  0  0  0  0  0  0
   27.7587  -19.8727  -15.3887 C   0  0  0  0  0  0  0  0  0  0  0  0
   27.4172  -21.3500  -15.6183 C   0  0  2  0  0  0  0  0  0  0  0  0
   28.3359  -21.8702  -16.6215 N   0  0  0  0  0  0  0  0  0  0  0  0
   26.0172  -21.5837  -15.9633 C   0  0  0  0  0  0  0  0  0  0  0  0
   25.5968  -21.3055  -17.0997 O   0  0  0  0  0  0  0  0  0  0  0  0
   23.9014  -20.0170  -11.3348 N   0  0  0  0  0  0  0  0  0  0  0  0
   25.0534  -22.1275  -15.0667 C   0  0  2  0  0  0  0  0  0  0  0  0
   23.7182  -22.4428  -15.4211 C   0  0  0  0  0  0  0  0  0  0  0  0
   23.2107  -23.7461  -14.8753 S   0  0  0  0  0  0  0  0  0  0  0  0
   24.4953  -24.9137  -14.4362 C   0  0  0  0  0  0  0  0  0  0  0  0
   22.7751  -21.3402  -15.0518 O   0  0  0  0  0  0  0  0  0  0  0  0
   22.8830  -20.8371  -13.9038 N   0  0  0  0  0  0  0  0  0  0  0  0
   21.7813  -20.8484  -15.9297 C   0  0  2  0  0  0  0  0  0  0  0  0
   20.9815  -19.6565  -15.6431 C   0  0  0  0  0  0  0  0  0  0  0  0
   20.5455  -18.9875  -16.9326 S   0  0  0  0  0  0  0  0  0  0  0  0
   19.7393  -20.1597  -18.0494 C   0  0  0  0  0  0  0  0  0  0  0  0
   19.7526  -20.0886  -14.9349 O   0  0  0  0  0  0  0  0  0  0  0  0
   19.4644  -21.4490  -14.7518 O   0  0  0  0  0  0  0  0  0  0  0  0
  1  2  1  0
  2  4  1  0
  3  2  2  0
  4  5  1  0
  6  7  1  0
  6  5  1  0
  7  8  1  0
  8 10  1  0
  8  9  1  6
 10 12  1  0
 11 10  2  0
 12 13  1  0
 13 16  1  0
 13 14  1  1
 14 15  1  0
 16 18  1  0
 16 17  2  0
 18 19  1  0
 19 22  1  0
 19 20  1  1
 21 20  1  0
 22 23  1  0
 24 22  2  0
M  END
$$$$
