RCC.pdb
     RDKit          3D

 24 23  0  0  1  0  0  0  0  0999 V2000
   16.5957  -16.4890  -16.0862 N   0  0  0  0  0  0  0  0  0  0  0  0
   16.5534  -15.1629  -15.5917 C   0  0  0  0  0  0  0  0  0  0  0  0
   15.9493  -14.8962  -14.4827 N   0  0  0  0  0  0  0  0  0  0  0  0
   17.1715  -14.1215  -16.3230 N   0  0  0  0  0  0  0  0  0  0  0  0
   18.4611  -14.2651  -16.9182 C   0  0  0  0  0  0  0  0  0  0  0  0
   18.9223  -13.0672  -17.6912 C   0  0  0  0  0  0  0  0  0  0  0  0
   19.5644  -12.0427  -16.8392 C   0  0  0  0  0  0  0  0  0  0  0  0
   21.0914  -12.1639  -16.7675 C   0  0  2  0  0  0  0  0  0  0  0  0
   21.4114  -13.5007  -16.2861 N   0  0  0  0  0  0  0  0  0  0  0  0
   21.7286  -11.1142  -15.9765 C   0  0  0  0  0  0  0  0  0  0  0  0
   21.5681  -11.0730  -14.7444 O   0  0  0  0  0  0  0  0  0  0  0  0
   15.8478  -13.9258  -14.1637 N   0  0  0  0  0  0  0  0  0  0  0  0
   22.5542  -10.0909  -16.5241 C   0  0  1  0  0  0  0  0  0  0  0  0
   23.2301   -9.1105  -15.7560 C   0  0  0  0  0  0  0  0  0  0  0  0
   24.7282   -9.1692  -15.8340 S   0  0  0  0  0  0  0  0  0  0  0  0
   25.4560  -10.5847  -15.0136 C   0  0  0  0  0  0  0  0  0  0  0  0
   22.7616   -7.7285  -16.0912 O   0  0  0  0  0  0  0  0  0  0  0  0
   22.8703   -7.3467  -17.2849 N   0  0  0  0  0  0  0  0  0  0  0  0
   22.2094   -6.8473  -15.1327 C   0  0  1  0  0  0  0  0  0  0  0  0
   21.6930   -5.5204  -15.4718 C   0  0  0  0  0  0  0  0  0  0  0  0
   20.2684   -5.3628  -14.9757 S   0  0  0  0  0  0  0  0  0  0  0  0
   20.0930   -5.9320  -13.2680 C   0  0  0  0  0  0  0  0  0  0  0  0
   22.5187   -4.5125  -14.7642 O   0  0  0  0  0  0  0  0  0  0  0  0
   22.3138   -3.1397  -14.9660 O   0  0  0  0  0  0  0  0  0  0  0  0
  1  2  1  0
  2  4  1  0
  3  2  2  0
  4  5  1  0
  6  7  1  0
  6  5  1  0
  7  8  1  0
  8 10  1  0
  8  9  1  1
 10 12  1  0
 11 10  2  0
 12 13  1  0
 13 16  1  0
 13 14  1  1
 14 15  1  0
 16 18  1  0
 16 17  2  0
 18 19  1  0
 19 22  1  0
 19 20  1  6
 21 20  1  0
 22 23  1  0
 24 22  2  0
M  END
$$$$
