RCC.pdb
     RDKit          3D

 24 23  0  0  1  0  0  0  0  0999 V2000
   18.5453  -24.2366  -12.9683 N   0  0  0  0  0  0  0  0  0  0  0  0
   18.8132  -25.2322  -13.9387 C   0  0  0  0  0  0  0  0  0  0  0  0
   18.0444  -26.2633  -14.0489 N   0  0  0  0  0  0  0  0  0  0  0  0
   19.9362  -25.0994  -14.7886 N   0  0  0  0  0  0  0  0  0  0  0  0
   20.8013  -23.9646  -14.7422 C   0  0  0  0  0  0  0  0  0  0  0  0
   20.1675  -22.6850  -15.1961 C   0  0  0  0  0  0  0  0  0  0  0  0
   21.1191  -21.5536  -15.2404 C   0  0  0  0  0  0  0  0  0  0  0  0
   21.4719  -20.9854  -13.8604 C   0  0  2  0  0  0  0  0  0  0  0  0
   20.6061  -19.8405  -13.6140 N   0  0  0  0  0  0  0  0  0  0  0  0
   22.8878  -20.6640  -13.7007 C   0  0  0  0  0  0  0  0  0  0  0  0
   23.3661  -19.6528  -14.2428 O   0  0  0  0  0  0  0  0  0  0  0  0
   18.2475  -26.9943  -14.7403 N   0  0  0  0  0  0  0  0  0  0  0  0
   23.8042  -21.4472  -12.9421 C   0  0  2  0  0  0  0  0  0  0  0  0
   25.1943  -21.1879  -12.8500 C   0  0  0  0  0  0  0  0  0  0  0  0
   25.8538  -21.7129  -11.6077 S   0  0  0  0  0  0  0  0  0  0  0  0
   27.5372  -21.1505  -11.3706 C   0  0  0  0  0  0  0  0  0  0  0  0
   25.9282  -21.6821  -14.0577 O   0  0  0  0  0  0  0  0  0  0  0  0
   25.7090  -22.8624  -14.4339 N   0  0  0  0  0  0  0  0  0  0  0  0
   26.8454  -20.8863  -14.7826 C   0  0  1  0  0  0  0  0  0  0  0  0
   27.1791  -21.1305  -16.1867 C   0  0  0  0  0  0  0  0  0  0  0  0
   25.9354  -21.0432  -17.0504 S   0  0  0  0  0  0  0  0  0  0  0  0
   26.2993  -21.4284  -18.7797 C   0  0  0  0  0  0  0  0  0  0  0  0
   28.0999  -20.0573  -16.6324 O   0  0  0  0  0  0  0  0  0  0  0  0
   29.1877  -20.3405  -17.4713 O   0  0  0  0  0  0  0  0  0  0  0  0
  1  2  1  0
  2  4  1  0
  3  2  2  0
  4  5  1  0
  6  7  1  0
  6  5  1  0
  7  8  1  0
  8 10  1  0
  8  9  1  6
 10 12  1  0
 11 10  2  0
 12 13  1  0
 13 16  1  0
 13 14  1  1
 14 15  1  0
 16 18  1  0
 16 17  2  0
 18 19  1  0
 19 22  1  0
 19 20  1  6
 21 20  1  0
 22 23  1  0
 24 22  2  0
M  END
$$$$
