RCC.pdb
     RDKit          3D

 24 23  0  0  1  0  0  0  0  0999 V2000
   25.9489  -15.1763  -18.3412 N   0  0  0  0  0  0  0  0  0  0  0  0
   27.3604  -15.2647  -18.2730 C   0  0  0  0  0  0  0  0  0  0  0  0
   28.1006  -14.5059  -19.0096 N   0  0  0  0  0  0  0  0  0  0  0  0
   27.9634  -16.1970  -17.3965 N   0  0  0  0  0  0  0  0  0  0  0  0
   27.2689  -17.3418  -16.9011 C   0  0  0  0  0  0  0  0  0  0  0  0
   25.8796  -17.0600  -16.4155 C   0  0  0  0  0  0  0  0  0  0  0  0
   25.1505  -18.2818  -16.0116 C   0  0  0  0  0  0  0  0  0  0  0  0
   26.0637  -19.4289  -15.5619 C   0  0  2  0  0  0  0  0  0  0  0  0
   26.4715  -20.1670  -16.7493 N   0  0  0  0  0  0  0  0  0  0  0  0
   25.4692  -20.2892  -14.5420 C   0  0  0  0  0  0  0  0  0  0  0  0
   24.6246  -21.1448  -14.8583 O   0  0  0  0  0  0  0  0  0  0  0  0
   29.1240  -14.5728  -18.9648 N   0  0  0  0  0  0  0  0  0  0  0  0
   25.7918  -20.2258  -13.1562 C   0  0  2  0  0  0  0  0  0  0  0  0
   25.0734  -20.8962  -12.1352 C   0  0  0  0  0  0  0  0  0  0  0  0
   25.6868  -20.8061  -10.7679 S   0  0  0  0  0  0  0  0  0  0  0  0
   24.5709  -21.2165   -9.4289 C   0  0  0  0  0  0  0  0  0  0  0  0
   23.6468  -20.4456  -12.0785 O   0  0  0  0  0  0  0  0  0  0  0  0
   23.4192  -19.2106  -12.1535 N   0  0  0  0  0  0  0  0  0  0  0  0
   22.5597  -21.3404  -11.9456 C   0  0  1  0  0  0  0  0  0  0  0  0
   21.1626  -20.9042  -11.9382 C   0  0  0  0  0  0  0  0  0  0  0  0
   20.8018  -20.2571  -13.2618 S   0  0  0  0  0  0  0  0  0  0  0  0
   19.0575  -19.7821  -13.3153 C   0  0  0  0  0  0  0  0  0  0  0  0
   20.3077  -22.1065  -11.7895 O   0  0  0  0  0  0  0  0  0  0  0  0
   19.1036  -22.0529  -11.0722 O   0  0  0  0  0  0  0  0  0  0  0  0
  1  2  1  0
  2  4  1  0
  3  2  2  0
  4  5  1  0
  6  7  1  0
  6  5  1  0
  7  8  1  0
  8 10  1  0
  8  9  1  6
 10 12  1  0
 11 10  2  0
 12 13  1  0
 13 16  1  0
 13 14  1  1
 14 15  1  0
 16 18  1  0
 16 17  2  0
 18 19  1  0
 19 22  1  0
 19 20  1  1
 21 20  1  0
 22 23  1  0
 24 22  2  0
M  END
$$$$
