RCC.pdb
     RDKit          3D

 24 23  0  0  1  0  0  0  0  0999 V2000
   29.5764  -20.3418  -18.7063 N   0  0  0  0  0  0  0  0  0  0  0  0
   29.8054  -18.9487  -18.8140 C   0  0  0  0  0  0  0  0  0  0  0  0
   30.4700  -18.4692  -19.8113 N   0  0  0  0  0  0  0  0  0  0  0  0
   29.3085  -18.0769  -17.8169 N   0  0  0  0  0  0  0  0  0  0  0  0
   28.6415  -18.5524  -16.6476 C   0  0  0  0  0  0  0  0  0  0  0  0
   27.1531  -18.6580  -16.7844 C   0  0  0  0  0  0  0  0  0  0  0  0
   26.4846  -19.0553  -15.5263 C   0  0  0  0  0  0  0  0  0  0  0  0
   27.0300  -20.3526  -14.9170 C   0  0  2  0  0  0  0  0  0  0  0  0
   27.4225  -21.2298  -16.0114 N   0  0  0  0  0  0  0  0  0  0  0  0
   26.1099  -20.9965  -13.9830 C   0  0  0  0  0  0  0  0  0  0  0  0
   25.2294  -21.7677  -14.4018 O   0  0  0  0  0  0  0  0  0  0  0  0
   30.6065  -17.4566  -19.9091 N   0  0  0  0  0  0  0  0  0  0  0  0
   26.1403  -20.8055  -12.5719 C   0  0  2  0  0  0  0  0  0  0  0  0
   25.0901  -21.1674  -11.6920 C   0  0  0  0  0  0  0  0  0  0  0  0
   25.3829  -20.9494  -10.2358 S   0  0  0  0  0  0  0  0  0  0  0  0
   27.1044  -21.1573   -9.7888 C   0  0  0  0  0  0  0  0  0  0  0  0
   23.8073  -20.4865  -12.0557 O   0  0  0  0  0  0  0  0  0  0  0  0
   23.8732  -19.3107  -12.4980 N   0  0  0  0  0  0  0  0  0  0  0  0
   22.5417  -21.1038  -11.9236 C   0  0  1  0  0  0  0  0  0  0  0  0
   21.3724  -20.7039  -12.7080 C   0  0  0  0  0  0  0  0  0  0  0  0
   21.6092  -20.9636  -14.1834 S   0  0  0  0  0  0  0  0  0  0  0  0
   20.2409  -20.3490  -15.1940 C   0  0  0  0  0  0  0  0  0  0  0  0
   20.2291  -21.5508  -12.2907 O   0  0  0  0  0  0  0  0  0  0  0  0
   20.4372  -22.7903  -11.6681 O   0  0  0  0  0  0  0  0  0  0  0  0
  1  2  1  0
  2  4  1  0
  3  2  2  0
  4  5  1  0
  6  7  1  0
  6  5  1  0
  7  8  1  0
  8 10  1  0
  8  9  1  6
 10 12  1  0
 11 10  2  0
 12 13  1  0
 13 16  1  0
 13 14  1  6
 14 15  1  0
 16 18  1  0
 16 17  2  0
 18 19  1  0
 19 22  1  0
 19 20  1  1
 21 20  1  0
 22 23  1  0
 24 22  2  0
M  END
$$$$
