RCC.pdb
     RDKit          3D

 24 23  0  0  1  0  0  0  0  0999 V2000
   21.9880  -21.8636   -7.8580 N   0  0  0  0  0  0  0  0  0  0  0  0
   23.3352  -21.6025   -7.5094 C   0  0  0  0  0  0  0  0  0  0  0  0
   23.6924  -21.5474   -6.2702 N   0  0  0  0  0  0  0  0  0  0  0  0
   24.2953  -21.3929   -8.5270 N   0  0  0  0  0  0  0  0  0  0  0  0
   24.0302  -21.6798   -9.9002 C   0  0  0  0  0  0  0  0  0  0  0  0
   25.1931  -21.4477  -10.8161 C   0  0  0  0  0  0  0  0  0  0  0  0
   25.1776  -20.1070  -11.4404 C   0  0  0  0  0  0  0  0  0  0  0  0
   24.6737  -20.1030  -12.8888 C   0  0  2  0  0  0  0  0  0  0  0  0
   25.2029  -21.2883  -13.5493 N   0  0  0  0  0  0  0  0  0  0  0  0
   24.9778  -18.8723  -13.6144 C   0  0  0  0  0  0  0  0  0  0  0  0
   24.4688  -17.7945  -13.2614 O   0  0  0  0  0  0  0  0  0  0  0  0
   24.6752  -21.3947   -6.0165 N   0  0  0  0  0  0  0  0  0  0  0  0
   25.8469  -18.8028  -14.7406 C   0  0  1  0  0  0  0  0  0  0  0  0
   26.1126  -17.6207  -15.4754 C   0  0  0  0  0  0  0  0  0  0  0  0
   27.4035  -16.9376  -15.1278 S   0  0  0  0  0  0  0  0  0  0  0  0
   27.6209  -15.3340  -15.8944 C   0  0  0  0  0  0  0  0  0  0  0  0
   26.0527  -17.8642  -16.9515 O   0  0  0  0  0  0  0  0  0  0  0  0
   26.7749  -18.7796  -17.4238 N   0  0  0  0  0  0  0  0  0  0  0  0
   25.2282  -17.1166  -17.8240 C   0  0  1  0  0  0  0  0  0  0  0  0
   25.1979  -17.3291  -19.2719 C   0  0  0  0  0  0  0  0  0  0  0  0
   23.8111  -17.0516  -19.8199 S   0  0  0  0  0  0  0  0  0  0  0  0
   22.5600  -18.0774  -19.0115 C   0  0  0  0  0  0  0  0  0  0  0  0
   26.1213  -16.3525  -19.8979 O   0  0  0  0  0  0  0  0  0  0  0  0
   26.3996  -16.3991  -21.2719 O   0  0  0  0  0  0  0  0  0  0  0  0
  1  2  1  0
  2  4  1  0
  3  2  2  0
  4  5  1  0
  6  7  1  0
  6  5  1  0
  7  8  1  0
  8 10  1  0
  8  9  1  6
 10 12  1  0
 11 10  2  0
 12 13  1  0
 13 16  1  0
 13 14  1  1
 14 15  1  0
 16 18  1  0
 16 17  2  0
 18 19  1  0
 19 22  1  0
 19 20  1  6
 21 20  1  0
 22 23  1  0
 24 22  2  0
M  END
$$$$
