RCC.pdb
     RDKit          3D

 24 23  0  0  1  0  0  0  0  0999 V2000
   29.5587  -22.9420  -16.6697 N   0  0  0  0  0  0  0  0  0  0  0  0
   28.6882  -22.1320  -17.4383 C   0  0  0  0  0  0  0  0  0  0  0  0
   28.8559  -22.0161  -18.7129 N   0  0  0  0  0  0  0  0  0  0  0  0
   27.6315  -21.4386  -16.8029 N   0  0  0  0  0  0  0  0  0  0  0  0
   27.0463  -21.8885  -15.5809 C   0  0  0  0  0  0  0  0  0  0  0  0
   26.6425  -23.3315  -15.5832 C   0  0  0  0  0  0  0  0  0  0  0  0
   25.3437  -23.5663  -16.2506 C   0  0  0  0  0  0  0  0  0  0  0  0
   24.1763  -23.7780  -15.2789 C   0  0  2  0  0  0  0  0  0  0  0  0
   23.7647  -25.1719  -15.3718 N   0  0  0  0  0  0  0  0  0  0  0  0
   23.0667  -22.8497  -15.4808 C   0  0  0  0  0  0  0  0  0  0  0  0
   22.3169  -22.9737  -16.4646 O   0  0  0  0  0  0  0  0  0  0  0  0
   28.2180  -21.4388  -19.2729 N   0  0  0  0  0  0  0  0  0  0  0  0
   22.7600  -21.7687  -14.6057 C   0  0  2  0  0  0  0  0  0  0  0  0
   21.6973  -20.8529  -14.8059 C   0  0  0  0  0  0  0  0  0  0  0  0
   20.5768  -20.9585  -13.8123 S   0  0  0  0  0  0  0  0  0  0  0  0
   21.1081  -21.0233  -12.1035 C   0  0  0  0  0  0  0  0  0  0  0  0
   22.1903  -19.4404  -14.8616 O   0  0  0  0  0  0  0  0  0  0  0  0
   22.7250  -18.9654  -13.8266 N   0  0  0  0  0  0  0  0  0  0  0  0
   22.0806  -18.6297  -16.0152 C   0  0  1  0  0  0  0  0  0  0  0  0
   22.5560  -17.2463  -16.0673 C   0  0  0  0  0  0  0  0  0  0  0  0
   23.6837  -17.1103  -17.0724 S   0  0  0  0  0  0  0  0  0  0  0  0
   24.9602  -18.3650  -16.8121 C   0  0  0  0  0  0  0  0  0  0  0  0
   21.4388  -16.3953  -16.5427 O   0  0  0  0  0  0  0  0  0  0  0  0
   21.5403  -14.9964  -16.5313 O   0  0  0  0  0  0  0  0  0  0  0  0
  1  2  1  0
  2  4  1  0
  3  2  2  0
  4  5  1  0
  6  7  1  0
  6  5  1  0
  7  8  1  0
  8 10  1  0
  8  9  1  6
 10 12  1  0
 11 10  2  0
 12 13  1  0
 13 16  1  0
 13 14  1  1
 14 15  1  0
 16 18  1  0
 16 17  2  0
 18 19  1  0
 19 22  1  0
 19 20  1  1
 21 20  1  0
 22 23  1  0
 24 22  2  0
M  END
$$$$
