RCC.pdb
     RDKit          3D

 24 23  0  0  1  0  0  0  0  0999 V2000
   28.6001  -27.9797  -16.1293 N   0  0  0  0  0  0  0  0  0  0  0  0
   29.4252  -26.9303  -16.6011 C   0  0  0  0  0  0  0  0  0  0  0  0
   30.5982  -27.1827  -17.0770 N   0  0  0  0  0  0  0  0  0  0  0  0
   28.9633  -25.5945  -16.5431 N   0  0  0  0  0  0  0  0  0  0  0  0
   27.7282  -25.1855  -17.1309 C   0  0  0  0  0  0  0  0  0  0  0  0
   26.5752  -25.1353  -16.1754 C   0  0  0  0  0  0  0  0  0  0  0  0
   25.3491  -25.7606  -16.7170 C   0  0  0  0  0  0  0  0  0  0  0  0
   24.9442  -25.2360  -18.1000 C   0  0  2  0  0  0  0  0  0  0  0  0
   23.6433  -24.5941  -17.9711 N   0  0  0  0  0  0  0  0  0  0  0  0
   24.9668  -26.2554  -19.1459 C   0  0  0  0  0  0  0  0  0  0  0  0
   23.9602  -26.4564  -19.8471 O   0  0  0  0  0  0  0  0  0  0  0  0
   31.2205  -26.4186  -17.3644 N   0  0  0  0  0  0  0  0  0  0  0  0
   26.0955  -27.0723  -19.4412 C   0  0  2  0  0  0  0  0  0  0  0  0
   26.1323  -28.0460  -20.4701 C   0  0  0  0  0  0  0  0  0  0  0  0
   27.5101  -28.4651  -20.8942 S   0  0  0  0  0  0  0  0  0  0  0  0
   28.7372  -27.1637  -20.8099 C   0  0  0  0  0  0  0  0  0  0  0  0
   25.3250  -29.2553  -20.1133 O   0  0  0  0  0  0  0  0  0  0  0  0
   25.1863  -29.5278  -18.8929 N   0  0  0  0  0  0  0  0  0  0  0  0
   24.7204  -30.0922  -21.0799 C   0  0  2  0  0  0  0  0  0  0  0  0
   23.8279  -31.1989  -20.7319 C   0  0  0  0  0  0  0  0  0  0  0  0
   24.3230  -31.9081  -19.4860 S   0  0  0  0  0  0  0  0  0  0  0  0
   25.8924  -32.7562  -19.7838 C   0  0  0  0  0  0  0  0  0  0  0  0
   22.4957  -30.6309  -20.4141 O   0  0  0  0  0  0  0  0  0  0  0  0
   21.4451  -31.4520  -19.9789 O   0  0  0  0  0  0  0  0  0  0  0  0
  1  2  1  0
  2  4  1  0
  3  2  2  0
  4  5  1  0
  6  7  1  0
  6  5  1  0
  7  8  1  0
  8 10  1  0
  8  9  1  1
 10 12  1  0
 11 10  2  0
 12 13  1  0
 13 16  1  0
 13 14  1  6
 14 15  1  0
 16 18  1  0
 16 17  2  0
 18 19  1  0
 19 22  1  0
 19 20  1  6
 21 20  1  0
 22 23  1  0
 24 22  2  0
M  END
$$$$
