GSD.pdb
     RDKit          3D

 19 18  0  0  1  0  0  0  0  0999 V2000
   11.2814  -10.9308   -8.9817 N   0  0  0  0  0  0  0  0  0  0  0  0
   11.8224   -9.8539   -9.7796 C   0  0  0  0  0  0  0  0  0  0  0  0
   13.2378   -9.6302   -9.3496 C   0  0  0  0  0  0  0  0  0  0  0  0
   13.8066  -10.4371   -8.5758 O   0  0  0  0  0  0  0  0  0  0  0  0
   16.1834   -9.4795  -11.5893 O   0  0  0  0  0  0  0  0  0  0  0  0
   16.1877   -9.5566  -10.1832 C   0  0  0  0  0  0  0  0  0  0  0  0
   15.3934   -8.4423   -9.5546 C   0  0  2  0  0  0  0  0  0  0  0  0
   13.9954   -8.5194   -9.7837 N   0  0  0  0  0  0  0  0  0  0  0  0
   15.9596   -7.1484  -10.0167 C   0  0  0  0  0  0  0  0  0  0  0  0
   15.4806   -6.6460  -11.0630 O   0  0  0  0  0  0  0  0  0  0  0  0
   16.9944   -6.4647   -9.3492 N   0  0  0  0  0  0  0  0  0  0  0  0
   17.4835   -5.1390   -9.7937 C   0  0  1  0  0  0  0  0  0  0  0  0
   17.7221   -4.2650   -8.6076 C   0  0  0  0  0  0  0  0  0  0  0  0
   18.0313   -2.8905   -9.0103 C   0  0  0  0  0  0  0  0  0  0  0  0
   17.9193   -2.4522  -10.1738 O   0  0  0  0  0  0  0  0  0  0  0  0
   18.7180   -5.3296  -10.5797 C   0  0  0  0  0  0  0  0  0  0  0  0
   19.5823   -6.1886  -10.3985 O   0  0  0  0  0  0  0  0  0  0  0  0
   18.4939   -1.9331   -8.0747 O   0  0  0  0  0  0  0  0  0  0  0  0
   18.9553   -4.4471  -11.6586 O   0  0  0  0  0  0  0  0  0  0  0  0
  1  2  1  0
  3  4  2  0
  3  2  1  0
  5  6  1  0
  7  6  1  6
  7  8  1  0
  8  3  1  0
  9 11  1  0
  9  7  1  0
 10  9  2  0
 12 11  1  0
 12 16  1  0
 13 14  1  0
 12 13  1  1
 14 15  2  0
 16 19  1  0
 17 16  2  0
 18 14  1  0
M  END
$$$$
