GSD.pdb
     RDKit          3D

 19 18  0  0  1  0  0  0  0  0999 V2000
   22.9083  -10.9072  -19.3839 N   0  0  0  0  0  0  0  0  0  0  0  0
   21.8792  -11.4575  -18.5312 C   0  0  0  0  0  0  0  0  0  0  0  0
   21.2548  -10.3265  -17.7766 C   0  0  0  0  0  0  0  0  0  0  0  0
   20.9662   -9.2524  -18.3566 O   0  0  0  0  0  0  0  0  0  0  0  0
   18.8835   -8.7328  -13.8502 O   0  0  0  0  0  0  0  0  0  0  0  0
   19.5796   -9.7951  -14.4584 C   0  0  0  0  0  0  0  0  0  0  0  0
   20.2697   -9.3651  -15.7260 C   0  0  2  0  0  0  0  0  0  0  0  0
   20.9624  -10.4059  -16.3965 N   0  0  0  0  0  0  0  0  0  0  0  0
   21.1636   -8.2222  -15.4051 C   0  0  0  0  0  0  0  0  0  0  0  0
   22.3204   -8.4874  -14.9951 O   0  0  0  0  0  0  0  0  0  0  0  0
   20.7840   -6.8721  -15.5354 N   0  0  0  0  0  0  0  0  0  0  0  0
   21.7027   -5.7561  -15.2113 C   0  0  1  0  0  0  0  0  0  0  0  0
   21.3154   -4.5414  -15.9872 C   0  0  0  0  0  0  0  0  0  0  0  0
   22.1807   -3.4036  -15.6656 C   0  0  0  0  0  0  0  0  0  0  0  0
   21.7911   -2.3510  -15.1191 O   0  0  0  0  0  0  0  0  0  0  0  0
   21.6493   -5.5066  -13.7576 C   0  0  0  0  0  0  0  0  0  0  0  0
   22.3136   -4.6837  -13.1257 O   0  0  0  0  0  0  0  0  0  0  0  0
   23.5654   -3.4213  -15.9630 O   0  0  0  0  0  0  0  0  0  0  0  0
   20.7489   -6.2796  -12.9889 O   0  0  0  0  0  0  0  0  0  0  0  0
  1  2  1  0
  3  4  2  0
  3  2  1  0
  5  6  1  0
  7  6  1  1
  7  8  1  0
  8  3  1  0
  9 11  1  0
  9  7  1  0
 10  9  2  0
 12 11  1  0
 12 16  1  0
 13 14  1  0
 12 13  1  6
 14 15  2  0
 16 19  1  0
 17 16  2  0
 18 14  1  0
M  END
$$$$
