GSD.pdb
     RDKit          3D

 19 18  0  0  1  0  0  0  0  0999 V2000
   21.3933  -13.0708  -17.7950 N   0  0  0  0  0  0  0  0  0  0  0  0
   22.0691  -11.7939  -17.7525 C   0  0  0  0  0  0  0  0  0  0  0  0
   21.1468  -10.8074  -17.1088 C   0  0  0  0  0  0  0  0  0  0  0  0
   19.9035  -10.9190  -17.2320 O   0  0  0  0  0  0  0  0  0  0  0  0
   22.1931   -8.3113  -13.8957 O   0  0  0  0  0  0  0  0  0  0  0  0
   20.8735   -8.6372  -14.2636 C   0  0  0  0  0  0  0  0  0  0  0  0
   20.7238   -8.7857  -15.7547 C   0  0  2  0  0  0  0  0  0  0  0  0
   21.6175   -9.7179  -16.3421 N   0  0  0  0  0  0  0  0  0  0  0  0
   20.8443   -7.4390  -16.3714 C   0  0  0  0  0  0  0  0  0  0  0  0
   21.9729   -7.0971  -16.8028 O   0  0  0  0  0  0  0  0  0  0  0  0
   19.7700   -6.5365  -16.4950 N   0  0  0  0  0  0  0  0  0  0  0  0
   19.9311   -5.1900  -17.0910 C   0  0  1  0  0  0  0  0  0  0  0  0
   18.9581   -5.0127  -18.2088 C   0  0  0  0  0  0  0  0  0  0  0  0
   19.0638   -3.6772  -18.8023 C   0  0  0  0  0  0  0  0  0  0  0  0
   18.2424   -2.7551  -18.6201 O   0  0  0  0  0  0  0  0  0  0  0  0
   19.7294   -4.1785  -16.0354 C   0  0  0  0  0  0  0  0  0  0  0  0
   19.1669   -4.3451  -14.9521 O   0  0  0  0  0  0  0  0  0  0  0  0
   20.1423   -3.3300  -19.6523 O   0  0  0  0  0  0  0  0  0  0  0  0
   20.2253   -2.8749  -16.2683 O   0  0  0  0  0  0  0  0  0  0  0  0
  1  2  1  0
  3  4  2  0
  3  2  1  0
  5  6  1  0
  7  6  1  1
  7  8  1  0
  8  3  1  0
  9 11  1  0
  9  7  1  0
 10  9  2  0
 12 11  1  0
 12 16  1  0
 13 14  1  0
 12 13  1  6
 14 15  2  0
 16 19  1  0
 17 16  2  0
 18 14  1  0
M  END
$$$$
