GSD.pdb
     RDKit          3D

 19 18  0  0  1  0  0  0  0  0999 V2000
   15.6320  -11.2962  -14.8600 N   0  0  0  0  0  0  0  0  0  0  0  0
   16.1238  -10.1215  -15.5434 C   0  0  0  0  0  0  0  0  0  0  0  0
   17.4205   -9.7299  -14.9081 C   0  0  0  0  0  0  0  0  0  0  0  0
   17.5025   -9.5709  -13.6665 O   0  0  0  0  0  0  0  0  0  0  0  0
   22.1955   -9.4499  -14.8387 O   0  0  0  0  0  0  0  0  0  0  0  0
   21.0263   -9.8790  -15.4957 C   0  0  0  0  0  0  0  0  0  0  0  0
   19.8100   -9.1188  -15.0370 C   0  0  2  0  0  0  0  0  0  0  0  0
   18.5999   -9.5221  -15.6580 N   0  0  0  0  0  0  0  0  0  0  0  0
   20.0705   -7.6675  -15.2222 C   0  0  0  0  0  0  0  0  0  0  0  0
   19.9718   -7.2040  -16.3850 O   0  0  0  0  0  0  0  0  0  0  0  0
   20.4188   -6.7953  -14.1726 N   0  0  0  0  0  0  0  0  0  0  0  0
   20.7668   -5.3744  -14.4057 C   0  0  1  0  0  0  0  0  0  0  0  0
   19.5830   -4.5112  -14.1212 C   0  0  0  0  0  0  0  0  0  0  0  0
   19.8808   -3.0979  -14.3673 C   0  0  0  0  0  0  0  0  0  0  0  0
   20.9193   -2.6796  -14.9194 O   0  0  0  0  0  0  0  0  0  0  0  0
   21.9114   -5.0204  -13.5440 C   0  0  0  0  0  0  0  0  0  0  0  0
   22.4318   -5.7292  -12.6811 O   0  0  0  0  0  0  0  0  0  0  0  0
   18.9796   -2.0752  -13.9822 O   0  0  0  0  0  0  0  0  0  0  0  0
   22.4884   -3.7399  -13.7075 O   0  0  0  0  0  0  0  0  0  0  0  0
  1  2  1  0
  3  4  2  0
  3  2  1  0
  5  6  1  0
  7  6  1  6
  7  8  1  0
  8  3  1  0
  9 11  1  0
  9  7  1  0
 10  9  2  0
 12 11  1  0
 12 16  1  0
 13 14  1  0
 12 13  1  1
 14 15  2  0
 16 19  1  0
 17 16  2  0
 18 14  1  0
M  END
$$$$
