GSD.pdb
     RDKit          3D

 19 18  0  0  1  0  0  0  0  0999 V2000
   13.9665  -15.5885  -13.8509 N   0  0  0  0  0  0  0  0  0  0  0  0
   13.8890  -14.1519  -13.7125 C   0  0  0  0  0  0  0  0  0  0  0  0
   14.9254  -13.5479  -14.6066 C   0  0  0  0  0  0  0  0  0  0  0  0
   15.6481  -14.2742  -15.3302 O   0  0  0  0  0  0  0  0  0  0  0  0
   14.5015  -10.2391  -16.8025 O   0  0  0  0  0  0  0  0  0  0  0  0
   15.5114  -11.2130  -16.9231 C   0  0  0  0  0  0  0  0  0  0  0  0
   16.0852  -11.5995  -15.5855 C   0  0  2  0  0  0  0  0  0  0  0  0
   15.1417  -12.1537  -14.6826 N   0  0  0  0  0  0  0  0  0  0  0  0
   16.7695  -10.4118  -15.0115 C   0  0  0  0  0  0  0  0  0  0  0  0
   16.1294   -9.7165  -14.1847 O   0  0  0  0  0  0  0  0  0  0  0  0
   18.0839  -10.0301  -15.3436 N   0  0  0  0  0  0  0  0  0  0  0  0
   18.7275   -8.8249  -14.7711 C   0  0  1  0  0  0  0  0  0  0  0  0
   20.1965   -9.0519  -14.6375 C   0  0  0  0  0  0  0  0  0  0  0  0
   20.8588   -7.9075  -14.0063 C   0  0  0  0  0  0  0  0  0  0  0  0
   20.2620   -6.9256  -13.5184 O   0  0  0  0  0  0  0  0  0  0  0  0
   18.4378   -7.6729  -15.6470 C   0  0  0  0  0  0  0  0  0  0  0  0
   18.4558   -6.4825  -15.3300 O   0  0  0  0  0  0  0  0  0  0  0  0
   22.2696   -7.8351  -13.9033 O   0  0  0  0  0  0  0  0  0  0  0  0
   18.1028   -7.9376  -16.9950 O   0  0  0  0  0  0  0  0  0  0  0  0
  1  2  1  0
  3  4  2  0
  3  2  1  0
  5  6  1  0
  7  6  1  6
  7  8  1  0
  8  3  1  0
  9 11  1  0
  9  7  1  0
 10  9  2  0
 12 11  1  0
 12 16  1  0
 13 14  1  0
 12 13  1  6
 14 15  2  0
 16 19  1  0
 17 16  2  0
 18 14  1  0
M  END
$$$$
