GSD.pdb
     RDKit          3D

 19 18  0  0  1  0  0  0  0  0999 V2000
   15.1763  -11.0796  -15.2851 N   0  0  0  0  0  0  0  0  0  0  0  0
   15.4272   -9.6582  -15.3600 C   0  0  0  0  0  0  0  0  0  0  0  0
   16.7709   -9.3967  -14.7564 C   0  0  0  0  0  0  0  0  0  0  0  0
   16.9438   -9.4846  -13.5171 O   0  0  0  0  0  0  0  0  0  0  0  0
   20.4302  -10.5543  -16.0021 O   0  0  0  0  0  0  0  0  0  0  0  0
   20.3361   -9.1634  -15.8036 C   0  0  0  0  0  0  0  0  0  0  0  0
   19.1593   -8.7951  -14.9391 C   0  0  2  0  0  0  0  0  0  0  0  0
   17.8959   -9.0434  -15.5348 N   0  0  0  0  0  0  0  0  0  0  0  0
   19.3087   -7.3745  -14.5294 C   0  0  0  0  0  0  0  0  0  0  0  0
   18.8917   -6.4948  -15.3225 O   0  0  0  0  0  0  0  0  0  0  0  0
   19.8877   -6.9687  -13.3112 N   0  0  0  0  0  0  0  0  0  0  0  0
   20.0546   -5.5418  -12.9499 C   0  0  1  0  0  0  0  0  0  0  0  0
   19.1078   -5.1845  -11.8530 C   0  0  0  0  0  0  0  0  0  0  0  0
   19.3108   -6.0316  -10.6748 C   0  0  0  0  0  0  0  0  0  0  0  0
   20.0229   -7.0567  -10.6549 O   0  0  0  0  0  0  0  0  0  0  0  0
   21.4563   -5.3171  -12.5464 C   0  0  0  0  0  0  0  0  0  0  0  0
   22.3318   -6.1736  -12.4134 O   0  0  0  0  0  0  0  0  0  0  0  0
   18.6917   -5.7345   -9.4360 O   0  0  0  0  0  0  0  0  0  0  0  0
   21.8606   -3.9887  -12.2798 O   0  0  0  0  0  0  0  0  0  0  0  0
  1  2  1  0
  3  4  2  0
  3  2  1  0
  5  6  1  0
  7  6  1  6
  7  8  1  0
  8  3  1  0
  9 11  1  0
  9  7  1  0
 10  9  2  0
 12 11  1  0
 12 16  1  0
 13 14  1  0
 12 13  1  1
 14 15  2  0
 16 19  1  0
 17 16  2  0
 18 14  1  0
M  END
$$$$
