GSD.pdb
     RDKit          3D

 19 18  0  0  1  0  0  0  0  0999 V2000
   17.5477  -11.4693  -17.2898 N   0  0  0  0  0  0  0  0  0  0  0  0
   18.5762  -10.6446  -17.8822 C   0  0  0  0  0  0  0  0  0  0  0  0
   19.3823  -10.0478  -16.7721 C   0  0  0  0  0  0  0  0  0  0  0  0
   18.8305   -9.6770  -15.7084 O   0  0  0  0  0  0  0  0  0  0  0  0
   23.6570   -8.8778  -14.7754 O   0  0  0  0  0  0  0  0  0  0  0  0
   22.9802   -9.5536  -15.8089 C   0  0  0  0  0  0  0  0  0  0  0  0
   21.5119   -9.2200  -15.8343 C   0  0  2  0  0  0  0  0  0  0  0  0
   20.7816   -9.8731  -16.8604 N   0  0  0  0  0  0  0  0  0  0  0  0
   21.3711   -7.7425  -15.9089 C   0  0  0  0  0  0  0  0  0  0  0  0
   21.4886   -7.2046  -17.0375 O   0  0  0  0  0  0  0  0  0  0  0  0
   21.1159   -6.9238  -14.7916 N   0  0  0  0  0  0  0  0  0  0  0  0
   21.1105   -5.4450  -14.8777 C   0  0  1  0  0  0  0  0  0  0  0  0
   19.7069   -4.9409  -14.8207 C   0  0  0  0  0  0  0  0  0  0  0  0
   19.6621   -3.4775  -14.8772 C   0  0  0  0  0  0  0  0  0  0  0  0
   19.2191   -2.7477  -13.9665 O   0  0  0  0  0  0  0  0  0  0  0  0
   21.9228   -4.9039  -13.7707 C   0  0  0  0  0  0  0  0  0  0  0  0
   22.2972   -5.5104  -12.7658 O   0  0  0  0  0  0  0  0  0  0  0  0
   20.1346   -2.7672  -16.0079 O   0  0  0  0  0  0  0  0  0  0  0  0
   22.3261   -3.5509  -13.8492 O   0  0  0  0  0  0  0  0  0  0  0  0
  1  2  1  0
  3  4  2  0
  3  2  1  0
  5  6  1  0
  7  6  1  6
  7  8  1  0
  8  3  1  0
  9 11  1  0
  9  7  1  0
 10  9  2  0
 12 11  1  0
 12 16  1  0
 13 14  1  0
 12 13  1  1
 14 15  2  0
 16 19  1  0
 17 16  2  0
 18 14  1  0
M  END
$$$$
