GSD.pdb
     RDKit          3D

 19 18  0  0  1  0  0  0  0  0999 V2000
   19.7761  -10.1321  -17.5008 N   0  0  0  0  0  0  0  0  0  0  0  0
   20.7612   -9.0823  -17.6285 C   0  0  0  0  0  0  0  0  0  0  0  0
   20.5201   -8.0908  -16.5344 C   0  0  0  0  0  0  0  0  0  0  0  0
   19.5246   -7.3284  -16.5696 O   0  0  0  0  0  0  0  0  0  0  0  0
   21.4121   -8.4099  -12.5234 O   0  0  0  0  0  0  0  0  0  0  0  0
   21.8726   -7.2257  -13.1302 C   0  0  0  0  0  0  0  0  0  0  0  0
   21.1823   -6.9585  -14.4417 C   0  0  2  0  0  0  0  0  0  0  0  0
   21.3841   -7.9622  -15.4238 N   0  0  0  0  0  0  0  0  0  0  0  0
   21.6038   -5.6180  -14.9254 C   0  0  0  0  0  0  0  0  0  0  0  0
   22.4362   -5.5752  -15.8646 O   0  0  0  0  0  0  0  0  0  0  0  0
   21.1233   -4.4069  -14.3903 N   0  0  0  0  0  0  0  0  0  0  0  0
   21.4552   -3.0913  -14.9848 C   0  0  1  0  0  0  0  0  0  0  0  0
   21.0385   -3.0649  -16.4176 C   0  0  0  0  0  0  0  0  0  0  0  0
   21.3321   -1.7693  -17.0357 C   0  0  0  0  0  0  0  0  0  0  0  0
   20.5207   -0.8240  -17.1164 O   0  0  0  0  0  0  0  0  0  0  0  0
   20.7770   -2.0363  -14.2068 C   0  0  0  0  0  0  0  0  0  0  0  0
   19.7205   -2.1443  -13.5824 O   0  0  0  0  0  0  0  0  0  0  0  0
   22.5999   -1.4918  -17.6029 O   0  0  0  0  0  0  0  0  0  0  0  0
   21.3842   -0.7603  -14.1575 O   0  0  0  0  0  0  0  0  0  0  0  0
  1  2  1  0
  3  4  2  0
  3  2  1  0
  5  6  1  0
  7  6  1  1
  7  8  1  0
  8  3  1  0
  9 11  1  0
  9  7  1  0
 10  9  2  0
 12 11  1  0
 12 16  1  0
 13 14  1  0
 12 13  1  6
 14 15  2  0
 16 19  1  0
 17 16  2  0
 18 14  1  0
M  END
$$$$
