GSD.pdb
     RDKit          3D

 19 18  0  0  1  0  0  0  0  0999 V2000
   12.9286   -9.7371   -9.0090 N   0  0  0  0  0  0  0  0  0  0  0  0
   14.2242   -9.3164   -8.5262 C   0  0  0  0  0  0  0  0  0  0  0  0
   14.7176   -8.2269   -9.4250 C   0  0  0  0  0  0  0  0  0  0  0  0
   14.0455   -7.8650  -10.4203 O   0  0  0  0  0  0  0  0  0  0  0  0
   16.9317   -5.0050   -8.2821 O   0  0  0  0  0  0  0  0  0  0  0  0
   16.2621   -5.1422   -9.5133 C   0  0  0  0  0  0  0  0  0  0  0  0
   16.3935   -6.5332  -10.0751 C   0  0  2  0  0  0  0  0  0  0  0  0
   15.9437   -7.5599   -9.2054 N   0  0  0  0  0  0  0  0  0  0  0  0
   17.8063   -6.7372  -10.4883 C   0  0  0  0  0  0  0  0  0  0  0  0
   18.5962   -7.2168   -9.6382 O   0  0  0  0  0  0  0  0  0  0  0  0
   18.2993   -6.4234  -11.7698 N   0  0  0  0  0  0  0  0  0  0  0  0
   19.7174   -6.6292  -12.1454 C   0  0  1  0  0  0  0  0  0  0  0  0
   19.8148   -7.6952  -13.1854 C   0  0  0  0  0  0  0  0  0  0  0  0
   21.1880   -7.8392  -13.6759 C   0  0  0  0  0  0  0  0  0  0  0  0
   21.6462   -7.2532  -14.6783 O   0  0  0  0  0  0  0  0  0  0  0  0
   20.2682   -5.3495  -12.6322 C   0  0  0  0  0  0  0  0  0  0  0  0
   19.6344   -4.4102  -13.1158 O   0  0  0  0  0  0  0  0  0  0  0  0
   22.1207   -8.6820  -13.0234 O   0  0  0  0  0  0  0  0  0  0  0  0
   21.6663   -5.1576  -12.5441 O   0  0  0  0  0  0  0  0  0  0  0  0
  1  2  1  0
  3  4  2  0
  3  2  1  0
  5  6  1  0
  7  6  1  1
  7  8  1  0
  8  3  1  0
  9 11  1  0
  9  7  1  0
 10  9  2  0
 12 11  1  0
 12 16  1  0
 13 14  1  0
 12 13  1  6
 14 15  2  0
 16 19  1  0
 17 16  2  0
 18 14  1  0
M  END
$$$$
