GSD.pdb
     RDKit          3D

 19 18  0  0  1  0  0  0  0  0999 V2000
   22.4962  -12.3927  -18.8551 N   0  0  0  0  0  0  0  0  0  0  0  0
   23.1966  -11.1499  -18.6235 C   0  0  0  0  0  0  0  0  0  0  0  0
   22.2422  -10.1995  -17.9721 C   0  0  0  0  0  0  0  0  0  0  0  0
   21.0901  -10.0296  -18.4382 O   0  0  0  0  0  0  0  0  0  0  0  0
   22.2518   -9.2520  -13.9634 O   0  0  0  0  0  0  0  0  0  0  0  0
   21.1787   -9.0255  -14.8465 C   0  0  0  0  0  0  0  0  0  0  0  0
   21.6506   -8.5786  -16.2050 C   0  0  2  0  0  0  0  0  0  0  0  0
   22.5807   -9.4566  -16.8189 N   0  0  0  0  0  0  0  0  0  0  0  0
   22.1902   -7.1996  -16.0804 C   0  0  0  0  0  0  0  0  0  0  0  0
   23.4370   -7.0684  -16.0096 O   0  0  0  0  0  0  0  0  0  0  0  0
   21.3841   -6.0454  -16.0377 N   0  0  0  0  0  0  0  0  0  0  0  0
   21.9571   -4.6806  -15.9785 C   0  0  1  0  0  0  0  0  0  0  0  0
   21.1301   -3.7495  -16.8009 C   0  0  0  0  0  0  0  0  0  0  0  0
   21.7018   -2.4005  -16.8180 C   0  0  0  0  0  0  0  0  0  0  0  0
   22.8363   -2.1076  -16.3874 O   0  0  0  0  0  0  0  0  0  0  0  0
   22.0103   -4.2510  -14.5676 C   0  0  0  0  0  0  0  0  0  0  0  0
   22.4599   -3.1879  -14.1369 O   0  0  0  0  0  0  0  0  0  0  0  0
   20.9814   -1.2996  -17.3425 O   0  0  0  0  0  0  0  0  0  0  0  0
   21.4972   -5.1341  -13.5898 O   0  0  0  0  0  0  0  0  0  0  0  0
  1  2  1  0
  3  4  2  0
  3  2  1  0
  5  6  1  0
  7  6  1  1
  7  8  1  0
  8  3  1  0
  9 11  1  0
  9  7  1  0
 10  9  2  0
 12 11  1  0
 12 16  1  0
 13 14  1  0
 12 13  1  6
 14 15  2  0
 16 19  1  0
 17 16  2  0
 18 14  1  0
M  END
$$$$
