GSD.pdb
     RDKit          3D

 19 18  0  0  1  0  0  0  0  0999 V2000
   18.8618  -12.1598  -16.7288 N   0  0  0  0  0  0  0  0  0  0  0  0
   19.1163  -10.8186  -17.2034 C   0  0  0  0  0  0  0  0  0  0  0  0
   20.0316  -10.1515  -16.2259 C   0  0  0  0  0  0  0  0  0  0  0  0
   19.5793   -9.6324  -15.1774 O   0  0  0  0  0  0  0  0  0  0  0  0
   23.9357  -11.1073  -15.2131 O   0  0  0  0  0  0  0  0  0  0  0  0
   23.7221   -9.7700  -15.5987 C   0  0  0  0  0  0  0  0  0  0  0  0
   22.2688   -9.3839  -15.5152 C   0  0  2  0  0  0  0  0  0  0  0  0
   21.4278  -10.0718  -16.4273 N   0  0  0  0  0  0  0  0  0  0  0  0
   22.1686   -7.9097  -15.6734 C   0  0  0  0  0  0  0  0  0  0  0  0
   22.0398   -7.4585  -16.8381 O   0  0  0  0  0  0  0  0  0  0  0  0
   22.2106   -7.0030  -14.5965 N   0  0  0  0  0  0  0  0  0  0  0  0
   22.0177   -5.5457  -14.7799 C   0  0  1  0  0  0  0  0  0  0  0  0
   20.6806   -5.2860  -15.3899 C   0  0  0  0  0  0  0  0  0  0  0  0
   20.4229   -3.8496  -15.5207 C   0  0  0  0  0  0  0  0  0  0  0  0
   21.2810   -3.0039  -15.8473 O   0  0  0  0  0  0  0  0  0  0  0  0
   22.1495   -4.8825  -13.4680 C   0  0  0  0  0  0  0  0  0  0  0  0
   22.0111   -3.6814  -13.2317 O   0  0  0  0  0  0  0  0  0  0  0  0
   19.1386   -3.3044  -15.2770 O   0  0  0  0  0  0  0  0  0  0  0  0
   22.4664   -5.6889  -12.3506 O   0  0  0  0  0  0  0  0  0  0  0  0
  1  2  1  0
  3  4  2  0
  3  2  1  0
  5  6  1  0
  7  6  1  6
  7  8  1  0
  8  3  1  0
  9 11  1  0
  9  7  1  0
 10  9  2  0
 12 11  1  0
 12 16  1  0
 13 14  1  0
 12 13  1  1
 14 15  2  0
 16 19  1  0
 17 16  2  0
 18 14  1  0
M  END
$$$$
