GSD.pdb
     RDKit          3D

 19 18  0  0  1  0  0  0  0  0999 V2000
   17.3192  -11.8490  -15.1538 N   0  0  0  0  0  0  0  0  0  0  0  0
   17.7016  -10.7458  -16.0056 C   0  0  0  0  0  0  0  0  0  0  0  0
   18.8774  -10.0666  -15.3773 C   0  0  0  0  0  0  0  0  0  0  0  0
   18.8164   -9.6421  -14.1985 O   0  0  0  0  0  0  0  0  0  0  0  0
   22.8832  -10.7437  -16.0729 O   0  0  0  0  0  0  0  0  0  0  0  0
   22.5055   -9.3883  -16.1282 C   0  0  0  0  0  0  0  0  0  0  0  0
   21.1678   -9.1485  -15.4793 C   0  0  2  0  0  0  0  0  0  0  0  0
   20.0962   -9.8706  -16.0647 N   0  0  0  0  0  0  0  0  0  0  0  0
   20.9100   -7.6850  -15.4707 C   0  0  0  0  0  0  0  0  0  0  0  0
   20.2160   -7.2125  -16.4044 O   0  0  0  0  0  0  0  0  0  0  0  0
   21.3987   -6.8106  -14.4805 N   0  0  0  0  0  0  0  0  0  0  0  0
   21.1762   -5.3471  -14.5361 C   0  0  1  0  0  0  0  0  0  0  0  0
   19.7123   -5.0576  -14.5142 C   0  0  0  0  0  0  0  0  0  0  0  0
   19.4519   -3.6165  -14.5600 C   0  0  0  0  0  0  0  0  0  0  0  0
   20.2675   -2.7629  -14.9655 O   0  0  0  0  0  0  0  0  0  0  0  0
   21.8667   -4.7201  -13.3924 C   0  0  0  0  0  0  0  0  0  0  0  0
   22.4054   -5.2998  -12.4482 O   0  0  0  0  0  0  0  0  0  0  0  0
   18.2147   -3.0755  -14.1325 O   0  0  0  0  0  0  0  0  0  0  0  0
   21.9301   -3.3081  -13.3543 O   0  0  0  0  0  0  0  0  0  0  0  0
  1  2  1  0
  3  4  2  0
  3  2  1  0
  5  6  1  0
  7  6  1  6
  7  8  1  0
  8  3  1  0
  9 11  1  0
  9  7  1  0
 10  9  2  0
 12 11  1  0
 12 16  1  0
 13 14  1  0
 12 13  1  1
 14 15  2  0
 16 19  1  0
 17 16  2  0
 18 14  1  0
M  END
$$$$
