LSH.pdb
     RDKit          3D

 25 25  0  0  1  0  0  0  0  0999 V2000
   15.4391   -9.8316  -17.8036 C   0  0  0  0  0  0  0  0  0  0  0  0
   15.0831   -8.5312  -17.0907 C   0  0  2  0  0  0  0  0  0  0  0  0
   14.6933   -7.5470  -18.1920 C   0  0  0  0  0  0  0  0  0  0  0  0
   16.3114   -7.9976  -16.4291 C   0  0  0  0  0  0  0  0  0  0  0  0
   16.8321   -8.8765  -15.3300 C   0  0  2  0  0  0  0  0  0  0  0  0
   15.9146   -9.0295  -14.2335 N   0  0  0  0  0  0  0  0  0  0  0  0
   18.0739   -8.2036  -14.7952 C   0  0  0  0  0  0  0  0  0  0  0  0
   17.9661   -7.2380  -14.0014 O   0  0  0  0  0  0  0  0  0  0  0  0
   21.7657   -9.9006  -13.7565 O   0  0  0  0  0  0  0  0  0  0  0  0
   21.7526   -8.9962  -14.8101 C   0  0  0  0  0  0  0  0  0  0  0  0
   20.5981   -8.0451  -14.7457 C   0  0  2  0  0  0  0  0  0  0  0  0
   19.3613   -8.6461  -15.1763 N   0  0  0  0  0  0  0  0  0  0  0  0
   20.8722   -6.7190  -15.3304 C   0  0  0  0  0  0  0  0  0  0  0  0
   20.7330   -6.5303  -16.5520 O   0  0  0  0  0  0  0  0  0  0  0  0
   21.2935   -5.6727  -14.4810 N   0  0  0  0  0  0  0  0  0  0  0  0
   21.5953   -4.3561  -14.9588 C   0  0  1  0  0  0  0  0  0  0  0  0
   20.8003   -3.2820  -14.2419 C   0  0  0  0  0  0  0  0  0  0  0  0
   19.3960   -3.2249  -14.6948 C   0  0  0  0  0  0  0  0  0  0  0  0
   18.8376   -3.9813  -15.7082 C   0  0  0  0  0  0  0  0  0  0  0  0
   17.5510   -3.6706  -15.8468 N   0  0  0  0  0  0  0  0  0  0  0  0
   17.2853   -2.7214  -14.9286 C   0  0  0  0  0  0  0  0  0  0  0  0
   18.3993   -2.4483  -14.2288 N   0  0  0  0  0  0  0  0  0  0  0  0
   23.0322   -4.0511  -14.8075 C   0  0  0  0  0  0  0  0  0  0  0  0
   23.8289   -4.7830  -14.1689 O   0  0  0  0  0  0  0  0  0  0  0  0
   23.5411   -2.9014  -15.3953 O   0  0  0  0  0  0  0  0  0  0  0  0
  2  1  1  6
  2  3  1  0
  4  2  1  0
  4  5  1  0
  5  7  1  0
  5  6  1  1
  7  8  2  0
  9 10  1  0
 11 10  1  6
 12 11  1  0
 12  7  1  0
 13 11  1  0
 14 13  2  0
 15 13  1  0
 16 17  1  1
 16 15  1  0
 18 17  1  0
 19 18  2  0
 20 19  1  0
 21 20  1  0
 21 22  2  0
 22 18  1  0
 23 25  1  0
 23 16  1  0
 24 23  2  0
M  END
$$$$
