LSH.pdb
     RDKit          3D

 25 25  0  0  1  0  0  0  0  0999 V2000
   28.3335  -16.8727  -15.5076 C   0  0  0  0  0  0  0  0  0  0  0  0
   27.3708  -17.3937  -16.5697 C   0  0  2  0  0  0  0  0  0  0  0  0
   26.5697  -16.1793  -17.0356 C   0  0  0  0  0  0  0  0  0  0  0  0
   26.4125  -18.3394  -15.9228 C   0  0  0  0  0  0  0  0  0  0  0  0
   27.0743  -19.5340  -15.3012 C   0  0  2  0  0  0  0  0  0  0  0  0
   27.7609  -20.3686  -16.2496 N   0  0  0  0  0  0  0  0  0  0  0  0
   25.9725  -20.3598  -14.6806 C   0  0  0  0  0  0  0  0  0  0  0  0
   25.1380  -20.9387  -15.4173 O   0  0  0  0  0  0  0  0  0  0  0  0
   25.4785  -20.4008  -10.4115 O   0  0  0  0  0  0  0  0  0  0  0  0
   25.1079  -21.4953  -11.1813 C   0  0  0  0  0  0  0  0  0  0  0  0
   24.7685  -21.1259  -12.5920 C   0  0  2  0  0  0  0  0  0  0  0  0
   25.8658  -20.4913  -13.2771 N   0  0  0  0  0  0  0  0  0  0  0  0
   23.4715  -20.4401  -12.7434 C   0  0  0  0  0  0  0  0  0  0  0  0
   23.3708  -19.2252  -12.4958 O   0  0  0  0  0  0  0  0  0  0  0  0
   22.3517  -21.1851  -13.1730 N   0  0  0  0  0  0  0  0  0  0  0  0
   21.0374  -20.6243  -13.2779 C   0  0  1  0  0  0  0  0  0  0  0  0
   20.6456  -20.3277  -14.7125 C   0  0  0  0  0  0  0  0  0  0  0  0
   21.4356  -19.2243  -15.2947 C   0  0  0  0  0  0  0  0  0  0  0  0
   22.4179  -19.3491  -16.2591 C   0  0  0  0  0  0  0  0  0  0  0  0
   22.9202  -18.1513  -16.5494 N   0  0  0  0  0  0  0  0  0  0  0  0
   22.2646  -17.2639  -15.7767 C   0  0  0  0  0  0  0  0  0  0  0  0
   21.3649  -17.9088  -15.0153 N   0  0  0  0  0  0  0  0  0  0  0  0
   20.0248  -21.5280  -12.6958 C   0  0  0  0  0  0  0  0  0  0  0  0
   20.2960  -22.6698  -12.2475 O   0  0  0  0  0  0  0  0  0  0  0  0
   18.7037  -21.1072  -12.6348 O   0  0  0  0  0  0  0  0  0  0  0  0
  2  1  1  1
  2  3  1  0
  4  2  1  0
  4  5  1  0
  5  7  1  0
  5  6  1  6
  7  8  2  0
  9 10  1  0
 11 10  1  1
 12 11  1  0
 12  7  1  0
 13 11  1  0
 14 13  2  0
 15 13  1  0
 16 17  1  6
 16 15  1  0
 18 17  1  0
 19 18  2  0
 20 19  1  0
 21 20  1  0
 21 22  2  0
 22 18  1  0
 23 25  1  0
 23 16  1  0
 24 23  2  0
M  END
$$$$
