LSH.pdb
     RDKit          3D

 25 25  0  0  1  0  0  0  0  0999 V2000
   27.1953  -28.6684  -19.5626 C   0  0  0  0  0  0  0  0  0  0  0  0
   28.3489  -27.9707  -18.8495 C   0  0  2  0  0  0  0  0  0  0  0  0
   29.5918  -28.2598  -19.6893 C   0  0  0  0  0  0  0  0  0  0  0  0
   28.5489  -28.6182  -17.5183 C   0  0  0  0  0  0  0  0  0  0  0  0
   29.4693  -27.8555  -16.6113 C   0  0  2  0  0  0  0  0  0  0  0  0
   29.6527  -28.4746  -15.3266 N   0  0  0  0  0  0  0  0  0  0  0  0
   28.8251  -26.5090  -16.3810 C   0  0  0  0  0  0  0  0  0  0  0  0
   27.8304  -26.4163  -15.6219 O   0  0  0  0  0  0  0  0  0  0  0  0
   29.3108  -21.6779  -16.8169 O   0  0  0  0  0  0  0  0  0  0  0  0
   29.7875  -22.9481  -17.1125 C   0  0  0  0  0  0  0  0  0  0  0  0
   28.7796  -24.0235  -16.8488 C   0  0  2  0  0  0  0  0  0  0  0  0
   29.3271  -25.3465  -17.0097 N   0  0  0  0  0  0  0  0  0  0  0  0
   27.4801  -23.8120  -17.5138 C   0  0  0  0  0  0  0  0  0  0  0  0
   27.2677  -24.2883  -18.6432 O   0  0  0  0  0  0  0  0  0  0  0  0
   26.4865  -23.0626  -16.8472 N   0  0  0  0  0  0  0  0  0  0  0  0
   25.2236  -22.7408  -17.4427 C   0  0  1  0  0  0  0  0  0  0  0  0
   24.0505  -23.2356  -16.6190 C   0  0  0  0  0  0  0  0  0  0  0  0
   22.7550  -23.0021  -17.2882 C   0  0  0  0  0  0  0  0  0  0  0  0
   22.5713  -22.3787  -18.5081 C   0  0  0  0  0  0  0  0  0  0  0  0
   21.2745  -22.3407  -18.8048 N   0  0  0  0  0  0  0  0  0  0  0  0
   20.6303  -22.9356  -17.7823 C   0  0  0  0  0  0  0  0  0  0  0  0
   21.5225  -23.3376  -16.8616 N   0  0  0  0  0  0  0  0  0  0  0  0
   25.0793  -21.2831  -17.6302 C   0  0  0  0  0  0  0  0  0  0  0  0
   25.7880  -20.4372  -17.0299 O   0  0  0  0  0  0  0  0  0  0  0  0
   24.1164  -20.8106  -18.5109 O   0  0  0  0  0  0  0  0  0  0  0  0
  2  1  1  6
  2  3  1  0
  4  2  1  0
  4  5  1  0
  5  7  1  0
  5  6  1  1
  7  8  2  0
  9 10  1  0
 11 10  1  6
 12 11  1  0
 12  7  1  0
 13 11  1  0
 14 13  2  0
 15 13  1  0
 16 17  1  1
 16 15  1  0
 18 17  1  0
 19 18  2  0
 20 19  1  0
 21 20  1  0
 21 22  2  0
 22 18  1  0
 23 25  1  0
 23 16  1  0
 24 23  2  0
M  END
$$$$
