LSH.pdb
     RDKit          3D

 25 25  0  0  1  0  0  0  0  0999 V2000
   28.8824  -17.4836  -15.1449 C   0  0  0  0  0  0  0  0  0  0  0  0
   27.9298  -18.0642  -16.1848 C   0  0  2  0  0  0  0  0  0  0  0  0
   27.1873  -16.8696  -16.7807 C   0  0  0  0  0  0  0  0  0  0  0  0
   26.9199  -18.9140  -15.4854 C   0  0  0  0  0  0  0  0  0  0  0  0
   27.5174  -20.0846  -14.7613 C   0  0  2  0  0  0  0  0  0  0  0  0
   28.1458  -21.0396  -15.6334 N   0  0  0  0  0  0  0  0  0  0  0  0
   26.3756  -20.7855  -14.0642 C   0  0  0  0  0  0  0  0  0  0  0  0
   25.5817  -21.4945  -14.7285 O   0  0  0  0  0  0  0  0  0  0  0  0
   25.1837  -19.6502  -10.0239 O   0  0  0  0  0  0  0  0  0  0  0  0
   25.1592  -20.9640  -10.4728 C   0  0  0  0  0  0  0  0  0  0  0  0
   25.0030  -21.0681  -11.9582 C   0  0  2  0  0  0  0  0  0  0  0  0
   26.1862  -20.6551  -12.6693 N   0  0  0  0  0  0  0  0  0  0  0  0
   23.7453  -20.4981  -12.4766 C   0  0  0  0  0  0  0  0  0  0  0  0
   23.7328  -19.3632  -12.9857 O   0  0  0  0  0  0  0  0  0  0  0  0
   22.5612  -21.2618  -12.3847 N   0  0  0  0  0  0  0  0  0  0  0  0
   21.4079  -21.0103  -13.1968 C   0  0  1  0  0  0  0  0  0  0  0  0
   21.6296  -21.3806  -14.6505 C   0  0  0  0  0  0  0  0  0  0  0  0
   21.6484  -20.1986  -15.5355 C   0  0  0  0  0  0  0  0  0  0  0  0
   21.4307  -18.8898  -15.1480 C   0  0  0  0  0  0  0  0  0  0  0  0
   21.5226  -18.0852  -16.2040 N   0  0  0  0  0  0  0  0  0  0  0  0
   21.7973  -18.8722  -17.2621 C   0  0  0  0  0  0  0  0  0  0  0  0
   21.8744  -20.1526  -16.8623 N   0  0  0  0  0  0  0  0  0  0  0  0
   20.2340  -21.7559  -12.7000 C   0  0  0  0  0  0  0  0  0  0  0  0
   20.2322  -22.9993  -12.5208 O   0  0  0  0  0  0  0  0  0  0  0  0
   19.0679  -21.0603  -12.4128 O   0  0  0  0  0  0  0  0  0  0  0  0
  2  1  1  1
  2  3  1  0
  4  2  1  0
  4  5  1  0
  5  7  1  0
  5  6  1  6
  7  8  2  0
  9 10  1  0
 11 10  1  1
 12 11  1  0
 12  7  1  0
 13 11  1  0
 14 13  2  0
 15 13  1  0
 16 17  1  6
 16 15  1  0
 18 17  1  0
 19 18  2  0
 20 19  1  0
 21 20  1  0
 21 22  2  0
 22 18  1  0
 23 25  1  0
 23 16  1  0
 24 23  2  0
M  END
$$$$
