LSH.pdb
     RDKit          3D

 25 25  0  0  1  0  0  0  0  0999 V2000
   35.4627  -33.1268  -13.6033 C   0  0  0  0  0  0  0  0  0  0  0  0
   34.6904  -33.6324  -14.8174 C   0  0  2  0  0  0  0  0  0  0  0  0
   35.6911  -33.6427  -15.9714 C   0  0  0  0  0  0  0  0  0  0  0  0
   33.6285  -32.6378  -15.1559 C   0  0  0  0  0  0  0  0  0  0  0  0
   32.7294  -33.0758  -16.2745 C   0  0  2  0  0  0  0  0  0  0  0  0
   33.4087  -33.2234  -17.5332 N   0  0  0  0  0  0  0  0  0  0  0  0
   31.6922  -31.9905  -16.4404 C   0  0  0  0  0  0  0  0  0  0  0  0
   31.0285  -31.6065  -15.4473 O   0  0  0  0  0  0  0  0  0  0  0  0
   29.8674  -28.5159  -19.3383 O   0  0  0  0  0  0  0  0  0  0  0  0
   30.7870  -29.5368  -19.1383 C   0  0  0  0  0  0  0  0  0  0  0  0
   30.4454  -30.4063  -17.9683 C   0  0  2  0  0  0  0  0  0  0  0  0
   31.4562  -31.3980  -17.7021 N   0  0  0  0  0  0  0  0  0  0  0  0
   29.0648  -30.9255  -17.9820 C   0  0  0  0  0  0  0  0  0  0  0  0
   28.8048  -32.0034  -18.5456 O   0  0  0  0  0  0  0  0  0  0  0  0
   28.0489  -30.1792  -17.3459 N   0  0  0  0  0  0  0  0  0  0  0  0
   26.6822  -30.6069  -17.2992 C   0  0  1  0  0  0  0  0  0  0  0  0
   26.0817  -30.4813  -15.9124 C   0  0  0  0  0  0  0  0  0  0  0  0
   26.4327  -31.6213  -15.0421 C   0  0  0  0  0  0  0  0  0  0  0  0
   27.1211  -32.7562  -15.4276 C   0  0  0  0  0  0  0  0  0  0  0  0
   27.2606  -33.5747  -14.3875 N   0  0  0  0  0  0  0  0  0  0  0  0
   26.6658  -32.9693  -13.3415 C   0  0  0  0  0  0  0  0  0  0  0  0
   26.1630  -31.7864  -13.7330 N   0  0  0  0  0  0  0  0  0  0  0  0
   25.8490  -29.8310  -18.2397 C   0  0  0  0  0  0  0  0  0  0  0  0
   26.2758  -28.8396  -18.8825 O   0  0  0  0  0  0  0  0  0  0  0  0
   24.5265  -30.2050  -18.4324 O   0  0  0  0  0  0  0  0  0  0  0  0
  2  1  1  1
  2  3  1  0
  4  2  1  0
  4  5  1  0
  5  7  1  0
  5  6  1  6
  7  8  2  0
  9 10  1  0
 11 10  1  6
 12 11  1  0
 12  7  1  0
 13 11  1  0
 14 13  2  0
 15 13  1  0
 16 17  1  1
 16 15  1  0
 18 17  1  0
 19 18  2  0
 20 19  1  0
 21 20  1  0
 21 22  2  0
 22 18  1  0
 23 25  1  0
 23 16  1  0
 24 23  2  0
M  END
$$$$
