LSH.pdb
     RDKit          3D

 25 25  0  0  1  0  0  0  0  0999 V2000
   30.1492  -13.0405  -19.0435 C   0  0  0  0  0  0  0  0  0  0  0  0
   30.7122  -11.8343  -18.2991 C   0  0  2  0  0  0  0  0  0  0  0  0
   31.5779  -12.4054  -17.1776 C   0  0  0  0  0  0  0  0  0  0  0  0
   29.5812  -11.0977  -17.6591 C   0  0  0  0  0  0  0  0  0  0  0  0
   28.6297  -10.4842  -18.6439 C   0  0  2  0  0  0  0  0  0  0  0  0
   29.2692   -9.6194  -19.5982 N   0  0  0  0  0  0  0  0  0  0  0  0
   27.6652   -9.6436  -17.8413 C   0  0  0  0  0  0  0  0  0  0  0  0
   27.1141  -10.1288  -16.8239 O   0  0  0  0  0  0  0  0  0  0  0  0
   26.0633   -5.8463  -19.3356 O   0  0  0  0  0  0  0  0  0  0  0  0
   26.4657   -6.0519  -18.0226 C   0  0  0  0  0  0  0  0  0  0  0  0
   26.3675   -7.4854  -17.6020 C   0  0  2  0  0  0  0  0  0  0  0  0
   27.3721   -8.3134  -18.2196 N   0  0  0  0  0  0  0  0  0  0  0  0
   25.0012   -8.0389  -17.6507 C   0  0  0  0  0  0  0  0  0  0  0  0
   24.6525   -8.7685  -18.5960 O   0  0  0  0  0  0  0  0  0  0  0  0
   24.1010   -7.7267  -16.6088 N   0  0  0  0  0  0  0  0  0  0  0  0
   22.7200   -8.1078  -16.6330 C   0  0  1  0  0  0  0  0  0  0  0  0
   22.5038   -9.5359  -16.1709 C   0  0  0  0  0  0  0  0  0  0  0  0
   21.0783   -9.9208  -16.1815 C   0  0  0  0  0  0  0  0  0  0  0  0
   20.0218   -9.1151  -16.5628 C   0  0  0  0  0  0  0  0  0  0  0  0
   18.8781   -9.7858  -16.4474 N   0  0  0  0  0  0  0  0  0  0  0  0
   19.1983  -11.0136  -15.9952 C   0  0  0  0  0  0  0  0  0  0  0  0
   20.5292  -11.1000  -15.8327 N   0  0  0  0  0  0  0  0  0  0  0  0
   21.9062   -7.2151  -15.7835 C   0  0  0  0  0  0  0  0  0  0  0  0
   22.3994   -6.4426  -14.9244 O   0  0  0  0  0  0  0  0  0  0  0  0
   20.5263   -7.2200  -15.9315 O   0  0  0  0  0  0  0  0  0  0  0  0
  2  1  1  6
  2  3  1  0
  4  2  1  0
  4  5  1  0
  5  7  1  0
  5  6  1  6
  7  8  2  0
  9 10  1  0
 11 10  1  6
 12 11  1  0
 12  7  1  0
 13 11  1  0
 14 13  2  0
 15 13  1  0
 16 17  1  1
 16 15  1  0
 18 17  1  0
 19 18  2  0
 20 19  1  0
 21 20  1  0
 21 22  2  0
 22 18  1  0
 23 25  1  0
 23 16  1  0
 24 23  2  0
M  END
$$$$
