LSH.pdb
     RDKit          3D

 25 25  0  0  1  0  0  0  0  0999 V2000
   20.3688   -2.4341  -17.1687 C   0  0  0  0  0  0  0  0  0  0  0  0
   21.1472   -1.1473  -17.4222 C   0  0  2  0  0  0  0  0  0  0  0  0
   22.3029   -1.5355  -18.3426 C   0  0  0  0  0  0  0  0  0  0  0  0
   21.7401   -0.6858  -16.1312 C   0  0  0  0  0  0  0  0  0  0  0  0
   20.7228   -0.1905  -15.1456 C   0  0  2  0  0  0  0  0  0  0  0  0
   20.0472    1.0058  -15.5697 N   0  0  0  0  0  0  0  0  0  0  0  0
   21.4773    0.1364  -13.8788 C   0  0  0  0  0  0  0  0  0  0  0  0
   22.6489   -0.2856  -13.7253 O   0  0  0  0  0  0  0  0  0  0  0  0
   23.1922    3.6619  -12.0655 O   0  0  0  0  0  0  0  0  0  0  0  0
   22.5211    2.7269  -12.8424 C   0  0  0  0  0  0  0  0  0  0  0  0
   21.5803    1.8769  -12.0460 C   0  0  2  0  0  0  0  0  0  0  0  0
   20.8821    0.9135  -12.8588 N   0  0  0  0  0  0  0  0  0  0  0  0
   20.7208    2.6327  -11.1156 C   0  0  0  0  0  0  0  0  0  0  0  0
   21.2271    3.3254  -10.2150 O   0  0  0  0  0  0  0  0  0  0  0  0
   19.3191    2.5555  -11.2662 N   0  0  0  0  0  0  0  0  0  0  0  0
   18.4045    3.2404  -10.4016 C   0  0  1  0  0  0  0  0  0  0  0  0
   18.6872    2.9804   -8.9346 C   0  0  0  0  0  0  0  0  0  0  0  0
   18.3385    1.6037   -8.5300 C   0  0  0  0  0  0  0  0  0  0  0  0
   17.8900    0.5996   -9.3673 C   0  0  0  0  0  0  0  0  0  0  0  0
   17.6733   -0.5102   -8.6654 N   0  0  0  0  0  0  0  0  0  0  0  0
   17.9806   -0.2203   -7.3864 C   0  0  0  0  0  0  0  0  0  0  0  0
   18.3838    1.0584   -7.2994 N   0  0  0  0  0  0  0  0  0  0  0  0
   18.4440    4.6985  -10.6323 C   0  0  0  0  0  0  0  0  0  0  0  0
   19.1954    5.2424  -11.4795 O   0  0  0  0  0  0  0  0  0  0  0  0
   17.6146    5.5206   -9.8824 O   0  0  0  0  0  0  0  0  0  0  0  0
  2  1  1  1
  2  3  1  0
  4  2  1  0
  4  5  1  0
  5  7  1  0
  5  6  1  6
  7  8  2  0
  9 10  1  0
 11 10  1  6
 12 11  1  0
 12  7  1  0
 13 11  1  0
 14 13  2  0
 15 13  1  0
 16 17  1  1
 16 15  1  0
 18 17  1  0
 19 18  2  0
 20 19  1  0
 21 20  1  0
 21 22  2  0
 22 18  1  0
 23 25  1  0
 23 16  1  0
 24 23  2  0
M  END
$$$$
