LSH.pdb
     RDKit          3D

 25 25  0  0  1  0  0  0  0  0999 V2000
   16.0730  -11.1937  -18.3164 C   0  0  0  0  0  0  0  0  0  0  0  0
   17.4269  -10.4968  -18.4004 C   0  0  2  0  0  0  0  0  0  0  0  0
   18.4554  -11.6094  -18.5953 C   0  0  0  0  0  0  0  0  0  0  0  0
   17.7131   -9.8495  -17.0849 C   0  0  0  0  0  0  0  0  0  0  0  0
   18.4293  -10.7454  -16.1174 C   0  0  2  0  0  0  0  0  0  0  0  0
   17.5464  -11.4693  -15.2434 N   0  0  0  0  0  0  0  0  0  0  0  0
   19.2879   -9.8483  -15.2577 C   0  0  0  0  0  0  0  0  0  0  0  0
   18.7523   -9.1262  -14.3826 O   0  0  0  0  0  0  0  0  0  0  0  0
   23.5113   -9.4649  -16.0574 O   0  0  0  0  0  0  0  0  0  0  0  0
   22.9993   -9.3354  -14.7732 C   0  0  0  0  0  0  0  0  0  0  0  0
   21.5722   -8.8828  -14.7591 C   0  0  2  0  0  0  0  0  0  0  0  0
   20.6912   -9.8091  -15.4239 N   0  0  0  0  0  0  0  0  0  0  0  0
   21.3805   -7.4712  -15.1419 C   0  0  0  0  0  0  0  0  0  0  0  0
   21.1006   -7.1714  -16.3162 O   0  0  0  0  0  0  0  0  0  0  0  0
   21.5198   -6.4716  -14.1545 N   0  0  0  0  0  0  0  0  0  0  0  0
   21.3738   -5.0743  -14.4356 C   0  0  1  0  0  0  0  0  0  0  0  0
   20.0094   -4.5424  -14.0419 C   0  0  0  0  0  0  0  0  0  0  0  0
   18.9576   -4.9231  -15.0059 C   0  0  0  0  0  0  0  0  0  0  0  0
   19.1625   -5.3681  -16.2984 C   0  0  0  0  0  0  0  0  0  0  0  0
   17.9922   -5.6196  -16.8800 N   0  0  0  0  0  0  0  0  0  0  0  0
   17.0427   -5.3379  -15.9671 C   0  0  0  0  0  0  0  0  0  0  0  0
   17.6223   -4.9159  -14.8308 N   0  0  0  0  0  0  0  0  0  0  0  0
   22.4032   -4.2799  -13.7356 C   0  0  0  0  0  0  0  0  0  0  0  0
   22.5789   -3.0517  -13.9330 O   0  0  0  0  0  0  0  0  0  0  0  0
   23.2245   -4.9092  -12.8106 O   0  0  0  0  0  0  0  0  0  0  0  0
  2  1  1  1
  2  3  1  0
  4  2  1  0
  4  5  1  0
  5  7  1  0
  5  6  1  1
  7  8  2  0
  9 10  1  0
 11 10  1  6
 12 11  1  0
 12  7  1  0
 13 11  1  0
 14 13  2  0
 15 13  1  0
 16 17  1  1
 16 15  1  0
 18 17  1  0
 19 18  2  0
 20 19  1  0
 21 20  1  0
 21 22  2  0
 22 18  1  0
 23 25  1  0
 23 16  1  0
 24 23  2  0
M  END
$$$$
