LSH.pdb
     RDKit          3D

 25 25  0  0  1  0  0  0  0  0999 V2000
   27.6223  -12.4705  -15.0638 C   0  0  0  0  0  0  0  0  0  0  0  0
   27.0350  -12.7050  -16.4517 C   0  0  2  0  0  0  0  0  0  0  0  0
   28.1117  -12.2587  -17.4391 C   0  0  0  0  0  0  0  0  0  0  0  0
   25.8606  -11.7999  -16.6324 C   0  0  0  0  0  0  0  0  0  0  0  0
   24.7426  -12.0660  -15.6675 C   0  0  2  0  0  0  0  0  0  0  0  0
   24.2752  -13.4256  -15.6908 N   0  0  0  0  0  0  0  0  0  0  0  0
   23.5934  -11.1812  -16.0886 C   0  0  0  0  0  0  0  0  0  0  0  0
   22.7739  -11.5908  -16.9459 O   0  0  0  0  0  0  0  0  0  0  0  0
   20.6970   -9.9771  -14.2949 O   0  0  0  0  0  0  0  0  0  0  0  0
   20.9904   -9.7022  -15.6240 C   0  0  0  0  0  0  0  0  0  0  0  0
   22.3116   -9.0198  -15.7987 C   0  0  2  0  0  0  0  0  0  0  0  0
   23.4255   -9.8934  -15.5301 N   0  0  0  0  0  0  0  0  0  0  0  0
   22.4001   -7.6965  -15.1531 C   0  0  0  0  0  0  0  0  0  0  0  0
   22.9997   -7.5643  -14.0713 O   0  0  0  0  0  0  0  0  0  0  0  0
   21.7943   -6.5879  -15.7837 N   0  0  0  0  0  0  0  0  0  0  0  0
   21.8723   -5.2563  -15.2604 C   0  0  1  0  0  0  0  0  0  0  0  0
   22.2576   -4.2391  -16.3170 C   0  0  0  0  0  0  0  0  0  0  0  0
   23.5671   -4.5350  -16.9317 C   0  0  0  0  0  0  0  0  0  0  0  0
   24.7741   -4.6331  -16.2653 C   0  0  0  0  0  0  0  0  0  0  0  0
   25.7463   -4.9107  -17.1307 N   0  0  0  0  0  0  0  0  0  0  0  0
   25.1672   -4.9903  -18.3443 C   0  0  0  0  0  0  0  0  0  0  0  0
   23.8479   -4.7636  -18.2289 N   0  0  0  0  0  0  0  0  0  0  0  0
   20.5869   -4.8430  -14.6625 C   0  0  0  0  0  0  0  0  0  0  0  0
   19.5266   -5.5064  -14.7804 O   0  0  0  0  0  0  0  0  0  0  0  0
   20.5335   -3.6646  -13.9312 O   0  0  0  0  0  0  0  0  0  0  0  0
  2  1  1  1
  2  3  1  0
  4  2  1  0
  4  5  1  0
  5  7  1  0
  5  6  1  6
  7  8  2  0
  9 10  1  0
 11 10  1  1
 12 11  1  0
 12  7  1  0
 13 11  1  0
 14 13  2  0
 15 13  1  0
 16 17  1  6
 16 15  1  0
 18 17  1  0
 19 18  2  0
 20 19  1  0
 21 20  1  0
 21 22  2  0
 22 18  1  0
 23 25  1  0
 23 16  1  0
 24 23  2  0
M  END
$$$$
