GIS.pdb
     RDKit          3D

 19 18  0  0  1  0  0  0  0  0999 V2000
   13.8698  -11.7113  -12.1812 N   0  0  0  0  0  0  0  0  0  0  0  0
   14.9689  -10.9461  -11.6852 C   0  0  0  0  0  0  0  0  0  0  0  0
   14.5477   -9.5796  -11.3151 C   0  0  0  0  0  0  0  0  0  0  0  0
   13.4791   -9.1350  -11.8578 O   0  0  0  0  0  0  0  0  0  0  0  0
   12.6213   -5.8830   -8.0539 C   0  0  0  0  0  0  0  0  0  0  0  0
   14.1038   -5.8505   -8.2808 C   0  0  0  0  0  0  0  0  0  0  0  0
   14.7068   -7.1916   -8.6151 C   0  0  2  0  0  0  0  0  0  0  0  0
   16.1049   -7.3340   -8.0552 C   0  0  0  0  0  0  0  0  0  0  0  0
   14.7581   -7.4597  -10.0839 C   0  0  2  0  0  0  0  0  0  0  0  0
   15.2717   -8.7676  -10.4016 N   0  0  0  0  0  0  0  0  0  0  0  0
   15.5477   -6.4024  -10.7856 C   0  0  0  0  0  0  0  0  0  0  0  0
   16.7918   -6.2884  -10.7197 O   0  0  0  0  0  0  0  0  0  0  0  0
   13.7191   -4.3327  -13.7588 O   0  0  0  0  0  0  0  0  0  0  0  0
   15.0960   -4.3821  -13.8175 C   0  0  0  0  0  0  0  0  0  0  0  0
   15.6282   -4.4767  -12.3882 C   0  0  2  0  0  0  0  0  0  0  0  0
   14.8706   -5.4276  -11.6042 N   0  0  0  0  0  0  0  0  0  0  0  0
   15.6126   -3.1433  -11.7528 C   0  0  0  0  0  0  0  0  0  0  0  0
   14.8385   -2.8952  -10.8070 O   0  0  0  0  0  0  0  0  0  0  0  0
   16.4573   -2.1328  -12.1902 O   0  0  0  0  0  0  0  0  0  0  0  0
  2  3  1  0
  2  1  1  0
  3  4  2  0
  5  6  1  0
  6  7  1  0
  7  8  1  6
  9  7  1  0
 10  3  1  0
  9 10  1  1
 11 16  1  0
 11  9  1  0
 12 11  2  0
 13 14  1  0
 15 16  1  0
 15 14  1  6
 17 19  1  0
 17 15  1  0
 18 17  2  0
M  END
$$$$
