GIS.pdb
     RDKit          3D

 19 18  0  0  1  0  0  0  0  0999 V2000
   25.4487  -24.3150  -14.8326 N   0  0  0  0  0  0  0  0  0  0  0  0
   24.4047  -23.6610  -15.5551 C   0  0  0  0  0  0  0  0  0  0  0  0
   23.5737  -22.8286  -14.6617 C   0  0  0  0  0  0  0  0  0  0  0  0
   23.9040  -22.7945  -13.4272 O   0  0  0  0  0  0  0  0  0  0  0  0
   23.4306  -18.8312  -16.2896 C   0  0  0  0  0  0  0  0  0  0  0  0
   23.1267  -19.1985  -14.8672 C   0  0  0  0  0  0  0  0  0  0  0  0
   21.7527  -19.7848  -14.6611 C   0  0  2  0  0  0  0  0  0  0  0  0
   20.9399  -18.9769  -13.6737 C   0  0  0  0  0  0  0  0  0  0  0  0
   21.7865  -21.2034  -14.1942 C   0  0  2  0  0  0  0  0  0  0  0  0
   22.4517  -22.0864  -15.1179 N   0  0  0  0  0  0  0  0  0  0  0  0
   20.4057  -21.6953  -13.9018 C   0  0  0  0  0  0  0  0  0  0  0  0
   19.5560  -21.9776  -14.7755 O   0  0  0  0  0  0  0  0  0  0  0  0
   17.1505  -22.9987  -10.5492 O   0  0  0  0  0  0  0  0  0  0  0  0
   18.4639  -22.6343  -10.7589 C   0  0  0  0  0  0  0  0  0  0  0  0
   18.6246  -22.2689  -12.2339 C   0  0  2  0  0  0  0  0  0  0  0  0
   19.9824  -21.8707  -12.5346 N   0  0  0  0  0  0  0  0  0  0  0  0
   17.6723  -21.1999  -12.5975 C   0  0  0  0  0  0  0  0  0  0  0  0
   17.9408  -20.0024  -12.3755 O   0  0  0  0  0  0  0  0  0  0  0  0
   16.4557  -21.4986  -13.1946 O   0  0  0  0  0  0  0  0  0  0  0  0
  2  3  1  0
  2  1  1  0
  3  4  2  0
  5  6  1  0
  6  7  1  0
  7  8  1  1
  9  7  1  0
 10  3  1  0
  9 10  1  6
 11 16  1  0
 11  9  1  0
 12 11  2  0
 13 14  1  0
 15 16  1  0
 15 14  1  1
 17 19  1  0
 17 15  1  0
 18 17  2  0
M  END
$$$$
