GIS.pdb
     RDKit          3D

 19 18  0  0  1  0  0  0  0  0999 V2000
   18.2472  -12.5316  -17.7509 N   0  0  0  0  0  0  0  0  0  0  0  0
   18.8587  -11.2652  -17.9999 C   0  0  0  0  0  0  0  0  0  0  0  0
   19.5938  -10.7818  -16.8135 C   0  0  0  0  0  0  0  0  0  0  0  0
   18.9460  -10.7254  -15.7129 O   0  0  0  0  0  0  0  0  0  0  0  0
   24.0299  -12.6396  -14.8537 C   0  0  0  0  0  0  0  0  0  0  0  0
   22.7197  -11.9414  -15.0690 C   0  0  0  0  0  0  0  0  0  0  0  0
   22.8417  -10.4551  -15.2930 C   0  0  2  0  0  0  0  0  0  0  0  0
   23.3844   -9.7459  -14.0719 C   0  0  0  0  0  0  0  0  0  0  0  0
   21.5477   -9.8132  -15.6742 C   0  0  2  0  0  0  0  0  0  0  0  0
   20.9583  -10.3890  -16.8559 N   0  0  0  0  0  0  0  0  0  0  0  0
   21.7198   -8.3379  -15.8405 C   0  0  0  0  0  0  0  0  0  0  0  0
   22.2880   -7.7978  -16.8156 O   0  0  0  0  0  0  0  0  0  0  0  0
   20.1737   -3.9830  -15.2856 O   0  0  0  0  0  0  0  0  0  0  0  0
   19.9724   -5.3305  -15.0720 C   0  0  0  0  0  0  0  0  0  0  0  0
   21.3400   -6.0080  -14.9976 C   0  0  2  0  0  0  0  0  0  0  0  0
   21.2122   -7.4396  -14.8334 N   0  0  0  0  0  0  0  0  0  0  0  0
   22.1356   -5.4235  -13.8988 C   0  0  0  0  0  0  0  0  0  0  0  0
   22.0964   -5.9117  -12.7519 O   0  0  0  0  0  0  0  0  0  0  0  0
   22.9463   -4.3177  -14.1126 O   0  0  0  0  0  0  0  0  0  0  0  0
  2  3  1  0
  2  1  1  0
  3  4  2  0
  5  6  1  0
  6  7  1  0
  7  8  1  1
  9  7  1  0
 10  3  1  0
  9 10  1  6
 11 16  1  0
 11  9  1  0
 12 11  2  0
 13 14  1  0
 15 16  1  0
 15 14  1  1
 17 19  1  0
 17 15  1  0
 18 17  2  0
M  END
$$$$
