GIS.pdb
     RDKit          3D

 19 18  0  0  1  0  0  0  0  0999 V2000
   19.0008  -23.0558   -7.1075 N   0  0  0  0  0  0  0  0  0  0  0  0
   20.2962  -23.3741   -7.6178 C   0  0  0  0  0  0  0  0  0  0  0  0
   20.8723  -22.2383   -8.3657 C   0  0  0  0  0  0  0  0  0  0  0  0
   20.1068  -21.2374   -8.5810 O   0  0  0  0  0  0  0  0  0  0  0  0
   25.8932  -20.2134   -7.8655 C   0  0  0  0  0  0  0  0  0  0  0  0
   24.4210  -20.3387   -8.1252 C   0  0  0  0  0  0  0  0  0  0  0  0
   24.0769  -20.7920   -9.5216 C   0  0  2  0  0  0  0  0  0  0  0  0
   24.4389  -19.7490  -10.5558 C   0  0  0  0  0  0  0  0  0  0  0  0
   22.6323  -21.1359   -9.6853 C   0  0  2  0  0  0  0  0  0  0  0  0
   22.2114  -22.2235   -8.8396 N   0  0  0  0  0  0  0  0  0  0  0  0
   22.3201  -21.4340  -11.1162 C   0  0  0  0  0  0  0  0  0  0  0  0
   22.7866  -22.4037  -11.7544 O   0  0  0  0  0  0  0  0  0  0  0  0
   19.5681  -20.4471  -14.9699 O   0  0  0  0  0  0  0  0  0  0  0  0
   19.9223  -20.0108  -13.7106 C   0  0  0  0  0  0  0  0  0  0  0  0
   21.0968  -20.8608  -13.2276 C   0  0  2  0  0  0  0  0  0  0  0  0
   21.4258  -20.5723  -11.8487 N   0  0  0  0  0  0  0  0  0  0  0  0
   22.2686  -20.6485  -14.1014 C   0  0  0  0  0  0  0  0  0  0  0  0
   23.0128  -19.6603  -13.9434 O   0  0  0  0  0  0  0  0  0  0  0  0
   22.5725  -21.5412  -15.1196 O   0  0  0  0  0  0  0  0  0  0  0  0
  2  3  1  0
  2  1  1  0
  3  4  2  0
  5  6  1  0
  6  7  1  0
  7  8  1  6
  9  7  1  0
 10  3  1  0
  9 10  1  1
 11 16  1  0
 11  9  1  0
 12 11  2  0
 13 14  1  0
 15 16  1  0
 15 14  1  6
 17 19  1  0
 17 15  1  0
 18 17  2  0
M  END
$$$$
