GIS.pdb
     RDKit          3D

 19 18  0  0  1  0  0  0  0  0999 V2000
   17.9815   -5.3829  -18.2490 N   0  0  0  0  0  0  0  0  0  0  0  0
   19.2888   -5.7581  -17.8131 C   0  0  0  0  0  0  0  0  0  0  0  0
   19.2500   -6.3807  -16.4743 C   0  0  0  0  0  0  0  0  0  0  0  0
   18.6279   -7.4925  -16.3694 O   0  0  0  0  0  0  0  0  0  0  0  0
   21.9174   -9.2939  -12.7832 C   0  0  0  0  0  0  0  0  0  0  0  0
   21.3282   -7.9322  -12.5615 C   0  0  0  0  0  0  0  0  0  0  0  0
   21.2876   -7.0685  -13.7969 C   0  0  2  0  0  0  0  0  0  0  0  0
   22.2179   -5.8811  -13.6826 C   0  0  0  0  0  0  0  0  0  0  0  0
   19.9173   -6.5645  -14.1132 C   0  0  2  0  0  0  0  0  0  0  0  0
   19.8644   -5.7997  -15.3329 N   0  0  0  0  0  0  0  0  0  0  0  0
   19.3718   -5.7685  -12.9718 C   0  0  0  0  0  0  0  0  0  0  0  0
   19.8517   -4.6842  -12.5730 O   0  0  0  0  0  0  0  0  0  0  0  0
   15.9778   -4.6450  -12.6739 O   0  0  0  0  0  0  0  0  0  0  0  0
   16.1349   -5.2262  -11.4332 C   0  0  0  0  0  0  0  0  0  0  0  0
   17.6286   -5.4478  -11.1994 C   0  0  2  0  0  0  0  0  0  0  0  0
   18.2158   -6.2452  -12.2540 N   0  0  0  0  0  0  0  0  0  0  0  0
   17.8468   -6.0789   -9.8819 C   0  0  0  0  0  0  0  0  0  0  0  0
   18.2686   -7.2493   -9.7961 O   0  0  0  0  0  0  0  0  0  0  0  0
   17.5889   -5.3878   -8.7064 O   0  0  0  0  0  0  0  0  0  0  0  0
  2  3  1  0
  2  1  1  0
  3  4  2  0
  5  6  1  0
  6  7  1  0
  7  8  1  1
  9  7  1  0
 10  3  1  0
  9 10  1  6
 11 16  1  0
 11  9  1  0
 12 11  2  0
 13 14  1  0
 15 16  1  0
 15 14  1  6
 17 19  1  0
 17 15  1  0
 18 17  2  0
M  END
$$$$
