GIS.pdb
     RDKit          3D

 19 18  0  0  1  0  0  0  0  0999 V2000
   22.0648  -18.6688  -17.9551 N   0  0  0  0  0  0  0  0  0  0  0  0
   23.0338  -17.8651  -17.2808 C   0  0  0  0  0  0  0  0  0  0  0  0
   24.0014  -18.6997  -16.5401 C   0  0  0  0  0  0  0  0  0  0  0  0
   23.9962  -19.9536  -16.7893 O   0  0  0  0  0  0  0  0  0  0  0  0
   27.8067  -16.9153  -16.7063 C   0  0  0  0  0  0  0  0  0  0  0  0
   27.8779  -18.3182  -16.1796 C   0  0  0  0  0  0  0  0  0  0  0  0
   27.2171  -18.5080  -14.8375 C   0  0  2  0  0  0  0  0  0  0  0  0
   28.0289  -19.4103  -13.9345 C   0  0  0  0  0  0  0  0  0  0  0  0
   25.8347  -19.0649  -14.9401 C   0  0  2  0  0  0  0  0  0  0  0  0
   24.9112  -18.1684  -15.5873 N   0  0  0  0  0  0  0  0  0  0  0  0
   25.3237  -19.4595  -13.5921 C   0  0  0  0  0  0  0  0  0  0  0  0
   24.7935  -18.6709  -12.7784 O   0  0  0  0  0  0  0  0  0  0  0  0
   23.7837  -23.0693  -12.9521 O   0  0  0  0  0  0  0  0  0  0  0  0
   24.5920  -22.7556  -11.8798 C   0  0  0  0  0  0  0  0  0  0  0  0
   24.8467  -21.2491  -11.9030 C   0  0  2  0  0  0  0  0  0  0  0  0
   25.4288  -20.8310  -13.1596 N   0  0  0  0  0  0  0  0  0  0  0  0
   25.7134  -20.8645  -10.7704 C   0  0  0  0  0  0  0  0  0  0  0  0
   26.9287  -20.6435  -10.9421 O   0  0  0  0  0  0  0  0  0  0  0  0
   25.1997  -20.7390   -9.4873 O   0  0  0  0  0  0  0  0  0  0  0  0
  2  3  1  0
  2  1  1  0
  3  4  2  0
  5  6  1  0
  6  7  1  0
  7  8  1  1
  9  7  1  0
 10  3  1  0
  9 10  1  1
 11 16  1  0
 11  9  1  0
 12 11  2  0
 13 14  1  0
 15 16  1  0
 15 14  1  6
 17 19  1  0
 17 15  1  0
 18 17  2  0
M  END
$$$$
