GIS.pdb
     RDKit          3D

 19 18  0  0  1  0  0  0  0  0999 V2000
   21.0621  -19.8963  -15.1417 N   0  0  0  0  0  0  0  0  0  0  0  0
   21.6781  -20.8228  -14.2462 C   0  0  0  0  0  0  0  0  0  0  0  0
   21.0556  -22.1586  -14.3443 C   0  0  0  0  0  0  0  0  0  0  0  0
   19.7803  -22.2109  -14.2733 O   0  0  0  0  0  0  0  0  0  0  0  0
   22.5873  -25.9072  -17.7802 C   0  0  0  0  0  0  0  0  0  0  0  0
   21.6602  -25.1529  -16.8736 C   0  0  0  0  0  0  0  0  0  0  0  0
   21.6890  -25.6148  -15.4383 C   0  0  2  0  0  0  0  0  0  0  0  0
   20.9536  -26.9240  -15.2549 C   0  0  0  0  0  0  0  0  0  0  0  0
   21.1128  -24.6141  -14.4905 C   0  0  2  0  0  0  0  0  0  0  0  0
   21.8076  -23.3523  -14.5102 N   0  0  0  0  0  0  0  0  0  0  0  0
   21.0697  -25.1665  -13.1024 C   0  0  0  0  0  0  0  0  0  0  0  0
   22.0781  -25.5104  -12.4467 O   0  0  0  0  0  0  0  0  0  0  0  0
   17.7036  -24.7754  -10.8122 O   0  0  0  0  0  0  0  0  0  0  0  0
   18.8860  -25.0760  -10.1693 C   0  0  0  0  0  0  0  0  0  0  0  0
   19.7391  -25.9192  -11.1159 C   0  0  2  0  0  0  0  0  0  0  0  0
   19.8016  -25.3311  -12.4361 N   0  0  0  0  0  0  0  0  0  0  0  0
   19.2120  -27.2975  -11.1807 C   0  0  0  0  0  0  0  0  0  0  0  0
   18.6636  -27.7239  -12.2165 O   0  0  0  0  0  0  0  0  0  0  0  0
   19.3125  -28.1534  -10.0930 O   0  0  0  0  0  0  0  0  0  0  0  0
  2  3  1  0
  2  1  1  0
  3  4  2  0
  5  6  1  0
  6  7  1  0
  7  8  1  6
  9  7  1  0
 10  3  1  0
  9 10  1  1
 11 16  1  0
 11  9  1  0
 12 11  2  0
 13 14  1  0
 15 16  1  0
 15 14  1  1
 17 19  1  0
 17 15  1  0
 18 17  2  0
M  END
$$$$
