GIS.pdb
     RDKit          3D

 19 18  0  0  1  0  0  0  0  0999 V2000
   14.4374   -9.4873  -14.6352 N   0  0  0  0  0  0  0  0  0  0  0  0
   15.3156   -8.8914  -15.5909 C   0  0  0  0  0  0  0  0  0  0  0  0
   16.7219   -8.9629  -15.1452 C   0  0  0  0  0  0  0  0  0  0  0  0
   16.9275   -9.0619  -13.8874 O   0  0  0  0  0  0  0  0  0  0  0  0
   18.9908  -11.9539  -17.0538 C   0  0  0  0  0  0  0  0  0  0  0  0
   19.6999  -11.2983  -15.9060 C   0  0  0  0  0  0  0  0  0  0  0  0
   20.0813   -9.8609  -16.1559 C   0  0  2  0  0  0  0  0  0  0  0  0
   21.4901   -9.5648  -15.6910 C   0  0  0  0  0  0  0  0  0  0  0  0
   19.1553   -8.8881  -15.5018 C   0  0  2  0  0  0  0  0  0  0  0  0
   17.8212   -8.9262  -16.0441 N   0  0  0  0  0  0  0  0  0  0  0  0
   19.7102   -7.5021  -15.5731 C   0  0  0  0  0  0  0  0  0  0  0  0
   19.6097   -6.7507  -16.5683 O   0  0  0  0  0  0  0  0  0  0  0  0
   22.1422   -3.9570  -13.3143 O   0  0  0  0  0  0  0  0  0  0  0  0
   21.6745   -5.2489  -13.1963 C   0  0  0  0  0  0  0  0  0  0  0  0
   20.9633   -5.6162  -14.4979 C   0  0  2  0  0  0  0  0  0  0  0  0
   20.4161   -6.9541  -14.4416 N   0  0  0  0  0  0  0  0  0  0  0  0
   21.8914   -5.4773  -15.6387 C   0  0  0  0  0  0  0  0  0  0  0  0
   22.7997   -6.3105  -15.8285 O   0  0  0  0  0  0  0  0  0  0  0  0
   21.7778   -4.4181  -16.5281 O   0  0  0  0  0  0  0  0  0  0  0  0
  2  3  1  0
  2  1  1  0
  3  4  2  0
  5  6  1  0
  6  7  1  0
  7  8  1  1
  9  7  1  0
 10  3  1  0
  9 10  1  6
 11 16  1  0
 11  9  1  0
 12 11  2  0
 13 14  1  0
 15 16  1  0
 15 14  1  1
 17 19  1  0
 17 15  1  0
 18 17  2  0
M  END
$$$$
