GIS.pdb
     RDKit          3D

 19 18  0  0  1  0  0  0  0  0999 V2000
   26.0534  -21.7992  -11.6252 N   0  0  0  0  0  0  0  0  0  0  0  0
   25.7104  -21.7606  -13.0110 C   0  0  0  0  0  0  0  0  0  0  0  0
   25.0594  -20.4836  -13.3673 C   0  0  0  0  0  0  0  0  0  0  0  0
   24.3794  -19.9041  -12.4530 O   0  0  0  0  0  0  0  0  0  0  0  0
   27.5500  -16.6875  -15.7433 C   0  0  0  0  0  0  0  0  0  0  0  0
   26.4896  -17.3063  -14.8813 C   0  0  0  0  0  0  0  0  0  0  0  0
   25.2164  -17.6440  -15.6155 C   0  0  2  0  0  0  0  0  0  0  0  0
   24.3410  -16.4259  -15.8110 C   0  0  0  0  0  0  0  0  0  0  0  0
   24.4095  -18.6990  -14.9317 C   0  0  2  0  0  0  0  0  0  0  0  0
   25.1623  -19.8961  -14.6566 N   0  0  0  0  0  0  0  0  0  0  0  0
   23.1838  -19.0216  -15.7238 C   0  0  0  0  0  0  0  0  0  0  0  0
   23.1807  -19.6930  -16.7794 O   0  0  0  0  0  0  0  0  0  0  0  0
   19.7444  -19.8398  -14.2162 O   0  0  0  0  0  0  0  0  0  0  0  0
   19.4688  -18.9201  -15.2061 C   0  0  0  0  0  0  0  0  0  0  0  0
   20.7147  -18.7757  -16.0789 C   0  0  2  0  0  0  0  0  0  0  0  0
   21.8974  -18.5471  -15.2778 N   0  0  0  0  0  0  0  0  0  0  0  0
   20.5248  -17.6843  -17.0560 C   0  0  0  0  0  0  0  0  0  0  0  0
   21.1678  -16.6202  -16.9584 O   0  0  0  0  0  0  0  0  0  0  0  0
   19.6276  -17.8134  -18.1068 O   0  0  0  0  0  0  0  0  0  0  0  0
  2  3  1  0
  2  1  1  0
  3  4  2  0
  5  6  1  0
  6  7  1  0
  7  8  1  1
  9  7  1  0
 10  3  1  0
  9 10  1  6
 11 16  1  0
 11  9  1  0
 12 11  2  0
 13 14  1  0
 15 16  1  0
 15 14  1  1
 17 19  1  0
 17 15  1  0
 18 17  2  0
M  END
$$$$
