GIS.pdb
     RDKit          3D

 19 18  0  0  1  0  0  0  0  0999 V2000
   19.9601  -11.9867  -18.2673 N   0  0  0  0  0  0  0  0  0  0  0  0
   21.3044  -12.3522  -17.9529 C   0  0  0  0  0  0  0  0  0  0  0  0
   21.8565  -11.4974  -16.8824 C   0  0  0  0  0  0  0  0  0  0  0  0
   21.2664  -11.5334  -15.7489 O   0  0  0  0  0  0  0  0  0  0  0  0
   26.9698  -11.3997  -15.5186 C   0  0  0  0  0  0  0  0  0  0  0  0
   25.4746  -11.3191  -15.6098 C   0  0  0  0  0  0  0  0  0  0  0  0
   24.9416   -9.9199  -15.7887 C   0  0  2  0  0  0  0  0  0  0  0  0
   25.3195   -9.0228  -14.6307 C   0  0  0  0  0  0  0  0  0  0  0  0
   23.4575   -9.8763  -15.9534 C   0  0  2  0  0  0  0  0  0  0  0  0
   22.9896  -10.6609  -17.0674 N   0  0  0  0  0  0  0  0  0  0  0  0
   22.9812   -8.4644  -16.0707 C   0  0  0  0  0  0  0  0  0  0  0  0
   23.3426   -7.6684  -16.9656 O   0  0  0  0  0  0  0  0  0  0  0  0
   19.8534   -5.0675  -14.6961 O   0  0  0  0  0  0  0  0  0  0  0  0
   20.2381   -6.3802  -14.5209 C   0  0  0  0  0  0  0  0  0  0  0  0
   21.5998   -6.5681  -15.1882 C   0  0  2  0  0  0  0  0  0  0  0  0
   22.0417   -7.9433  -15.1091 N   0  0  0  0  0  0  0  0  0  0  0  0
   22.5931   -5.6625  -14.5758 C   0  0  0  0  0  0  0  0  0  0  0  0
   23.1339   -5.9484  -13.4890 O   0  0  0  0  0  0  0  0  0  0  0  0
   22.9507   -4.4715  -15.1919 O   0  0  0  0  0  0  0  0  0  0  0  0
  2  3  1  0
  2  1  1  0
  3  4  2  0
  5  6  1  0
  6  7  1  0
  7  8  1  1
  9  7  1  0
 10  3  1  0
  9 10  1  6
 11 16  1  0
 11  9  1  0
 12 11  2  0
 13 14  1  0
 15 16  1  0
 15 14  1  1
 17 19  1  0
 17 15  1  0
 18 17  2  0
M  END
$$$$
