GIS.pdb
     RDKit          3D

 19 18  0  0  1  0  0  0  0  0999 V2000
   19.8436  -10.0189  -19.7527 N   0  0  0  0  0  0  0  0  0  0  0  0
   20.4821   -8.7839  -19.4257 C   0  0  0  0  0  0  0  0  0  0  0  0
   20.4134   -8.5118  -17.9756 C   0  0  0  0  0  0  0  0  0  0  0  0
   19.2522   -8.5057  -17.4409 O   0  0  0  0  0  0  0  0  0  0  0  0
   23.3032  -10.9079  -14.3984 C   0  0  0  0  0  0  0  0  0  0  0  0
   22.2152  -10.1449  -15.0945 C   0  0  0  0  0  0  0  0  0  0  0  0
   22.2627   -8.6550  -14.8661 C   0  0  2  0  0  0  0  0  0  0  0  0
   21.8825   -8.2921  -13.4475 C   0  0  0  0  0  0  0  0  0  0  0  0
   21.3809   -7.8920  -15.7999 C   0  0  2  0  0  0  0  0  0  0  0  0
   21.5635   -8.2639  -17.1796 N   0  0  0  0  0  0  0  0  0  0  0  0
   21.5747   -6.4205  -15.6240 C   0  0  0  0  0  0  0  0  0  0  0  0
   22.5700   -5.7843  -16.0359 O   0  0  0  0  0  0  0  0  0  0  0  0
   19.5309   -2.1891  -14.4699 O   0  0  0  0  0  0  0  0  0  0  0  0
   19.3360   -3.5509  -14.5670 C   0  0  0  0  0  0  0  0  0  0  0  0
   20.6851   -4.2024  -14.8679 C   0  0  2  0  0  0  0  0  0  0  0  0
   20.5719   -5.6428  -14.9395 N   0  0  0  0  0  0  0  0  0  0  0  0
   21.6780   -3.8048  -13.8491 C   0  0  0  0  0  0  0  0  0  0  0  0
   21.8190   -4.4670  -12.8018 O   0  0  0  0  0  0  0  0  0  0  0  0
   22.4790   -2.6861  -14.0295 O   0  0  0  0  0  0  0  0  0  0  0  0
  2  3  1  0
  2  1  1  0
  3  4  2  0
  5  6  1  0
  6  7  1  0
  7  8  1  1
  9  7  1  0
 10  3  1  0
  9 10  1  6
 11 16  1  0
 11  9  1  0
 12 11  2  0
 13 14  1  0
 15 16  1  0
 15 14  1  1
 17 19  1  0
 17 15  1  0
 18 17  2  0
M  END
$$$$
