VAS.pdb
     RDKit          3D

 19 18  0  0  1  0  0  0  0  0999 V2000
   21.5554  -11.9329  -14.4930 C   0  0  0  0  0  0  0  0  0  0  0  0
   22.6892  -12.3317  -15.4128 C   0  0  2  0  0  0  0  0  0  0  0  0
   23.9954  -11.7486  -14.9184 C   0  0  0  0  0  0  0  0  0  0  0  0
   22.4059  -11.9145  -16.8452 C   0  0  2  0  0  0  0  0  0  0  0  0
   23.4568  -12.3386  -17.7412 N   0  0  0  0  0  0  0  0  0  0  0  0
   22.2719  -10.4417  -16.8576 C   0  0  0  0  0  0  0  0  0  0  0  0
   23.3308   -9.7548  -16.7508 O   0  0  0  0  0  0  0  0  0  0  0  0
   19.6735   -7.8808  -17.5977 C   0  0  0  0  0  0  0  0  0  0  0  0
   20.9824   -8.3516  -16.9862 C   0  0  2  0  0  0  0  0  0  0  0  0
   21.0201   -9.7785  -16.9828 N   0  0  0  0  0  0  0  0  0  0  0  0
   21.0469   -7.7682  -15.6201 C   0  0  0  0  0  0  0  0  0  0  0  0
   20.7354   -8.3684  -14.5798 O   0  0  0  0  0  0  0  0  0  0  0  0
   22.7336   -3.8319  -13.3442 O   0  0  0  0  0  0  0  0  0  0  0  0
   22.4712   -4.4783  -14.5499 C   0  0  0  0  0  0  0  0  0  0  0  0
   21.6473   -5.7359  -14.2554 C   0  0  2  0  0  0  0  0  0  0  0  0
   21.5005   -6.4243  -15.5161 N   0  0  0  0  0  0  0  0  0  0  0  0
   20.3160   -5.2959  -13.7951 C   0  0  0  0  0  0  0  0  0  0  0  0
   19.4414   -4.8709  -14.5900 O   0  0  0  0  0  0  0  0  0  0  0  0
   20.0174   -5.3513  -12.4476 O   0  0  0  0  0  0  0  0  0  0  0  0
  2  4  1  0
  2  1  1  1
  3  2  1  0
  4  5  1  6
  6  4  1  0
  7  6  2  0
  9  8  1  1
  9 11  1  0
  9 10  1  0
 10  6  1  0
 11 12  2  0
 14 13  1  0
 15 14  1  6
 16 11  1  0
 16 15  1  0
 17 19  1  0
 17 15  1  0
 18 17  2  0
M  END
$$$$
