VAS.pdb
     RDKit          3D

 19 18  0  0  1  0  0  0  0  0999 V2000
   19.1322  -10.8364  -14.9655 C   0  0  0  0  0  0  0  0  0  0  0  0
   18.0531  -10.8873  -16.0256 C   0  0  2  0  0  0  0  0  0  0  0  0
   17.2862  -12.1886  -15.9312 C   0  0  0  0  0  0  0  0  0  0  0  0
   18.6380  -10.6909  -17.4132 C   0  0  2  0  0  0  0  0  0  0  0  0
   19.5175  -11.7771  -17.7789 N   0  0  0  0  0  0  0  0  0  0  0  0
   19.3702   -9.4060  -17.4057 C   0  0  0  0  0  0  0  0  0  0  0  0
   20.6027   -9.4342  -17.1148 O   0  0  0  0  0  0  0  0  0  0  0  0
   18.7266   -5.7995  -18.1732 C   0  0  0  0  0  0  0  0  0  0  0  0
   19.5068   -6.9562  -17.5715 C   0  0  2  0  0  0  0  0  0  0  0  0
   18.7532   -8.1607  -17.7077 N   0  0  0  0  0  0  0  0  0  0  0  0
   19.7720   -6.5972  -16.1531 C   0  0  0  0  0  0  0  0  0  0  0  0
   18.9978   -6.8234  -15.2103 O   0  0  0  0  0  0  0  0  0  0  0  0
   22.5515   -7.6309  -14.1017 O   0  0  0  0  0  0  0  0  0  0  0  0
   22.7772   -6.2735  -14.3182 C   0  0  0  0  0  0  0  0  0  0  0  0
   21.4254   -5.5877  -14.5406 C   0  0  2  0  0  0  0  0  0  0  0  0
   21.0065   -5.9485  -15.8746 N   0  0  0  0  0  0  0  0  0  0  0  0
   21.6541   -4.1306  -14.4909 C   0  0  0  0  0  0  0  0  0  0  0  0
   21.6984   -3.4259  -15.5295 O   0  0  0  0  0  0  0  0  0  0  0  0
   21.8256   -3.5176  -13.2651 O   0  0  0  0  0  0  0  0  0  0  0  0
  2  4  1  0
  2  1  1  1
  3  2  1  0
  4  5  1  1
  6  4  1  0
  7  6  2  0
  9  8  1  1
  9 11  1  0
  9 10  1  0
 10  6  1  0
 11 12  2  0
 14 13  1  0
 15 14  1  6
 16 11  1  0
 16 15  1  0
 17 19  1  0
 17 15  1  0
 18 17  2  0
M  END
$$$$
