VAS.pdb
     RDKit          3D

 19 18  0  0  1  0  0  0  0  0999 V2000
   14.6129   -9.2442  -12.7084 C   0  0  0  0  0  0  0  0  0  0  0  0
   15.9909   -8.6214  -12.6453 C   0  0  2  0  0  0  0  0  0  0  0  0
   16.4115   -8.1389  -14.0168 C   0  0  0  0  0  0  0  0  0  0  0  0
   17.0053   -9.5920  -12.0668 C   0  0  2  0  0  0  0  0  0  0  0  0
   16.7301   -9.8858  -10.6793 N   0  0  0  0  0  0  0  0  0  0  0  0
   18.3410   -8.9746  -12.2147 C   0  0  0  0  0  0  0  0  0  0  0  0
   18.6170   -7.9869  -11.4713 O   0  0  0  0  0  0  0  0  0  0  0  0
   21.5375   -9.5602  -14.0512 C   0  0  0  0  0  0  0  0  0  0  0  0
   20.5172   -8.6985  -13.3266 C   0  0  2  0  0  0  0  0  0  0  0  0
   19.3112   -9.4401  -13.1447 N   0  0  0  0  0  0  0  0  0  0  0  0
   20.3265   -7.4787  -14.1551 C   0  0  0  0  0  0  0  0  0  0  0  0
   19.4874   -7.3643  -15.0620 O   0  0  0  0  0  0  0  0  0  0  0  0
   21.8535   -2.8758  -14.4005 O   0  0  0  0  0  0  0  0  0  0  0  0
   21.9638   -4.1284  -13.8011 C   0  0  0  0  0  0  0  0  0  0  0  0
   21.1005   -5.1194  -14.5885 C   0  0  2  0  0  0  0  0  0  0  0  0
   21.1752   -6.3725  -13.8749 N   0  0  0  0  0  0  0  0  0  0  0  0
   21.7210   -5.2898  -15.9166 C   0  0  0  0  0  0  0  0  0  0  0  0
   22.6728   -6.0856  -16.1118 O   0  0  0  0  0  0  0  0  0  0  0  0
   21.2430   -4.5526  -16.9823 O   0  0  0  0  0  0  0  0  0  0  0  0
  2  4  1  0
  2  1  1  6
  3  2  1  0
  4  5  1  1
  6  4  1  0
  7  6  2  0
  9  8  1  6
  9 11  1  0
  9 10  1  0
 10  6  1  0
 11 12  2  0
 14 13  1  0
 15 14  1  1
 16 11  1  0
 16 15  1  0
 17 19  1  0
 17 15  1  0
 18 17  2  0
M  END
$$$$
