VAS.pdb
     RDKit          3D

 19 18  0  0  1  0  0  0  0  0999 V2000
   17.1991   -9.1417  -16.0398 C   0  0  0  0  0  0  0  0  0  0  0  0
   17.7500  -10.0596  -17.1098 C   0  0  2  0  0  0  0  0  0  0  0  0
   16.6461  -10.9261  -17.6765 C   0  0  0  0  0  0  0  0  0  0  0  0
   18.8932  -10.9030  -16.5734 C   0  0  2  0  0  0  0  0  0  0  0  0
   18.4677  -11.7405  -15.4758 N   0  0  0  0  0  0  0  0  0  0  0  0
   19.9601   -9.9754  -16.1392 C   0  0  0  0  0  0  0  0  0  0  0  0
   19.9474   -9.5891  -14.9330 O   0  0  0  0  0  0  0  0  0  0  0  0
   23.0702   -8.4375  -17.5470 C   0  0  0  0  0  0  0  0  0  0  0  0
   21.9794   -8.6203  -16.5052 C   0  0  2  0  0  0  0  0  0  0  0  0
   20.9827   -9.5083  -17.0104 N   0  0  0  0  0  0  0  0  0  0  0  0
   21.4475   -7.2647  -16.2049 C   0  0  0  0  0  0  0  0  0  0  0  0
   20.4648   -6.7516  -16.7622 O   0  0  0  0  0  0  0  0  0  0  0  0
   22.2811   -5.6568  -12.5834 O   0  0  0  0  0  0  0  0  0  0  0  0
   22.6174   -4.8005  -13.6294 C   0  0  0  0  0  0  0  0  0  0  0  0
   21.7618   -5.1646  -14.8470 C   0  0  2  0  0  0  0  0  0  0  0  0
   22.1257   -6.5155  -15.2042 N   0  0  0  0  0  0  0  0  0  0  0  0
   22.1490   -4.2603  -15.9471 C   0  0  0  0  0  0  0  0  0  0  0  0
   22.9893   -4.5918  -16.8196 O   0  0  0  0  0  0  0  0  0  0  0  0
   21.5713   -3.0080  -16.0239 O   0  0  0  0  0  0  0  0  0  0  0  0
  2  4  1  0
  2  1  1  1
  3  2  1  0
  4  5  1  1
  6  4  1  0
  7  6  2  0
  9  8  1  6
  9 11  1  0
  9 10  1  0
 10  6  1  0
 11 12  2  0
 14 13  1  0
 15 14  1  1
 16 11  1  0
 16 15  1  0
 17 19  1  0
 17 15  1  0
 18 17  2  0
M  END
$$$$
