VAS.pdb
     RDKit          3D

 19 18  0  0  1  0  0  0  0  0999 V2000
   18.6789  -12.7777  -15.2388 C   0  0  0  0  0  0  0  0  0  0  0  0
   17.6130  -11.7741  -15.6226 C   0  0  2  0  0  0  0  0  0  0  0  0
   16.4145  -12.4829  -16.2156 C   0  0  0  0  0  0  0  0  0  0  0  0
   18.1627  -10.7279  -16.5762 C   0  0  2  0  0  0  0  0  0  0  0  0
   18.7516  -11.3329  -17.7485 N   0  0  0  0  0  0  0  0  0  0  0  0
   19.1700   -9.9398  -15.8336 C   0  0  0  0  0  0  0  0  0  0  0  0
   18.7736   -9.2771  -14.8296 O   0  0  0  0  0  0  0  0  0  0  0  0
   22.8731   -9.4215  -15.8225 C   0  0  0  0  0  0  0  0  0  0  0  0
   21.4407   -9.0759  -15.4517 C   0  0  2  0  0  0  0  0  0  0  0  0
   20.5442   -9.8985  -16.1980 N   0  0  0  0  0  0  0  0  0  0  0  0
   21.2668   -7.6265  -15.7343 C   0  0  0  0  0  0  0  0  0  0  0  0
   21.1219   -7.1396  -16.8663 O   0  0  0  0  0  0  0  0  0  0  0  0
   19.5446   -5.3799  -13.0413 O   0  0  0  0  0  0  0  0  0  0  0  0
   19.7798   -4.9144  -14.3330 C   0  0  0  0  0  0  0  0  0  0  0  0
   21.2027   -5.3118  -14.7389 C   0  0  2  0  0  0  0  0  0  0  0  0
   21.2692   -6.7489  -14.6153 N   0  0  0  0  0  0  0  0  0  0  0  0
   22.1278   -4.7063  -13.7615 C   0  0  0  0  0  0  0  0  0  0  0  0
   22.8165   -5.4017  -12.9744 O   0  0  0  0  0  0  0  0  0  0  0  0
   22.2435   -3.3310  -13.7067 O   0  0  0  0  0  0  0  0  0  0  0  0
  2  4  1  0
  2  1  1  6
  3  2  1  0
  4  5  1  6
  6  4  1  0
  7  6  2  0
  9  8  1  6
  9 11  1  0
  9 10  1  0
 10  6  1  0
 11 12  2  0
 14 13  1  0
 15 14  1  1
 16 11  1  0
 16 15  1  0
 17 19  1  0
 17 15  1  0
 18 17  2  0
M  END
$$$$
