VAS.pdb
     RDKit          3D

 19 18  0  0  1  0  0  0  0  0999 V2000
   18.1422  -15.8029  -16.4484 C   0  0  0  0  0  0  0  0  0  0  0  0
   18.5734  -14.3534  -16.5083 C   0  0  2  0  0  0  0  0  0  0  0  0
   18.7358  -13.7963  -15.1105 C   0  0  0  0  0  0  0  0  0  0  0  0
   17.5963  -13.5239  -17.3227 C   0  0  2  0  0  0  0  0  0  0  0  0
   17.4970  -14.0012  -18.6827 N   0  0  0  0  0  0  0  0  0  0  0  0
   18.0744  -12.1247  -17.2941 C   0  0  0  0  0  0  0  0  0  0  0  0
   19.1653  -11.8646  -17.8829 O   0  0  0  0  0  0  0  0  0  0  0  0
   16.7876   -8.7636  -16.3206 C   0  0  0  0  0  0  0  0  0  0  0  0
   17.8839   -9.7478  -16.6923 C   0  0  2  0  0  0  0  0  0  0  0  0
   17.3674  -11.0774  -16.6413 N   0  0  0  0  0  0  0  0  0  0  0  0
   18.9987   -9.5233  -15.7343 C   0  0  0  0  0  0  0  0  0  0  0  0
   19.1067  -10.0827  -14.6320 O   0  0  0  0  0  0  0  0  0  0  0  0
   22.7884   -9.0487  -16.7809 O   0  0  0  0  0  0  0  0  0  0  0  0
   22.2705   -7.8769  -16.2341 C   0  0  0  0  0  0  0  0  0  0  0  0
   21.1270   -8.2499  -15.2851 C   0  0  2  0  0  0  0  0  0  0  0  0
   20.0052   -8.5977  -16.1251 N   0  0  0  0  0  0  0  0  0  0  0  0
   20.7842   -7.0429  -14.5083 C   0  0  0  0  0  0  0  0  0  0  0  0
   19.8880   -6.2439  -14.8767 O   0  0  0  0  0  0  0  0  0  0  0  0
   21.4681   -6.7792  -13.3376 O   0  0  0  0  0  0  0  0  0  0  0  0
  2  4  1  0
  2  1  1  1
  3  2  1  0
  4  5  1  6
  6  4  1  0
  7  6  2  0
  9  8  1  1
  9 11  1  0
  9 10  1  0
 10  6  1  0
 11 12  2  0
 14 13  1  0
 15 14  1  6
 16 11  1  0
 16 15  1  0
 17 19  1  0
 17 15  1  0
 18 17  2  0
M  END
$$$$
