VAS.pdb
     RDKit          3D

 19 18  0  0  1  0  0  0  0  0999 V2000
   23.4649  -11.6669  -14.5848 C   0  0  0  0  0  0  0  0  0  0  0  0
   23.1976  -12.4410  -15.8576 C   0  0  2  0  0  0  0  0  0  0  0  0
   24.0810  -11.9320  -16.9762 C   0  0  0  0  0  0  0  0  0  0  0  0
   21.7297  -12.3760  -16.2409 C   0  0  2  0  0  0  0  0  0  0  0  0
   21.4511  -13.1665  -17.4176 N   0  0  0  0  0  0  0  0  0  0  0  0
   21.3976  -10.9542  -16.4764 C   0  0  0  0  0  0  0  0  0  0  0  0
   21.9185  -10.3884  -17.4827 O   0  0  0  0  0  0  0  0  0  0  0  0
   18.9251   -8.4323  -15.3953 C   0  0  0  0  0  0  0  0  0  0  0  0
   20.3009   -8.8287  -15.9040 C   0  0  2  0  0  0  0  0  0  0  0  0
   20.5298  -10.2107  -15.6297 N   0  0  0  0  0  0  0  0  0  0  0  0
   21.2777   -7.9353  -15.2269 C   0  0  0  0  0  0  0  0  0  0  0  0
   21.9323   -8.2396  -14.2178 O   0  0  0  0  0  0  0  0  0  0  0  0
   23.2727   -3.5293  -15.7621 O   0  0  0  0  0  0  0  0  0  0  0  0
   22.4396   -4.5253  -16.2664 C   0  0  0  0  0  0  0  0  0  0  0  0
   22.3900   -5.6736  -15.2535 C   0  0  2  0  0  0  0  0  0  0  0  0
   21.4630   -6.6423  -15.7895 N   0  0  0  0  0  0  0  0  0  0  0  0
   21.8391   -5.1321  -13.9961 C   0  0  0  0  0  0  0  0  0  0  0  0
   20.6034   -5.0169  -13.8035 O   0  0  0  0  0  0  0  0  0  0  0  0
   22.7063   -4.7379  -12.9959 O   0  0  0  0  0  0  0  0  0  0  0  0
  2  4  1  0
  2  1  1  1
  3  2  1  0
  4  5  1  6
  6  4  1  0
  7  6  2  0
  9  8  1  1
  9 11  1  0
  9 10  1  0
 10  6  1  0
 11 12  2  0
 14 13  1  0
 15 14  1  6
 16 11  1  0
 16 15  1  0
 17 19  1  0
 17 15  1  0
 18 17  2  0
M  END
$$$$
