VAS.pdb
     RDKit          3D

 19 18  0  0  1  0  0  0  0  0999 V2000
   17.5360  -27.1963   -6.1733 C   0  0  0  0  0  0  0  0  0  0  0  0
   16.7780  -26.2833   -7.1128 C   0  0  2  0  0  0  0  0  0  0  0  0
   16.9598  -26.7371   -8.5451 C   0  0  0  0  0  0  0  0  0  0  0  0
   17.2040  -24.8367   -6.9340 C   0  0  2  0  0  0  0  0  0  0  0  0
   18.6120  -24.6589   -7.2039 N   0  0  0  0  0  0  0  0  0  0  0  0
   16.8866  -24.4521   -5.5417 C   0  0  0  0  0  0  0  0  0  0  0  0
   17.8203  -24.5140   -4.6880 O   0  0  0  0  0  0  0  0  0  0  0  0
   14.0459  -22.9671   -3.6213 C   0  0  0  0  0  0  0  0  0  0  0  0
   15.3651  -23.7086   -3.7584 C   0  0  2  0  0  0  0  0  0  0  0  0
   15.5943  -24.0225   -5.1318 N   0  0  0  0  0  0  0  0  0  0  0  0
   15.2643  -24.9171   -2.8981 C   0  0  0  0  0  0  0  0  0  0  0  0
   14.8551  -26.0244   -3.2800 O   0  0  0  0  0  0  0  0  0  0  0  0
   16.0388  -23.9884    0.7969 O   0  0  0  0  0  0  0  0  0  0  0  0
   16.3469  -25.3407    0.6682 C   0  0  0  0  0  0  0  0  0  0  0  0
   15.6738  -25.8717   -0.6015 C   0  0  2  0  0  0  0  0  0  0  0  0
   15.6702  -24.7763   -1.5423 N   0  0  0  0  0  0  0  0  0  0  0  0
   14.2789  -26.2078   -0.2563 C   0  0  0  0  0  0  0  0  0  0  0  0
   13.3118  -25.4888   -0.6100 O   0  0  0  0  0  0  0  0  0  0  0  0
   14.0237  -27.3487    0.4792 O   0  0  0  0  0  0  0  0  0  0  0  0
  2  4  1  0
  2  1  1  1
  3  2  1  0
  4  5  1  1
  6  4  1  0
  7  6  2  0
  9  8  1  6
  9 11  1  0
  9 10  1  0
 10  6  1  0
 11 12  2  0
 14 13  1  0
 15 14  1  1
 16 11  1  0
 16 15  1  0
 17 19  1  0
 17 15  1  0
 18 17  2  0
M  END
$$$$
