VAS.pdb
     RDKit          3D

 19 18  0  0  1  0  0  0  0  0999 V2000
   15.3232  -14.2270  -16.8837 C   0  0  0  0  0  0  0  0  0  0  0  0
   16.6744  -14.7618  -16.4607 C   0  0  2  0  0  0  0  0  0  0  0  0
   16.5567  -16.2111  -16.0409 C   0  0  0  0  0  0  0  0  0  0  0  0
   17.2779  -13.9143  -15.3546 C   0  0  2  0  0  0  0  0  0  0  0  0
   16.4669  -13.9426  -14.1594 N   0  0  0  0  0  0  0  0  0  0  0  0
   17.3977  -12.5339  -15.8718 C   0  0  0  0  0  0  0  0  0  0  0  0
   18.1601  -12.3430  -16.8650 O   0  0  0  0  0  0  0  0  0  0  0  0
   15.7546   -9.2218  -15.4346 C   0  0  0  0  0  0  0  0  0  0  0  0
   16.9076  -10.1241  -15.8409 C   0  0  2  0  0  0  0  0  0  0  0  0
   16.7007  -11.4310  -15.3055 N   0  0  0  0  0  0  0  0  0  0  0  0
   18.1489   -9.4814  -15.3341 C   0  0  0  0  0  0  0  0  0  0  0  0
   18.7038   -9.7643  -14.2610 O   0  0  0  0  0  0  0  0  0  0  0  0
   21.5422   -6.2979  -16.7252 O   0  0  0  0  0  0  0  0  0  0  0  0
   20.4214   -7.0597  -17.0476 C   0  0  0  0  0  0  0  0  0  0  0  0
   19.9056   -7.7269  -15.7685 C   0  0  2  0  0  0  0  0  0  0  0  0
   18.7289   -8.4715  -16.1504 N   0  0  0  0  0  0  0  0  0  0  0  0
   19.5085   -6.6530  -14.8375 C   0  0  0  0  0  0  0  0  0  0  0  0
   20.3454   -6.0390  -14.1304 O   0  0  0  0  0  0  0  0  0  0  0  0
   18.1747   -6.3084  -14.7371 O   0  0  0  0  0  0  0  0  0  0  0  0
  2  4  1  0
  2  1  1  1
  3  2  1  0
  4  5  1  1
  6  4  1  0
  7  6  2  0
  9  8  1  1
  9 11  1  0
  9 10  1  0
 10  6  1  0
 11 12  2  0
 14 13  1  0
 15 14  1  6
 16 11  1  0
 16 15  1  0
 17 19  1  0
 17 15  1  0
 18 17  2  0
M  END
$$$$
