DEL.pdb
     RDKit          3D

 26 25  0  0  1  0  0  0  0  0999 V2000
   16.6942  -10.9843  -18.4315 N   0  0  0  0  0  0  0  0  0  0  0  0
   16.9283  -10.4133  -17.1495 C   0  0  1  0  0  0  0  0  0  0  0  0
   17.4179  -11.4512  -16.1597 C   0  0  0  0  0  0  0  0  0  0  0  0
   16.2635  -12.1961  -15.6379 C   0  0  0  0  0  0  0  0  0  0  0  0
   15.1639  -11.6417  -15.4974 O   0  0  0  0  0  0  0  0  0  0  0  0
   17.7413   -9.1899  -17.1146 C   0  0  0  0  0  0  0  0  0  0  0  0
   18.9808   -9.3652  -17.4147 O   0  0  0  0  0  0  0  0  0  0  0  0
   16.3986  -13.5302  -15.2983 O   0  0  0  0  0  0  0  0  0  0  0  0
   17.3358   -7.8913  -16.8019 N   0  0  0  0  0  0  0  0  0  0  0  0
   18.3013   -6.7902  -16.7463 C   0  0  1  0  0  0  0  0  0  0  0  0
   17.6048   -5.4607  -16.6414 C   0  0  0  0  0  0  0  0  0  0  0  0
   16.8129   -5.0953  -17.8420 C   0  0  0  0  0  0  0  0  0  0  0  0
   15.6501   -4.2770  -17.4396 C   0  0  0  0  0  0  0  0  0  0  0  0
   15.8537   -3.2259  -16.7907 O   0  0  0  0  0  0  0  0  0  0  0  0
   19.2454   -7.0120  -15.6128 C   0  0  0  0  0  0  0  0  0  0  0  0
   18.8095   -7.4768  -14.5042 O   0  0  0  0  0  0  0  0  0  0  0  0
   14.3344   -4.6018  -17.7375 O   0  0  0  0  0  0  0  0  0  0  0  0
   24.3861   -9.7166  -14.4757 C   0  0  0  0  0  0  0  0  0  0  0  0
   23.3531   -8.7772  -13.9914 C   0  0  2  0  0  0  0  0  0  0  0  0
   22.5687   -9.4628  -12.8458 C   0  0  0  0  0  0  0  0  0  0  0  0
   22.4246   -8.1578  -14.9425 C   0  0  0  0  0  0  0  0  0  0  0  0
   21.5680   -7.0215  -14.5729 C   0  0  2  0  0  0  0  0  0  0  0  0
   20.6151   -6.7374  -15.6840 N   0  0  0  0  0  0  0  0  0  0  0  0
   22.1693   -5.7619  -14.1580 C   0  0  0  0  0  0  0  0  0  0  0  0
   22.5253   -5.4090  -12.8721 O   0  0  0  0  0  0  0  0  0  0  0  0
   22.3951   -4.8696  -15.0721 O   0  0  0  0  0  0  0  0  0  0  0  0
  2  1  1  6
  2  3  1  0
  3  4  1  0
  4  8  1  0
  5  4  2  0
  6  7  2  0
  6  2  1  0
  9  6  1  0
 10  9  1  0
 10 11  1  1
 12 13  1  0
 12 11  1  0
 13 14  2  0
 15 10  1  0
 16 15  2  0
 17 13  1  0
 19 18  1  6
 19 21  1  0
 20 19  1  0
 22 21  1  6
 22 24  1  0
 22 23  1  0
 23 15  1  0
 24 25  1  0
 26 24  2  0
M  END
$$$$
