DEL.pdb
     RDKit          3D

 26 25  0  0  1  0  0  0  0  0999 V2000
   26.5845  -22.2445  -16.0105 N   0  0  0  0  0  0  0  0  0  0  0  0
   27.4429  -21.2404  -15.4819 C   0  0  1  0  0  0  0  0  0  0  0  0
   27.9209  -20.2923  -16.5632 C   0  0  0  0  0  0  0  0  0  0  0  0
   28.5951  -21.0670  -17.6144 C   0  0  0  0  0  0  0  0  0  0  0  0
   29.0041  -22.2153  -17.3902 O   0  0  0  0  0  0  0  0  0  0  0  0
   26.9607  -20.5244  -14.2929 C   0  0  0  0  0  0  0  0  0  0  0  0
   27.4025  -19.3206  -14.1804 O   0  0  0  0  0  0  0  0  0  0  0  0
   28.7783  -20.5148  -18.8694 O   0  0  0  0  0  0  0  0  0  0  0  0
   26.0999  -20.9863  -13.2958 N   0  0  0  0  0  0  0  0  0  0  0  0
   25.5878  -20.0837  -12.2610 C   0  0  1  0  0  0  0  0  0  0  0  0
   24.1761  -19.6581  -12.5605 C   0  0  0  0  0  0  0  0  0  0  0  0
   23.1963  -20.7726  -12.5683 C   0  0  0  0  0  0  0  0  0  0  0  0
   22.3348  -20.6678  -13.7644 C   0  0  0  0  0  0  0  0  0  0  0  0
   22.3473  -19.6009  -14.4194 O   0  0  0  0  0  0  0  0  0  0  0  0
   25.6967  -20.7421  -10.9269 C   0  0  0  0  0  0  0  0  0  0  0  0
   25.5163  -22.0039  -10.8241 O   0  0  0  0  0  0  0  0  0  0  0  0
   21.5049  -21.6856  -14.2126 O   0  0  0  0  0  0  0  0  0  0  0  0
   29.0346  -20.6852   -7.6407 C   0  0  0  0  0  0  0  0  0  0  0  0
   28.0588  -19.5755   -7.6178 C   0  0  2  0  0  0  0  0  0  0  0  0
   28.5401  -18.5240   -6.5880 C   0  0  0  0  0  0  0  0  0  0  0  0
   26.6331  -19.8595   -7.4247 C   0  0  0  0  0  0  0  0  0  0  0  0
   25.8553  -20.6513   -8.3887 C   0  0  2  0  0  0  0  0  0  0  0  0
   25.9914  -20.0513   -9.7469 N   0  0  0  0  0  0  0  0  0  0  0  0
   24.4428  -20.9095   -8.1464 C   0  0  0  0  0  0  0  0  0  0  0  0
   23.9173  -21.7561   -7.1915 O   0  0  0  0  0  0  0  0  0  0  0  0
   23.5790  -20.2965   -8.8954 O   0  0  0  0  0  0  0  0  0  0  0  0
  2  1  1  6
  2  3  1  0
  3  4  1  0
  4  8  1  0
  5  4  2  0
  6  7  2  0
  6  2  1  0
  9  6  1  0
 10  9  1  0
 10 11  1  6
 12 13  1  0
 12 11  1  0
 13 14  2  0
 15 10  1  0
 16 15  2  0
 17 13  1  0
 19 18  1  1
 19 21  1  0
 20 19  1  0
 22 21  1  1
 22 24  1  0
 22 23  1  0
 23 15  1  0
 24 25  1  0
 26 24  2  0
M  END
$$$$
