DEL.pdb
     RDKit          3D

 26 25  0  0  1  0  0  0  0  0999 V2000
   26.8544  -20.4081  -18.6595 N   0  0  0  0  0  0  0  0  0  0  0  0
   27.0693  -19.4741  -17.6079 C   0  0  1  0  0  0  0  0  0  0  0  0
   27.7925  -18.2374  -18.1021 C   0  0  0  0  0  0  0  0  0  0  0  0
   29.0659  -18.6411  -18.7147 C   0  0  0  0  0  0  0  0  0  0  0  0
   29.3648  -19.8391  -18.8214 O   0  0  0  0  0  0  0  0  0  0  0  0
   25.9029  -19.1383  -16.7800 C   0  0  0  0  0  0  0  0  0  0  0  0
   26.0907  -18.1574  -15.9678 O   0  0  0  0  0  0  0  0  0  0  0  0
   29.9445  -17.6789  -19.1791 O   0  0  0  0  0  0  0  0  0  0  0  0
   24.6452  -19.7440  -16.7723 N   0  0  0  0  0  0  0  0  0  0  0  0
   23.5675  -19.2384  -15.9175 C   0  0  1  0  0  0  0  0  0  0  0  0
   22.3445  -18.9011  -16.7263 C   0  0  0  0  0  0  0  0  0  0  0  0
   22.4736  -17.6609  -17.5309 C   0  0  0  0  0  0  0  0  0  0  0  0
   21.6926  -16.5765  -16.9002 C   0  0  0  0  0  0  0  0  0  0  0  0
   20.4554  -16.7236  -16.7768 O   0  0  0  0  0  0  0  0  0  0  0  0
   23.2679  -20.2368  -14.8504 C   0  0  0  0  0  0  0  0  0  0  0  0
   23.1131  -21.4684  -15.1575 O   0  0  0  0  0  0  0  0  0  0  0  0
   22.2476  -15.3943  -16.4312 O   0  0  0  0  0  0  0  0  0  0  0  0
   25.8751  -21.6515  -11.6095 C   0  0  0  0  0  0  0  0  0  0  0  0
   25.0624  -20.4809  -11.2177 C   0  0  2  0  0  0  0  0  0  0  0  0
   25.5655  -19.9760   -9.8430 C   0  0  0  0  0  0  0  0  0  0  0  0
   23.5989  -20.5733  -11.2198 C   0  0  0  0  0  0  0  0  0  0  0  0
   22.8374  -20.9049  -12.4329 C   0  0  2  0  0  0  0  0  0  0  0  0
   23.1414  -19.9059  -13.4973 N   0  0  0  0  0  0  0  0  0  0  0  0
   21.3921  -21.0675  -12.3629 C   0  0  0  0  0  0  0  0  0  0  0  0
   20.7141  -22.1996  -11.9584 O   0  0  0  0  0  0  0  0  0  0  0  0
   20.6527  -20.0620  -12.7165 O   0  0  0  0  0  0  0  0  0  0  0  0
  2  1  1  6
  2  3  1  0
  3  4  1  0
  4  8  1  0
  5  4  2  0
  6  7  2  0
  6  2  1  0
  9  6  1  0
 10  9  1  0
 10 11  1  6
 12 13  1  0
 12 11  1  0
 13 14  2  0
 15 10  1  0
 16 15  2  0
 17 13  1  0
 19 18  1  1
 19 21  1  0
 20 19  1  0
 22 21  1  1
 22 24  1  0
 22 23  1  0
 23 15  1  0
 24 25  1  0
 26 24  2  0
M  END
$$$$
