DEL.pdb
     RDKit          3D

 26 25  0  0  1  0  0  0  0  0999 V2000
   21.4003  -12.5037  -17.9268 N   0  0  0  0  0  0  0  0  0  0  0  0
   21.0807  -11.1988  -18.3954 C   0  0  1  0  0  0  0  0  0  0  0  0
   19.6552  -11.1248  -18.9046 C   0  0  0  0  0  0  0  0  0  0  0  0
   19.5002  -12.0582  -20.0291 C   0  0  0  0  0  0  0  0  0  0  0  0
   18.3753  -12.4331  -20.3896 O   0  0  0  0  0  0  0  0  0  0  0  0
   21.4056  -10.0815  -17.4982 C   0  0  0  0  0  0  0  0  0  0  0  0
   21.0880  -10.2779  -16.2663 O   0  0  0  0  0  0  0  0  0  0  0  0
   20.6175  -12.5270  -20.6965 O   0  0  0  0  0  0  0  0  0  0  0  0
   22.0043   -8.8619  -17.8184 N   0  0  0  0  0  0  0  0  0  0  0  0
   22.1895   -7.8208  -16.8037 C   0  0  1  0  0  0  0  0  0  0  0  0
   23.5188   -7.1346  -16.9648 C   0  0  0  0  0  0  0  0  0  0  0  0
   23.7461   -6.0225  -16.0088 C   0  0  0  0  0  0  0  0  0  0  0  0
   25.0718   -5.4184  -16.2563 C   0  0  0  0  0  0  0  0  0  0  0  0
   25.1236   -4.2419  -16.6813 O   0  0  0  0  0  0  0  0  0  0  0  0
   21.0554   -6.8540  -16.8689 C   0  0  0  0  0  0  0  0  0  0  0  0
   20.8406   -6.1977  -17.9451 O   0  0  0  0  0  0  0  0  0  0  0  0
   26.2746   -6.0775  -16.0458 O   0  0  0  0  0  0  0  0  0  0  0  0
   15.2724   -6.3740  -15.2443 C   0  0  0  0  0  0  0  0  0  0  0  0
   16.4929   -5.6637  -15.6803 C   0  0  2  0  0  0  0  0  0  0  0  0
   16.2330   -5.0637  -17.0839 C   0  0  0  0  0  0  0  0  0  0  0  0
   17.7878   -6.3515  -15.6541 C   0  0  0  0  0  0  0  0  0  0  0  0
   19.0565   -5.6396  -15.8660 C   0  0  2  0  0  0  0  0  0  0  0  0
   20.1864   -6.6104  -15.8003 N   0  0  0  0  0  0  0  0  0  0  0  0
   19.3950   -4.4929  -15.0348 C   0  0  0  0  0  0  0  0  0  0  0  0
   19.1461   -3.1673  -15.3279 O   0  0  0  0  0  0  0  0  0  0  0  0
   19.9943   -4.7196  -13.9069 O   0  0  0  0  0  0  0  0  0  0  0  0
  2  1  1  1
  2  3  1  0
  3  4  1  0
  4  8  1  0
  5  4  2  0
  6  7  2  0
  6  2  1  0
  9  6  1  0
 10  9  1  0
 10 11  1  6
 12 13  1  0
 12 11  1  0
 13 14  2  0
 15 10  1  0
 16 15  2  0
 17 13  1  0
 19 18  1  6
 19 21  1  0
 20 19  1  0
 22 21  1  1
 22 24  1  0
 22 23  1  0
 23 15  1  0
 24 25  1  0
 26 24  2  0
M  END
$$$$
