DEL.pdb
     RDKit          3D

 26 25  0  0  1  0  0  0  0  0999 V2000
   17.7351  -12.2214  -17.9415 N   0  0  0  0  0  0  0  0  0  0  0  0
   18.4278  -11.7607  -16.7872 C   0  0  1  0  0  0  0  0  0  0  0  0
   19.7520  -12.4764  -16.6111 C   0  0  0  0  0  0  0  0  0  0  0  0
   19.4937  -13.8791  -16.2570 C   0  0  0  0  0  0  0  0  0  0  0  0
   18.7794  -14.1651  -15.2854 O   0  0  0  0  0  0  0  0  0  0  0  0
   18.5628  -10.3050  -16.6404 C   0  0  0  0  0  0  0  0  0  0  0  0
   18.8320   -9.6819  -17.7342 O   0  0  0  0  0  0  0  0  0  0  0  0
   20.0506  -14.8957  -17.0119 O   0  0  0  0  0  0  0  0  0  0  0  0
   18.4357   -9.5377  -15.4812 N   0  0  0  0  0  0  0  0  0  0  0  0
   18.3950   -8.0741  -15.5438 C   0  0  1  0  0  0  0  0  0  0  0  0
   17.2834   -7.5239  -14.6920 C   0  0  0  0  0  0  0  0  0  0  0  0
   15.9361   -8.0301  -15.0535 C   0  0  0  0  0  0  0  0  0  0  0  0
   15.2426   -8.5068  -13.8388 C   0  0  0  0  0  0  0  0  0  0  0  0
   14.3537   -9.3800  -13.9608 O   0  0  0  0  0  0  0  0  0  0  0  0
   19.7225   -7.5212  -15.1469 C   0  0  0  0  0  0  0  0  0  0  0  0
   20.3698   -8.0535  -14.1812 O   0  0  0  0  0  0  0  0  0  0  0  0
   15.5158   -8.0445  -12.5593 O   0  0  0  0  0  0  0  0  0  0  0  0
   23.8750   -3.3741  -17.3466 C   0  0  0  0  0  0  0  0  0  0  0  0
   23.4719   -4.3403  -16.3035 C   0  0  2  0  0  0  0  0  0  0  0  0
   24.6602   -5.2975  -16.0397 C   0  0  0  0  0  0  0  0  0  0  0  0
   22.2291   -5.1038  -16.4552 C   0  0  0  0  0  0  0  0  0  0  0  0
   21.6153   -5.8306  -15.3343 C   0  0  2  0  0  0  0  0  0  0  0  0
   20.3234   -6.4277  -15.7791 N   0  0  0  0  0  0  0  0  0  0  0  0
   21.3890   -5.1538  -14.0651 C   0  0  0  0  0  0  0  0  0  0  0  0
   20.1956   -4.6194  -13.6236 O   0  0  0  0  0  0  0  0  0  0  0  0
   22.3978   -5.0265  -13.2595 O   0  0  0  0  0  0  0  0  0  0  0  0
  2  1  1  6
  2  3  1  0
  3  4  1  0
  4  8  1  0
  5  4  2  0
  6  7  2  0
  6  2  1  0
  9  6  1  0
 10  9  1  0
 10 11  1  1
 12 13  1  0
 12 11  1  0
 13 14  2  0
 15 10  1  0
 16 15  2  0
 17 13  1  0
 19 18  1  6
 19 21  1  0
 20 19  1  0
 22 21  1  6
 22 24  1  0
 22 23  1  0
 23 15  1  0
 24 25  1  0
 26 24  2  0
M  END
$$$$
