DEL.pdb
     RDKit          3D

 26 25  0  0  1  0  0  0  0  0999 V2000
   17.3267  -12.5034  -17.8330 N   0  0  0  0  0  0  0  0  0  0  0  0
   17.3492  -11.8441  -16.5723 C   0  0  1  0  0  0  0  0  0  0  0  0
   17.9694  -12.7168  -15.4997 C   0  0  0  0  0  0  0  0  0  0  0  0
   17.0133  -13.7691  -15.1277 C   0  0  0  0  0  0  0  0  0  0  0  0
   16.6193  -14.5913  -15.9672 O   0  0  0  0  0  0  0  0  0  0  0  0
   17.8916  -10.4787  -16.5555 C   0  0  0  0  0  0  0  0  0  0  0  0
   19.0735  -10.3688  -17.0537 O   0  0  0  0  0  0  0  0  0  0  0  0
   16.5444  -13.8483  -13.8287 O   0  0  0  0  0  0  0  0  0  0  0  0
   17.2889   -9.3151  -16.0743 N   0  0  0  0  0  0  0  0  0  0  0  0
   17.9706   -8.0205  -16.1571 C   0  0  1  0  0  0  0  0  0  0  0  0
   17.0169   -6.8860  -15.8979 C   0  0  0  0  0  0  0  0  0  0  0  0
   17.6545   -5.5460  -15.9012 C   0  0  0  0  0  0  0  0  0  0  0  0
   16.6430   -4.5143  -15.5909 C   0  0  0  0  0  0  0  0  0  0  0  0
   16.5870   -4.0626  -14.4246 O   0  0  0  0  0  0  0  0  0  0  0  0
   19.1231   -8.0026  -15.2101 C   0  0  0  0  0  0  0  0  0  0  0  0
   19.0252   -8.5899  -14.0785 O   0  0  0  0  0  0  0  0  0  0  0  0
   15.7425   -4.0092  -16.5180 O   0  0  0  0  0  0  0  0  0  0  0  0
   24.7423   -8.2038  -14.6875 C   0  0  0  0  0  0  0  0  0  0  0  0
   23.5656   -9.0089  -14.2983 C   0  0  2  0  0  0  0  0  0  0  0  0
   23.9135  -10.5056  -14.4901 C   0  0  0  0  0  0  0  0  0  0  0  0
   22.2528   -8.7142  -14.8816 C   0  0  0  0  0  0  0  0  0  0  0  0
   21.5339   -7.4633  -14.5992 C   0  0  2  0  0  0  0  0  0  0  0  0
   20.3387   -7.3678  -15.4856 N   0  0  0  0  0  0  0  0  0  0  0  0
   22.2399   -6.1908  -14.6512 C   0  0  0  0  0  0  0  0  0  0  0  0
   23.0058   -5.6378  -13.6450 O   0  0  0  0  0  0  0  0  0  0  0  0
   22.1471   -5.4920  -15.7401 O   0  0  0  0  0  0  0  0  0  0  0  0
  2  1  1  6
  2  3  1  0
  3  4  1  0
  4  8  1  0
  5  4  2  0
  6  7  2  0
  6  2  1  0
  9  6  1  0
 10  9  1  0
 10 11  1  1
 12 13  1  0
 12 11  1  0
 13 14  2  0
 15 10  1  0
 16 15  2  0
 17 13  1  0
 19 18  1  6
 19 21  1  0
 20 19  1  0
 22 21  1  6
 22 24  1  0
 22 23  1  0
 23 15  1  0
 24 25  1  0
 26 24  2  0
M  END
$$$$
