DEL.pdb
     RDKit          3D

 26 25  0  0  1  0  0  0  0  0999 V2000
   17.8370  -14.0674  -17.9984 N   0  0  0  0  0  0  0  0  0  0  0  0
   17.4425  -12.7483  -17.6396 C   0  0  1  0  0  0  0  0  0  0  0  0
   16.7588  -12.7212  -16.2873 C   0  0  0  0  0  0  0  0  0  0  0  0
   15.5041  -13.4816  -16.3707 C   0  0  0  0  0  0  0  0  0  0  0  0
   15.4133  -14.6098  -15.8656 O   0  0  0  0  0  0  0  0  0  0  0  0
   18.4657  -11.7011  -17.7625 C   0  0  0  0  0  0  0  0  0  0  0  0
   19.6527  -12.0748  -17.4331 O   0  0  0  0  0  0  0  0  0  0  0  0
   14.4090  -12.9384  -17.0182 O   0  0  0  0  0  0  0  0  0  0  0  0
   18.3044  -10.3804  -18.1850 N   0  0  0  0  0  0  0  0  0  0  0  0
   19.4604   -9.4986  -18.3685 C   0  0  1  0  0  0  0  0  0  0  0  0
   19.1783   -8.4393  -19.3991 C   0  0  0  0  0  0  0  0  0  0  0  0
   20.3270   -7.5411  -19.6746 C   0  0  0  0  0  0  0  0  0  0  0  0
   19.9521   -6.5606  -20.7145 C   0  0  0  0  0  0  0  0  0  0  0  0
   19.1465   -5.6499  -20.4160 O   0  0  0  0  0  0  0  0  0  0  0  0
   19.8479   -8.9052  -17.0559 C   0  0  0  0  0  0  0  0  0  0  0  0
   18.9486   -8.6497  -16.1835 O   0  0  0  0  0  0  0  0  0  0  0  0
   20.4401   -6.5844  -22.0133 O   0  0  0  0  0  0  0  0  0  0  0  0
   21.8063  -10.6603  -13.5661 C   0  0  0  0  0  0  0  0  0  0  0  0
   22.7904  -10.1407  -14.5386 C   0  0  2  0  0  0  0  0  0  0  0  0
   24.2061  -10.5587  -14.0706 C   0  0  0  0  0  0  0  0  0  0  0  0
   22.7759   -8.7210  -14.9058 C   0  0  0  0  0  0  0  0  0  0  0  0
   21.5574   -8.0471  -15.3773 C   0  0  2  0  0  0  0  0  0  0  0  0
   21.1675   -8.6008  -16.7058 N   0  0  0  0  0  0  0  0  0  0  0  0
   21.5159   -6.5940  -15.4618 C   0  0  0  0  0  0  0  0  0  0  0  0
   21.4065   -5.7152  -14.4032 O   0  0  0  0  0  0  0  0  0  0  0  0
   21.5819   -6.0547  -16.6397 O   0  0  0  0  0  0  0  0  0  0  0  0
  2  1  1  1
  2  3  1  0
  3  4  1  0
  4  8  1  0
  5  4  2  0
  6  7  2  0
  6  2  1  0
  9  6  1  0
 10  9  1  0
 10 11  1  6
 12 13  1  0
 12 11  1  0
 13 14  2  0
 15 10  1  0
 16 15  2  0
 17 13  1  0
 19 18  1  1
 19 21  1  0
 20 19  1  0
 22 21  1  6
 22 24  1  0
 22 23  1  0
 23 15  1  0
 24 25  1  0
 26 24  2  0
M  END
$$$$
