DEL.pdb
     RDKit          3D

 26 25  0  0  1  0  0  0  0  0999 V2000
   19.1265  -10.9545  -15.2534 N   0  0  0  0  0  0  0  0  0  0  0  0
   18.1191  -10.0057  -14.9225 C   0  0  1  0  0  0  0  0  0  0  0  0
   16.7358  -10.6224  -14.9764 C   0  0  0  0  0  0  0  0  0  0  0  0
   16.2326  -10.5478  -16.3552 C   0  0  0  0  0  0  0  0  0  0  0  0
   16.9303  -10.0638  -17.2579 O   0  0  0  0  0  0  0  0  0  0  0  0
   18.3292   -9.2267  -13.6947 C   0  0  0  0  0  0  0  0  0  0  0  0
   18.6038   -9.9346  -12.6551 O   0  0  0  0  0  0  0  0  0  0  0  0
   14.9679  -11.0212  -16.6553 O   0  0  0  0  0  0  0  0  0  0  0  0
   18.2677   -7.8421  -13.5284 N   0  0  0  0  0  0  0  0  0  0  0  0
   18.5026   -7.2264  -12.2194 C   0  0  1  0  0  0  0  0  0  0  0  0
   19.4644   -6.0742  -12.3248 C   0  0  0  0  0  0  0  0  0  0  0  0
   20.8842   -6.4816  -12.4679 C   0  0  0  0  0  0  0  0  0  0  0  0
   21.7511   -5.2860  -12.4171 C   0  0  0  0  0  0  0  0  0  0  0  0
   22.9034   -5.4019  -11.9415 O   0  0  0  0  0  0  0  0  0  0  0  0
   17.2001   -6.8081  -11.6245 C   0  0  0  0  0  0  0  0  0  0  0  0
   16.2690   -6.3650  -12.3807 O   0  0  0  0  0  0  0  0  0  0  0  0
   21.3666   -4.0309  -12.8670 O   0  0  0  0  0  0  0  0  0  0  0  0
   13.5565   -8.2203   -6.8789 C   0  0  0  0  0  0  0  0  0  0  0  0
   13.8896   -7.2952   -7.9823 C   0  0  2  0  0  0  0  0  0  0  0  0
   12.7343   -7.3292   -9.0129 C   0  0  0  0  0  0  0  0  0  0  0  0
   15.1824   -7.4072   -8.6652 C   0  0  0  0  0  0  0  0  0  0  0  0
   15.6306   -6.4210   -9.6590 C   0  0  2  0  0  0  0  0  0  0  0  0
   16.9216   -6.8698  -10.2552 N   0  0  0  0  0  0  0  0  0  0  0  0
   15.7668   -5.0206   -9.2841 C   0  0  0  0  0  0  0  0  0  0  0  0
   16.9428   -4.3646   -8.9817 O   0  0  0  0  0  0  0  0  0  0  0  0
   14.6870   -4.3048   -9.2175 O   0  0  0  0  0  0  0  0  0  0  0  0
  2  1  1  1
  2  3  1  0
  3  4  1  0
  4  8  1  0
  5  4  2  0
  6  7  2  0
  6  2  1  0
  9  6  1  0
 10  9  1  0
 10 11  1  6
 12 13  1  0
 12 11  1  0
 13 14  2  0
 15 10  1  0
 16 15  2  0
 17 13  1  0
 19 18  1  1
 19 21  1  0
 20 19  1  0
 22 21  1  1
 22 24  1  0
 22 23  1  0
 23 15  1  0
 24 25  1  0
 26 24  2  0
M  END
$$$$
