DEL.pdb
     RDKit          3D

 26 25  0  0  1  0  0  0  0  0999 V2000
   16.6025  -13.8361  -17.6759 N   0  0  0  0  0  0  0  0  0  0  0  0
   16.6892  -13.1132  -16.4535 C   0  0  1  0  0  0  0  0  0  0  0  0
   17.4983  -13.8679  -15.4178 C   0  0  0  0  0  0  0  0  0  0  0  0
   16.8167  -15.1323  -15.1072 C   0  0  0  0  0  0  0  0  0  0  0  0
   15.6440  -15.1369  -14.7059 O   0  0  0  0  0  0  0  0  0  0  0  0
   17.0943  -11.7043  -16.5516 C   0  0  0  0  0  0  0  0  0  0  0  0
   17.9394  -11.4571  -17.4905 O   0  0  0  0  0  0  0  0  0  0  0  0
   17.4850  -16.3335  -15.2623 O   0  0  0  0  0  0  0  0  0  0  0  0
   16.6790  -10.6288  -15.7645 N   0  0  0  0  0  0  0  0  0  0  0  0
   17.2706   -9.2982  -15.9292 C   0  0  1  0  0  0  0  0  0  0  0  0
   16.2737   -8.2166  -15.6128 C   0  0  0  0  0  0  0  0  0  0  0  0
   15.1475   -8.1305  -16.5753 C   0  0  0  0  0  0  0  0  0  0  0  0
   14.0580   -7.3195  -15.9932 C   0  0  0  0  0  0  0  0  0  0  0  0
   14.2226   -6.8246  -14.8550 O   0  0  0  0  0  0  0  0  0  0  0  0
   18.4942   -9.1886  -15.0830 C   0  0  0  0  0  0  0  0  0  0  0  0
   18.7026  -10.0414  -14.1533 O   0  0  0  0  0  0  0  0  0  0  0  0
   12.8525   -7.0686  -16.6331 O   0  0  0  0  0  0  0  0  0  0  0  0
   23.5824  -10.9043  -15.2080 C   0  0  0  0  0  0  0  0  0  0  0  0
   22.8059   -9.8582  -14.5102 C   0  0  2  0  0  0  0  0  0  0  0  0
   22.7748  -10.1995  -13.0001 C   0  0  0  0  0  0  0  0  0  0  0  0
   21.4609   -9.5106  -14.9798 C   0  0  0  0  0  0  0  0  0  0  0  0
   20.8108   -8.2414  -14.6221 C   0  0  2  0  0  0  0  0  0  0  0  0
   19.4564   -8.1861  -15.2433 N   0  0  0  0  0  0  0  0  0  0  0  0
   21.4843   -6.9784  -14.8895 C   0  0  0  0  0  0  0  0  0  0  0  0
   22.2575   -6.2587  -14.0012 O   0  0  0  0  0  0  0  0  0  0  0  0
   21.3516   -6.4608  -16.0716 O   0  0  0  0  0  0  0  0  0  0  0  0
  2  1  1  6
  2  3  1  0
  3  4  1  0
  4  8  1  0
  5  4  2  0
  6  7  2  0
  6  2  1  0
  9  6  1  0
 10  9  1  0
 10 11  1  1
 12 13  1  0
 12 11  1  0
 13 14  2  0
 15 10  1  0
 16 15  2  0
 17 13  1  0
 19 18  1  6
 19 21  1  0
 20 19  1  0
 22 21  1  6
 22 24  1  0
 22 23  1  0
 23 15  1  0
 24 25  1  0
 26 24  2  0
M  END
$$$$
