DEL.pdb
     RDKit          3D

 26 25  0  0  1  0  0  0  0  0999 V2000
   15.7958  -10.2938  -16.2783 N   0  0  0  0  0  0  0  0  0  0  0  0
   16.0304   -8.8928  -16.3602 C   0  0  1  0  0  0  0  0  0  0  0  0
   14.8340   -8.0996  -15.8742 C   0  0  0  0  0  0  0  0  0  0  0  0
   13.8325   -8.0390  -16.9480 C   0  0  0  0  0  0  0  0  0  0  0  0
   14.1812   -7.9993  -18.1367 O   0  0  0  0  0  0  0  0  0  0  0  0
   17.2895   -8.4035  -15.7822 C   0  0  0  0  0  0  0  0  0  0  0  0
   17.3084   -8.3728  -14.4954 O   0  0  0  0  0  0  0  0  0  0  0  0
   12.4850   -8.0257  -16.6357 O   0  0  0  0  0  0  0  0  0  0  0  0
   18.4395   -7.9788  -16.4497 N   0  0  0  0  0  0  0  0  0  0  0  0
   19.6325   -7.5594  -15.7090 C   0  0  1  0  0  0  0  0  0  0  0  0
   20.8629   -8.2601  -16.2178 C   0  0  0  0  0  0  0  0  0  0  0  0
   22.1199   -7.8369  -15.5521 C   0  0  0  0  0  0  0  0  0  0  0  0
   23.2637   -8.5598  -16.1459 C   0  0  0  0  0  0  0  0  0  0  0  0
   24.1784   -7.8948  -16.6831 O   0  0  0  0  0  0  0  0  0  0  0  0
   19.7693   -6.0758  -15.7834 C   0  0  0  0  0  0  0  0  0  0  0  0
   19.6962   -5.4866  -16.9159 O   0  0  0  0  0  0  0  0  0  0  0  0
   23.3906   -9.9416  -16.1463 O   0  0  0  0  0  0  0  0  0  0  0  0
   17.7607   -0.9397  -13.7240 C   0  0  0  0  0  0  0  0  0  0  0  0
   18.9165   -1.6121  -14.3533 C   0  0  2  0  0  0  0  0  0  0  0  0
   19.0838   -1.0538  -15.7880 C   0  0  0  0  0  0  0  0  0  0  0  0
   18.9921   -3.0765  -14.3666 C   0  0  0  0  0  0  0  0  0  0  0  0
   20.2168   -3.7935  -14.7505 C   0  0  2  0  0  0  0  0  0  0  0  0
   19.9783   -5.2629  -14.6645 N   0  0  0  0  0  0  0  0  0  0  0  0
   21.4740   -3.4979  -14.0778 C   0  0  0  0  0  0  0  0  0  0  0  0
   22.1083   -4.2905  -13.1428 O   0  0  0  0  0  0  0  0  0  0  0  0
   22.0680   -2.3822  -14.3695 O   0  0  0  0  0  0  0  0  0  0  0  0
  2  1  1  1
  2  3  1  0
  3  4  1  0
  4  8  1  0
  5  4  2  0
  6  7  2  0
  6  2  1  0
  9  6  1  0
 10  9  1  0
 10 11  1  6
 12 13  1  0
 12 11  1  0
 13 14  2  0
 15 10  1  0
 16 15  2  0
 17 13  1  0
 19 18  1  6
 19 21  1  0
 20 19  1  0
 22 21  1  1
 22 24  1  0
 22 23  1  0
 23 15  1  0
 24 25  1  0
 26 24  2  0
M  END
$$$$
