DEL.pdb
     RDKit          3D

 26 25  0  0  1  0  0  0  0  0999 V2000
   19.0805  -14.6687  -18.9274 N   0  0  0  0  0  0  0  0  0  0  0  0
   20.1948  -14.3018  -18.1224 C   0  0  1  0  0  0  0  0  0  0  0  0
   21.3084  -15.3256  -18.2149 C   0  0  0  0  0  0  0  0  0  0  0  0
   20.7645  -16.6534  -17.8974 C   0  0  0  0  0  0  0  0  0  0  0  0
   19.9449  -16.7983  -16.9791 O   0  0  0  0  0  0  0  0  0  0  0  0
   20.6927  -12.9283  -18.2781 C   0  0  0  0  0  0  0  0  0  0  0  0
   21.9599  -12.7969  -18.0935 O   0  0  0  0  0  0  0  0  0  0  0  0
   21.1674  -17.7573  -18.6273 O   0  0  0  0  0  0  0  0  0  0  0  0
   19.9693  -11.7774  -18.5956 N   0  0  0  0  0  0  0  0  0  0  0  0
   20.6326  -10.4760  -18.7148 C   0  0  1  0  0  0  0  0  0  0  0  0
   19.7910   -9.5064  -19.4992 C   0  0  0  0  0  0  0  0  0  0  0  0
   18.3836   -9.4147  -19.0377 C   0  0  0  0  0  0  0  0  0  0  0  0
   17.7334   -8.2414  -19.6576 C   0  0  0  0  0  0  0  0  0  0  0  0
   16.9830   -8.4241  -20.6430 O   0  0  0  0  0  0  0  0  0  0  0  0
   20.9558   -9.9550  -17.3549 C   0  0  0  0  0  0  0  0  0  0  0  0
   20.1463  -10.1603  -16.3865 O   0  0  0  0  0  0  0  0  0  0  0  0
   17.9026   -6.9377  -19.2136 O   0  0  0  0  0  0  0  0  0  0  0  0
   23.8305  -11.3250  -14.3231 C   0  0  0  0  0  0  0  0  0  0  0  0
   24.4250  -10.3912  -15.3023 C   0  0  2  0  0  0  0  0  0  0  0  0
   25.9551  -10.3481  -15.0683 C   0  0  0  0  0  0  0  0  0  0  0  0
   23.8928   -9.0309  -15.4315 C   0  0  0  0  0  0  0  0  0  0  0  0
   22.4692   -8.7685  -15.6882 C   0  0  2  0  0  0  0  0  0  0  0  0
   22.1187   -9.2359  -17.0601 N   0  0  0  0  0  0  0  0  0  0  0  0
   21.9345   -7.4251  -15.5163 C   0  0  0  0  0  0  0  0  0  0  0  0
   21.3747   -6.6347  -16.4996 O   0  0  0  0  0  0  0  0  0  0  0  0
   21.9854   -6.9012  -14.3307 O   0  0  0  0  0  0  0  0  0  0  0  0
  2  1  1  6
  2  3  1  0
  3  4  1  0
  4  8  1  0
  5  4  2  0
  6  7  2  0
  6  2  1  0
  9  6  1  0
 10  9  1  0
 10 11  1  1
 12 13  1  0
 12 11  1  0
 13 14  2  0
 15 10  1  0
 16 15  2  0
 17 13  1  0
 19 18  1  1
 19 21  1  0
 20 19  1  0
 22 21  1  6
 22 24  1  0
 22 23  1  0
 23 15  1  0
 24 25  1  0
 26 24  2  0
M  END
$$$$
