DEL.pdb
     RDKit          3D

 26 25  0  0  1  0  0  0  0  0999 V2000
   25.7647  -20.2891  -18.6724 N   0  0  0  0  0  0  0  0  0  0  0  0
   26.3886  -20.4503  -17.4038 C   0  0  1  0  0  0  0  0  0  0  0  0
   27.7744  -19.8371  -17.3841 C   0  0  0  0  0  0  0  0  0  0  0  0
   28.6560  -20.6199  -18.2613 C   0  0  0  0  0  0  0  0  0  0  0  0
   29.8707  -20.3793  -18.3151 O   0  0  0  0  0  0  0  0  0  0  0  0
   25.5962  -20.0628  -16.2288 C   0  0  0  0  0  0  0  0  0  0  0  0
   25.7813  -18.8504  -15.8377 O   0  0  0  0  0  0  0  0  0  0  0  0
   28.1313  -21.6375  -19.0377 O   0  0  0  0  0  0  0  0  0  0  0  0
   24.6878  -20.8372  -15.5052 N   0  0  0  0  0  0  0  0  0  0  0  0
   23.9028  -20.2579  -14.4117 C   0  0  1  0  0  0  0  0  0  0  0  0
   22.4281  -20.3369  -14.6995 C   0  0  0  0  0  0  0  0  0  0  0  0
   21.9878  -19.4967  -15.8407 C   0  0  0  0  0  0  0  0  0  0  0  0
   20.7847  -18.7293  -15.4570 C   0  0  0  0  0  0  0  0  0  0  0  0
   20.6786  -17.5458  -15.8515 O   0  0  0  0  0  0  0  0  0  0  0  0
   24.2545  -20.9376  -13.1312 C   0  0  0  0  0  0  0  0  0  0  0  0
   24.1967  -22.2125  -13.0515 O   0  0  0  0  0  0  0  0  0  0  0  0
   19.7551  -19.2408  -14.6800 O   0  0  0  0  0  0  0  0  0  0  0  0
   27.9323  -21.7976  -11.0070 C   0  0  0  0  0  0  0  0  0  0  0  0
   27.3831  -20.4748  -10.6427 C   0  0  2  0  0  0  0  0  0  0  0  0
   28.4360  -19.7283   -9.7872 C   0  0  0  0  0  0  0  0  0  0  0  0
   26.0604  -20.3796  -10.0166 C   0  0  0  0  0  0  0  0  0  0  0  0
   24.8508  -20.9159  -10.6573 C   0  0  2  0  0  0  0  0  0  0  0  0
   24.6548  -20.2535  -11.9788 N   0  0  0  0  0  0  0  0  0  0  0  0
   23.5803  -20.8942   -9.9463 C   0  0  0  0  0  0  0  0  0  0  0  0
   22.4262  -20.2550  -10.3514 O   0  0  0  0  0  0  0  0  0  0  0  0
   23.5087  -21.5281   -8.8168 O   0  0  0  0  0  0  0  0  0  0  0  0
  2  1  1  6
  2  3  1  0
  3  4  1  0
  4  8  1  0
  5  4  2  0
  6  7  2  0
  6  2  1  0
  9  6  1  0
 10  9  1  0
 10 11  1  6
 12 13  1  0
 12 11  1  0
 13 14  2  0
 15 10  1  0
 16 15  2  0
 17 13  1  0
 19 18  1  1
 19 21  1  0
 20 19  1  0
 22 21  1  1
 22 24  1  0
 22 23  1  0
 23 15  1  0
 24 25  1  0
 26 24  2  0
M  END
$$$$
