DEL.pdb
     RDKit          3D

 26 25  0  0  1  0  0  0  0  0999 V2000
   20.1805  -12.8102  -19.2730 N   0  0  0  0  0  0  0  0  0  0  0  0
   20.9304  -12.2098  -18.2234 C   0  0  1  0  0  0  0  0  0  0  0  0
   22.4072  -12.1509  -18.5587 C   0  0  0  0  0  0  0  0  0  0  0  0
   23.0123  -13.4617  -18.2841 C   0  0  0  0  0  0  0  0  0  0  0  0
   22.4486  -14.2748  -17.5376 O   0  0  0  0  0  0  0  0  0  0  0  0
   20.4291  -10.9280  -17.7090 C   0  0  0  0  0  0  0  0  0  0  0  0
   20.3522   -9.9935  -18.5910 O   0  0  0  0  0  0  0  0  0  0  0  0
   24.2235  -13.7979  -18.8616 O   0  0  0  0  0  0  0  0  0  0  0  0
   20.0358  -10.6136  -16.4070 N   0  0  0  0  0  0  0  0  0  0  0  0
   19.5419   -9.2760  -16.0685 C   0  0  1  0  0  0  0  0  0  0  0  0
   18.5074   -9.3382  -14.9777 C   0  0  0  0  0  0  0  0  0  0  0  0
   17.9614   -8.0155  -14.5846 C   0  0  0  0  0  0  0  0  0  0  0  0
   16.9920   -8.1863  -13.4825 C   0  0  0  0  0  0  0  0  0  0  0  0
   15.7788   -7.9831  -13.7156 O   0  0  0  0  0  0  0  0  0  0  0  0
   20.6902   -8.4008  -15.6936 C   0  0  0  0  0  0  0  0  0  0  0  0
   21.5677   -8.8234  -14.8651 O   0  0  0  0  0  0  0  0  0  0  0  0
   17.3432   -8.5610  -12.1934 O   0  0  0  0  0  0  0  0  0  0  0  0
   24.8575   -4.8523  -16.5078 C   0  0  0  0  0  0  0  0  0  0  0  0
   23.5323   -4.5177  -17.0698 C   0  0  2  0  0  0  0  0  0  0  0  0
   23.0234   -3.2261  -16.3837 C   0  0  0  0  0  0  0  0  0  0  0  0
   22.4720   -5.5305  -17.0951 C   0  0  0  0  0  0  0  0  0  0  0  0
   22.0668   -6.2694  -15.8905 C   0  0  2  0  0  0  0  0  0  0  0  0
   20.8764   -7.1114  -16.2028 N   0  0  0  0  0  0  0  0  0  0  0  0
   21.8023   -5.5519  -14.6513 C   0  0  0  0  0  0  0  0  0  0  0  0
   20.5623   -5.2970  -14.1015 O   0  0  0  0  0  0  0  0  0  0  0  0
   22.8194   -5.0955  -13.9881 O   0  0  0  0  0  0  0  0  0  0  0  0
  2  1  1  6
  2  3  1  0
  3  4  1  0
  4  8  1  0
  5  4  2  0
  6  7  2  0
  6  2  1  0
  9  6  1  0
 10  9  1  0
 10 11  1  1
 12 13  1  0
 12 11  1  0
 13 14  2  0
 15 10  1  0
 16 15  2  0
 17 13  1  0
 19 18  1  1
 19 21  1  0
 20 19  1  0
 22 21  1  6
 22 24  1  0
 22 23  1  0
 23 15  1  0
 24 25  1  0
 26 24  2  0
M  END
$$$$
