DAK.pdb
     RDKit          3D

 23 22  0  0  1  0  0  0  0  0999 V2000
    7.5730  -16.6744   16.9314 N   0  0  0  0  0  0  0  0  0  0  0  0
    8.8006  -17.0094   17.6203 C   0  0  1  0  0  0  0  0  0  0  0  0
    9.9721  -17.0889   16.6606 C   0  0  0  0  0  0  0  0  0  0  0  0
   10.0149  -18.4011   15.9766 C   0  0  0  0  0  0  0  0  0  0  0  0
    9.1952  -19.2874   16.2815 O   0  0  0  0  0  0  0  0  0  0  0  0
    9.0826  -16.0688   18.7322 C   0  0  0  0  0  0  0  0  0  0  0  0
   10.1501  -16.1604   19.3882 O   0  0  0  0  0  0  0  0  0  0  0  0
   10.9580  -18.6582   14.9975 O   0  0  0  0  0  0  0  0  0  0  0  0
    7.3526  -13.1638   20.4577 C   0  0  0  0  0  0  0  0  0  0  0  0
    8.3766  -14.2576   20.2727 C   0  0  2  0  0  0  0  0  0  0  0  0
    8.1743  -15.0389   19.1000 N   0  0  0  0  0  0  0  0  0  0  0  0
    8.4094  -15.0633   21.5199 C   0  0  0  0  0  0  0  0  0  0  0  0
    7.4446  -15.8324   21.7385 O   0  0  0  0  0  0  0  0  0  0  0  0
    9.4442  -15.0151   22.4567 N   0  0  0  0  0  0  0  0  0  0  0  0
    9.5268  -15.7599   23.6786 C   0  0  1  0  0  0  0  0  0  0  0  0
   10.7365  -16.5883   23.8519 C   0  0  0  0  0  0  0  0  0  0  0  0
   11.0674  -17.5362   22.7334 C   0  0  0  0  0  0  0  0  0  0  0  0
   12.3139  -18.3536   22.9647 C   0  0  0  0  0  0  0  0  0  0  0  0
   12.4274  -19.3646   21.8329 C   0  0  0  0  0  0  0  0  0  0  0  0
   13.6560  -20.1133   22.0697 N   0  0  0  0  0  0  0  0  0  0  0  0
    9.1830  -14.9119   24.8269 C   0  0  0  0  0  0  0  0  0  0  0  0
    9.0257  -13.6662   24.7607 O   0  0  0  0  0  0  0  0  0  0  0  0
    9.0151  -15.4964   26.0837 O   0  0  0  0  0  0  0  0  0  0  0  0
  2  1  1  6
  2  3  1  0
  3  4  1  0
  4  5  2  0
  6 11  1  0
  6  2  1  0
  7  6  2  0
  8  4  1  0
 10  9  1  1
 10 12  1  0
 10 11  1  0
 12 14  1  0
 13 12  2  0
 14 15  1  0
 15 21  1  0
 15 16  1  1
 16 17  1  0
 18 19  1  0
 18 17  1  0
 20 19  1  0
 21 23  1  0
 22 21  2  0
M  END
$$$$
