DAK.pdb
     RDKit          3D

 23 22  0  0  1  0  0  0  0  0999 V2000
    8.0976  -16.6718   18.0398 N   0  0  0  0  0  0  0  0  0  0  0  0
    9.1135  -17.4260   18.7418 C   0  0  1  0  0  0  0  0  0  0  0  0
   10.2625  -17.7976   17.8246 C   0  0  0  0  0  0  0  0  0  0  0  0
    9.7689  -18.4061   16.5686 C   0  0  0  0  0  0  0  0  0  0  0  0
    9.0379  -19.4132   16.6118 O   0  0  0  0  0  0  0  0  0  0  0  0
    9.6000  -16.7077   19.9450 C   0  0  0  0  0  0  0  0  0  0  0  0
   10.7940  -16.8256   20.3175 O   0  0  0  0  0  0  0  0  0  0  0  0
   10.1100  -17.8686   15.3401 O   0  0  0  0  0  0  0  0  0  0  0  0
    8.2298  -14.2875   22.5248 C   0  0  0  0  0  0  0  0  0  0  0  0
    9.2053  -15.2749   21.9309 C   0  0  2  0  0  0  0  0  0  0  0  0
    8.7528  -15.8678   20.7183 N   0  0  0  0  0  0  0  0  0  0  0  0
    9.5425  -16.2674   22.9828 C   0  0  0  0  0  0  0  0  0  0  0  0
    8.7293  -17.1998   23.1819 O   0  0  0  0  0  0  0  0  0  0  0  0
   10.7037  -16.2238   23.7578 N   0  0  0  0  0  0  0  0  0  0  0  0
   11.1159  -17.1875   24.7354 C   0  0  1  0  0  0  0  0  0  0  0  0
   12.4275  -17.8246   24.5043 C   0  0  0  0  0  0  0  0  0  0  0  0
   12.5218  -18.7625   23.3337 C   0  0  0  0  0  0  0  0  0  0  0  0
   13.8959  -19.3468   23.1192 C   0  0  0  0  0  0  0  0  0  0  0  0
   13.8462  -20.2134   21.8692 C   0  0  0  0  0  0  0  0  0  0  0  0
   15.1988  -20.7166   21.6616 N   0  0  0  0  0  0  0  0  0  0  0  0
   10.9052  -16.6709   26.0936 C   0  0  0  0  0  0  0  0  0  0  0  0
   10.5758  -15.4856   26.3532 O   0  0  0  0  0  0  0  0  0  0  0  0
   11.0749  -17.5251   27.1849 O   0  0  0  0  0  0  0  0  0  0  0  0
  2  1  1  6
  2  3  1  0
  3  4  1  0
  4  5  2  0
  6 11  1  0
  6  2  1  0
  7  6  2  0
  8  4  1  0
 10  9  1  1
 10 12  1  0
 10 11  1  0
 12 14  1  0
 13 12  2  0
 14 15  1  0
 15 21  1  0
 15 16  1  6
 16 17  1  0
 18 19  1  0
 18 17  1  0
 20 19  1  0
 21 23  1  0
 22 21  2  0
M  END
$$$$
