DAK.pdb
     RDKit          3D

 23 22  0  0  1  0  0  0  0  0999 V2000
    6.2067  -17.0114   26.6935 N   0  0  0  0  0  0  0  0  0  0  0  0
    6.8809  -17.9947   25.8737 C   0  0  1  0  0  0  0  0  0  0  0  0
    5.9793  -19.1751   25.5679 C   0  0  0  0  0  0  0  0  0  0  0  0
    6.7302  -20.4498   25.6222 C   0  0  0  0  0  0  0  0  0  0  0  0
    7.5641  -20.6413   26.5268 O   0  0  0  0  0  0  0  0  0  0  0  0
    7.4206  -17.3968   24.6280 C   0  0  0  0  0  0  0  0  0  0  0  0
    7.9274  -18.1261   23.7394 O   0  0  0  0  0  0  0  0  0  0  0  0
    6.5174  -21.4372   24.6767 O   0  0  0  0  0  0  0  0  0  0  0  0
    7.5976  -13.9871   22.9884 C   0  0  0  0  0  0  0  0  0  0  0  0
    7.9635  -15.4348   23.2109 C   0  0  2  0  0  0  0  0  0  0  0  0
    7.3899  -15.9962   24.3867 N   0  0  0  0  0  0  0  0  0  0  0  0
    9.4444  -15.5395   23.1693 C   0  0  0  0  0  0  0  0  0  0  0  0
   10.0937  -14.9249   24.0473 O   0  0  0  0  0  0  0  0  0  0  0  0
   10.1511  -16.2770   22.2167 N   0  0  0  0  0  0  0  0  0  0  0  0
   11.5760  -16.3585   22.0833 C   0  0  1  0  0  0  0  0  0  0  0  0
   12.1882  -17.6509   22.4500 C   0  0  0  0  0  0  0  0  0  0  0  0
   11.8962  -18.1643   23.8321 C   0  0  0  0  0  0  0  0  0  0  0  0
   12.4174  -19.5548   24.0976 C   0  0  0  0  0  0  0  0  0  0  0  0
   12.1017  -19.9047   25.5446 C   0  0  0  0  0  0  0  0  0  0  0  0
   12.5809  -21.2657   25.7544 N   0  0  0  0  0  0  0  0  0  0  0  0
   12.0080  -15.8089   20.7920 C   0  0  0  0  0  0  0  0  0  0  0  0
   13.1997  -15.5225   20.5115 O   0  0  0  0  0  0  0  0  0  0  0  0
   11.0589  -15.5779   19.7944 O   0  0  0  0  0  0  0  0  0  0  0  0
  2  1  1  6
  2  3  1  0
  3  4  1  0
  4  5  2  0
  6 11  1  0
  6  2  1  0
  7  6  2  0
  8  4  1  0
 10  9  1  1
 10 12  1  0
 10 11  1  0
 12 14  1  0
 13 12  2  0
 14 15  1  0
 15 21  1  0
 15 16  1  6
 16 17  1  0
 18 19  1  0
 18 17  1  0
 20 19  1  0
 21 23  1  0
 22 21  2  0
M  END
$$$$
