DAK.pdb
     RDKit          3D

 23 22  0  0  1  0  0  0  0  0999 V2000
    9.2898  -15.6225   20.7404 N   0  0  0  0  0  0  0  0  0  0  0  0
    8.2725  -15.9175   21.7262 C   0  0  1  0  0  0  0  0  0  0  0  0
    8.1478  -17.4097   21.9662 C   0  0  0  0  0  0  0  0  0  0  0  0
    7.6657  -18.1080   20.7532 C   0  0  0  0  0  0  0  0  0  0  0  0
    7.4802  -17.4686   19.7009 O   0  0  0  0  0  0  0  0  0  0  0  0
    8.5089  -15.1891   22.9966 C   0  0  0  0  0  0  0  0  0  0  0  0
    9.6353  -15.2262   23.5517 O   0  0  0  0  0  0  0  0  0  0  0  0
    7.4170  -19.4689   20.7719 O   0  0  0  0  0  0  0  0  0  0  0  0
    6.6134  -12.8296   25.2788 C   0  0  0  0  0  0  0  0  0  0  0  0
    7.7248  -13.7665   24.8712 C   0  0  2  0  0  0  0  0  0  0  0  0
    7.4900  -14.4290   23.6332 N   0  0  0  0  0  0  0  0  0  0  0  0
    7.9696  -14.6982   26.0015 C   0  0  0  0  0  0  0  0  0  0  0  0
    7.4543  -15.8384   25.9347 O   0  0  0  0  0  0  0  0  0  0  0  0
    8.7346  -14.3813   27.1263 N   0  0  0  0  0  0  0  0  0  0  0  0
    9.7038  -15.2217   27.7656 C   0  0  1  0  0  0  0  0  0  0  0  0
   10.7185  -15.8290   26.8818 C   0  0  0  0  0  0  0  0  0  0  0  0
   11.7244  -16.7339   27.5363 C   0  0  0  0  0  0  0  0  0  0  0  0
   11.3304  -18.1899   27.5478 C   0  0  0  0  0  0  0  0  0  0  0  0
   12.4098  -18.9612   28.2933 C   0  0  0  0  0  0  0  0  0  0  0  0
   11.9157  -20.3250   28.4408 N   0  0  0  0  0  0  0  0  0  0  0  0
   10.2356  -14.5749   28.9719 C   0  0  0  0  0  0  0  0  0  0  0  0
   10.5697  -13.3644   29.0331 O   0  0  0  0  0  0  0  0  0  0  0  0
   10.3925  -15.3257   30.1386 O   0  0  0  0  0  0  0  0  0  0  0  0
  2  1  1  6
  2  3  1  0
  3  4  1  0
  4  5  2  0
  6 11  1  0
  6  2  1  0
  7  6  2  0
  8  4  1  0
 10  9  1  1
 10 12  1  0
 10 11  1  0
 12 14  1  0
 13 12  2  0
 14 15  1  0
 15 21  1  0
 15 16  1  6
 16 17  1  0
 18 19  1  0
 18 17  1  0
 20 19  1  0
 21 23  1  0
 22 21  2  0
M  END
$$$$
