DAK.pdb
     RDKit          3D

 23 22  0  0  1  0  0  0  0  0999 V2000
    8.9733  -16.7650   16.8794 N   0  0  0  0  0  0  0  0  0  0  0  0
    9.9938  -15.7789   16.5969 C   0  0  1  0  0  0  0  0  0  0  0  0
   10.0457  -15.4407   15.1196 C   0  0  0  0  0  0  0  0  0  0  0  0
    8.9516  -16.1089   14.3793 C   0  0  0  0  0  0  0  0  0  0  0  0
    8.4582  -17.1641   14.8191 O   0  0  0  0  0  0  0  0  0  0  0  0
    9.8218  -14.5568   17.4200 C   0  0  0  0  0  0  0  0  0  0  0  0
   10.6754  -13.6360   17.3785 O   0  0  0  0  0  0  0  0  0  0  0  0
    8.4665  -15.5744   13.1989 O   0  0  0  0  0  0  0  0  0  0  0  0
    7.2142  -12.8208   19.4627 C   0  0  0  0  0  0  0  0  0  0  0  0
    8.6263  -13.2667   19.1688 C   0  0  2  0  0  0  0  0  0  0  0  0
    8.7031  -14.3745   18.2781 N   0  0  0  0  0  0  0  0  0  0  0  0
    9.3056  -13.5059   20.4676 C   0  0  0  0  0  0  0  0  0  0  0  0
    8.6960  -13.1724   21.5105 O   0  0  0  0  0  0  0  0  0  0  0  0
   10.5741  -14.0762   20.5949 N   0  0  0  0  0  0  0  0  0  0  0  0
   10.9694  -15.0802   21.5385 C   0  0  1  0  0  0  0  0  0  0  0  0
   10.1198  -16.2863   21.5954 C   0  0  0  0  0  0  0  0  0  0  0  0
   10.5645  -17.3777   22.5282 C   0  0  0  0  0  0  0  0  0  0  0  0
    9.7128  -18.6215   22.4746 C   0  0  0  0  0  0  0  0  0  0  0  0
   10.3415  -19.6594   23.3929 C   0  0  0  0  0  0  0  0  0  0  0  0
    9.3982  -20.7686   23.4694 N   0  0  0  0  0  0  0  0  0  0  0  0
   12.4120  -15.3384   21.4468 C   0  0  0  0  0  0  0  0  0  0  0  0
   13.0596  -15.3440   20.3691 O   0  0  0  0  0  0  0  0  0  0  0  0
   13.1362  -15.5984   22.6118 O   0  0  0  0  0  0  0  0  0  0  0  0
  2  1  1  6
  2  3  1  0
  3  4  1  0
  4  5  2  0
  6 11  1  0
  6  2  1  0
  7  6  2  0
  8  4  1  0
 10  9  1  1
 10 12  1  0
 10 11  1  0
 12 14  1  0
 13 12  2  0
 14 15  1  0
 15 21  1  0
 15 16  1  6
 16 17  1  0
 18 19  1  0
 18 17  1  0
 20 19  1  0
 21 23  1  0
 22 21  2  0
M  END
$$$$
