DAK.pdb
     RDKit          3D

 23 22  0  0  1  0  0  0  0  0999 V2000
    7.5948  -18.4289   18.8938 N   0  0  0  0  0  0  0  0  0  0  0  0
    8.3040  -17.1719   18.9984 C   0  0  1  0  0  0  0  0  0  0  0  0
    7.7514  -16.1405   18.0338 C   0  0  0  0  0  0  0  0  0  0  0  0
    7.9526  -16.5606   16.6287 C   0  0  0  0  0  0  0  0  0  0  0  0
    8.4822  -17.6594   16.3787 O   0  0  0  0  0  0  0  0  0  0  0  0
    8.3081  -16.6559   20.3892 C   0  0  0  0  0  0  0  0  0  0  0  0
    8.8629  -15.5618   20.6606 O   0  0  0  0  0  0  0  0  0  0  0  0
    7.5582  -15.7450   15.5829 O   0  0  0  0  0  0  0  0  0  0  0  0
    6.5205  -16.9380   23.5748 C   0  0  0  0  0  0  0  0  0  0  0  0
    7.8201  -16.9193   22.8068 C   0  0  2  0  0  0  0  0  0  0  0  0
    7.6955  -17.3627   21.4597 N   0  0  0  0  0  0  0  0  0  0  0  0
    8.8208  -17.6875   23.5904 C   0  0  0  0  0  0  0  0  0  0  0  0
    8.8679  -18.9271   23.4133 O   0  0  0  0  0  0  0  0  0  0  0  0
    9.7060  -17.1146   24.5063 N   0  0  0  0  0  0  0  0  0  0  0  0
   10.7309  -17.7929   25.2439 C   0  0  1  0  0  0  0  0  0  0  0  0
   12.0898  -17.2260   25.1364 C   0  0  0  0  0  0  0  0  0  0  0  0
   12.8160  -17.4630   23.8420 C   0  0  0  0  0  0  0  0  0  0  0  0
   12.9568  -16.2343   22.9785 C   0  0  0  0  0  0  0  0  0  0  0  0
   13.6837  -16.6385   21.7041 C   0  0  0  0  0  0  0  0  0  0  0  0
   13.7429  -15.4464   20.8666 N   0  0  0  0  0  0  0  0  0  0  0  0
   10.2818  -18.0786   26.6125 C   0  0  0  0  0  0  0  0  0  0  0  0
   10.8951  -18.8298   27.4128 O   0  0  0  0  0  0  0  0  0  0  0  0
    9.1035  -17.4953   27.0820 O   0  0  0  0  0  0  0  0  0  0  0  0
  2  1  1  1
  2  3  1  0
  3  4  1  0
  4  5  2  0
  6 11  1  0
  6  2  1  0
  7  6  2  0
  8  4  1  0
 10  9  1  1
 10 12  1  0
 10 11  1  0
 12 14  1  0
 13 12  2  0
 14 15  1  0
 15 21  1  0
 15 16  1  1
 16 17  1  0
 18 19  1  0
 18 17  1  0
 20 19  1  0
 21 23  1  0
 22 21  2  0
M  END
$$$$
