DAK.pdb
     RDKit          3D

 23 22  0  0  1  0  0  0  0  0999 V2000
    9.2650  -15.9448   15.1036 N   0  0  0  0  0  0  0  0  0  0  0  0
    8.2628  -16.0319   16.1437 C   0  0  1  0  0  0  0  0  0  0  0  0
    7.7429  -17.4482   16.2968 C   0  0  0  0  0  0  0  0  0  0  0  0
    7.0054  -17.8807   15.0883 C   0  0  0  0  0  0  0  0  0  0  0  0
    6.0998  -17.1635   14.6235 O   0  0  0  0  0  0  0  0  0  0  0  0
    8.7626  -15.5026   17.4361 C   0  0  0  0  0  0  0  0  0  0  0  0
    9.7910  -15.9898   17.9686 O   0  0  0  0  0  0  0  0  0  0  0  0
    7.3097  -19.0774   14.4641 O   0  0  0  0  0  0  0  0  0  0  0  0
    7.8278  -12.7667   19.8965 C   0  0  0  0  0  0  0  0  0  0  0  0
    8.6214  -13.9275   19.3470 C   0  0  2  0  0  0  0  0  0  0  0  0
    8.1129  -14.4388   18.1196 N   0  0  0  0  0  0  0  0  0  0  0  0
    8.7235  -14.9533   20.4161 C   0  0  0  0  0  0  0  0  0  0  0  0
    7.7984  -15.7941   20.5027 O   0  0  0  0  0  0  0  0  0  0  0  0
    9.7815  -15.0359   21.3241 N   0  0  0  0  0  0  0  0  0  0  0  0
   10.0147  -16.0855   22.2720 C   0  0  1  0  0  0  0  0  0  0  0  0
   11.3612  -16.6906   22.2506 C   0  0  0  0  0  0  0  0  0  0  0  0
   11.4828  -18.0356   21.5909 C   0  0  0  0  0  0  0  0  0  0  0  0
   12.8892  -18.5793   21.5509 C   0  0  0  0  0  0  0  0  0  0  0  0
   12.8522  -19.9210   20.8338 C   0  0  0  0  0  0  0  0  0  0  0  0
   14.2378  -20.3532   20.6946 N   0  0  0  0  0  0  0  0  0  0  0  0
    9.5260  -15.7007   23.6022 C   0  0  0  0  0  0  0  0  0  0  0  0
    9.5333  -16.4620   24.6028 O   0  0  0  0  0  0  0  0  0  0  0  0
    9.0146  -14.4165   23.7984 O   0  0  0  0  0  0  0  0  0  0  0  0
  2  1  1  6
  2  3  1  0
  3  4  1  0
  4  5  2  0
  6 11  1  0
  6  2  1  0
  7  6  2  0
  8  4  1  0
 10  9  1  1
 10 12  1  0
 10 11  1  0
 12 14  1  0
 13 12  2  0
 14 15  1  0
 15 21  1  0
 15 16  1  1
 16 17  1  0
 18 19  1  0
 18 17  1  0
 20 19  1  0
 21 23  1  0
 22 21  2  0
M  END
$$$$
