DAK.pdb
     RDKit          3D

 23 22  0  0  1  0  0  0  0  0999 V2000
   12.2167  -16.5551   15.6572 N   0  0  0  0  0  0  0  0  0  0  0  0
   13.3732  -16.0328   16.3526 C   0  0  1  0  0  0  0  0  0  0  0  0
   14.1910  -15.1182   15.4613 C   0  0  0  0  0  0  0  0  0  0  0  0
   14.5605  -15.7940   14.1970 C   0  0  0  0  0  0  0  0  0  0  0  0
   15.7310  -16.1790   14.0177 O   0  0  0  0  0  0  0  0  0  0  0  0
   12.9957  -15.3520   17.6153 C   0  0  0  0  0  0  0  0  0  0  0  0
   13.8779  -14.8552   18.3591 O   0  0  0  0  0  0  0  0  0  0  0  0
   13.6183  -16.0052   13.2060 O   0  0  0  0  0  0  0  0  0  0  0  0
    9.8432  -14.4014   19.4857 C   0  0  0  0  0  0  0  0  0  0  0  0
   11.3086  -14.7256   19.3222 C   0  0  2  0  0  0  0  0  0  0  0  0
   11.6426  -15.2324   18.0345 N   0  0  0  0  0  0  0  0  0  0  0  0
   11.6989  -15.6317   20.4322 C   0  0  0  0  0  0  0  0  0  0  0  0
   11.8424  -16.8475   20.1646 O   0  0  0  0  0  0  0  0  0  0  0  0
   11.9141  -15.2125   21.7470 N   0  0  0  0  0  0  0  0  0  0  0  0
   12.2182  -16.0473   22.8717 C   0  0  1  0  0  0  0  0  0  0  0  0
   11.2996  -15.9437   24.0228 C   0  0  0  0  0  0  0  0  0  0  0  0
   11.5506  -16.8828   25.1692 C   0  0  0  0  0  0  0  0  0  0  0  0
   10.6359  -16.6743   26.3503 C   0  0  0  0  0  0  0  0  0  0  0  0
   11.0722  -17.6266   27.4542 C   0  0  0  0  0  0  0  0  0  0  0  0
   10.2398  -17.3251   28.6127 N   0  0  0  0  0  0  0  0  0  0  0  0
   12.5172  -17.4170   22.4349 C   0  0  0  0  0  0  0  0  0  0  0  0
   11.6666  -18.2005   21.9414 O   0  0  0  0  0  0  0  0  0  0  0  0
   13.8177  -17.9083   22.5642 O   0  0  0  0  0  0  0  0  0  0  0  0
  2  1  1  6
  2  3  1  0
  3  4  1  0
  4  5  2  0
  6 11  1  0
  6  2  1  0
  7  6  2  0
  8  4  1  0
 10  9  1  6
 10 12  1  0
 10 11  1  0
 12 14  1  0
 13 12  2  0
 14 15  1  0
 15 21  1  0
 15 16  1  1
 16 17  1  0
 18 19  1  0
 18 17  1  0
 20 19  1  0
 21 23  1  0
 22 21  2  0
M  END
$$$$
