DAK.pdb
     RDKit          3D

 23 22  0  0  1  0  0  0  0  0999 V2000
   11.1084  -16.7240   19.5849 N   0  0  0  0  0  0  0  0  0  0  0  0
    9.8904  -16.9080   20.3442 C   0  0  1  0  0  0  0  0  0  0  0  0
    9.3244  -18.3023   20.1568 C   0  0  0  0  0  0  0  0  0  0  0  0
    8.8036  -18.4880   18.7835 C   0  0  0  0  0  0  0  0  0  0  0  0
    9.4599  -18.0747   17.8094 O   0  0  0  0  0  0  0  0  0  0  0  0
   10.0855  -16.5984   21.7817 C   0  0  0  0  0  0  0  0  0  0  0  0
   11.1592  -16.9028   22.3586 O   0  0  0  0  0  0  0  0  0  0  0  0
    7.5912  -19.1179   18.5657 O   0  0  0  0  0  0  0  0  0  0  0  0
    8.1921  -14.8257   24.5501 C   0  0  0  0  0  0  0  0  0  0  0  0
    9.2955  -15.6516   23.9339 C   0  0  2  0  0  0  0  0  0  0  0  0
    9.0844  -15.9544   22.5590 N   0  0  0  0  0  0  0  0  0  0  0  0
    9.4865  -16.8566   24.7807 C   0  0  0  0  0  0  0  0  0  0  0  0
    8.6356  -17.7717   24.6868 O   0  0  0  0  0  0  0  0  0  0  0  0
   10.5505  -17.0294   25.6689 N   0  0  0  0  0  0  0  0  0  0  0  0
   10.7550  -18.1392   26.5525 C   0  0  1  0  0  0  0  0  0  0  0  0
   11.8623  -19.0508   26.2024 C   0  0  0  0  0  0  0  0  0  0  0  0
   11.8351  -19.6407   24.8203 C   0  0  0  0  0  0  0  0  0  0  0  0
   13.0238  -20.5110   24.4964 C   0  0  0  0  0  0  0  0  0  0  0  0
   12.8497  -21.0323   23.0773 C   0  0  0  0  0  0  0  0  0  0  0  0
   14.0633  -21.7748   22.7583 N   0  0  0  0  0  0  0  0  0  0  0  0
   10.7307  -17.6982   27.9529 C   0  0  0  0  0  0  0  0  0  0  0  0
   10.6982  -18.4799   28.9372 O   0  0  0  0  0  0  0  0  0  0  0  0
   10.7423  -16.3321   28.2407 O   0  0  0  0  0  0  0  0  0  0  0  0
  2  1  1  6
  2  3  1  0
  3  4  1  0
  4  5  2  0
  6 11  1  0
  6  2  1  0
  7  6  2  0
  8  4  1  0
 10  9  1  1
 10 12  1  0
 10 11  1  0
 12 14  1  0
 13 12  2  0
 14 15  1  0
 15 21  1  0
 15 16  1  6
 16 17  1  0
 18 19  1  0
 18 17  1  0
 20 19  1  0
 21 23  1  0
 22 21  2  0
M  END
$$$$
