DAK.pdb
     RDKit          3D

 23 22  0  0  1  0  0  0  0  0999 V2000
    9.1572  -15.4358   14.8454 N   0  0  0  0  0  0  0  0  0  0  0  0
    8.3018  -15.7264   15.9756 C   0  0  1  0  0  0  0  0  0  0  0  0
    8.1104  -17.2197   16.1580 C   0  0  0  0  0  0  0  0  0  0  0  0
    7.2883  -17.7906   15.0673 C   0  0  0  0  0  0  0  0  0  0  0  0
    6.7650  -17.0378   14.2248 O   0  0  0  0  0  0  0  0  0  0  0  0
    8.8014  -15.0948   17.2214 C   0  0  0  0  0  0  0  0  0  0  0  0
   10.0155  -15.1763   17.5338 O   0  0  0  0  0  0  0  0  0  0  0  0
    7.0921  -19.1567   14.9699 O   0  0  0  0  0  0  0  0  0  0  0  0
    7.4454  -12.9193   20.0135 C   0  0  0  0  0  0  0  0  0  0  0  0
    8.4303  -13.8325   19.3241 C   0  0  2  0  0  0  0  0  0  0  0  0
    7.9449  -14.3810   18.1034 N   0  0  0  0  0  0  0  0  0  0  0  0
    8.8567  -14.8626   20.3052 C   0  0  0  0  0  0  0  0  0  0  0  0
    8.2063  -15.9331   20.3411 O   0  0  0  0  0  0  0  0  0  0  0  0
    9.9317  -14.7103   21.1838 N   0  0  0  0  0  0  0  0  0  0  0  0
   10.3329  -15.6261   22.2109 C   0  0  1  0  0  0  0  0  0  0  0  0
   11.7202  -15.4877   22.6966 C   0  0  0  0  0  0  0  0  0  0  0  0
   12.5067  -16.7589   22.8540 C   0  0  0  0  0  0  0  0  0  0  0  0
   13.9210  -16.5546   23.3370 C   0  0  0  0  0  0  0  0  0  0  0  0
   14.5955  -17.9173   23.4003 C   0  0  0  0  0  0  0  0  0  0  0  0
   15.9588  -17.6822   23.8610 N   0  0  0  0  0  0  0  0  0  0  0  0
    9.3104  -15.7070   23.2617 C   0  0  0  0  0  0  0  0  0  0  0  0
    8.4582  -14.8102   23.4858 O   0  0  0  0  0  0  0  0  0  0  0  0
    9.2573  -16.8373   24.0795 O   0  0  0  0  0  0  0  0  0  0  0  0
  2  1  1  6
  2  3  1  0
  3  4  1  0
  4  5  2  0
  6 11  1  0
  6  2  1  0
  7  6  2  0
  8  4  1  0
 10  9  1  1
 10 12  1  0
 10 11  1  0
 12 14  1  0
 13 12  2  0
 14 15  1  0
 15 21  1  0
 15 16  1  1
 16 17  1  0
 18 19  1  0
 18 17  1  0
 20 19  1  0
 21 23  1  0
 22 21  2  0
M  END
$$$$
