DAK.pdb
     RDKit          3D

 23 22  0  0  1  0  0  0  0  0999 V2000
   13.3525  -18.9136   19.0461 N   0  0  0  0  0  0  0  0  0  0  0  0
   13.7554  -17.6206   19.5554 C   0  0  1  0  0  0  0  0  0  0  0  0
   14.1252  -16.6717   18.4317 C   0  0  0  0  0  0  0  0  0  0  0  0
   15.3724  -17.0998   17.7589 C   0  0  0  0  0  0  0  0  0  0  0  0
   15.3153  -17.8227   16.7467 O   0  0  0  0  0  0  0  0  0  0  0  0
   12.7194  -17.0285   20.4367 C   0  0  0  0  0  0  0  0  0  0  0  0
   12.9256  -15.9317   21.0137 O   0  0  0  0  0  0  0  0  0  0  0  0
   16.6078  -16.7058   18.2414 O   0  0  0  0  0  0  0  0  0  0  0  0
    9.1771  -17.8147   21.5383 C   0  0  0  0  0  0  0  0  0  0  0  0
   10.5163  -17.1187   21.5726 C   0  0  2  0  0  0  0  0  0  0  0  0
   11.4681  -17.6633   20.6648 N   0  0  0  0  0  0  0  0  0  0  0  0
   10.9849  -17.1069   22.9818 C   0  0  0  0  0  0  0  0  0  0  0  0
   11.9699  -17.8255   23.2710 O   0  0  0  0  0  0  0  0  0  0  0  0
   10.3975  -16.3479   23.9965 N   0  0  0  0  0  0  0  0  0  0  0  0
   10.7425  -16.3671   25.3876 C   0  0  1  0  0  0  0  0  0  0  0  0
   10.1462  -15.3019   26.2178 C   0  0  0  0  0  0  0  0  0  0  0  0
   10.5214  -15.2952   27.6732 C   0  0  0  0  0  0  0  0  0  0  0  0
    9.9269  -14.1534   28.4594 C   0  0  0  0  0  0  0  0  0  0  0  0
   10.4596  -14.2373   29.8824 C   0  0  0  0  0  0  0  0  0  0  0  0
    9.9066  -13.0939   30.5985 N   0  0  0  0  0  0  0  0  0  0  0  0
   10.6193  -17.7246   25.9335 C   0  0  0  0  0  0  0  0  0  0  0  0
    9.6567  -18.4965   25.6918 O   0  0  0  0  0  0  0  0  0  0  0  0
   11.6169  -18.2161   26.7777 O   0  0  0  0  0  0  0  0  0  0  0  0
  2  1  1  6
  2  3  1  0
  3  4  1  0
  4  5  2  0
  6 11  1  0
  6  2  1  0
  7  6  2  0
  8  4  1  0
 10  9  1  1
 10 12  1  0
 10 11  1  0
 12 14  1  0
 13 12  2  0
 14 15  1  0
 15 21  1  0
 15 16  1  1
 16 17  1  0
 18 19  1  0
 18 17  1  0
 20 19  1  0
 21 23  1  0
 22 21  2  0
M  END
$$$$
