MAV.pdb
     RDKit          3D

 21 20  0  0  1  0  0  0  0  0999 V2000
    7.9075  -11.9075   19.6183 C   0  0  0  0  0  0  0  0  0  0  0  0
    8.4137  -12.9761   18.2276 S   0  0  0  0  0  0  0  0  0  0  0  0
    7.9815  -14.6735   18.6114 C   0  0  0  0  0  0  0  0  0  0  0  0
    7.7520  -14.8404   20.1167 C   0  0  0  0  0  0  0  0  0  0  0  0
    7.3674  -16.2511   20.4531 C   0  0  2  0  0  0  0  0  0  0  0  0
    6.1763  -16.6565   19.7346 N   0  0  0  0  0  0  0  0  0  0  0  0
    7.1259  -16.2858   21.9330 C   0  0  0  0  0  0  0  0  0  0  0  0
    6.1089  -15.7610   22.4390 O   0  0  0  0  0  0  0  0  0  0  0  0
    8.4008  -18.2155   24.8688 C   0  0  0  0  0  0  0  0  0  0  0  0
    7.9277  -16.9421   24.2460 C   0  0  2  0  0  0  0  0  0  0  0  0
    8.0420  -16.9160   22.8189 N   0  0  0  0  0  0  0  0  0  0  0  0
    8.5493  -15.7371   24.8778 C   0  0  0  0  0  0  0  0  0  0  0  0
    9.5790  -15.2482   24.3512 O   0  0  0  0  0  0  0  0  0  0  0  0
    6.4446  -13.4565   27.9350 C   0  0  0  0  0  0  0  0  0  0  0  0
    7.4900  -12.9238   26.9762 C   0  0  2  0  0  0  0  0  0  0  0  0
    6.8551  -12.4116   25.7001 C   0  0  0  0  0  0  0  0  0  0  0  0
    8.5504  -13.9504   26.6760 C   0  0  2  0  0  0  0  0  0  0  0  0
    8.0400  -15.1216   26.0331 N   0  0  0  0  0  0  0  0  0  0  0  0
    9.3052  -14.2616   27.9212 C   0  0  0  0  0  0  0  0  0  0  0  0
   10.0603  -13.2318   28.4640 O   0  0  0  0  0  0  0  0  0  0  0  0
    9.2912  -15.3650   28.4794 O   0  0  0  0  0  0  0  0  0  0  0  0
  2  1  1  0
  3  2  1  0
  4  3  1  0
  5  4  1  0
  5  6  1  6
  5  7  1  0
  7  8  2  0
 10  9  1  1
 10 12  1  0
 11  7  1  0
 11 10  1  0
 12 13  2  0
 12 18  1  0
 15 16  1  6
 15 14  1  0
 17 15  1  0
 17 18  1  1
 19 17  1  0
 19 20  1  0
 21 19  2  0
M  END
$$$$
