MAV.pdb
     RDKit          3D

 21 20  0  0  1  0  0  0  0  0999 V2000
    7.0768  -11.7760   20.2209 C   0  0  0  0  0  0  0  0  0  0  0  0
    7.3632  -12.9507   18.8535 S   0  0  0  0  0  0  0  0  0  0  0  0
    7.7765  -14.5542   19.5415 C   0  0  0  0  0  0  0  0  0  0  0  0
    9.0800  -14.4736   20.3419 C   0  0  0  0  0  0  0  0  0  0  0  0
    9.3882  -15.7819   21.0087 C   0  0  2  0  0  0  0  0  0  0  0  0
    8.6035  -16.8590   20.4402 N   0  0  0  0  0  0  0  0  0  0  0  0
    9.0642  -15.6060   22.4626 C   0  0  0  0  0  0  0  0  0  0  0  0
    9.5015  -14.6309   23.1136 O   0  0  0  0  0  0  0  0  0  0  0  0
    6.8732  -17.4614   24.9691 C   0  0  0  0  0  0  0  0  0  0  0  0
    7.8979  -16.4601   24.5444 C   0  0  2  0  0  0  0  0  0  0  0  0
    8.2479  -16.5393   23.1582 N   0  0  0  0  0  0  0  0  0  0  0  0
    9.1058  -16.4762   25.4268 C   0  0  0  0  0  0  0  0  0  0  0  0
   10.1129  -17.1260   25.0522 O   0  0  0  0  0  0  0  0  0  0  0  0
    9.2159  -14.4539   29.4132 C   0  0  0  0  0  0  0  0  0  0  0  0
   10.3719  -14.6309   28.4498 C   0  0  2  0  0  0  0  0  0  0  0  0
   10.5427  -13.4125   27.5666 C   0  0  0  0  0  0  0  0  0  0  0  0
   10.2252  -15.8803   27.6216 C   0  0  2  0  0  0  0  0  0  0  0  0
    9.1730  -15.8006   26.6562 N   0  0  0  0  0  0  0  0  0  0  0  0
   10.0903  -17.0585   28.5221 C   0  0  0  0  0  0  0  0  0  0  0  0
   11.2212  -17.4274   29.2365 O   0  0  0  0  0  0  0  0  0  0  0  0
    9.0459  -17.7062   28.6597 O   0  0  0  0  0  0  0  0  0  0  0  0
  2  1  1  0
  3  2  1  0
  4  3  1  0
  5  4  1  0
  5  6  1  6
  5  7  1  0
  7  8  2  0
 10  9  1  1
 10 12  1  0
 11  7  1  0
 11 10  1  0
 12 13  2  0
 12 18  1  0
 15 16  1  6
 15 14  1  0
 17 15  1  0
 17 18  1  1
 19 17  1  0
 19 20  1  0
 21 19  2  0
M  END
$$$$
