MAV.pdb
     RDKit          3D

 21 20  0  0  1  0  0  0  0  0999 V2000
    7.1711  -11.1664   25.8414 C   0  0  0  0  0  0  0  0  0  0  0  0
    5.7446  -12.0420   26.5697 S   0  0  0  0  0  0  0  0  0  0  0  0
    5.4630  -13.5574   25.6535 C   0  0  0  0  0  0  0  0  0  0  0  0
    6.7589  -14.3671   25.5465 C   0  0  0  0  0  0  0  0  0  0  0  0
    6.5784  -15.5641   24.6601 C   0  0  2  0  0  0  0  0  0  0  0  0
    5.5545  -16.4501   25.1757 N   0  0  0  0  0  0  0  0  0  0  0  0
    7.9042  -16.2638   24.6134 C   0  0  0  0  0  0  0  0  0  0  0  0
    8.1438  -17.2535   25.3406 O   0  0  0  0  0  0  0  0  0  0  0  0
   11.0307  -15.9645   22.4640 C   0  0  0  0  0  0  0  0  0  0  0  0
   10.2440  -16.4167   23.6513 C   0  0  2  0  0  0  0  0  0  0  0  0
    8.9404  -15.8310   23.7415 N   0  0  0  0  0  0  0  0  0  0  0  0
   11.0105  -16.2716   24.9277 C   0  0  0  0  0  0  0  0  0  0  0  0
   12.2549  -16.1164   24.8650 O   0  0  0  0  0  0  0  0  0  0  0  0
    9.0774  -15.0861   28.6566 C   0  0  0  0  0  0  0  0  0  0  0  0
   10.4957  -14.8528   28.1768 C   0  0  2  0  0  0  0  0  0  0  0  0
   10.5868  -13.6109   27.3147 C   0  0  0  0  0  0  0  0  0  0  0  0
   11.0472  -16.0528   27.4528 C   0  0  2  0  0  0  0  0  0  0  0  0
   10.4094  -16.2999   26.1968 N   0  0  0  0  0  0  0  0  0  0  0  0
   11.0131  -17.2355   28.3568 C   0  0  0  0  0  0  0  0  0  0  0  0
   11.8313  -17.1858   29.4763 O   0  0  0  0  0  0  0  0  0  0  0  0
   10.3087  -18.2331   28.1620 O   0  0  0  0  0  0  0  0  0  0  0  0
  2  1  1  0
  3  2  1  0
  4  3  1  0
  5  4  1  0
  5  6  1  1
  5  7  1  0
  7  8  2  0
 10  9  1  6
 10 12  1  0
 11  7  1  0
 11 10  1  0
 12 13  2  0
 12 18  1  0
 15 16  1  6
 15 14  1  0
 17 15  1  0
 17 18  1  6
 19 17  1  0
 19 20  1  0
 21 19  2  0
M  END
$$$$
