MAV.pdb
     RDKit          3D

 21 20  0  0  1  0  0  0  0  0999 V2000
    8.7626  -11.2070   20.1085 C   0  0  0  0  0  0  0  0  0  0  0  0
    8.1685  -12.5590   19.0358 S   0  0  0  0  0  0  0  0  0  0  0  0
    8.5151  -14.1280   19.8318 C   0  0  0  0  0  0  0  0  0  0  0  0
    7.9702  -15.2868   18.9914 C   0  0  0  0  0  0  0  0  0  0  0  0
    8.3185  -16.6113   19.6042 C   0  0  2  0  0  0  0  0  0  0  0  0
    7.8282  -17.7093   18.7960 N   0  0  0  0  0  0  0  0  0  0  0  0
    7.6822  -16.6332   20.9622 C   0  0  0  0  0  0  0  0  0  0  0  0
    6.4405  -16.7092   21.0981 O   0  0  0  0  0  0  0  0  0  0  0  0
    8.2043  -18.0485   24.0878 C   0  0  0  0  0  0  0  0  0  0  0  0
    7.9577  -16.7054   23.4807 C   0  0  2  0  0  0  0  0  0  0  0  0
    8.4637  -16.5687   22.1481 N   0  0  0  0  0  0  0  0  0  0  0  0
    8.4131  -15.5903   24.3677 C   0  0  0  0  0  0  0  0  0  0  0  0
    9.5786  -15.1464   24.2219 O   0  0  0  0  0  0  0  0  0  0  0  0
    5.9024  -12.6362   25.6027 C   0  0  0  0  0  0  0  0  0  0  0  0
    6.7587  -13.1644   26.7358 C   0  0  2  0  0  0  0  0  0  0  0  0
    7.1875  -12.0491   27.6664 C   0  0  0  0  0  0  0  0  0  0  0  0
    7.9516  -13.9303   26.2270 C   0  0  2  0  0  0  0  0  0  0  0  0
    7.6029  -15.0116   25.3584 N   0  0  0  0  0  0  0  0  0  0  0  0
    8.7885  -14.3659   27.3789 C   0  0  0  0  0  0  0  0  0  0  0  0
    9.5365  -13.3826   28.0105 O   0  0  0  0  0  0  0  0  0  0  0  0
    8.8467  -15.5314   27.7882 O   0  0  0  0  0  0  0  0  0  0  0  0
  2  1  1  0
  3  2  1  0
  4  3  1  0
  5  4  1  0
  5  6  1  6
  5  7  1  0
  7  8  2  0
 10  9  1  1
 10 12  1  0
 11  7  1  0
 11 10  1  0
 12 13  2  0
 12 18  1  0
 15 16  1  6
 15 14  1  0
 17 15  1  0
 17 18  1  1
 19 17  1  0
 19 20  1  0
 21 19  2  0
M  END
$$$$
