MAV.pdb
     RDKit          3D

 21 20  0  0  1  0  0  0  0  0999 V2000
    8.4890  -11.5390   20.4920 C   0  0  0  0  0  0  0  0  0  0  0  0
    7.8563  -12.4178   19.0226 S   0  0  0  0  0  0  0  0  0  0  0  0
    7.9276  -14.1837   19.3259 C   0  0  0  0  0  0  0  0  0  0  0  0
    7.3347  -14.5156   20.6987 C   0  0  0  0  0  0  0  0  0  0  0  0
    7.3822  -15.9910   20.9671 C   0  0  2  0  0  0  0  0  0  0  0  0
    6.4056  -16.7022   20.1674 N   0  0  0  0  0  0  0  0  0  0  0  0
    7.0942  -16.1680   22.4284 C   0  0  0  0  0  0  0  0  0  0  0  0
    6.0096  -15.7941   22.9280 O   0  0  0  0  0  0  0  0  0  0  0  0
    7.3629  -18.2522   25.1348 C   0  0  0  0  0  0  0  0  0  0  0  0
    7.8823  -16.9142   24.7188 C   0  0  2  0  0  0  0  0  0  0  0  0
    8.0412  -16.7673   23.3033 N   0  0  0  0  0  0  0  0  0  0  0  0
    9.1228  -16.5316   25.4622 C   0  0  0  0  0  0  0  0  0  0  0  0
   10.2364  -16.8112   24.9538 O   0  0  0  0  0  0  0  0  0  0  0  0
    8.9817  -14.1175   29.1603 C   0  0  0  0  0  0  0  0  0  0  0  0
   10.0763  -14.1141   28.1125 C   0  0  2  0  0  0  0  0  0  0  0  0
    9.8331  -13.0454   27.0673 C   0  0  0  0  0  0  0  0  0  0  0  0
   10.2429  -15.4667   27.4714 C   0  0  2  0  0  0  0  0  0  0  0  0
    9.1074  -15.8739   26.7031 N   0  0  0  0  0  0  0  0  0  0  0  0
   10.6210  -16.4641   28.5103 C   0  0  0  0  0  0  0  0  0  0  0  0
   11.8926  -16.3450   29.0526 O   0  0  0  0  0  0  0  0  0  0  0  0
    9.8750  -17.3693   28.9022 O   0  0  0  0  0  0  0  0  0  0  0  0
  2  1  1  0
  3  2  1  0
  4  3  1  0
  5  4  1  0
  5  6  1  6
  5  7  1  0
  7  8  2  0
 10  9  1  6
 10 12  1  0
 11  7  1  0
 11 10  1  0
 12 13  2  0
 12 18  1  0
 15 16  1  6
 15 14  1  0
 17 15  1  0
 17 18  1  1
 19 17  1  0
 19 20  1  0
 21 19  2  0
M  END
$$$$
