MAV.pdb
     RDKit          3D

 21 20  0  0  1  0  0  0  0  0999 V2000
    7.6691  -11.7312   19.7857 C   0  0  0  0  0  0  0  0  0  0  0  0
    8.3452  -12.7975   18.4675 S   0  0  0  0  0  0  0  0  0  0  0  0
    7.6356  -14.4368   18.6245 C   0  0  0  0  0  0  0  0  0  0  0  0
    7.3372  -14.7527   20.0933 C   0  0  0  0  0  0  0  0  0  0  0  0
    7.4532  -16.2236   20.3657 C   0  0  2  0  0  0  0  0  0  0  0  0
    6.3059  -16.9449   19.8531 N   0  0  0  0  0  0  0  0  0  0  0  0
    7.5470  -16.3752   21.8549 C   0  0  0  0  0  0  0  0  0  0  0  0
    6.5535  -16.1874   22.5922 O   0  0  0  0  0  0  0  0  0  0  0  0
   10.0241  -17.8916   24.2510 C   0  0  0  0  0  0  0  0  0  0  0  0
    8.9468  -16.9185   23.8967 C   0  0  2  0  0  0  0  0  0  0  0  0
    8.7673  -16.7383   22.4876 N   0  0  0  0  0  0  0  0  0  0  0  0
    9.1050  -15.6133   24.6105 C   0  0  0  0  0  0  0  0  0  0  0  0
    9.8919  -14.7600   24.1318 O   0  0  0  0  0  0  0  0  0  0  0  0
    6.6507  -12.9759   25.4717 C   0  0  0  0  0  0  0  0  0  0  0  0
    7.3021  -13.3456   26.7888 C   0  0  2  0  0  0  0  0  0  0  0  0
    7.5351  -12.1212   27.6494 C   0  0  0  0  0  0  0  0  0  0  0  0
    8.5822  -14.1127   26.5854 C   0  0  2  0  0  0  0  0  0  0  0  0
    8.4172  -15.2911   25.7919 N   0  0  0  0  0  0  0  0  0  0  0  0
    9.2069  -14.3933   27.9075 C   0  0  0  0  0  0  0  0  0  0  0  0
    9.7990  -13.3189   28.5557 O   0  0  0  0  0  0  0  0  0  0  0  0
    9.2223  -15.5090   28.4408 O   0  0  0  0  0  0  0  0  0  0  0  0
  2  1  1  0
  3  2  1  0
  4  3  1  0
  5  4  1  0
  5  6  1  1
  5  7  1  0
  7  8  2  0
 10  9  1  6
 10 12  1  0
 11  7  1  0
 11 10  1  0
 12 13  2  0
 12 18  1  0
 15 16  1  6
 15 14  1  0
 17 15  1  0
 17 18  1  1
 19 17  1  0
 19 20  1  0
 21 19  2  0
M  END
$$$$
