MAV.pdb
     RDKit          3D

 21 20  0  0  1  0  0  0  0  0999 V2000
    7.4690  -11.6168   20.2317 C   0  0  0  0  0  0  0  0  0  0  0  0
    7.5068  -12.7718   18.8188 S   0  0  0  0  0  0  0  0  0  0  0  0
    7.7697  -14.4353   19.4345 C   0  0  0  0  0  0  0  0  0  0  0  0
    8.2097  -14.4001   20.9013 C   0  0  0  0  0  0  0  0  0  0  0  0
    8.7566  -15.7282   21.3350 C   0  0  2  0  0  0  0  0  0  0  0  0
    8.1154  -16.8172   20.6263 N   0  0  0  0  0  0  0  0  0  0  0  0
    8.4976  -15.8353   22.8084 C   0  0  0  0  0  0  0  0  0  0  0  0
    8.8137  -14.9136   23.5935 O   0  0  0  0  0  0  0  0  0  0  0  0
    7.1034  -18.5534   25.0912 C   0  0  0  0  0  0  0  0  0  0  0  0
    7.6433  -17.1982   24.7671 C   0  0  2  0  0  0  0  0  0  0  0  0
    7.8830  -16.9872   23.3712 N   0  0  0  0  0  0  0  0  0  0  0  0
    8.8382  -16.8508   25.5973 C   0  0  0  0  0  0  0  0  0  0  0  0
    9.9795  -17.1129   25.1441 O   0  0  0  0  0  0  0  0  0  0  0  0
    8.9353  -13.4587   27.6187 C   0  0  0  0  0  0  0  0  0  0  0  0
    9.5100  -14.5645   28.4806 C   0  0  2  0  0  0  0  0  0  0  0  0
   10.7210  -14.0854   29.2538 C   0  0  0  0  0  0  0  0  0  0  0  0
    9.8381  -15.7923   27.6723 C   0  0  2  0  0  0  0  0  0  0  0  0
    8.7504  -16.2447   26.8613 N   0  0  0  0  0  0  0  0  0  0  0  0
   10.3619  -16.8542   28.5750 C   0  0  0  0  0  0  0  0  0  0  0  0
   11.6511  -16.6796   29.0574 O   0  0  0  0  0  0  0  0  0  0  0  0
    9.7193  -17.8576   28.9062 O   0  0  0  0  0  0  0  0  0  0  0  0
  2  1  1  0
  3  2  1  0
  4  3  1  0
  5  4  1  0
  5  6  1  6
  5  7  1  0
  7  8  2  0
 10  9  1  6
 10 12  1  0
 11  7  1  0
 11 10  1  0
 12 13  2  0
 12 18  1  0
 15 16  1  6
 15 14  1  0
 17 15  1  0
 17 18  1  1
 19 17  1  0
 19 20  1  0
 21 19  2  0
M  END
$$$$
