MAV.pdb
     RDKit          3D

 21 20  0  0  1  0  0  0  0  0999 V2000
    8.7970  -11.6823   19.5485 C   0  0  0  0  0  0  0  0  0  0  0  0
    7.5757  -12.5520   18.5074 S   0  0  0  0  0  0  0  0  0  0  0  0
    7.6582  -14.3085   18.8586 C   0  0  0  0  0  0  0  0  0  0  0  0
    7.4790  -14.5637   20.3583 C   0  0  0  0  0  0  0  0  0  0  0  0
    7.4658  -16.0334   20.6600 C   0  0  2  0  0  0  0  0  0  0  0  0
    6.2752  -16.6676   20.1314 N   0  0  0  0  0  0  0  0  0  0  0  0
    7.5109  -16.1623   22.1537 C   0  0  0  0  0  0  0  0  0  0  0  0
    6.5311  -15.8447   22.8643 O   0  0  0  0  0  0  0  0  0  0  0  0
    9.6898  -17.9535   24.6309 C   0  0  0  0  0  0  0  0  0  0  0  0
    8.7943  -16.8241   24.2366 C   0  0  2  0  0  0  0  0  0  0  0  0
    8.6676  -16.6503   22.8209 N   0  0  0  0  0  0  0  0  0  0  0  0
    9.1567  -15.5465   24.9254 C   0  0  0  0  0  0  0  0  0  0  0  0
   10.0652  -14.8354   24.4300 O   0  0  0  0  0  0  0  0  0  0  0  0
    6.5334  -13.4630   27.6261 C   0  0  0  0  0  0  0  0  0  0  0  0
    7.7592  -12.9190   26.9208 C   0  0  2  0  0  0  0  0  0  0  0  0
    7.4159  -12.4097   25.5364 C   0  0  0  0  0  0  0  0  0  0  0  0
    8.8690  -13.9354   26.8611 C   0  0  2  0  0  0  0  0  0  0  0  0
    8.5320  -15.0991   26.1011 N   0  0  0  0  0  0  0  0  0  0  0  0
    9.3166  -14.2618   28.2432 C   0  0  0  0  0  0  0  0  0  0  0  0
    9.9039  -13.2330   28.9655 O   0  0  0  0  0  0  0  0  0  0  0  0
    9.1928  -15.3768   28.7636 O   0  0  0  0  0  0  0  0  0  0  0  0
  2  1  1  0
  3  2  1  0
  4  3  1  0
  5  4  1  0
  5  6  1  1
  5  7  1  0
  7  8  2  0
 10  9  1  6
 10 12  1  0
 11  7  1  0
 11 10  1  0
 12 13  2  0
 12 18  1  0
 15 16  1  6
 15 14  1  0
 17 15  1  0
 17 18  1  1
 19 17  1  0
 19 20  1  0
 21 19  2  0
M  END
$$$$
