MAV.pdb
     RDKit          3D

 21 20  0  0  1  0  0  0  0  0999 V2000
    7.2878  -19.1128   28.4673 C   0  0  0  0  0  0  0  0  0  0  0  0
    7.1873  -20.6602   27.5042 S   0  0  0  0  0  0  0  0  0  0  0  0
    7.9924  -20.4130   25.9211 C   0  0  0  0  0  0  0  0  0  0  0  0
    7.1480  -19.4988   25.0279 C   0  0  0  0  0  0  0  0  0  0  0  0
    7.8807  -19.1460   23.7670 C   0  0  2  0  0  0  0  0  0  0  0  0
    9.1293  -19.8735   23.6639 N   0  0  0  0  0  0  0  0  0  0  0  0
    8.1358  -17.6690   23.8213 C   0  0  0  0  0  0  0  0  0  0  0  0
    8.9822  -17.1830   24.6044 O   0  0  0  0  0  0  0  0  0  0  0  0
    6.7947  -14.6310   21.9496 C   0  0  0  0  0  0  0  0  0  0  0  0
    7.5061  -15.3353   23.0591 C   0  0  2  0  0  0  0  0  0  0  0  0
    7.4270  -16.7631   22.9857 N   0  0  0  0  0  0  0  0  0  0  0  0
    7.1040  -14.8225   24.4057 C   0  0  0  0  0  0  0  0  0  0  0  0
    6.0963  -15.3246   24.9617 O   0  0  0  0  0  0  0  0  0  0  0  0
    9.9533  -13.6475   27.0366 C   0  0  0  0  0  0  0  0  0  0  0  0
    8.7578  -12.7168   27.0612 C   0  0  2  0  0  0  0  0  0  0  0  0
    8.4426  -12.2644   28.4718 C   0  0  0  0  0  0  0  0  0  0  0  0
    7.5495  -13.3389   26.4122 C   0  0  2  0  0  0  0  0  0  0  0  0
    7.7968  -13.8057   25.0831 N   0  0  0  0  0  0  0  0  0  0  0  0
    6.4048  -12.3894   26.4837 C   0  0  0  0  0  0  0  0  0  0  0  0
    6.0623  -11.7391   25.3067 O   0  0  0  0  0  0  0  0  0  0  0  0
    5.7622  -12.1592   27.5149 O   0  0  0  0  0  0  0  0  0  0  0  0
  2  1  1  0
  3  2  1  0
  4  3  1  0
  5  4  1  0
  5  6  1  1
  5  7  1  0
  7  8  2  0
 10  9  1  6
 10 12  1  0
 11  7  1  0
 11 10  1  0
 12 13  2  0
 12 18  1  0
 15 16  1  1
 15 14  1  0
 17 15  1  0
 17 18  1  6
 19 17  1  0
 19 20  1  0
 21 19  2  0
M  END
$$$$
