MAV.pdb
     RDKit          3D

 21 20  0  0  1  0  0  0  0  0999 V2000
    7.6773  -12.1074   19.6861 C   0  0  0  0  0  0  0  0  0  0  0  0
    8.3679  -13.2596   18.4502 S   0  0  0  0  0  0  0  0  0  0  0  0
    7.8491  -14.9273   18.8564 C   0  0  0  0  0  0  0  0  0  0  0  0
    7.5357  -15.0414   20.3515 C   0  0  0  0  0  0  0  0  0  0  0  0
    7.1370  -16.4411   20.7162 C   0  0  2  0  0  0  0  0  0  0  0  0
    5.9386  -16.8468   20.0103 N   0  0  0  0  0  0  0  0  0  0  0  0
    6.9013  -16.4448   22.1974 C   0  0  0  0  0  0  0  0  0  0  0  0
    5.8798  -15.9209   22.6953 O   0  0  0  0  0  0  0  0  0  0  0  0
    8.0871  -18.3235   25.1710 C   0  0  0  0  0  0  0  0  0  0  0  0
    7.7263  -17.0266   24.5222 C   0  0  2  0  0  0  0  0  0  0  0  0
    7.8281  -17.0436   23.0940 N   0  0  0  0  0  0  0  0  0  0  0  0
    8.4621  -15.8697   25.1204 C   0  0  0  0  0  0  0  0  0  0  0  0
    9.5505  -15.5188   24.6017 O   0  0  0  0  0  0  0  0  0  0  0  0
    6.5904  -13.1819   28.0044 C   0  0  0  0  0  0  0  0  0  0  0  0
    7.7494  -12.8629   27.0821 C   0  0  2  0  0  0  0  0  0  0  0  0
    7.2622  -12.3197   25.7549 C   0  0  0  0  0  0  0  0  0  0  0  0
    8.6488  -14.0538   26.8792 C   0  0  2  0  0  0  0  0  0  0  0  0
    7.9981  -15.1528   26.2355 N   0  0  0  0  0  0  0  0  0  0  0  0
    9.2677  -14.4342   28.1789 C   0  0  0  0  0  0  0  0  0  0  0  0
   10.1330  -13.5114   28.7490 O   0  0  0  0  0  0  0  0  0  0  0  0
    9.0526  -15.5052   28.7588 O   0  0  0  0  0  0  0  0  0  0  0  0
  2  1  1  0
  3  2  1  0
  4  3  1  0
  5  4  1  0
  5  6  1  6
  5  7  1  0
  7  8  2  0
 10  9  1  1
 10 12  1  0
 11  7  1  0
 11 10  1  0
 12 13  2  0
 12 18  1  0
 15 16  1  6
 15 14  1  0
 17 15  1  0
 17 18  1  1
 19 17  1  0
 19 20  1  0
 21 19  2  0
M  END
$$$$
