MAV.pdb
     RDKit          3D

 21 20  0  0  1  0  0  0  0  0999 V2000
    8.6504  -12.2009   18.0105 C   0  0  0  0  0  0  0  0  0  0  0  0
    8.3453  -13.2683   19.4594 S   0  0  0  0  0  0  0  0  0  0  0  0
    6.6768  -13.9180   19.3618 C   0  0  0  0  0  0  0  0  0  0  0  0
    6.3425  -14.7263   20.6193 C   0  0  0  0  0  0  0  0  0  0  0  0
    7.0394  -16.0550   20.6105 C   0  0  2  0  0  0  0  0  0  0  0  0
    6.2858  -17.0386   19.8596 N   0  0  0  0  0  0  0  0  0  0  0  0
    7.1717  -16.4765   22.0439 C   0  0  0  0  0  0  0  0  0  0  0  0
    6.1657  -16.6368   22.7707 O   0  0  0  0  0  0  0  0  0  0  0  0
    9.6788  -18.0659   24.2636 C   0  0  0  0  0  0  0  0  0  0  0  0
    8.6758  -16.9854   24.0193 C   0  0  2  0  0  0  0  0  0  0  0  0
    8.4441  -16.7106   22.6332 N   0  0  0  0  0  0  0  0  0  0  0  0
    8.9836  -15.7414   24.7910 C   0  0  0  0  0  0  0  0  0  0  0  0
    9.8569  -14.9586   24.3425 O   0  0  0  0  0  0  0  0  0  0  0  0
    6.4636  -13.1485   25.9962 C   0  0  0  0  0  0  0  0  0  0  0  0
    7.3082  -13.5292   27.1952 C   0  0  2  0  0  0  0  0  0  0  0  0
    7.6129  -12.3223   28.0581 C   0  0  0  0  0  0  0  0  0  0  0  0
    8.5754  -14.2337   26.7875 C   0  0  2  0  0  0  0  0  0  0  0  0
    8.3450  -15.4018   25.9950 N   0  0  0  0  0  0  0  0  0  0  0  0
    9.3978  -14.5132   27.9968 C   0  0  0  0  0  0  0  0  0  0  0  0
    9.6097  -15.8484   28.3093 O   0  0  0  0  0  0  0  0  0  0  0  0
    9.8879  -13.6350   28.7164 O   0  0  0  0  0  0  0  0  0  0  0  0
  2  1  1  0
  3  2  1  0
  4  3  1  0
  5  4  1  0
  5  6  1  6
  5  7  1  0
  7  8  2  0
 10  9  1  6
 10 12  1  0
 11  7  1  0
 11 10  1  0
 12 13  2  0
 12 18  1  0
 15 16  1  6
 15 14  1  0
 17 15  1  0
 17 18  1  1
 19 17  1  0
 19 20  1  0
 21 19  2  0
M  END
$$$$
