MAV.pdb
     RDKit          3D

 21 20  0  0  1  0  0  0  0  0999 V2000
    8.3790  -11.5088   19.8857 C   0  0  0  0  0  0  0  0  0  0  0  0
    7.4818  -12.4499   18.6047 S   0  0  0  0  0  0  0  0  0  0  0  0
    7.9899  -14.1679   18.6825 C   0  0  0  0  0  0  0  0  0  0  0  0
    7.9631  -14.6692   20.1296 C   0  0  0  0  0  0  0  0  0  0  0  0
    8.3181  -16.1250   20.2054 C   0  0  2  0  0  0  0  0  0  0  0  0
    7.3338  -16.9419   19.5249 N   0  0  0  0  0  0  0  0  0  0  0  0
    8.3744  -16.4747   21.6629 C   0  0  0  0  0  0  0  0  0  0  0  0
    7.3354  -16.5407   22.3571 O   0  0  0  0  0  0  0  0  0  0  0  0
   10.9083  -17.9222   24.0297 C   0  0  0  0  0  0  0  0  0  0  0  0
    9.7675  -17.0110   23.7112 C   0  0  2  0  0  0  0  0  0  0  0  0
    9.6095  -16.7451   22.3130 N   0  0  0  0  0  0  0  0  0  0  0  0
    9.8055  -15.7518   24.5179 C   0  0  0  0  0  0  0  0  0  0  0  0
   10.5814  -14.8326   24.1578 O   0  0  0  0  0  0  0  0  0  0  0  0
    8.1411  -12.1895   27.1813 C   0  0  0  0  0  0  0  0  0  0  0  0
    7.9562  -13.4370   26.3414 C   0  0  2  0  0  0  0  0  0  0  0  0
    6.6101  -14.0805   26.6022 C   0  0  0  0  0  0  0  0  0  0  0  0
    9.0746  -14.4240   26.5497 C   0  0  2  0  0  0  0  0  0  0  0  0
    9.0164  -15.5429   25.6609 N   0  0  0  0  0  0  0  0  0  0  0  0
    9.1169  -14.8297   27.9817 C   0  0  0  0  0  0  0  0  0  0  0  0
    9.5402  -13.8679   28.8879 O   0  0  0  0  0  0  0  0  0  0  0  0
    8.8010  -15.9533   28.3905 O   0  0  0  0  0  0  0  0  0  0  0  0
  2  1  1  0
  3  2  1  0
  4  3  1  0
  5  4  1  0
  5  6  1  6
  5  7  1  0
  7  8  2  0
 10  9  1  6
 10 12  1  0
 11  7  1  0
 11 10  1  0
 12 13  2  0
 12 18  1  0
 15 16  1  1
 15 14  1  0
 17 15  1  0
 17 18  1  6
 19 17  1  0
 19 20  1  0
 21 19  2  0
M  END
$$$$
