MAV.pdb
     RDKit          3D

 21 20  0  0  1  0  0  0  0  0999 V2000
    8.3332  -12.1235   19.4902 C   0  0  0  0  0  0  0  0  0  0  0  0
    7.7058  -13.1923   18.1500 S   0  0  0  0  0  0  0  0  0  0  0  0
    7.7245  -14.8963   18.7082 C   0  0  0  0  0  0  0  0  0  0  0  0
    7.2159  -14.9931   20.1498 C   0  0  0  0  0  0  0  0  0  0  0  0
    7.1798  -16.4184   20.6172 C   0  0  2  0  0  0  0  0  0  0  0  0
    6.1902  -17.1854   19.8881 N   0  0  0  0  0  0  0  0  0  0  0  0
    6.8429  -16.3795   22.0782 C   0  0  0  0  0  0  0  0  0  0  0  0
    5.8383  -15.7630   22.4984 O   0  0  0  0  0  0  0  0  0  0  0  0
    7.8018  -18.2048   25.1977 C   0  0  0  0  0  0  0  0  0  0  0  0
    7.4933  -16.9408   24.4626 C   0  0  2  0  0  0  0  0  0  0  0  0
    7.6507  -17.0413   23.0430 N   0  0  0  0  0  0  0  0  0  0  0  0
    8.2285  -15.7650   25.0238 C   0  0  0  0  0  0  0  0  0  0  0  0
    9.3184  -15.4323   24.4963 O   0  0  0  0  0  0  0  0  0  0  0  0
    6.3855  -12.8943   27.7003 C   0  0  0  0  0  0  0  0  0  0  0  0
    7.6568  -12.6896   26.9017 C   0  0  2  0  0  0  0  0  0  0  0  0
    7.3592  -12.1128   25.5332 C   0  0  0  0  0  0  0  0  0  0  0  0
    8.4583  -13.9597   26.7883 C   0  0  2  0  0  0  0  0  0  0  0  0
    7.7624  -15.0111   26.1133 N   0  0  0  0  0  0  0  0  0  0  0  0
    8.9398  -14.3637   28.1381 C   0  0  0  0  0  0  0  0  0  0  0  0
    9.8090  -13.4898   28.7752 O   0  0  0  0  0  0  0  0  0  0  0  0
    8.6102  -15.4133   28.7029 O   0  0  0  0  0  0  0  0  0  0  0  0
  2  1  1  0
  3  2  1  0
  4  3  1  0
  5  4  1  0
  5  6  1  6
  5  7  1  0
  7  8  2  0
 10  9  1  1
 10 12  1  0
 11  7  1  0
 11 10  1  0
 12 13  2  0
 12 18  1  0
 15 16  1  6
 15 14  1  0
 17 15  1  0
 17 18  1  1
 19 17  1  0
 19 20  1  0
 21 19  2  0
M  END
$$$$
