MAV.pdb
     RDKit          3D

 21 20  0  0  1  0  0  0  0  0999 V2000
    8.9854  -11.9829   19.6491 C   0  0  0  0  0  0  0  0  0  0  0  0
    7.4592  -12.4719   18.7754 S   0  0  0  0  0  0  0  0  0  0  0  0
    7.2209  -14.2390   18.9660 C   0  0  0  0  0  0  0  0  0  0  0  0
    6.9095  -14.5830   20.4257 C   0  0  0  0  0  0  0  0  0  0  0  0
    8.0764  -15.2581   21.0842 C   0  0  2  0  0  0  0  0  0  0  0  0
    8.3937  -16.5127   20.4327 N   0  0  0  0  0  0  0  0  0  0  0  0
    7.6830  -15.4923   22.5125 C   0  0  0  0  0  0  0  0  0  0  0  0
    7.3467  -14.5457   23.2586 O   0  0  0  0  0  0  0  0  0  0  0  0
    7.1848  -18.5473   24.7236 C   0  0  0  0  0  0  0  0  0  0  0  0
    7.4573  -17.1024   24.4569 C   0  0  2  0  0  0  0  0  0  0  0  0
    7.6763  -16.7981   23.0749 N   0  0  0  0  0  0  0  0  0  0  0  0
    8.5471  -16.5612   25.3270 C   0  0  0  0  0  0  0  0  0  0  0  0
    9.7381  -16.7095   24.9578 O   0  0  0  0  0  0  0  0  0  0  0  0
    8.2988  -13.0096   26.7947 C   0  0  0  0  0  0  0  0  0  0  0  0
    8.8095  -13.9132   27.8987 C   0  0  2  0  0  0  0  0  0  0  0  0
    9.9021  -13.2371   28.7007 C   0  0  0  0  0  0  0  0  0  0  0  0
    9.2767  -15.2417   27.3647 C   0  0  2  0  0  0  0  0  0  0  0  0
    8.3076  -15.8937   26.5393 N   0  0  0  0  0  0  0  0  0  0  0  0
    9.7365  -16.0956   28.4945 C   0  0  0  0  0  0  0  0  0  0  0  0
   10.9418  -15.7468   29.0867 O   0  0  0  0  0  0  0  0  0  0  0  0
    9.1114  -17.0748   28.9186 O   0  0  0  0  0  0  0  0  0  0  0  0
  2  1  1  0
  3  2  1  0
  4  3  1  0
  5  4  1  0
  5  6  1  6
  5  7  1  0
  7  8  2  0
 10  9  1  6
 10 12  1  0
 11  7  1  0
 11 10  1  0
 12 13  2  0
 12 18  1  0
 15 16  1  6
 15 14  1  0
 17 15  1  0
 17 18  1  1
 19 17  1  0
 19 20  1  0
 21 19  2  0
M  END
$$$$
