MAV.pdb
     RDKit          3D

 21 20  0  0  1  0  0  0  0  0999 V2000
    9.7976  -13.0073   18.5979 C   0  0  0  0  0  0  0  0  0  0  0  0
    8.0814  -12.5948   19.0630 S   0  0  0  0  0  0  0  0  0  0  0  0
    7.2517  -14.0882   19.6077 C   0  0  0  0  0  0  0  0  0  0  0  0
    8.2572  -15.2332   19.7629 C   0  0  0  0  0  0  0  0  0  0  0  0
    7.5665  -16.5163   20.1202 C   0  0  2  0  0  0  0  0  0  0  0  0
    6.4538  -16.7795   19.2303 N   0  0  0  0  0  0  0  0  0  0  0  0
    7.0851  -16.3624   21.5324 C   0  0  0  0  0  0  0  0  0  0  0  0
    6.1253  -15.6107   21.8146 O   0  0  0  0  0  0  0  0  0  0  0  0
    7.4415  -18.2762   24.7230 C   0  0  0  0  0  0  0  0  0  0  0  0
    7.3015  -16.9878   23.9789 C   0  0  2  0  0  0  0  0  0  0  0  0
    7.6994  -17.0640   22.6055 N   0  0  0  0  0  0  0  0  0  0  0  0
    7.9621  -15.8488   24.6889 C   0  0  0  0  0  0  0  0  0  0  0  0
    9.1452  -15.5583   24.3848 O   0  0  0  0  0  0  0  0  0  0  0  0
    6.1196  -12.4408   25.6859 C   0  0  0  0  0  0  0  0  0  0  0  0
    6.9038  -12.9775   26.8661 C   0  0  2  0  0  0  0  0  0  0  0  0
    7.5791  -11.8586   27.6316 C   0  0  0  0  0  0  0  0  0  0  0  0
    7.9035  -14.0229   26.4463 C   0  0  2  0  0  0  0  0  0  0  0  0
    7.3264  -15.0845   25.6811 N   0  0  0  0  0  0  0  0  0  0  0  0
    8.6403  -14.5128   27.6438 C   0  0  0  0  0  0  0  0  0  0  0  0
    9.6305  -13.6815   28.1474 O   0  0  0  0  0  0  0  0  0  0  0  0
    8.4172  -15.5967   28.1960 O   0  0  0  0  0  0  0  0  0  0  0  0
  2  1  1  0
  3  2  1  0
  4  3  1  0
  5  4  1  0
  5  6  1  6
  5  7  1  0
  7  8  2  0
 10  9  1  1
 10 12  1  0
 11  7  1  0
 11 10  1  0
 12 13  2  0
 12 18  1  0
 15 16  1  6
 15 14  1  0
 17 15  1  0
 17 18  1  1
 19 17  1  0
 19 20  1  0
 21 19  2  0
M  END
$$$$
