YDL.pdb
     RDKit          3D

 29 29  0  0  1  0  0  0  0  0999 V2000
    7.3484  -13.2034   15.1075 O   0  0  0  0  0  0  0  0  0  0  0  0
    7.3036  -13.6523   16.4249 C   0  0  0  0  0  0  0  0  0  0  0  0
    6.9043  -14.9596   16.6615 C   0  0  0  0  0  0  0  0  0  0  0  0
    6.8485  -15.4360   17.9490 C   0  0  0  0  0  0  0  0  0  0  0  0
    7.1858  -14.6252   19.0019 C   0  0  0  0  0  0  0  0  0  0  0  0
    7.0979  -15.1792   20.3714 C   0  0  0  0  0  0  0  0  0  0  0  0
    8.3045  -14.8742   21.2312 C   0  0  2  0  0  0  0  0  0  0  0  0
    9.4803  -14.9759   20.3765 N   0  0  0  0  0  0  0  0  0  0  0  0
    8.3798  -15.8411   22.3463 C   0  0  0  0  0  0  0  0  0  0  0  0
    7.3754  -16.0142   23.0775 O   0  0  0  0  0  0  0  0  0  0  0  0
    7.5789  -13.3344   18.7603 C   0  0  0  0  0  0  0  0  0  0  0  0
    7.6398  -12.8434   17.4771 C   0  0  0  0  0  0  0  0  0  0  0  0
    9.5451  -16.6085   22.6550 N   0  0  0  0  0  0  0  0  0  0  0  0
    9.5724  -17.5482   23.7614 C   0  0  1  0  0  0  0  0  0  0  0  0
   10.9352  -18.2377   23.6842 C   0  0  0  0  0  0  0  0  0  0  0  0
   11.1283  -19.2193   24.7676 C   0  0  0  0  0  0  0  0  0  0  0  0
   10.1821  -19.9170   25.2181 O   0  0  0  0  0  0  0  0  0  0  0  0
    9.5240  -16.8590   25.0693 C   0  0  0  0  0  0  0  0  0  0  0  0
    8.8577  -17.3731   26.0129 O   0  0  0  0  0  0  0  0  0  0  0  0
   12.3869  -19.3859   25.3129 O   0  0  0  0  0  0  0  0  0  0  0  0
    8.7262  -12.0882   27.3400 C   0  0  0  0  0  0  0  0  0  0  0  0
    7.8310  -13.3228   27.1710 C   0  0  1  0  0  0  0  0  0  0  0  0
    6.4103  -12.8477   26.8170 C   0  0  0  0  0  0  0  0  0  0  0  0
    8.3817  -14.1610   26.0603 C   0  0  0  0  0  0  0  0  0  0  0  0
    9.7310  -14.7100   26.4105 C   0  0  2  0  0  0  0  0  0  0  0  0
   10.1811  -15.6421   25.3507 N   0  0  0  0  0  0  0  0  0  0  0  0
    9.6632  -15.4890   27.6498 C   0  0  0  0  0  0  0  0  0  0  0  0
   10.3135  -15.0735   28.8154 O   0  0  0  0  0  0  0  0  0  0  0  0
    9.0319  -16.5614   27.7541 O   0  0  0  0  0  0  0  0  0  0  0  0
  2  1  1  0
  2 12  2  0
  3  2  1  0
  4  3  2  0
  4  5  1  0
  5 11  2  0
  6  7  1  0
  6  5  1  0
  7  8  1  6
  9  7  1  0
  9 10  2  0
 11 12  1  0
 13  9  1  0
 14 13  1  0
 14 18  1  0
 14 15  1  1
 16 15  1  0
 16 17  2  0
 18 19  2  0
 20 16  1  0
 22 21  1  6
 22 24  1  0
 22 23  1  0
 25 24  1  6
 25 27  1  0
 26 18  1  0
 26 25  1  0
 27 29  2  0
 27 28  1  0
M  END
$$$$
