YDL.pdb
     RDKit          3D

 29 29  0  0  1  0  0  0  0  0999 V2000
    9.4592  -21.6341   31.4969 O   0  0  0  0  0  0  0  0  0  0  0  0
    9.0623  -20.9299   30.3631 C   0  0  0  0  0  0  0  0  0  0  0  0
    7.8576  -21.2701   29.7652 C   0  0  0  0  0  0  0  0  0  0  0  0
    7.4349  -20.5961   28.6451 C   0  0  0  0  0  0  0  0  0  0  0  0
    8.1982  -19.5881   28.1149 C   0  0  0  0  0  0  0  0  0  0  0  0
    7.7073  -18.8998   26.9002 C   0  0  0  0  0  0  0  0  0  0  0  0
    7.7214  -19.7665   25.6606 C   0  0  2  0  0  0  0  0  0  0  0  0
    8.6611  -20.8532   25.9044 N   0  0  0  0  0  0  0  0  0  0  0  0
    8.1397  -18.9616   24.4938 C   0  0  0  0  0  0  0  0  0  0  0  0
    9.3578  -18.7156   24.3228 O   0  0  0  0  0  0  0  0  0  0  0  0
    9.3876  -19.2578   28.7110 C   0  0  0  0  0  0  0  0  0  0  0  0
    9.8239  -19.9233   29.8326 C   0  0  0  0  0  0  0  0  0  0  0  0
    7.2306  -18.4327   23.5264 N   0  0  0  0  0  0  0  0  0  0  0  0
    7.6646  -17.5137   22.4896 C   0  0  1  0  0  0  0  0  0  0  0  0
    6.4474  -17.3036   21.5879 C   0  0  0  0  0  0  0  0  0  0  0  0
    6.7557  -16.4596   20.4186 C   0  0  0  0  0  0  0  0  0  0  0  0
    6.3137  -16.7184   19.2685 O   0  0  0  0  0  0  0  0  0  0  0  0
    8.0120  -16.1863   23.0419 C   0  0  0  0  0  0  0  0  0  0  0  0
    8.8970  -15.4910   22.4656 O   0  0  0  0  0  0  0  0  0  0  0  0
    7.5557  -15.3449   20.5813 O   0  0  0  0  0  0  0  0  0  0  0  0
    7.4693  -11.4257   25.0426 C   0  0  0  0  0  0  0  0  0  0  0  0
    7.1606  -12.4207   26.1691 C   0  0  1  0  0  0  0  0  0  0  0  0
    6.0130  -11.8492   27.0210 C   0  0  0  0  0  0  0  0  0  0  0  0
    6.7437  -13.7201   25.5549 C   0  0  0  0  0  0  0  0  0  0  0  0
    7.8693  -14.3459   24.7892 C   0  0  2  0  0  0  0  0  0  0  0  0
    7.4164  -15.6232   24.1907 N   0  0  0  0  0  0  0  0  0  0  0  0
    8.9800  -14.6763   25.6862 C   0  0  0  0  0  0  0  0  0  0  0  0
   10.0717  -13.8188   25.8506 O   0  0  0  0  0  0  0  0  0  0  0  0
    9.0326  -15.7285   26.3567 O   0  0  0  0  0  0  0  0  0  0  0  0
  2  1  1  0
  2 12  2  0
  3  2  1  0
  4  3  2  0
  4  5  1  0
  5 11  2  0
  6  7  1  0
  6  5  1  0
  7  8  1  1
  9  7  1  0
  9 10  2  0
 11 12  1  0
 13  9  1  0
 14 13  1  0
 14 18  1  0
 14 15  1  6
 16 15  1  0
 16 17  2  0
 18 19  2  0
 20 16  1  0
 22 21  1  6
 22 24  1  0
 22 23  1  0
 25 24  1  1
 25 27  1  0
 26 18  1  0
 26 25  1  0
 27 29  2  0
 27 28  1  0
M  END
$$$$
