YDL.pdb
     RDKit          3D

 29 29  0  0  1  0  0  0  0  0999 V2000
    7.2867  -12.4399   16.6442 O   0  0  0  0  0  0  0  0  0  0  0  0
    7.4244  -13.0113   17.9064 C   0  0  0  0  0  0  0  0  0  0  0  0
    7.7253  -14.3632   17.9876 C   0  0  0  0  0  0  0  0  0  0  0  0
    7.8684  -14.9600   19.2168 C   0  0  0  0  0  0  0  0  0  0  0  0
    7.7154  -14.2256   20.3645 C   0  0  0  0  0  0  0  0  0  0  0  0
    7.8666  -14.9154   21.6651 C   0  0  0  0  0  0  0  0  0  0  0  0
    8.1885  -16.3881   21.5405 C   0  0  2  0  0  0  0  0  0  0  0  0
    6.9270  -17.0906   21.3448 N   0  0  0  0  0  0  0  0  0  0  0  0
    8.8661  -16.8564   22.7675 C   0  0  0  0  0  0  0  0  0  0  0  0
    8.1838  -17.3625   23.6904 O   0  0  0  0  0  0  0  0  0  0  0  0
    7.4177  -12.8905   20.2764 C   0  0  0  0  0  0  0  0  0  0  0  0
    7.2715  -12.2791   19.0532 C   0  0  0  0  0  0  0  0  0  0  0  0
   10.2768  -16.7692   22.9787 N   0  0  0  0  0  0  0  0  0  0  0  0
   10.8930  -17.1967   24.2219 C   0  0  1  0  0  0  0  0  0  0  0  0
   12.3784  -17.3770   23.9059 C   0  0  0  0  0  0  0  0  0  0  0  0
   12.6098  -18.3954   22.8648 C   0  0  0  0  0  0  0  0  0  0  0  0
   12.1070  -19.5479   22.9293 O   0  0  0  0  0  0  0  0  0  0  0  0
   10.8095  -16.1510   25.2647 C   0  0  0  0  0  0  0  0  0  0  0  0
   11.6890  -15.2433   25.2996 O   0  0  0  0  0  0  0  0  0  0  0  0
   13.4038  -18.0832   21.7780 O   0  0  0  0  0  0  0  0  0  0  0  0
    6.7788  -13.0758   26.4655 C   0  0  0  0  0  0  0  0  0  0  0  0
    8.2133  -13.6048   26.3367 C   0  0  1  0  0  0  0  0  0  0  0  0
    9.1731  -12.4020   26.2994 C   0  0  0  0  0  0  0  0  0  0  0  0
    8.5128  -14.4616   27.5266 C   0  0  0  0  0  0  0  0  0  0  0  0
    9.8401  -15.1421   27.3867 C   0  0  2  0  0  0  0  0  0  0  0  0
    9.7984  -16.0880   26.2472 N   0  0  0  0  0  0  0  0  0  0  0  0
   10.1373  -15.9394   28.5798 C   0  0  0  0  0  0  0  0  0  0  0  0
   10.0514  -17.3346   28.5713 O   0  0  0  0  0  0  0  0  0  0  0  0
   10.4821  -15.4408   29.6715 O   0  0  0  0  0  0  0  0  0  0  0  0
  2  1  1  0
  2 12  2  0
  3  2  1  0
  4  3  2  0
  4  5  1  0
  5 11  2  0
  6  7  1  0
  6  5  1  0
  7  8  1  1
  9  7  1  0
  9 10  2  0
 11 12  1  0
 13  9  1  0
 14 13  1  0
 14 18  1  0
 14 15  1  6
 16 15  1  0
 16 17  2  0
 18 19  2  0
 20 16  1  0
 22 21  1  1
 22 24  1  0
 22 23  1  0
 25 24  1  1
 25 27  1  0
 26 18  1  0
 26 25  1  0
 27 29  2  0
 27 28  1  0
M  END
$$$$
