YDL.pdb
     RDKit          3D

 29 29  0  0  1  0  0  0  0  0999 V2000
    6.8675  -13.0361   15.5002 O   0  0  0  0  0  0  0  0  0  0  0  0
    7.0943  -13.5480   16.7752 C   0  0  0  0  0  0  0  0  0  0  0  0
    6.7700  -14.8747   17.0190 C   0  0  0  0  0  0  0  0  0  0  0  0
    6.9804  -15.4128   18.2655 C   0  0  0  0  0  0  0  0  0  0  0  0
    7.5098  -14.6448   19.2703 C   0  0  0  0  0  0  0  0  0  0  0  0
    7.7063  -15.2652   20.5995 C   0  0  0  0  0  0  0  0  0  0  0  0
    9.0912  -15.0568   21.1709 C   0  0  2  0  0  0  0  0  0  0  0  0
   10.0455  -15.3757   20.1168 N   0  0  0  0  0  0  0  0  0  0  0  0
    9.2862  -15.9384   22.3409 C   0  0  0  0  0  0  0  0  0  0  0  0
    8.4438  -15.9202   23.2702 O   0  0  0  0  0  0  0  0  0  0  0  0
    7.8273  -13.3346   19.0220 C   0  0  0  0  0  0  0  0  0  0  0  0
    7.6225  -12.7819   17.7795 C   0  0  0  0  0  0  0  0  0  0  0  0
   10.3938  -16.8292   22.4887 N   0  0  0  0  0  0  0  0  0  0  0  0
   10.5509  -17.6677   23.6635 C   0  0  1  0  0  0  0  0  0  0  0  0
   11.7718  -18.5452   23.3844 C   0  0  0  0  0  0  0  0  0  0  0  0
   11.5288  -19.5142   22.2997 C   0  0  0  0  0  0  0  0  0  0  0  0
   10.4304  -20.1157   22.1704 O   0  0  0  0  0  0  0  0  0  0  0  0
   10.8723  -16.8717   24.8680 C   0  0  0  0  0  0  0  0  0  0  0  0
   11.8213  -16.0375   24.8206 O   0  0  0  0  0  0  0  0  0  0  0  0
   12.5348  -19.7772   21.3899 O   0  0  0  0  0  0  0  0  0  0  0  0
   11.1128  -13.3520   28.1708 C   0  0  0  0  0  0  0  0  0  0  0  0
    9.6638  -13.8561   28.1537 C   0  0  1  0  0  0  0  0  0  0  0  0
    8.7322  -12.6493   27.9413 C   0  0  0  0  0  0  0  0  0  0  0  0
    9.5109  -14.8255   27.0240 C   0  0  0  0  0  0  0  0  0  0  0  0
   10.3863  -16.0262   27.2152 C   0  0  2  0  0  0  0  0  0  0  0  0
   10.1837  -16.9749   26.0955 N   0  0  0  0  0  0  0  0  0  0  0  0
   10.0174  -16.7416   28.4397 C   0  0  0  0  0  0  0  0  0  0  0  0
    9.3575  -17.9733   28.4007 O   0  0  0  0  0  0  0  0  0  0  0  0
   10.2602  -16.3117   29.5868 O   0  0  0  0  0  0  0  0  0  0  0  0
  2  1  1  0
  2 12  2  0
  3  2  1  0
  4  3  2  0
  4  5  1  0
  5 11  2  0
  6  7  1  0
  6  5  1  0
  7  8  1  6
  9  7  1  0
  9 10  2  0
 11 12  1  0
 13  9  1  0
 14 13  1  0
 14 18  1  0
 14 15  1  6
 16 15  1  0
 16 17  2  0
 18 19  2  0
 20 16  1  0
 22 21  1  6
 22 24  1  0
 22 23  1  0
 25 24  1  6
 25 27  1  0
 26 18  1  0
 26 25  1  0
 27 29  2  0
 27 28  1  0
M  END
$$$$
