YDL.pdb
     RDKit          3D

 29 29  0  0  1  0  0  0  0  0999 V2000
    7.3073  -12.2349   16.8790 O   0  0  0  0  0  0  0  0  0  0  0  0
    7.6432  -12.9252   18.0407 C   0  0  0  0  0  0  0  0  0  0  0  0
    8.7166  -13.8030   17.9977 C   0  0  0  0  0  0  0  0  0  0  0  0
    9.0759  -14.5008   19.1253 C   0  0  0  0  0  0  0  0  0  0  0  0
    8.3784  -14.3338   20.2938 C   0  0  0  0  0  0  0  0  0  0  0  0
    8.7951  -15.1168   21.4786 C   0  0  0  0  0  0  0  0  0  0  0  0
    8.8620  -16.6076   21.2314 C   0  0  2  0  0  0  0  0  0  0  0  0
    7.5012  -17.0655   20.9831 N   0  0  0  0  0  0  0  0  0  0  0  0
    9.4370  -17.2840   22.4129 C   0  0  0  0  0  0  0  0  0  0  0  0
    8.6694  -17.7251   23.3016 O   0  0  0  0  0  0  0  0  0  0  0  0
    7.3187  -13.4651   20.3286 C   0  0  0  0  0  0  0  0  0  0  0  0
    6.9472  -12.7595   19.2081 C   0  0  0  0  0  0  0  0  0  0  0  0
   10.8388  -17.4731   22.6163 N   0  0  0  0  0  0  0  0  0  0  0  0
   11.3606  -18.1021   23.8163 C   0  0  1  0  0  0  0  0  0  0  0  0
   12.8127  -18.4600   23.4969 C   0  0  0  0  0  0  0  0  0  0  0  0
   12.9183  -19.4723   22.4299 C   0  0  0  0  0  0  0  0  0  0  0  0
   12.1078  -20.4306   22.3309 O   0  0  0  0  0  0  0  0  0  0  0  0
   11.4011  -17.1613   24.9569 C   0  0  0  0  0  0  0  0  0  0  0  0
   11.9963  -16.0540   24.8220 O   0  0  0  0  0  0  0  0  0  0  0  0
   13.9380  -19.3738   21.5027 O   0  0  0  0  0  0  0  0  0  0  0  0
   10.9307  -13.5895   28.1417 C   0  0  0  0  0  0  0  0  0  0  0  0
    9.6695  -14.4552   28.2613 C   0  0  1  0  0  0  0  0  0  0  0  0
    8.4384  -13.5425   28.1171 C   0  0  0  0  0  0  0  0  0  0  0  0
    9.6844  -15.4714   27.1628 C   0  0  0  0  0  0  0  0  0  0  0  0
   10.8269  -16.4275   27.3217 C   0  0  2  0  0  0  0  0  0  0  0  0
   10.8116  -17.4117   26.2145 N   0  0  0  0  0  0  0  0  0  0  0  0
   10.6870  -17.1940   28.5628 C   0  0  0  0  0  0  0  0  0  0  0  0
   11.3735  -16.8382   29.7274 O   0  0  0  0  0  0  0  0  0  0  0  0
    9.9585  -18.2026   28.6696 O   0  0  0  0  0  0  0  0  0  0  0  0
  2  1  1  0
  2 12  2  0
  3  2  1  0
  4  3  2  0
  4  5  1  0
  5 11  2  0
  6  7  1  0
  6  5  1  0
  7  8  1  1
  9  7  1  0
  9 10  2  0
 11 12  1  0
 13  9  1  0
 14 13  1  0
 14 18  1  0
 14 15  1  6
 16 15  1  0
 16 17  2  0
 18 19  2  0
 20 16  1  0
 22 21  1  6
 22 24  1  0
 22 23  1  0
 25 24  1  6
 25 27  1  0
 26 18  1  0
 26 25  1  0
 27 29  2  0
 27 28  1  0
M  END
$$$$
