YDL.pdb
     RDKit          3D

 29 29  0  0  1  0  0  0  0  0999 V2000
    7.4875  -12.1880   16.5986 O   0  0  0  0  0  0  0  0  0  0  0  0
    7.5570  -12.8078   17.8435 C   0  0  0  0  0  0  0  0  0  0  0  0
    8.7966  -12.9158   18.4568 C   0  0  0  0  0  0  0  0  0  0  0  0
    8.9022  -13.5214   19.6855 C   0  0  0  0  0  0  0  0  0  0  0  0
    7.7875  -14.0199   20.3091 C   0  0  0  0  0  0  0  0  0  0  0  0
    7.9531  -14.6748   21.6259 C   0  0  0  0  0  0  0  0  0  0  0  0
    8.5249  -16.0728   21.5439 C   0  0  2  0  0  0  0  0  0  0  0  0
    7.4939  -16.9279   20.9701 N   0  0  0  0  0  0  0  0  0  0  0  0
    8.9016  -16.5379   22.8951 C   0  0  0  0  0  0  0  0  0  0  0  0
    8.0067  -16.9358   23.6789 O   0  0  0  0  0  0  0  0  0  0  0  0
    6.5660  -13.9098   19.6968 C   0  0  0  0  0  0  0  0  0  0  0  0
    6.4446  -13.3062   18.4671 C   0  0  0  0  0  0  0  0  0  0  0  0
   10.2456  -16.5652   23.3800 N   0  0  0  0  0  0  0  0  0  0  0  0
   10.5693  -17.0394   24.7135 C   0  0  1  0  0  0  0  0  0  0  0  0
   12.0214  -17.5138   24.6420 C   0  0  0  0  0  0  0  0  0  0  0  0
   12.2448  -18.4693   23.5412 C   0  0  0  0  0  0  0  0  0  0  0  0
   11.5679  -19.5240   23.4199 O   0  0  0  0  0  0  0  0  0  0  0  0
   10.5333  -15.9465   25.7094 C   0  0  0  0  0  0  0  0  0  0  0  0
   11.2712  -14.9338   25.5406 O   0  0  0  0  0  0  0  0  0  0  0  0
   13.2278  -18.2065   22.6066 O   0  0  0  0  0  0  0  0  0  0  0  0
    6.1695  -13.7305   27.5127 C   0  0  0  0  0  0  0  0  0  0  0  0
    7.6366  -13.9221   27.1064 C   0  0  1  0  0  0  0  0  0  0  0  0
    8.2158  -12.5504   26.7165 C   0  0  0  0  0  0  0  0  0  0  0  0
    8.3850  -14.4796   28.2763 C   0  0  0  0  0  0  0  0  0  0  0  0
    9.7751  -14.8837   27.8903 C   0  0  2  0  0  0  0  0  0  0  0  0
    9.7180  -15.9481   26.8614 N   0  0  0  0  0  0  0  0  0  0  0  0
   10.4829  -15.4530   29.0403 C   0  0  0  0  0  0  0  0  0  0  0  0
   10.8386  -16.8041   29.0889 O   0  0  0  0  0  0  0  0  0  0  0  0
   10.8139  -14.7861   30.0429 O   0  0  0  0  0  0  0  0  0  0  0  0
  2  1  1  0
  2 12  2  0
  3  2  1  0
  4  3  2  0
  4  5  1  0
  5 11  2  0
  6  7  1  0
  6  5  1  0
  7  8  1  1
  9  7  1  0
  9 10  2  0
 11 12  1  0
 13  9  1  0
 14 13  1  0
 14 18  1  0
 14 15  1  6
 16 15  1  0
 16 17  2  0
 18 19  2  0
 20 16  1  0
 22 21  1  1
 22 24  1  0
 22 23  1  0
 25 24  1  1
 25 27  1  0
 26 18  1  0
 26 25  1  0
 27 29  2  0
 27 28  1  0
M  END
$$$$
