YDL.pdb
     RDKit          3D

 29 29  0  0  1  0  0  0  0  0999 V2000
    7.6742  -12.2602   16.3869 O   0  0  0  0  0  0  0  0  0  0  0  0
    7.7459  -12.8433   17.6494 C   0  0  0  0  0  0  0  0  0  0  0  0
    8.9794  -13.2931   18.0975 C   0  0  0  0  0  0  0  0  0  0  0  0
    9.0869  -13.8735   19.3381 C   0  0  0  0  0  0  0  0  0  0  0  0
    7.9805  -14.0105   20.1361 C   0  0  0  0  0  0  0  0  0  0  0  0
    8.1438  -14.6535   21.4591 C   0  0  0  0  0  0  0  0  0  0  0  0
    8.6900  -16.0623   21.3889 C   0  0  2  0  0  0  0  0  0  0  0  0
    7.6714  -16.8890   20.7546 N   0  0  0  0  0  0  0  0  0  0  0  0
    8.9891  -16.5499   22.7516 C   0  0  0  0  0  0  0  0  0  0  0  0
    8.0501  -16.9529   23.4792 O   0  0  0  0  0  0  0  0  0  0  0  0
    6.7649  -13.5640   19.6864 C   0  0  0  0  0  0  0  0  0  0  0  0
    6.6417  -12.9809   18.4470 C   0  0  0  0  0  0  0  0  0  0  0  0
   10.3043  -16.5939   23.3088 N   0  0  0  0  0  0  0  0  0  0  0  0
   10.5504  -17.0818   24.6539 C   0  0  1  0  0  0  0  0  0  0  0  0
   11.9723  -17.6445   24.6355 C   0  0  0  0  0  0  0  0  0  0  0  0
   12.0821  -18.8621   23.8109 C   0  0  0  0  0  0  0  0  0  0  0  0
   12.9986  -19.0177   22.9620 O   0  0  0  0  0  0  0  0  0  0  0  0
   10.5457  -15.9848   25.6460 C   0  0  0  0  0  0  0  0  0  0  0  0
   11.5459  -15.2148   25.7186 O   0  0  0  0  0  0  0  0  0  0  0  0
   11.1522  -19.8718   23.9686 O   0  0  0  0  0  0  0  0  0  0  0  0
    6.5587  -12.5760   26.7075 C   0  0  0  0  0  0  0  0  0  0  0  0
    7.9248  -13.2476   26.5150 C   0  0  1  0  0  0  0  0  0  0  0  0
    8.9756  -12.1497   26.2710 C   0  0  0  0  0  0  0  0  0  0  0  0
    8.2599  -14.0090   27.7590 C   0  0  0  0  0  0  0  0  0  0  0  0
    9.5710  -14.7213   27.6244 C   0  0  2  0  0  0  0  0  0  0  0  0
    9.4841  -15.7260   26.5391 N   0  0  0  0  0  0  0  0  0  0  0  0
    9.8837  -15.4590   28.8514 C   0  0  0  0  0  0  0  0  0  0  0  0
   10.4075  -14.8205   29.9792 O   0  0  0  0  0  0  0  0  0  0  0  0
    9.7091  -16.6890   28.9775 O   0  0  0  0  0  0  0  0  0  0  0  0
  2  1  1  0
  2 12  2  0
  3  2  1  0
  4  3  2  0
  4  5  1  0
  5 11  2  0
  6  7  1  0
  6  5  1  0
  7  8  1  1
  9  7  1  0
  9 10  2  0
 11 12  1  0
 13  9  1  0
 14 13  1  0
 14 18  1  0
 14 15  1  6
 16 15  1  0
 16 17  2  0
 18 19  2  0
 20 16  1  0
 22 21  1  1
 22 24  1  0
 22 23  1  0
 25 24  1  1
 25 27  1  0
 26 18  1  0
 26 25  1  0
 27 29  2  0
 27 28  1  0
M  END
$$$$
