YDL.pdb
     RDKit          3D

 29 29  0  0  1  0  0  0  0  0999 V2000
    7.3551  -12.0737   17.4013 O   0  0  0  0  0  0  0  0  0  0  0  0
    7.4845  -12.8968   18.5169 C   0  0  0  0  0  0  0  0  0  0  0  0
    8.4536  -12.5820   19.4583 C   0  0  0  0  0  0  0  0  0  0  0  0
    8.6091  -13.3723   20.5714 C   0  0  0  0  0  0  0  0  0  0  0  0
    7.8105  -14.4713   20.7566 C   0  0  0  0  0  0  0  0  0  0  0  0
    8.0240  -15.2991   21.9647 C   0  0  0  0  0  0  0  0  0  0  0  0
    9.1859  -16.2605   21.8474 C   0  0  2  0  0  0  0  0  0  0  0  0
    8.9156  -17.1273   20.7078 N   0  0  0  0  0  0  0  0  0  0  0  0
    9.3080  -17.0497   23.0910 C   0  0  0  0  0  0  0  0  0  0  0  0
    8.8309  -18.2091   23.1314 O   0  0  0  0  0  0  0  0  0  0  0  0
    6.8553  -14.7763   19.8219 C   0  0  0  0  0  0  0  0  0  0  0  0
    6.6878  -13.9947   18.7028 C   0  0  0  0  0  0  0  0  0  0  0  0
    9.9462  -16.5708   24.2765 N   0  0  0  0  0  0  0  0  0  0  0  0
   10.7230  -17.4465   25.1354 C   0  0  1  0  0  0  0  0  0  0  0  0
   11.8845  -17.9451   24.2746 C   0  0  0  0  0  0  0  0  0  0  0  0
   12.8220  -18.7918   25.0354 C   0  0  0  0  0  0  0  0  0  0  0  0
   14.0503  -18.5277   25.1171 O   0  0  0  0  0  0  0  0  0  0  0  0
   11.3255  -16.7117   26.2688 C   0  0  0  0  0  0  0  0  0  0  0  0
   12.2364  -17.2657   26.9485 O   0  0  0  0  0  0  0  0  0  0  0  0
   12.3454  -19.9149   25.6838 O   0  0  0  0  0  0  0  0  0  0  0  0
    7.1022  -13.6799   26.8506 C   0  0  0  0  0  0  0  0  0  0  0  0
    8.6209  -13.8988   26.8438 C   0  0  1  0  0  0  0  0  0  0  0  0
    9.3085  -12.5395   27.0651 C   0  0  0  0  0  0  0  0  0  0  0  0
    8.9711  -14.8364   27.9564 C   0  0  0  0  0  0  0  0  0  0  0  0
   10.4474  -15.0853   28.0136 C   0  0  2  0  0  0  0  0  0  0  0  0
   10.9521  -15.4077   26.6586 N   0  0  0  0  0  0  0  0  0  0  0  0
   10.7403  -16.2486   28.8554 C   0  0  0  0  0  0  0  0  0  0  0  0
   10.2606  -17.5232   28.5400 O   0  0  0  0  0  0  0  0  0  0  0  0
   11.4264  -16.1882   29.8970 O   0  0  0  0  0  0  0  0  0  0  0  0
  2  1  1  0
  2 12  2  0
  3  2  1  0
  4  3  2  0
  4  5  1  0
  5 11  2  0
  6  7  1  0
  6  5  1  0
  7  8  1  6
  9  7  1  0
  9 10  2  0
 11 12  1  0
 13  9  1  0
 14 13  1  0
 14 18  1  0
 14 15  1  6
 16 15  1  0
 16 17  2  0
 18 19  2  0
 20 16  1  0
 22 21  1  1
 22 24  1  0
 22 23  1  0
 25 24  1  6
 25 27  1  0
 26 18  1  0
 26 25  1  0
 27 29  2  0
 27 28  1  0
M  END
$$$$
