YDL.pdb
     RDKit          3D

 29 29  0  0  1  0  0  0  0  0999 V2000
   11.6695  -16.0013   31.6973 O   0  0  0  0  0  0  0  0  0  0  0  0
   10.8914  -16.1841   30.5571 C   0  0  0  0  0  0  0  0  0  0  0  0
   10.3268  -17.4323   30.3387 C   0  0  0  0  0  0  0  0  0  0  0  0
    9.5533  -17.6482   29.2239 C   0  0  0  0  0  0  0  0  0  0  0  0
    9.3364  -16.6354   28.3255 C   0  0  0  0  0  0  0  0  0  0  0  0
    8.5068  -16.9196   27.1334 C   0  0  0  0  0  0  0  0  0  0  0  0
    8.7234  -18.3004   26.5549 C   0  0  2  0  0  0  0  0  0  0  0  0
   10.1473  -18.5928   26.6576 N   0  0  0  0  0  0  0  0  0  0  0  0
    8.2820  -18.3254   25.1447 C   0  0  0  0  0  0  0  0  0  0  0  0
    9.1010  -18.6474   24.2508 O   0  0  0  0  0  0  0  0  0  0  0  0
    9.8981  -15.4049   28.5478 C   0  0  0  0  0  0  0  0  0  0  0  0
   10.6745  -15.1736   29.6590 C   0  0  0  0  0  0  0  0  0  0  0  0
    6.9565  -18.0001   24.7212 N   0  0  0  0  0  0  0  0  0  0  0  0
    6.5998  -17.9177   23.3163 C   0  0  1  0  0  0  0  0  0  0  0  0
    5.1138  -18.2716   23.2459 C   0  0  0  0  0  0  0  0  0  0  0  0
    4.6116  -18.3073   21.8599 C   0  0  0  0  0  0  0  0  0  0  0  0
    5.3195  -18.7091   20.8994 O   0  0  0  0  0  0  0  0  0  0  0  0
    6.7281  -16.5388   22.7966 C   0  0  0  0  0  0  0  0  0  0  0  0
    6.4463  -16.3074   21.5859 O   0  0  0  0  0  0  0  0  0  0  0  0
    3.3218  -17.8875   21.5968 O   0  0  0  0  0  0  0  0  0  0  0  0
    7.8832  -12.5547   26.4054 C   0  0  0  0  0  0  0  0  0  0  0  0
    7.3384  -13.4929   25.3203 C   0  0  1  0  0  0  0  0  0  0  0  0
    5.8444  -13.1836   25.1162 C   0  0  0  0  0  0  0  0  0  0  0  0
    8.0910  -13.2404   24.0517 C   0  0  0  0  0  0  0  0  0  0  0  0
    7.6605  -14.1804   22.9675 C   0  0  2  0  0  0  0  0  0  0  0  0
    7.1510  -15.4353   23.5680 N   0  0  0  0  0  0  0  0  0  0  0  0
    8.8018  -14.5535   22.1275 C   0  0  0  0  0  0  0  0  0  0  0  0
    9.4205  -13.6325   21.2771 O   0  0  0  0  0  0  0  0  0  0  0  0
    9.2963  -15.7001   22.1092 O   0  0  0  0  0  0  0  0  0  0  0  0
  2  1  1  0
  2 12  2  0
  3  2  1  0
  4  3  2  0
  4  5  1  0
  5 11  2  0
  6  7  1  0
  6  5  1  0
  7  8  1  6
  9  7  1  0
  9 10  2  0
 11 12  1  0
 13  9  1  0
 14 13  1  0
 14 18  1  0
 14 15  1  1
 16 15  1  0
 16 17  2  0
 18 19  2  0
 20 16  1  0
 22 21  1  1
 22 24  1  0
 22 23  1  0
 25 24  1  1
 25 27  1  0
 26 18  1  0
 26 25  1  0
 27 29  2  0
 27 28  1  0
M  END
$$$$
