ETA.pdb
     RDKit          3D

 22 21  0  0  1  0  0  0  0  0999 V2000
   19.6151  -12.4553  -15.6369 N   0  0  0  0  0  0  0  0  0  0  0  0
   19.0110  -11.2138  -15.9440 C   0  0  1  0  0  0  0  0  0  0  0  0
   17.5653  -11.2821  -15.4650 C   0  0  0  0  0  0  0  0  0  0  0  0
   16.8759  -12.3427  -16.2892 C   0  0  0  0  0  0  0  0  0  0  0  0
   15.4457  -12.4245  -15.9652 C   0  0  0  0  0  0  0  0  0  0  0  0
   14.5344  -11.7068  -16.4192 O   0  0  0  0  0  0  0  0  0  0  0  0
   19.7137  -10.0869  -15.2461 C   0  0  0  0  0  0  0  0  0  0  0  0
   19.7805   -9.9706  -14.0030 O   0  0  0  0  0  0  0  0  0  0  0  0
   15.0544  -13.4143  -15.0468 O   0  0  0  0  0  0  0  0  0  0  0  0
   23.1937   -9.4314  -15.3366 C   0  0  0  0  0  0  0  0  0  0  0  0
   22.5311   -8.1927  -15.9440 C   0  0  1  0  0  0  0  0  0  0  0  0
   22.5481   -8.3891  -17.3254 O   0  0  0  0  0  0  0  0  0  0  0  0
   21.1057   -8.0579  -15.4508 C   0  0  2  0  0  0  0  0  0  0  0  0
   20.3344   -9.1032  -16.0409 N   0  0  0  0  0  0  0  0  0  0  0  0
   20.5936   -6.7522  -16.0320 C   0  0  0  0  0  0  0  0  0  0  0  0
   19.8731   -6.7608  -17.0464 O   0  0  0  0  0  0  0  0  0  0  0  0
   19.1088   -4.1153  -16.3086 C   0  0  0  0  0  0  0  0  0  0  0  0
   20.5441   -4.2348  -15.9113 C   0  0  2  0  0  0  0  0  0  0  0  0
   20.9266   -5.5193  -15.4329 N   0  0  0  0  0  0  0  0  0  0  0  0
   21.0322   -3.0579  -15.1908 C   0  0  0  0  0  0  0  0  0  0  0  0
   20.8759   -1.9341  -15.7482 O   0  0  0  0  0  0  0  0  0  0  0  0
   21.6383   -3.1187  -13.9756 O   0  0  0  0  0  0  0  0  0  0  0  0
  2  1  1  1
  2  3  1  0
  3  4  1  0
  4  5  1  0
  5  6  2  0
  5  9  1  0
  7 14  1  0
  7  2  1  0
  8  7  2  0
 11 10  1  1
 11 13  1  0
 12 11  1  0
 13 14  1  6
 13 15  1  0
 15 19  1  0
 16 15  2  0
 18 20  1  0
 18 17  1  1
 19 18  1  0
 20 22  1  0
 21 20  2  0
M  END
$$$$
