ETA.pdb
     RDKit          3D

 22 21  0  0  1  0  0  0  0  0999 V2000
   18.4065  -11.8179  -16.8474 N   0  0  0  0  0  0  0  0  0  0  0  0
   19.4726  -10.9069  -17.0326 C   0  0  1  0  0  0  0  0  0  0  0  0
   19.3359  -10.3280  -18.4362 C   0  0  0  0  0  0  0  0  0  0  0  0
   17.8829   -9.9634  -18.6248 C   0  0  0  0  0  0  0  0  0  0  0  0
   17.6364   -9.4326  -19.9719 C   0  0  0  0  0  0  0  0  0  0  0  0
   17.5734  -10.0840  -21.0318 O   0  0  0  0  0  0  0  0  0  0  0  0
   19.4100   -9.7949  -16.0274 C   0  0  0  0  0  0  0  0  0  0  0  0
   18.3498   -9.3853  -15.5064 O   0  0  0  0  0  0  0  0  0  0  0  0
   17.4504   -8.0440  -20.0871 O   0  0  0  0  0  0  0  0  0  0  0  0
   21.2040   -9.9817  -12.9100 C   0  0  0  0  0  0  0  0  0  0  0  0
   21.6715   -8.6842  -13.5735 C   0  0  1  0  0  0  0  0  0  0  0  0
   22.8821   -8.9888  -14.1970 O   0  0  0  0  0  0  0  0  0  0  0  0
   20.6577   -8.2163  -14.5965 C   0  0  2  0  0  0  0  0  0  0  0  0
   20.6188   -9.1777  -15.6501 N   0  0  0  0  0  0  0  0  0  0  0  0
   21.2312   -6.9405  -15.1867 C   0  0  0  0  0  0  0  0  0  0  0  0
   21.6436   -6.9264  -16.3605 O   0  0  0  0  0  0  0  0  0  0  0  0
   21.0786   -4.0470  -16.1630 C   0  0  0  0  0  0  0  0  0  0  0  0
   21.7229   -4.4862  -14.8886 C   0  0  2  0  0  0  0  0  0  0  0  0
   21.3039   -5.7614  -14.4158 N   0  0  0  0  0  0  0  0  0  0  0  0
   21.8535   -3.3999  -13.9163 C   0  0  0  0  0  0  0  0  0  0  0  0
   21.0615   -3.4091  -12.9310 O   0  0  0  0  0  0  0  0  0  0  0  0
   22.7668   -2.3992  -14.0258 O   0  0  0  0  0  0  0  0  0  0  0  0
  2  1  1  1
  2  3  1  0
  3  4  1  0
  4  5  1  0
  5  6  2  0
  5  9  1  0
  7 14  1  0
  7  2  1  0
  8  7  2  0
 11 10  1  6
 11 13  1  0
 12 11  1  0
 13 14  1  6
 13 15  1  0
 15 19  1  0
 16 15  2  0
 18 20  1  0
 18 17  1  6
 19 18  1  0
 20 22  1  0
 21 20  2  0
M  END
$$$$
