ETA.pdb
     RDKit          3D

 22 21  0  0  1  0  0  0  0  0999 V2000
   13.6126   -9.1725   -8.9844 N   0  0  0  0  0  0  0  0  0  0  0  0
   14.9166   -9.2331   -9.5289 C   0  0  1  0  0  0  0  0  0  0  0  0
   14.8782  -10.2214  -10.6890 C   0  0  0  0  0  0  0  0  0  0  0  0
   14.5856  -11.5814  -10.1019 C   0  0  0  0  0  0  0  0  0  0  0  0
   14.5776  -12.6203  -11.1402 C   0  0  0  0  0  0  0  0  0  0  0  0
   15.5350  -12.9674  -11.8574 O   0  0  0  0  0  0  0  0  0  0  0  0
   15.3509   -7.8890  -10.0345 C   0  0  0  0  0  0  0  0  0  0  0  0
   14.5824   -6.9112  -10.1633 O   0  0  0  0  0  0  0  0  0  0  0  0
   13.3659  -13.3002  -11.3540 O   0  0  0  0  0  0  0  0  0  0  0  0
   15.6938   -5.2434   -9.2240 C   0  0  0  0  0  0  0  0  0  0  0  0
   17.1465   -5.5092   -9.6257 C   0  0  1  0  0  0  0  0  0  0  0  0
   17.7508   -6.0910   -8.5107 O   0  0  0  0  0  0  0  0  0  0  0  0
   17.2058   -6.4543  -10.8074 C   0  0  2  0  0  0  0  0  0  0  0  0
   16.7054   -7.7216  -10.3838 N   0  0  0  0  0  0  0  0  0  0  0  0
   18.6822   -6.6426  -11.1068 C   0  0  0  0  0  0  0  0  0  0  0  0
   19.4326   -7.1478  -10.2525 O   0  0  0  0  0  0  0  0  0  0  0  0
   20.7330   -6.8020  -14.2064 C   0  0  0  0  0  0  0  0  0  0  0  0
   20.5669   -6.4349  -12.7678 C   0  0  2  0  0  0  0  0  0  0  0  0
   19.2191   -6.2491  -12.3504 N   0  0  0  0  0  0  0  0  0  0  0  0
   21.5689   -5.4712  -12.3098 C   0  0  0  0  0  0  0  0  0  0  0  0
   21.1834   -4.2814  -12.1258 O   0  0  0  0  0  0  0  0  0  0  0  0
   22.8703   -5.7910  -12.0827 O   0  0  0  0  0  0  0  0  0  0  0  0
  2  1  1  6
  2  3  1  0
  3  4  1  0
  4  5  1  0
  5  6  2  0
  5  9  1  0
  7 14  1  0
  7  2  1  0
  8  7  2  0
 11 10  1  1
 11 13  1  0
 12 11  1  0
 13 14  1  1
 13 15  1  0
 15 19  1  0
 16 15  2  0
 18 20  1  0
 18 17  1  6
 19 18  1  0
 20 22  1  0
 21 20  2  0
M  END
$$$$
