ETA.pdb
     RDKit          3D

 22 21  0  0  1  0  0  0  0  0999 V2000
   17.2020  -12.2318  -16.8726 N   0  0  0  0  0  0  0  0  0  0  0  0
   17.2563  -10.8884  -16.4334 C   0  0  1  0  0  0  0  0  0  0  0  0
   16.4450  -10.7990  -15.1458 C   0  0  0  0  0  0  0  0  0  0  0  0
   15.0073  -11.0841  -15.5083 C   0  0  0  0  0  0  0  0  0  0  0  0
   14.1341  -11.0050  -14.3299 C   0  0  0  0  0  0  0  0  0  0  0  0
   14.1476  -11.7582  -13.3379 O   0  0  0  0  0  0  0  0  0  0  0  0
   18.6707  -10.4690  -16.1604 C   0  0  0  0  0  0  0  0  0  0  0  0
   19.5765  -11.2574  -15.8120 O   0  0  0  0  0  0  0  0  0  0  0  0
   13.1794   -9.9733  -14.3105 O   0  0  0  0  0  0  0  0  0  0  0  0
   20.9008   -9.1544  -18.5446 C   0  0  0  0  0  0  0  0  0  0  0  0
   20.7778   -8.0582  -17.4837 C   0  0  1  0  0  0  0  0  0  0  0  0
   19.8132   -7.1706  -17.9618 O   0  0  0  0  0  0  0  0  0  0  0  0
   20.3379   -8.6479  -16.1600 C   0  0  2  0  0  0  0  0  0  0  0  0
   18.9945   -9.1058  -16.3062 N   0  0  0  0  0  0  0  0  0  0  0  0
   20.3019   -7.4842  -15.1857 C   0  0  0  0  0  0  0  0  0  0  0  0
   19.3241   -6.7150  -15.1683 O   0  0  0  0  0  0  0  0  0  0  0  0
   22.1452   -6.5610  -12.0674 C   0  0  0  0  0  0  0  0  0  0  0  0
   21.4502   -6.2059  -13.3413 C   0  0  2  0  0  0  0  0  0  0  0  0
   21.3710   -7.2611  -14.2929 N   0  0  0  0  0  0  0  0  0  0  0  0
   21.7991   -4.8685  -13.8232 C   0  0  0  0  0  0  0  0  0  0  0  0
   22.3478   -4.7895  -14.9593 O   0  0  0  0  0  0  0  0  0  0  0  0
   21.5686   -3.7310  -13.1156 O   0  0  0  0  0  0  0  0  0  0  0  0
  2  1  1  1
  2  3  1  0
  3  4  1  0
  4  5  1  0
  5  6  2  0
  5  9  1  0
  7 14  1  0
  7  2  1  0
  8  7  2  0
 11 10  1  6
 11 13  1  0
 12 11  1  0
 13 14  1  6
 13 15  1  0
 15 19  1  0
 16 15  2  0
 18 20  1  0
 18 17  1  1
 19 18  1  0
 20 22  1  0
 21 20  2  0
M  END
$$$$
