ETA.pdb
     RDKit          3D

 22 21  0  0  1  0  0  0  0  0999 V2000
   19.0293   -9.1338  -13.5210 N   0  0  0  0  0  0  0  0  0  0  0  0
   18.9886   -8.2988  -12.3801 C   0  0  1  0  0  0  0  0  0  0  0  0
   19.6753   -6.9894  -12.7517 C   0  0  0  0  0  0  0  0  0  0  0  0
   21.1544   -7.2771  -12.8466 C   0  0  0  0  0  0  0  0  0  0  0  0
   21.9233   -6.0475  -13.0791 C   0  0  0  0  0  0  0  0  0  0  0  0
   22.3139   -5.6066  -14.1767 O   0  0  0  0  0  0  0  0  0  0  0  0
   17.5731   -8.0192  -11.9690 C   0  0  0  0  0  0  0  0  0  0  0  0
   16.5757   -8.3004  -12.6686 O   0  0  0  0  0  0  0  0  0  0  0  0
   22.2582   -5.2805  -11.9496 O   0  0  0  0  0  0  0  0  0  0  0  0
   14.3856   -7.3076   -8.4515 C   0  0  0  0  0  0  0  0  0  0  0  0
   15.7980   -7.6398   -8.9386 C   0  0  1  0  0  0  0  0  0  0  0  0
   15.8575   -9.0317   -9.0168 O   0  0  0  0  0  0  0  0  0  0  0  0
   16.0474   -7.0267  -10.3006 C   0  0  2  0  0  0  0  0  0  0  0  0
   17.3580   -7.4035  -10.7203 N   0  0  0  0  0  0  0  0  0  0  0  0
   16.0729   -5.5257  -10.0749 C   0  0  0  0  0  0  0  0  0  0  0  0
   16.9407   -5.0197   -9.3407 O   0  0  0  0  0  0  0  0  0  0  0  0
   14.0521   -2.6103  -11.4534 C   0  0  0  0  0  0  0  0  0  0  0  0
   15.0431   -3.2754  -10.5548 C   0  0  2  0  0  0  0  0  0  0  0  0
   15.1180   -4.6900  -10.6911 N   0  0  0  0  0  0  0  0  0  0  0  0
   15.0500   -2.7123   -9.2038 C   0  0  0  0  0  0  0  0  0  0  0  0
   14.3005   -3.2608   -8.3462 O   0  0  0  0  0  0  0  0  0  0  0  0
   15.8073   -1.6442   -8.8387 O   0  0  0  0  0  0  0  0  0  0  0  0
  2  1  1  6
  2  3  1  0
  3  4  1  0
  4  5  1  0
  5  6  2  0
  5  9  1  0
  7 14  1  0
  7  2  1  0
  8  7  2  0
 11 10  1  6
 11 13  1  0
 12 11  1  0
 13 14  1  1
 13 15  1  0
 15 19  1  0
 16 15  2  0
 18 20  1  0
 18 17  1  1
 19 18  1  0
 20 22  1  0
 21 20  2  0
M  END
$$$$
