ETA.pdb
     RDKit          3D

 22 21  0  0  1  0  0  0  0  0999 V2000
   24.1684  -11.3729  -15.3792 N   0  0  0  0  0  0  0  0  0  0  0  0
   24.4916   -9.9976  -15.4467 C   0  0  1  0  0  0  0  0  0  0  0  0
   25.7223   -9.8640  -16.3364 C   0  0  0  0  0  0  0  0  0  0  0  0
   26.8674  -10.5281  -15.6101 C   0  0  0  0  0  0  0  0  0  0  0  0
   28.1147  -10.4323  -16.3797 C   0  0  0  0  0  0  0  0  0  0  0  0
   29.1219   -9.7591  -16.0898 O   0  0  0  0  0  0  0  0  0  0  0  0
   23.3615   -9.2083  -16.0388 C   0  0  0  0  0  0  0  0  0  0  0  0
   22.7023   -9.5755  -17.0357 O   0  0  0  0  0  0  0  0  0  0  0  0
   28.1891  -11.1756  -17.5706 O   0  0  0  0  0  0  0  0  0  0  0  0
   20.2846   -9.0306  -15.7063 C   0  0  0  0  0  0  0  0  0  0  0  0
   20.6796   -7.6248  -15.2479 C   0  0  1  0  0  0  0  0  0  0  0  0
   20.8783   -7.7142  -13.8697 O   0  0  0  0  0  0  0  0  0  0  0  0
   21.9548   -7.1818  -15.9341 C   0  0  2  0  0  0  0  0  0  0  0  0
   23.0253   -7.9814  -15.4336 N   0  0  0  0  0  0  0  0  0  0  0  0
   22.2050   -5.7630  -15.4555 C   0  0  0  0  0  0  0  0  0  0  0  0
   22.6228   -5.5583  -14.3015 O   0  0  0  0  0  0  0  0  0  0  0  0
   22.1045   -2.3585  -17.1484 C   0  0  0  0  0  0  0  0  0  0  0  0
   22.2285   -3.3009  -15.9957 C   0  0  2  0  0  0  0  0  0  0  0  0
   21.9681   -4.6646  -16.3083 N   0  0  0  0  0  0  0  0  0  0  0  0
   21.6666   -2.7586  -14.7577 C   0  0  0  0  0  0  0  0  0  0  0  0
   20.5366   -3.1956  -14.3969 O   0  0  0  0  0  0  0  0  0  0  0  0
   22.2909   -1.8213  -13.9965 O   0  0  0  0  0  0  0  0  0  0  0  0
  2  1  1  6
  2  3  1  0
  3  4  1  0
  4  5  1  0
  5  6  2  0
  5  9  1  0
  7 14  1  0
  7  2  1  0
  8  7  2  0
 11 10  1  6
 11 13  1  0
 12 11  1  0
 13 14  1  1
 13 15  1  0
 15 19  1  0
 16 15  2  0
 18 20  1  0
 18 17  1  6
 19 18  1  0
 20 22  1  0
 21 20  2  0
M  END
$$$$
