ETA.pdb
     RDKit          3D

 22 21  0  0  1  0  0  0  0  0999 V2000
   15.1509  -11.3403  -14.9025 N   0  0  0  0  0  0  0  0  0  0  0  0
   16.5513  -11.1618  -14.9887 C   0  0  1  0  0  0  0  0  0  0  0  0
   17.0366  -11.9576  -16.1950 C   0  0  0  0  0  0  0  0  0  0  0  0
   18.3668  -12.5646  -15.8184 C   0  0  0  0  0  0  0  0  0  0  0  0
   18.9395  -13.3290  -16.9342 C   0  0  0  0  0  0  0  0  0  0  0  0
   19.6954  -12.8976  -17.8254 O   0  0  0  0  0  0  0  0  0  0  0  0
   16.8981   -9.7141  -15.1753 C   0  0  0  0  0  0  0  0  0  0  0  0
   16.4808   -9.0142  -16.1236 O   0  0  0  0  0  0  0  0  0  0  0  0
   18.6053  -14.6922  -17.0126 O   0  0  0  0  0  0  0  0  0  0  0  0
   15.8580   -7.0551  -13.3728 C   0  0  0  0  0  0  0  0  0  0  0  0
   17.3754   -7.0040  -13.1794 C   0  0  1  0  0  0  0  0  0  0  0  0
   17.6275   -7.6445  -11.9657 O   0  0  0  0  0  0  0  0  0  0  0  0
   18.0788   -7.7259  -14.3096 C   0  0  2  0  0  0  0  0  0  0  0  0
   17.7440   -9.1103  -14.2243 N   0  0  0  0  0  0  0  0  0  0  0  0
   19.5621   -7.6131  -14.0065 C   0  0  0  0  0  0  0  0  0  0  0  0
   20.2384   -8.6387  -13.8091 O   0  0  0  0  0  0  0  0  0  0  0  0
   22.4902   -7.0118  -14.5015 C   0  0  0  0  0  0  0  0  0  0  0  0
   21.5760   -6.1241  -13.7215 C   0  0  2  0  0  0  0  0  0  0  0  0
   20.1889   -6.3509  -13.9447 N   0  0  0  0  0  0  0  0  0  0  0  0
   22.0466   -4.7394  -13.6612 C   0  0  0  0  0  0  0  0  0  0  0  0
   21.3191   -3.8586  -14.2025 O   0  0  0  0  0  0  0  0  0  0  0  0
   23.2099   -4.3663  -13.0652 O   0  0  0  0  0  0  0  0  0  0  0  0
  2  1  1  6
  2  3  1  0
  3  4  1  0
  4  5  1  0
  5  6  2  0
  5  9  1  0
  7 14  1  0
  7  2  1  0
  8  7  2  0
 11 10  1  6
 11 13  1  0
 12 11  1  0
 13 14  1  1
 13 15  1  0
 15 19  1  0
 16 15  2  0
 18 20  1  0
 18 17  1  6
 19 18  1  0
 20 22  1  0
 21 20  2  0
M  END
$$$$
