ETA.pdb
     RDKit          3D

 22 21  0  0  1  0  0  0  0  0999 V2000
   19.3516  -12.6789  -17.1298 N   0  0  0  0  0  0  0  0  0  0  0  0
   18.9412  -11.3886  -16.7209 C   0  0  1  0  0  0  0  0  0  0  0  0
   18.1706  -11.5502  -15.4155 C   0  0  0  0  0  0  0  0  0  0  0  0
   16.8781  -12.2557  -15.7493 C   0  0  0  0  0  0  0  0  0  0  0  0
   16.0697  -12.4866  -14.5450 C   0  0  0  0  0  0  0  0  0  0  0  0
   16.2111  -13.4042  -13.7146 O   0  0  0  0  0  0  0  0  0  0  0  0
   20.1247  -10.4953  -16.4927 C   0  0  0  0  0  0  0  0  0  0  0  0
   21.2263  -10.8956  -16.0571 O   0  0  0  0  0  0  0  0  0  0  0  0
   15.0237  -11.5813  -14.2946 O   0  0  0  0  0  0  0  0  0  0  0  0
   21.6846   -8.3945  -19.0928 C   0  0  0  0  0  0  0  0  0  0  0  0
   21.2130   -7.4660  -17.9713 C   0  0  1  0  0  0  0  0  0  0  0  0
   19.9659   -6.9856  -18.3723 O   0  0  0  0  0  0  0  0  0  0  0  0
   21.0875   -8.2285  -16.6689 C   0  0  2  0  0  0  0  0  0  0  0  0
   19.9838   -9.1250  -16.7876 N   0  0  0  0  0  0  0  0  0  0  0  0
   20.7037   -7.1949  -15.6253 C   0  0  0  0  0  0  0  0  0  0  0  0
   19.5173   -6.8393  -15.5061 O   0  0  0  0  0  0  0  0  0  0  0  0
   22.4913   -5.5923  -12.7047 C   0  0  0  0  0  0  0  0  0  0  0  0
   21.4406   -5.6622  -13.7646 C   0  0  2  0  0  0  0  0  0  0  0  0
   21.6819   -6.6272  -14.7823 N   0  0  0  0  0  0  0  0  0  0  0  0
   20.9548   -4.3419  -14.1685 C   0  0  0  0  0  0  0  0  0  0  0  0
   21.3226   -3.9128  -15.2993 O   0  0  0  0  0  0  0  0  0  0  0  0
   20.1459   -3.5700  -13.3955 O   0  0  0  0  0  0  0  0  0  0  0  0
  2  1  1  1
  2  3  1  0
  3  4  1  0
  4  5  1  0
  5  6  2  0
  5  9  1  0
  7 14  1  0
  7  2  1  0
  8  7  2  0
 11 10  1  6
 11 13  1  0
 12 11  1  0
 13 14  1  6
 13 15  1  0
 15 19  1  0
 16 15  2  0
 18 20  1  0
 18 17  1  6
 19 18  1  0
 20 22  1  0
 21 20  2  0
M  END
$$$$
