ETA.pdb
     RDKit          3D

 22 21  0  0  1  0  0  0  0  0999 V2000
   15.6499  -11.1774  -15.5892 N   0  0  0  0  0  0  0  0  0  0  0  0
   17.0017  -10.9675  -15.2301 C   0  0  1  0  0  0  0  0  0  0  0  0
   17.8139  -12.1072  -15.8347 C   0  0  0  0  0  0  0  0  0  0  0  0
   17.4850  -13.3517  -15.0457 C   0  0  0  0  0  0  0  0  0  0  0  0
   18.2738  -14.5010  -15.5086 C   0  0  0  0  0  0  0  0  0  0  0  0
   19.0819  -14.5196  -16.4564 O   0  0  0  0  0  0  0  0  0  0  0  0
   17.5036   -9.6595  -15.7668 C   0  0  0  0  0  0  0  0  0  0  0  0
   17.4980   -9.3557  -16.9797 O   0  0  0  0  0  0  0  0  0  0  0  0
   18.1058  -15.7121  -14.8149 O   0  0  0  0  0  0  0  0  0  0  0  0
   16.2524   -6.7271  -16.1192 C   0  0  0  0  0  0  0  0  0  0  0  0
   17.3791   -6.4418  -15.1235 C   0  0  1  0  0  0  0  0  0  0  0  0
   16.8058   -6.5521  -13.8562 O   0  0  0  0  0  0  0  0  0  0  0  0
   18.4966   -7.4512  -15.2834 C   0  0  2  0  0  0  0  0  0  0  0  0
   18.0103   -8.7198  -14.8476 N   0  0  0  0  0  0  0  0  0  0  0  0
   19.5718   -7.0305  -14.2976 C   0  0  0  0  0  0  0  0  0  0  0  0
   19.8814   -7.7805  -13.3543 O   0  0  0  0  0  0  0  0  0  0  0  0
   22.4949   -6.3126  -13.6384 C   0  0  0  0  0  0  0  0  0  0  0  0
   21.3488   -5.3549  -13.6741 C   0  0  2  0  0  0  0  0  0  0  0  0
   20.2296   -5.7906  -14.4376 N   0  0  0  0  0  0  0  0  0  0  0  0
   21.7782   -3.9626  -13.8141 C   0  0  0  0  0  0  0  0  0  0  0  0
   21.3551   -3.3268  -14.8215 O   0  0  0  0  0  0  0  0  0  0  0  0
   22.5991   -3.3368  -12.9298 O   0  0  0  0  0  0  0  0  0  0  0  0
  2  1  1  6
  2  3  1  0
  3  4  1  0
  4  5  1  0
  5  6  2  0
  5  9  1  0
  7 14  1  0
  7  2  1  0
  8  7  2  0
 11 10  1  6
 11 13  1  0
 12 11  1  0
 13 14  1  1
 13 15  1  0
 15 19  1  0
 16 15  2  0
 18 20  1  0
 18 17  1  6
 19 18  1  0
 20 22  1  0
 21 20  2  0
M  END
$$$$
