ETA.pdb
     RDKit          3D

 22 21  0  0  1  0  0  0  0  0999 V2000
   18.1240  -10.9129  -14.9327 N   0  0  0  0  0  0  0  0  0  0  0  0
   17.0546  -10.2028  -14.3389 C   0  0  1  0  0  0  0  0  0  0  0  0
   16.0809  -11.2336  -13.7792 C   0  0  0  0  0  0  0  0  0  0  0  0
   15.4569  -11.9391  -14.9592 C   0  0  0  0  0  0  0  0  0  0  0  0
   14.6489  -13.0874  -14.5282 C   0  0  0  0  0  0  0  0  0  0  0  0
   14.4963  -13.4981  -13.3622 O   0  0  0  0  0  0  0  0  0  0  0  0
   17.5448   -9.3252  -13.2252 C   0  0  0  0  0  0  0  0  0  0  0  0
   18.6849   -9.4127  -12.7194 O   0  0  0  0  0  0  0  0  0  0  0  0
   13.9725  -13.8046  -15.5304 O   0  0  0  0  0  0  0  0  0  0  0  0
   18.5870   -6.2854  -13.5501 C   0  0  0  0  0  0  0  0  0  0  0  0
   17.3936   -6.0820  -12.6137 C   0  0  1  0  0  0  0  0  0  0  0  0
   16.3067   -5.7893  -13.4382 O   0  0  0  0  0  0  0  0  0  0  0  0
   17.1237   -7.3413  -11.8170 C   0  0  2  0  0  0  0  0  0  0  0  0
   16.6666   -8.3456  -12.7216 N   0  0  0  0  0  0  0  0  0  0  0  0
   15.9565   -7.0064  -10.9059 C   0  0  0  0  0  0  0  0  0  0  0  0
   14.8092   -6.8993  -11.3753 O   0  0  0  0  0  0  0  0  0  0  0  0
   15.4161   -6.7109   -7.1813 C   0  0  0  0  0  0  0  0  0  0  0  0
   15.1863   -6.3218   -8.6053 C   0  0  2  0  0  0  0  0  0  0  0  0
   16.1568   -6.8132   -9.5230 N   0  0  0  0  0  0  0  0  0  0  0  0
   14.7430   -4.9343   -8.7489 C   0  0  0  0  0  0  0  0  0  0  0  0
   15.5226   -4.1382   -9.3459 O   0  0  0  0  0  0  0  0  0  0  0  0
   13.5563   -4.4716   -8.2742 O   0  0  0  0  0  0  0  0  0  0  0  0
  2  1  1  1
  2  3  1  0
  3  4  1  0
  4  5  1  0
  5  6  2  0
  5  9  1  0
  7 14  1  0
  7  2  1  0
  8  7  2  0
 11 10  1  6
 11 13  1  0
 12 11  1  0
 13 14  1  6
 13 15  1  0
 15 19  1  0
 16 15  2  0
 18 20  1  0
 18 17  1  1
 19 18  1  0
 20 22  1  0
 21 20  2  0
M  END
$$$$
