ETA.pdb
     RDKit          3D

 22 21  0  0  1  0  0  0  0  0999 V2000
   19.0626  -12.8306  -16.2044 N   0  0  0  0  0  0  0  0  0  0  0  0
   18.8050  -11.4598  -16.4395 C   0  0  1  0  0  0  0  0  0  0  0  0
   17.2913  -11.2796  -16.4587 C   0  0  0  0  0  0  0  0  0  0  0  0
   16.7819  -11.9507  -17.7116 C   0  0  0  0  0  0  0  0  0  0  0  0
   15.3258  -11.8066  -17.8399 C   0  0  0  0  0  0  0  0  0  0  0  0
   14.6853  -10.7420  -17.9298 O   0  0  0  0  0  0  0  0  0  0  0  0
   19.3937  -10.6084  -15.3535 C   0  0  0  0  0  0  0  0  0  0  0  0
   19.0861  -10.7082  -14.1457 O   0  0  0  0  0  0  0  0  0  0  0  0
   14.5667  -12.9895  -17.8649 O   0  0  0  0  0  0  0  0  0  0  0  0
   22.5945  -10.7727  -14.1992 C   0  0  0  0  0  0  0  0  0  0  0  0
   22.4890   -9.3381  -14.7218 C   0  0  1  0  0  0  0  0  0  0  0  0
   22.9950   -9.3670  -16.0218 O   0  0  0  0  0  0  0  0  0  0  0  0
   21.0451   -8.8816  -14.7310 C   0  0  2  0  0  0  0  0  0  0  0  0
   20.3494   -9.6401  -15.7192 N   0  0  0  0  0  0  0  0  0  0  0  0
   21.0736   -7.4445  -15.2196 C   0  0  0  0  0  0  0  0  0  0  0  0
   21.3279   -7.1958  -16.4119 O   0  0  0  0  0  0  0  0  0  0  0  0
   19.7527   -4.1620  -14.2833 C   0  0  0  0  0  0  0  0  0  0  0  0
   20.9406   -4.9950  -14.6399 C   0  0  2  0  0  0  0  0  0  0  0  0
   20.8139   -6.3788  -14.3328 N   0  0  0  0  0  0  0  0  0  0  0  0
   22.2093   -4.3340  -14.3301 C   0  0  0  0  0  0  0  0  0  0  0  0
   22.3950   -3.1832  -14.8194 O   0  0  0  0  0  0  0  0  0  0  0  0
   23.1794   -4.8931  -13.5594 O   0  0  0  0  0  0  0  0  0  0  0  0
  2  1  1  1
  2  3  1  0
  3  4  1  0
  4  5  1  0
  5  6  2  0
  5  9  1  0
  7 14  1  0
  7  2  1  0
  8  7  2  0
 11 10  1  6
 11 13  1  0
 12 11  1  0
 13 14  1  6
 13 15  1  0
 15 19  1  0
 16 15  2  0
 18 20  1  0
 18 17  1  1
 19 18  1  0
 20 22  1  0
 21 20  2  0
M  END
$$$$
