ETA.pdb
     RDKit          3D

 22 21  0  0  1  0  0  0  0  0999 V2000
   18.5037  -11.9999  -16.3813 N   0  0  0  0  0  0  0  0  0  0  0  0
   19.6192  -11.1380  -16.2658 C   0  0  1  0  0  0  0  0  0  0  0  0
   20.3531  -11.1644  -17.6018 C   0  0  0  0  0  0  0  0  0  0  0  0
   20.9090  -12.5577  -17.7735 C   0  0  0  0  0  0  0  0  0  0  0  0
   21.5273  -12.7263  -19.0951 C   0  0  0  0  0  0  0  0  0  0  0  0
   21.5615  -11.8888  -20.0165 O   0  0  0  0  0  0  0  0  0  0  0  0
   19.1847   -9.7340  -15.9645 C   0  0  0  0  0  0  0  0  0  0  0  0
   18.3721   -9.0907  -16.6638 O   0  0  0  0  0  0  0  0  0  0  0  0
   22.1487  -13.9598  -19.3568 O   0  0  0  0  0  0  0  0  0  0  0  0
   17.1892   -8.6079  -13.4184 C   0  0  0  0  0  0  0  0  0  0  0  0
   18.5224   -7.9011  -13.1628 C   0  0  1  0  0  0  0  0  0  0  0  0
   19.2029   -8.6926  -12.2369 O   0  0  0  0  0  0  0  0  0  0  0  0
   19.3195   -7.7919  -14.4458 C   0  0  2  0  0  0  0  0  0  0  0  0
   19.7258   -9.1059  -14.8254 N   0  0  0  0  0  0  0  0  0  0  0  0
   20.5809   -7.0305  -14.0799 C   0  0  0  0  0  0  0  0  0  0  0  0
   21.6787   -7.6157  -14.0577 O   0  0  0  0  0  0  0  0  0  0  0  0
   22.7925   -5.0349  -14.4778 C   0  0  0  0  0  0  0  0  0  0  0  0
   21.6472   -4.8098  -13.5452 C   0  0  2  0  0  0  0  0  0  0  0  0
   20.5247   -5.6573  -13.7620 N   0  0  0  0  0  0  0  0  0  0  0  0
   21.3989   -3.3909  -13.2852 C   0  0  0  0  0  0  0  0  0  0  0  0
   20.2572   -2.9400  -13.5874 O   0  0  0  0  0  0  0  0  0  0  0  0
   22.3242   -2.5521  -12.7488 O   0  0  0  0  0  0  0  0  0  0  0  0
  2  1  1  6
  2  3  1  0
  3  4  1  0
  4  5  1  0
  5  6  2  0
  5  9  1  0
  7 14  1  0
  7  2  1  0
  8  7  2  0
 11 10  1  6
 11 13  1  0
 12 11  1  0
 13 14  1  1
 13 15  1  0
 15 19  1  0
 16 15  2  0
 18 20  1  0
 18 17  1  6
 19 18  1  0
 20 22  1  0
 21 20  2  0
M  END
$$$$
