ETA.pdb
     RDKit          3D

 22 21  0  0  1  0  0  0  0  0999 V2000
   21.9793  -13.1157  -16.0281 N   0  0  0  0  0  0  0  0  0  0  0  0
   22.6319  -11.9017  -15.7105 C   0  0  1  0  0  0  0  0  0  0  0  0
   23.9510  -11.8825  -16.4744 C   0  0  0  0  0  0  0  0  0  0  0  0
   24.7735  -13.0421  -15.9660 C   0  0  0  0  0  0  0  0  0  0  0  0
   25.9903  -13.2254  -16.7679 C   0  0  0  0  0  0  0  0  0  0  0  0
   27.1650  -13.0425  -16.3960 O   0  0  0  0  0  0  0  0  0  0  0  0
   21.8016  -10.7217  -16.1214 C   0  0  0  0  0  0  0  0  0  0  0  0
   20.9516  -10.7529  -17.0378 O   0  0  0  0  0  0  0  0  0  0  0  0
   25.8213  -13.6523  -18.0966 O   0  0  0  0  0  0  0  0  0  0  0  0
   19.1498   -9.8084  -15.7671 C   0  0  0  0  0  0  0  0  0  0  0  0
   19.8185   -8.5916  -15.1231 C   0  0  1  0  0  0  0  0  0  0  0  0
   19.9254   -8.8894  -13.7641 O   0  0  0  0  0  0  0  0  0  0  0  0
   21.1915   -8.3631  -15.7196 C   0  0  2  0  0  0  0  0  0  0  0  0
   21.9931   -9.5080  -15.4322 N   0  0  0  0  0  0  0  0  0  0  0  0
   21.7873   -7.2033  -14.9420 C   0  0  0  0  0  0  0  0  0  0  0  0
   22.2964   -7.3979  -13.8235 O   0  0  0  0  0  0  0  0  0  0  0  0
   22.5509   -3.5954  -15.8434 C   0  0  0  0  0  0  0  0  0  0  0  0
   22.4429   -4.7693  -14.9256 C   0  0  2  0  0  0  0  0  0  0  0  0
   21.7710   -5.8972  -15.4747 N   0  0  0  0  0  0  0  0  0  0  0  0
   22.1305   -4.3846  -13.5483 C   0  0  0  0  0  0  0  0  0  0  0  0
   20.9691   -4.6489  -13.1247 O   0  0  0  0  0  0  0  0  0  0  0  0
   23.0141   -3.7640  -12.7226 O   0  0  0  0  0  0  0  0  0  0  0  0
  2  1  1  6
  2  3  1  0
  3  4  1  0
  4  5  1  0
  5  6  2  0
  5  9  1  0
  7 14  1  0
  7  2  1  0
  8  7  2  0
 11 10  1  6
 11 13  1  0
 12 11  1  0
 13 14  1  1
 13 15  1  0
 15 19  1  0
 16 15  2  0
 18 20  1  0
 18 17  1  6
 19 18  1  0
 20 22  1  0
 21 20  2  0
M  END
$$$$
