ETA.pdb
     RDKit          3D

 22 21  0  0  1  0  0  0  0  0999 V2000
   16.5819  -11.9376  -16.8223 N   0  0  0  0  0  0  0  0  0  0  0  0
   17.4927  -11.2861  -15.9582 C   0  0  1  0  0  0  0  0  0  0  0  0
   18.4852  -12.3354  -15.4707 C   0  0  0  0  0  0  0  0  0  0  0  0
   17.7423  -13.2358  -14.5131 C   0  0  0  0  0  0  0  0  0  0  0  0
   17.2986  -14.4692  -15.1756 C   0  0  0  0  0  0  0  0  0  0  0  0
   16.2268  -15.0752  -14.9865 O   0  0  0  0  0  0  0  0  0  0  0  0
   18.2327  -10.1980  -16.6789 C   0  0  0  0  0  0  0  0  0  0  0  0
   18.6013  -10.2774  -17.8710 O   0  0  0  0  0  0  0  0  0  0  0  0
   18.1688  -15.0327  -16.1252 O   0  0  0  0  0  0  0  0  0  0  0  0
   17.3894   -7.3057  -18.0903 C   0  0  0  0  0  0  0  0  0  0  0  0
   18.2953   -6.8587  -16.9405 C   0  0  1  0  0  0  0  0  0  0  0  0
   17.4451   -6.5873  -15.8679 O   0  0  0  0  0  0  0  0  0  0  0  0
   19.2685   -7.9592  -16.5731 C   0  0  2  0  0  0  0  0  0  0  0  0
   18.5283   -9.0183  -15.9679 N   0  0  0  0  0  0  0  0  0  0  0  0
   20.1599   -7.3731  -15.4931 C   0  0  0  0  0  0  0  0  0  0  0  0
   19.7213   -7.2159  -14.3393 O   0  0  0  0  0  0  0  0  0  0  0  0
   23.7883   -6.2218  -15.3940 C   0  0  0  0  0  0  0  0  0  0  0  0
   22.4051   -6.4154  -14.8636 C   0  0  2  0  0  0  0  0  0  0  0  0
   21.4895   -7.0010  -15.7823 N   0  0  0  0  0  0  0  0  0  0  0  0
   21.9438   -5.2837  -14.0580 C   0  0  0  0  0  0  0  0  0  0  0  0
   21.2107   -4.4281  -14.6314 O   0  0  0  0  0  0  0  0  0  0  0  0
   22.2659   -5.1125  -12.7487 O   0  0  0  0  0  0  0  0  0  0  0  0
  2  1  1  6
  2  3  1  0
  3  4  1  0
  4  5  1  0
  5  6  2  0
  5  9  1  0
  7 14  1  0
  7  2  1  0
  8  7  2  0
 11 10  1  6
 11 13  1  0
 12 11  1  0
 13 14  1  1
 13 15  1  0
 15 19  1  0
 16 15  2  0
 18 20  1  0
 18 17  1  6
 19 18  1  0
 20 22  1  0
 21 20  2  0
M  END
$$$$
