ETA.pdb
     RDKit          3D

 22 21  0  0  1  0  0  0  0  0999 V2000
   19.2291  -12.9286  -16.5125 N   0  0  0  0  0  0  0  0  0  0  0  0
   18.9347  -11.5460  -16.4664 C   0  0  1  0  0  0  0  0  0  0  0  0
   17.4840  -11.4057  -16.0193 C   0  0  0  0  0  0  0  0  0  0  0  0
   16.6290  -12.0520  -17.0828 C   0  0  0  0  0  0  0  0  0  0  0  0
   15.2007  -11.9436  -16.7580 C   0  0  0  0  0  0  0  0  0  0  0  0
   14.3123  -11.4233  -17.4592 O   0  0  0  0  0  0  0  0  0  0  0  0
   19.8270  -10.8388  -15.4894 C   0  0  0  0  0  0  0  0  0  0  0  0
   19.8923  -11.1225  -14.2735 O   0  0  0  0  0  0  0  0  0  0  0  0
   14.7828  -12.4811  -15.5281 O   0  0  0  0  0  0  0  0  0  0  0  0
   23.4068  -10.7546  -15.4538 C   0  0  0  0  0  0  0  0  0  0  0  0
   22.9480   -9.3098  -15.6645 C   0  0  1  0  0  0  0  0  0  0  0  0
   22.9584   -9.1033  -17.0445 O   0  0  0  0  0  0  0  0  0  0  0  0
   21.5509   -9.1113  -15.1149 C   0  0  2  0  0  0  0  0  0  0  0  0
   20.6384   -9.7938  -15.9735 N   0  0  0  0  0  0  0  0  0  0  0  0
   21.2624   -7.6276  -15.2575 C   0  0  0  0  0  0  0  0  0  0  0  0
   20.8612   -7.1715  -16.3434 O   0  0  0  0  0  0  0  0  0  0  0  0
   19.9060   -4.8372  -14.0777 C   0  0  0  0  0  0  0  0  0  0  0  0
   21.3082   -5.3361  -14.2082 C   0  0  2  0  0  0  0  0  0  0  0  0
   21.4448   -6.7520  -14.1667 N   0  0  0  0  0  0  0  0  0  0  0  0
   22.2690   -4.5289  -13.4546 C   0  0  0  0  0  0  0  0  0  0  0  0
   22.9078   -5.1068  -12.5294 O   0  0  0  0  0  0  0  0  0  0  0  0
   22.4969   -3.2111  -13.6972 O   0  0  0  0  0  0  0  0  0  0  0  0
  2  1  1  1
  2  3  1  0
  3  4  1  0
  4  5  1  0
  5  6  2  0
  5  9  1  0
  7 14  1  0
  7  2  1  0
  8  7  2  0
 11 10  1  6
 11 13  1  0
 12 11  1  0
 13 14  1  6
 13 15  1  0
 15 19  1  0
 16 15  2  0
 18 20  1  0
 18 17  1  1
 19 18  1  0
 20 22  1  0
 21 20  2  0
M  END
$$$$
