YYH.pdb
     RDKit          3D

 35 37  0  0  1  0  0  0  0  0999 V2000
    6.7096  -10.8704   27.3663 O   0  0  0  0  0  0  0  0  0  0  0  0
    6.8288  -12.2087   26.9959 C   0  0  0  0  0  0  0  0  0  0  0  0
    5.6984  -12.9974   27.0397 C   0  0  0  0  0  0  0  0  0  0  0  0
    5.7493  -14.3332   26.6848 C   0  0  0  0  0  0  0  0  0  0  0  0
    6.9349  -14.9006   26.2802 C   0  0  0  0  0  0  0  0  0  0  0  0
    6.9618  -16.3342   25.9057 C   0  0  0  0  0  0  0  0  0  0  0  0
    6.5482  -16.4190   24.4478 C   0  0  2  0  0  0  0  0  0  0  0  0
    5.5651  -17.4486   24.2221 N   0  0  0  0  0  0  0  0  0  0  0  0
    7.6930  -16.6280   23.5433 C   0  0  0  0  0  0  0  0  0  0  0  0
    8.2383  -17.7464   23.3564 O   0  0  0  0  0  0  0  0  0  0  0  0
    8.0621  -14.0870   26.2436 C   0  0  0  0  0  0  0  0  0  0  0  0
    8.0145  -12.7624   26.5948 C   0  0  0  0  0  0  0  0  0  0  0  0
    6.7412  -13.6879   16.8368 O   0  0  0  0  0  0  0  0  0  0  0  0
    7.5283  -13.8795   17.9798 C   0  0  0  0  0  0  0  0  0  0  0  0
    8.3985  -14.9244   18.1226 C   0  0  0  0  0  0  0  0  0  0  0  0
    9.1760  -15.1181   19.2455 C   0  0  0  0  0  0  0  0  0  0  0  0
    9.0441  -14.1901   20.2591 C   0  0  0  0  0  0  0  0  0  0  0  0
    9.8145  -14.2811   21.5078 C   0  0  0  0  0  0  0  0  0  0  0  0
    9.5510  -15.5874   22.1961 C   0  0  2  0  0  0  0  0  0  0  0  0
    8.2534  -15.5304   22.8132 N   0  0  0  0  0  0  0  0  0  0  0  0
   10.6285  -15.7653   23.2228 C   0  0  0  0  0  0  0  0  0  0  0  0
   10.4008  -15.5895   24.4443 O   0  0  0  0  0  0  0  0  0  0  0  0
    8.1628  -13.1136   20.1392 C   0  0  0  0  0  0  0  0  0  0  0  0
    7.4059  -12.9639   18.9936 C   0  0  0  0  0  0  0  0  0  0  0  0
   11.9431  -16.1382   22.8538 N   0  0  0  0  0  0  0  0  0  0  0  0
   12.6886  -17.1494   23.6253 C   0  0  1  0  0  0  0  0  0  0  0  0
   11.8932  -18.4242   23.5202 C   0  0  0  0  0  0  0  0  0  0  0  0
   11.1909  -18.6759   24.7873 C   0  0  0  0  0  0  0  0  0  0  0  0
   11.2867  -17.9385   25.9402 C   0  0  0  0  0  0  0  0  0  0  0  0
   10.4920  -18.5387   26.8733 N   0  0  0  0  0  0  0  0  0  0  0  0
    9.9181  -19.6180   26.3191 C   0  0  0  0  0  0  0  0  0  0  0  0
   10.3517  -19.6888   25.0526 N   0  0  0  0  0  0  0  0  0  0  0  0
   14.0269  -17.3585   23.0474 C   0  0  0  0  0  0  0  0  0  0  0  0
   14.8415  -18.0818   23.6972 O   0  0  0  0  0  0  0  0  0  0  0  0
   14.4917  -16.8466   21.8595 O   0  0  0  0  0  0  0  0  0  0  0  0
  2  1  1  0
  3  2  2  0
  4  3  1  0
  5 11  1  0
  5  4  2  0
  6  5  1  0
  7  6  1  0
  7  8  1  1
  9  7  1  0
  9 10  2  0
 11 12  2  0
 12  2  1  0
 13 14  1  0
 14 15  2  0
 15 16  1  0
 17 18  1  0
 17 16  2  0
 19 20  1  0
 19 18  1  1
 20  9  1  0
 21 19  1  0
 22 21  2  0
 23 17  1  0
 24 23  2  0
 24 14  1  0
 25 21  1  0
 26 25  1  0
 26 27  1  6
 27 28  1  0
 28 29  2  0
 29 30  1  0
 31 30  1  0
 32 28  1  0
 32 31  2  0
 33 26  1  0
 33 35  1  0
 34 33  2  0
M  END
$$$$
