YYH.pdb
     RDKit          3D

 35 37  0  0  1  0  0  0  0  0999 V2000
    7.4925  -14.1665   15.8021 O   0  0  0  0  0  0  0  0  0  0  0  0
    7.8197  -14.0756   17.1538 C   0  0  0  0  0  0  0  0  0  0  0  0
    8.8585  -14.8513   17.6238 C   0  0  0  0  0  0  0  0  0  0  0  0
    9.2329  -14.8075   18.9545 C   0  0  0  0  0  0  0  0  0  0  0  0
    8.5718  -13.9849   19.8363 C   0  0  0  0  0  0  0  0  0  0  0  0
    8.9931  -13.9574   21.2568 C   0  0  0  0  0  0  0  0  0  0  0  0
    9.0491  -15.3983   21.7303 C   0  0  2  0  0  0  0  0  0  0  0  0
    7.8262  -16.1085   21.4522 N   0  0  0  0  0  0  0  0  0  0  0  0
    9.3670  -15.5134   23.1650 C   0  0  0  0  0  0  0  0  0  0  0  0
   10.4594  -15.1442   23.6684 O   0  0  0  0  0  0  0  0  0  0  0  0
    7.5276  -13.2116   19.3409 C   0  0  0  0  0  0  0  0  0  0  0  0
    7.1542  -13.2530   18.0222 C   0  0  0  0  0  0  0  0  0  0  0  0
    6.7435  -10.3102   27.0418 O   0  0  0  0  0  0  0  0  0  0  0  0
    6.8452  -11.6858   26.7967 C   0  0  0  0  0  0  0  0  0  0  0  0
    5.9951  -12.3629   25.9670 C   0  0  0  0  0  0  0  0  0  0  0  0
    6.0904  -13.7170   25.7218 C   0  0  0  0  0  0  0  0  0  0  0  0
    7.1084  -14.3937   26.3637 C   0  0  0  0  0  0  0  0  0  0  0  0
    7.3195  -15.8378   26.1885 C   0  0  0  0  0  0  0  0  0  0  0  0
    8.6266  -16.1003   25.5010 C   0  0  2  0  0  0  0  0  0  0  0  0
    8.4144  -16.0691   24.0791 N   0  0  0  0  0  0  0  0  0  0  0  0
    9.0907  -17.4539   25.9470 C   0  0  0  0  0  0  0  0  0  0  0  0
    8.3485  -18.4614   25.8530 O   0  0  0  0  0  0  0  0  0  0  0  0
    7.9904  -13.7265   27.2162 C   0  0  0  0  0  0  0  0  0  0  0  0
    7.8527  -12.3687   27.4288 C   0  0  0  0  0  0  0  0  0  0  0  0
   10.3830  -17.6471   26.4910 N   0  0  0  0  0  0  0  0  0  0  0  0
   10.8050  -18.9685   26.9905 C   0  0  1  0  0  0  0  0  0  0  0  0
   12.2852  -19.0607   26.7276 C   0  0  0  0  0  0  0  0  0  0  0  0
   12.5244  -19.1951   25.2829 C   0  0  0  0  0  0  0  0  0  0  0  0
   11.5740  -19.3013   24.2992 C   0  0  0  0  0  0  0  0  0  0  0  0
   12.2323  -19.4346   23.1113 N   0  0  0  0  0  0  0  0  0  0  0  0
   13.5534  -19.4126   23.3470 C   0  0  0  0  0  0  0  0  0  0  0  0
   13.7158  -19.2667   24.6697 N   0  0  0  0  0  0  0  0  0  0  0  0
   10.5573  -19.0780   28.4381 C   0  0  0  0  0  0  0  0  0  0  0  0
   10.2045  -18.0276   29.0554 O   0  0  0  0  0  0  0  0  0  0  0  0
   10.6676  -20.2161   29.2008 O   0  0  0  0  0  0  0  0  0  0  0  0
  2  1  1  0
  3  2  2  0
  4  3  1  0
  5 11  1  0
  5  4  2  0
  6  5  1  0
  7  6  1  0
  7  8  1  1
  9  7  1  0
  9 10  2  0
 11 12  2  0
 12  2  1  0
 13 14  1  0
 14 15  2  0
 15 16  1  0
 17 18  1  0
 17 16  2  0
 19 20  1  0
 19 18  1  1
 20  9  1  0
 21 19  1  0
 22 21  2  0
 23 17  1  0
 24 23  2  0
 24 14  1  0
 25 21  1  0
 26 25  1  0
 26 27  1  1
 27 28  1  0
 28 29  2  0
 29 30  1  0
 31 30  1  0
 32 28  1  0
 32 31  2  0
 33 26  1  0
 33 35  1  0
 34 33  2  0
M  END
$$$$
