YYH.pdb
     RDKit          3D

 35 37  0  0  1  0  0  0  0  0999 V2000
    9.6357  -20.1471   14.5495 O   0  0  0  0  0  0  0  0  0  0  0  0
    9.7318  -19.6849   15.8608 C   0  0  0  0  0  0  0  0  0  0  0  0
    8.6299  -19.0667   16.4135 C   0  0  0  0  0  0  0  0  0  0  0  0
    8.6602  -18.5857   17.7099 C   0  0  0  0  0  0  0  0  0  0  0  0
    9.7962  -18.7167   18.4739 C   0  0  0  0  0  0  0  0  0  0  0  0
    9.8019  -18.1923   19.8600 C   0  0  0  0  0  0  0  0  0  0  0  0
    9.8942  -16.6806   19.7613 C   0  0  2  0  0  0  0  0  0  0  0  0
   11.0343  -16.2562   18.9884 N   0  0  0  0  0  0  0  0  0  0  0  0
    9.9260  -16.0255   21.0813 C   0  0  0  0  0  0  0  0  0  0  0  0
   10.9722  -15.8903   21.7670 O   0  0  0  0  0  0  0  0  0  0  0  0
   10.8953  -19.3433   17.8966 C   0  0  0  0  0  0  0  0  0  0  0  0
   10.8681  -19.8210   16.6116 C   0  0  0  0  0  0  0  0  0  0  0  0
    7.3160  -11.4382   28.0397 O   0  0  0  0  0  0  0  0  0  0  0  0
    7.2999  -12.1629   26.8408 C   0  0  0  0  0  0  0  0  0  0  0  0
    6.6138  -13.3352   26.6842 C   0  0  0  0  0  0  0  0  0  0  0  0
    6.5943  -14.0529   25.5064 C   0  0  0  0  0  0  0  0  0  0  0  0
    7.3156  -13.5323   24.4505 C   0  0  0  0  0  0  0  0  0  0  0  0
    7.3773  -14.1985   23.1416 C   0  0  0  0  0  0  0  0  0  0  0  0
    8.6924  -14.8986   22.9676 C   0  0  2  0  0  0  0  0  0  0  0  0
    8.7273  -15.4968   21.6604 N   0  0  0  0  0  0  0  0  0  0  0  0
    8.7770  -15.9422   24.0402 C   0  0  0  0  0  0  0  0  0  0  0  0
    7.9222  -16.8566   24.1291 O   0  0  0  0  0  0  0  0  0  0  0  0
    8.0250  -12.3369   24.5834 C   0  0  0  0  0  0  0  0  0  0  0  0
    8.0128  -11.6555   25.7848 C   0  0  0  0  0  0  0  0  0  0  0  0
    9.8236  -15.9359   24.9929 N   0  0  0  0  0  0  0  0  0  0  0  0
    9.9223  -16.9919   26.0170 C   0  0  1  0  0  0  0  0  0  0  0  0
   11.3861  -17.3290   26.1290 C   0  0  0  0  0  0  0  0  0  0  0  0
   11.8038  -18.1174   24.9601 C   0  0  0  0  0  0  0  0  0  0  0  0
   11.2047  -18.1376   23.7261 C   0  0  0  0  0  0  0  0  0  0  0  0
   11.8977  -19.0230   22.9527 N   0  0  0  0  0  0  0  0  0  0  0  0
   12.8987  -19.5397   23.6824 C   0  0  0  0  0  0  0  0  0  0  0  0
   12.8293  -18.9808   24.8990 N   0  0  0  0  0  0  0  0  0  0  0  0
    9.4324  -16.5008   27.3160 C   0  0  0  0  0  0  0  0  0  0  0  0
    9.1221  -15.2739   27.4018 O   0  0  0  0  0  0  0  0  0  0  0  0
    9.2715  -17.2438   28.4611 O   0  0  0  0  0  0  0  0  0  0  0  0
  2  1  1  0
  3  2  2  0
  4  3  1  0
  5 11  1  0
  5  4  2  0
  6  5  1  0
  7  6  1  0
  7  8  1  1
  9  7  1  0
  9 10  2  0
 11 12  2  0
 12  2  1  0
 13 14  1  0
 14 15  2  0
 15 16  1  0
 17 18  1  0
 17 16  2  0
 19 20  1  0
 19 18  1  1
 20  9  1  0
 21 19  1  0
 22 21  2  0
 23 17  1  0
 24 23  2  0
 24 14  1  0
 25 21  1  0
 26 25  1  0
 26 27  1  1
 27 28  1  0
 28 29  2  0
 29 30  1  0
 31 30  1  0
 32 28  1  0
 32 31  2  0
 33 26  1  0
 33 35  1  0
 34 33  2  0
M  END
$$$$
