YYH.pdb
     RDKit          3D

 35 37  0  0  1  0  0  0  0  0999 V2000
    8.6491  -20.6613   14.6964 O   0  0  0  0  0  0  0  0  0  0  0  0
    8.7631  -20.1104   15.9716 C   0  0  0  0  0  0  0  0  0  0  0  0
   10.0258  -19.9730   16.5088 C   0  0  0  0  0  0  0  0  0  0  0  0
   10.2073  -19.4337   17.7694 C   0  0  0  0  0  0  0  0  0  0  0  0
    9.1254  -19.0232   18.5125 C   0  0  0  0  0  0  0  0  0  0  0  0
    9.3479  -18.4490   19.8605 C   0  0  0  0  0  0  0  0  0  0  0  0
    9.3659  -16.9396   19.7016 C   0  0  2  0  0  0  0  0  0  0  0  0
   10.4067  -16.5011   18.8062 N   0  0  0  0  0  0  0  0  0  0  0  0
    9.4977  -16.2340   20.9889 C   0  0  0  0  0  0  0  0  0  0  0  0
   10.5754  -16.1557   21.6335 O   0  0  0  0  0  0  0  0  0  0  0  0
    7.8616  -19.1710   17.9514 C   0  0  0  0  0  0  0  0  0  0  0  0
    7.6787  -19.7052   16.7019 C   0  0  0  0  0  0  0  0  0  0  0  0
    7.3539  -11.4423   27.9795 O   0  0  0  0  0  0  0  0  0  0  0  0
    7.2592  -12.1831   26.7941 C   0  0  0  0  0  0  0  0  0  0  0  0
    6.5090  -13.3206   26.6804 C   0  0  0  0  0  0  0  0  0  0  0  0
    6.4121  -14.0540   25.5162 C   0  0  0  0  0  0  0  0  0  0  0  0
    7.1222  -13.5873   24.4280 C   0  0  0  0  0  0  0  0  0  0  0  0
    7.1044  -14.2754   23.1291 C   0  0  0  0  0  0  0  0  0  0  0  0
    8.4289  -14.9254   22.8584 C   0  0  2  0  0  0  0  0  0  0  0  0
    8.3669  -15.5849   21.5820 N   0  0  0  0  0  0  0  0  0  0  0  0
    8.6660  -15.9104   23.9630 C   0  0  0  0  0  0  0  0  0  0  0  0
    7.8157  -16.7885   24.2472 O   0  0  0  0  0  0  0  0  0  0  0  0
    7.8961  -12.4284   24.5168 C   0  0  0  0  0  0  0  0  0  0  0  0
    7.9603  -11.7293   25.7063 C   0  0  0  0  0  0  0  0  0  0  0  0
    9.8572  -15.8876   24.7270 N   0  0  0  0  0  0  0  0  0  0  0  0
   10.0535  -16.8196   25.8523 C   0  0  1  0  0  0  0  0  0  0  0  0
   11.4821  -17.2883   25.7616 C   0  0  0  0  0  0  0  0  0  0  0  0
   11.6088  -18.2868   24.6897 C   0  0  0  0  0  0  0  0  0  0  0  0
   10.5891  -18.8395   23.9570 C   0  0  0  0  0  0  0  0  0  0  0  0
   11.1489  -19.7364   23.0941 N   0  0  0  0  0  0  0  0  0  0  0  0
   12.4777  -19.7432   23.2832 C   0  0  0  0  0  0  0  0  0  0  0  0
   12.7424  -18.8584   24.2549 N   0  0  0  0  0  0  0  0  0  0  0  0
    9.8450  -16.1311   27.1373 C   0  0  0  0  0  0  0  0  0  0  0  0
    9.9560  -16.8184   28.1976 O   0  0  0  0  0  0  0  0  0  0  0  0
    9.5407  -14.8019   27.3108 O   0  0  0  0  0  0  0  0  0  0  0  0
  2  1  1  0
  3  2  2  0
  4  3  1  0
  5 11  1  0
  5  4  2  0
  6  5  1  0
  7  6  1  0
  7  8  1  6
  9  7  1  0
  9 10  2  0
 11 12  2  0
 12  2  1  0
 13 14  1  0
 14 15  2  0
 15 16  1  0
 17 18  1  0
 17 16  2  0
 19 20  1  0
 19 18  1  1
 20  9  1  0
 21 19  1  0
 22 21  2  0
 23 17  1  0
 24 23  2  0
 24 14  1  0
 25 21  1  0
 26 25  1  0
 26 27  1  1
 27 28  1  0
 28 29  2  0
 29 30  1  0
 31 30  1  0
 32 28  1  0
 32 31  2  0
 33 26  1  0
 33 35  1  0
 34 33  2  0
M  END
$$$$
