YYH.pdb
     RDKit          3D

 35 37  0  0  1  0  0  0  0  0999 V2000
   12.5475  -16.0297   12.4433 O   0  0  0  0  0  0  0  0  0  0  0  0
   12.8096  -16.2439   13.7954 C   0  0  0  0  0  0  0  0  0  0  0  0
   11.7665  -16.6457   14.6029 C   0  0  0  0  0  0  0  0  0  0  0  0
   11.9603  -16.8751   15.9530 C   0  0  0  0  0  0  0  0  0  0  0  0
   13.2034  -16.7052   16.5159 C   0  0  0  0  0  0  0  0  0  0  0  0
   13.3835  -16.9576   17.9651 C   0  0  0  0  0  0  0  0  0  0  0  0
   12.6841  -15.8296   18.7014 C   0  0  2  0  0  0  0  0  0  0  0  0
   13.3489  -14.5647   18.5131 N   0  0  0  0  0  0  0  0  0  0  0  0
   12.5382  -16.0965   20.1436 C   0  0  0  0  0  0  0  0  0  0  0  0
   13.0413  -17.0942   20.7220 O   0  0  0  0  0  0  0  0  0  0  0  0
   14.2407  -16.2996   15.6832 C   0  0  0  0  0  0  0  0  0  0  0  0
   14.0515  -16.0715   14.3444 C   0  0  0  0  0  0  0  0  0  0  0  0
    7.6047  -10.9359   18.9138 O   0  0  0  0  0  0  0  0  0  0  0  0
    8.0563  -12.1935   19.3347 C   0  0  0  0  0  0  0  0  0  0  0  0
    7.7607  -13.3541   18.6749 C   0  0  0  0  0  0  0  0  0  0  0  0
    8.2024  -14.5950   19.0845 C   0  0  0  0  0  0  0  0  0  0  0  0
    8.9814  -14.6313   20.2238 C   0  0  0  0  0  0  0  0  0  0  0  0
    9.5156  -15.8889   20.7661 C   0  0  0  0  0  0  0  0  0  0  0  0
   10.6362  -15.6159   21.7251 C   0  0  2  0  0  0  0  0  0  0  0  0
   11.7926  -15.2017   20.9775 N   0  0  0  0  0  0  0  0  0  0  0  0
   10.9007  -16.8936   22.4629 C   0  0  0  0  0  0  0  0  0  0  0  0
   10.1123  -17.8668   22.3849 O   0  0  0  0  0  0  0  0  0  0  0  0
    9.2982  -13.4611   20.9167 C   0  0  0  0  0  0  0  0  0  0  0  0
    8.8310  -12.2422   20.4653 C   0  0  0  0  0  0  0  0  0  0  0  0
   12.0491  -17.0509   23.2751 N   0  0  0  0  0  0  0  0  0  0  0  0
   12.2384  -18.2628   24.0929 C   0  0  1  0  0  0  0  0  0  0  0  0
   13.7215  -18.3793   24.3291 C   0  0  0  0  0  0  0  0  0  0  0  0
   14.3803  -18.8698   23.1093 C   0  0  0  0  0  0  0  0  0  0  0  0
   13.7756  -19.1840   21.9187 C   0  0  0  0  0  0  0  0  0  0  0  0
   14.7511  -19.6236   21.0714 N   0  0  0  0  0  0  0  0  0  0  0  0
   15.9285  -19.5849   21.7145 C   0  0  0  0  0  0  0  0  0  0  0  0
   15.6881  -19.1254   22.9507 N   0  0  0  0  0  0  0  0  0  0  0  0
   11.5462  -18.1284   25.3858 C   0  0  0  0  0  0  0  0  0  0  0  0
   11.6504  -19.0860   26.2111 O   0  0  0  0  0  0  0  0  0  0  0  0
   10.7901  -17.0574   25.7989 O   0  0  0  0  0  0  0  0  0  0  0  0
  2  1  1  0
  3  2  2  0
  4  3  1  0
  5 11  1  0
  5  4  2  0
  6  5  1  0
  7  6  1  0
  7  8  1  1
  9  7  1  0
  9 10  2  0
 11 12  2  0
 12  2  1  0
 13 14  1  0
 14 15  2  0
 15 16  1  0
 17 18  1  0
 17 16  2  0
 19 20  1  0
 19 18  1  6
 20  9  1  0
 21 19  1  0
 22 21  2  0
 23 17  1  0
 24 23  2  0
 24 14  1  0
 25 21  1  0
 26 25  1  0
 26 27  1  1
 27 28  1  0
 28 29  2  0
 29 30  1  0
 31 30  1  0
 32 28  1  0
 32 31  2  0
 33 26  1  0
 33 35  1  0
 34 33  2  0
M  END
$$$$
