YYH.pdb
     RDKit          3D

 35 37  0  0  1  0  0  0  0  0999 V2000
    6.8641  -14.3180   14.6856 O   0  0  0  0  0  0  0  0  0  0  0  0
    7.6448  -14.3139   15.8401 C   0  0  0  0  0  0  0  0  0  0  0  0
    7.2517  -13.5065   16.8867 C   0  0  0  0  0  0  0  0  0  0  0  0
    7.9826  -13.4569   18.0598 C   0  0  0  0  0  0  0  0  0  0  0  0
    9.1202  -14.2162   18.2031 C   0  0  0  0  0  0  0  0  0  0  0  0
    9.8849  -14.1441   19.4704 C   0  0  0  0  0  0  0  0  0  0  0  0
    9.6217  -15.4370   20.2207 C   0  0  2  0  0  0  0  0  0  0  0  0
    8.3452  -16.0122   19.8788 N   0  0  0  0  0  0  0  0  0  0  0  0
    9.7095  -15.2737   21.6830 C   0  0  0  0  0  0  0  0  0  0  0  0
   10.7871  -15.0615   22.2969 O   0  0  0  0  0  0  0  0  0  0  0  0
    9.4981  -15.0231   17.1353 C   0  0  0  0  0  0  0  0  0  0  0  0
    8.7754  -15.0742   15.9712 C   0  0  0  0  0  0  0  0  0  0  0  0
    7.1179  -12.5325   29.5233 O   0  0  0  0  0  0  0  0  0  0  0  0
    7.1422  -12.9867   28.1981 C   0  0  0  0  0  0  0  0  0  0  0  0
    7.4701  -12.1867   27.1388 C   0  0  0  0  0  0  0  0  0  0  0  0
    7.4958  -12.6282   25.8322 C   0  0  0  0  0  0  0  0  0  0  0  0
    7.1680  -13.9522   25.6181 C   0  0  0  0  0  0  0  0  0  0  0  0
    7.1570  -14.5476   24.2742 C   0  0  0  0  0  0  0  0  0  0  0  0
    8.5295  -15.0191   23.8949 C   0  0  2  0  0  0  0  0  0  0  0  0
    8.5328  -15.3521   22.4960 N   0  0  0  0  0  0  0  0  0  0  0  0
    8.8255  -16.2238   24.7362 C   0  0  0  0  0  0  0  0  0  0  0  0
    8.1447  -17.2731   24.6350 O   0  0  0  0  0  0  0  0  0  0  0  0
    6.8294  -14.7909   26.6820 C   0  0  0  0  0  0  0  0  0  0  0  0
    6.8184  -14.3002   27.9731 C   0  0  0  0  0  0  0  0  0  0  0  0
    9.8836  -16.2236   25.6763 N   0  0  0  0  0  0  0  0  0  0  0  0
   10.1295  -17.3925   26.5405 C   0  0  1  0  0  0  0  0  0  0  0  0
   11.5903  -17.7255   26.3862 C   0  0  0  0  0  0  0  0  0  0  0  0
   11.7932  -18.5069   25.1572 C   0  0  0  0  0  0  0  0  0  0  0  0
   10.8274  -18.9047   24.2677 C   0  0  0  0  0  0  0  0  0  0  0  0
   11.4479  -19.6288   23.2914 N   0  0  0  0  0  0  0  0  0  0  0  0
   12.7611  -19.6813   23.5640 C   0  0  0  0  0  0  0  0  0  0  0  0
   12.9560  -18.9960   24.6996 N   0  0  0  0  0  0  0  0  0  0  0  0
    9.8485  -17.0638   27.9483 C   0  0  0  0  0  0  0  0  0  0  0  0
    9.5860  -15.8549   28.2288 O   0  0  0  0  0  0  0  0  0  0  0  0
    9.8383  -17.9428   29.0049 O   0  0  0  0  0  0  0  0  0  0  0  0
  2  1  1  0
  3  2  2  0
  4  3  1  0
  5 11  1  0
  5  4  2  0
  6  5  1  0
  7  6  1  0
  7  8  1  1
  9  7  1  0
  9 10  2  0
 11 12  2  0
 12  2  1  0
 13 14  1  0
 14 15  2  0
 15 16  1  0
 17 18  1  0
 17 16  2  0
 19 20  1  0
 19 18  1  1
 20  9  1  0
 21 19  1  0
 22 21  2  0
 23 17  1  0
 24 23  2  0
 24 14  1  0
 25 21  1  0
 26 25  1  0
 26 27  1  1
 27 28  1  0
 28 29  2  0
 29 30  1  0
 31 30  1  0
 32 28  1  0
 32 31  2  0
 33 26  1  0
 33 35  1  0
 34 33  2  0
M  END
$$$$
