YYH.pdb
     RDKit          3D

 35 37  0  0  1  0  0  0  0  0999 V2000
    8.5248  -21.0368   15.2085 O   0  0  0  0  0  0  0  0  0  0  0  0
    8.7807  -20.4307   16.4372 C   0  0  0  0  0  0  0  0  0  0  0  0
    7.7092  -19.9463   17.1576 C   0  0  0  0  0  0  0  0  0  0  0  0
    7.8953  -19.3341   18.3837 C   0  0  0  0  0  0  0  0  0  0  0  0
    9.1593  -19.1973   18.9080 C   0  0  0  0  0  0  0  0  0  0  0  0
    9.3308  -18.5371   20.2237 C   0  0  0  0  0  0  0  0  0  0  0  0
    9.4430  -17.0466   19.9601 C   0  0  2  0  0  0  0  0  0  0  0  0
   10.5321  -16.7340   19.0693 N   0  0  0  0  0  0  0  0  0  0  0  0
    9.5814  -16.2591   21.1983 C   0  0  0  0  0  0  0  0  0  0  0  0
   10.6733  -16.0961   21.8020 O   0  0  0  0  0  0  0  0  0  0  0  0
   10.2250  -19.6928   18.1647 C   0  0  0  0  0  0  0  0  0  0  0  0
   10.0434  -20.3002   16.9488 C   0  0  0  0  0  0  0  0  0  0  0  0
    7.0593  -11.5443   28.2094 O   0  0  0  0  0  0  0  0  0  0  0  0
    7.1261  -12.1920   26.9689 C   0  0  0  0  0  0  0  0  0  0  0  0
    7.9931  -11.8234   25.9780 C   0  0  0  0  0  0  0  0  0  0  0  0
    8.0633  -12.4572   24.7548 C   0  0  0  0  0  0  0  0  0  0  0  0
    7.1991  -13.5150   24.5537 C   0  0  0  0  0  0  0  0  0  0  0  0
    7.1724  -14.2747   23.2955 C   0  0  0  0  0  0  0  0  0  0  0  0
    8.5048  -14.9131   23.0365 C   0  0  2  0  0  0  0  0  0  0  0  0
    8.4410  -15.6239   21.7881 N   0  0  0  0  0  0  0  0  0  0  0  0
    8.7696  -15.8493   24.1768 C   0  0  0  0  0  0  0  0  0  0  0  0
    7.9715  -16.7758   24.4585 O   0  0  0  0  0  0  0  0  0  0  0  0
    6.3036  -13.9121   25.5489 C   0  0  0  0  0  0  0  0  0  0  0  0
    6.2724  -13.2443   26.7575 C   0  0  0  0  0  0  0  0  0  0  0  0
    9.9292  -15.7240   24.9786 N   0  0  0  0  0  0  0  0  0  0  0  0
   10.1594  -16.6237   26.1235 C   0  0  1  0  0  0  0  0  0  0  0  0
   11.5648  -17.1436   25.9697 C   0  0  0  0  0  0  0  0  0  0  0  0
   11.5887  -18.2171   24.9652 C   0  0  0  0  0  0  0  0  0  0  0  0
   10.5045  -18.7984   24.3580 C   0  0  0  0  0  0  0  0  0  0  0  0
   10.9785  -19.7650   23.5192 N   0  0  0  0  0  0  0  0  0  0  0  0
   12.3180  -19.7861   23.6012 C   0  0  0  0  0  0  0  0  0  0  0  0
   12.6743  -18.8412   24.4828 N   0  0  0  0  0  0  0  0  0  0  0  0
   10.0469  -15.8856   27.3929 C   0  0  0  0  0  0  0  0  0  0  0  0
   10.2496  -16.5289   28.4672 O   0  0  0  0  0  0  0  0  0  0  0  0
    9.7435  -14.5528   27.5375 O   0  0  0  0  0  0  0  0  0  0  0  0
  2  1  1  0
  3  2  2  0
  4  3  1  0
  5 11  1  0
  5  4  2  0
  6  5  1  0
  7  6  1  0
  7  8  1  6
  9  7  1  0
  9 10  2  0
 11 12  2  0
 12  2  1  0
 13 14  1  0
 14 15  2  0
 15 16  1  0
 17 18  1  0
 17 16  2  0
 19 20  1  0
 19 18  1  1
 20  9  1  0
 21 19  1  0
 22 21  2  0
 23 17  1  0
 24 23  2  0
 24 14  1  0
 25 21  1  0
 26 25  1  0
 26 27  1  6
 27 28  1  0
 28 29  2  0
 29 30  1  0
 31 30  1  0
 32 28  1  0
 32 31  2  0
 33 26  1  0
 33 35  1  0
 34 33  2  0
M  END
$$$$
