YYH.pdb
     RDKit          3D

 35 37  0  0  1  0  0  0  0  0999 V2000
    7.7982  -13.4401   26.3072 O   0  0  0  0  0  0  0  0  0  0  0  0
    7.2883  -14.4531   25.4971 C   0  0  0  0  0  0  0  0  0  0  0  0
    6.6445  -14.0908   24.3326 C   0  0  0  0  0  0  0  0  0  0  0  0
    6.1161  -15.0476   23.4851 C   0  0  0  0  0  0  0  0  0  0  0  0
    6.2245  -16.3839   23.7913 C   0  0  0  0  0  0  0  0  0  0  0  0
    5.6492  -17.3884   22.8659 C   0  0  0  0  0  0  0  0  0  0  0  0
    6.3400  -17.2042   21.5271 C   0  0  2  0  0  0  0  0  0  0  0  0
    5.9720  -18.2279   20.5815 N   0  0  0  0  0  0  0  0  0  0  0  0
    7.8082  -17.1532   21.6470 C   0  0  0  0  0  0  0  0  0  0  0  0
    8.5331  -18.1741   21.7712 O   0  0  0  0  0  0  0  0  0  0  0  0
    6.8775  -16.7266   24.9702 C   0  0  0  0  0  0  0  0  0  0  0  0
    7.4023  -15.7802   25.8123 C   0  0  0  0  0  0  0  0  0  0  0  0
    8.1196  -13.6464   16.0641 O   0  0  0  0  0  0  0  0  0  0  0  0
    8.7142  -13.8811   17.3109 C   0  0  0  0  0  0  0  0  0  0  0  0
    9.8430  -14.6357   17.4714 C   0  0  0  0  0  0  0  0  0  0  0  0
   10.4328  -14.8701   18.6962 C   0  0  0  0  0  0  0  0  0  0  0  0
    9.8260  -14.2982   19.7966 C   0  0  0  0  0  0  0  0  0  0  0  0
   10.3532  -14.4705   21.1579 C   0  0  0  0  0  0  0  0  0  0  0  0
    9.9275  -15.7922   21.7251 C   0  0  2  0  0  0  0  0  0  0  0  0
    8.4968  -15.8972   21.6269 N   0  0  0  0  0  0  0  0  0  0  0  0
   10.3727  -15.8172   23.1562 C   0  0  0  0  0  0  0  0  0  0  0  0
    9.8303  -15.0869   24.0206 O   0  0  0  0  0  0  0  0  0  0  0  0
    8.6724  -13.5232   19.6607 C   0  0  0  0  0  0  0  0  0  0  0  0
    8.1203  -13.3181   18.4114 C   0  0  0  0  0  0  0  0  0  0  0  0
   11.4212  -16.6650   23.5866 N   0  0  0  0  0  0  0  0  0  0  0  0
   11.3935  -17.2851   24.9239 C   0  0  1  0  0  0  0  0  0  0  0  0
   10.1699  -18.1632   24.9513 C   0  0  0  0  0  0  0  0  0  0  0  0
   10.0402  -18.7909   26.2747 C   0  0  0  0  0  0  0  0  0  0  0  0
   10.8548  -18.5939   27.3608 C   0  0  0  0  0  0  0  0  0  0  0  0
   10.3909  -19.3915   28.3664 N   0  0  0  0  0  0  0  0  0  0  0  0
    9.3194  -20.0658   27.9207 C   0  0  0  0  0  0  0  0  0  0  0  0
    9.1183  -19.6912   26.6493 N   0  0  0  0  0  0  0  0  0  0  0  0
   12.5938  -18.1116   25.1363 C   0  0  0  0  0  0  0  0  0  0  0  0
   13.1201  -18.0984   26.2904 O   0  0  0  0  0  0  0  0  0  0  0  0
   13.2110  -18.9091   24.2024 O   0  0  0  0  0  0  0  0  0  0  0  0
  2  1  1  0
  3  2  2  0
  4  3  1  0
  5 11  1  0
  5  4  2  0
  6  5  1  0
  7  6  1  0
  7  8  1  6
  9  7  1  0
  9 10  2  0
 11 12  2  0
 12  2  1  0
 13 14  1  0
 14 15  2  0
 15 16  1  0
 17 18  1  0
 17 16  2  0
 19 20  1  0
 19 18  1  1
 20  9  1  0
 21 19  1  0
 22 21  2  0
 23 17  1  0
 24 23  2  0
 24 14  1  0
 25 21  1  0
 26 25  1  0
 26 27  1  6
 27 28  1  0
 28 29  2  0
 29 30  1  0
 31 30  1  0
 32 28  1  0
 32 31  2  0
 33 26  1  0
 33 35  1  0
 34 33  2  0
M  END
$$$$
