YYH.pdb
     RDKit          3D

 35 37  0  0  1  0  0  0  0  0999 V2000
   -0.5683  -20.5710   20.0302 O   0  0  0  0  0  0  0  0  0  0  0  0
    0.6843  -20.3253   20.5897 C   0  0  0  0  0  0  0  0  0  0  0  0
    0.8795  -19.1266   21.2430 C   0  0  0  0  0  0  0  0  0  0  0  0
    2.0990  -18.8216   21.8198 C   0  0  0  0  0  0  0  0  0  0  0  0
    3.1433  -19.7137   21.7511 C   0  0  0  0  0  0  0  0  0  0  0  0
    4.4395  -19.3619   22.3775 C   0  0  0  0  0  0  0  0  0  0  0  0
    5.1927  -18.4987   21.3819 C   0  0  2  0  0  0  0  0  0  0  0  0
    5.4113  -19.1793   20.1304 N   0  0  0  0  0  0  0  0  0  0  0  0
    6.4819  -18.0162   21.9088 C   0  0  0  0  0  0  0  0  0  0  0  0
    7.5411  -18.6951   21.8882 O   0  0  0  0  0  0  0  0  0  0  0  0
    2.9243  -20.9161   21.0877 C   0  0  0  0  0  0  0  0  0  0  0  0
    1.7164  -21.2211   20.5149 C   0  0  0  0  0  0  0  0  0  0  0  0
    8.0505  -12.6069   17.9046 O   0  0  0  0  0  0  0  0  0  0  0  0
    8.0278  -13.1293   19.2044 C   0  0  0  0  0  0  0  0  0  0  0  0
    9.1562  -13.3295   19.9502 C   0  0  0  0  0  0  0  0  0  0  0  0
    9.1401  -13.8434   21.2302 C   0  0  0  0  0  0  0  0  0  0  0  0
    7.9036  -14.1616   21.7555 C   0  0  0  0  0  0  0  0  0  0  0  0
    7.7478  -14.7166   23.1077 C   0  0  0  0  0  0  0  0  0  0  0  0
    7.8052  -16.2151   23.0727 C   0  0  2  0  0  0  0  0  0  0  0  0
    6.5888  -16.7099   22.4867 N   0  0  0  0  0  0  0  0  0  0  0  0
    7.9483  -16.6800   24.4905 C   0  0  0  0  0  0  0  0  0  0  0  0
    6.9592  -17.0890   25.1455 O   0  0  0  0  0  0  0  0  0  0  0  0
    6.7356  -13.9671   21.0154 C   0  0  0  0  0  0  0  0  0  0  0  0
    6.8051  -13.4491   19.7369 C   0  0  0  0  0  0  0  0  0  0  0  0
    9.2038  -16.6754   25.1439 N   0  0  0  0  0  0  0  0  0  0  0  0
    9.6352  -17.8220   25.9641 C   0  0  1  0  0  0  0  0  0  0  0  0
    9.7695  -18.9855   25.0170 C   0  0  0  0  0  0  0  0  0  0  0  0
    8.5428  -19.7957   25.0506 C   0  0  0  0  0  0  0  0  0  0  0  0
    7.4596  -19.6127   25.8724 C   0  0  0  0  0  0  0  0  0  0  0  0
    6.5632  -20.6020   25.5891 N   0  0  0  0  0  0  0  0  0  0  0  0
    7.0722  -21.3788   24.6201 C   0  0  0  0  0  0  0  0  0  0  0  0
    8.2744  -20.8774   24.3031 N   0  0  0  0  0  0  0  0  0  0  0  0
   10.9393  -17.5484   26.5912 C   0  0  0  0  0  0  0  0  0  0  0  0
   11.3276  -18.3348   27.5077 O   0  0  0  0  0  0  0  0  0  0  0  0
   11.7933  -16.5170   26.2813 O   0  0  0  0  0  0  0  0  0  0  0  0
  2  1  1  0
  3  2  2  0
  4  3  1  0
  5 11  1  0
  5  4  2  0
  6  5  1  0
  7  6  1  0
  7  8  1  6
  9  7  1  0
  9 10  2  0
 11 12  2  0
 12  2  1  0
 13 14  1  0
 14 15  2  0
 15 16  1  0
 17 18  1  0
 17 16  2  0
 19 20  1  0
 19 18  1  1
 20  9  1  0
 21 19  1  0
 22 21  2  0
 23 17  1  0
 24 23  2  0
 24 14  1  0
 25 21  1  0
 26 25  1  0
 26 27  1  6
 27 28  1  0
 28 29  2  0
 29 30  1  0
 31 30  1  0
 32 28  1  0
 32 31  2  0
 33 26  1  0
 33 35  1  0
 34 33  2  0
M  END
$$$$
