YYH.pdb
     RDKit          3D

 35 37  0  0  1  0  0  0  0  0999 V2000
    8.0224  -14.8593   13.6377 O   0  0  0  0  0  0  0  0  0  0  0  0
    8.4290  -14.6385   14.9524 C   0  0  0  0  0  0  0  0  0  0  0  0
    7.6066  -13.8918   15.7695 C   0  0  0  0  0  0  0  0  0  0  0  0
    7.9524  -13.6365   17.0841 C   0  0  0  0  0  0  0  0  0  0  0  0
    9.1289  -14.1260   17.6013 C   0  0  0  0  0  0  0  0  0  0  0  0
    9.4754  -13.8376   19.0131 C   0  0  0  0  0  0  0  0  0  0  0  0
    9.3844  -15.1507   19.7687 C   0  0  2  0  0  0  0  0  0  0  0  0
    8.1761  -15.8725   19.4581 N   0  0  0  0  0  0  0  0  0  0  0  0
    9.4886  -14.9752   21.2284 C   0  0  0  0  0  0  0  0  0  0  0  0
   10.5210  -14.5478   21.8069 O   0  0  0  0  0  0  0  0  0  0  0  0
    9.9429  -14.8763   16.7598 C   0  0  0  0  0  0  0  0  0  0  0  0
    9.6026  -15.1309   15.4561 C   0  0  0  0  0  0  0  0  0  0  0  0
    7.0846  -12.2981   29.0256 O   0  0  0  0  0  0  0  0  0  0  0  0
    7.0462  -12.9162   27.7689 C   0  0  0  0  0  0  0  0  0  0  0  0
    6.6770  -14.2201   27.5872 C   0  0  0  0  0  0  0  0  0  0  0  0
    6.6372  -14.8340   26.3526 C   0  0  0  0  0  0  0  0  0  0  0  0
    6.9950  -14.0629   25.2646 C   0  0  0  0  0  0  0  0  0  0  0  0
    6.9953  -14.5959   23.8946 C   0  0  0  0  0  0  0  0  0  0  0  0
    8.3788  -15.0111   23.4904 C   0  0  2  0  0  0  0  0  0  0  0  0
    8.3823  -15.2940   22.0806 N   0  0  0  0  0  0  0  0  0  0  0  0
    8.7177  -16.2351   24.2865 C   0  0  0  0  0  0  0  0  0  0  0  0
    7.9544  -17.2309   24.3080 O   0  0  0  0  0  0  0  0  0  0  0  0
    7.3761  -12.7288   25.4220 C   0  0  0  0  0  0  0  0  0  0  0  0
    7.3995  -12.1602   26.6805 C   0  0  0  0  0  0  0  0  0  0  0  0
    9.9107  -16.3141   25.0439 N   0  0  0  0  0  0  0  0  0  0  0  0
   10.1874  -17.4805   25.9021 C   0  0  1  0  0  0  0  0  0  0  0  0
   11.5523  -17.9775   25.5033 C   0  0  0  0  0  0  0  0  0  0  0  0
   11.5516  -18.3369   24.0774 C   0  0  0  0  0  0  0  0  0  0  0  0
   10.6545  -19.1531   23.4364 C   0  0  0  0  0  0  0  0  0  0  0  0
   11.0417  -19.2356   22.1303 N   0  0  0  0  0  0  0  0  0  0  0  0
   12.1472  -18.4933   21.9621 C   0  0  0  0  0  0  0  0  0  0  0  0
   12.4452  -17.9538   23.1526 N   0  0  0  0  0  0  0  0  0  0  0  0
   10.2054  -17.0866   27.3210 C   0  0  0  0  0  0  0  0  0  0  0  0
   10.4076  -17.9966   28.1814 O   0  0  0  0  0  0  0  0  0  0  0  0
   10.0259  -15.8177   27.8178 O   0  0  0  0  0  0  0  0  0  0  0  0
  2  1  1  0
  3  2  2  0
  4  3  1  0
  5 11  1  0
  5  4  2  0
  6  5  1  0
  7  6  1  0
  7  8  1  1
  9  7  1  0
  9 10  2  0
 11 12  2  0
 12  2  1  0
 13 14  1  0
 14 15  2  0
 15 16  1  0
 17 18  1  0
 17 16  2  0
 19 20  1  0
 19 18  1  1
 20  9  1  0
 21 19  1  0
 22 21  2  0
 23 17  1  0
 24 23  2  0
 24 14  1  0
 25 21  1  0
 26 25  1  0
 26 27  1  6
 27 28  1  0
 28 29  2  0
 29 30  1  0
 31 30  1  0
 32 28  1  0
 32 31  2  0
 33 26  1  0
 33 35  1  0
 34 33  2  0
M  END
$$$$
