SIY.pdb
     RDKit          3D

 27 27  0  0  1  0  0  0  0  0999 V2000
   28.2851  -25.6195  -19.4676 O   0  0  0  0  0  0  0  0  0  0  0  0
   28.0285  -25.3060  -18.1331 C   0  0  0  0  0  0  0  0  0  0  0  0
   29.2894  -24.6535  -17.5953 C   0  0  2  0  0  0  0  0  0  0  0  0
   30.0321  -25.6484  -16.9015 N   0  0  0  0  0  0  0  0  0  0  0  0
   28.8602  -23.5194  -16.7552 C   0  0  0  0  0  0  0  0  0  0  0  0
   28.9060  -23.6618  -15.5057 O   0  0  0  0  0  0  0  0  0  0  0  0
   29.5677  -18.3372  -18.5132 C   0  0  0  0  0  0  0  0  0  0  0  0
   29.4321  -19.5261  -17.6361 C   0  0  0  0  0  0  0  0  0  0  0  0
   28.0565  -19.8713  -17.1714 C   0  0  2  0  0  0  0  0  0  0  0  0
   27.6026  -18.7112  -16.2734 C   0  0  0  0  0  0  0  0  0  0  0  0
   27.9416  -21.1762  -16.4265 C   0  0  2  0  0  0  0  0  0  0  0  0
   28.3992  -22.2784  -17.2558 N   0  0  0  0  0  0  0  0  0  0  0  0
   26.6144  -21.3639  -15.8421 C   0  0  0  0  0  0  0  0  0  0  0  0
   25.6144  -21.5756  -16.6122 O   0  0  0  0  0  0  0  0  0  0  0  0
   19.9120  -21.2902   -9.9301 O   0  0  0  0  0  0  0  0  0  0  0  0
   21.1677  -21.3464  -10.5389 C   0  0  0  0  0  0  0  0  0  0  0  0
   21.4999  -22.3677  -11.4040 C   0  0  0  0  0  0  0  0  0  0  0  0
   22.7381  -22.4310  -12.0099 C   0  0  0  0  0  0  0  0  0  0  0  0
   23.7009  -21.4648  -11.7704 C   0  0  0  0  0  0  0  0  0  0  0  0
   25.0031  -21.5532  -12.4172 C   0  0  0  0  0  0  0  0  0  0  0  0
   24.9742  -21.4600  -13.9309 C   0  0  2  0  0  0  0  0  0  0  0  0
   26.3171  -21.3371  -14.4655 N   0  0  0  0  0  0  0  0  0  0  0  0
   24.1789  -20.3249  -14.4092 C   0  0  0  0  0  0  0  0  0  0  0  0
   24.6309  -19.0349  -14.2360 O   0  0  0  0  0  0  0  0  0  0  0  0
   23.3765  -20.4284  -10.8983 C   0  0  0  0  0  0  0  0  0  0  0  0
   22.1433  -20.3974  -10.3174 C   0  0  0  0  0  0  0  0  0  0  0  0
   23.0784  -20.5116  -14.9803 O   0  0  0  0  0  0  0  0  0  0  0  0
  2  1  1  0
  3  2  1  0
  3  4  1  1
  5  6  2  0
  5  3  1  0
  7  8  1  0
  9  8  1  0
  9 10  1  1
 11  9  1  0
 11 12  1  6
 12  5  1  0
 13 11  1  0
 14 13  2  0
 16 17  2  0
 16 15  1  0
 18 17  1  0
 19 18  2  0
 21 20  1  1
 20 19  1  0
 21 22  1  0
 22 13  1  0
 23 21  1  0
 23 24  1  0
 25 19  1  0
 25 26  2  0
 26 16  1  0
 27 23  2  0
M  END
$$$$
