SIY.pdb
     RDKit          3D

 27 27  0  0  1  0  0  0  0  0999 V2000
   22.1212   -9.2430  -20.6471 O   0  0  0  0  0  0  0  0  0  0  0  0
   22.6598  -10.5295  -20.6529 C   0  0  0  0  0  0  0  0  0  0  0  0
   21.6783  -11.4092  -19.8995 C   0  0  2  0  0  0  0  0  0  0  0  0
   20.4238  -11.3302  -20.5648 N   0  0  0  0  0  0  0  0  0  0  0  0
   21.6574  -10.9306  -18.5043 C   0  0  0  0  0  0  0  0  0  0  0  0
   20.6803  -10.2273  -18.1378 O   0  0  0  0  0  0  0  0  0  0  0  0
   23.5846  -14.0030  -14.4167 C   0  0  0  0  0  0  0  0  0  0  0  0
   22.8036  -12.9854  -15.1622 C   0  0  0  0  0  0  0  0  0  0  0  0
   23.3942  -11.6184  -15.2624 C   0  0  2  0  0  0  0  0  0  0  0  0
   23.4007  -11.0476  -13.8367 C   0  0  0  0  0  0  0  0  0  0  0  0
   22.6733  -10.6768  -16.1922 C   0  0  2  0  0  0  0  0  0  0  0  0
   22.6610  -11.2068  -17.5453 N   0  0  0  0  0  0  0  0  0  0  0  0
   23.1658   -9.3046  -16.0800 C   0  0  0  0  0  0  0  0  0  0  0  0
   24.2940   -8.9987  -16.6014 O   0  0  0  0  0  0  0  0  0  0  0  0
   24.0132   -0.8241  -17.5035 O   0  0  0  0  0  0  0  0  0  0  0  0
   23.7751   -2.1928  -17.3602 C   0  0  0  0  0  0  0  0  0  0  0  0
   22.4937   -2.7024  -17.3697 C   0  0  0  0  0  0  0  0  0  0  0  0
   22.2493   -4.0531  -17.2287 C   0  0  0  0  0  0  0  0  0  0  0  0
   23.2888   -4.9545  -17.0712 C   0  0  0  0  0  0  0  0  0  0  0  0
   23.0082   -6.3760  -16.9198 C   0  0  0  0  0  0  0  0  0  0  0  0
   22.9373   -6.8659  -15.4861 C   0  0  2  0  0  0  0  0  0  0  0  0
   22.4961   -8.2468  -15.4344 N   0  0  0  0  0  0  0  0  0  0  0  0
   22.0337   -6.0590  -14.6602 C   0  0  0  0  0  0  0  0  0  0  0  0
   20.7746   -6.5230  -14.3471 O   0  0  0  0  0  0  0  0  0  0  0  0
   24.5874   -4.4513  -17.0602 C   0  0  0  0  0  0  0  0  0  0  0  0
   24.7919   -3.1107  -17.2022 C   0  0  0  0  0  0  0  0  0  0  0  0
   22.3926   -4.9377  -14.2290 O   0  0  0  0  0  0  0  0  0  0  0  0
  2  1  1  0
  3  2  1  0
  3  4  1  6
  5  6  2  0
  5  3  1  0
  7  8  1  0
  9  8  1  0
  9 10  1  1
 11  9  1  0
 11 12  1  6
 12  5  1  0
 13 11  1  0
 14 13  2  0
 16 17  2  0
 16 15  1  0
 18 17  1  0
 19 18  2  0
 21 20  1  6
 20 19  1  0
 21 22  1  0
 22 13  1  0
 23 21  1  0
 23 24  1  0
 25 19  1  0
 25 26  2  0
 26 16  1  0
 27 23  2  0
M  END
$$$$
