SIY.pdb
     RDKit          3D

 27 27  0  0  1  0  0  0  0  0999 V2000
   24.9502  -23.8813  -16.9010 O   0  0  0  0  0  0  0  0  0  0  0  0
   25.5837  -23.6254  -18.1169 C   0  0  0  0  0  0  0  0  0  0  0  0
   27.0638  -23.4865  -17.8089 C   0  0  2  0  0  0  0  0  0  0  0  0
   27.6236  -24.7932  -17.7651 N   0  0  0  0  0  0  0  0  0  0  0  0
   27.1696  -22.7373  -16.5425 C   0  0  0  0  0  0  0  0  0  0  0  0
   27.6014  -23.3489  -15.5310 O   0  0  0  0  0  0  0  0  0  0  0  0
   28.3358  -17.3404  -16.6742 C   0  0  0  0  0  0  0  0  0  0  0  0
   28.2774  -18.7482  -16.2096 C   0  0  0  0  0  0  0  0  0  0  0  0
   27.0735  -19.1533  -15.4260 C   0  0  2  0  0  0  0  0  0  0  0  0
   27.1355  -18.3692  -14.1071 C   0  0  0  0  0  0  0  0  0  0  0  0
   26.9607  -20.6294  -15.1442 C   0  0  2  0  0  0  0  0  0  0  0  0
   26.8190  -21.3753  -16.3834 N   0  0  0  0  0  0  0  0  0  0  0  0
   25.9426  -20.9233  -14.1366 C   0  0  0  0  0  0  0  0  0  0  0  0
   24.7076  -20.9171  -14.4726 O   0  0  0  0  0  0  0  0  0  0  0  0
   27.6679  -18.3853   -6.8035 O   0  0  0  0  0  0  0  0  0  0  0  0
   27.2069  -19.3179   -7.7353 C   0  0  0  0  0  0  0  0  0  0  0  0
   25.8628  -19.5983   -7.8641 C   0  0  0  0  0  0  0  0  0  0  0  0
   25.3986  -20.5182   -8.7820 C   0  0  0  0  0  0  0  0  0  0  0  0
   26.2709  -21.1996   -9.6143 C   0  0  0  0  0  0  0  0  0  0  0  0
   25.7598  -22.1697  -10.5733 C   0  0  0  0  0  0  0  0  0  0  0  0
   25.1584  -21.5717  -11.8308 C   0  0  2  0  0  0  0  0  0  0  0  0
   26.1955  -21.2267  -12.7845 N   0  0  0  0  0  0  0  0  0  0  0  0
   24.3618  -20.3716  -11.5573 C   0  0  0  0  0  0  0  0  0  0  0  0
   23.0485  -20.4832  -11.1557 O   0  0  0  0  0  0  0  0  0  0  0  0
   27.6308  -20.9244   -9.4932 C   0  0  0  0  0  0  0  0  0  0  0  0
   28.0542  -20.0093   -8.5753 C   0  0  0  0  0  0  0  0  0  0  0  0
   24.8629  -19.2294  -11.6854 O   0  0  0  0  0  0  0  0  0  0  0  0
  2  1  1  0
  3  2  1  0
  3  4  1  1
  5  6  2  0
  5  3  1  0
  7  8  1  0
  9  8  1  0
  9 10  1  1
 11  9  1  0
 11 12  1  6
 12  5  1  0
 13 11  1  0
 14 13  2  0
 16 17  2  0
 16 15  1  0
 18 17  1  0
 19 18  2  0
 21 20  1  1
 20 19  1  0
 21 22  1  0
 22 13  1  0
 23 21  1  0
 23 24  1  0
 25 19  1  0
 25 26  2  0
 26 16  1  0
 27 23  2  0
M  END
$$$$
