SIY.pdb
     RDKit          3D

 27 27  0  0  1  0  0  0  0  0999 V2000
   18.7263  -32.8537  -11.7497 O   0  0  0  0  0  0  0  0  0  0  0  0
   20.0604  -33.0620  -12.0991 C   0  0  0  0  0  0  0  0  0  0  0  0
   20.8921  -32.2557  -11.1178 C   0  0  2  0  0  0  0  0  0  0  0  0
   20.5645  -30.8830  -11.2950 N   0  0  0  0  0  0  0  0  0  0  0  0
   22.3057  -32.5823  -11.3844 C   0  0  0  0  0  0  0  0  0  0  0  0
   22.8204  -32.1464  -12.4468 O   0  0  0  0  0  0  0  0  0  0  0  0
   25.8562  -31.4612   -9.0701 C   0  0  0  0  0  0  0  0  0  0  0  0
   25.2388  -32.7258   -8.6001 C   0  0  0  0  0  0  0  0  0  0  0  0
   25.2825  -33.8888   -9.5344 C   0  0  2  0  0  0  0  0  0  0  0  0
   26.7658  -34.1324   -9.8483 C   0  0  0  0  0  0  0  0  0  0  0  0
   24.5065  -33.7108  -10.8139 C   0  0  2  0  0  0  0  0  0  0  0  0
   23.1272  -33.3535  -10.5279 N   0  0  0  0  0  0  0  0  0  0  0  0
   24.6659  -34.8477  -11.7195 C   0  0  0  0  0  0  0  0  0  0  0  0
   24.0872  -35.9554  -11.4433 O   0  0  0  0  0  0  0  0  0  0  0  0
   24.5300  -41.2577  -17.3673 O   0  0  0  0  0  0  0  0  0  0  0  0
   24.4604  -40.0972  -16.5934 C   0  0  0  0  0  0  0  0  0  0  0  0
   24.6795  -40.1291  -15.2322 C   0  0  0  0  0  0  0  0  0  0  0  0
   24.6126  -38.9874  -14.4600 C   0  0  0  0  0  0  0  0  0  0  0  0
   24.3209  -37.7579  -15.0264 C   0  0  0  0  0  0  0  0  0  0  0  0
   24.2511  -36.5658  -14.1919 C   0  0  0  0  0  0  0  0  0  0  0  0
   25.5931  -36.0108  -13.7542 C   0  0  2  0  0  0  0  0  0  0  0  0
   25.4179  -34.8437  -12.9106 N   0  0  0  0  0  0  0  0  0  0  0  0
   26.4450  -35.6396  -14.8884 C   0  0  0  0  0  0  0  0  0  0  0  0
   26.7938  -34.3230  -15.0966 O   0  0  0  0  0  0  0  0  0  0  0  0
   24.0978  -37.7135  -16.4004 C   0  0  0  0  0  0  0  0  0  0  0  0
   24.1720  -38.8613  -17.1327 C   0  0  0  0  0  0  0  0  0  0  0  0
   26.8663  -36.5128  -15.6834 O   0  0  0  0  0  0  0  0  0  0  0  0
  2  1  1  0
  3  2  1  0
  3  4  1  6
  5  6  2  0
  5  3  1  0
  7  8  1  0
  9  8  1  0
  9 10  1  6
 11  9  1  0
 11 12  1  1
 12  5  1  0
 13 11  1  0
 14 13  2  0
 16 17  2  0
 16 15  1  0
 18 17  1  0
 19 18  2  0
 21 20  1  6
 20 19  1  0
 21 22  1  0
 22 13  1  0
 23 21  1  0
 23 24  1  0
 25 19  1  0
 25 26  2  0
 26 16  1  0
 27 23  2  0
M  END
$$$$
