SIY.pdb
     RDKit          3D

 27 27  0  0  1  0  0  0  0  0999 V2000
   21.0523  -13.8338  -18.5322 O   0  0  0  0  0  0  0  0  0  0  0  0
   21.5383  -12.6647  -17.9472 C   0  0  0  0  0  0  0  0  0  0  0  0
   22.4425  -12.0128  -18.9778 C   0  0  2  0  0  0  0  0  0  0  0  0
   23.6577  -12.7506  -19.0193 N   0  0  0  0  0  0  0  0  0  0  0  0
   22.6015  -10.6020  -18.5773 C   0  0  0  0  0  0  0  0  0  0  0  0
   23.5456  -10.3146  -17.7964 O   0  0  0  0  0  0  0  0  0  0  0  0
   21.5193   -4.9034  -20.7684 C   0  0  0  0  0  0  0  0  0  0  0  0
   21.7963   -5.8029  -19.6215 C   0  0  0  0  0  0  0  0  0  0  0  0
   21.6213   -7.2671  -19.8516 C   0  0  2  0  0  0  0  0  0  0  0  0
   20.1488   -7.4683  -20.2382 C   0  0  0  0  0  0  0  0  0  0  0  0
   21.9716   -8.1453  -18.6782 C   0  0  2  0  0  0  0  0  0  0  0  0
   21.7655   -9.5451  -19.0099 N   0  0  0  0  0  0  0  0  0  0  0  0
   21.3164   -7.7085  -17.4461 C   0  0  0  0  0  0  0  0  0  0  0  0
   20.1619   -8.1751  -17.1504 O   0  0  0  0  0  0  0  0  0  0  0  0
   19.3985   -6.4406   -9.0602 O   0  0  0  0  0  0  0  0  0  0  0  0
   19.9864   -6.6590  -10.3081 C   0  0  0  0  0  0  0  0  0  0  0  0
   20.9287   -5.7911  -10.8185 C   0  0  0  0  0  0  0  0  0  0  0  0
   21.5146   -5.9993  -12.0504 C   0  0  0  0  0  0  0  0  0  0  0  0
   21.1761   -7.0952  -12.8264 C   0  0  0  0  0  0  0  0  0  0  0  0
   21.8038   -7.2936  -14.1259 C   0  0  0  0  0  0  0  0  0  0  0  0
   21.2155   -6.4683  -15.2543 C   0  0  2  0  0  0  0  0  0  0  0  0
   21.8507   -6.7945  -16.5170 N   0  0  0  0  0  0  0  0  0  0  0  0
   21.3506   -5.0263  -15.0258 C   0  0  0  0  0  0  0  0  0  0  0  0
   20.3314   -4.3166  -14.4291 O   0  0  0  0  0  0  0  0  0  0  0  0
   20.2255   -7.9788  -12.3210 C   0  0  0  0  0  0  0  0  0  0  0  0
   19.6671   -7.7420  -11.0998 C   0  0  0  0  0  0  0  0  0  0  0  0
   22.3926   -4.4199  -15.3702 O   0  0  0  0  0  0  0  0  0  0  0  0
  2  1  1  0
  3  2  1  0
  3  4  1  1
  5  6  2  0
  5  3  1  0
  7  8  1  0
  9  8  1  0
  9 10  1  1
 11  9  1  0
 11 12  1  6
 12  5  1  0
 13 11  1  0
 14 13  2  0
 16 17  2  0
 16 15  1  0
 18 17  1  0
 19 18  2  0
 21 20  1  1
 20 19  1  0
 21 22  1  0
 22 13  1  0
 23 21  1  0
 23 24  1  0
 25 19  1  0
 25 26  2  0
 26 16  1  0
 27 23  2  0
M  END
$$$$
