SIY.pdb
     RDKit          3D

 27 27  0  0  1  0  0  0  0  0999 V2000
   24.5646   -9.0649  -21.9458 O   0  0  0  0  0  0  0  0  0  0  0  0
   23.7552   -8.7815  -20.8459 C   0  0  0  0  0  0  0  0  0  0  0  0
   23.2874  -10.1191  -20.3012 C   0  0  2  0  0  0  0  0  0  0  0  0
   22.3049  -10.6322  -21.1924 N   0  0  0  0  0  0  0  0  0  0  0  0
   22.7974   -9.8763  -18.9311 C   0  0  0  0  0  0  0  0  0  0  0  0
   21.6365   -9.4101  -18.7950 O   0  0  0  0  0  0  0  0  0  0  0  0
   23.4904  -13.4533  -14.9986 C   0  0  0  0  0  0  0  0  0  0  0  0
   23.0279  -12.3273  -15.8468 C   0  0  0  0  0  0  0  0  0  0  0  0
   23.4905  -10.9598  -15.4681 C   0  0  2  0  0  0  0  0  0  0  0  0
   22.9342  -10.6922  -14.0619 C   0  0  0  0  0  0  0  0  0  0  0  0
   23.0699   -9.8592  -16.4076 C   0  0  2  0  0  0  0  0  0  0  0  0
   23.5423  -10.1311  -17.7548 N   0  0  0  0  0  0  0  0  0  0  0  0
   23.4167   -8.5338  -15.8966 C   0  0  0  0  0  0  0  0  0  0  0  0
   24.6469   -8.2389  -15.7020 O   0  0  0  0  0  0  0  0  0  0  0  0
   26.0355   -5.3190  -20.6555 O   0  0  0  0  0  0  0  0  0  0  0  0
   25.2062   -5.2686  -19.5329 C   0  0  0  0  0  0  0  0  0  0  0  0
   23.9535   -5.8450  -19.5405 C   0  0  0  0  0  0  0  0  0  0  0  0
   23.1277   -5.7998  -18.4358 C   0  0  0  0  0  0  0  0  0  0  0  0
   23.5284   -5.1695  -17.2696 C   0  0  0  0  0  0  0  0  0  0  0  0
   22.6391   -5.1299  -16.1165 C   0  0  0  0  0  0  0  0  0  0  0  0
   22.8857   -6.2093  -15.0799 C   0  0  2  0  0  0  0  0  0  0  0  0
   22.4981   -7.5112  -15.5891 N   0  0  0  0  0  0  0  0  0  0  0  0
   22.1592   -5.9650  -13.8300 C   0  0  0  0  0  0  0  0  0  0  0  0
   22.4355   -4.8496  -13.0697 O   0  0  0  0  0  0  0  0  0  0  0  0
   24.7918   -4.5838  -17.2503 C   0  0  0  0  0  0  0  0  0  0  0  0
   25.5813   -4.6476  -18.3602 C   0  0  0  0  0  0  0  0  0  0  0  0
   21.2789   -6.7661  -13.4357 O   0  0  0  0  0  0  0  0  0  0  0  0
  2  1  1  0
  3  2  1  0
  3  4  1  6
  5  6  2  0
  5  3  1  0
  7  8  1  0
  9  8  1  0
  9 10  1  1
 11  9  1  0
 11 12  1  6
 12  5  1  0
 13 11  1  0
 14 13  2  0
 16 17  2  0
 16 15  1  0
 18 17  1  0
 19 18  2  0
 21 20  1  6
 20 19  1  0
 21 22  1  0
 22 13  1  0
 23 21  1  0
 23 24  1  0
 25 19  1  0
 25 26  2  0
 26 16  1  0
 27 23  2  0
M  END
$$$$
