SIY.pdb
     RDKit          3D

 27 27  0  0  1  0  0  0  0  0999 V2000
   18.9199  -11.9883  -19.5915 O   0  0  0  0  0  0  0  0  0  0  0  0
   19.2988  -11.5303  -18.3298 C   0  0  0  0  0  0  0  0  0  0  0  0
   20.5248  -12.3326  -17.9322 C   0  0  2  0  0  0  0  0  0  0  0  0
   20.0813  -13.5960  -17.4527 N   0  0  0  0  0  0  0  0  0  0  0  0
   21.2590  -11.5285  -16.9370 C   0  0  0  0  0  0  0  0  0  0  0  0
   20.8055  -11.4864  -15.7639 O   0  0  0  0  0  0  0  0  0  0  0  0
   26.3545  -10.3139  -14.3632 C   0  0  0  0  0  0  0  0  0  0  0  0
   25.4033   -9.5434  -15.2015 C   0  0  0  0  0  0  0  0  0  0  0  0
   24.5991  -10.3136  -16.1953 C   0  0  2  0  0  0  0  0  0  0  0  0
   25.2432  -10.0521  -17.5645 C   0  0  0  0  0  0  0  0  0  0  0  0
   23.1335   -9.9659  -16.2393 C   0  0  2  0  0  0  0  0  0  0  0  0
   22.4410  -10.7987  -17.2082 N   0  0  0  0  0  0  0  0  0  0  0  0
   22.9110   -8.5297  -16.4012 C   0  0  0  0  0  0  0  0  0  0  0  0
   23.1488   -7.9820  -17.5332 O   0  0  0  0  0  0  0  0  0  0  0  0
   19.7599   -0.2789  -15.7490 O   0  0  0  0  0  0  0  0  0  0  0  0
   20.0195   -1.6510  -15.7221 C   0  0  0  0  0  0  0  0  0  0  0  0
   19.8629   -2.3877  -14.5670 C   0  0  0  0  0  0  0  0  0  0  0  0
   20.1171   -3.7436  -14.5315 C   0  0  0  0  0  0  0  0  0  0  0  0
   20.5422   -4.4205  -15.6624 C   0  0  0  0  0  0  0  0  0  0  0  0
   20.8089   -5.8514  -15.6017 C   0  0  0  0  0  0  0  0  0  0  0  0
   22.2778   -6.2293  -15.5892 C   0  0  2  0  0  0  0  0  0  0  0  0
   22.4408   -7.6582  -15.3994 N   0  0  0  0  0  0  0  0  0  0  0  0
   23.0284   -5.5334  -14.5394 C   0  0  0  0  0  0  0  0  0  0  0  0
   22.9121   -5.9246  -13.2234 O   0  0  0  0  0  0  0  0  0  0  0  0
   20.7038   -3.6866  -16.8350 C   0  0  0  0  0  0  0  0  0  0  0  0
   20.4434   -2.3482  -16.8337 C   0  0  0  0  0  0  0  0  0  0  0  0
   23.7842   -4.5742  -14.8236 O   0  0  0  0  0  0  0  0  0  0  0  0
  2  1  1  0
  3  2  1  0
  3  4  1  1
  5  6  2  0
  5  3  1  0
  7  8  1  0
  9  8  1  0
  9 10  1  6
 11  9  1  0
 11 12  1  6
 12  5  1  0
 13 11  1  0
 14 13  2  0
 16 17  2  0
 16 15  1  0
 18 17  1  0
 19 18  2  0
 21 20  1  1
 20 19  1  0
 21 22  1  0
 22 13  1  0
 23 21  1  0
 23 24  1  0
 25 19  1  0
 25 26  2  0
 26 16  1  0
 27 23  2  0
M  END
$$$$
