SIY.pdb
     RDKit          3D

 27 27  0  0  1  0  0  0  0  0999 V2000
   25.7243  -19.6841  -16.8323 O   0  0  0  0  0  0  0  0  0  0  0  0
   26.2550  -20.8707  -17.3377 C   0  0  0  0  0  0  0  0  0  0  0  0
   27.1556  -21.4344  -16.2533 C   0  0  2  0  0  0  0  0  0  0  0  0
   27.8363  -22.5598  -16.7946 N   0  0  0  0  0  0  0  0  0  0  0  0
   26.2927  -21.7442  -15.0976 C   0  0  0  0  0  0  0  0  0  0  0  0
   25.6023  -22.7954  -15.1435 O   0  0  0  0  0  0  0  0  0  0  0  0
   25.5353  -20.8634   -9.0105 C   0  0  0  0  0  0  0  0  0  0  0  0
   24.9453  -21.0692  -10.3561 C   0  0  0  0  0  0  0  0  0  0  0  0
   25.8533  -20.8945  -11.5276 C   0  0  2  0  0  0  0  0  0  0  0  0
   26.3625  -19.4471  -11.4644 C   0  0  0  0  0  0  0  0  0  0  0  0
   25.2238  -21.1622  -12.8703 C   0  0  2  0  0  0  0  0  0  0  0  0
   26.1854  -20.9410  -13.9372 N   0  0  0  0  0  0  0  0  0  0  0  0
   23.9555  -20.4537  -13.0370 C   0  0  0  0  0  0  0  0  0  0  0  0
   23.9185  -19.3945  -13.7546 O   0  0  0  0  0  0  0  0  0  0  0  0
   22.1222  -17.0159  -18.4301 O   0  0  0  0  0  0  0  0  0  0  0  0
   21.8745  -17.9450  -17.4172 C   0  0  0  0  0  0  0  0  0  0  0  0
   22.6810  -19.0504  -17.2454 C   0  0  0  0  0  0  0  0  0  0  0  0
   22.4435  -19.9732  -16.2473 C   0  0  0  0  0  0  0  0  0  0  0  0
   21.3789  -19.8235  -15.3744 C   0  0  0  0  0  0  0  0  0  0  0  0
   21.1440  -20.8120  -14.3304 C   0  0  0  0  0  0  0  0  0  0  0  0
   21.4405  -20.3377  -12.9206 C   0  0  2  0  0  0  0  0  0  0  0  0
   22.7252  -20.8370  -12.4683 N   0  0  0  0  0  0  0  0  0  0  0  0
   20.4155  -20.7562  -11.9593 C   0  0  0  0  0  0  0  0  0  0  0  0
   19.2890  -19.9876  -11.7628 O   0  0  0  0  0  0  0  0  0  0  0  0
   20.5575  -18.7108  -15.5383 C   0  0  0  0  0  0  0  0  0  0  0  0
   20.8219  -17.8190  -16.5354 C   0  0  0  0  0  0  0  0  0  0  0  0
   20.5498  -21.8163  -11.3034 O   0  0  0  0  0  0  0  0  0  0  0  0
  2  1  1  0
  3  2  1  0
  3  4  1  6
  5  6  2  0
  5  3  1  0
  7  8  1  0
  9  8  1  0
  9 10  1  6
 11  9  1  0
 11 12  1  6
 12  5  1  0
 13 11  1  0
 14 13  2  0
 16 17  2  0
 16 15  1  0
 18 17  1  0
 19 18  2  0
 21 20  1  6
 20 19  1  0
 21 22  1  0
 22 13  1  0
 23 21  1  0
 23 24  1  0
 25 19  1  0
 25 26  2  0
 26 16  1  0
 27 23  2  0
M  END
$$$$
