SIY.pdb
     RDKit          3D

 27 27  0  0  1  0  0  0  0  0999 V2000
   29.3058  -36.3732  -18.5495 O   0  0  0  0  0  0  0  0  0  0  0  0
   29.2938  -34.9859  -18.4064 C   0  0  0  0  0  0  0  0  0  0  0  0
   30.3390  -34.4462  -19.3661 C   0  0  2  0  0  0  0  0  0  0  0  0
   31.6189  -34.6801  -18.7918 N   0  0  0  0  0  0  0  0  0  0  0  0
   30.0232  -33.0223  -19.5873 C   0  0  0  0  0  0  0  0  0  0  0  0
   30.5654  -32.1748  -18.8315 O   0  0  0  0  0  0  0  0  0  0  0  0
   29.3281  -31.4426  -24.4836 C   0  0  0  0  0  0  0  0  0  0  0  0
   29.6093  -30.9452  -23.1145 C   0  0  0  0  0  0  0  0  0  0  0  0
   28.4492  -30.8370  -22.1817 C   0  0  2  0  0  0  0  0  0  0  0  0
   27.9281  -29.3982  -22.3092 C   0  0  0  0  0  0  0  0  0  0  0  0
   28.7566  -31.1490  -20.7399 C   0  0  2  0  0  0  0  0  0  0  0  0
   29.1511  -32.5398  -20.5922 N   0  0  0  0  0  0  0  0  0  0  0  0
   27.6851  -30.7212  -19.8414 C   0  0  0  0  0  0  0  0  0  0  0  0
   26.6114  -31.4143  -19.7713 O   0  0  0  0  0  0  0  0  0  0  0  0
   28.0615  -34.4538  -14.5813 O   0  0  0  0  0  0  0  0  0  0  0  0
   27.8221  -33.1769  -15.0940 C   0  0  0  0  0  0  0  0  0  0  0  0
   28.8553  -32.3737  -15.5290 C   0  0  0  0  0  0  0  0  0  0  0  0
   28.6278  -31.1110  -16.0368 C   0  0  0  0  0  0  0  0  0  0  0  0
   27.3445  -30.5987  -16.1294 C   0  0  0  0  0  0  0  0  0  0  0  0
   27.1273  -29.2614  -16.6648 C   0  0  0  0  0  0  0  0  0  0  0  0
   26.6502  -29.2172  -18.1039 C   0  0  2  0  0  0  0  0  0  0  0  0
   27.7199  -29.5825  -19.0131 N   0  0  0  0  0  0  0  0  0  0  0  0
   26.1455  -27.8954  -18.4885 C   0  0  0  0  0  0  0  0  0  0  0  0
   25.0506  -27.3546  -17.8505 O   0  0  0  0  0  0  0  0  0  0  0  0
   26.2931  -31.4010  -15.6930 C   0  0  0  0  0  0  0  0  0  0  0  0
   26.5546  -32.6438  -15.1968 C   0  0  0  0  0  0  0  0  0  0  0  0
   26.7013  -27.2404  -19.4019 O   0  0  0  0  0  0  0  0  0  0  0  0
  2  1  1  0
  3  2  1  0
  3  4  1  1
  5  6  2  0
  5  3  1  0
  7  8  1  0
  9  8  1  0
  9 10  1  1
 11  9  1  0
 11 12  1  6
 12  5  1  0
 13 11  1  0
 14 13  2  0
 16 17  2  0
 16 15  1  0
 18 17  1  0
 19 18  2  0
 21 20  1  1
 20 19  1  0
 21 22  1  0
 22 13  1  0
 23 21  1  0
 23 24  1  0
 25 19  1  0
 25 26  2  0
 26 16  1  0
 27 23  2  0
M  END
$$$$
