SIY.pdb
     RDKit          3D

 27 27  0  0  1  0  0  0  0  0999 V2000
   28.0618  -18.4473  -15.0878 O   0  0  0  0  0  0  0  0  0  0  0  0
   27.1095  -19.0765  -14.2863 C   0  0  0  0  0  0  0  0  0  0  0  0
   27.7390  -20.3730  -13.8092 C   0  0  2  0  0  0  0  0  0  0  0  0
   28.0550  -21.1513  -14.9569 N   0  0  0  0  0  0  0  0  0  0  0  0
   26.7726  -21.0068  -12.8925 C   0  0  0  0  0  0  0  0  0  0  0  0
   26.0024  -21.8836  -13.3634 O   0  0  0  0  0  0  0  0  0  0  0  0
   27.4577  -20.1453   -7.5287 C   0  0  0  0  0  0  0  0  0  0  0  0
   26.9849  -20.9130   -8.7069 C   0  0  0  0  0  0  0  0  0  0  0  0
   25.6740  -20.5104   -9.2959 C   0  0  2  0  0  0  0  0  0  0  0  0
   24.5919  -21.1192   -8.3922 C   0  0  0  0  0  0  0  0  0  0  0  0
   25.4555  -20.9395  -10.7238 C   0  0  2  0  0  0  0  0  0  0  0  0
   26.6493  -20.6983  -11.5167 N   0  0  0  0  0  0  0  0  0  0  0  0
   24.2272  -20.3806  -11.2870 C   0  0  0  0  0  0  0  0  0  0  0  0
   24.1377  -19.1164  -11.4655 O   0  0  0  0  0  0  0  0  0  0  0  0
   18.6150  -18.2259  -17.4432 O   0  0  0  0  0  0  0  0  0  0  0  0
   19.5858  -18.6968  -16.5565 C   0  0  0  0  0  0  0  0  0  0  0  0
   20.0151  -17.9329  -15.4916 C   0  0  0  0  0  0  0  0  0  0  0  0
   20.9738  -18.3903  -14.6108 C   0  0  0  0  0  0  0  0  0  0  0  0
   21.5452  -19.6425  -14.7638 C   0  0  0  0  0  0  0  0  0  0  0  0
   22.5588  -20.1040  -13.8247 C   0  0  0  0  0  0  0  0  0  0  0  0
   22.0230  -20.5894  -12.4913 C   0  0  2  0  0  0  0  0  0  0  0  0
   23.0927  -21.1228  -11.6693 N   0  0  0  0  0  0  0  0  0  0  0  0
   20.9939  -21.6229  -12.6414 C   0  0  0  0  0  0  0  0  0  0  0  0
   21.3481  -22.9516  -12.7294 O   0  0  0  0  0  0  0  0  0  0  0  0
   21.1193  -20.4230  -15.8358 C   0  0  0  0  0  0  0  0  0  0  0  0
   20.1700  -19.9391  -16.6866 C   0  0  0  0  0  0  0  0  0  0  0  0
   19.7801  -21.3130  -12.6927 O   0  0  0  0  0  0  0  0  0  0  0  0
  2  1  1  0
  3  2  1  0
  3  4  1  6
  5  6  2  0
  5  3  1  0
  7  8  1  0
  9  8  1  0
  9 10  1  1
 11  9  1  0
 11 12  1  6
 12  5  1  0
 13 11  1  0
 14 13  2  0
 16 17  2  0
 16 15  1  0
 18 17  1  0
 19 18  2  0
 21 20  1  6
 20 19  1  0
 21 22  1  0
 22 13  1  0
 23 21  1  0
 23 24  1  0
 25 19  1  0
 25 26  2  0
 26 16  1  0
 27 23  2  0
M  END
$$$$
