SIY.pdb
     RDKit          3D

 27 27  0  0  1  0  0  0  0  0999 V2000
   20.8348   -9.7415  -20.9803 O   0  0  0  0  0  0  0  0  0  0  0  0
   20.4704   -9.0243  -19.8409 C   0  0  0  0  0  0  0  0  0  0  0  0
   19.1534   -9.6121  -19.3667 C   0  0  2  0  0  0  0  0  0  0  0  0
   18.1455   -9.2238  -20.2919 N   0  0  0  0  0  0  0  0  0  0  0  0
   18.9367   -9.1241  -17.9916 C   0  0  0  0  0  0  0  0  0  0  0  0
   18.3392   -8.0264  -17.8438 O   0  0  0  0  0  0  0  0  0  0  0  0
   16.5906  -12.0032  -14.3173 C   0  0  0  0  0  0  0  0  0  0  0  0
   17.2013  -10.8893  -15.0838 C   0  0  0  0  0  0  0  0  0  0  0  0
   18.5252  -10.3880  -14.6112 C   0  0  2  0  0  0  0  0  0  0  0  0
   18.3005   -9.8572  -13.1878 C   0  0  0  0  0  0  0  0  0  0  0  0
   19.1470   -9.3168  -15.4695 C   0  0  2  0  0  0  0  0  0  0  0  0
   19.3541   -9.8044  -16.8228 N   0  0  0  0  0  0  0  0  0  0  0  0
   20.3315   -8.7278  -14.8464 C   0  0  0  0  0  0  0  0  0  0  0  0
   21.3657   -9.4563  -14.6521 O   0  0  0  0  0  0  0  0  0  0  0  0
   21.4020   -3.2732  -19.3755 O   0  0  0  0  0  0  0  0  0  0  0  0
   21.7208   -4.1368  -18.3252 C   0  0  0  0  0  0  0  0  0  0  0  0
   22.3363   -3.6763  -17.1802 C   0  0  0  0  0  0  0  0  0  0  0  0
   22.6548   -4.5225  -16.1377 C   0  0  0  0  0  0  0  0  0  0  0  0
   22.3667   -5.8755  -16.2022 C   0  0  0  0  0  0  0  0  0  0  0  0
   22.7155   -6.7518  -15.0919 C   0  0  0  0  0  0  0  0  0  0  0  0
   21.6969   -6.7995  -13.9691 C   0  0  2  0  0  0  0  0  0  0  0  0
   20.4527   -7.3887  -14.4264 N   0  0  0  0  0  0  0  0  0  0  0  0
   21.4065   -5.4727  -13.4167 C   0  0  0  0  0  0  0  0  0  0  0  0
   20.1332   -4.9511  -13.4891 O   0  0  0  0  0  0  0  0  0  0  0  0
   21.7450   -6.3519  -17.3539 C   0  0  0  0  0  0  0  0  0  0  0  0
   21.4447   -5.4872  -18.3645 C   0  0  0  0  0  0  0  0  0  0  0  0
   22.3106   -4.7954  -12.8728 O   0  0  0  0  0  0  0  0  0  0  0  0
  2  1  1  0
  3  2  1  0
  3  4  1  6
  5  6  2  0
  5  3  1  0
  7  8  1  0
  9  8  1  0
  9 10  1  1
 11  9  1  0
 11 12  1  6
 12  5  1  0
 13 11  1  0
 14 13  2  0
 16 17  2  0
 16 15  1  0
 18 17  1  0
 19 18  2  0
 21 20  1  6
 20 19  1  0
 21 22  1  0
 22 13  1  0
 23 21  1  0
 23 24  1  0
 25 19  1  0
 25 26  2  0
 26 16  1  0
 27 23  2  0
M  END
$$$$
