SIY.pdb
     RDKit          3D

 27 27  0  0  1  0  0  0  0  0999 V2000
   19.0530  -12.1285  -18.5342 O   0  0  0  0  0  0  0  0  0  0  0  0
   19.8616  -11.2688  -17.7910 C   0  0  0  0  0  0  0  0  0  0  0  0
   20.7651  -12.1509  -16.9481 C   0  0  2  0  0  0  0  0  0  0  0  0
   19.9364  -12.9522  -16.1150 N   0  0  0  0  0  0  0  0  0  0  0  0
   21.6775  -11.2533  -16.2147 C   0  0  0  0  0  0  0  0  0  0  0  0
   21.2296  -10.6604  -15.1991 O   0  0  0  0  0  0  0  0  0  0  0  0
   26.9515  -12.4329  -15.5077 C   0  0  0  0  0  0  0  0  0  0  0  0
   25.5716  -11.8985  -15.4006 C   0  0  0  0  0  0  0  0  0  0  0  0
   25.3291  -10.5338  -15.9541 C   0  0  2  0  0  0  0  0  0  0  0  0
   26.2273   -9.5797  -15.1534 C   0  0  0  0  0  0  0  0  0  0  0  0
   23.8979  -10.0655  -15.8970 C   0  0  2  0  0  0  0  0  0  0  0  0
   23.0251  -11.0105  -16.5729 N   0  0  0  0  0  0  0  0  0  0  0  0
   23.7523   -8.6789  -16.3380 C   0  0  0  0  0  0  0  0  0  0  0  0
   24.1736   -8.3426  -17.4988 O   0  0  0  0  0  0  0  0  0  0  0  0
   20.8292   -0.6214  -18.2505 O   0  0  0  0  0  0  0  0  0  0  0  0
   21.0323   -1.9323  -17.8135 C   0  0  0  0  0  0  0  0  0  0  0  0
   21.4905   -2.9108  -18.6704 C   0  0  0  0  0  0  0  0  0  0  0  0
   21.6939   -4.2083  -18.2471 C   0  0  0  0  0  0  0  0  0  0  0  0
   21.4437   -4.5798  -16.9366 C   0  0  0  0  0  0  0  0  0  0  0  0
   21.6612   -5.9562  -16.5119 C   0  0  0  0  0  0  0  0  0  0  0  0
   23.0720   -6.2691  -16.0511 C   0  0  2  0  0  0  0  0  0  0  0  0
   23.1703   -7.6397  -15.5861 N   0  0  0  0  0  0  0  0  0  0  0  0
   23.5219   -5.3808  -14.9749 C   0  0  0  0  0  0  0  0  0  0  0  0
   24.1919   -4.2133  -15.2692 O   0  0  0  0  0  0  0  0  0  0  0  0
   20.9806   -3.5998  -16.0620 C   0  0  0  0  0  0  0  0  0  0  0  0
   20.7911   -2.3276  -16.5146 C   0  0  0  0  0  0  0  0  0  0  0  0
   23.3047   -5.6706  -13.7746 O   0  0  0  0  0  0  0  0  0  0  0  0
  2  1  1  0
  3  2  1  0
  3  4  1  1
  5  6  2  0
  5  3  1  0
  7  8  1  0
  9  8  1  0
  9 10  1  1
 11  9  1  0
 11 12  1  6
 12  5  1  0
 13 11  1  0
 14 13  2  0
 16 17  2  0
 16 15  1  0
 18 17  1  0
 19 18  2  0
 21 20  1  1
 20 19  1  0
 21 22  1  0
 22 13  1  0
 23 21  1  0
 23 24  1  0
 25 19  1  0
 25 26  2  0
 26 16  1  0
 27 23  2  0
M  END
$$$$
