SIY.pdb
     RDKit          3D

 27 27  0  0  1  0  0  0  0  0999 V2000
   20.6895  -12.3774  -20.7425 O   0  0  0  0  0  0  0  0  0  0  0  0
   21.0332  -11.6574  -19.5986 C   0  0  0  0  0  0  0  0  0  0  0  0
   21.9388  -12.5595  -18.7795 C   0  0  2  0  0  0  0  0  0  0  0  0
   21.1960  -13.7213  -18.4313 N   0  0  0  0  0  0  0  0  0  0  0  0
   22.4033  -11.7667  -17.6254 C   0  0  0  0  0  0  0  0  0  0  0  0
   21.5881  -11.5550  -16.6904 O   0  0  0  0  0  0  0  0  0  0  0  0
   27.5559  -12.1098  -15.7520 C   0  0  0  0  0  0  0  0  0  0  0  0
   26.0921  -11.9103  -15.8886 C   0  0  0  0  0  0  0  0  0  0  0  0
   25.6213  -10.5225  -16.1714 C   0  0  2  0  0  0  0  0  0  0  0  0
   26.0575   -9.6681  -14.9722 C   0  0  0  0  0  0  0  0  0  0  0  0
   24.1372  -10.3831  -16.3920 C   0  0  2  0  0  0  0  0  0  0  0  0
   23.7044  -11.2255  -17.4943 N   0  0  0  0  0  0  0  0  0  0  0  0
   23.7229   -8.9845  -16.4952 C   0  0  0  0  0  0  0  0  0  0  0  0
   24.1213   -8.2842  -17.4896 O   0  0  0  0  0  0  0  0  0  0  0  0
   19.2609   -1.5002  -17.0742 O   0  0  0  0  0  0  0  0  0  0  0  0
   19.7364   -2.8049  -16.9247 C   0  0  0  0  0  0  0  0  0  0  0  0
   20.7566   -3.2911  -17.7150 C   0  0  0  0  0  0  0  0  0  0  0  0
   21.2324   -4.5787  -17.5740 C   0  0  0  0  0  0  0  0  0  0  0  0
   20.6997   -5.4375  -16.6272 C   0  0  0  0  0  0  0  0  0  0  0  0
   21.2141   -6.7943  -16.4982 C   0  0  0  0  0  0  0  0  0  0  0  0
   22.5090   -6.9170  -15.7180 C   0  0  2  0  0  0  0  0  0  0  0  0
   22.8961   -8.3079  -15.5771 N   0  0  0  0  0  0  0  0  0  0  0  0
   22.4179   -6.3231  -14.3805 C   0  0  0  0  0  0  0  0  0  0  0  0
   22.7466   -4.9999  -14.1816 O   0  0  0  0  0  0  0  0  0  0  0  0
   19.6687   -4.9573  -15.8233 C   0  0  0  0  0  0  0  0  0  0  0  0
   19.2234   -3.6794  -15.9901 C   0  0  0  0  0  0  0  0  0  0  0  0
   22.0416   -7.0095  -13.4011 O   0  0  0  0  0  0  0  0  0  0  0  0
  2  1  1  0
  3  2  1  0
  3  4  1  1
  5  6  2  0
  5  3  1  0
  7  8  1  0
  9  8  1  0
  9 10  1  1
 11  9  1  0
 11 12  1  6
 12  5  1  0
 13 11  1  0
 14 13  2  0
 16 17  2  0
 16 15  1  0
 18 17  1  0
 19 18  2  0
 21 20  1  1
 20 19  1  0
 21 22  1  0
 22 13  1  0
 23 21  1  0
 23 24  1  0
 25 19  1  0
 25 26  2  0
 26 16  1  0
 27 23  2  0
M  END
$$$$
