SIY.pdb
     RDKit          3D

 27 27  0  0  1  0  0  0  0  0999 V2000
   29.1660  -20.8795  -14.0086 O   0  0  0  0  0  0  0  0  0  0  0  0
   28.5411  -21.3961  -15.1434 C   0  0  0  0  0  0  0  0  0  0  0  0
   27.3821  -20.4667  -15.4559 C   0  0  2  0  0  0  0  0  0  0  0  0
   27.9023  -19.3422  -16.1543 N   0  0  0  0  0  0  0  0  0  0  0  0
   26.7372  -20.1385  -14.1704 C   0  0  0  0  0  0  0  0  0  0  0  0
   26.9165  -18.9855  -13.6992 O   0  0  0  0  0  0  0  0  0  0  0  0
   21.5743  -21.1538  -13.6747 C   0  0  0  0  0  0  0  0  0  0  0  0
   22.9589  -20.6459  -13.5130 C   0  0  0  0  0  0  0  0  0  0  0  0
   23.7458  -21.1794  -12.3625 C   0  0  2  0  0  0  0  0  0  0  0  0
   22.9534  -20.8208  -11.0969 C   0  0  0  0  0  0  0  0  0  0  0  0
   25.1552  -20.6570  -12.2545 C   0  0  2  0  0  0  0  0  0  0  0  0
   25.9285  -21.0308  -13.4268 N   0  0  0  0  0  0  0  0  0  0  0  0
   25.7773  -21.0055  -10.9779 C   0  0  0  0  0  0  0  0  0  0  0  0
   26.3447  -22.1453  -10.8473 O   0  0  0  0  0  0  0  0  0  0  0  0
   29.5060  -19.8960   -2.9331 O   0  0  0  0  0  0  0  0  0  0  0  0
   29.0346  -19.8260   -4.2459 C   0  0  0  0  0  0  0  0  0  0  0  0
   29.4925  -20.6892   -5.2191 C   0  0  0  0  0  0  0  0  0  0  0  0
   29.0322  -20.6270   -6.5185 C   0  0  0  0  0  0  0  0  0  0  0  0
   28.0865  -19.6889   -6.8973 C   0  0  0  0  0  0  0  0  0  0  0  0
   27.6174  -19.6381   -8.2755 C   0  0  0  0  0  0  0  0  0  0  0  0
   26.4566  -20.5618   -8.5917 C   0  0  2  0  0  0  0  0  0  0  0  0
   25.8185  -20.1800   -9.8373 N   0  0  0  0  0  0  0  0  0  0  0  0
   25.4412  -20.5710   -7.5341 C   0  0  0  0  0  0  0  0  0  0  0  0
   25.6169  -21.3423   -6.4059 O   0  0  0  0  0  0  0  0  0  0  0  0
   27.6166  -18.8119   -5.9228 C   0  0  0  0  0  0  0  0  0  0  0  0
   28.0936  -18.9019   -4.6486 C   0  0  0  0  0  0  0  0  0  0  0  0
   24.4008  -19.8796   -7.6414 O   0  0  0  0  0  0  0  0  0  0  0  0
  2  1  1  0
  3  2  1  0
  3  4  1  1
  5  6  2  0
  5  3  1  0
  7  8  1  0
  9  8  1  0
  9 10  1  1
 11  9  1  0
 11 12  1  6
 12  5  1  0
 13 11  1  0
 14 13  2  0
 16 17  2  0
 16 15  1  0
 18 17  1  0
 19 18  2  0
 21 20  1  1
 20 19  1  0
 21 22  1  0
 22 13  1  0
 23 21  1  0
 23 24  1  0
 25 19  1  0
 25 26  2  0
 26 16  1  0
 27 23  2  0
M  END
$$$$
