SIY.pdb
     RDKit          3D

 27 27  0  0  1  0  0  0  0  0999 V2000
   21.3536  -17.4885  -14.5413 O   0  0  0  0  0  0  0  0  0  0  0  0
   22.2851  -18.4584  -14.1716 C   0  0  0  0  0  0  0  0  0  0  0  0
   23.4582  -18.3122  -15.1242 C   0  0  2  0  0  0  0  0  0  0  0  0
   22.9524  -18.3846  -16.4515 N   0  0  0  0  0  0  0  0  0  0  0  0
   24.4228  -19.3747  -14.7826 C   0  0  0  0  0  0  0  0  0  0  0  0
   24.1431  -20.5544  -15.1202 O   0  0  0  0  0  0  0  0  0  0  0  0
   29.3815  -19.2076  -16.1434 C   0  0  0  0  0  0  0  0  0  0  0  0
   28.0467  -19.6104  -15.6362 C   0  0  0  0  0  0  0  0  0  0  0  0
   27.9462  -19.9442  -14.1850 C   0  0  2  0  0  0  0  0  0  0  0  0
   28.8361  -21.1762  -13.9649 C   0  0  0  0  0  0  0  0  0  0  0  0
   26.5508  -20.2196  -13.6872 C   0  0  2  0  0  0  0  0  0  0  0  0
   25.6442  -19.1615  -14.1002 N   0  0  0  0  0  0  0  0  0  0  0  0
   26.5239  -20.5207  -12.2566 C   0  0  0  0  0  0  0  0  0  0  0  0
   27.6201  -20.5249  -11.5959 O   0  0  0  0  0  0  0  0  0  0  0  0
   29.5729  -20.5131   -5.2070 O   0  0  0  0  0  0  0  0  0  0  0  0
   28.6883  -20.2715   -6.2604 C   0  0  0  0  0  0  0  0  0  0  0  0
   28.7083  -21.0416   -7.4043 C   0  0  0  0  0  0  0  0  0  0  0  0
   27.8381  -20.8099   -8.4498 C   0  0  0  0  0  0  0  0  0  0  0  0
   26.9052  -19.7881   -8.3897 C   0  0  0  0  0  0  0  0  0  0  0  0
   25.9987  -19.5583   -9.5067 C   0  0  0  0  0  0  0  0  0  0  0  0
   25.3294  -20.8039  -10.0554 C   0  0  2  0  0  0  0  0  0  0  0  0
   25.3689  -20.8141  -11.5054 N   0  0  0  0  0  0  0  0  0  0  0  0
   23.9319  -20.9257   -9.6286 C   0  0  0  0  0  0  0  0  0  0  0  0
   23.6248  -21.4295   -8.3834 O   0  0  0  0  0  0  0  0  0  0  0  0
   26.8757  -19.0038   -7.2392 C   0  0  0  0  0  0  0  0  0  0  0  0
   27.7505  -19.2612   -6.2255 C   0  0  0  0  0  0  0  0  0  0  0  0
   22.9989  -20.5747  -10.3890 O   0  0  0  0  0  0  0  0  0  0  0  0
  2  1  1  0
  3  2  1  0
  3  4  1  6
  5  6  2  0
  5  3  1  0
  7  8  1  0
  9  8  1  0
  9 10  1  6
 11  9  1  0
 11 12  1  1
 12  5  1  0
 13 11  1  0
 14 13  2  0
 16 17  2  0
 16 15  1  0
 18 17  1  0
 19 18  2  0
 21 20  1  6
 20 19  1  0
 21 22  1  0
 22 13  1  0
 23 21  1  0
 23 24  1  0
 25 19  1  0
 25 26  2  0
 26 16  1  0
 27 23  2  0
M  END
$$$$
