SIY.pdb
     RDKit          3D

 27 27  0  0  1  0  0  0  0  0999 V2000
   24.2224  -16.6520  -15.7300 O   0  0  0  0  0  0  0  0  0  0  0  0
   25.5077  -16.1897  -15.4480 C   0  0  0  0  0  0  0  0  0  0  0  0
   26.4627  -17.2915  -15.8713 C   0  0  2  0  0  0  0  0  0  0  0  0
   26.4562  -17.3506  -17.2923 N   0  0  0  0  0  0  0  0  0  0  0  0
   26.0092  -18.5294  -15.2095 C   0  0  0  0  0  0  0  0  0  0  0  0
   25.4016  -19.3817  -15.9081 O   0  0  0  0  0  0  0  0  0  0  0  0
   29.1741  -20.8614  -11.4939 C   0  0  0  0  0  0  0  0  0  0  0  0
   28.1669  -20.5925  -12.5495 C   0  0  0  0  0  0  0  0  0  0  0  0
   26.7473  -20.4520  -12.1109 C   0  0  2  0  0  0  0  0  0  0  0  0
   26.3454  -21.8092  -11.5153 C   0  0  0  0  0  0  0  0  0  0  0  0
   25.7788  -20.0571  -13.1957 C   0  0  2  0  0  0  0  0  0  0  0  0
   26.2093  -18.8280  -13.8406 N   0  0  0  0  0  0  0  0  0  0  0  0
   24.3950  -20.0447  -12.7233 C   0  0  0  0  0  0  0  0  0  0  0  0
   24.0966  -19.3757  -11.6738 O   0  0  0  0  0  0  0  0  0  0  0  0
   20.0968  -17.2331  -18.0010 O   0  0  0  0  0  0  0  0  0  0  0  0
   20.4204  -17.7206  -16.7329 C   0  0  0  0  0  0  0  0  0  0  0  0
   21.7266  -17.9851  -16.3784 C   0  0  0  0  0  0  0  0  0  0  0  0
   22.0553  -18.4670  -15.1278 C   0  0  0  0  0  0  0  0  0  0  0  0
   21.0793  -18.7050  -14.1747 C   0  0  0  0  0  0  0  0  0  0  0  0
   21.4480  -19.2178  -12.8619 C   0  0  0  0  0  0  0  0  0  0  0  0
   21.9513  -20.6486  -12.8513 C   0  0  2  0  0  0  0  0  0  0  0  0
   23.3180  -20.7178  -13.3327 N   0  0  0  0  0  0  0  0  0  0  0  0
   21.1253  -21.5413  -13.6701 C   0  0  0  0  0  0  0  0  0  0  0  0
   21.6662  -22.1855  -14.7614 O   0  0  0  0  0  0  0  0  0  0  0  0
   19.7564  -18.4414  -14.5214 C   0  0  0  0  0  0  0  0  0  0  0  0
   19.4679  -17.9657  -15.7663 C   0  0  0  0  0  0  0  0  0  0  0  0
   19.9178  -21.7300  -13.3900 O   0  0  0  0  0  0  0  0  0  0  0  0
  2  1  1  0
  3  2  1  0
  3  4  1  6
  5  6  2  0
  5  3  1  0
  7  8  1  0
  9  8  1  0
  9 10  1  6
 11  9  1  0
 11 12  1  1
 12  5  1  0
 13 11  1  0
 14 13  2  0
 16 17  2  0
 16 15  1  0
 18 17  1  0
 19 18  2  0
 21 20  1  6
 20 19  1  0
 21 22  1  0
 22 13  1  0
 23 21  1  0
 23 24  1  0
 25 19  1  0
 25 26  2  0
 26 16  1  0
 27 23  2  0
M  END
$$$$
