SIY.pdb
     RDKit          3D

 27 27  0  0  1  0  0  0  0  0999 V2000
   28.4183  -19.3008  -17.2082 O   0  0  0  0  0  0  0  0  0  0  0  0
   27.3757  -20.1021  -16.7434 C   0  0  0  0  0  0  0  0  0  0  0  0
   28.0211  -21.2584  -16.0009 C   0  0  2  0  0  0  0  0  0  0  0  0
   28.3507  -22.2591  -16.9563 N   0  0  0  0  0  0  0  0  0  0  0  0
   27.0606  -21.6953  -14.9700 C   0  0  0  0  0  0  0  0  0  0  0  0
   26.2648  -22.6251  -15.2631 O   0  0  0  0  0  0  0  0  0  0  0  0
   25.5184  -20.9601   -8.9222 C   0  0  0  0  0  0  0  0  0  0  0  0
   25.1738  -21.2557  -10.3346 C   0  0  0  0  0  0  0  0  0  0  0  0
   26.2304  -21.0000  -11.3572 C   0  0  2  0  0  0  0  0  0  0  0  0
   26.5915  -19.5121  -11.2391 C   0  0  0  0  0  0  0  0  0  0  0  0
   25.8396  -21.3254  -12.7758 C   0  0  2  0  0  0  0  0  0  0  0  0
   26.9699  -21.1417  -13.6706 N   0  0  0  0  0  0  0  0  0  0  0  0
   24.6193  -20.6318  -13.1857 C   0  0  0  0  0  0  0  0  0  0  0  0
   24.6875  -19.4084  -13.5554 O   0  0  0  0  0  0  0  0  0  0  0  0
   17.8592  -17.9973  -17.8738 O   0  0  0  0  0  0  0  0  0  0  0  0
   18.9570  -18.5734  -17.2307 C   0  0  0  0  0  0  0  0  0  0  0  0
   20.0179  -17.8062  -16.7974 C   0  0  0  0  0  0  0  0  0  0  0  0
   21.1064  -18.3671  -16.1612 C   0  0  0  0  0  0  0  0  0  0  0  0
   21.1754  -19.7311  -15.9323 C   0  0  0  0  0  0  0  0  0  0  0  0
   22.3358  -20.3030  -15.2626 C   0  0  0  0  0  0  0  0  0  0  0  0
   22.1703  -20.5245  -13.7712 C   0  0  2  0  0  0  0  0  0  0  0  0
   23.3300  -21.1981  -13.2183 N   0  0  0  0  0  0  0  0  0  0  0  0
   20.9777  -21.3143  -13.4491 C   0  0  0  0  0  0  0  0  0  0  0  0
   20.9977  -22.6869  -13.5680 O   0  0  0  0  0  0  0  0  0  0  0  0
   20.1095  -20.5160  -16.3654 C   0  0  0  0  0  0  0  0  0  0  0  0
   19.0499  -19.9281  -16.9906 C   0  0  0  0  0  0  0  0  0  0  0  0
   19.9251  -20.7532  -13.0628 O   0  0  0  0  0  0  0  0  0  0  0  0
  2  1  1  0
  3  2  1  0
  3  4  1  6
  5  6  2  0
  5  3  1  0
  7  8  1  0
  9  8  1  0
  9 10  1  6
 11  9  1  0
 11 12  1  6
 12  5  1  0
 13 11  1  0
 14 13  2  0
 16 17  2  0
 16 15  1  0
 18 17  1  0
 19 18  2  0
 21 20  1  6
 20 19  1  0
 21 22  1  0
 22 13  1  0
 23 21  1  0
 23 24  1  0
 25 19  1  0
 25 26  2  0
 26 16  1  0
 27 23  2  0
M  END
$$$$
