SIY.pdb
     RDKit          3D

 27 27  0  0  1  0  0  0  0  0999 V2000
   17.5822  -10.1040  -19.9812 O   0  0  0  0  0  0  0  0  0  0  0  0
   18.2241   -9.5456  -18.8760 C   0  0  0  0  0  0  0  0  0  0  0  0
   18.6425  -10.7059  -17.9909 C   0  0  2  0  0  0  0  0  0  0  0  0
   17.4700  -11.4307  -17.6405 N   0  0  0  0  0  0  0  0  0  0  0  0
   19.3665  -10.1293  -16.8422 C   0  0  0  0  0  0  0  0  0  0  0  0
   18.6888   -9.7257  -15.8617 O   0  0  0  0  0  0  0  0  0  0  0  0
   24.0097  -12.2265  -15.0068 C   0  0  0  0  0  0  0  0  0  0  0  0
   22.7249  -11.4963  -15.1386 C   0  0  0  0  0  0  0  0  0  0  0  0
   22.8037  -10.0334  -15.4239 C   0  0  2  0  0  0  0  0  0  0  0  0
   23.5057   -9.3972  -14.2153 C   0  0  0  0  0  0  0  0  0  0  0  0
   21.4793   -9.3569  -15.6667 C   0  0  2  0  0  0  0  0  0  0  0  0
   20.7735   -9.9973  -16.7638 N   0  0  0  0  0  0  0  0  0  0  0  0
   21.6148   -7.9065  -15.7938 C   0  0  0  0  0  0  0  0  0  0  0  0
   22.2572   -7.4215  -16.7889 O   0  0  0  0  0  0  0  0  0  0  0  0
   20.4659    0.8791  -14.9193 O   0  0  0  0  0  0  0  0  0  0  0  0
   20.3473   -0.5125  -14.9254 C   0  0  0  0  0  0  0  0  0  0  0  0
   20.2749   -1.2310  -13.7506 C   0  0  0  0  0  0  0  0  0  0  0  0
   20.1577   -2.6060  -13.7474 C   0  0  0  0  0  0  0  0  0  0  0  0
   20.1082   -3.3215  -14.9321 C   0  0  0  0  0  0  0  0  0  0  0  0
   19.9885   -4.7731  -14.9058 C   0  0  0  0  0  0  0  0  0  0  0  0
   21.2994   -5.5263  -15.0274 C   0  0  2  0  0  0  0  0  0  0  0  0
   21.0866   -6.9554  -14.8990 N   0  0  0  0  0  0  0  0  0  0  0  0
   22.2817   -5.1113  -14.0210 C   0  0  0  0  0  0  0  0  0  0  0  0
   22.2343   -5.6300  -12.7454 O   0  0  0  0  0  0  0  0  0  0  0  0
   20.1804   -2.6063  -16.1250 C   0  0  0  0  0  0  0  0  0  0  0  0
   20.2958   -1.2481  -16.0906 C   0  0  0  0  0  0  0  0  0  0  0  0
   23.1759   -4.2799  -14.3061 O   0  0  0  0  0  0  0  0  0  0  0  0
  2  1  1  0
  3  2  1  0
  3  4  1  1
  5  6  2  0
  5  3  1  0
  7  8  1  0
  9  8  1  0
  9 10  1  1
 11  9  1  0
 11 12  1  6
 12  5  1  0
 13 11  1  0
 14 13  2  0
 16 17  2  0
 16 15  1  0
 18 17  1  0
 19 18  2  0
 21 20  1  1
 20 19  1  0
 21 22  1  0
 22 13  1  0
 23 21  1  0
 23 24  1  0
 25 19  1  0
 25 26  2  0
 26 16  1  0
 27 23  2  0
M  END
$$$$
