KQY.pdb
     RDKit          3D

 31 31  0  0  1  0  0  0  0  0999 V2000
   18.9569  -15.0325  -18.7579 N   0  0  0  0  0  0  0  0  0  0  0  0
   19.3762  -14.5084  -17.5141 C   0  0  1  0  0  0  0  0  0  0  0  0
   20.7097  -14.9341  -16.9985 C   0  0  0  0  0  0  0  0  0  0  0  0
   20.9030  -16.3778  -16.7626 C   0  0  0  0  0  0  0  0  0  0  0  0
   20.7921  -16.8817  -15.3698 C   0  0  0  0  0  0  0  0  0  0  0  0
   21.0302  -18.3492  -15.1921 C   0  0  0  0  0  0  0  0  0  0  0  0
   21.0428  -18.8080  -13.8358 N   0  0  0  0  0  0  0  0  0  0  0  0
   19.2870  -13.0188  -17.5228 C   0  0  0  0  0  0  0  0  0  0  0  0
   19.6903  -12.4288  -18.5754 O   0  0  0  0  0  0  0  0  0  0  0  0
   14.7995   -9.3385  -16.3875 N   0  0  0  0  0  0  0  0  0  0  0  0
   15.2215   -9.6834  -17.7137 C   0  0  0  0  0  0  0  0  0  0  0  0
   14.4945   -9.5724  -18.7069 O   0  0  0  0  0  0  0  0  0  0  0  0
   16.6112  -10.1933  -17.8271 C   0  0  0  0  0  0  0  0  0  0  0  0
   17.3496  -10.2967  -16.5428 C   0  0  0  0  0  0  0  0  0  0  0  0
   18.7578  -10.7563  -16.6955 C   0  0  2  0  0  0  0  0  0  0  0  0
   18.8031  -12.2218  -16.4817 N   0  0  0  0  0  0  0  0  0  0  0  0
   19.6047  -10.2040  -15.6204 C   0  0  0  0  0  0  0  0  0  0  0  0
   19.5341  -10.6881  -14.4329 O   0  0  0  0  0  0  0  0  0  0  0  0
   25.0650  -13.3472  -16.6934 O   0  0  0  0  0  0  0  0  0  0  0  0
   24.4838  -12.1520  -16.2854 C   0  0  0  0  0  0  0  0  0  0  0  0
   23.9236  -11.3459  -17.2630 C   0  0  0  0  0  0  0  0  0  0  0  0
   23.3461  -10.1670  -16.8914 C   0  0  0  0  0  0  0  0  0  0  0  0
   23.3326   -9.8027  -15.5461 C   0  0  0  0  0  0  0  0  0  0  0  0
   22.7146   -8.5276  -15.1990 C   0  0  0  0  0  0  0  0  0  0  0  0
   21.2962   -8.6979  -14.6343 C   0  0  2  0  0  0  0  0  0  0  0  0
   20.5213   -9.1515  -15.8131 N   0  0  0  0  0  0  0  0  0  0  0  0
   20.8412   -7.3645  -14.1892 C   0  0  0  0  0  0  0  0  0  0  0  0
   20.1041   -6.6161  -14.8434 O   0  0  0  0  0  0  0  0  0  0  0  0
   23.8848  -10.5913  -14.5607 C   0  0  0  0  0  0  0  0  0  0  0  0
   24.4660  -11.7862  -14.9675 C   0  0  0  0  0  0  0  0  0  0  0  0
   21.2631   -6.9060  -12.9498 O   0  0  0  0  0  0  0  0  0  0  0  0
  2  1  1  6
  3  4  1  0
  3  2  1  0
  5  4  1  0
  6  5  1  0
  7  6  1  0
  8  9  2  0
  8  2  1  0
 10 11  1  0
 11 12  2  0
 13 11  1  0
 13 14  1  0
 15 14  1  1
 15 17  1  0
 15 16  1  0
 16  8  1  0
 17 26  1  0
 18 17  2  0
 19 20  1  0
 20 30  2  0
 20 21  1  0
 21 22  2  0
 22 23  1  0
 23 24  1  0
 25 24  1  6
 25 27  1  0
 26 25  1  0
 27 28  2  0
 27 31  1  0
 29 23  2  0
 30 29  1  0
M  END
$$$$
