KQY.pdb
     RDKit          3D

 31 31  0  0  1  0  0  0  0  0999 V2000
   26.6147  -19.0082  -16.8944 N   0  0  0  0  0  0  0  0  0  0  0  0
   27.2798  -19.3742  -15.7023 C   0  0  1  0  0  0  0  0  0  0  0  0
   28.4473  -18.5472  -15.2799 C   0  0  0  0  0  0  0  0  0  0  0  0
   29.3007  -18.0020  -16.3531 C   0  0  0  0  0  0  0  0  0  0  0  0
   28.8339  -16.7891  -17.0721 C   0  0  0  0  0  0  0  0  0  0  0  0
   29.7456  -16.2833  -18.1467 C   0  0  0  0  0  0  0  0  0  0  0  0
   29.2168  -15.2220  -18.9494 N   0  0  0  0  0  0  0  0  0  0  0  0
   26.3045  -19.4874  -14.5784 C   0  0  0  0  0  0  0  0  0  0  0  0
   25.4092  -18.5862  -14.5066 O   0  0  0  0  0  0  0  0  0  0  0  0
   22.0085  -19.8642  -13.2988 N   0  0  0  0  0  0  0  0  0  0  0  0
   21.9778  -20.5966  -12.0666 C   0  0  0  0  0  0  0  0  0  0  0  0
   21.0709  -20.4855  -11.2344 O   0  0  0  0  0  0  0  0  0  0  0  0
   23.1229  -21.5146  -11.8429 C   0  0  0  0  0  0  0  0  0  0  0  0
   24.1990  -21.4375  -12.8633 C   0  0  0  0  0  0  0  0  0  0  0  0
   25.2449  -20.4227  -12.5571 C   0  0  2  0  0  0  0  0  0  0  0  0
   26.2905  -20.4898  -13.6048 N   0  0  0  0  0  0  0  0  0  0  0  0
   25.9548  -20.7673  -11.3100 C   0  0  0  0  0  0  0  0  0  0  0  0
   26.5246  -21.9119  -11.1892 O   0  0  0  0  0  0  0  0  0  0  0  0
   29.3679  -20.2479   -3.2455 O   0  0  0  0  0  0  0  0  0  0  0  0
   28.8528  -20.0111   -4.5149 C   0  0  0  0  0  0  0  0  0  0  0  0
   27.9527  -18.9676   -4.6562 C   0  0  0  0  0  0  0  0  0  0  0  0
   27.4310  -18.7121   -5.8907 C   0  0  0  0  0  0  0  0  0  0  0  0
   27.8128  -19.5011   -6.9743 C   0  0  0  0  0  0  0  0  0  0  0  0
   27.2191  -19.1973   -8.2719 C   0  0  0  0  0  0  0  0  0  0  0  0
   26.6434  -20.4443   -8.9597 C   0  0  2  0  0  0  0  0  0  0  0  0
   26.0606  -19.8967  -10.2073 N   0  0  0  0  0  0  0  0  0  0  0  0
   25.5856  -20.9794   -8.0779 C   0  0  0  0  0  0  0  0  0  0  0  0
   24.3937  -20.6498   -8.1257 O   0  0  0  0  0  0  0  0  0  0  0  0
   28.7062  -20.5427   -6.8526 C   0  0  0  0  0  0  0  0  0  0  0  0
   29.2216  -20.7802   -5.5842 C   0  0  0  0  0  0  0  0  0  0  0  0
   25.9402  -21.9207   -7.1226 O   0  0  0  0  0  0  0  0  0  0  0  0
  2  1  1  6
  3  4  1  0
  3  2  1  0
  5  4  1  0
  6  5  1  0
  7  6  1  0
  8  9  2  0
  8  2  1  0
 10 11  1  0
 11 12  2  0
 13 11  1  0
 13 14  1  0
 15 14  1  6
 15 17  1  0
 15 16  1  0
 16  8  1  0
 17 26  1  0
 18 17  2  0
 19 20  1  0
 20 30  2  0
 20 21  1  0
 21 22  2  0
 22 23  1  0
 23 24  1  0
 25 24  1  1
 25 27  1  0
 26 25  1  0
 27 28  2  0
 27 31  1  0
 29 23  2  0
 30 29  1  0
M  END
$$$$
