KQY.pdb
     RDKit          3D

 31 31  0  0  1  0  0  0  0  0999 V2000
   18.6381   -9.5817  -17.4857 N   0  0  0  0  0  0  0  0  0  0  0  0
   17.7260   -9.9173  -16.4596 C   0  0  1  0  0  0  0  0  0  0  0  0
   17.4328  -11.3635  -16.2407 C   0  0  0  0  0  0  0  0  0  0  0  0
   18.5872  -12.2822  -16.2227 C   0  0  0  0  0  0  0  0  0  0  0  0
   18.3316  -13.7249  -15.9793 C   0  0  0  0  0  0  0  0  0  0  0  0
   19.5201  -14.6248  -16.1184 C   0  0  0  0  0  0  0  0  0  0  0  0
   19.2894  -15.9995  -15.7907 N   0  0  0  0  0  0  0  0  0  0  0  0
   18.1363   -9.2819  -15.1732 C   0  0  0  0  0  0  0  0  0  0  0  0
   19.1494   -9.7813  -14.5874 O   0  0  0  0  0  0  0  0  0  0  0  0
   21.5347   -7.1942  -13.1159 N   0  0  0  0  0  0  0  0  0  0  0  0
   20.9739   -6.1582  -12.2986 C   0  0  0  0  0  0  0  0  0  0  0  0
   21.5594   -5.6705  -11.3257 O   0  0  0  0  0  0  0  0  0  0  0  0
   19.6203   -5.6960  -12.6964 C   0  0  0  0  0  0  0  0  0  0  0  0
   19.0013   -6.4522  -13.8146 C   0  0  0  0  0  0  0  0  0  0  0  0
   18.1600   -7.5980  -13.3712 C   0  0  2  0  0  0  0  0  0  0  0  0
   17.5078   -8.1944  -14.5605 N   0  0  0  0  0  0  0  0  0  0  0  0
   17.0375   -7.1270  -12.5368 C   0  0  0  0  0  0  0  0  0  0  0  0
   16.1004   -6.4204  -13.0584 O   0  0  0  0  0  0  0  0  0  0  0  0
   11.2379   -6.5366   -6.0438 O   0  0  0  0  0  0  0  0  0  0  0  0
   12.3516   -6.8225   -6.8251 C   0  0  0  0  0  0  0  0  0  0  0  0
   13.5246   -6.1424   -6.5412 C   0  0  0  0  0  0  0  0  0  0  0  0
   14.6337   -6.4029   -7.2919 C   0  0  0  0  0  0  0  0  0  0  0  0
   14.5621   -7.3409   -8.3203 C   0  0  0  0  0  0  0  0  0  0  0  0
   15.7705   -7.5767   -9.1031 C   0  0  0  0  0  0  0  0  0  0  0  0
   15.7523   -6.8343  -10.4476 C   0  0  2  0  0  0  0  0  0  0  0  0
   16.9139   -7.4131  -11.1628 N   0  0  0  0  0  0  0  0  0  0  0  0
   15.9751   -5.4027  -10.1582 C   0  0  0  0  0  0  0  0  0  0  0  0
   17.0809   -4.8904   -9.9425 O   0  0  0  0  0  0  0  0  0  0  0  0
   13.4046   -8.0265   -8.6170 C   0  0  0  0  0  0  0  0  0  0  0  0
   12.2907   -7.7414   -7.8365 C   0  0  0  0  0  0  0  0  0  0  0  0
   14.8737   -4.5600  -10.1229 O   0  0  0  0  0  0  0  0  0  0  0  0
  2  1  1  6
  3  4  1  0
  3  2  1  0
  5  4  1  0
  6  5  1  0
  7  6  1  0
  8  9  2  0
  8  2  1  0
 10 11  1  0
 11 12  2  0
 13 11  1  0
 13 14  1  0
 15 14  1  6
 15 17  1  0
 15 16  1  0
 16  8  1  0
 17 26  1  0
 18 17  2  0
 19 20  1  0
 20 30  2  0
 20 21  1  0
 21 22  2  0
 22 23  1  0
 23 24  1  0
 25 24  1  1
 25 27  1  0
 26 25  1  0
 27 28  2  0
 27 31  1  0
 29 23  2  0
 30 29  1  0
M  END
$$$$
