KQY.pdb
     RDKit          3D

 31 31  0  0  1  0  0  0  0  0999 V2000
   25.6075  -17.3241  -14.7391 N   0  0  0  0  0  0  0  0  0  0  0  0
   24.4452  -18.0120  -14.3228 C   0  0  1  0  0  0  0  0  0  0  0  0
   23.2967  -18.0677  -15.2732 C   0  0  0  0  0  0  0  0  0  0  0  0
   23.2015  -16.9816  -16.2674 C   0  0  0  0  0  0  0  0  0  0  0  0
   22.8890  -17.3437  -17.6736 C   0  0  0  0  0  0  0  0  0  0  0  0
   22.8538  -16.2029  -18.6427 C   0  0  0  0  0  0  0  0  0  0  0  0
   22.3401  -14.9720  -18.1216 N   0  0  0  0  0  0  0  0  0  0  0  0
   24.7937  -19.3894  -13.8661 C   0  0  0  0  0  0  0  0  0  0  0  0
   23.8386  -20.2273  -13.7991 O   0  0  0  0  0  0  0  0  0  0  0  0
   25.6690  -23.9194  -13.6213 N   0  0  0  0  0  0  0  0  0  0  0  0
   25.9769  -23.6610  -14.9976 C   0  0  0  0  0  0  0  0  0  0  0  0
   25.5126  -24.3233  -15.9320 O   0  0  0  0  0  0  0  0  0  0  0  0
   26.9059  -22.5288  -15.2405 C   0  0  0  0  0  0  0  0  0  0  0  0
   27.3546  -21.8110  -14.0203 C   0  0  0  0  0  0  0  0  0  0  0  0
   26.2375  -21.2732  -13.1955 C   0  0  2  0  0  0  0  0  0  0  0  0
   26.0690  -19.8346  -13.5075 N   0  0  0  0  0  0  0  0  0  0  0  0
   26.5904  -21.2973  -11.7626 C   0  0  0  0  0  0  0  0  0  0  0  0
   27.7973  -21.5468  -11.4014 O   0  0  0  0  0  0  0  0  0  0  0  0
   29.1233  -19.7582   -3.9695 O   0  0  0  0  0  0  0  0  0  0  0  0
   28.6635  -19.8796   -5.2759 C   0  0  0  0  0  0  0  0  0  0  0  0
   27.7576  -18.9333   -5.7264 C   0  0  0  0  0  0  0  0  0  0  0  0
   27.2895  -19.0276   -7.0044 C   0  0  0  0  0  0  0  0  0  0  0  0
   27.7299  -20.0666   -7.8223 C   0  0  0  0  0  0  0  0  0  0  0  0
   27.1921  -20.1329   -9.1768 C   0  0  0  0  0  0  0  0  0  0  0  0
   26.1365  -21.2375   -9.3352 C   0  0  2  0  0  0  0  0  0  0  0  0
   25.6663  -21.0508  -10.7281 N   0  0  0  0  0  0  0  0  0  0  0  0
   25.0536  -20.9469   -8.3730 C   0  0  0  0  0  0  0  0  0  0  0  0
   25.0514  -21.2980   -7.1863 O   0  0  0  0  0  0  0  0  0  0  0  0
   28.6299  -21.0165   -7.3914 C   0  0  0  0  0  0  0  0  0  0  0  0
   29.0901  -20.8961   -6.0857 C   0  0  0  0  0  0  0  0  0  0  0  0
   23.9536  -20.2287   -8.8186 O   0  0  0  0  0  0  0  0  0  0  0  0
  2  1  1  6
  3  4  1  0
  3  2  1  0
  5  4  1  0
  6  5  1  0
  7  6  1  0
  8  9  2  0
  8  2  1  0
 10 11  1  0
 11 12  2  0
 13 11  1  0
 13 14  1  0
 15 14  1  6
 15 17  1  0
 15 16  1  0
 16  8  1  0
 17 26  1  0
 18 17  2  0
 19 20  1  0
 20 30  2  0
 20 21  1  0
 21 22  2  0
 22 23  1  0
 23 24  1  0
 25 24  1  1
 25 27  1  0
 26 25  1  0
 27 28  2  0
 27 31  1  0
 29 23  2  0
 30 29  1  0
M  END
$$$$
