KQY.pdb
     RDKit          3D

 31 31  0  0  1  0  0  0  0  0999 V2000
   26.7707  -23.3809  -16.1106 N   0  0  0  0  0  0  0  0  0  0  0  0
   25.5908  -24.1544  -16.1959 C   0  0  1  0  0  0  0  0  0  0  0  0
   25.6938  -25.6096  -15.8843 C   0  0  0  0  0  0  0  0  0  0  0  0
   26.3363  -26.4647  -16.9006 C   0  0  0  0  0  0  0  0  0  0  0  0
   27.7767  -26.7875  -16.7363 C   0  0  0  0  0  0  0  0  0  0  0  0
   28.3966  -27.5669  -17.8545 C   0  0  0  0  0  0  0  0  0  0  0  0
   29.8045  -27.7979  -17.7334 N   0  0  0  0  0  0  0  0  0  0  0  0
   24.5054  -23.5357  -15.3797 C   0  0  0  0  0  0  0  0  0  0  0  0
   24.8493  -23.0236  -14.2668 O   0  0  0  0  0  0  0  0  0  0  0  0
   24.1697  -20.0744  -13.4213 N   0  0  0  0  0  0  0  0  0  0  0  0
   22.8088  -19.9745  -13.8616 C   0  0  0  0  0  0  0  0  0  0  0  0
   21.8957  -19.5432  -13.1491 O   0  0  0  0  0  0  0  0  0  0  0  0
   22.5544  -20.4295  -15.2516 C   0  0  0  0  0  0  0  0  0  0  0  0
   21.6612  -21.6096  -15.3731 C   0  0  0  0  0  0  0  0  0  0  0  0
   22.2180  -22.8490  -14.7638 C   0  0  2  0  0  0  0  0  0  0  0  0
   23.1538  -23.4717  -15.7291 N   0  0  0  0  0  0  0  0  0  0  0  0
   21.1582  -23.8593  -14.5789 C   0  0  0  0  0  0  0  0  0  0  0  0
   20.5026  -24.2969  -15.5928 O   0  0  0  0  0  0  0  0  0  0  0  0
   15.7901  -29.7020  -10.8573 O   0  0  0  0  0  0  0  0  0  0  0  0
   16.7461  -28.7200  -11.0906 C   0  0  0  0  0  0  0  0  0  0  0  0
   17.9177  -29.1041  -11.7221 C   0  0  0  0  0  0  0  0  0  0  0  0
   18.8737  -28.1613  -11.9641 C   0  0  0  0  0  0  0  0  0  0  0  0
   18.6516  -26.8420  -11.5731 C   0  0  0  0  0  0  0  0  0  0  0  0
   19.7078  -25.8722  -11.8423 C   0  0  0  0  0  0  0  0  0  0  0  0
   19.6791  -25.3606  -13.2904 C   0  0  2  0  0  0  0  0  0  0  0  0
   20.8075  -24.4008  -13.3264 N   0  0  0  0  0  0  0  0  0  0  0  0
   18.3909  -24.6626  -13.4807 C   0  0  0  0  0  0  0  0  0  0  0  0
   18.1443  -23.5165  -13.0842 O   0  0  0  0  0  0  0  0  0  0  0  0
   17.4932  -26.4419  -10.9440 C   0  0  0  0  0  0  0  0  0  0  0  0
   16.5370  -27.4228  -10.7103 C   0  0  0  0  0  0  0  0  0  0  0  0
   17.3753  -25.3285  -14.1512 O   0  0  0  0  0  0  0  0  0  0  0  0
  2  1  1  1
  3  4  1  0
  3  2  1  0
  5  4  1  0
  6  5  1  0
  7  6  1  0
  8  9  2  0
  8  2  1  0
 10 11  1  0
 11 12  2  0
 13 11  1  0
 13 14  1  0
 15 14  1  6
 15 17  1  0
 15 16  1  0
 16  8  1  0
 17 26  1  0
 18 17  2  0
 19 20  1  0
 20 30  2  0
 20 21  1  0
 21 22  2  0
 22 23  1  0
 23 24  1  0
 25 24  1  1
 25 27  1  0
 26 25  1  0
 27 28  2  0
 27 31  1  0
 29 23  2  0
 30 29  1  0
M  END
$$$$
