KQY.pdb
     RDKit          3D

 31 31  0  0  1  0  0  0  0  0999 V2000
   19.5907  -13.0393  -19.2808 N   0  0  0  0  0  0  0  0  0  0  0  0
   20.0999  -11.7256  -19.3920 C   0  0  1  0  0  0  0  0  0  0  0  0
   19.8747  -11.0030  -20.6774 C   0  0  0  0  0  0  0  0  0  0  0  0
   18.6023  -11.2671  -21.3762 C   0  0  0  0  0  0  0  0  0  0  0  0
   18.3770  -10.6171  -22.6925 C   0  0  0  0  0  0  0  0  0  0  0  0
   17.0809  -10.9491  -23.3645 C   0  0  0  0  0  0  0  0  0  0  0  0
   16.8708  -10.3217  -24.6343 N   0  0  0  0  0  0  0  0  0  0  0  0
   19.6290  -10.8887  -18.2496 C   0  0  0  0  0  0  0  0  0  0  0  0
   18.3714  -10.7313  -18.1377 O   0  0  0  0  0  0  0  0  0  0  0  0
   17.1926  -10.4166  -14.5041 N   0  0  0  0  0  0  0  0  0  0  0  0
   17.9200   -9.6416  -13.5418 C   0  0  0  0  0  0  0  0  0  0  0  0
   17.3814   -9.0570  -12.5955 O   0  0  0  0  0  0  0  0  0  0  0  0
   19.3882   -9.5797  -13.7528 C   0  0  0  0  0  0  0  0  0  0  0  0
   19.8815  -10.3006  -14.9537 C   0  0  0  0  0  0  0  0  0  0  0  0
   19.7841   -9.5090  -16.2111 C   0  0  2  0  0  0  0  0  0  0  0  0
   20.4441  -10.2669  -17.2999 N   0  0  0  0  0  0  0  0  0  0  0  0
   20.5698   -8.2642  -16.1044 C   0  0  0  0  0  0  0  0  0  0  0  0
   21.8531   -8.3127  -16.0888 O   0  0  0  0  0  0  0  0  0  0  0  0
   22.8845    0.1146  -15.5802 O   0  0  0  0  0  0  0  0  0  0  0  0
   22.1324   -1.0485  -15.6993 C   0  0  0  0  0  0  0  0  0  0  0  0
   22.7740   -2.2531  -15.4614 C   0  0  0  0  0  0  0  0  0  0  0  0
   22.0604   -3.4108  -15.5709 C   0  0  0  0  0  0  0  0  0  0  0  0
   20.7115   -3.3560  -15.9172 C   0  0  0  0  0  0  0  0  0  0  0  0
   19.9934   -4.6205  -16.0339 C   0  0  0  0  0  0  0  0  0  0  0  0
   20.9038   -5.8356  -15.8007 C   0  0  2  0  0  0  0  0  0  0  0  0
   19.9915   -6.9820  -16.0223 N   0  0  0  0  0  0  0  0  0  0  0  0
   21.3480   -5.7836  -14.3925 C   0  0  0  0  0  0  0  0  0  0  0  0
   22.3615   -5.1958  -13.9938 O   0  0  0  0  0  0  0  0  0  0  0  0
   20.0572   -2.1677  -16.1576 C   0  0  0  0  0  0  0  0  0  0  0  0
   20.8081   -1.0045  -16.0388 C   0  0  0  0  0  0  0  0  0  0  0  0
   20.5826   -6.4363  -13.4373 O   0  0  0  0  0  0  0  0  0  0  0  0
  2  1  1  6
  3  4  1  0
  3  2  1  0
  5  4  1  0
  6  5  1  0
  7  6  1  0
  8  9  2  0
  8  2  1  0
 10 11  1  0
 11 12  2  0
 13 11  1  0
 13 14  1  0
 15 14  1  1
 15 17  1  0
 15 16  1  0
 16  8  1  0
 17 26  1  0
 18 17  2  0
 19 20  1  0
 20 30  2  0
 20 21  1  0
 21 22  2  0
 22 23  1  0
 23 24  1  0
 25 24  1  1
 25 27  1  0
 26 25  1  0
 27 28  2  0
 27 31  1  0
 29 23  2  0
 30 29  1  0
M  END
$$$$
