KQY.pdb
     RDKit          3D

 31 31  0  0  1  0  0  0  0  0999 V2000
   24.7138  -17.0540  -17.8499 N   0  0  0  0  0  0  0  0  0  0  0  0
   23.9282  -17.9986  -18.5484 C   0  0  1  0  0  0  0  0  0  0  0  0
   24.4857  -18.5629  -19.8118 C   0  0  0  0  0  0  0  0  0  0  0  0
   25.8388  -18.1201  -20.1991 C   0  0  0  0  0  0  0  0  0  0  0  0
   26.0243  -17.5327  -21.5506 C   0  0  0  0  0  0  0  0  0  0  0  0
   27.4303  -17.1611  -21.9069 C   0  0  0  0  0  0  0  0  0  0  0  0
   27.9892  -16.0815  -21.1504 N   0  0  0  0  0  0  0  0  0  0  0  0
   23.5156  -19.1055  -17.6364 C   0  0  0  0  0  0  0  0  0  0  0  0
   22.8743  -20.0700  -18.1629 O   0  0  0  0  0  0  0  0  0  0  0  0
   25.4232  -23.0610  -14.9182 N   0  0  0  0  0  0  0  0  0  0  0  0
   24.4494  -23.1034  -13.8667 C   0  0  0  0  0  0  0  0  0  0  0  0
   24.1829  -24.1288  -13.2304 O   0  0  0  0  0  0  0  0  0  0  0  0
   23.7646  -21.8175  -13.5810 C   0  0  0  0  0  0  0  0  0  0  0  0
   24.1976  -20.6739  -14.4237 C   0  0  0  0  0  0  0  0  0  0  0  0
   23.2453  -20.3414  -15.5191 C   0  0  2  0  0  0  0  0  0  0  0  0
   23.7702  -19.1729  -16.2639 N   0  0  0  0  0  0  0  0  0  0  0  0
   21.9590  -19.8744  -14.9664 C   0  0  0  0  0  0  0  0  0  0  0  0
   21.9008  -18.7659  -14.3205 O   0  0  0  0  0  0  0  0  0  0  0  0
   17.0075  -24.7340  -17.7768 O   0  0  0  0  0  0  0  0  0  0  0  0
   17.3682  -23.5110  -17.2228 C   0  0  0  0  0  0  0  0  0  0  0  0
   18.4905  -22.8816  -17.7362 C   0  0  0  0  0  0  0  0  0  0  0  0
   18.8679  -21.6800  -17.2117 C   0  0  0  0  0  0  0  0  0  0  0  0
   18.1212  -21.1166  -16.1785 C   0  0  0  0  0  0  0  0  0  0  0  0
   18.5708  -19.8366  -15.6420 C   0  0  0  0  0  0  0  0  0  0  0  0
   19.5437  -20.0032  -14.4650 C   0  0  2  0  0  0  0  0  0  0  0  0
   20.7477  -20.5799  -15.1080 N   0  0  0  0  0  0  0  0  0  0  0  0
   18.9345  -20.9709  -13.5295 C   0  0  0  0  0  0  0  0  0  0  0  0
   17.9195  -20.7565  -12.8545 O   0  0  0  0  0  0  0  0  0  0  0  0
   17.0029  -21.7280  -15.6555 C   0  0  0  0  0  0  0  0  0  0  0  0
   16.6415  -22.9505  -16.2085 C   0  0  0  0  0  0  0  0  0  0  0  0
   19.5332  -22.2142  -13.3878 O   0  0  0  0  0  0  0  0  0  0  0  0
  2  1  1  1
  3  4  1  0
  3  2  1  0
  5  4  1  0
  6  5  1  0
  7  6  1  0
  8  9  2  0
  8  2  1  0
 10 11  1  0
 11 12  2  0
 13 11  1  0
 13 14  1  0
 15 14  1  1
 15 17  1  0
 15 16  1  0
 16  8  1  0
 17 26  1  0
 18 17  2  0
 19 20  1  0
 20 30  2  0
 20 21  1  0
 21 22  2  0
 22 23  1  0
 23 24  1  0
 25 24  1  6
 25 27  1  0
 26 25  1  0
 27 28  2  0
 27 31  1  0
 29 23  2  0
 30 29  1  0
M  END
$$$$
