KQY.pdb
     RDKit          3D

 31 31  0  0  1  0  0  0  0  0999 V2000
   18.3801  -13.4215  -19.3565 N   0  0  0  0  0  0  0  0  0  0  0  0
   17.6838  -12.6180  -18.4253 C   0  0  1  0  0  0  0  0  0  0  0  0
   17.1177  -13.2895  -17.2195 C   0  0  0  0  0  0  0  0  0  0  0  0
   17.4416  -14.7176  -17.0384 C   0  0  0  0  0  0  0  0  0  0  0  0
   17.7841  -15.1912  -15.6730 C   0  0  0  0  0  0  0  0  0  0  0  0
   18.2186  -16.6207  -15.5743 C   0  0  0  0  0  0  0  0  0  0  0  0
   18.6224  -17.0495  -14.2691 N   0  0  0  0  0  0  0  0  0  0  0  0
   18.5249  -11.4566  -18.0120 C   0  0  0  0  0  0  0  0  0  0  0  0
   19.7800  -11.6551  -17.9471 O   0  0  0  0  0  0  0  0  0  0  0  0
   17.5397   -5.8169  -19.9265 N   0  0  0  0  0  0  0  0  0  0  0  0
   18.7756   -5.5696  -19.2431 C   0  0  0  0  0  0  0  0  0  0  0  0
   19.3730   -4.4888  -19.2925 O   0  0  0  0  0  0  0  0  0  0  0  0
   19.3080   -6.7109  -18.4570 C   0  0  0  0  0  0  0  0  0  0  0  0
   18.4569   -7.9279  -18.4606 C   0  0  0  0  0  0  0  0  0  0  0  0
   19.0319   -9.0645  -17.6893 C   0  0  2  0  0  0  0  0  0  0  0  0
   18.0562  -10.1796  -17.6916 N   0  0  0  0  0  0  0  0  0  0  0  0
   19.1746   -8.7070  -16.2645 C   0  0  0  0  0  0  0  0  0  0  0  0
   18.2150   -8.9403  -15.4434 O   0  0  0  0  0  0  0  0  0  0  0  0
   24.6047   -4.1099  -17.0684 O   0  0  0  0  0  0  0  0  0  0  0  0
   23.9035   -4.9957  -16.2582 C   0  0  0  0  0  0  0  0  0  0  0  0
   23.8500   -6.3217  -16.6557 C   0  0  0  0  0  0  0  0  0  0  0  0
   23.1688   -7.2136  -15.8798 C   0  0  0  0  0  0  0  0  0  0  0  0
   22.5464   -6.7736  -14.7129 C   0  0  0  0  0  0  0  0  0  0  0  0
   21.8200   -7.7616  -13.9226 C   0  0  0  0  0  0  0  0  0  0  0  0
   20.3249   -7.8077  -14.2720 C   0  0  2  0  0  0  0  0  0  0  0  0
   20.3316   -8.1137  -15.7219 N   0  0  0  0  0  0  0  0  0  0  0  0
   19.7772   -6.4582  -14.0235 C   0  0  0  0  0  0  0  0  0  0  0  0
   19.5431   -5.9872  -12.9032 O   0  0  0  0  0  0  0  0  0  0  0  0
   22.5889   -5.4593  -14.3022 C   0  0  0  0  0  0  0  0  0  0  0  0
   23.2895   -4.5730  -15.1113 C   0  0  0  0  0  0  0  0  0  0  0  0
   19.5011   -5.6494  -15.1162 O   0  0  0  0  0  0  0  0  0  0  0  0
  2  1  1  1
  3  4  1  0
  3  2  1  0
  5  4  1  0
  6  5  1  0
  7  6  1  0
  8  9  2  0
  8  2  1  0
 10 11  1  0
 11 12  2  0
 13 11  1  0
 13 14  1  0
 15 14  1  6
 15 17  1  0
 15 16  1  0
 16  8  1  0
 17 26  1  0
 18 17  2  0
 19 20  1  0
 20 30  2  0
 20 21  1  0
 21 22  2  0
 22 23  1  0
 23 24  1  0
 25 24  1  6
 25 27  1  0
 26 25  1  0
 27 28  2  0
 27 31  1  0
 29 23  2  0
 30 29  1  0
M  END
$$$$
