KQY.pdb
     RDKit          3D

 31 31  0  0  1  0  0  0  0  0999 V2000
   27.9244  -22.4996  -17.4055 N   0  0  0  0  0  0  0  0  0  0  0  0
   27.4640  -21.2470  -16.9400 C   0  0  1  0  0  0  0  0  0  0  0  0
   26.4924  -20.5058  -17.7954 C   0  0  0  0  0  0  0  0  0  0  0  0
   27.0468  -19.4746  -18.6935 C   0  0  0  0  0  0  0  0  0  0  0  0
   28.0100  -19.9010  -19.7405 C   0  0  0  0  0  0  0  0  0  0  0  0
   28.5453  -18.8068  -20.6112 C   0  0  0  0  0  0  0  0  0  0  0  0
   27.5647  -18.0987  -21.3776 N   0  0  0  0  0  0  0  0  0  0  0  0
   26.9258  -21.3751  -15.5540 C   0  0  0  0  0  0  0  0  0  0  0  0
   26.1908  -22.3865  -15.3182 O   0  0  0  0  0  0  0  0  0  0  0  0
   26.7299  -22.2669  -10.8794 N   0  0  0  0  0  0  0  0  0  0  0  0
   26.0451  -21.1631  -10.2725 C   0  0  0  0  0  0  0  0  0  0  0  0
   25.2995  -21.2830   -9.2942 O   0  0  0  0  0  0  0  0  0  0  0  0
   26.2876  -19.8401  -10.9009 C   0  0  0  0  0  0  0  0  0  0  0  0
   27.0619  -19.8784  -12.1676 C   0  0  0  0  0  0  0  0  0  0  0  0
   26.4408  -20.7224  -13.2254 C   0  0  2  0  0  0  0  0  0  0  0  0
   27.1570  -20.4860  -14.5008 N   0  0  0  0  0  0  0  0  0  0  0  0
   25.0581  -20.2832  -13.4963 C   0  0  0  0  0  0  0  0  0  0  0  0
   24.8405  -19.1354  -14.0299 O   0  0  0  0  0  0  0  0  0  0  0  0
   21.8002  -26.5917  -14.6131 O   0  0  0  0  0  0  0  0  0  0  0  0
   21.8568  -25.2032  -14.6520 C   0  0  0  0  0  0  0  0  0  0  0  0
   23.0761  -24.6204  -14.9564 C   0  0  0  0  0  0  0  0  0  0  0  0
   23.1611  -23.2594  -15.0018 C   0  0  0  0  0  0  0  0  0  0  0  0
   22.0273  -22.4915  -14.7427 C   0  0  0  0  0  0  0  0  0  0  0  0
   22.1702  -21.0404  -14.7911 C   0  0  0  0  0  0  0  0  0  0  0  0
   22.5940  -20.4475  -13.4389 C   0  0  2  0  0  0  0  0  0  0  0  0
   23.9214  -21.0638  -13.2069 N   0  0  0  0  0  0  0  0  0  0  0  0
   21.6168  -20.9130  -12.4333 C   0  0  0  0  0  0  0  0  0  0  0  0
   21.8658  -21.7200  -11.5286 O   0  0  0  0  0  0  0  0  0  0  0  0
   20.8069  -23.0535  -14.4382 C   0  0  0  0  0  0  0  0  0  0  0  0
   20.7492  -24.4414  -14.3990 C   0  0  0  0  0  0  0  0  0  0  0  0
   20.3227  -20.4173  -12.4956 O   0  0  0  0  0  0  0  0  0  0  0  0
  2  1  1  6
  3  4  1  0
  3  2  1  0
  5  4  1  0
  6  5  1  0
  7  6  1  0
  8  9  2  0
  8  2  1  0
 10 11  1  0
 11 12  2  0
 13 11  1  0
 13 14  1  0
 15 14  1  1
 15 17  1  0
 15 16  1  0
 16  8  1  0
 17 26  1  0
 18 17  2  0
 19 20  1  0
 20 30  2  0
 20 21  1  0
 21 22  2  0
 22 23  1  0
 23 24  1  0
 25 24  1  6
 25 27  1  0
 26 25  1  0
 27 28  2  0
 27 31  1  0
 29 23  2  0
 30 29  1  0
M  END
$$$$
