KQY.pdb
     RDKit          3D

 31 31  0  0  1  0  0  0  0  0999 V2000
   28.3513  -21.0595  -17.6616 N   0  0  0  0  0  0  0  0  0  0  0  0
   27.2291  -20.5493  -16.9703 C   0  0  1  0  0  0  0  0  0  0  0  0
   25.8907  -20.7123  -17.6087 C   0  0  0  0  0  0  0  0  0  0  0  0
   25.4242  -19.6085  -18.4695 C   0  0  0  0  0  0  0  0  0  0  0  0
   26.1989  -18.3412  -18.4663 C   0  0  0  0  0  0  0  0  0  0  0  0
   25.4653  -17.1335  -18.9614 C   0  0  0  0  0  0  0  0  0  0  0  0
   26.2058  -15.9085  -18.9230 N   0  0  0  0  0  0  0  0  0  0  0  0
   27.1945  -21.0791  -15.5756 C   0  0  0  0  0  0  0  0  0  0  0  0
   26.3092  -21.9565  -15.3201 O   0  0  0  0  0  0  0  0  0  0  0  0
   31.2479  -20.7695  -10.7841 N   0  0  0  0  0  0  0  0  0  0  0  0
   30.1088  -21.3274  -10.1156 C   0  0  0  0  0  0  0  0  0  0  0  0
   30.1142  -21.6515   -8.9229 O   0  0  0  0  0  0  0  0  0  0  0  0
   28.8974  -21.4979  -10.9566 C   0  0  0  0  0  0  0  0  0  0  0  0
   29.0372  -21.0362  -12.3611 C   0  0  0  0  0  0  0  0  0  0  0  0
   27.8575  -21.3467  -13.2151 C   0  0  2  0  0  0  0  0  0  0  0  0
   28.0437  -20.6968  -14.5336 N   0  0  0  0  0  0  0  0  0  0  0  0
   26.6392  -20.7192  -12.6674 C   0  0  0  0  0  0  0  0  0  0  0  0
   26.3099  -19.5311  -13.0273 O   0  0  0  0  0  0  0  0  0  0  0  0
   18.7390  -18.8137   -9.9638 O   0  0  0  0  0  0  0  0  0  0  0  0
   19.9104  -19.3656  -10.4698 C   0  0  0  0  0  0  0  0  0  0  0  0
   20.4417  -20.4594   -9.8061 C   0  0  0  0  0  0  0  0  0  0  0  0
   21.5907  -21.0216  -10.2805 C   0  0  0  0  0  0  0  0  0  0  0  0
   22.1998  -20.4867  -11.4142 C   0  0  0  0  0  0  0  0  0  0  0  0
   23.4330  -21.1143  -11.8766 C   0  0  0  0  0  0  0  0  0  0  0  0
   24.6774  -20.5487  -11.1759 C   0  0  2  0  0  0  0  0  0  0  0  0
   25.7788  -21.3560  -11.7513 N   0  0  0  0  0  0  0  0  0  0  0  0
   24.5264  -20.8216   -9.7317 C   0  0  0  0  0  0  0  0  0  0  0  0
   24.0318  -20.0359   -8.9134 O   0  0  0  0  0  0  0  0  0  0  0  0
   21.6861  -19.3997  -12.0868 C   0  0  0  0  0  0  0  0  0  0  0  0
   20.5152  -18.8473  -11.5818 C   0  0  0  0  0  0  0  0  0  0  0  0
   24.9665  -22.0434   -9.2442 O   0  0  0  0  0  0  0  0  0  0  0  0
  2  1  1  6
  3  4  1  0
  3  2  1  0
  5  4  1  0
  6  5  1  0
  7  6  1  0
  8  9  2  0
  8  2  1  0
 10 11  1  0
 11 12  2  0
 13 11  1  0
 13 14  1  0
 15 14  1  1
 15 17  1  0
 15 16  1  0
 16  8  1  0
 17 26  1  0
 18 17  2  0
 19 20  1  0
 20 30  2  0
 20 21  1  0
 21 22  2  0
 22 23  1  0
 23 24  1  0
 25 24  1  6
 25 27  1  0
 26 25  1  0
 27 28  2  0
 27 31  1  0
 29 23  2  0
 30 29  1  0
M  END
$$$$
