KQY.pdb
     RDKit          3D

 31 31  0  0  1  0  0  0  0  0999 V2000
   25.7218  -21.3891  -18.3784 N   0  0  0  0  0  0  0  0  0  0  0  0
   25.2908  -20.2512  -17.6594 C   0  0  1  0  0  0  0  0  0  0  0  0
   24.3085  -19.3453  -18.3225 C   0  0  0  0  0  0  0  0  0  0  0  0
   24.8183  -18.4957  -19.4158 C   0  0  0  0  0  0  0  0  0  0  0  0
   26.0468  -17.6981  -19.1696 C   0  0  0  0  0  0  0  0  0  0  0  0
   26.4359  -16.7547  -20.2652 C   0  0  0  0  0  0  0  0  0  0  0  0
   26.5216  -15.3767  -19.8854 N   0  0  0  0  0  0  0  0  0  0  0  0
   24.7858  -20.6495  -16.3128 C   0  0  0  0  0  0  0  0  0  0  0  0
   24.2003  -21.7763  -16.2331 O   0  0  0  0  0  0  0  0  0  0  0  0
   26.3791  -21.9545  -11.6141 N   0  0  0  0  0  0  0  0  0  0  0  0
   25.2518  -21.4897  -10.8598 C   0  0  0  0  0  0  0  0  0  0  0  0
   24.8598  -22.0340   -9.8218 O   0  0  0  0  0  0  0  0  0  0  0  0
   24.5677  -20.2924  -11.4097 C   0  0  0  0  0  0  0  0  0  0  0  0
   25.0628  -19.8384  -12.7341 C   0  0  0  0  0  0  0  0  0  0  0  0
   24.3775  -20.4875  -13.8858 C   0  0  2  0  0  0  0  0  0  0  0  0
   24.8988  -19.8969  -15.1407 N   0  0  0  0  0  0  0  0  0  0  0  0
   22.9406  -20.1509  -13.8931 C   0  0  0  0  0  0  0  0  0  0  0  0
   22.5643  -18.9407  -14.1016 O   0  0  0  0  0  0  0  0  0  0  0  0
   20.5160  -16.0338  -18.0561 O   0  0  0  0  0  0  0  0  0  0  0  0
   20.3860  -17.1899  -17.2951 C   0  0  0  0  0  0  0  0  0  0  0  0
   21.0258  -18.3313  -17.7500 C   0  0  0  0  0  0  0  0  0  0  0  0
   20.9156  -19.4806  -17.0231 C   0  0  0  0  0  0  0  0  0  0  0  0
   20.1670  -19.4806  -15.8475 C   0  0  0  0  0  0  0  0  0  0  0  0
   20.0683  -20.7361  -15.1110 C   0  0  0  0  0  0  0  0  0  0  0  0
   20.5231  -20.5965  -13.6504 C   0  0  2  0  0  0  0  0  0  0  0  0
   21.9173  -21.0971  -13.6870 N   0  0  0  0  0  0  0  0  0  0  0  0
   19.6672  -21.4876  -12.8403 C   0  0  0  0  0  0  0  0  0  0  0  0
   18.4839  -21.2624  -12.5562 O   0  0  0  0  0  0  0  0  0  0  0  0
   19.5240  -18.3555  -15.3800 C   0  0  0  0  0  0  0  0  0  0  0  0
   19.6533  -17.1993  -16.1400 C   0  0  0  0  0  0  0  0  0  0  0  0
   20.2169  -22.6659  -12.3569 O   0  0  0  0  0  0  0  0  0  0  0  0
  2  1  1  6
  3  4  1  0
  3  2  1  0
  5  4  1  0
  6  5  1  0
  7  6  1  0
  8  9  2  0
  8  2  1  0
 10 11  1  0
 11 12  2  0
 13 11  1  0
 13 14  1  0
 15 14  1  1
 15 17  1  0
 15 16  1  0
 16  8  1  0
 17 26  1  0
 18 17  2  0
 19 20  1  0
 20 30  2  0
 20 21  1  0
 21 22  2  0
 22 23  1  0
 23 24  1  0
 25 24  1  6
 25 27  1  0
 26 25  1  0
 27 28  2  0
 27 31  1  0
 29 23  2  0
 30 29  1  0
M  END
$$$$
