KQY.pdb
     RDKit          3D

 31 31  0  0  1  0  0  0  0  0999 V2000
   28.1454  -23.1067  -18.9238 N   0  0  0  0  0  0  0  0  0  0  0  0
   27.8019  -23.5717  -17.6341 C   0  0  1  0  0  0  0  0  0  0  0  0
   28.8668  -24.2449  -16.8352 C   0  0  0  0  0  0  0  0  0  0  0  0
   28.8950  -25.7196  -16.8714 C   0  0  0  0  0  0  0  0  0  0  0  0
   28.5548  -26.3964  -18.1490 C   0  0  0  0  0  0  0  0  0  0  0  0
   28.7360  -27.8826  -18.1620 C   0  0  0  0  0  0  0  0  0  0  0  0
   29.9270  -28.3601  -17.5264 N   0  0  0  0  0  0  0  0  0  0  0  0
   27.1848  -22.4732  -16.8343 C   0  0  0  0  0  0  0  0  0  0  0  0
   27.6632  -21.3063  -17.0027 O   0  0  0  0  0  0  0  0  0  0  0  0
   22.4739  -22.3915  -17.3996 N   0  0  0  0  0  0  0  0  0  0  0  0
   22.4593  -23.0554  -16.1289 C   0  0  0  0  0  0  0  0  0  0  0  0
   21.7311  -24.0218  -15.8772 O   0  0  0  0  0  0  0  0  0  0  0  0
   23.3881  -22.5028  -15.1111 C   0  0  0  0  0  0  0  0  0  0  0  0
   24.1478  -21.3011  -15.5401 C   0  0  0  0  0  0  0  0  0  0  0  0
   25.6105  -21.3896  -15.2753 C   0  0  2  0  0  0  0  0  0  0  0  0
   26.1352  -22.6148  -15.9225 N   0  0  0  0  0  0  0  0  0  0  0  0
   25.8672  -21.5977  -13.8369 C   0  0  0  0  0  0  0  0  0  0  0  0
   25.6973  -22.7586  -13.3145 O   0  0  0  0  0  0  0  0  0  0  0  0
   28.4423  -20.2226   -5.5758 O   0  0  0  0  0  0  0  0  0  0  0  0
   28.2141  -20.1441   -6.9449 C   0  0  0  0  0  0  0  0  0  0  0  0
   27.2713  -19.2297   -7.3855 C   0  0  0  0  0  0  0  0  0  0  0  0
   27.0268  -19.1309   -8.7241 C   0  0  0  0  0  0  0  0  0  0  0  0
   27.7262  -19.9465   -9.6120 C   0  0  0  0  0  0  0  0  0  0  0  0
   27.4217  -19.8132  -11.0326 C   0  0  0  0  0  0  0  0  0  0  0  0
   26.5092  -20.9377  -11.5447 C   0  0  2  0  0  0  0  0  0  0  0  0
   26.3068  -20.5793  -12.9682 N   0  0  0  0  0  0  0  0  0  0  0  0
   25.2396  -20.8445  -10.7950 C   0  0  0  0  0  0  0  0  0  0  0  0
   24.9777  -21.4849   -9.7688 O   0  0  0  0  0  0  0  0  0  0  0  0
   28.6667  -20.8613   -9.1921 C   0  0  0  0  0  0  0  0  0  0  0  0
   28.8956  -20.9405   -7.8237 C   0  0  0  0  0  0  0  0  0  0  0  0
   24.2613  -19.9799  -11.2638 O   0  0  0  0  0  0  0  0  0  0  0  0
  2  1  1  6
  3  4  1  0
  3  2  1  0
  5  4  1  0
  6  5  1  0
  7  6  1  0
  8  9  2  0
  8  2  1  0
 10 11  1  0
 11 12  2  0
 13 11  1  0
 13 14  1  0
 15 14  1  1
 15 17  1  0
 15 16  1  0
 16  8  1  0
 17 26  1  0
 18 17  2  0
 19 20  1  0
 20 30  2  0
 20 21  1  0
 21 22  2  0
 22 23  1  0
 23 24  1  0
 25 24  1  1
 25 27  1  0
 26 25  1  0
 27 28  2  0
 27 31  1  0
 29 23  2  0
 30 29  1  0
M  END
$$$$
