EKM.pdb
     RDKit          3D

 27 26  0  0  1  0  0  0  0  0999 V2000
   25.1992  -22.8826  -15.0273 N   0  0  0  0  0  0  0  0  0  0  0  0
   23.8213  -23.3093  -15.0001 C   0  0  1  0  0  0  0  0  0  0  0  0
   23.7926  -24.7915  -14.7154 C   0  0  0  0  0  0  0  0  0  0  0  0
   23.1102  -25.5251  -15.8488 C   0  0  0  0  0  0  0  0  0  0  0  0
   22.1951  -26.5538  -15.3145 C   0  0  0  0  0  0  0  0  0  0  0  0
   22.6187  -27.4263  -14.5319 O   0  0  0  0  0  0  0  0  0  0  0  0
   23.1184  -22.5327  -13.9513 C   0  0  0  0  0  0  0  0  0  0  0  0
   23.7327  -22.1370  -12.9367 O   0  0  0  0  0  0  0  0  0  0  0  0
   20.8725  -26.5447  -15.6844 O   0  0  0  0  0  0  0  0  0  0  0  0
   21.7393  -22.2250  -14.0786 N   0  0  0  0  0  0  0  0  0  0  0  0
   20.9723  -21.5377  -13.0712 C   0  0  1  0  0  0  0  0  0  0  0  0
   20.3618  -20.3054  -13.7265 C   0  0  0  0  0  0  0  0  0  0  0  0
   21.3716  -19.1907  -13.8456 C   0  0  0  0  0  0  0  0  0  0  0  0
   20.7740  -18.0166  -14.5442 C   0  0  0  0  0  0  0  0  0  0  0  0
   21.0253  -17.9312  -16.0095 C   0  0  0  0  0  0  0  0  0  0  0  0
   20.4380  -16.6961  -16.5536 N   0  0  0  0  0  0  0  0  0  0  0  0
   19.9212  -22.4205  -12.5051 C   0  0  0  0  0  0  0  0  0  0  0  0
   19.1313  -22.9802  -13.2815 O   0  0  0  0  0  0  0  0  0  0  0  0
   16.8398  -26.2354   -6.3348 C   0  0  0  0  0  0  0  0  0  0  0  0
   18.2458  -25.2188   -6.8631 S   0  0  0  0  0  0  0  0  0  0  0  0
   17.9474  -24.6302   -8.5489 C   0  0  0  0  0  0  0  0  0  0  0  0
   19.0659  -23.7402   -9.0410 C   0  0  0  0  0  0  0  0  0  0  0  0
   18.7740  -23.4295  -10.4961 C   0  0  2  0  0  0  0  0  0  0  0  0
   19.7987  -22.6387  -11.1067 N   0  0  0  0  0  0  0  0  0  0  0  0
   17.4167  -22.8652  -10.6971 C   0  0  0  0  0  0  0  0  0  0  0  0
   17.1608  -21.6405  -10.5935 O   0  0  0  0  0  0  0  0  0  0  0  0
   16.3696  -23.7180  -11.0150 O   0  0  0  0  0  0  0  0  0  0  0  0
  2  1  1  1
  2  7  1  0
  3  2  1  0
  3  4  1  0
  4  5  1  0
  5  9  1  0
  5  6  2  0
  7 10  1  0
  7  8  2  0
 10 11  1  0
 11 12  1  6
 11 17  1  0
 13 14  1  0
 13 12  1  0
 15 16  1  0
 15 14  1  0
 17 18  2  0
 20 19  1  0
 20 21  1  0
 21 22  1  0
 23 22  1  1
 23 25  1  0
 24 23  1  0
 24 17  1  0
 25 26  2  0
 25 27  1  0
M  END
$$$$
