EKM.pdb
     RDKit          3D

 27 26  0  0  1  0  0  0  0  0999 V2000
   25.7177  -21.5701  -16.4046 N   0  0  0  0  0  0  0  0  0  0  0  0
   26.1421  -21.1530  -15.0904 C   0  0  1  0  0  0  0  0  0  0  0  0
   27.4606  -20.4310  -15.2280 C   0  0  0  0  0  0  0  0  0  0  0  0
   28.5369  -21.3954  -15.6751 C   0  0  0  0  0  0  0  0  0  0  0  0
   28.8315  -21.2036  -17.1095 C   0  0  0  0  0  0  0  0  0  0  0  0
   28.2154  -20.3436  -17.7681 O   0  0  0  0  0  0  0  0  0  0  0  0
   25.0902  -20.2766  -14.5224 C   0  0  0  0  0  0  0  0  0  0  0  0
   25.2074  -19.8125  -13.3672 O   0  0  0  0  0  0  0  0  0  0  0  0
   29.7896  -21.9787  -17.7158 O   0  0  0  0  0  0  0  0  0  0  0  0
   23.9340  -19.9491  -15.2765 N   0  0  0  0  0  0  0  0  0  0  0  0
   22.8567  -19.1302  -14.7821 C   0  0  1  0  0  0  0  0  0  0  0  0
   22.1938  -18.4749  -15.9871 C   0  0  0  0  0  0  0  0  0  0  0  0
   21.0515  -17.5833  -15.5669 C   0  0  0  0  0  0  0  0  0  0  0  0
   20.4853  -16.8684  -16.7468 C   0  0  0  0  0  0  0  0  0  0  0  0
   19.3306  -15.9688  -16.4730 C   0  0  0  0  0  0  0  0  0  0  0  0
   18.8494  -15.3656  -17.7264 N   0  0  0  0  0  0  0  0  0  0  0  0
   21.8820  -19.9399  -14.0081 C   0  0  0  0  0  0  0  0  0  0  0  0
   21.4667  -21.0016  -14.4984 O   0  0  0  0  0  0  0  0  0  0  0  0
   19.7847  -22.1340   -6.8103 C   0  0  0  0  0  0  0  0  0  0  0  0
   20.8574  -21.0372   -7.7774 S   0  0  0  0  0  0  0  0  0  0  0  0
   20.3873  -21.1413   -9.5226 C   0  0  0  0  0  0  0  0  0  0  0  0
   21.2584  -20.2653  -10.3939 C   0  0  0  0  0  0  0  0  0  0  0  0
   20.7258  -20.3824  -11.8087 C   0  0  2  0  0  0  0  0  0  0  0  0
   21.4167  -19.5319  -12.7294 N   0  0  0  0  0  0  0  0  0  0  0  0
   19.2521  -20.2260  -11.8774 C   0  0  0  0  0  0  0  0  0  0  0  0
   18.4520  -21.1750  -11.6890 O   0  0  0  0  0  0  0  0  0  0  0  0
   18.7165  -18.9784  -12.1625 O   0  0  0  0  0  0  0  0  0  0  0  0
  2  1  1  6
  2  7  1  0
  3  2  1  0
  3  4  1  0
  4  5  1  0
  5  9  1  0
  5  6  2  0
  7 10  1  0
  7  8  2  0
 10 11  1  0
 11 12  1  6
 11 17  1  0
 13 14  1  0
 13 12  1  0
 15 16  1  0
 15 14  1  0
 17 18  2  0
 20 19  1  0
 20 21  1  0
 21 22  1  0
 23 22  1  1
 23 25  1  0
 24 23  1  0
 24 17  1  0
 25 26  2  0
 25 27  1  0
M  END
$$$$
