EKM.pdb
     RDKit          3D

 27 26  0  0  1  0  0  0  0  0999 V2000
   27.0030  -19.4793  -16.5107 N   0  0  0  0  0  0  0  0  0  0  0  0
   26.1467  -20.5102  -15.9765 C   0  0  1  0  0  0  0  0  0  0  0  0
   26.8363  -21.8398  -16.1644 C   0  0  0  0  0  0  0  0  0  0  0  0
   28.3262  -21.6341  -16.3261 C   0  0  0  0  0  0  0  0  0  0  0  0
   29.0076  -22.9346  -16.4860 C   0  0  0  0  0  0  0  0  0  0  0  0
   28.3448  -23.9883  -16.5442 O   0  0  0  0  0  0  0  0  0  0  0  0
   25.9040  -20.2124  -14.5448 C   0  0  0  0  0  0  0  0  0  0  0  0
   26.6065  -19.3698  -13.9448 O   0  0  0  0  0  0  0  0  0  0  0  0
   30.3777  -22.9779  -16.5703 O   0  0  0  0  0  0  0  0  0  0  0  0
   24.8734  -20.8761  -13.8307 N   0  0  0  0  0  0  0  0  0  0  0  0
   24.3947  -20.4600  -12.5371 C   0  0  1  0  0  0  0  0  0  0  0  0
   22.9240  -20.8474  -12.4504 C   0  0  0  0  0  0  0  0  0  0  0  0
   22.0607  -19.9058  -13.2532 C   0  0  0  0  0  0  0  0  0  0  0  0
   20.6238  -20.2870  -13.1373 C   0  0  0  0  0  0  0  0  0  0  0  0
   19.6610  -19.4444  -13.8995 C   0  0  0  0  0  0  0  0  0  0  0  0
   20.0465  -18.0268  -13.8101 N   0  0  0  0  0  0  0  0  0  0  0  0
   25.1811  -21.0921  -11.4478 C   0  0  0  0  0  0  0  0  0  0  0  0
   25.2223  -22.3307  -11.3840 O   0  0  0  0  0  0  0  0  0  0  0  0
   29.3393  -18.2985   -7.0315 C   0  0  0  0  0  0  0  0  0  0  0  0
   28.2269  -19.2471   -5.9582 S   0  0  0  0  0  0  0  0  0  0  0  0
   27.1844  -20.3134   -6.9847 C   0  0  0  0  0  0  0  0  0  0  0  0
   27.0098  -19.7566   -8.3793 C   0  0  0  0  0  0  0  0  0  0  0  0
   26.1429  -20.7400   -9.1410 C   0  0  2  0  0  0  0  0  0  0  0  0
   25.8825  -20.3193  -10.4840 N   0  0  0  0  0  0  0  0  0  0  0  0
   24.9079  -21.1016   -8.4028 C   0  0  0  0  0  0  0  0  0  0  0  0
   24.8689  -22.0050   -7.5319 O   0  0  0  0  0  0  0  0  0  0  0  0
   23.7317  -20.4184   -8.6759 O   0  0  0  0  0  0  0  0  0  0  0  0
  2  1  1  1
  2  7  1  0
  3  2  1  0
  3  4  1  0
  4  5  1  0
  5  9  1  0
  5  6  2  0
  7 10  1  0
  7  8  2  0
 10 11  1  0
 11 12  1  1
 11 17  1  0
 13 14  1  0
 13 12  1  0
 15 16  1  0
 15 14  1  0
 17 18  2  0
 20 19  1  0
 20 21  1  0
 21 22  1  0
 23 22  1  1
 23 25  1  0
 24 23  1  0
 24 17  1  0
 25 26  2  0
 25 27  1  0
M  END
$$$$
