EKM.pdb
     RDKit          3D

 27 26  0  0  1  0  0  0  0  0999 V2000
   17.3360  -12.8191  -15.7981 N   0  0  0  0  0  0  0  0  0  0  0  0
   17.0126  -11.8697  -16.8351 C   0  0  1  0  0  0  0  0  0  0  0  0
   15.5892  -12.1165  -17.2728 C   0  0  0  0  0  0  0  0  0  0  0  0
   15.4473  -13.5237  -17.8094 C   0  0  0  0  0  0  0  0  0  0  0  0
   15.2263  -14.4739  -16.7006 C   0  0  0  0  0  0  0  0  0  0  0  0
   15.9378  -15.4914  -16.5938 O   0  0  0  0  0  0  0  0  0  0  0  0
   17.1911  -10.5054  -16.2835 C   0  0  0  0  0  0  0  0  0  0  0  0
   17.0465   -9.5019  -17.0153 O   0  0  0  0  0  0  0  0  0  0  0  0
   14.2313  -14.2309  -15.7857 O   0  0  0  0  0  0  0  0  0  0  0  0
   17.5287  -10.3133  -14.9190 N   0  0  0  0  0  0  0  0  0  0  0  0
   17.7057   -9.0204  -14.3087 C   0  0  1  0  0  0  0  0  0  0  0  0
   17.1918   -9.1188  -12.8780 C   0  0  0  0  0  0  0  0  0  0  0  0
   15.6852   -9.1898  -12.8403 C   0  0  0  0  0  0  0  0  0  0  0  0
   15.2135   -9.5595  -11.4748 C   0  0  0  0  0  0  0  0  0  0  0  0
   13.7584   -9.8477  -11.3423 C   0  0  0  0  0  0  0  0  0  0  0  0
   13.4487  -10.2719   -9.9673 N   0  0  0  0  0  0  0  0  0  0  0  0
   19.1311   -8.6057  -14.3393 C   0  0  0  0  0  0  0  0  0  0  0  0
   19.9932   -9.4063  -13.9443 O   0  0  0  0  0  0  0  0  0  0  0  0
   24.9075   -4.5343  -17.5861 C   0  0  0  0  0  0  0  0  0  0  0  0
   23.1140   -4.8018  -17.6186 S   0  0  0  0  0  0  0  0  0  0  0  0
   22.6290   -5.7277  -16.1404 C   0  0  0  0  0  0  0  0  0  0  0  0
   21.1622   -6.0929  -16.1605 C   0  0  0  0  0  0  0  0  0  0  0  0
   20.8865   -6.8790  -14.8936 C   0  0  2  0  0  0  0  0  0  0  0  0
   19.5292   -7.3246  -14.8064 N   0  0  0  0  0  0  0  0  0  0  0  0
   21.3370   -6.1676  -13.6722 C   0  0  0  0  0  0  0  0  0  0  0  0
   22.4411   -6.3891  -13.1172 O   0  0  0  0  0  0  0  0  0  0  0  0
   20.5107   -5.2089  -13.1039 O   0  0  0  0  0  0  0  0  0  0  0  0
  2  1  1  1
  2  7  1  0
  3  2  1  0
  3  4  1  0
  4  5  1  0
  5  9  1  0
  5  6  2  0
  7 10  1  0
  7  8  2  0
 10 11  1  0
 11 12  1  1
 11 17  1  0
 13 14  1  0
 13 12  1  0
 15 16  1  0
 15 14  1  0
 17 18  2  0
 20 19  1  0
 20 21  1  0
 21 22  1  0
 23 22  1  6
 23 25  1  0
 24 23  1  0
 24 17  1  0
 25 26  2  0
 25 27  1  0
M  END
$$$$
