EKM.pdb
     RDKit          3D

 27 26  0  0  1  0  0  0  0  0999 V2000
   22.0681  -17.7702  -16.3697 N   0  0  0  0  0  0  0  0  0  0  0  0
   21.5020  -17.6856  -15.0454 C   0  0  1  0  0  0  0  0  0  0  0  0
   20.0027  -17.8136  -15.1648 C   0  0  0  0  0  0  0  0  0  0  0  0
   19.4202  -16.5550  -15.7689 C   0  0  0  0  0  0  0  0  0  0  0  0
   17.9596  -16.5136  -15.5548 C   0  0  0  0  0  0  0  0  0  0  0  0
   17.1795  -16.6426  -16.5180 O   0  0  0  0  0  0  0  0  0  0  0  0
   22.0846  -18.7736  -14.2242 C   0  0  0  0  0  0  0  0  0  0  0  0
   21.7632  -18.9025  -13.0228 O   0  0  0  0  0  0  0  0  0  0  0  0
   17.4636  -16.3320  -14.2871 O   0  0  0  0  0  0  0  0  0  0  0  0
   23.0153  -19.6861  -14.7846 N   0  0  0  0  0  0  0  0  0  0  0  0
   23.6306  -20.7609  -14.0485 C   0  0  1  0  0  0  0  0  0  0  0  0
   24.1033  -21.7944  -15.0629 C   0  0  0  0  0  0  0  0  0  0  0  0
   24.7391  -22.9808  -14.3811 C   0  0  0  0  0  0  0  0  0  0  0  0
   23.9307  -24.2121  -14.6136 C   0  0  0  0  0  0  0  0  0  0  0  0
   24.4006  -25.4427  -13.9189 C   0  0  0  0  0  0  0  0  0  0  0  0
   23.5054  -26.5705  -14.2241 N   0  0  0  0  0  0  0  0  0  0  0  0
   24.7600  -20.2645  -13.2222 C   0  0  0  0  0  0  0  0  0  0  0  0
   25.4841  -19.3668  -13.6803 O   0  0  0  0  0  0  0  0  0  0  0  0
   28.5368  -19.3915   -6.4327 C   0  0  0  0  0  0  0  0  0  0  0  0
   27.0070  -20.0261   -7.1718 S   0  0  0  0  0  0  0  0  0  0  0  0
   27.1773  -20.0228   -8.9741 C   0  0  0  0  0  0  0  0  0  0  0  0
   25.9057  -20.4661   -9.6610 C   0  0  0  0  0  0  0  0  0  0  0  0
   26.1874  -20.4689  -11.1507 C   0  0  2  0  0  0  0  0  0  0  0  0
   25.0300  -20.7883  -11.9296 N   0  0  0  0  0  0  0  0  0  0  0  0
   27.3654  -21.2977  -11.5062 C   0  0  0  0  0  0  0  0  0  0  0  0
   27.3193  -22.5484  -11.6058 O   0  0  0  0  0  0  0  0  0  0  0  0
   28.5832  -20.6767  -11.7431 O   0  0  0  0  0  0  0  0  0  0  0  0
  2  1  1  6
  2  7  1  0
  3  2  1  0
  3  4  1  0
  4  5  1  0
  5  9  1  0
  5  6  2  0
  7 10  1  0
  7  8  2  0
 10 11  1  0
 11 12  1  6
 11 17  1  0
 13 14  1  0
 13 12  1  0
 15 16  1  0
 15 14  1  0
 17 18  2  0
 20 19  1  0
 20 21  1  0
 21 22  1  0
 23 22  1  1
 23 25  1  0
 24 23  1  0
 24 17  1  0
 25 26  2  0
 25 27  1  0
M  END
$$$$
