EKM.pdb
     RDKit          3D

 27 26  0  0  1  0  0  0  0  0999 V2000
   14.7272  -10.5035  -16.3608 N   0  0  0  0  0  0  0  0  0  0  0  0
   15.0932  -10.9569  -15.0410 C   0  0  1  0  0  0  0  0  0  0  0  0
   16.5492  -11.3542  -15.0661 C   0  0  0  0  0  0  0  0  0  0  0  0
   16.7131  -12.6832  -15.7699 C   0  0  0  0  0  0  0  0  0  0  0  0
   16.4948  -13.7943  -14.8219 C   0  0  0  0  0  0  0  0  0  0  0  0
   17.1218  -13.8344  -13.7457 O   0  0  0  0  0  0  0  0  0  0  0  0
   14.8398   -9.8512  -14.0866 C   0  0  0  0  0  0  0  0  0  0  0  0
   15.0744   -8.6669  -14.4119 O   0  0  0  0  0  0  0  0  0  0  0  0
   15.5960  -14.7853  -15.1320 O   0  0  0  0  0  0  0  0  0  0  0  0
   14.3280  -10.1154  -12.7901 N   0  0  0  0  0  0  0  0  0  0  0  0
   14.0661   -9.0965  -11.8058 C   0  0  1  0  0  0  0  0  0  0  0  0
   12.9387   -9.6034  -10.9156 C   0  0  0  0  0  0  0  0  0  0  0  0
   12.5539   -8.5760   -9.8798 C   0  0  0  0  0  0  0  0  0  0  0  0
   11.3638   -9.0338   -9.1066 C   0  0  0  0  0  0  0  0  0  0  0  0
   10.7604   -8.0332   -8.1834 C   0  0  0  0  0  0  0  0  0  0  0  0
    9.5880   -8.6105   -7.5061 N   0  0  0  0  0  0  0  0  0  0  0  0
   15.2837   -8.7961  -11.0108 C   0  0  0  0  0  0  0  0  0  0  0  0
   15.8705   -9.7308  -10.4434 O   0  0  0  0  0  0  0  0  0  0  0  0
   22.3518   -6.3336  -10.9662 C   0  0  0  0  0  0  0  0  0  0  0  0
   20.7738   -6.3214  -11.8601 S   0  0  0  0  0  0  0  0  0  0  0  0
   19.4379   -6.7143  -10.7032 C   0  0  0  0  0  0  0  0  0  0  0  0
   18.1173   -6.9090  -11.4128 C   0  0  0  0  0  0  0  0  0  0  0  0
   17.0716   -7.1455  -10.3407 C   0  0  2  0  0  0  0  0  0  0  0  0
   15.7895   -7.4745  -10.8849 N   0  0  0  0  0  0  0  0  0  0  0  0
   17.0095   -6.0412   -9.3519 C   0  0  0  0  0  0  0  0  0  0  0  0
   16.2576   -5.0444   -9.4831 O   0  0  0  0  0  0  0  0  0  0  0  0
   17.8142   -6.0975   -8.2232 O   0  0  0  0  0  0  0  0  0  0  0  0
  2  1  1  6
  2  7  1  0
  3  2  1  0
  3  4  1  0
  4  5  1  0
  5  9  1  0
  5  6  2  0
  7 10  1  0
  7  8  2  0
 10 11  1  0
 11 12  1  1
 11 17  1  0
 13 14  1  0
 13 12  1  0
 15 16  1  0
 15 14  1  0
 17 18  2  0
 20 19  1  0
 20 21  1  0
 21 22  1  0
 23 22  1  6
 23 25  1  0
 24 23  1  0
 24 17  1  0
 25 26  2  0
 25 27  1  0
M  END
$$$$
