EKM.pdb
     RDKit          3D

 27 26  0  0  1  0  0  0  0  0999 V2000
   16.8851  -25.0592   -4.9572 N   0  0  0  0  0  0  0  0  0  0  0  0
   15.6864  -25.0817   -4.1547 C   0  0  1  0  0  0  0  0  0  0  0  0
   15.2544  -26.5190   -3.9931 C   0  0  0  0  0  0  0  0  0  0  0  0
   16.3077  -27.2961   -3.2349 C   0  0  0  0  0  0  0  0  0  0  0  0
   15.9028  -28.7100   -3.1012 C   0  0  0  0  0  0  0  0  0  0  0  0
   16.0402  -29.4962   -4.0583 O   0  0  0  0  0  0  0  0  0  0  0  0
   15.9927  -24.4480   -2.8501 C   0  0  0  0  0  0  0  0  0  0  0  0
   17.1711  -24.3862   -2.4366 O   0  0  0  0  0  0  0  0  0  0  0  0
   15.3730  -29.1557   -1.9151 O   0  0  0  0  0  0  0  0  0  0  0  0
   14.9574  -23.9016   -2.0485 N   0  0  0  0  0  0  0  0  0  0  0  0
   15.1793  -23.2494   -0.7832 C   0  0  1  0  0  0  0  0  0  0  0  0
   13.9137  -22.4722   -0.4443 C   0  0  0  0  0  0  0  0  0  0  0  0
   14.1623  -21.4744    0.6598 C   0  0  0  0  0  0  0  0  0  0  0  0
   12.9244  -20.6943    0.9476 C   0  0  0  0  0  0  0  0  0  0  0  0
   13.0654  -19.5849    1.9310 C   0  0  0  0  0  0  0  0  0  0  0  0
   11.8285  -18.7885    1.9779 N   0  0  0  0  0  0  0  0  0  0  0  0
   15.5026  -24.2369    0.2775 C   0  0  0  0  0  0  0  0  0  0  0  0
   15.7618  -25.4043   -0.0543 O   0  0  0  0  0  0  0  0  0  0  0  0
   20.6114  -25.1015    0.8433 C   0  0  0  0  0  0  0  0  0  0  0  0
   20.5032  -25.0229    2.6520 S   0  0  0  0  0  0  0  0  0  0  0  0
   18.7594  -24.9954    3.1377 C   0  0  0  0  0  0  0  0  0  0  0  0
   17.8930  -24.3357    2.0891 C   0  0  0  0  0  0  0  0  0  0  0  0
   16.4679  -24.3772    2.6052 C   0  0  2  0  0  0  0  0  0  0  0  0
   15.5224  -23.8806    1.6525 N   0  0  0  0  0  0  0  0  0  0  0  0
   16.3263  -23.7430    3.9389 C   0  0  0  0  0  0  0  0  0  0  0  0
   16.3496  -22.4999    4.1134 O   0  0  0  0  0  0  0  0  0  0  0  0
   16.1594  -24.5478    5.0566 O   0  0  0  0  0  0  0  0  0  0  0  0
  2  1  1  6
  2  7  1  0
  3  2  1  0
  3  4  1  0
  4  5  1  0
  5  9  1  0
  5  6  2  0
  7 10  1  0
  7  8  2  0
 10 11  1  0
 11 12  1  1
 11 17  1  0
 13 14  1  0
 13 12  1  0
 15 16  1  0
 15 14  1  0
 17 18  2  0
 20 19  1  0
 20 21  1  0
 21 22  1  0
 23 22  1  6
 23 25  1  0
 24 23  1  0
 24 17  1  0
 25 26  2  0
 25 27  1  0
M  END
$$$$
