EKM.pdb
     RDKit          3D

 27 26  0  0  1  0  0  0  0  0999 V2000
   15.0247   -9.8786   -9.3796 N   0  0  0  0  0  0  0  0  0  0  0  0
   15.1877   -9.5734  -10.7802 C   0  0  1  0  0  0  0  0  0  0  0  0
   13.8580   -9.7776  -11.4648 C   0  0  0  0  0  0  0  0  0  0  0  0
   13.4680  -11.2384  -11.4172 C   0  0  0  0  0  0  0  0  0  0  0  0
   14.1588  -11.9872  -12.4864 C   0  0  0  0  0  0  0  0  0  0  0  0
   14.4625  -11.4214  -13.5544 O   0  0  0  0  0  0  0  0  0  0  0  0
   15.6578   -8.1723  -10.8954 C   0  0  0  0  0  0  0  0  0  0  0  0
   15.8060   -7.6437  -12.0188 O   0  0  0  0  0  0  0  0  0  0  0  0
   14.4659  -13.3126  -12.2982 O   0  0  0  0  0  0  0  0  0  0  0  0
   15.9476   -7.4071   -9.7364 N   0  0  0  0  0  0  0  0  0  0  0  0
   16.3801   -6.0332   -9.7672 C   0  0  1  0  0  0  0  0  0  0  0  0
   15.8266   -5.3542   -8.5209 C   0  0  0  0  0  0  0  0  0  0  0  0
   14.3488   -5.0817   -8.6556 C   0  0  0  0  0  0  0  0  0  0  0  0
   13.8193   -4.4467   -7.4145 C   0  0  0  0  0  0  0  0  0  0  0  0
   12.3793   -4.0680   -7.4380 C   0  0  0  0  0  0  0  0  0  0  0  0
   11.9852   -3.4923   -6.1420 N   0  0  0  0  0  0  0  0  0  0  0  0
   17.8612   -5.9402   -9.8158 C   0  0  0  0  0  0  0  0  0  0  0  0
   18.5214   -6.4664   -8.9063 O   0  0  0  0  0  0  0  0  0  0  0  0
   23.2969   -9.4064  -13.0348 C   0  0  0  0  0  0  0  0  0  0  0  0
   21.5780   -9.1660  -12.5088 S   0  0  0  0  0  0  0  0  0  0  0  0
   21.3042   -7.4080  -12.1743 C   0  0  0  0  0  0  0  0  0  0  0  0
   19.9133   -7.1455  -11.6434 C   0  0  0  0  0  0  0  0  0  0  0  0
   19.8120   -5.6538  -11.3913 C   0  0  2  0  0  0  0  0  0  0  0  0
   18.5359   -5.2687  -10.8702 N   0  0  0  0  0  0  0  0  0  0  0  0
   20.2183   -4.8481  -12.5690 C   0  0  0  0  0  0  0  0  0  0  0  0
   19.3964   -4.2665  -13.3188 O   0  0  0  0  0  0  0  0  0  0  0  0
   21.5668   -4.7213  -12.8695 O   0  0  0  0  0  0  0  0  0  0  0  0
  2  1  1  1
  2  7  1  0
  3  2  1  0
  3  4  1  0
  4  5  1  0
  5  9  1  0
  5  6  2  0
  7 10  1  0
  7  8  2  0
 10 11  1  0
 11 12  1  1
 11 17  1  0
 13 14  1  0
 13 12  1  0
 15 16  1  0
 15 14  1  0
 17 18  2  0
 20 19  1  0
 20 21  1  0
 21 22  1  0
 23 22  1  6
 23 25  1  0
 24 23  1  0
 24 17  1  0
 25 26  2  0
 25 27  1  0
M  END
$$$$
