EKM.pdb
     RDKit          3D

 27 26  0  0  1  0  0  0  0  0999 V2000
   16.1481  -26.4724   -7.0091 N   0  0  0  0  0  0  0  0  0  0  0  0
   16.8837  -25.7035   -6.0349 C   0  0  1  0  0  0  0  0  0  0  0  0
   16.3696  -24.2846   -6.0689 C   0  0  0  0  0  0  0  0  0  0  0  0
   14.8600  -24.2811   -6.1654 C   0  0  0  0  0  0  0  0  0  0  0  0
   14.3628  -22.9032   -6.3535 C   0  0  0  0  0  0  0  0  0  0  0  0
   14.4994  -22.3303   -7.4517 O   0  0  0  0  0  0  0  0  0  0  0  0
   16.6847  -26.3304   -4.7065 C   0  0  0  0  0  0  0  0  0  0  0  0
   15.5322  -26.5724   -4.2861 O   0  0  0  0  0  0  0  0  0  0  0  0
   13.7479  -22.2546   -5.3107 O   0  0  0  0  0  0  0  0  0  0  0  0
   17.7949  -26.6664   -3.8896 N   0  0  0  0  0  0  0  0  0  0  0  0
   17.6887  -27.3773   -2.6410 C   0  0  1  0  0  0  0  0  0  0  0  0
   18.7236  -28.4949   -2.6648 C   0  0  0  0  0  0  0  0  0  0  0  0
   18.1260  -29.7848   -3.1704 C   0  0  0  0  0  0  0  0  0  0  0  0
   19.1331  -30.8832   -3.1178 C   0  0  0  0  0  0  0  0  0  0  0  0
   18.6422  -32.2379   -3.4941 C   0  0  0  0  0  0  0  0  0  0  0  0
   19.7018  -33.2377   -3.2842 N   0  0  0  0  0  0  0  0  0  0  0  0
   17.9078  -26.4677   -1.4880 C   0  0  0  0  0  0  0  0  0  0  0  0
   18.9037  -25.7273   -1.4940 O   0  0  0  0  0  0  0  0  0  0  0  0
   15.4560  -21.1306    2.2162 C   0  0  0  0  0  0  0  0  0  0  0  0
   15.0525  -22.7998    2.7993 S   0  0  0  0  0  0  0  0  0  0  0  0
   16.3828  -23.9298    2.3190 C   0  0  0  0  0  0  0  0  0  0  0  0
   16.0300  -24.7212    1.0802 C   0  0  0  0  0  0  0  0  0  0  0  0
   17.2078  -25.6300    0.7875 C   0  0  2  0  0  0  0  0  0  0  0  0
   17.0119  -26.4247   -0.3865 N   0  0  0  0  0  0  0  0  0  0  0  0
   17.6122  -26.4359    1.9657 C   0  0  0  0  0  0  0  0  0  0  0  0
   18.3325  -25.9858    2.8902 O   0  0  0  0  0  0  0  0  0  0  0  0
   17.1823  -27.7512    2.0657 O   0  0  0  0  0  0  0  0  0  0  0  0
  2  1  1  6
  2  7  1  0
  3  2  1  0
  3  4  1  0
  4  5  1  0
  5  9  1  0
  5  6  2  0
  7 10  1  0
  7  8  2  0
 10 11  1  0
 11 12  1  6
 11 17  1  0
 13 14  1  0
 13 12  1  0
 15 16  1  0
 15 14  1  0
 17 18  2  0
 20 19  1  0
 20 21  1  0
 21 22  1  0
 23 22  1  1
 23 25  1  0
 24 23  1  0
 24 17  1  0
 25 26  2  0
 25 27  1  0
M  END
$$$$
