EKM.pdb
     RDKit          3D

 27 26  0  0  1  0  0  0  0  0999 V2000
   18.6316   -8.6350  -12.2908 N   0  0  0  0  0  0  0  0  0  0  0  0
   18.6898   -8.3031  -13.6936 C   0  0  1  0  0  0  0  0  0  0  0  0
   17.5734   -7.3328  -13.9949 C   0  0  0  0  0  0  0  0  0  0  0  0
   16.2346   -8.0260  -13.8700 C   0  0  0  0  0  0  0  0  0  0  0  0
   15.1427   -7.0968  -14.2241 C   0  0  0  0  0  0  0  0  0  0  0  0
   14.1871   -7.4871  -14.9223 O   0  0  0  0  0  0  0  0  0  0  0  0
   20.0215   -7.7156  -13.9738 C   0  0  0  0  0  0  0  0  0  0  0  0
   20.6072   -7.0305  -13.1071 O   0  0  0  0  0  0  0  0  0  0  0  0
   15.1848   -5.7980  -13.7795 O   0  0  0  0  0  0  0  0  0  0  0  0
   20.6546   -7.9188  -15.2270 N   0  0  0  0  0  0  0  0  0  0  0  0
   21.9233   -7.3408  -15.5902 C   0  0  1  0  0  0  0  0  0  0  0  0
   22.7143   -8.4103  -16.3327 C   0  0  0  0  0  0  0  0  0  0  0  0
   23.4385   -9.3218  -15.3730 C   0  0  0  0  0  0  0  0  0  0  0  0
   24.1722  -10.3862  -16.1162 C   0  0  0  0  0  0  0  0  0  0  0  0
   24.9834  -11.3206  -15.2875 C   0  0  0  0  0  0  0  0  0  0  0  0
   25.6764  -12.2917  -16.1495 N   0  0  0  0  0  0  0  0  0  0  0  0
   21.7381   -6.1305  -16.4303 C   0  0  0  0  0  0  0  0  0  0  0  0
   20.9865   -6.1982  -17.4154 O   0  0  0  0  0  0  0  0  0  0  0  0
   24.5729   -0.0400  -15.4236 C   0  0  0  0  0  0  0  0  0  0  0  0
   23.0295    0.2595  -16.3278 S   0  0  0  0  0  0  0  0  0  0  0  0
   22.4707   -1.2939  -17.0710 C   0  0  0  0  0  0  0  0  0  0  0  0
   22.7595   -2.4806  -16.1801 C   0  0  0  0  0  0  0  0  0  0  0  0
   22.2776   -3.7138  -16.9188 C   0  0  2  0  0  0  0  0  0  0  0  0
   22.3954   -4.9060  -16.1358 N   0  0  0  0  0  0  0  0  0  0  0  0
   22.8889   -3.8475  -18.2640 C   0  0  0  0  0  0  0  0  0  0  0  0
   23.9816   -4.4319  -18.4659 O   0  0  0  0  0  0  0  0  0  0  0  0
   22.2349   -3.3064  -19.3613 O   0  0  0  0  0  0  0  0  0  0  0  0
  2  1  1  1
  2  7  1  0
  3  2  1  0
  3  4  1  0
  4  5  1  0
  5  9  1  0
  5  6  2  0
  7 10  1  0
  7  8  2  0
 10 11  1  0
 11 12  1  6
 11 17  1  0
 13 14  1  0
 13 12  1  0
 15 16  1  0
 15 14  1  0
 17 18  2  0
 20 19  1  0
 20 21  1  0
 21 22  1  0
 23 22  1  1
 23 25  1  0
 24 23  1  0
 24 17  1  0
 25 26  2  0
 25 27  1  0
M  END
$$$$
