EKM.pdb
     RDKit          3D

 27 26  0  0  1  0  0  0  0  0999 V2000
   12.9871  -10.9800   -9.9040 N   0  0  0  0  0  0  0  0  0  0  0  0
   14.3141  -10.5932   -9.4908 C   0  0  1  0  0  0  0  0  0  0  0  0
   15.2950  -11.5854  -10.0669 C   0  0  0  0  0  0  0  0  0  0  0  0
   14.9506  -11.8783  -11.5104 C   0  0  0  0  0  0  0  0  0  0  0  0
   15.9035  -12.8548  -12.0755 C   0  0  0  0  0  0  0  0  0  0  0  0
   16.9094  -12.4632  -12.6982 O   0  0  0  0  0  0  0  0  0  0  0  0
   14.5679   -9.2180   -9.9826 C   0  0  0  0  0  0  0  0  0  0  0  0
   14.1414   -8.8559  -11.1008 O   0  0  0  0  0  0  0  0  0  0  0  0
   15.6759  -14.1993  -11.9115 O   0  0  0  0  0  0  0  0  0  0  0  0
   15.2976   -8.2898   -9.1961 N   0  0  0  0  0  0  0  0  0  0  0  0
   15.5180   -6.9162   -9.5709 C   0  0  1  0  0  0  0  0  0  0  0  0
   15.0862   -6.0493   -8.3950 C   0  0  0  0  0  0  0  0  0  0  0  0
   15.2319   -4.5816   -8.7133 C   0  0  0  0  0  0  0  0  0  0  0  0
   14.6528   -3.7497   -7.6196 C   0  0  0  0  0  0  0  0  0  0  0  0
   14.7926   -2.2754   -7.7766 C   0  0  0  0  0  0  0  0  0  0  0  0
   14.2691   -1.5868   -6.5858 N   0  0  0  0  0  0  0  0  0  0  0  0
   16.9420   -6.6790   -9.9179 C   0  0  0  0  0  0  0  0  0  0  0  0
   17.8159   -6.9882   -9.0929 O   0  0  0  0  0  0  0  0  0  0  0  0
   22.9240   -8.8574  -13.5053 C   0  0  0  0  0  0  0  0  0  0  0  0
   21.1591   -9.0342  -13.1269 S   0  0  0  0  0  0  0  0  0  0  0  0
   20.5009   -7.4258  -12.6196 C   0  0  0  0  0  0  0  0  0  0  0  0
   19.0634   -7.5244  -12.1619 C   0  0  0  0  0  0  0  0  0  0  0  0
   18.6547   -6.1419  -11.6923 C   0  0  2  0  0  0  0  0  0  0  0  0
   17.3256   -6.1109  -11.1622 N   0  0  0  0  0  0  0  0  0  0  0  0
   18.8869   -5.0988  -12.7214 C   0  0  0  0  0  0  0  0  0  0  0  0
   17.9634   -4.5895  -13.4025 O   0  0  0  0  0  0  0  0  0  0  0  0
   20.1803   -4.6541  -12.9543 O   0  0  0  0  0  0  0  0  0  0  0  0
  2  1  1  6
  2  7  1  0
  3  2  1  0
  3  4  1  0
  4  5  1  0
  5  9  1  0
  5  6  2  0
  7 10  1  0
  7  8  2  0
 10 11  1  0
 11 12  1  1
 11 17  1  0
 13 14  1  0
 13 12  1  0
 15 16  1  0
 15 14  1  0
 17 18  2  0
 20 19  1  0
 20 21  1  0
 21 22  1  0
 23 22  1  6
 23 25  1  0
 24 23  1  0
 24 17  1  0
 25 26  2  0
 25 27  1  0
M  END
$$$$
