EKM.pdb
     RDKit          3D

 27 26  0  0  1  0  0  0  0  0999 V2000
   25.9155  -15.9032  -16.3768 N   0  0  0  0  0  0  0  0  0  0  0  0
   24.7006  -15.6528  -17.1135 C   0  0  1  0  0  0  0  0  0  0  0  0
   25.0719  -15.3446  -18.5438 C   0  0  0  0  0  0  0  0  0  0  0  0
   26.1679  -16.2778  -19.0088 C   0  0  0  0  0  0  0  0  0  0  0  0
   26.5933  -15.9248  -20.3783 C   0  0  0  0  0  0  0  0  0  0  0  0
   27.4173  -16.6372  -20.9836 O   0  0  0  0  0  0  0  0  0  0  0  0
   23.8439  -16.8584  -17.0138 C   0  0  0  0  0  0  0  0  0  0  0  0
   22.6798  -16.8482  -17.4702 O   0  0  0  0  0  0  0  0  0  0  0  0
   26.0759  -14.8056  -20.9832 O   0  0  0  0  0  0  0  0  0  0  0  0
   24.3272  -18.0428  -16.4003 N   0  0  0  0  0  0  0  0  0  0  0  0
   23.5561  -19.2526  -16.2688 C   0  0  1  0  0  0  0  0  0  0  0  0
   24.5317  -20.3828  -15.9662 C   0  0  0  0  0  0  0  0  0  0  0  0
   23.8138  -21.7015  -15.8173 C   0  0  0  0  0  0  0  0  0  0  0  0
   24.7737  -22.7797  -15.4433 C   0  0  0  0  0  0  0  0  0  0  0  0
   24.1897  -24.1360  -15.2507 C   0  0  0  0  0  0  0  0  0  0  0  0
   25.2473  -25.0987  -14.9026 N   0  0  0  0  0  0  0  0  0  0  0  0
   22.5366  -19.1226  -15.1972 C   0  0  0  0  0  0  0  0  0  0  0  0
   22.8978  -18.7351  -14.0750 O   0  0  0  0  0  0  0  0  0  0  0  0
   17.6093  -15.5252  -12.0241 C   0  0  0  0  0  0  0  0  0  0  0  0
   17.3037  -16.4982  -13.5238 S   0  0  0  0  0  0  0  0  0  0  0  0
   18.3250  -17.9923  -13.4756 C   0  0  0  0  0  0  0  0  0  0  0  0
   19.3564  -18.0055  -14.5808 C   0  0  0  0  0  0  0  0  0  0  0  0
   20.1349  -19.2990  -14.4416 C   0  0  2  0  0  0  0  0  0  0  0  0
   21.1680  -19.4285  -15.4236 N   0  0  0  0  0  0  0  0  0  0  0  0
   19.2533  -20.4904  -14.3751 C   0  0  0  0  0  0  0  0  0  0  0  0
   19.1416  -21.3146  -15.3155 O   0  0  0  0  0  0  0  0  0  0  0  0
   18.5101  -20.7189  -13.2260 O   0  0  0  0  0  0  0  0  0  0  0  0
  2  1  1  1
  2  7  1  0
  3  2  1  0
  3  4  1  0
  4  5  1  0
  5  9  1  0
  5  6  2  0
  7 10  1  0
  7  8  2  0
 10 11  1  0
 11 12  1  1
 11 17  1  0
 13 14  1  0
 13 12  1  0
 15 16  1  0
 15 14  1  0
 17 18  2  0
 20 19  1  0
 20 21  1  0
 21 22  1  0
 23 22  1  6
 23 25  1  0
 24 23  1  0
 24 17  1  0
 25 26  2  0
 25 27  1  0
M  END
$$$$
