HLT.pdb
     RDKit          3D

 26 26  0  0  1  0  0  0  0  0999 V2000
   28.1817  -20.6788  -15.8197 N   0  0  0  0  0  0  0  0  0  0  0  0
   27.0912  -19.7644  -15.5294 C   0  0  1  0  0  0  0  0  0  0  0  0
   26.5678  -19.1323  -16.8020 C   0  0  0  0  0  0  0  0  0  0  0  0
   27.5607  -18.3014  -17.4926 C   0  0  0  0  0  0  0  0  0  0  0  0
   28.2559  -17.2201  -16.9956 C   0  0  0  0  0  0  0  0  0  0  0  0
   29.0783  -16.7347  -17.9619 N   0  0  0  0  0  0  0  0  0  0  0  0
   28.8929  -17.5007  -19.0296 C   0  0  0  0  0  0  0  0  0  0  0  0
   27.9673  -18.4596  -18.7500 N   0  0  0  0  0  0  0  0  0  0  0  0
   26.0457  -20.4678  -14.7662 C   0  0  0  0  0  0  0  0  0  0  0  0
   25.6266  -21.5935  -15.1293 O   0  0  0  0  0  0  0  0  0  0  0  0
   26.4008  -20.2564   -9.3793 C   0  0  0  0  0  0  0  0  0  0  0  0
   26.1331  -20.6556  -10.7773 C   0  0  1  0  0  0  0  0  0  0  0  0
   26.1898  -22.2032  -10.8307 C   0  0  0  0  0  0  0  0  0  0  0  0
   24.8340  -20.2730  -11.3435 C   0  0  0  0  0  0  0  0  0  0  0  0
   24.5213  -20.6122  -12.7498 C   0  0  2  0  0  0  0  0  0  0  0  0
   25.4856  -19.8841  -13.5960 N   0  0  0  0  0  0  0  0  0  0  0  0
   23.1484  -20.3612  -13.2044 C   0  0  0  0  0  0  0  0  0  0  0  0
   22.7147  -19.1576  -13.0982 O   0  0  0  0  0  0  0  0  0  0  0  0
   21.5118  -20.8902  -16.6361 C   0  0  0  0  0  0  0  0  0  0  0  0
   20.6480  -21.5046  -15.5687 C   0  0  1  0  0  0  0  0  0  0  0  0
   20.9479  -22.8797  -15.5135 O   0  0  0  0  0  0  0  0  0  0  0  0
   20.9471  -20.9236  -14.1992 C   0  0  2  0  0  0  0  0  0  0  0  0
   22.2697  -21.3350  -13.7510 N   0  0  0  0  0  0  0  0  0  0  0  0
   19.9292  -21.4268  -13.2559 C   0  0  0  0  0  0  0  0  0  0  0  0
   18.5892  -21.1132  -13.3344 O   0  0  0  0  0  0  0  0  0  0  0  0
   20.2805  -22.1905  -12.3132 O   0  0  0  0  0  0  0  0  0  0  0  0
  2  1  1  6
  3  2  1  0
  4  3  1  0
  5  4  2  0
  6  7  1  0
  6  5  1  0
  7  8  2  0
  8  4  1  0
  9 16  1  0
  9  2  1  0
 10  9  2  0
 12 11  1  1
 12 14  1  0
 12 13  1  0
 15 14  1  1
 15 17  1  0
 15 16  1  0
 17 18  2  0
 20 19  1  6
 20 22  1  0
 21 20  1  0
 22 24  1  0
 22 23  1  1
 23 17  1  0
 24 25  1  0
 26 24  2  0
M  END
$$$$
