HLT.pdb
     RDKit          3D

 26 26  0  0  1  0  0  0  0  0999 V2000
   26.2973  -18.3271  -17.5959 N   0  0  0  0  0  0  0  0  0  0  0  0
   25.1512  -17.9939  -16.7683 C   0  0  1  0  0  0  0  0  0  0  0  0
   23.9884  -17.5336  -17.6222 C   0  0  0  0  0  0  0  0  0  0  0  0
   24.2703  -16.3105  -18.3825 C   0  0  0  0  0  0  0  0  0  0  0  0
   24.2935  -15.0116  -17.9225 C   0  0  0  0  0  0  0  0  0  0  0  0
   24.5981  -14.1781  -18.9512 N   0  0  0  0  0  0  0  0  0  0  0  0
   24.7587  -14.9478  -20.0204 C   0  0  0  0  0  0  0  0  0  0  0  0
   24.5599  -16.2513  -19.6802 N   0  0  0  0  0  0  0  0  0  0  0  0
   24.8123  -19.1406  -15.9078 C   0  0  0  0  0  0  0  0  0  0  0  0
   24.5485  -20.2639  -16.4014 O   0  0  0  0  0  0  0  0  0  0  0  0
   25.5092  -22.1728  -11.3241 C   0  0  0  0  0  0  0  0  0  0  0  0
   24.9881  -20.7956  -11.1935 C   0  0  1  0  0  0  0  0  0  0  0  0
   25.7076  -20.1462   -9.9846 C   0  0  0  0  0  0  0  0  0  0  0  0
   25.1993  -19.8916  -12.3306 C   0  0  0  0  0  0  0  0  0  0  0  0
   24.4897  -20.1423  -13.6050 C   0  0  2  0  0  0  0  0  0  0  0  0
   24.7762  -18.9996  -14.4927 N   0  0  0  0  0  0  0  0  0  0  0  0
   23.0434  -20.3794  -13.5248 C   0  0  0  0  0  0  0  0  0  0  0  0
   22.3096  -19.3763  -13.2028 O   0  0  0  0  0  0  0  0  0  0  0  0
   19.0032  -22.9473  -14.7189 C   0  0  0  0  0  0  0  0  0  0  0  0
   20.4501  -22.5769  -14.8986 C   0  0  1  0  0  0  0  0  0  0  0  0
   20.5620  -21.8582  -16.1047 O   0  0  0  0  0  0  0  0  0  0  0  0
   20.9407  -21.6685  -13.7865 C   0  0  2  0  0  0  0  0  0  0  0  0
   22.3956  -21.6188  -13.7762 N   0  0  0  0  0  0  0  0  0  0  0  0
   20.4578  -22.2143  -12.5027 C   0  0  0  0  0  0  0  0  0  0  0  0
   19.2555  -21.8664  -11.9252 O   0  0  0  0  0  0  0  0  0  0  0  0
   21.1688  -23.0499  -11.8771 O   0  0  0  0  0  0  0  0  0  0  0  0
  2  1  1  6
  3  2  1  0
  4  3  1  0
  5  4  2  0
  6  7  1  0
  6  5  1  0
  7  8  2  0
  8  4  1  0
  9 16  1  0
  9  2  1  0
 10  9  2  0
 12 11  1  6
 12 14  1  0
 12 13  1  0
 15 14  1  1
 15 17  1  0
 15 16  1  0
 17 18  2  0
 20 19  1  1
 20 22  1  0
 21 20  1  0
 22 24  1  0
 22 23  1  1
 23 17  1  0
 24 25  1  0
 26 24  2  0
M  END
$$$$
