HLT.pdb
     RDKit          3D

 26 26  0  0  1  0  0  0  0  0999 V2000
   27.6988  -21.8743  -16.2995 N   0  0  0  0  0  0  0  0  0  0  0  0
   27.3201  -20.7656  -15.4412 C   0  0  1  0  0  0  0  0  0  0  0  0
   26.7479  -19.6259  -16.2578 C   0  0  0  0  0  0  0  0  0  0  0  0
   27.7382  -18.9701  -17.1195 C   0  0  0  0  0  0  0  0  0  0  0  0
   29.0766  -19.2697  -17.2547 C   0  0  0  0  0  0  0  0  0  0  0  0
   29.6358  -18.4220  -18.1572 N   0  0  0  0  0  0  0  0  0  0  0  0
   28.6624  -17.6188  -18.5679 C   0  0  0  0  0  0  0  0  0  0  0  0
   27.5008  -17.9480  -17.9382 N   0  0  0  0  0  0  0  0  0  0  0  0
   26.3976  -21.2419  -14.3960 C   0  0  0  0  0  0  0  0  0  0  0  0
   25.5233  -22.1057  -14.6496 O   0  0  0  0  0  0  0  0  0  0  0  0
   24.5913  -21.8472   -9.1160 C   0  0  0  0  0  0  0  0  0  0  0  0
   25.0432  -20.5246   -9.5976 C   0  0  1  0  0  0  0  0  0  0  0  0
   25.8402  -19.8648   -8.4441 C   0  0  0  0  0  0  0  0  0  0  0  0
   25.9272  -20.5073  -10.7692 C   0  0  0  0  0  0  0  0  0  0  0  0
   25.4197  -20.9854  -12.0747 C   0  0  2  0  0  0  0  0  0  0  0  0
   26.4777  -20.7312  -13.0706 N   0  0  0  0  0  0  0  0  0  0  0  0
   24.1400  -20.4317  -12.5333 C   0  0  0  0  0  0  0  0  0  0  0  0
   24.1128  -19.1742  -12.7910 O   0  0  0  0  0  0  0  0  0  0  0  0
   22.3146  -20.4817  -15.5856 C   0  0  0  0  0  0  0  0  0  0  0  0
   21.3325  -20.9329  -14.5392 C   0  0  1  0  0  0  0  0  0  0  0  0
   21.3334  -22.3413  -14.5293 O   0  0  0  0  0  0  0  0  0  0  0  0
   21.7382  -20.4731  -13.1512 C   0  0  2  0  0  0  0  0  0  0  0  0
   22.9400  -21.1703  -12.7165 N   0  0  0  0  0  0  0  0  0  0  0  0
   20.6299  -20.7785  -12.2253 C   0  0  0  0  0  0  0  0  0  0  0  0
   19.3824  -20.1975  -12.3042 O   0  0  0  0  0  0  0  0  0  0  0  0
   20.8092  -21.6171  -11.2980 O   0  0  0  0  0  0  0  0  0  0  0  0
  2  1  1  6
  3  2  1  0
  4  3  1  0
  5  4  2  0
  6  7  1  0
  6  5  1  0
  7  8  2  0
  8  4  1  0
  9 16  1  0
  9  2  1  0
 10  9  2  0
 12 11  1  1
 12 14  1  0
 12 13  1  0
 15 14  1  1
 15 17  1  0
 15 16  1  0
 17 18  2  0
 20 19  1  6
 20 22  1  0
 21 20  1  0
 22 24  1  0
 22 23  1  1
 23 17  1  0
 24 25  1  0
 26 24  2  0
M  END
$$$$
