HLT.pdb
     RDKit          3D

 26 26  0  0  1  0  0  0  0  0999 V2000
   27.6255  -20.0325  -16.0701 N   0  0  0  0  0  0  0  0  0  0  0  0
   26.6725  -19.1763  -15.3859 C   0  0  1  0  0  0  0  0  0  0  0  0
   26.0814  -18.1607  -16.3410 C   0  0  0  0  0  0  0  0  0  0  0  0
   27.0647  -17.1996  -16.8536 C   0  0  0  0  0  0  0  0  0  0  0  0
   27.5139  -16.0432  -16.2532 C   0  0  0  0  0  0  0  0  0  0  0  0
   28.4248  -15.4434  -17.0633 N   0  0  0  0  0  0  0  0  0  0  0  0
   28.5332  -16.2141  -18.1382 C   0  0  0  0  0  0  0  0  0  0  0  0
   27.7053  -17.2884  -18.0168 N   0  0  0  0  0  0  0  0  0  0  0  0
   25.6496  -20.0046  -14.7242 C   0  0  0  0  0  0  0  0  0  0  0  0
   25.1533  -21.0027  -15.3008 O   0  0  0  0  0  0  0  0  0  0  0  0
   26.1071  -20.4460   -9.2675 C   0  0  0  0  0  0  0  0  0  0  0  0
   25.8788  -20.6979  -10.7062 C   0  0  1  0  0  0  0  0  0  0  0  0
   26.0955  -22.2134  -10.9460 C   0  0  0  0  0  0  0  0  0  0  0  0
   24.5456  -20.3855  -11.2350 C   0  0  0  0  0  0  0  0  0  0  0  0
   24.2702  -20.5692  -12.6775 C   0  0  2  0  0  0  0  0  0  0  0  0
   25.1997  -19.6902  -13.4117 N   0  0  0  0  0  0  0  0  0  0  0  0
   22.8903  -20.3441  -13.1245 C   0  0  0  0  0  0  0  0  0  0  0  0
   22.4109  -19.1658  -12.9510 O   0  0  0  0  0  0  0  0  0  0  0  0
   21.2074  -20.6459  -16.5530 C   0  0  0  0  0  0  0  0  0  0  0  0
   20.4068  -21.4107  -15.5346 C   0  0  1  0  0  0  0  0  0  0  0  0
   20.7923  -22.7631  -15.6141 O   0  0  0  0  0  0  0  0  0  0  0  0
   20.6993  -20.9419  -14.1214 C   0  0  2  0  0  0  0  0  0  0  0  0
   22.0510  -21.3166  -13.7317 N   0  0  0  0  0  0  0  0  0  0  0  0
   19.7290  -21.5868  -13.2149 C   0  0  0  0  0  0  0  0  0  0  0  0
   18.3713  -21.3516  -13.2519 O   0  0  0  0  0  0  0  0  0  0  0  0
   20.1411  -22.4054  -12.3458 O   0  0  0  0  0  0  0  0  0  0  0  0
  2  1  1  6
  3  2  1  0
  4  3  1  0
  5  4  2  0
  6  7  1  0
  6  5  1  0
  7  8  2  0
  8  4  1  0
  9 16  1  0
  9  2  1  0
 10  9  2  0
 12 11  1  1
 12 14  1  0
 12 13  1  0
 15 14  1  1
 15 17  1  0
 15 16  1  0
 17 18  2  0
 20 19  1  6
 20 22  1  0
 21 20  1  0
 22 24  1  0
 22 23  1  1
 23 17  1  0
 24 25  1  0
 26 24  2  0
M  END
$$$$
