HLT.pdb
     RDKit          3D

 26 26  0  0  1  0  0  0  0  0999 V2000
   20.3543  -12.5618  -17.5104 N   0  0  0  0  0  0  0  0  0  0  0  0
   20.9629  -11.3586  -18.0501 C   0  0  1  0  0  0  0  0  0  0  0  0
   19.9816  -10.6069  -18.9248 C   0  0  0  0  0  0  0  0  0  0  0  0
   19.5701  -11.3556  -20.1179 C   0  0  0  0  0  0  0  0  0  0  0  0
   18.9634  -12.5917  -20.1767 C   0  0  0  0  0  0  0  0  0  0  0  0
   18.7502  -12.9238  -21.4767 N   0  0  0  0  0  0  0  0  0  0  0  0
   19.2155  -11.9140  -22.2013 C   0  0  0  0  0  0  0  0  0  0  0  0
   19.7177  -10.9527  -21.3777 N   0  0  0  0  0  0  0  0  0  0  0  0
   21.4960  -10.5374  -16.9494 C   0  0  0  0  0  0  0  0  0  0  0  0
   20.9233  -10.5014  -15.8333 O   0  0  0  0  0  0  0  0  0  0  0  0
   26.6646  -10.8630  -15.6055 C   0  0  0  0  0  0  0  0  0  0  0  0
   25.2081  -10.6157  -15.5529 C   0  0  1  0  0  0  0  0  0  0  0  0
   24.7798  -10.7151  -14.0670 C   0  0  0  0  0  0  0  0  0  0  0  0
   24.7351   -9.3105  -16.0296 C   0  0  0  0  0  0  0  0  0  0  0  0
   23.2862   -9.0090  -16.0168 C   0  0  2  0  0  0  0  0  0  0  0  0
   22.6765   -9.7638  -17.1278 N   0  0  0  0  0  0  0  0  0  0  0  0
   22.9012   -7.5942  -16.0859 C   0  0  0  0  0  0  0  0  0  0  0  0
   23.3464   -6.9216  -17.0847 O   0  0  0  0  0  0  0  0  0  0  0  0
   19.7627   -5.9003  -16.7567 C   0  0  0  0  0  0  0  0  0  0  0  0
   20.2959   -5.2848  -15.4919 C   0  0  1  0  0  0  0  0  0  0  0  0
   19.6718   -5.9286  -14.4057 O   0  0  0  0  0  0  0  0  0  0  0  0
   21.7903   -5.5036  -15.3462 C   0  0  2  0  0  0  0  0  0  0  0  0
   22.0795   -6.9163  -15.1456 N   0  0  0  0  0  0  0  0  0  0  0  0
   22.2537   -4.7352  -14.1741 C   0  0  0  0  0  0  0  0  0  0  0  0
   22.6325   -5.3111  -12.9804 O   0  0  0  0  0  0  0  0  0  0  0  0
   22.3156   -3.4755  -14.2429 O   0  0  0  0  0  0  0  0  0  0  0  0
  2  1  1  1
  3  2  1  0
  4  3  1  0
  5  4  2  0
  6  7  1  0
  6  5  1  0
  7  8  2  0
  8  4  1  0
  9 16  1  0
  9  2  1  0
 10  9  2  0
 12 11  1  1
 12 14  1  0
 12 13  1  0
 15 14  1  6
 15 17  1  0
 15 16  1  0
 17 18  2  0
 20 19  1  6
 20 22  1  0
 21 20  1  0
 22 24  1  0
 22 23  1  1
 23 17  1  0
 24 25  1  0
 26 24  2  0
M  END
$$$$
