HLT.pdb
     RDKit          3D

 26 26  0  0  1  0  0  0  0  0999 V2000
   15.7417  -10.5952  -13.1245 N   0  0  0  0  0  0  0  0  0  0  0  0
   16.5557   -9.5309  -12.5641 C   0  0  1  0  0  0  0  0  0  0  0  0
   17.3575   -8.8412  -13.6478 C   0  0  0  0  0  0  0  0  0  0  0  0
   18.2512   -9.7467  -14.3790 C   0  0  0  0  0  0  0  0  0  0  0  0
   19.4899  -10.2115  -13.9928 C   0  0  0  0  0  0  0  0  0  0  0  0
   19.9818  -11.0299  -14.9592 N   0  0  0  0  0  0  0  0  0  0  0  0
   19.0656  -11.0676  -15.9185 C   0  0  0  0  0  0  0  0  0  0  0  0
   18.0060  -10.2861  -15.5707 N   0  0  0  0  0  0  0  0  0  0  0  0
   15.7009   -8.6024  -11.8041 C   0  0  0  0  0  0  0  0  0  0  0  0
   14.6418   -8.1462  -12.2989 O   0  0  0  0  0  0  0  0  0  0  0  0
   13.3879   -9.9111   -7.3923 C   0  0  0  0  0  0  0  0  0  0  0  0
   13.7632   -9.1769   -8.6192 C   0  0  1  0  0  0  0  0  0  0  0  0
   12.4847   -8.4748   -9.1422 C   0  0  0  0  0  0  0  0  0  0  0  0
   14.7810   -8.1278   -8.4842 C   0  0  0  0  0  0  0  0  0  0  0  0
   15.1807   -7.3402   -9.6718 C   0  0  2  0  0  0  0  0  0  0  0  0
   16.0587   -8.2006  -10.4871 N   0  0  0  0  0  0  0  0  0  0  0  0
   15.8207   -6.0427   -9.4240 C   0  0  0  0  0  0  0  0  0  0  0  0
   16.8992   -6.0531   -8.7278 O   0  0  0  0  0  0  0  0  0  0  0  0
   17.2842   -3.3885  -11.8407 C   0  0  0  0  0  0  0  0  0  0  0  0
   16.2908   -2.7705  -10.8951 C   0  0  1  0  0  0  0  0  0  0  0  0
   15.0385   -2.7543  -11.5395 O   0  0  0  0  0  0  0  0  0  0  0  0
   16.1343   -3.5908   -9.6282 C   0  0  2  0  0  0  0  0  0  0  0  0
   15.3477   -4.7871   -9.8919 N   0  0  0  0  0  0  0  0  0  0  0  0
   15.4417   -2.7575   -8.6256 C   0  0  0  0  0  0  0  0  0  0  0  0
   14.1704   -3.0160   -8.1599 O   0  0  0  0  0  0  0  0  0  0  0  0
   16.0260   -1.7431   -8.1515 O   0  0  0  0  0  0  0  0  0  0  0  0
  2  1  1  6
  3  2  1  0
  4  3  1  0
  5  4  2  0
  6  7  1  0
  6  5  1  0
  7  8  2  0
  8  4  1  0
  9 16  1  0
  9  2  1  0
 10  9  2  0
 12 11  1  1
 12 14  1  0
 12 13  1  0
 15 14  1  1
 15 17  1  0
 15 16  1  0
 17 18  2  0
 20 19  1  6
 20 22  1  0
 21 20  1  0
 22 24  1  0
 22 23  1  6
 23 17  1  0
 24 25  1  0
 26 24  2  0
M  END
$$$$
