HLT.pdb
     RDKit          3D

 26 26  0  0  1  0  0  0  0  0999 V2000
   20.4233   -9.4096  -16.8911 N   0  0  0  0  0  0  0  0  0  0  0  0
   20.7801   -8.1932  -16.1821 C   0  0  1  0  0  0  0  0  0  0  0  0
   20.2016   -6.9782  -16.8764 C   0  0  0  0  0  0  0  0  0  0  0  0
   20.7518   -6.7552  -18.2184 C   0  0  0  0  0  0  0  0  0  0  0  0
   22.0388   -6.9818  -18.6565 C   0  0  0  0  0  0  0  0  0  0  0  0
   22.1303   -6.6442  -19.9693 N   0  0  0  0  0  0  0  0  0  0  0  0
   20.9260   -6.2195  -20.3305 C   0  0  0  0  0  0  0  0  0  0  0  0
   20.0792   -6.2846  -19.2660 N   0  0  0  0  0  0  0  0  0  0  0  0
   20.3632   -8.3015  -14.7733 C   0  0  0  0  0  0  0  0  0  0  0  0
   19.2268   -8.7366  -14.4667 O   0  0  0  0  0  0  0  0  0  0  0  0
   21.1969   -9.3762   -9.4492 C   0  0  0  0  0  0  0  0  0  0  0  0
   22.0702   -8.3660  -10.0835 C   0  0  1  0  0  0  0  0  0  0  0  0
   23.5201   -8.6594   -9.6223 C   0  0  0  0  0  0  0  0  0  0  0  0
   22.1039   -8.3399  -11.5508 C   0  0  0  0  0  0  0  0  0  0  0  0
   20.8653   -8.0442  -12.3050 C   0  0  2  0  0  0  0  0  0  0  0  0
   21.2431   -7.9135  -13.7249 N   0  0  0  0  0  0  0  0  0  0  0  0
   20.0862   -6.8779  -11.8723 C   0  0  0  0  0  0  0  0  0  0  0  0
   20.5801   -5.7224  -12.1349 O   0  0  0  0  0  0  0  0  0  0  0  0
   15.9124   -6.7183  -11.1704 C   0  0  0  0  0  0  0  0  0  0  0  0
   16.8268   -5.5919  -11.5680 C   0  0  1  0  0  0  0  0  0  0  0  0
   16.2197   -4.3855  -11.1681 O   0  0  0  0  0  0  0  0  0  0  0  0
   18.1661   -5.6778  -10.8600 C   0  0  2  0  0  0  0  0  0  0  0  0
   18.8382   -6.9251  -11.1946 N   0  0  0  0  0  0  0  0  0  0  0  0
   17.9194   -5.6265   -9.4054 C   0  0  0  0  0  0  0  0  0  0  0  0
   17.3454   -4.5508   -8.7624 O   0  0  0  0  0  0  0  0  0  0  0  0
   18.2442   -6.6124   -8.6859 O   0  0  0  0  0  0  0  0  0  0  0  0
  2  1  1  6
  3  2  1  0
  4  3  1  0
  5  4  2  0
  6  7  1  0
  6  5  1  0
  7  8  2  0
  8  4  1  0
  9 16  1  0
  9  2  1  0
 10  9  2  0
 12 11  1  6
 12 14  1  0
 12 13  1  0
 15 14  1  1
 15 17  1  0
 15 16  1  0
 17 18  2  0
 20 19  1  1
 20 22  1  0
 21 20  1  0
 22 24  1  0
 22 23  1  1
 23 17  1  0
 24 25  1  0
 26 24  2  0
M  END
$$$$
