HLT.pdb
     RDKit          3D

 26 26  0  0  1  0  0  0  0  0999 V2000
   17.6430  -11.4738  -17.7754 N   0  0  0  0  0  0  0  0  0  0  0  0
   18.8443  -11.0676  -17.0674 C   0  0  1  0  0  0  0  0  0  0  0  0
   19.9859  -10.8380  -18.0354 C   0  0  0  0  0  0  0  0  0  0  0  0
   20.4171  -12.0568  -18.7297 C   0  0  0  0  0  0  0  0  0  0  0  0
   20.1025  -13.3635  -18.4249 C   0  0  0  0  0  0  0  0  0  0  0  0
   20.7067  -14.1892  -19.3187 N   0  0  0  0  0  0  0  0  0  0  0  0
   21.3780  -13.4072  -20.1548 C   0  0  0  0  0  0  0  0  0  0  0  0
   21.2055  -12.1036  -19.8009 N   0  0  0  0  0  0  0  0  0  0  0  0
   18.5526   -9.8881  -16.2344 C   0  0  0  0  0  0  0  0  0  0  0  0
   17.7768   -8.9877  -16.6372 O   0  0  0  0  0  0  0  0  0  0  0  0
   16.9131   -7.0465  -12.0838 C   0  0  0  0  0  0  0  0  0  0  0  0
   17.9576   -8.0539  -11.8022 C   0  0  1  0  0  0  0  0  0  0  0  0
   17.4753   -8.8868  -10.5879 C   0  0  0  0  0  0  0  0  0  0  0  0
   18.2591   -9.0181  -12.8671 C   0  0  0  0  0  0  0  0  0  0  0  0
   18.9070   -8.5516  -14.1133 C   0  0  2  0  0  0  0  0  0  0  0  0
   19.1462   -9.7429  -14.9497 N   0  0  0  0  0  0  0  0  0  0  0  0
   20.1412   -7.7704  -13.9685 C   0  0  0  0  0  0  0  0  0  0  0  0
   21.1163   -8.3375  -13.3554 O   0  0  0  0  0  0  0  0  0  0  0  0
   22.6048   -6.6107  -16.5093 C   0  0  0  0  0  0  0  0  0  0  0  0
   22.1829   -5.4243  -15.6863 C   0  0  1  0  0  0  0  0  0  0  0  0
   21.1246   -4.7875  -16.3632 O   0  0  0  0  0  0  0  0  0  0  0  0
   21.6594   -5.8417  -14.3246 C   0  0  2  0  0  0  0  0  0  0  0  0
   20.3425   -6.4493  -14.4513 N   0  0  0  0  0  0  0  0  0  0  0  0
   21.5651   -4.6344  -13.4804 C   0  0  0  0  0  0  0  0  0  0  0  0
   22.6587   -3.9259  -13.0304 O   0  0  0  0  0  0  0  0  0  0  0  0
   20.4283   -4.2051  -13.1362 O   0  0  0  0  0  0  0  0  0  0  0  0
  2  1  1  6
  3  2  1  0
  4  3  1  0
  5  4  2  0
  6  7  1  0
  6  5  1  0
  7  8  2  0
  8  4  1  0
  9 16  1  0
  9  2  1  0
 10  9  2  0
 12 11  1  6
 12 14  1  0
 12 13  1  0
 15 14  1  1
 15 17  1  0
 15 16  1  0
 17 18  2  0
 20 19  1  6
 20 22  1  0
 21 20  1  0
 22 24  1  0
 22 23  1  6
 23 17  1  0
 24 25  1  0
 26 24  2  0
M  END
$$$$
