HLT.pdb
     RDKit          3D

 26 26  0  0  1  0  0  0  0  0999 V2000
   17.7130  -11.3728  -17.8182 N   0  0  0  0  0  0  0  0  0  0  0  0
   18.9018  -10.5591  -18.0031 C   0  0  1  0  0  0  0  0  0  0  0  0
   18.7729   -9.6937  -19.2391 C   0  0  0  0  0  0  0  0  0  0  0  0
   18.6705  -10.4644  -20.4836 C   0  0  0  0  0  0  0  0  0  0  0  0
   19.6903  -11.0323  -21.2165 C   0  0  0  0  0  0  0  0  0  0  0  0
   19.1657  -11.6595  -22.3014 N   0  0  0  0  0  0  0  0  0  0  0  0
   17.8522  -11.4813  -22.2370 C   0  0  0  0  0  0  0  0  0  0  0  0
   17.5429  -10.7521  -21.1293 N   0  0  0  0  0  0  0  0  0  0  0  0
   19.1622   -9.7787  -16.7811 C   0  0  0  0  0  0  0  0  0  0  0  0
   18.2187   -9.2993  -16.1066 O   0  0  0  0  0  0  0  0  0  0  0  0
   21.1874   -8.9823  -11.8929 C   0  0  0  0  0  0  0  0  0  0  0  0
   22.1584   -9.2528  -12.9743 C   0  0  1  0  0  0  0  0  0  0  0  0
   23.1170  -10.3578  -12.4634 C   0  0  0  0  0  0  0  0  0  0  0  0
   21.6183   -9.7363  -14.2506 C   0  0  0  0  0  0  0  0  0  0  0  0
   20.7816   -8.8379  -15.0773 C   0  0  2  0  0  0  0  0  0  0  0  0
   20.4941   -9.5503  -16.3366 N   0  0  0  0  0  0  0  0  0  0  0  0
   21.3176   -7.5001  -15.3557 C   0  0  0  0  0  0  0  0  0  0  0  0
   22.3250   -7.4340  -16.1488 O   0  0  0  0  0  0  0  0  0  0  0  0
   19.6073   -4.4117  -16.8624 C   0  0  0  0  0  0  0  0  0  0  0  0
   20.3366   -4.0189  -15.6068 C   0  0  1  0  0  0  0  0  0  0  0  0
   19.4019   -4.0094  -14.5532 O   0  0  0  0  0  0  0  0  0  0  0  0
   21.4136   -5.0242  -15.2437 C   0  0  2  0  0  0  0  0  0  0  0  0
   20.8130   -6.2826  -14.8248 N   0  0  0  0  0  0  0  0  0  0  0  0
   22.2074   -4.4638  -14.1324 C   0  0  0  0  0  0  0  0  0  0  0  0
   22.9939   -3.3372  -14.2436 O   0  0  0  0  0  0  0  0  0  0  0  0
   22.1821   -5.0308  -13.0041 O   0  0  0  0  0  0  0  0  0  0  0  0
  2  1  1  1
  3  2  1  0
  4  3  1  0
  5  4  2  0
  6  7  1  0
  6  5  1  0
  7  8  2  0
  8  4  1  0
  9 16  1  0
  9  2  1  0
 10  9  2  0
 12 11  1  1
 12 14  1  0
 12 13  1  0
 15 14  1  6
 15 17  1  0
 15 16  1  0
 17 18  2  0
 20 19  1  6
 20 22  1  0
 21 20  1  0
 22 24  1  0
 22 23  1  1
 23 17  1  0
 24 25  1  0
 26 24  2  0
M  END
$$$$
