TDP.pdb
     RDKit          3D

 23 23  0  0  1  0  0  0  0  0999 V2000
   18.9136  -10.2491  -19.2107 C   0  0  0  0  0  0  0  0  0  0  0  0
   18.6689  -11.3813  -18.2221 C   0  0  1  0  0  0  0  0  0  0  0  0
   18.8654  -12.6251  -18.7694 O   0  0  0  0  0  0  0  0  0  0  0  0
   19.5935  -11.2386  -17.0142 C   0  0  2  0  0  0  0  0  0  0  0  0
   19.2307  -12.3124  -16.0552 N   0  0  0  0  0  0  0  0  0  0  0  0
   19.4191   -9.9836  -16.2810 C   0  0  0  0  0  0  0  0  0  0  0  0
   18.3672   -9.7415  -15.6438 O   0  0  0  0  0  0  0  0  0  0  0  0
   20.4356   -8.9797  -16.2504 N   0  0  0  0  0  0  0  0  0  0  0  0
   20.1757   -7.7114  -15.5589 C   0  0  1  0  0  0  0  0  0  0  0  0
   21.4550   -7.3574  -14.8268 C   0  0  0  0  0  0  0  0  0  0  0  0
   21.4740   -6.1158  -14.0846 C   0  0  0  0  0  0  0  0  0  0  0  0
   22.1389   -5.0890  -14.3396 O   0  0  0  0  0  0  0  0  0  0  0  0
   19.6885   -6.6885  -16.4464 C   0  0  0  0  0  0  0  0  0  0  0  0
   20.2966   -6.6483  -17.6005 O   0  0  0  0  0  0  0  0  0  0  0  0
   20.6637   -5.9888  -12.9211 O   0  0  0  0  0  0  0  0  0  0  0  0
   18.6770   -5.7153  -16.3191 N   0  0  0  0  0  0  0  0  0  0  0  0
   17.7558   -5.3663  -15.2855 C   0  0  0  0  0  0  0  0  0  0  0  0
   16.6952   -4.4701  -15.9443 C   0  0  0  0  0  0  0  0  0  0  0  0
   16.9116   -4.7361  -17.4464 C   0  0  0  0  0  0  0  0  0  0  0  0
   18.4287   -4.7559  -17.4273 C   0  0  1  0  0  0  0  0  0  0  0  0
   18.9835   -3.4275  -17.0702 C   0  0  0  0  0  0  0  0  0  0  0  0
   19.6646   -3.1453  -15.9084 O   0  0  0  0  0  0  0  0  0  0  0  0
   18.8191   -2.4906  -17.8901 O   0  0  0  0  0  0  0  0  0  0  0  0
  2  4  1  0
  2  1  1  6
  3  2  1  0
  4  6  1  0
  4  5  1  1
  6  8  1  0
  6  7  2  0
  8  9  1  0
  9 10  1  6
  9 13  1  0
 11 10  1  0
 12 11  2  0
 13 16  1  0
 14 13  2  0
 15 11  1  0
 16 17  1  0
 16 20  1  0
 17 18  1  0
 18 19  1  0
 20 19  1  0
 20 21  1  1
 21 22  1  0
 23 21  2  0
M  END
$$$$
