TDP.pdb
     RDKit          3D

 23 23  0  0  1  0  0  0  0  0999 V2000
   18.3598  -10.6980  -13.6998 C   0  0  0  0  0  0  0  0  0  0  0  0
   18.2481  -11.4499  -15.0193 C   0  0  1  0  0  0  0  0  0  0  0  0
   17.6732  -12.6895  -14.8850 O   0  0  0  0  0  0  0  0  0  0  0  0
   17.4201  -10.6444  -16.0193 C   0  0  2  0  0  0  0  0  0  0  0  0
   17.3994  -11.4117  -17.2901 N   0  0  0  0  0  0  0  0  0  0  0  0
   18.0015   -9.3440  -16.3566 C   0  0  0  0  0  0  0  0  0  0  0  0
   19.0327   -9.2544  -17.0635 O   0  0  0  0  0  0  0  0  0  0  0  0
   17.4229   -8.1181  -15.9042 N   0  0  0  0  0  0  0  0  0  0  0  0
   18.1685   -6.8648  -16.0695 C   0  0  1  0  0  0  0  0  0  0  0  0
   17.1532   -5.7467  -15.9398 C   0  0  0  0  0  0  0  0  0  0  0  0
   17.6559   -4.3902  -15.9318 C   0  0  0  0  0  0  0  0  0  0  0  0
   17.4279   -3.5011  -15.0839 O   0  0  0  0  0  0  0  0  0  0  0  0
   19.2888   -6.7663  -15.1714 C   0  0  0  0  0  0  0  0  0  0  0  0
   19.0599   -7.2410  -13.9774 O   0  0  0  0  0  0  0  0  0  0  0  0
   18.5126   -3.9600  -16.9841 O   0  0  0  0  0  0  0  0  0  0  0  0
   20.5945   -6.2582  -15.3244 N   0  0  0  0  0  0  0  0  0  0  0  0
   21.2746   -5.5587  -16.3669 C   0  0  0  0  0  0  0  0  0  0  0  0
   22.7718   -5.6418  -16.0301 C   0  0  0  0  0  0  0  0  0  0  0  0
   22.8228   -6.7756  -14.9880 C   0  0  0  0  0  0  0  0  0  0  0  0
   21.5754   -6.3903  -14.2150 C   0  0  1  0  0  0  0  0  0  0  0  0
   21.7405   -5.0813  -13.5373 C   0  0  0  0  0  0  0  0  0  0  0  0
   22.5915   -4.8426  -12.4827 O   0  0  0  0  0  0  0  0  0  0  0  0
   21.0520   -4.1191  -13.9583 O   0  0  0  0  0  0  0  0  0  0  0  0
  2  4  1  0
  2  1  1  1
  3  2  1  0
  4  6  1  0
  4  5  1  6
  6  8  1  0
  6  7  2  0
  8  9  1  0
  9 10  1  1
  9 13  1  0
 11 10  1  0
 12 11  2  0
 13 16  1  0
 14 13  2  0
 15 11  1  0
 16 17  1  0
 16 20  1  0
 17 18  1  0
 18 19  1  0
 20 19  1  0
 20 21  1  6
 21 22  1  0
 23 21  2  0
M  END
$$$$
