TDP.pdb
     RDKit          3D

 23 23  0  0  1  0  0  0  0  0999 V2000
   19.7129   -9.5877  -19.7273 C   0  0  0  0  0  0  0  0  0  0  0  0
   21.1821   -9.8463  -19.4214 C   0  0  1  0  0  0  0  0  0  0  0  0
   22.0086   -8.8446  -19.8671 O   0  0  0  0  0  0  0  0  0  0  0  0
   21.3898  -10.0035  -17.9159 C   0  0  2  0  0  0  0  0  0  0  0  0
   20.5183  -11.1186  -17.4672 N   0  0  0  0  0  0  0  0  0  0  0  0
   20.9679   -8.8388  -17.1360 C   0  0  0  0  0  0  0  0  0  0  0  0
   19.7571   -8.6140  -16.9028 O   0  0  0  0  0  0  0  0  0  0  0  0
   21.9102   -7.9078  -16.5997 N   0  0  0  0  0  0  0  0  0  0  0  0
   21.4265   -6.6667  -15.9832 C   0  0  1  0  0  0  0  0  0  0  0  0
   21.9681   -6.6572  -14.5674 C   0  0  0  0  0  0  0  0  0  0  0  0
   21.5649   -5.5646  -13.7091 C   0  0  0  0  0  0  0  0  0  0  0  0
   20.4898   -5.4479  -13.0831 O   0  0  0  0  0  0  0  0  0  0  0  0
   21.7544   -5.5003  -16.7598 C   0  0  0  0  0  0  0  0  0  0  0  0
   22.9412   -5.5353  -17.3017 O   0  0  0  0  0  0  0  0  0  0  0  0
   22.4518   -4.4679  -13.5167 O   0  0  0  0  0  0  0  0  0  0  0  0
   21.0445   -4.3195  -17.0569 N   0  0  0  0  0  0  0  0  0  0  0  0
   19.7713   -3.8000  -16.6724 C   0  0  0  0  0  0  0  0  0  0  0  0
   19.4663   -2.6528  -17.6485 C   0  0  0  0  0  0  0  0  0  0  0  0
   20.4662   -2.9061  -18.7931 C   0  0  0  0  0  0  0  0  0  0  0  0
   21.6575   -3.2877  -17.9344 C   0  0  1  0  0  0  0  0  0  0  0  0
   22.1203   -2.1442  -17.1108 C   0  0  0  0  0  0  0  0  0  0  0  0
   22.8095   -1.0550  -17.5925 O   0  0  0  0  0  0  0  0  0  0  0  0
   21.8634   -2.1728  -15.8819 O   0  0  0  0  0  0  0  0  0  0  0  0
  2  4  1  0
  2  1  1  1
  3  2  1  0
  4  6  1  0
  4  5  1  1
  6  8  1  0
  6  7  2  0
  8  9  1  0
  9 10  1  1
  9 13  1  0
 11 10  1  0
 12 11  2  0
 13 16  1  0
 14 13  2  0
 15 11  1  0
 16 17  1  0
 16 20  1  0
 17 18  1  0
 18 19  1  0
 20 19  1  0
 20 21  1  1
 21 22  1  0
 23 21  2  0
M  END
$$$$
