TDP.pdb
     RDKit          3D

 23 23  0  0  1  0  0  0  0  0999 V2000
   13.8256  -11.3885  -16.4772 C   0  0  0  0  0  0  0  0  0  0  0  0
   15.1851  -10.7927  -16.1370 C   0  0  1  0  0  0  0  0  0  0  0  0
   15.2621  -10.3311  -14.8461 O   0  0  0  0  0  0  0  0  0  0  0  0
   16.2850  -11.8336  -16.3393 C   0  0  2  0  0  0  0  0  0  0  0  0
   16.1131  -12.8638  -15.2842 N   0  0  0  0  0  0  0  0  0  0  0  0
   17.6385  -11.3070  -16.1554 C   0  0  0  0  0  0  0  0  0  0  0  0
   18.2113  -11.3556  -15.0415 O   0  0  0  0  0  0  0  0  0  0  0  0
   18.3727  -10.7194  -17.2314 N   0  0  0  0  0  0  0  0  0  0  0  0
   19.7526  -10.2740  -17.0042 C   0  0  1  0  0  0  0  0  0  0  0  0
   20.4298  -10.2820  -18.3604 C   0  0  0  0  0  0  0  0  0  0  0  0
   21.7745   -9.7537  -18.4348 C   0  0  0  0  0  0  0  0  0  0  0  0
   22.1357   -8.6637  -18.9278 O   0  0  0  0  0  0  0  0  0  0  0  0
   19.8192   -9.0169  -16.3067 C   0  0  0  0  0  0  0  0  0  0  0  0
   18.8015   -8.2298  -16.5256 O   0  0  0  0  0  0  0  0  0  0  0  0
   22.8518  -10.5169  -17.9026 O   0  0  0  0  0  0  0  0  0  0  0  0
   20.7693   -8.4619  -15.4259 N   0  0  0  0  0  0  0  0  0  0  0  0
   22.0512   -8.8774  -14.9540 C   0  0  0  0  0  0  0  0  0  0  0  0
   22.3653   -7.9923  -13.7375 C   0  0  0  0  0  0  0  0  0  0  0  0
   20.9872   -7.4014  -13.3828 C   0  0  0  0  0  0  0  0  0  0  0  0
   20.5142   -7.1376  -14.8002 C   0  0  1  0  0  0  0  0  0  0  0  0
   21.3448   -6.1041  -15.4650 C   0  0  0  0  0  0  0  0  0  0  0  0
   22.1984   -6.3380  -16.5187 O   0  0  0  0  0  0  0  0  0  0  0  0
   21.2622   -4.9276  -15.0336 O   0  0  0  0  0  0  0  0  0  0  0  0
  2  4  1  0
  2  1  1  1
  3  2  1  0
  4  6  1  0
  4  5  1  1
  6  8  1  0
  6  7  2  0
  8  9  1  0
  9 10  1  6
  9 13  1  0
 11 10  1  0
 12 11  2  0
 13 16  1  0
 14 13  2  0
 15 11  1  0
 16 17  1  0
 16 20  1  0
 17 18  1  0
 18 19  1  0
 20 19  1  0
 20 21  1  6
 21 22  1  0
 23 21  2  0
M  END
$$$$
