TDP.pdb
     RDKit          3D

 23 23  0  0  1  0  0  0  0  0999 V2000
   28.4602  -22.2237  -16.7626 C   0  0  0  0  0  0  0  0  0  0  0  0
   28.5977  -23.7299  -16.9403 C   0  0  1  0  0  0  0  0  0  0  0  0
   29.8807  -24.1792  -16.7470 O   0  0  0  0  0  0  0  0  0  0  0  0
   27.6813  -24.4642  -15.9630 C   0  0  2  0  0  0  0  0  0  0  0  0
   27.6645  -25.8928  -16.3668 N   0  0  0  0  0  0  0  0  0  0  0  0
   26.2857  -24.0256  -16.0176 C   0  0  0  0  0  0  0  0  0  0  0  0
   25.5487  -24.3154  -16.9891 O   0  0  0  0  0  0  0  0  0  0  0  0
   25.6953  -23.2540  -14.9696 N   0  0  0  0  0  0  0  0  0  0  0  0
   24.3271  -22.7476  -15.1302 C   0  0  1  0  0  0  0  0  0  0  0  0
   23.8044  -22.4867  -13.7315 C   0  0  0  0  0  0  0  0  0  0  0  0
   22.4836  -21.9082  -13.6129 C   0  0  0  0  0  0  0  0  0  0  0  0
   22.1647  -20.8616  -13.0094 O   0  0  0  0  0  0  0  0  0  0  0  0
   24.2576  -21.6172  -16.0183 C   0  0  0  0  0  0  0  0  0  0  0  0
   25.2088  -20.7409  -15.8435 O   0  0  0  0  0  0  0  0  0  0  0  0
   21.3807  -22.5604  -14.2330 O   0  0  0  0  0  0  0  0  0  0  0  0
   23.3626  -21.2649  -17.0485 N   0  0  0  0  0  0  0  0  0  0  0  0
   22.1696  -21.8481  -17.5733 C   0  0  0  0  0  0  0  0  0  0  0  0
   21.9148  -21.1571  -18.9222 C   0  0  0  0  0  0  0  0  0  0  0  0
   23.2736  -20.4981  -19.2281 C   0  0  0  0  0  0  0  0  0  0  0  0
   23.5797  -20.0145  -17.8229 C   0  0  1  0  0  0  0  0  0  0  0  0
   22.6112  -18.9810  -17.3824 C   0  0  0  0  0  0  0  0  0  0  0  0
   22.5023  -17.7216  -17.9260 O   0  0  0  0  0  0  0  0  0  0  0  0
   21.8326  -19.2784  -16.4431 O   0  0  0  0  0  0  0  0  0  0  0  0
  2  4  1  0
  2  1  1  1
  3  2  1  0
  4  6  1  0
  4  5  1  6
  6  8  1  0
  6  7  2  0
  8  9  1  0
  9 10  1  1
  9 13  1  0
 11 10  1  0
 12 11  2  0
 13 16  1  0
 14 13  2  0
 15 11  1  0
 16 17  1  0
 16 20  1  0
 17 18  1  0
 18 19  1  0
 20 19  1  0
 20 21  1  1
 21 22  1  0
 23 21  2  0
M  END
$$$$
