TDP.pdb
     RDKit          3D

 23 23  0  0  1  0  0  0  0  0999 V2000
   26.3224  -16.0357  -18.7021 C   0  0  0  0  0  0  0  0  0  0  0  0
   25.9504  -17.0041  -17.5873 C   0  0  1  0  0  0  0  0  0  0  0  0
   27.0406  -17.4757  -16.8986 O   0  0  0  0  0  0  0  0  0  0  0  0
   25.0104  -16.3281  -16.5904 C   0  0  2  0  0  0  0  0  0  0  0  0
   25.7645  -15.2137  -15.9632 N   0  0  0  0  0  0  0  0  0  0  0  0
   24.5997  -17.1943  -15.4841 C   0  0  0  0  0  0  0  0  0  0  0  0
   25.1474  -17.1193  -14.3592 O   0  0  0  0  0  0  0  0  0  0  0  0
   23.5559  -18.1597  -15.6285 N   0  0  0  0  0  0  0  0  0  0  0  0
   23.1452  -18.9568  -14.4665 C   0  0  1  0  0  0  0  0  0  0  0  0
   21.6536  -19.1834  -14.6131 C   0  0  0  0  0  0  0  0  0  0  0  0
   21.0129  -20.0406  -13.6397 C   0  0  0  0  0  0  0  0  0  0  0  0
   20.6611  -19.7405  -12.4788 O   0  0  0  0  0  0  0  0  0  0  0  0
   23.9238  -20.1580  -14.3181 C   0  0  0  0  0  0  0  0  0  0  0  0
   24.3600  -20.6546  -15.4435 O   0  0  0  0  0  0  0  0  0  0  0  0
   20.7247  -21.3911  -13.9853 O   0  0  0  0  0  0  0  0  0  0  0  0
   24.3148  -20.9104  -13.1923 N   0  0  0  0  0  0  0  0  0  0  0  0
   24.0469  -20.8202  -11.7927 C   0  0  0  0  0  0  0  0  0  0  0  0
   25.0824  -21.7211  -11.1013 C   0  0  0  0  0  0  0  0  0  0  0  0
   26.1377  -21.9332  -12.2037 C   0  0  0  0  0  0  0  0  0  0  0  0
   25.1777  -22.1086  -13.3656 C   0  0  1  0  0  0  0  0  0  0  0  0
   24.3610  -23.3373  -13.2129 C   0  0  0  0  0  0  0  0  0  0  0  0
   24.8096  -24.6158  -13.4532 O   0  0  0  0  0  0  0  0  0  0  0  0
   23.1710  -23.1998  -12.8359 O   0  0  0  0  0  0  0  0  0  0  0  0
  2  4  1  0
  2  1  1  6
  3  2  1  0
  4  6  1  0
  4  5  1  1
  6  8  1  0
  6  7  2  0
  8  9  1  0
  9 10  1  6
  9 13  1  0
 11 10  1  0
 12 11  2  0
 13 16  1  0
 14 13  2  0
 15 11  1  0
 16 17  1  0
 16 20  1  0
 17 18  1  0
 18 19  1  0
 20 19  1  0
 20 21  1  1
 21 22  1  0
 23 21  2  0
M  END
$$$$
