TDP.pdb
     RDKit          3D

 23 23  0  0  1  0  0  0  0  0999 V2000
   40.6107   -3.4206   -7.8853 C   0  0  0  0  0  0  0  0  0  0  0  0
   39.4321   -2.4816   -8.1055 C   0  0  1  0  0  0  0  0  0  0  0  0
   39.7785   -1.1555   -8.0242 O   0  0  0  0  0  0  0  0  0  0  0  0
   38.8067   -2.7295   -9.4772 C   0  0  2  0  0  0  0  0  0  0  0  0
   37.5357   -1.9639   -9.5244 N   0  0  0  0  0  0  0  0  0  0  0  0
   38.4322   -4.1249   -9.7129 C   0  0  0  0  0  0  0  0  0  0  0  0
   37.4230   -4.6302   -9.1675 O   0  0  0  0  0  0  0  0  0  0  0  0
   39.1906   -4.9748  -10.5758 N   0  0  0  0  0  0  0  0  0  0  0  0
   38.8811   -6.4085  -10.6298 C   0  0  1  0  0  0  0  0  0  0  0  0
   39.1035   -6.8368  -12.0667 C   0  0  0  0  0  0  0  0  0  0  0  0
   38.9390   -8.2407  -12.3747 C   0  0  0  0  0  0  0  0  0  0  0  0
   39.8351   -9.1056  -12.4767 O   0  0  0  0  0  0  0  0  0  0  0  0
   39.6175   -7.1693   -9.6551 C   0  0  0  0  0  0  0  0  0  0  0  0
   40.8016   -6.6904   -9.3868 O   0  0  0  0  0  0  0  0  0  0  0  0
   37.6305   -8.7549  -12.5977 O   0  0  0  0  0  0  0  0  0  0  0  0
   39.3133   -8.3358   -8.9248 N   0  0  0  0  0  0  0  0  0  0  0  0
   38.2180   -9.2517   -8.9229 C   0  0  0  0  0  0  0  0  0  0  0  0
   38.3511  -10.0729   -7.6305 C   0  0  0  0  0  0  0  0  0  0  0  0
   39.3327   -9.2309   -6.7929 C   0  0  0  0  0  0  0  0  0  0  0  0
   40.2778   -8.8516   -7.9177 C   0  0  1  0  0  0  0  0  0  0  0  0
   40.9778  -10.0409   -8.4615 C   0  0  0  0  0  0  0  0  0  0  0  0
   40.7391  -10.5984   -9.6967 O   0  0  0  0  0  0  0  0  0  0  0  0
   41.8539  -10.5786   -7.7402 O   0  0  0  0  0  0  0  0  0  0  0  0
  2  4  1  0
  2  1  1  6
  3  2  1  0
  4  6  1  0
  4  5  1  1
  6  8  1  0
  6  7  2  0
  8  9  1  0
  9 10  1  6
  9 13  1  0
 11 10  1  0
 12 11  2  0
 13 16  1  0
 14 13  2  0
 15 11  1  0
 16 17  1  0
 16 20  1  0
 17 18  1  0
 18 19  1  0
 20 19  1  0
 20 21  1  6
 21 22  1  0
 23 21  2  0
M  END
$$$$
