TDP.pdb
     RDKit          3D

 23 23  0  0  1  0  0  0  0  0999 V2000
   16.1071  -12.2476  -15.1260 C   0  0  0  0  0  0  0  0  0  0  0  0
   16.2858  -13.7596  -15.0920 C   0  0  1  0  0  0  0  0  0  0  0  0
   15.0996  -14.4436  -15.1934 O   0  0  0  0  0  0  0  0  0  0  0  0
   17.1972  -14.2108  -16.2322 C   0  0  2  0  0  0  0  0  0  0  0  0
   17.4599  -15.6588  -16.0366 N   0  0  0  0  0  0  0  0  0  0  0  0
   18.5133  -13.5699  -16.2261 C   0  0  0  0  0  0  0  0  0  0  0  0
   19.4173  -13.9443  -15.4427 O   0  0  0  0  0  0  0  0  0  0  0  0
   18.8337  -12.4950  -17.1117 N   0  0  0  0  0  0  0  0  0  0  0  0
   20.1496  -11.8517  -17.0182 C   0  0  1  0  0  0  0  0  0  0  0  0
   20.5006  -11.3977  -18.4212 C   0  0  0  0  0  0  0  0  0  0  0  0
   21.7514  -10.6926  -18.5981 C   0  0  0  0  0  0  0  0  0  0  0  0
   21.9302   -9.5951  -19.1682 O   0  0  0  0  0  0  0  0  0  0  0  0
   20.1866  -10.8124  -16.0234 C   0  0  0  0  0  0  0  0  0  0  0  0
   19.0316  -10.2487  -15.7962 O   0  0  0  0  0  0  0  0  0  0  0  0
   22.9503  -11.2644  -18.0860 O   0  0  0  0  0  0  0  0  0  0  0  0
   21.2276  -10.2785  -15.2373 N   0  0  0  0  0  0  0  0  0  0  0  0
   22.6414  -10.4729  -15.1929 C   0  0  0  0  0  0  0  0  0  0  0  0
   23.1135   -9.8672  -13.8616 C   0  0  0  0  0  0  0  0  0  0  0  0
   21.8016   -9.7362  -13.0642 C   0  0  0  0  0  0  0  0  0  0  0  0
   20.9244   -9.2533  -14.2042 C   0  0  1  0  0  0  0  0  0  0  0  0
   21.3507   -7.9174  -14.6876 C   0  0  0  0  0  0  0  0  0  0  0  0
   21.2688   -6.7534  -13.9584 O   0  0  0  0  0  0  0  0  0  0  0  0
   21.8217   -7.8439  -15.8494 O   0  0  0  0  0  0  0  0  0  0  0  0
  2  4  1  0
  2  1  1  6
  3  2  1  0
  4  6  1  0
  4  5  1  1
  6  8  1  0
  6  7  2  0
  8  9  1  0
  9 10  1  6
  9 13  1  0
 11 10  1  0
 12 11  2  0
 13 16  1  0
 14 13  2  0
 15 11  1  0
 16 17  1  0
 16 20  1  0
 17 18  1  0
 18 19  1  0
 20 19  1  0
 20 21  1  6
 21 22  1  0
 23 21  2  0
M  END
$$$$
