TDP.pdb
     RDKit          3D

 23 23  0  0  1  0  0  0  0  0999 V2000
   37.3394   -3.8005   -6.7050 C   0  0  0  0  0  0  0  0  0  0  0  0
   38.1679   -5.0743   -6.8045 C   0  0  1  0  0  0  0  0  0  0  0  0
   38.9118   -5.3215   -5.6773 O   0  0  0  0  0  0  0  0  0  0  0  0
   37.2603   -6.2782   -7.0522 C   0  0  2  0  0  0  0  0  0  0  0  0
   36.4609   -6.4857   -5.8185 N   0  0  0  0  0  0  0  0  0  0  0  0
   37.9858   -7.5320   -7.2640 C   0  0  0  0  0  0  0  0  0  0  0  0
   37.9356   -8.4637   -6.4271 O   0  0  0  0  0  0  0  0  0  0  0  0
   38.7787   -7.7575   -8.4313 N   0  0  0  0  0  0  0  0  0  0  0  0
   39.5200   -9.0169   -8.5671 C   0  0  1  0  0  0  0  0  0  0  0  0
   39.4753   -9.3790  -10.0384 C   0  0  0  0  0  0  0  0  0  0  0  0
   40.2269  -10.5412  -10.4598 C   0  0  0  0  0  0  0  0  0  0  0  0
   39.7803  -11.6753  -10.7347 O   0  0  0  0  0  0  0  0  0  0  0  0
   40.8434   -8.9417   -8.0067 C   0  0  0  0  0  0  0  0  0  0  0  0
   41.4062   -7.7696   -8.1207 O   0  0  0  0  0  0  0  0  0  0  0  0
   41.6406  -10.4435  -10.5946 O   0  0  0  0  0  0  0  0  0  0  0  0
   41.6592   -9.8865   -7.3522 N   0  0  0  0  0  0  0  0  0  0  0  0
   41.5182  -11.2704   -7.0307 C   0  0  0  0  0  0  0  0  0  0  0  0
   42.6076  -11.5800   -5.9917 C   0  0  0  0  0  0  0  0  0  0  0  0
   43.0249  -10.1775   -5.5092 C   0  0  0  0  0  0  0  0  0  0  0  0
   43.0051   -9.4891   -6.8612 C   0  0  1  0  0  0  0  0  0  0  0  0
   44.0467  -10.0373   -7.7638 C   0  0  0  0  0  0  0  0  0  0  0  0
   43.7993  -10.8245   -8.8649 O   0  0  0  0  0  0  0  0  0  0  0  0
   45.2439   -9.7618   -7.5029 O   0  0  0  0  0  0  0  0  0  0  0  0
  2  4  1  0
  2  1  1  1
  3  2  1  0
  4  6  1  0
  4  5  1  1
  6  8  1  0
  6  7  2  0
  8  9  1  0
  9 10  1  6
  9 13  1  0
 11 10  1  0
 12 11  2  0
 13 16  1  0
 14 13  2  0
 15 11  1  0
 16 17  1  0
 16 20  1  0
 17 18  1  0
 18 19  1  0
 20 19  1  0
 20 21  1  6
 21 22  1  0
 23 21  2  0
M  END
$$$$
