QIN.pdb
     RDKit          3D

 26 25  0  0  1  0  0  0  0  0999 V2000
    9.5386  -12.8552   17.9854 N   0  0  0  0  0  0  0  0  0  0  0  0
    8.2603  -13.4863   17.8378 C   0  0  0  0  0  0  0  0  0  0  0  0
    7.7776  -13.5804   16.7075 O   0  0  0  0  0  0  0  0  0  0  0  0
    7.5967  -13.9807   19.0339 C   0  0  0  0  0  0  0  0  0  0  0  0
    8.3063  -13.8052   20.3354 C   0  0  0  0  0  0  0  0  0  0  0  0
    8.1384  -14.8784   21.3503 C   0  0  2  0  0  0  0  0  0  0  0  0
    6.8495  -15.5269   21.2235 N   0  0  0  0  0  0  0  0  0  0  0  0
    8.5756  -14.6156   22.7219 C   0  0  0  0  0  0  0  0  0  0  0  0
    9.7640  -14.2343   22.8768 O   0  0  0  0  0  0  0  0  0  0  0  0
    6.0940  -11.4497   25.8519 C   0  0  0  0  0  0  0  0  0  0  0  0
    7.2111  -12.3571   25.3414 C   0  0  0  0  0  0  0  0  0  0  0  0
    7.1800  -13.7210   25.9739 C   0  0  2  0  0  0  0  0  0  0  0  0
    7.6182  -13.5401   27.4021 C   0  0  0  0  0  0  0  0  0  0  0  0
    8.0711  -14.6560   25.2428 C   0  0  2  0  0  0  0  0  0  0  0  0
    7.7645  -14.7655   23.8331 N   0  0  0  0  0  0  0  0  0  0  0  0
    8.3384  -15.9738   25.8192 C   0  0  0  0  0  0  0  0  0  0  0  0
    7.6028  -16.9394   25.3478 O   0  0  0  0  0  0  0  0  0  0  0  0
   12.0142  -19.7653   24.4476 N   0  0  0  0  0  0  0  0  0  0  0  0
   11.0158  -19.3770   25.3732 C   0  0  0  0  0  0  0  0  0  0  0  0
   10.6717  -20.2480   26.2223 O   0  0  0  0  0  0  0  0  0  0  0  0
   10.3500  -18.0777   25.4418 C   0  0  0  0  0  0  0  0  0  0  0  0
    9.8197  -17.7054   26.7993 C   0  0  2  0  0  0  0  0  0  0  0  0
    9.2666  -16.3439   26.7927 N   0  0  0  0  0  0  0  0  0  0  0  0
   10.8124  -17.8736   27.8704 C   0  0  0  0  0  0  0  0  0  0  0  0
   10.4904  -18.6603   28.9600 O   0  0  0  0  0  0  0  0  0  0  0  0
   11.9362  -17.3313   27.8315 O   0  0  0  0  0  0  0  0  0  0  0  0
  1  2  1  0
  2  4  1  0
  3  2  2  0
  4  5  1  0
  5  6  1  0
  6  7  1  1
  8  9  2  0
  8  6  1  0
 11 10  1  0
 11 12  1  0
 12 14  1  0
 12 13  1  1
 14 15  1  6
 15  8  1  0
 16 23  1  0
 16 14  1  0
 17 16  2  0
 18 19  1  0
 19 21  1  0
 20 19  2  0
 22 21  1  6
 22 23  1  0
 22 24  1  0
 24 25  1  0
 26 24  2  0
M  END
$$$$
