QIN.pdb
     RDKit          3D

 26 25  0  0  1  0  0  0  0  0999 V2000
    5.1473  -18.6155   20.6584 N   0  0  0  0  0  0  0  0  0  0  0  0
    6.4035  -18.5139   19.9761 C   0  0  0  0  0  0  0  0  0  0  0  0
    6.7642  -19.4534   19.2643 O   0  0  0  0  0  0  0  0  0  0  0  0
    7.1904  -17.3050   20.1631 C   0  0  0  0  0  0  0  0  0  0  0  0
    6.5803  -16.2060   20.9680 C   0  0  0  0  0  0  0  0  0  0  0  0
    7.3733  -14.9583   21.1245 C   0  0  2  0  0  0  0  0  0  0  0  0
    8.1475  -14.6731   19.9340 N   0  0  0  0  0  0  0  0  0  0  0  0
    8.0653  -14.7263   22.3929 C   0  0  0  0  0  0  0  0  0  0  0  0
    9.3219  -14.7738   22.3721 O   0  0  0  0  0  0  0  0  0  0  0  0
    5.6373  -11.4246   25.9789 C   0  0  0  0  0  0  0  0  0  0  0  0
    6.7557  -12.1515   25.2354 C   0  0  0  0  0  0  0  0  0  0  0  0
    7.0465  -13.5080   25.8156 C   0  0  2  0  0  0  0  0  0  0  0  0
    7.6718  -13.2713   27.1638 C   0  0  0  0  0  0  0  0  0  0  0  0
    7.9489  -14.2757   24.9216 C   0  0  2  0  0  0  0  0  0  0  0  0
    7.4193  -14.4657   23.5887 N   0  0  0  0  0  0  0  0  0  0  0  0
    8.5543  -15.5107   25.4200 C   0  0  0  0  0  0  0  0  0  0  0  0
    7.7574  -16.5401   25.4506 O   0  0  0  0  0  0  0  0  0  0  0  0
   11.5864  -19.7173   26.6657 N   0  0  0  0  0  0  0  0  0  0  0  0
   12.0577  -18.8117   25.6849 C   0  0  0  0  0  0  0  0  0  0  0  0
   13.0559  -19.1905   25.0080 O   0  0  0  0  0  0  0  0  0  0  0  0
   11.5068  -17.4923   25.3814 C   0  0  0  0  0  0  0  0  0  0  0  0
   10.2898  -17.1121   26.1797 C   0  0  2  0  0  0  0  0  0  0  0  0
    9.8574  -15.7444   25.8601 N   0  0  0  0  0  0  0  0  0  0  0  0
   10.4728  -17.2900   27.6272 C   0  0  0  0  0  0  0  0  0  0  0  0
   10.2427  -16.2154   28.4653 O   0  0  0  0  0  0  0  0  0  0  0  0
   10.8288  -18.3771   28.1274 O   0  0  0  0  0  0  0  0  0  0  0  0
  1  2  1  0
  2  4  1  0
  3  2  2  0
  4  5  1  0
  5  6  1  0
  6  7  1  6
  8  9  2  0
  8  6  1  0
 11 10  1  0
 11 12  1  0
 12 14  1  0
 12 13  1  1
 14 15  1  6
 15  8  1  0
 16 23  1  0
 16 14  1  0
 17 16  2  0
 18 19  1  0
 19 21  1  0
 20 19  2  0
 22 21  1  6
 22 23  1  0
 22 24  1  0
 24 25  1  0
 26 24  2  0
M  END
$$$$
