QIN.pdb
     RDKit          3D

 26 25  0  0  1  0  0  0  0  0999 V2000
    9.4147  -21.3083   17.5068 N   0  0  0  0  0  0  0  0  0  0  0  0
   10.7934  -20.9216   17.5670 C   0  0  0  0  0  0  0  0  0  0  0  0
   11.6473  -21.8031   17.6815 O   0  0  0  0  0  0  0  0  0  0  0  0
   11.1127  -19.5045   17.4932 C   0  0  0  0  0  0  0  0  0  0  0  0
    9.9792  -18.5547   17.2903 C   0  0  0  0  0  0  0  0  0  0  0  0
   10.3116  -17.1079   17.2119 C   0  0  2  0  0  0  0  0  0  0  0  0
   11.3424  -16.8564   16.2260 N   0  0  0  0  0  0  0  0  0  0  0  0
   10.4398  -16.3533   18.4593 C   0  0  0  0  0  0  0  0  0  0  0  0
   11.6062  -16.1491   18.8831 O   0  0  0  0  0  0  0  0  0  0  0  0
    6.5834  -12.5669   19.5833 C   0  0  0  0  0  0  0  0  0  0  0  0
    7.9313  -13.2826   19.5291 C   0  0  0  0  0  0  0  0  0  0  0  0
    8.0673  -14.3366   20.5930 C   0  0  2  0  0  0  0  0  0  0  0  0
    8.0446  -13.6161   21.9140 C   0  0  0  0  0  0  0  0  0  0  0  0
    9.3246  -15.1039   20.4102 C   0  0  2  0  0  0  0  0  0  0  0  0
    9.3643  -15.8664   19.1813 N   0  0  0  0  0  0  0  0  0  0  0  0
    9.8386  -15.8950   21.5283 C   0  0  0  0  0  0  0  0  0  0  0  0
    9.3111  -17.0792   21.6520 O   0  0  0  0  0  0  0  0  0  0  0  0
   13.5700  -17.9550   21.8302 N   0  0  0  0  0  0  0  0  0  0  0  0
   13.5356  -16.7589   22.5868 C   0  0  0  0  0  0  0  0  0  0  0  0
   14.3175  -15.8385   22.2133 O   0  0  0  0  0  0  0  0  0  0  0  0
   12.6908  -16.4872   23.7481 C   0  0  0  0  0  0  0  0  0  0  0  0
   11.2107  -16.5526   23.4875 C   0  0  2  0  0  0  0  0  0  0  0  0
   10.8112  -15.5671   22.4732 N   0  0  0  0  0  0  0  0  0  0  0  0
   10.4051  -16.4180   24.7096 C   0  0  0  0  0  0  0  0  0  0  0  0
    9.5197  -15.3618   24.8113 O   0  0  0  0  0  0  0  0  0  0  0  0
   10.4916  -17.2236   25.6594 O   0  0  0  0  0  0  0  0  0  0  0  0
  1  2  1  0
  2  4  1  0
  3  2  2  0
  4  5  1  0
  5  6  1  0
  6  7  1  1
  8  9  2  0
  8  6  1  0
 11 10  1  0
 11 12  1  0
 12 14  1  0
 12 13  1  1
 14 15  1  6
 15  8  1  0
 16 23  1  0
 16 14  1  0
 17 16  2  0
 18 19  1  0
 19 21  1  0
 20 19  2  0
 22 21  1  1
 22 23  1  0
 22 24  1  0
 24 25  1  0
 26 24  2  0
M  END
$$$$
