QIN.pdb
     RDKit          3D

 26 25  0  0  1  0  0  0  0  0999 V2000
   12.9950  -18.6607   15.3915 N   0  0  0  0  0  0  0  0  0  0  0  0
   11.8381  -19.0920   14.6637 C   0  0  0  0  0  0  0  0  0  0  0  0
   11.9678  -19.9934   13.8330 O   0  0  0  0  0  0  0  0  0  0  0  0
   10.5689  -18.4386   14.9423 C   0  0  0  0  0  0  0  0  0  0  0  0
   10.5692  -17.3397   15.9526 C   0  0  0  0  0  0  0  0  0  0  0  0
    9.8409  -17.5869   17.2248 C   0  0  2  0  0  0  0  0  0  0  0  0
    8.4401  -17.8661   16.9846 N   0  0  0  0  0  0  0  0  0  0  0  0
   10.1196  -16.7172   18.3682 C   0  0  0  0  0  0  0  0  0  0  0  0
   11.3290  -16.5245   18.6547 O   0  0  0  0  0  0  0  0  0  0  0  0
    6.4719  -12.7495   19.6795 C   0  0  0  0  0  0  0  0  0  0  0  0
    7.8158  -13.4618   19.5434 C   0  0  0  0  0  0  0  0  0  0  0  0
    8.0292  -14.4986   20.6115 C   0  0  2  0  0  0  0  0  0  0  0  0
    8.1477  -13.7530   21.9134 C   0  0  0  0  0  0  0  0  0  0  0  0
    9.2465  -15.2986   20.3268 C   0  0  2  0  0  0  0  0  0  0  0  0
    9.1395  -16.1117   19.1349 N   0  0  0  0  0  0  0  0  0  0  0  0
    9.8667  -16.0535   21.4157 C   0  0  0  0  0  0  0  0  0  0  0  0
    9.3500  -17.2288   21.6336 O   0  0  0  0  0  0  0  0  0  0  0  0
   13.2625  -18.7805   24.5623 N   0  0  0  0  0  0  0  0  0  0  0  0
   13.6394  -17.4657   24.1970 C   0  0  0  0  0  0  0  0  0  0  0  0
   14.6362  -16.9808   24.8044 O   0  0  0  0  0  0  0  0  0  0  0  0
   12.9931  -16.6216   23.1939 C   0  0  0  0  0  0  0  0  0  0  0  0
   11.4903  -16.6850   23.1816 C   0  0  2  0  0  0  0  0  0  0  0  0
   10.9298  -15.6994   22.2467 N   0  0  0  0  0  0  0  0  0  0  0  0
   10.8980  -16.5488   24.5200 C   0  0  0  0  0  0  0  0  0  0  0  0
   10.5052  -15.2957   24.9507 O   0  0  0  0  0  0  0  0  0  0  0  0
   10.7368  -17.5244   25.2822 O   0  0  0  0  0  0  0  0  0  0  0  0
  1  2  1  0
  2  4  1  0
  3  2  2  0
  4  5  1  0
  5  6  1  0
  6  7  1  6
  8  9  2  0
  8  6  1  0
 11 10  1  0
 11 12  1  0
 12 14  1  0
 12 13  1  1
 14 15  1  6
 15  8  1  0
 16 23  1  0
 16 14  1  0
 17 16  2  0
 18 19  1  0
 19 21  1  0
 20 19  2  0
 22 21  1  1
 22 23  1  0
 22 24  1  0
 24 25  1  0
 26 24  2  0
M  END
$$$$
