QIN.pdb
     RDKit          3D

 26 25  0  0  1  0  0  0  0  0999 V2000
    6.0431  -20.7262   18.2038 N   0  0  0  0  0  0  0  0  0  0  0  0
    7.4301  -21.0705   18.3117 C   0  0  0  0  0  0  0  0  0  0  0  0
    7.7269  -22.2152   18.6596 O   0  0  0  0  0  0  0  0  0  0  0  0
    8.4172  -20.0466   18.0074 C   0  0  0  0  0  0  0  0  0  0  0  0
    7.9117  -18.6800   17.6832 C   0  0  0  0  0  0  0  0  0  0  0  0
    8.9241  -17.6055   17.5079 C   0  0  2  0  0  0  0  0  0  0  0  0
    9.9931  -18.0272   16.6263 N   0  0  0  0  0  0  0  0  0  0  0  0
    9.3457  -16.8458   18.6855 C   0  0  0  0  0  0  0  0  0  0  0  0
   10.5425  -16.9773   19.0487 O   0  0  0  0  0  0  0  0  0  0  0  0
    6.7695  -12.0930   19.6858 C   0  0  0  0  0  0  0  0  0  0  0  0
    7.8788  -13.1416   19.6420 C   0  0  0  0  0  0  0  0  0  0  0  0
    7.7992  -14.1127   20.7874 C   0  0  2  0  0  0  0  0  0  0  0  0
    8.1019  -13.3278   22.0352 C   0  0  0  0  0  0  0  0  0  0  0  0
    8.7610  -15.2267   20.5954 C   0  0  2  0  0  0  0  0  0  0  0  0
    8.5097  -16.0101   19.4053 N   0  0  0  0  0  0  0  0  0  0  0  0
    9.0735  -16.0943   21.7311 C   0  0  0  0  0  0  0  0  0  0  0  0
    8.2927  -17.1279   21.8642 O   0  0  0  0  0  0  0  0  0  0  0  0
   11.5567  -19.6922   24.5458 N   0  0  0  0  0  0  0  0  0  0  0  0
   11.3575  -19.5045   23.1568 C   0  0  0  0  0  0  0  0  0  0  0  0
   11.6363  -20.4886   22.4140 O   0  0  0  0  0  0  0  0  0  0  0  0
   10.8648  -18.2933   22.5037 C   0  0  0  0  0  0  0  0  0  0  0  0
   10.5275  -17.1607   23.4345 C   0  0  2  0  0  0  0  0  0  0  0  0
   10.0854  -15.9770   22.6842 N   0  0  0  0  0  0  0  0  0  0  0  0
   11.6223  -16.8298   24.3579 C   0  0  0  0  0  0  0  0  0  0  0  0
   12.0848  -15.5283   24.4041 O   0  0  0  0  0  0  0  0  0  0  0  0
   12.1496  -17.6820   25.1024 O   0  0  0  0  0  0  0  0  0  0  0  0
  1  2  1  0
  2  4  1  0
  3  2  2  0
  4  5  1  0
  5  6  1  0
  6  7  1  1
  8  9  2  0
  8  6  1  0
 11 10  1  0
 11 12  1  0
 12 14  1  0
 12 13  1  1
 14 15  1  6
 15  8  1  0
 16 23  1  0
 16 14  1  0
 17 16  2  0
 18 19  1  0
 19 21  1  0
 20 19  2  0
 22 21  1  6
 22 23  1  0
 22 24  1  0
 24 25  1  0
 26 24  2  0
M  END
$$$$
