QIN.pdb
     RDKit          3D

 26 25  0  0  1  0  0  0  0  0999 V2000
    8.9986  -14.6423   17.2219 N   0  0  0  0  0  0  0  0  0  0  0  0
    8.2160  -13.6834   17.9446 C   0  0  0  0  0  0  0  0  0  0  0  0
    8.1973  -12.5177   17.5444 O   0  0  0  0  0  0  0  0  0  0  0  0
    7.4857  -14.1375   19.1176 C   0  0  0  0  0  0  0  0  0  0  0  0
    8.2839  -14.6830   20.2550 C   0  0  0  0  0  0  0  0  0  0  0  0
    7.5294  -15.2207   21.4175 C   0  0  2  0  0  0  0  0  0  0  0  0
    6.0995  -15.1122   21.2138 N   0  0  0  0  0  0  0  0  0  0  0  0
    7.9973  -14.8924   22.7647 C   0  0  0  0  0  0  0  0  0  0  0  0
    9.0863  -14.2696   22.8525 O   0  0  0  0  0  0  0  0  0  0  0  0
    6.0757  -11.3743   25.2339 C   0  0  0  0  0  0  0  0  0  0  0  0
    7.0300  -12.5235   24.9165 C   0  0  0  0  0  0  0  0  0  0  0  0
    6.7942  -13.7258   25.7883 C   0  0  2  0  0  0  0  0  0  0  0  0
    7.1959  -13.3281   27.1830 C   0  0  0  0  0  0  0  0  0  0  0  0
    7.5822  -14.8859   25.3022 C   0  0  2  0  0  0  0  0  0  0  0  0
    7.3167  -15.2287   23.9219 N   0  0  0  0  0  0  0  0  0  0  0  0
    7.6531  -16.0892   26.1311 C   0  0  0  0  0  0  0  0  0  0  0  0
    6.5262  -16.7263   26.2726 O   0  0  0  0  0  0  0  0  0  0  0  0
    5.9927  -20.0553   25.5569 N   0  0  0  0  0  0  0  0  0  0  0  0
    7.0300  -19.7365   26.4661 C   0  0  0  0  0  0  0  0  0  0  0  0
    6.8877  -20.1615   27.6480 O   0  0  0  0  0  0  0  0  0  0  0  0
    8.2396  -18.9700   26.1731 C   0  0  0  0  0  0  0  0  0  0  0  0
    8.6833  -18.0385   27.2678 C   0  0  2  0  0  0  0  0  0  0  0  0
    8.7496  -16.6524   26.7843 N   0  0  0  0  0  0  0  0  0  0  0  0
    9.9493  -18.4475   27.8928 C   0  0  0  0  0  0  0  0  0  0  0  0
   11.0703  -17.6614   27.7041 O   0  0  0  0  0  0  0  0  0  0  0  0
   10.0488  -19.4795   28.5882 O   0  0  0  0  0  0  0  0  0  0  0  0
  1  2  1  0
  2  4  1  0
  3  2  2  0
  4  5  1  0
  5  6  1  0
  6  7  1  1
  8  9  2  0
  8  6  1  0
 11 10  1  0
 11 12  1  0
 12 14  1  0
 12 13  1  1
 14 15  1  6
 15  8  1  0
 16 23  1  0
 16 14  1  0
 17 16  2  0
 18 19  1  0
 19 21  1  0
 20 19  2  0
 22 21  1  6
 22 23  1  0
 22 24  1  0
 24 25  1  0
 26 24  2  0
M  END
$$$$
