QIN.pdb
     RDKit          3D

 26 25  0  0  1  0  0  0  0  0999 V2000
    9.2877  -12.6046   18.1246 N   0  0  0  0  0  0  0  0  0  0  0  0
    8.1609  -13.4007   17.7363 C   0  0  0  0  0  0  0  0  0  0  0  0
    7.9689  -13.6025   16.5356 O   0  0  0  0  0  0  0  0  0  0  0  0
    7.2990  -13.9270   18.7830 C   0  0  0  0  0  0  0  0  0  0  0  0
    7.6517  -13.5950   20.1949 C   0  0  0  0  0  0  0  0  0  0  0  0
    7.7573  -14.7272   21.1525 C   0  0  2  0  0  0  0  0  0  0  0  0
    6.5675  -15.5528   21.1259 N   0  0  0  0  0  0  0  0  0  0  0  0
    8.3097  -14.4665   22.4823 C   0  0  0  0  0  0  0  0  0  0  0  0
    9.4360  -13.9090   22.5310 O   0  0  0  0  0  0  0  0  0  0  0  0
    5.9216  -11.6813   25.8511 C   0  0  0  0  0  0  0  0  0  0  0  0
    7.0311  -12.4964   25.1904 C   0  0  0  0  0  0  0  0  0  0  0  0
    7.2612  -13.8162   25.8732 C   0  0  2  0  0  0  0  0  0  0  0  0
    7.9120  -13.5065   27.1943 C   0  0  0  0  0  0  0  0  0  0  0  0
    8.1149  -14.6955   25.0359 C   0  0  2  0  0  0  0  0  0  0  0  0
    7.6693  -14.7988   23.6633 N   0  0  0  0  0  0  0  0  0  0  0  0
    8.5024  -16.0070   25.5555 C   0  0  0  0  0  0  0  0  0  0  0  0
    8.0367  -17.0226   24.8865 O   0  0  0  0  0  0  0  0  0  0  0  0
   11.9132  -19.8334   25.5829 N   0  0  0  0  0  0  0  0  0  0  0  0
   12.0952  -18.4621   25.2818 C   0  0  0  0  0  0  0  0  0  0  0  0
   13.2490  -18.1238   24.8915 O   0  0  0  0  0  0  0  0  0  0  0  0
   11.0869  -17.4083   25.3776 C   0  0  0  0  0  0  0  0  0  0  0  0
   10.2071  -17.4785   26.5957 C   0  0  2  0  0  0  0  0  0  0  0  0
    9.2990  -16.3246   26.6558 N   0  0  0  0  0  0  0  0  0  0  0  0
   10.9662  -17.6266   27.8457 C   0  0  0  0  0  0  0  0  0  0  0  0
   11.0438  -18.8745   28.4346 O   0  0  0  0  0  0  0  0  0  0  0  0
   11.5436  -16.6656   28.3950 O   0  0  0  0  0  0  0  0  0  0  0  0
  1  2  1  0
  2  4  1  0
  3  2  2  0
  4  5  1  0
  5  6  1  0
  6  7  1  1
  8  9  2  0
  8  6  1  0
 11 10  1  0
 11 12  1  0
 12 14  1  0
 12 13  1  1
 14 15  1  6
 15  8  1  0
 16 23  1  0
 16 14  1  0
 17 16  2  0
 18 19  1  0
 19 21  1  0
 20 19  2  0
 22 21  1  6
 22 23  1  0
 22 24  1  0
 24 25  1  0
 26 24  2  0
M  END
$$$$
