QIN.pdb
     RDKit          3D

 26 25  0  0  1  0  0  0  0  0999 V2000
    6.1474  -20.8346   17.9573 N   0  0  0  0  0  0  0  0  0  0  0  0
    7.5447  -21.1519   17.9244 C   0  0  0  0  0  0  0  0  0  0  0  0
    7.8882  -22.3181   18.1274 O   0  0  0  0  0  0  0  0  0  0  0  0
    8.4866  -20.0766   17.6557 C   0  0  0  0  0  0  0  0  0  0  0  0
    7.9321  -18.6985   17.5088 C   0  0  0  0  0  0  0  0  0  0  0  0
    8.9069  -17.5889   17.3403 C   0  0  2  0  0  0  0  0  0  0  0  0
    9.9667  -17.9531   16.4225 N   0  0  0  0  0  0  0  0  0  0  0  0
    9.3336  -16.8490   18.5286 C   0  0  0  0  0  0  0  0  0  0  0  0
   10.5365  -16.9724   18.8740 O   0  0  0  0  0  0  0  0  0  0  0  0
    6.8288  -12.1420   19.8659 C   0  0  0  0  0  0  0  0  0  0  0  0
    7.8913  -13.2320   19.7434 C   0  0  0  0  0  0  0  0  0  0  0  0
    7.7726  -14.2759   20.8192 C   0  0  2  0  0  0  0  0  0  0  0  0
    8.0866  -13.5870   22.1198 C   0  0  0  0  0  0  0  0  0  0  0  0
    8.7032  -15.4024   20.5586 C   0  0  2  0  0  0  0  0  0  0  0  0
    8.4961  -16.0399   19.2765 N   0  0  0  0  0  0  0  0  0  0  0  0
    8.9146  -16.4012   21.6064 C   0  0  0  0  0  0  0  0  0  0  0  0
    8.5164  -17.6044   21.3071 O   0  0  0  0  0  0  0  0  0  0  0  0
   12.8000  -19.3847   23.0903 N   0  0  0  0  0  0  0  0  0  0  0  0
   12.8254  -18.0104   22.7515 C   0  0  0  0  0  0  0  0  0  0  0  0
   13.9527  -17.4413   22.8084 O   0  0  0  0  0  0  0  0  0  0  0  0
   11.6841  -17.1925   22.3456 C   0  0  0  0  0  0  0  0  0  0  0  0
   10.5354  -17.1763   23.3168 C   0  0  2  0  0  0  0  0  0  0  0  0
    9.4832  -16.2521   22.8716 N   0  0  0  0  0  0  0  0  0  0  0  0
   10.9526  -16.8864   24.6961 C   0  0  0  0  0  0  0  0  0  0  0  0
   11.0529  -17.9308   25.5957 O   0  0  0  0  0  0  0  0  0  0  0  0
   11.2199  -15.7305   25.0848 O   0  0  0  0  0  0  0  0  0  0  0  0
  1  2  1  0
  2  4  1  0
  3  2  2  0
  4  5  1  0
  5  6  1  0
  6  7  1  1
  8  9  2  0
  8  6  1  0
 11 10  1  0
 11 12  1  0
 12 14  1  0
 12 13  1  1
 14 15  1  6
 15  8  1  0
 16 23  1  0
 16 14  1  0
 17 16  2  0
 18 19  1  0
 19 21  1  0
 20 19  2  0
 22 21  1  6
 22 23  1  0
 22 24  1  0
 24 25  1  0
 26 24  2  0
M  END
$$$$
