QIN.pdb
     RDKit          3D

 26 25  0  0  1  0  0  0  0  0999 V2000
    8.6368  -12.6596   17.8868 N   0  0  0  0  0  0  0  0  0  0  0  0
    7.6828  -13.7183   17.7345 C   0  0  0  0  0  0  0  0  0  0  0  0
    7.1757  -13.8984   16.6255 O   0  0  0  0  0  0  0  0  0  0  0  0
    7.3599  -14.5244   18.9012 C   0  0  0  0  0  0  0  0  0  0  0  0
    8.0018  -14.1480   20.1952 C   0  0  0  0  0  0  0  0  0  0  0  0
    8.0288  -15.1798   21.2651 C   0  0  2  0  0  0  0  0  0  0  0  0
    6.8038  -15.9525   21.2833 N   0  0  0  0  0  0  0  0  0  0  0  0
    8.5550  -14.8082   22.5791 C   0  0  0  0  0  0  0  0  0  0  0  0
    9.7044  -14.2984   22.6080 O   0  0  0  0  0  0  0  0  0  0  0  0
    5.9498  -11.7782   25.7412 C   0  0  0  0  0  0  0  0  0  0  0  0
    7.0606  -12.6160   25.1117 C   0  0  0  0  0  0  0  0  0  0  0  0
    7.3436  -13.8733   25.8866 C   0  0  2  0  0  0  0  0  0  0  0  0
    7.9322  -13.4411   27.2025 C   0  0  0  0  0  0  0  0  0  0  0  0
    8.2731  -14.7523   25.1342 C   0  0  2  0  0  0  0  0  0  0  0  0
    7.8666  -14.9889   23.7660 N   0  0  0  0  0  0  0  0  0  0  0  0
    8.7358  -15.9914   25.7593 C   0  0  0  0  0  0  0  0  0  0  0  0
    7.8413  -16.9343   25.8387 O   0  0  0  0  0  0  0  0  0  0  0  0
   12.6693  -17.5886   24.1325 N   0  0  0  0  0  0  0  0  0  0  0  0
   11.6315  -18.2070   24.8706 C   0  0  0  0  0  0  0  0  0  0  0  0
   10.7336  -18.7862   24.1952 O   0  0  0  0  0  0  0  0  0  0  0  0
   11.4987  -18.2406   26.3258 C   0  0  0  0  0  0  0  0  0  0  0  0
   10.2315  -17.6338   26.8632 C   0  0  2  0  0  0  0  0  0  0  0  0
    9.9925  -16.3083   26.2755 N   0  0  0  0  0  0  0  0  0  0  0  0
   10.1968  -17.5813   28.3318 C   0  0  0  0  0  0  0  0  0  0  0  0
   10.2284  -18.7664   29.0421 O   0  0  0  0  0  0  0  0  0  0  0  0
   10.1399  -16.5046   28.9611 O   0  0  0  0  0  0  0  0  0  0  0  0
  1  2  1  0
  2  4  1  0
  3  2  2  0
  4  5  1  0
  5  6  1  0
  6  7  1  1
  8  9  2  0
  8  6  1  0
 11 10  1  0
 11 12  1  0
 12 14  1  0
 12 13  1  1
 14 15  1  6
 15  8  1  0
 16 23  1  0
 16 14  1  0
 17 16  2  0
 18 19  1  0
 19 21  1  0
 20 19  2  0
 22 21  1  1
 22 23  1  0
 22 24  1  0
 24 25  1  0
 26 24  2  0
M  END
$$$$
