QIN.pdb
     RDKit          3D

 26 25  0  0  1  0  0  0  0  0999 V2000
    8.3106  -15.7027   14.5491 N   0  0  0  0  0  0  0  0  0  0  0  0
    8.4056  -17.0825   14.1732 C   0  0  0  0  0  0  0  0  0  0  0  0
    7.7823  -17.4664   13.1815 O   0  0  0  0  0  0  0  0  0  0  0  0
    9.2324  -17.9602   14.9866 C   0  0  0  0  0  0  0  0  0  0  0  0
    9.9263  -17.3556   16.1618 C   0  0  0  0  0  0  0  0  0  0  0  0
    9.3920  -17.6853   17.5093 C   0  0  2  0  0  0  0  0  0  0  0  0
    7.9961  -18.0666   17.4441 N   0  0  0  0  0  0  0  0  0  0  0  0
    9.7539  -16.8213   18.6336 C   0  0  0  0  0  0  0  0  0  0  0  0
   10.9787  -16.5905   18.8022 O   0  0  0  0  0  0  0  0  0  0  0  0
    6.5477  -12.6091   19.6337 C   0  0  0  0  0  0  0  0  0  0  0  0
    7.8158  -13.4595   19.6115 C   0  0  0  0  0  0  0  0  0  0  0  0
    7.9064  -14.3898   20.7895 C   0  0  2  0  0  0  0  0  0  0  0  0
    8.1071  -13.5238   22.0038 C   0  0  0  0  0  0  0  0  0  0  0  0
    9.0242  -15.3499   20.6119 C   0  0  2  0  0  0  0  0  0  0  0  0
    8.8352  -16.2602   19.5033 N   0  0  0  0  0  0  0  0  0  0  0  0
    9.5396  -16.0591   21.7831 C   0  0  0  0  0  0  0  0  0  0  0  0
    8.8352  -17.0889   22.1560 O   0  0  0  0  0  0  0  0  0  0  0  0
   12.5085  -18.5326   21.9423 N   0  0  0  0  0  0  0  0  0  0  0  0
   13.1528  -17.7166   22.9033 C   0  0  0  0  0  0  0  0  0  0  0  0
   14.4130  -17.8018   22.9542 O   0  0  0  0  0  0  0  0  0  0  0  0
   12.5077  -16.7929   23.8343 C   0  0  0  0  0  0  0  0  0  0  0  0
   11.0163  -16.6719   23.6797 C   0  0  2  0  0  0  0  0  0  0  0  0
   10.6740  -15.7952   22.5510 N   0  0  0  0  0  0  0  0  0  0  0  0
   10.3432  -16.2417   24.9136 C   0  0  0  0  0  0  0  0  0  0  0  0
   10.2298  -17.1390   25.9585 O   0  0  0  0  0  0  0  0  0  0  0  0
    9.8701  -15.0947   25.0520 O   0  0  0  0  0  0  0  0  0  0  0  0
  1  2  1  0
  2  4  1  0
  3  2  2  0
  4  5  1  0
  5  6  1  0
  6  7  1  6
  8  9  2  0
  8  6  1  0
 11 10  1  0
 11 12  1  0
 12 14  1  0
 12 13  1  1
 14 15  1  6
 15  8  1  0
 16 23  1  0
 16 14  1  0
 17 16  2  0
 18 19  1  0
 19 21  1  0
 20 19  2  0
 22 21  1  1
 22 23  1  0
 22 24  1  0
 24 25  1  0
 26 24  2  0
M  END
$$$$
