QIN.pdb
     RDKit          3D

 26 25  0  0  1  0  0  0  0  0999 V2000
    8.5458  -12.5024   18.2244 N   0  0  0  0  0  0  0  0  0  0  0  0
    8.1048  -13.7992   17.8027 C   0  0  0  0  0  0  0  0  0  0  0  0
    7.5643  -13.9072   16.7001 O   0  0  0  0  0  0  0  0  0  0  0  0
    8.3159  -14.9222   18.7026 C   0  0  0  0  0  0  0  0  0  0  0  0
    8.9775  -14.6394   20.0104 C   0  0  0  0  0  0  0  0  0  0  0  0
    8.4772  -15.3799   21.1985 C   0  0  2  0  0  0  0  0  0  0  0  0
    7.1053  -15.8065   21.0145 N   0  0  0  0  0  0  0  0  0  0  0  0
    8.7998  -14.8631   22.5291 C   0  0  0  0  0  0  0  0  0  0  0  0
    9.9799  -14.4707   22.7160 O   0  0  0  0  0  0  0  0  0  0  0  0
    7.0635  -11.2554   26.9314 C   0  0  0  0  0  0  0  0  0  0  0  0
    7.7367  -12.5867   26.6052 C   0  0  0  0  0  0  0  0  0  0  0  0
    7.2678  -13.1645   25.2985 C   0  0  2  0  0  0  0  0  0  0  0  0
    5.8116  -13.4996   25.4771 C   0  0  0  0  0  0  0  0  0  0  0  0
    8.0652  -14.3646   24.9421 C   0  0  2  0  0  0  0  0  0  0  0  0
    7.8909  -14.7893   23.5701 N   0  0  0  0  0  0  0  0  0  0  0  0
    8.0541  -15.5145   25.8464 C   0  0  0  0  0  0  0  0  0  0  0  0
    6.9471  -16.2002   25.8500 O   0  0  0  0  0  0  0  0  0  0  0  0
    6.7431  -18.9199   26.1189 N   0  0  0  0  0  0  0  0  0  0  0  0
    7.9564  -18.8797   25.3906 C   0  0  0  0  0  0  0  0  0  0  0  0
    7.9445  -19.4323   24.2537 O   0  0  0  0  0  0  0  0  0  0  0  0
    9.2111  -18.2664   25.8219 C   0  0  0  0  0  0  0  0  0  0  0  0
    9.1093  -17.4077   27.0529 C   0  0  2  0  0  0  0  0  0  0  0  0
    9.0556  -15.9829   26.6973 N   0  0  0  0  0  0  0  0  0  0  0  0
   10.1746  -17.6747   28.0299 C   0  0  0  0  0  0  0  0  0  0  0  0
   11.4585  -17.2468   27.7498 O   0  0  0  0  0  0  0  0  0  0  0  0
    9.9616  -18.2743   29.1040 O   0  0  0  0  0  0  0  0  0  0  0  0
  1  2  1  0
  2  4  1  0
  3  2  2  0
  4  5  1  0
  5  6  1  0
  6  7  1  6
  8  9  2  0
  8  6  1  0
 11 10  1  0
 11 12  1  0
 12 14  1  0
 12 13  1  1
 14 15  1  6
 15  8  1  0
 16 23  1  0
 16 14  1  0
 17 16  2  0
 18 19  1  0
 19 21  1  0
 20 19  2  0
 22 21  1  6
 22 23  1  0
 22 24  1  0
 24 25  1  0
 26 24  2  0
M  END
$$$$
