QIN.pdb
     RDKit          3D

 26 25  0  0  1  0  0  0  0  0999 V2000
    4.5163  -19.3972   22.7552 N   0  0  0  0  0  0  0  0  0  0  0  0
    5.9306  -19.5380   22.5710 C   0  0  0  0  0  0  0  0  0  0  0  0
    6.4320  -20.6569   22.6976 O   0  0  0  0  0  0  0  0  0  0  0  0
    6.7024  -18.3485   22.2470 C   0  0  0  0  0  0  0  0  0  0  0  0
    5.9646  -17.0539   22.1592 C   0  0  0  0  0  0  0  0  0  0  0  0
    6.7586  -15.8410   21.8299 C   0  0  2  0  0  0  0  0  0  0  0  0
    7.3074  -15.9175   20.4916 N   0  0  0  0  0  0  0  0  0  0  0  0
    7.6610  -15.3007   22.8474 C   0  0  0  0  0  0  0  0  0  0  0  0
    8.8878  -15.2887   22.5709 O   0  0  0  0  0  0  0  0  0  0  0  0
    5.7367  -11.3848   26.1031 C   0  0  0  0  0  0  0  0  0  0  0  0
    6.7207  -12.2342   25.3017 C   0  0  0  0  0  0  0  0  0  0  0  0
    7.2364  -13.4105   26.0836 C   0  0  2  0  0  0  0  0  0  0  0  0
    8.0984  -12.8490   27.1820 C   0  0  0  0  0  0  0  0  0  0  0  0
    8.0017  -14.3279   25.2030 C   0  0  2  0  0  0  0  0  0  0  0  0
    7.2405  -14.8156   24.0734 N   0  0  0  0  0  0  0  0  0  0  0  0
    8.7768  -15.4091   25.8117 C   0  0  0  0  0  0  0  0  0  0  0  0
    8.1470  -16.5439   25.9188 O   0  0  0  0  0  0  0  0  0  0  0  0
   11.4666  -19.4009   27.4991 N   0  0  0  0  0  0  0  0  0  0  0  0
   10.2274  -18.8246   27.8688 C   0  0  0  0  0  0  0  0  0  0  0  0
    9.4469  -19.5594   28.5388 O   0  0  0  0  0  0  0  0  0  0  0  0
    9.7667  -17.4738   27.5536 C   0  0  0  0  0  0  0  0  0  0  0  0
   10.7180  -16.6543   26.7251 C   0  0  2  0  0  0  0  0  0  0  0  0
   10.0883  -15.4008   26.2869 N   0  0  0  0  0  0  0  0  0  0  0  0
   11.2767  -17.3979   25.5869 C   0  0  0  0  0  0  0  0  0  0  0  0
   12.6425  -17.3686   25.3773 O   0  0  0  0  0  0  0  0  0  0  0  0
   10.5621  -18.0552   24.8022 O   0  0  0  0  0  0  0  0  0  0  0  0
  1  2  1  0
  2  4  1  0
  3  2  2  0
  4  5  1  0
  5  6  1  0
  6  7  1  6
  8  9  2  0
  8  6  1  0
 11 10  1  0
 11 12  1  0
 12 14  1  0
 12 13  1  1
 14 15  1  6
 15  8  1  0
 16 23  1  0
 16 14  1  0
 17 16  2  0
 18 19  1  0
 19 21  1  0
 20 19  2  0
 22 21  1  6
 22 23  1  0
 22 24  1  0
 24 25  1  0
 26 24  2  0
M  END
$$$$
