QIN.pdb
     RDKit          3D

 26 25  0  0  1  0  0  0  0  0999 V2000
   11.1242  -16.7052   18.3607 N   0  0  0  0  0  0  0  0  0  0  0  0
    9.7661  -17.0552   18.0652 C   0  0  0  0  0  0  0  0  0  0  0  0
    9.5064  -17.5176   16.9526 O   0  0  0  0  0  0  0  0  0  0  0  0
    8.7625  -16.8421   19.0961 C   0  0  0  0  0  0  0  0  0  0  0  0
    9.2270  -16.2918   20.4036 C   0  0  0  0  0  0  0  0  0  0  0  0
    8.1858  -15.9851   21.4195 C   0  0  2  0  0  0  0  0  0  0  0  0
    6.9304  -15.6222   20.7947 N   0  0  0  0  0  0  0  0  0  0  0  0
    8.5621  -15.1815   22.5832 C   0  0  0  0  0  0  0  0  0  0  0  0
    9.0301  -14.0364   22.3563 O   0  0  0  0  0  0  0  0  0  0  0  0
    7.1751  -11.6102   26.5522 C   0  0  0  0  0  0  0  0  0  0  0  0
    8.1584  -12.7559   26.3226 C   0  0  0  0  0  0  0  0  0  0  0  0
    7.8255  -13.5645   25.0993 C   0  0  2  0  0  0  0  0  0  0  0  0
    6.3296  -13.7284   25.0891 C   0  0  0  0  0  0  0  0  0  0  0  0
    8.5190  -14.8763   25.1358 C   0  0  2  0  0  0  0  0  0  0  0  0
    8.4340  -15.6112   23.8925 N   0  0  0  0  0  0  0  0  0  0  0  0
    8.2954  -15.7623   26.2783 C   0  0  0  0  0  0  0  0  0  0  0  0
    7.1051  -16.2864   26.3426 O   0  0  0  0  0  0  0  0  0  0  0  0
   10.0112  -20.5913   25.6280 N   0  0  0  0  0  0  0  0  0  0  0  0
   10.6067  -19.4563   26.2291 C   0  0  0  0  0  0  0  0  0  0  0  0
   11.6650  -19.6635   26.8886 O   0  0  0  0  0  0  0  0  0  0  0  0
   10.1206  -18.0795   26.1616 C   0  0  0  0  0  0  0  0  0  0  0  0
    9.5749  -17.5335   27.4527 C   0  0  2  0  0  0  0  0  0  0  0  0
    9.1710  -16.1287   27.3007 N   0  0  0  0  0  0  0  0  0  0  0  0
   10.4966  -17.7048   28.5848 C   0  0  0  0  0  0  0  0  0  0  0  0
   11.4632  -16.7428   28.8089 O   0  0  0  0  0  0  0  0  0  0  0  0
   10.4380  -18.6883   29.3516 O   0  0  0  0  0  0  0  0  0  0  0  0
  1  2  1  0
  2  4  1  0
  3  2  2  0
  4  5  1  0
  5  6  1  0
  6  7  1  6
  8  9  2  0
  8  6  1  0
 11 10  1  0
 11 12  1  0
 12 14  1  0
 12 13  1  1
 14 15  1  6
 15  8  1  0
 16 23  1  0
 16 14  1  0
 17 16  2  0
 18 19  1  0
 19 21  1  0
 20 19  2  0
 22 21  1  6
 22 23  1  0
 22 24  1  0
 24 25  1  0
 26 24  2  0
M  END
$$$$
