YAA.pdb
     RDKit          3D

 23 23  0  0  1  0  0  0  0  0999 V2000
   18.6885  -11.3487  -15.9712 O   0  0  0  0  0  0  0  0  0  0  0  0
   19.7975  -12.1314  -16.2789 C   0  0  0  0  0  0  0  0  0  0  0  0
   21.0836  -11.7249  -16.0363 C   0  0  0  0  0  0  0  0  0  0  0  0
   22.1448  -12.5332  -16.3578 C   0  0  0  0  0  0  0  0  0  0  0  0
   21.9715  -13.7838  -16.9360 C   0  0  0  0  0  0  0  0  0  0  0  0
   23.1545  -14.6173  -17.2637 C   0  0  0  0  0  0  0  0  0  0  0  0
   23.8527  -13.9228  -18.4406 C   0  0  2  0  0  0  0  0  0  0  0  0
   22.9566  -13.9928  -19.5583 N   0  0  0  0  0  0  0  0  0  0  0  0
   25.1468  -14.5404  -18.7467 C   0  0  0  0  0  0  0  0  0  0  0  0
   25.1690  -15.6232  -19.3861 O   0  0  0  0  0  0  0  0  0  0  0  0
   20.6736  -14.1802  -17.1746 C   0  0  0  0  0  0  0  0  0  0  0  0
   19.5821  -13.3821  -16.8591 C   0  0  0  0  0  0  0  0  0  0  0  0
   28.7572  -13.5916  -18.3260 C   0  0  0  0  0  0  0  0  0  0  0  0
   27.6584  -14.6223  -18.5875 C   0  0  2  0  0  0  0  0  0  0  0  0
   26.3790  -13.9818  -18.3597 N   0  0  0  0  0  0  0  0  0  0  0  0
   27.8933  -15.7459  -17.6548 C   0  0  0  0  0  0  0  0  0  0  0  0
   28.8575  -16.5052  -17.8573 O   0  0  0  0  0  0  0  0  0  0  0  0
   26.5864  -16.7090  -14.2714 C   0  0  0  0  0  0  0  0  0  0  0  0
   27.1944  -17.0225  -15.6008 C   0  0  2  0  0  0  0  0  0  0  0  0
   27.0477  -15.9534  -16.5633 N   0  0  0  0  0  0  0  0  0  0  0  0
   26.6411  -18.3056  -16.1334 C   0  0  0  0  0  0  0  0  0  0  0  0
   25.8703  -18.3571  -17.1069 O   0  0  0  0  0  0  0  0  0  0  0  0
   27.0072  -19.4871  -15.5100 O   0  0  0  0  0  0  0  0  0  0  0  0
  2  1  1  0
  2  3  2  0
  4  3  1  0
  5  4  2  0
  6  5  1  0
  7  6  1  0
  7  8  1  6
  9  7  1  0
  9 10  2  0
 11 12  2  0
 11  5  1  0
 12  2  1  0
 14 13  1  1
 14 15  1  0
 15  9  1  0
 16 14  1  0
 16 20  1  0
 17 16  2  0
 19 18  1  1
 19 20  1  0
 19 21  1  0
 21 22  2  0
 21 23  1  0
M  END
$$$$
