YAA.pdb
     RDKit          3D

 23 23  0  0  1  0  0  0  0  0999 V2000
   14.5746  -14.8288  -20.9433 O   0  0  0  0  0  0  0  0  0  0  0  0
   15.4265  -14.1180  -20.1028 C   0  0  0  0  0  0  0  0  0  0  0  0
   15.7291  -14.5303  -18.8313 C   0  0  0  0  0  0  0  0  0  0  0  0
   16.5752  -13.7944  -18.0404 C   0  0  0  0  0  0  0  0  0  0  0  0
   17.1579  -12.6137  -18.4817 C   0  0  0  0  0  0  0  0  0  0  0  0
   18.0658  -11.8569  -17.5848 C   0  0  0  0  0  0  0  0  0  0  0  0
   19.4807  -12.0541  -18.1452 C   0  0  2  0  0  0  0  0  0  0  0  0
   19.8640  -13.4035  -17.8465 N   0  0  0  0  0  0  0  0  0  0  0  0
   20.4282  -11.0867  -17.5830 C   0  0  0  0  0  0  0  0  0  0  0  0
   20.8803  -11.2790  -16.4253 O   0  0  0  0  0  0  0  0  0  0  0  0
   16.8452  -12.2107  -19.7617 C   0  0  0  0  0  0  0  0  0  0  0  0
   15.9924  -12.9363  -20.5827 C   0  0  0  0  0  0  0  0  0  0  0  0
   22.2213   -8.0373  -18.8586 C   0  0  0  0  0  0  0  0  0  0  0  0
   21.8051   -8.9838  -17.7321 C   0  0  2  0  0  0  0  0  0  0  0  0
   20.8642   -9.9420  -18.2757 N   0  0  0  0  0  0  0  0  0  0  0  0
   21.2006   -8.1488  -16.6715 C   0  0  0  0  0  0  0  0  0  0  0  0
   20.0053   -7.8197  -16.7720 O   0  0  0  0  0  0  0  0  0  0  0  0
   22.2854   -7.1117  -13.2197 C   0  0  0  0  0  0  0  0  0  0  0  0
   21.4338   -7.0003  -14.4436 C   0  0  2  0  0  0  0  0  0  0  0  0
   21.9574   -7.7351  -15.5735 N   0  0  0  0  0  0  0  0  0  0  0  0
   21.2137   -5.5628  -14.7918 C   0  0  0  0  0  0  0  0  0  0  0  0
   21.7114   -5.0267  -15.7963 O   0  0  0  0  0  0  0  0  0  0  0  0
   20.4183   -4.7989  -13.9537 O   0  0  0  0  0  0  0  0  0  0  0  0
  2  1  1  0
  2  3  2  0
  4  3  1  0
  5  4  2  0
  6  5  1  0
  7  6  1  0
  7  8  1  1
  9  7  1  0
  9 10  2  0
 11 12  2  0
 11  5  1  0
 12  2  1  0
 14 13  1  6
 14 15  1  0
 15  9  1  0
 16 14  1  0
 16 20  1  0
 17 16  2  0
 19 18  1  1
 19 20  1  0
 19 21  1  0
 21 22  2  0
 21 23  1  0
M  END
$$$$
