YAA.pdb
     RDKit          3D

 23 23  0  0  1  0  0  0  0  0999 V2000
   21.4845  -18.3528  -14.2872 O   0  0  0  0  0  0  0  0  0  0  0  0
   21.0456  -17.2061  -14.9427 C   0  0  0  0  0  0  0  0  0  0  0  0
   20.8545  -16.0108  -14.3001 C   0  0  0  0  0  0  0  0  0  0  0  0
   20.4202  -14.9073  -14.9906 C   0  0  0  0  0  0  0  0  0  0  0  0
   20.1568  -14.9460  -16.3535 C   0  0  0  0  0  0  0  0  0  0  0  0
   19.6890  -13.7229  -17.0511 C   0  0  0  0  0  0  0  0  0  0  0  0
   18.1956  -13.5899  -16.7238 C   0  0  2  0  0  0  0  0  0  0  0  0
   17.5374  -14.7223  -17.3082 N   0  0  0  0  0  0  0  0  0  0  0  0
   17.6402  -12.3271  -17.2201 C   0  0  0  0  0  0  0  0  0  0  0  0
   17.4774  -12.1780  -18.4582 O   0  0  0  0  0  0  0  0  0  0  0  0
   20.3530  -16.1537  -16.9872 C   0  0  0  0  0  0  0  0  0  0  0  0
   20.7917  -17.2852  -16.3125 C   0  0  0  0  0  0  0  0  0  0  0  0
   15.6595   -9.5266  -15.9403 C   0  0  0  0  0  0  0  0  0  0  0  0
   16.7913   -9.9839  -16.8613 C   0  0  2  0  0  0  0  0  0  0  0  0
   17.2753  -11.2608  -16.3774 N   0  0  0  0  0  0  0  0  0  0  0  0
   17.8346   -8.9367  -16.8113 C   0  0  0  0  0  0  0  0  0  0  0  0
   18.6875   -8.9789  -15.9069 O   0  0  0  0  0  0  0  0  0  0  0  0
   18.6989   -5.9481  -18.9749 C   0  0  0  0  0  0  0  0  0  0  0  0
   18.8091   -6.8212  -17.7663 C   0  0  2  0  0  0  0  0  0  0  0  0
   17.8642   -7.9156  -17.7632 N   0  0  0  0  0  0  0  0  0  0  0  0
   18.6862   -6.0007  -16.5222 C   0  0  0  0  0  0  0  0  0  0  0  0
   17.6124   -5.8496  -15.9153 O   0  0  0  0  0  0  0  0  0  0  0  0
   19.8236   -5.3834  -16.0280 O   0  0  0  0  0  0  0  0  0  0  0  0
  2  1  1  0
  2  3  2  0
  4  3  1  0
  5  4  2  0
  6  5  1  0
  7  6  1  0
  7  8  1  6
  9  7  1  0
  9 10  2  0
 11 12  2  0
 11  5  1  0
 12  2  1  0
 14 13  1  1
 14 15  1  0
 15  9  1  0
 16 14  1  0
 16 20  1  0
 17 16  2  0
 19 18  1  6
 19 20  1  0
 19 21  1  0
 21 22  2  0
 21 23  1  0
M  END
$$$$
