YAA.pdb
     RDKit          3D

 23 23  0  0  1  0  0  0  0  0999 V2000
   27.7150  -18.6039   -4.2475 O   0  0  0  0  0  0  0  0  0  0  0  0
   27.5310  -19.1428   -5.5175 C   0  0  0  0  0  0  0  0  0  0  0  0
   27.6031  -20.4877   -5.7710 C   0  0  0  0  0  0  0  0  0  0  0  0
   27.4140  -20.9709   -7.0413 C   0  0  0  0  0  0  0  0  0  0  0  0
   27.1445  -20.1347   -8.1166 C   0  0  0  0  0  0  0  0  0  0  0  0
   26.9485  -20.7103   -9.4700 C   0  0  0  0  0  0  0  0  0  0  0  0
   25.7204  -20.0042  -10.0600 C   0  0  2  0  0  0  0  0  0  0  0  0
   24.5633  -20.6568   -9.5193 N   0  0  0  0  0  0  0  0  0  0  0  0
   25.7245  -20.0394  -11.5258 C   0  0  0  0  0  0  0  0  0  0  0  0
   25.1347  -20.9816  -12.1142 O   0  0  0  0  0  0  0  0  0  0  0  0
   27.0747  -18.7850   -7.8479 C   0  0  0  0  0  0  0  0  0  0  0  0
   27.2619  -18.2698   -6.5722 C   0  0  0  0  0  0  0  0  0  0  0  0
   27.3207  -17.9989  -14.2547 C   0  0  0  0  0  0  0  0  0  0  0  0
   26.3650  -19.0887  -13.7676 C   0  0  2  0  0  0  0  0  0  0  0  0
   26.3594  -19.0659  -12.3190 N   0  0  0  0  0  0  0  0  0  0  0  0
   26.8690  -20.3720  -14.3031 C   0  0  0  0  0  0  0  0  0  0  0  0
   27.9468  -20.8216  -13.8749 O   0  0  0  0  0  0  0  0  0  0  0  0
   25.4100  -23.2764  -16.0634 C   0  0  0  0  0  0  0  0  0  0  0  0
   26.5513  -22.3353  -15.8464 C   0  0  2  0  0  0  0  0  0  0  0  0
   26.1484  -21.0699  -15.2742 N   0  0  0  0  0  0  0  0  0  0  0  0
   27.3053  -22.1333  -17.1218 C   0  0  0  0  0  0  0  0  0  0  0  0
   27.8835  -23.0571  -17.7189 O   0  0  0  0  0  0  0  0  0  0  0  0
   27.3587  -20.8570  -17.6577 O   0  0  0  0  0  0  0  0  0  0  0  0
  2  1  1  0
  2  3  2  0
  4  3  1  0
  5  4  2  0
  6  5  1  0
  7  6  1  0
  7  8  1  1
  9  7  1  0
  9 10  2  0
 11 12  2  0
 11  5  1  0
 12  2  1  0
 14 13  1  6
 14 15  1  0
 15  9  1  0
 16 14  1  0
 16 20  1  0
 17 16  2  0
 19 18  1  6
 19 20  1  0
 19 21  1  0
 21 22  2  0
 21 23  1  0
M  END
$$$$
