YAA.pdb
     RDKit          3D

 23 23  0  0  1  0  0  0  0  0999 V2000
   27.0832  -17.6170  -15.5401 O   0  0  0  0  0  0  0  0  0  0  0  0
   26.6545  -16.3289  -15.8469 C   0  0  0  0  0  0  0  0  0  0  0  0
   26.0372  -15.5146  -14.9337 C   0  0  0  0  0  0  0  0  0  0  0  0
   25.6324  -14.2512  -15.2845 C   0  0  0  0  0  0  0  0  0  0  0  0
   25.8248  -13.7426  -16.5622 C   0  0  0  0  0  0  0  0  0  0  0  0
   25.3674  -12.3693  -16.8881 C   0  0  0  0  0  0  0  0  0  0  0  0
   23.8669  -12.4800  -17.1900 C   0  0  2  0  0  0  0  0  0  0  0  0
   23.7365  -13.2821  -18.3718 N   0  0  0  0  0  0  0  0  0  0  0  0
   23.2477  -11.1620  -17.3609 C   0  0  0  0  0  0  0  0  0  0  0  0
   23.5187  -10.4904  -18.3891 O   0  0  0  0  0  0  0  0  0  0  0  0
   26.4466  -14.5716  -17.4705 C   0  0  0  0  0  0  0  0  0  0  0  0
   26.8660  -15.8538  -17.1417 C   0  0  0  0  0  0  0  0  0  0  0  0
   20.2107   -9.5104  -16.3109 C   0  0  0  0  0  0  0  0  0  0  0  0
   21.6983   -9.3241  -16.6118 C   0  0  2  0  0  0  0  0  0  0  0  0
   22.3568  -10.6013  -16.4271 N   0  0  0  0  0  0  0  0  0  0  0  0
   22.2004   -8.2970  -15.6734 C   0  0  0  0  0  0  0  0  0  0  0  0
   22.5797   -8.6486  -14.5422 O   0  0  0  0  0  0  0  0  0  0  0  0
   22.8412   -4.5713  -15.9350 C   0  0  0  0  0  0  0  0  0  0  0  0
   22.7924   -5.8902  -15.2327 C   0  0  2  0  0  0  0  0  0  0  0  0
   22.2490   -6.9530  -16.0488 N   0  0  0  0  0  0  0  0  0  0  0  0
   22.0427   -5.7636  -13.9451 C   0  0  0  0  0  0  0  0  0  0  0  0
   22.5715   -5.3733  -12.8904 O   0  0  0  0  0  0  0  0  0  0  0  0
   20.6984   -6.0976  -13.9327 O   0  0  0  0  0  0  0  0  0  0  0  0
  2  1  1  0
  2  3  2  0
  4  3  1  0
  5  4  2  0
  6  5  1  0
  7  6  1  0
  7  8  1  6
  9  7  1  0
  9 10  2  0
 11 12  2  0
 11  5  1  0
 12  2  1  0
 14 13  1  1
 14 15  1  0
 15  9  1  0
 16 14  1  0
 16 20  1  0
 17 16  2  0
 19 18  1  6
 19 20  1  0
 19 21  1  0
 21 22  2  0
 21 23  1  0
M  END
$$$$
