YAA.pdb
     RDKit          3D

 23 23  0  0  1  0  0  0  0  0999 V2000
   27.5675  -31.3883  -16.7711 O   0  0  0  0  0  0  0  0  0  0  0  0
   27.3357  -30.0408  -17.0316 C   0  0  0  0  0  0  0  0  0  0  0  0
   28.0303  -29.0347  -16.4123 C   0  0  0  0  0  0  0  0  0  0  0  0
   27.7651  -27.7201  -16.7031 C   0  0  0  0  0  0  0  0  0  0  0  0
   26.7950  -27.3493  -17.6249 C   0  0  0  0  0  0  0  0  0  0  0  0
   26.5488  -25.9126  -17.9018 C   0  0  0  0  0  0  0  0  0  0  0  0
   26.2837  -25.2553  -16.5407 C   0  0  2  0  0  0  0  0  0  0  0  0
   25.0129  -25.7385  -16.0838 N   0  0  0  0  0  0  0  0  0  0  0  0
   26.3045  -23.7919  -16.6299 C   0  0  0  0  0  0  0  0  0  0  0  0
   25.3970  -23.2080  -17.2757 O   0  0  0  0  0  0  0  0  0  0  0  0
   26.1042  -28.3706  -18.2402 C   0  0  0  0  0  0  0  0  0  0  0  0
   26.3526  -29.7085  -17.9644 C   0  0  0  0  0  0  0  0  0  0  0  0
   28.3626  -21.0253  -15.1393 C   0  0  0  0  0  0  0  0  0  0  0  0
   27.3726  -21.5574  -16.1760 C   0  0  2  0  0  0  0  0  0  0  0  0
   27.2955  -22.9963  -16.0257 N   0  0  0  0  0  0  0  0  0  0  0  0
   27.8890  -21.1625  -17.5046 C   0  0  0  0  0  0  0  0  0  0  0  0
   28.3421  -22.0406  -18.2600 O   0  0  0  0  0  0  0  0  0  0  0  0
   29.5052  -20.1429  -19.7125 C   0  0  0  0  0  0  0  0  0  0  0  0
   28.3617  -19.3419  -19.1776 C   0  0  2  0  0  0  0  0  0  0  0  0
   27.8694  -19.8256  -17.9070 N   0  0  0  0  0  0  0  0  0  0  0  0
   27.2623  -19.2702  -20.1886 C   0  0  0  0  0  0  0  0  0  0  0  0
   26.3795  -20.1389  -20.2902 O   0  0  0  0  0  0  0  0  0  0  0  0
   27.2309  -18.1844  -21.0483 O   0  0  0  0  0  0  0  0  0  0  0  0
  2  1  1  0
  2  3  2  0
  4  3  1  0
  5  4  2  0
  6  5  1  0
  7  6  1  0
  7  8  1  6
  9  7  1  0
  9 10  2  0
 11 12  2  0
 11  5  1  0
 12  2  1  0
 14 13  1  1
 14 15  1  0
 15  9  1  0
 16 14  1  0
 16 20  1  0
 17 16  2  0
 19 18  1  6
 19 20  1  0
 19 21  1  0
 21 22  2  0
 21 23  1  0
M  END
$$$$
