YAA.pdb
     RDKit          3D

 23 23  0  0  1  0  0  0  0  0999 V2000
   23.4177  -28.3926  -17.1252 O   0  0  0  0  0  0  0  0  0  0  0  0
   24.6588  -27.7882  -17.3033 C   0  0  0  0  0  0  0  0  0  0  0  0
   25.7899  -28.2096  -16.6543 C   0  0  0  0  0  0  0  0  0  0  0  0
   26.9914  -27.5806  -16.8633 C   0  0  0  0  0  0  0  0  0  0  0  0
   27.1194  -26.5027  -17.7292 C   0  0  0  0  0  0  0  0  0  0  0  0
   28.4429  -25.8592  -17.9183 C   0  0  0  0  0  0  0  0  0  0  0  0
   28.7402  -25.1045  -16.6156 C   0  0  2  0  0  0  0  0  0  0  0  0
   27.7824  -24.0412  -16.5209 N   0  0  0  0  0  0  0  0  0  0  0  0
   30.1153  -24.5970  -16.5825 C   0  0  0  0  0  0  0  0  0  0  0  0
   30.3735  -23.5002  -17.1412 O   0  0  0  0  0  0  0  0  0  0  0  0
   25.9747  -26.0892  -18.3753 C   0  0  0  0  0  0  0  0  0  0  0  0
   24.7467  -26.7077  -18.1819 C   0  0  0  0  0  0  0  0  0  0  0  0
   33.2000  -25.3550  -14.6498 C   0  0  0  0  0  0  0  0  0  0  0  0
   32.5315  -24.7751  -15.8968 C   0  0  2  0  0  0  0  0  0  0  0  0
   31.1739  -25.2776  -15.9529 N   0  0  0  0  0  0  0  0  0  0  0  0
   33.3365  -25.2126  -17.0579 C   0  0  0  0  0  0  0  0  0  0  0  0
   34.5332  -24.8793  -17.1211 O   0  0  0  0  0  0  0  0  0  0  0  0
   32.8957  -27.7195  -19.8066 C   0  0  0  0  0  0  0  0  0  0  0  0
   33.4677  -26.4592  -19.2410 C   0  0  2  0  0  0  0  0  0  0  0  0
   32.7646  -25.9876  -18.0687 N   0  0  0  0  0  0  0  0  0  0  0  0
   33.5282  -25.3998  -20.2946 C   0  0  0  0  0  0  0  0  0  0  0  0
   32.7090  -24.4679  -20.3640 O   0  0  0  0  0  0  0  0  0  0  0  0
   34.5450  -25.4647  -21.2330 O   0  0  0  0  0  0  0  0  0  0  0  0
  2  1  1  0
  2  3  2  0
  4  3  1  0
  5  4  2  0
  6  5  1  0
  7  6  1  0
  7  8  1  6
  9  7  1  0
  9 10  2  0
 11 12  2  0
 11  5  1  0
 12  2  1  0
 14 13  1  1
 14 15  1  0
 15  9  1  0
 16 14  1  0
 16 20  1  0
 17 16  2  0
 19 18  1  6
 19 20  1  0
 19 21  1  0
 21 22  2  0
 21 23  1  0
M  END
$$$$
