YAA.pdb
     RDKit          3D

 23 23  0  0  1  0  0  0  0  0999 V2000
   32.6987  -22.7042  -22.2018 O   0  0  0  0  0  0  0  0  0  0  0  0
   32.7266  -23.4001  -20.9967 C   0  0  0  0  0  0  0  0  0  0  0  0
   31.8373  -24.3981  -20.6949 C   0  0  0  0  0  0  0  0  0  0  0  0
   31.9055  -25.0554  -19.4923 C   0  0  0  0  0  0  0  0  0  0  0  0
   32.8640  -24.7472  -18.5360 C   0  0  0  0  0  0  0  0  0  0  0  0
   32.8928  -25.4896  -17.2517 C   0  0  0  0  0  0  0  0  0  0  0  0
   32.2362  -24.5705  -16.2129 C   0  0  2  0  0  0  0  0  0  0  0  0
   32.4588  -25.1667  -14.9276 N   0  0  0  0  0  0  0  0  0  0  0  0
   30.8071  -24.3811  -16.4801 C   0  0  0  0  0  0  0  0  0  0  0  0
   30.0287  -25.3608  -16.3537 O   0  0  0  0  0  0  0  0  0  0  0  0
   33.7519  -23.7419  -18.8522 C   0  0  0  0  0  0  0  0  0  0  0  0
   33.7050  -23.0611  -20.0613 C   0  0  0  0  0  0  0  0  0  0  0  0
   28.5324  -21.4644  -16.7721 C   0  0  0  0  0  0  0  0  0  0  0  0
   28.8337  -22.9333  -17.0712 C   0  0  2  0  0  0  0  0  0  0  0  0
   30.2527  -23.1494  -16.8745 N   0  0  0  0  0  0  0  0  0  0  0  0
   28.4207  -23.1798  -18.4699 C   0  0  0  0  0  0  0  0  0  0  0  0
   29.2331  -22.9588  -19.3856 O   0  0  0  0  0  0  0  0  0  0  0  0
   26.1045  -25.3865  -20.1608 C   0  0  0  0  0  0  0  0  0  0  0  0
   26.6742  -24.0064  -20.0834 C   0  0  2  0  0  0  0  0  0  0  0  0
   27.1398  -23.6531  -18.7608 N   0  0  0  0  0  0  0  0  0  0  0  0
   25.6825  -23.0080  -20.5892 C   0  0  0  0  0  0  0  0  0  0  0  0
   25.1878  -22.1229  -19.8708 O   0  0  0  0  0  0  0  0  0  0  0  0
   25.3014  -23.0773  -21.9191 O   0  0  0  0  0  0  0  0  0  0  0  0
  2  1  1  0
  2  3  2  0
  4  3  1  0
  5  4  2  0
  6  5  1  0
  7  6  1  0
  7  8  1  1
  9  7  1  0
  9 10  2  0
 11 12  2  0
 11  5  1  0
 12  2  1  0
 14 13  1  6
 14 15  1  0
 15  9  1  0
 16 14  1  0
 16 20  1  0
 17 16  2  0
 19 18  1  1
 19 20  1  0
 19 21  1  0
 21 22  2  0
 21 23  1  0
M  END
$$$$
