YAA.pdb
     RDKit          3D

 23 23  0  0  1  0  0  0  0  0999 V2000
   24.5112  -21.3042   -7.0645 O   0  0  0  0  0  0  0  0  0  0  0  0
   24.7401  -20.9572   -8.3928 C   0  0  0  0  0  0  0  0  0  0  0  0
   25.9453  -20.4808   -8.8386 C   0  0  0  0  0  0  0  0  0  0  0  0
   26.1220  -20.1520  -10.1591 C   0  0  0  0  0  0  0  0  0  0  0  0
   25.1046  -20.2835  -11.0950 C   0  0  0  0  0  0  0  0  0  0  0  0
   25.3498  -19.9133  -12.5107 C   0  0  0  0  0  0  0  0  0  0  0  0
   25.1391  -21.1941  -13.3292 C   0  0  2  0  0  0  0  0  0  0  0  0
   26.3320  -21.9785  -13.1921 N   0  0  0  0  0  0  0  0  0  0  0  0
   24.8454  -20.8993  -14.7351 C   0  0  0  0  0  0  0  0  0  0  0  0
   25.7690  -20.4712  -15.4736 O   0  0  0  0  0  0  0  0  0  0  0  0
   23.8982  -20.7636  -10.6335 C   0  0  0  0  0  0  0  0  0  0  0  0
   23.6927  -21.1035   -9.3031 C   0  0  0  0  0  0  0  0  0  0  0  0
   22.7695  -21.9562  -17.4027 C   0  0  0  0  0  0  0  0  0  0  0  0
   23.2498  -20.7014  -16.6728 C   0  0  2  0  0  0  0  0  0  0  0  0
   23.5724  -21.0710  -15.3097 N   0  0  0  0  0  0  0  0  0  0  0  0
   22.1465  -19.7185  -16.7379 C   0  0  0  0  0  0  0  0  0  0  0  0
   21.3342  -19.6616  -15.7976 O   0  0  0  0  0  0  0  0  0  0  0  0
   21.3628  -16.7614  -18.9217 C   0  0  0  0  0  0  0  0  0  0  0  0
   20.9881  -17.8599  -17.9793 C   0  0  2  0  0  0  0  0  0  0  0  0
   22.0163  -18.8665  -17.8364 N   0  0  0  0  0  0  0  0  0  0  0  0
   19.6879  -18.4736  -18.3904 C   0  0  0  0  0  0  0  0  0  0  0  0
   19.6123  -19.5606  -18.9878 O   0  0  0  0  0  0  0  0  0  0  0  0
   18.5180  -17.7958  -18.0894 O   0  0  0  0  0  0  0  0  0  0  0  0
  2  1  1  0
  2  3  2  0
  4  3  1  0
  5  4  2  0
  6  5  1  0
  7  6  1  0
  7  8  1  6
  9  7  1  0
  9 10  2  0
 11 12  2  0
 11  5  1  0
 12  2  1  0
 14 13  1  6
 14 15  1  0
 15  9  1  0
 16 14  1  0
 16 20  1  0
 17 16  2  0
 19 18  1  6
 19 20  1  0
 19 21  1  0
 21 22  2  0
 21 23  1  0
M  END
$$$$
