YAA.pdb
     RDKit          3D

 23 23  0  0  1  0  0  0  0  0999 V2000
   21.7082  -17.4160  -15.6231 O   0  0  0  0  0  0  0  0  0  0  0  0
   21.9763  -16.0679  -15.4039 C   0  0  0  0  0  0  0  0  0  0  0  0
   22.8370  -15.6306  -14.4312 C   0  0  0  0  0  0  0  0  0  0  0  0
   23.0688  -14.2898  -14.2539 C   0  0  0  0  0  0  0  0  0  0  0  0
   22.4526  -13.3242  -15.0388 C   0  0  0  0  0  0  0  0  0  0  0  0
   22.7392  -11.8874  -14.8043 C   0  0  0  0  0  0  0  0  0  0  0  0
   23.4910  -11.3939  -16.0477 C   0  0  2  0  0  0  0  0  0  0  0  0
   24.8437  -11.8555  -15.9287 N   0  0  0  0  0  0  0  0  0  0  0  0
   23.4278   -9.9349  -16.1783 C   0  0  0  0  0  0  0  0  0  0  0  0
   24.2437   -9.2296  -15.5312 O   0  0  0  0  0  0  0  0  0  0  0  0
   21.5898  -13.7774  -16.0129 C   0  0  0  0  0  0  0  0  0  0  0  0
   21.3375  -15.1279  -16.2134 C   0  0  0  0  0  0  0  0  0  0  0  0
   21.6032   -7.5324  -18.4058 C   0  0  0  0  0  0  0  0  0  0  0  0
   22.4574   -7.8359  -17.1745 C   0  0  2  0  0  0  0  0  0  0  0  0
   22.4940   -9.2733  -16.9970 N   0  0  0  0  0  0  0  0  0  0  0  0
   21.8200   -7.1489  -16.0302 C   0  0  0  0  0  0  0  0  0  0  0  0
   20.8557   -7.6922  -15.4626 O   0  0  0  0  0  0  0  0  0  0  0  0
   22.5767   -3.9681  -14.1138 C   0  0  0  0  0  0  0  0  0  0  0  0
   21.8107   -5.2155  -14.4180 C   0  0  2  0  0  0  0  0  0  0  0  0
   22.2911   -5.9098  -15.5919 N   0  0  0  0  0  0  0  0  0  0  0  0
   20.3510   -4.9116  -14.5325 C   0  0  0  0  0  0  0  0  0  0  0  0
   19.5721   -4.9622  -13.5655 O   0  0  0  0  0  0  0  0  0  0  0  0
   19.8496   -4.5583  -15.7744 O   0  0  0  0  0  0  0  0  0  0  0  0
  2  1  1  0
  2  3  2  0
  4  3  1  0
  5  4  2  0
  6  5  1  0
  7  6  1  0
  7  8  1  1
  9  7  1  0
  9 10  2  0
 11 12  2  0
 11  5  1  0
 12  2  1  0
 14 13  1  6
 14 15  1  0
 15  9  1  0
 16 14  1  0
 16 20  1  0
 17 16  2  0
 19 18  1  6
 19 20  1  0
 19 21  1  0
 21 22  2  0
 21 23  1  0
M  END
$$$$
