YAA.pdb
     RDKit          3D

 23 23  0  0  1  0  0  0  0  0999 V2000
   37.1145  -10.0031  -13.6982 O   0  0  0  0  0  0  0  0  0  0  0  0
   36.0251   -9.4798  -14.3885 C   0  0  0  0  0  0  0  0  0  0  0  0
   35.3505  -10.1818  -15.3530 C   0  0  0  0  0  0  0  0  0  0  0  0
   34.2814   -9.6220  -16.0062 C   0  0  0  0  0  0  0  0  0  0  0  0
   33.8367   -8.3364  -15.7272 C   0  0  0  0  0  0  0  0  0  0  0  0
   32.6752   -7.7796  -16.4637 C   0  0  0  0  0  0  0  0  0  0  0  0
   33.2041   -7.3652  -17.8434 C   0  0  2  0  0  0  0  0  0  0  0  0
   33.9893   -6.1805  -17.6513 N   0  0  0  0  0  0  0  0  0  0  0  0
   32.1147   -7.1419  -18.7990 C   0  0  0  0  0  0  0  0  0  0  0  0
   31.4621   -6.0685  -18.7388 O   0  0  0  0  0  0  0  0  0  0  0  0
   34.5238   -7.6418  -14.7555 C   0  0  0  0  0  0  0  0  0  0  0  0
   35.6084   -8.1845  -14.0795 C   0  0  0  0  0  0  0  0  0  0  0  0
   30.9634   -8.7653  -21.9594 C   0  0  0  0  0  0  0  0  0  0  0  0
   30.7077   -7.8455  -20.7650 C   0  0  2  0  0  0  0  0  0  0  0  0
   31.7556   -8.0733  -19.7908 N   0  0  0  0  0  0  0  0  0  0  0  0
   29.3701   -8.1907  -20.2363 C   0  0  0  0  0  0  0  0  0  0  0  0
   29.2817   -9.0320  -19.3244 O   0  0  0  0  0  0  0  0  0  0  0  0
   25.8443   -7.0073  -20.9653 C   0  0  0  0  0  0  0  0  0  0  0  0
   26.8726   -7.8914  -20.3359 C   0  0  2  0  0  0  0  0  0  0  0  0
   28.2231   -7.5832  -20.7508 N   0  0  0  0  0  0  0  0  0  0  0  0
   26.5461   -9.3282  -20.5910 C   0  0  0  0  0  0  0  0  0  0  0  0
   27.0251   -9.9722  -21.5396 O   0  0  0  0  0  0  0  0  0  0  0  0
   25.6695   -9.9652  -19.7281 O   0  0  0  0  0  0  0  0  0  0  0  0
  2  1  1  0
  2  3  2  0
  4  3  1  0
  5  4  2  0
  6  5  1  0
  7  6  1  0
  7  8  1  1
  9  7  1  0
  9 10  2  0
 11 12  2  0
 11  5  1  0
 12  2  1  0
 14 13  1  6
 14 15  1  0
 15  9  1  0
 16 14  1  0
 16 20  1  0
 17 16  2  0
 19 18  1  6
 19 20  1  0
 19 21  1  0
 21 22  2  0
 21 23  1  0
M  END
$$$$
