YAA.pdb
     RDKit          3D

 23 23  0  0  1  0  0  0  0  0999 V2000
   35.6391   -8.3723   -6.0152 O   0  0  0  0  0  0  0  0  0  0  0  0
   36.9092   -8.5557   -6.5541 C   0  0  0  0  0  0  0  0  0  0  0  0
   37.6908   -7.5152   -6.9837 C   0  0  0  0  0  0  0  0  0  0  0  0
   38.9374   -7.7472   -7.5082 C   0  0  0  0  0  0  0  0  0  0  0  0
   39.4611   -9.0276   -7.6281 C   0  0  0  0  0  0  0  0  0  0  0  0
   40.8152   -9.2219   -8.2028 C   0  0  0  0  0  0  0  0  0  0  0  0
   41.5228  -10.2358   -7.2938 C   0  0  2  0  0  0  0  0  0  0  0  0
   41.8433   -9.5516   -6.0747 N   0  0  0  0  0  0  0  0  0  0  0  0
   42.7198  -10.7943   -7.9302 C   0  0  0  0  0  0  0  0  0  0  0  0
   43.8332  -10.2496   -7.7175 O   0  0  0  0  0  0  0  0  0  0  0  0
   38.6650  -10.0646   -7.1925 C   0  0  0  0  0  0  0  0  0  0  0  0
   37.4004   -9.8576   -6.6580 C   0  0  0  0  0  0  0  0  0  0  0  0
   43.4622  -13.7781  -10.1011 C   0  0  0  0  0  0  0  0  0  0  0  0
   43.8648  -12.4685   -9.4223 C   0  0  2  0  0  0  0  0  0  0  0  0
   42.6907  -11.9191   -8.7753 N   0  0  0  0  0  0  0  0  0  0  0  0
   44.3853  -11.5780  -10.4824 C   0  0  0  0  0  0  0  0  0  0  0  0
   43.5840  -10.8843  -11.1334 O   0  0  0  0  0  0  0  0  0  0  0  0
   47.8481  -10.6627  -11.7120 C   0  0  0  0  0  0  0  0  0  0  0  0
   46.3546  -10.6901  -11.7748 C   0  0  2  0  0  0  0  0  0  0  0  0
   45.7541  -11.5152  -10.7504 N   0  0  0  0  0  0  0  0  0  0  0  0
   45.9015  -11.1087  -13.1370 C   0  0  0  0  0  0  0  0  0  0  0  0
   45.4978  -12.2560  -13.3923 O   0  0  0  0  0  0  0  0  0  0  0  0
   45.9352  -10.1717  -14.1567 O   0  0  0  0  0  0  0  0  0  0  0  0
  2  1  1  0
  2  3  2  0
  4  3  1  0
  5  4  2  0
  6  5  1  0
  7  6  1  0
  7  8  1  1
  9  7  1  0
  9 10  2  0
 11 12  2  0
 11  5  1  0
 12  2  1  0
 14 13  1  6
 14 15  1  0
 15  9  1  0
 16 14  1  0
 16 20  1  0
 17 16  2  0
 19 18  1  6
 19 20  1  0
 19 21  1  0
 21 22  2  0
 21 23  1  0
M  END
$$$$
