VPF.pdb
     RDKit          3D

 26 27  0  0  1  0  0  0  0  0999 V2000
   26.6655  -22.7439  -19.2028 C   0  0  0  0  0  0  0  0  0  0  0  0
   27.8075  -23.7284  -19.0334 C   0  0  1  0  0  0  0  0  0  0  0  0
   28.3141  -24.1252  -20.3938 C   0  0  0  0  0  0  0  0  0  0  0  0
   28.8619  -23.0657  -18.1814 C   0  0  2  0  0  0  0  0  0  0  0  0
   29.9142  -24.0253  -17.9643 N   0  0  0  0  0  0  0  0  0  0  0  0
   28.2656  -22.5339  -16.9376 C   0  0  0  0  0  0  0  0  0  0  0  0
   28.0582  -23.4021  -16.0249 O   0  0  0  0  0  0  0  0  0  0  0  0
   27.9400  -21.1667  -16.7503 N   0  0  0  0  0  0  0  0  0  0  0  0
   28.0573  -20.1227  -17.7207 C   0  0  0  0  0  0  0  0  0  0  0  0
   27.6067  -18.8472  -17.0702 C   0  0  0  0  0  0  0  0  0  0  0  0
   27.6551  -19.1414  -15.5658 C   0  0  0  0  0  0  0  0  0  0  0  0
   27.4324  -20.6218  -15.5248 C   0  0  1  0  0  0  0  0  0  0  0  0
   26.0085  -20.9688  -15.2895 C   0  0  0  0  0  0  0  0  0  0  0  0
   25.2666  -21.0848  -16.2953 O   0  0  0  0  0  0  0  0  0  0  0  0
   25.4523  -21.1725  -14.0118 N   0  0  0  0  0  0  0  0  0  0  0  0
   24.1004  -21.7089  -13.8983 C   0  0  1  0  0  0  0  0  0  0  0  0
   23.9758  -22.6157  -12.7178 C   0  0  0  0  0  0  0  0  0  0  0  0
   24.4211  -21.9896  -11.4627 C   0  0  0  0  0  0  0  0  0  0  0  0
   25.7337  -22.0404  -11.0447 C   0  0  0  0  0  0  0  0  0  0  0  0
   26.1532  -21.4478   -9.8716 C   0  0  0  0  0  0  0  0  0  0  0  0
   25.2794  -20.7793   -9.0659 C   0  0  0  0  0  0  0  0  0  0  0  0
   23.9569  -20.7068   -9.4502 C   0  0  0  0  0  0  0  0  0  0  0  0
   23.5440  -21.3006  -10.6231 C   0  0  0  0  0  0  0  0  0  0  0  0
   23.1719  -20.5717  -13.7603 C   0  0  0  0  0  0  0  0  0  0  0  0
   21.7886  -20.6576  -13.9488 O   0  0  0  0  0  0  0  0  0  0  0  0
   23.6455  -19.4282  -13.4517 O   0  0  0  0  0  0  0  0  0  0  0  0
  2  3  1  6
  2  1  1  0
  4  6  1  0
  4  2  1  0
  4  5  1  1
  6  8  1  0
  7  6  2  0
  8 12  1  0
  8  9  1  0
  9 10  1  0
 10 11  1  0
 12 11  1  0
 12 13  1  6
 14 13  2  0
 15 13  1  0
 16 24  1  0
 16 15  1  0
 16 17  1  1
 18 19  2  0
 18 17  1  0
 20 19  1  0
 21 20  2  0
 22 21  1  0
 22 23  2  0
 23 18  1  0
 24 25  1  0
 26 24  2  0
M  END
$$$$
