VPF.pdb
     RDKit          3D

 26 27  0  0  1  0  0  0  0  0999 V2000
   27.2065  -16.8114  -13.5139 C   0  0  0  0  0  0  0  0  0  0  0  0
   25.9357  -16.8104  -14.3428 C   0  0  1  0  0  0  0  0  0  0  0  0
   26.0774  -15.8011  -15.4501 C   0  0  0  0  0  0  0  0  0  0  0  0
   25.7174  -18.2150  -14.8494 C   0  0  2  0  0  0  0  0  0  0  0  0
   24.5532  -18.1971  -15.6975 N   0  0  0  0  0  0  0  0  0  0  0  0
   25.6259  -19.1655  -13.7208 C   0  0  0  0  0  0  0  0  0  0  0  0
   24.5316  -19.1202  -13.0651 O   0  0  0  0  0  0  0  0  0  0  0  0
   26.6629  -20.0682  -13.3743 N   0  0  0  0  0  0  0  0  0  0  0  0
   27.9643  -20.1370  -13.9635 C   0  0  0  0  0  0  0  0  0  0  0  0
   28.7110  -21.2476  -13.2838 C   0  0  0  0  0  0  0  0  0  0  0  0
   27.6226  -22.0848  -12.6005 C   0  0  0  0  0  0  0  0  0  0  0  0
   26.5495  -21.0696  -12.3541 C   0  0  1  0  0  0  0  0  0  0  0  0
   26.6176  -20.5023  -10.9841 C   0  0  0  0  0  0  0  0  0  0  0  0
   27.5000  -19.6387  -10.7577 O   0  0  0  0  0  0  0  0  0  0  0  0
   25.7542  -20.8775   -9.9367 N   0  0  0  0  0  0  0  0  0  0  0  0
   26.2678  -20.9327   -8.5724 C   0  0  1  0  0  0  0  0  0  0  0  0
   26.8712  -19.6272   -8.1685 C   0  0  0  0  0  0  0  0  0  0  0  0
   27.4580  -19.6582   -6.8193 C   0  0  0  0  0  0  0  0  0  0  0  0
   27.5346  -20.8196   -6.0808 C   0  0  0  0  0  0  0  0  0  0  0  0
   28.0908  -20.8507   -4.8187 C   0  0  0  0  0  0  0  0  0  0  0  0
   28.5940  -19.7230   -4.2404 C   0  0  0  0  0  0  0  0  0  0  0  0
   28.5354  -18.5408   -4.9481 C   0  0  0  0  0  0  0  0  0  0  0  0
   27.9787  -18.5161   -6.2083 C   0  0  0  0  0  0  0  0  0  0  0  0
   25.1437  -21.2662   -7.6782 C   0  0  0  0  0  0  0  0  0  0  0  0
   25.2848  -21.8971   -6.4379 O   0  0  0  0  0  0  0  0  0  0  0  0
   23.9591  -20.9687   -8.0463 O   0  0  0  0  0  0  0  0  0  0  0  0
  2  3  1  6
  2  1  1  0
  4  6  1  0
  4  2  1  0
  4  5  1  1
  6  8  1  0
  7  6  2  0
  8 12  1  0
  8  9  1  0
  9 10  1  0
 10 11  1  0
 12 11  1  0
 12 13  1  1
 14 13  2  0
 15 13  1  0
 16 24  1  0
 16 15  1  0
 16 17  1  1
 18 19  2  0
 18 17  1  0
 20 19  1  0
 21 20  2  0
 22 21  1  0
 22 23  2  0
 23 18  1  0
 24 25  1  0
 26 24  2  0
M  END
$$$$
