VPF.pdb
     RDKit          3D

 26 27  0  0  1  0  0  0  0  0999 V2000
   24.2799  -20.0560  -17.1926 C   0  0  0  0  0  0  0  0  0  0  0  0
   25.3123  -20.5498  -18.1888 C   0  0  1  0  0  0  0  0  0  0  0  0
   24.7563  -20.4030  -19.5795 C   0  0  0  0  0  0  0  0  0  0  0  0
   26.5762  -19.7544  -17.9718 C   0  0  2  0  0  0  0  0  0  0  0  0
   27.5683  -20.2523  -18.8900 N   0  0  0  0  0  0  0  0  0  0  0  0
   26.9873  -19.8097  -16.5529 C   0  0  0  0  0  0  0  0  0  0  0  0
   27.5653  -20.8920  -16.2006 O   0  0  0  0  0  0  0  0  0  0  0  0
   26.7661  -18.7526  -15.6342 N   0  0  0  0  0  0  0  0  0  0  0  0
   26.1588  -17.4895  -15.9195 C   0  0  0  0  0  0  0  0  0  0  0  0
   26.1470  -16.6948  -14.6462 C   0  0  0  0  0  0  0  0  0  0  0  0
   27.1730  -17.3925  -13.7446 C   0  0  0  0  0  0  0  0  0  0  0  0
   27.1312  -18.8022  -14.2483 C   0  0  1  0  0  0  0  0  0  0  0  0
   26.2216  -19.6581  -13.4462 C   0  0  0  0  0  0  0  0  0  0  0  0
   25.0375  -19.7782  -13.8449 O   0  0  0  0  0  0  0  0  0  0  0  0
   26.6127  -20.3349  -12.2747 N   0  0  0  0  0  0  0  0  0  0  0  0
   25.6572  -21.2073  -11.6009 C   0  0  1  0  0  0  0  0  0  0  0  0
   26.3176  -22.0013  -10.5216 C   0  0  0  0  0  0  0  0  0  0  0  0
   26.8938  -21.1604   -9.4602 C   0  0  0  0  0  0  0  0  0  0  0  0
   26.1062  -20.4333   -8.5936 C   0  0  0  0  0  0  0  0  0  0  0  0
   26.6456  -19.6502   -7.5940 C   0  0  0  0  0  0  0  0  0  0  0  0
   27.9947  -19.5599   -7.4176 C   0  0  0  0  0  0  0  0  0  0  0  0
   28.8162  -20.2728   -8.2654 C   0  0  0  0  0  0  0  0  0  0  0  0
   28.2716  -21.0533   -9.2619 C   0  0  0  0  0  0  0  0  0  0  0  0
   24.5969  -20.3593  -11.0255 C   0  0  0  0  0  0  0  0  0  0  0  0
   23.3031  -20.8047  -10.7355 O   0  0  0  0  0  0  0  0  0  0  0  0
   24.8601  -19.1371  -10.7722 O   0  0  0  0  0  0  0  0  0  0  0  0
  2  3  1  6
  2  1  1  0
  4  6  1  0
  4  2  1  0
  4  5  1  6
  6  8  1  0
  7  6  2  0
  8 12  1  0
  8  9  1  0
  9 10  1  0
 10 11  1  0
 12 11  1  0
 12 13  1  1
 14 13  2  0
 15 13  1  0
 16 24  1  0
 16 15  1  0
 16 17  1  1
 18 19  2  0
 18 17  1  0
 20 19  1  0
 21 20  2  0
 22 21  1  0
 22 23  2  0
 23 18  1  0
 24 25  1  0
 26 24  2  0
M  END
$$$$
