VPF.pdb
     RDKit          3D

 26 27  0  0  1  0  0  0  0  0999 V2000
   28.7782  -18.9164  -13.9233 C   0  0  0  0  0  0  0  0  0  0  0  0
   27.8700  -17.8785  -14.5556 C   0  0  1  0  0  0  0  0  0  0  0  0
   28.5183  -17.3654  -15.8131 C   0  0  0  0  0  0  0  0  0  0  0  0
   26.5323  -18.5307  -14.8053 C   0  0  2  0  0  0  0  0  0  0  0  0
   25.6695  -17.5428  -15.4010 N   0  0  0  0  0  0  0  0  0  0  0  0
   26.0014  -19.1205  -13.5581 C   0  0  0  0  0  0  0  0  0  0  0  0
   25.5072  -18.2816  -12.7325 O   0  0  0  0  0  0  0  0  0  0  0  0
   26.0288  -20.5102  -13.2783 N   0  0  0  0  0  0  0  0  0  0  0  0
   26.4938  -21.5452  -14.1489 C   0  0  0  0  0  0  0  0  0  0  0  0
   26.3224  -22.8521  -13.4308 C   0  0  0  0  0  0  0  0  0  0  0  0
   25.3318  -22.5461  -12.3006 C   0  0  0  0  0  0  0  0  0  0  0  0
   25.5803  -21.0913  -12.0463 C   0  0  1  0  0  0  0  0  0  0  0  0
   26.5324  -20.8715  -10.9289 C   0  0  0  0  0  0  0  0  0  0  0  0
   27.7508  -21.0663  -11.1590 O   0  0  0  0  0  0  0  0  0  0  0  0
   26.1451  -20.4604   -9.6388 N   0  0  0  0  0  0  0  0  0  0  0  0
   26.8217  -21.0247   -8.4760 C   0  0  1  0  0  0  0  0  0  0  0  0
   28.0950  -20.2993   -8.1865 C   0  0  0  0  0  0  0  0  0  0  0  0
   28.2561  -19.9671   -6.7619 C   0  0  0  0  0  0  0  0  0  0  0  0
   28.9809  -20.7639   -5.9017 C   0  0  0  0  0  0  0  0  0  0  0  0
   29.1380  -20.4494   -4.5677 C   0  0  0  0  0  0  0  0  0  0  0  0
   28.5776  -19.3257   -4.0359 C   0  0  0  0  0  0  0  0  0  0  0  0
   27.8446  -18.5029   -4.8651 C   0  0  0  0  0  0  0  0  0  0  0  0
   27.6913  -18.8223   -6.1967 C   0  0  0  0  0  0  0  0  0  0  0  0
   25.9077  -20.9176   -7.3238 C   0  0  0  0  0  0  0  0  0  0  0  0
   26.0336  -21.6632   -6.1471 O   0  0  0  0  0  0  0  0  0  0  0  0
   24.9326  -20.0979   -7.3896 O   0  0  0  0  0  0  0  0  0  0  0  0
  2  3  1  6
  2  1  1  0
  4  6  1  0
  4  2  1  0
  4  5  1  1
  6  8  1  0
  7  6  2  0
  8 12  1  0
  8  9  1  0
  9 10  1  0
 10 11  1  0
 12 11  1  0
 12 13  1  1
 14 13  2  0
 15 13  1  0
 16 24  1  0
 16 15  1  0
 16 17  1  1
 18 19  2  0
 18 17  1  0
 20 19  1  0
 21 20  2  0
 22 21  1  0
 22 23  2  0
 23 18  1  0
 24 25  1  0
 26 24  2  0
M  END
$$$$
