VPF.pdb
     RDKit          3D

 26 27  0  0  1  0  0  0  0  0999 V2000
   22.7180  -21.1975  -14.2056 C   0  0  0  0  0  0  0  0  0  0  0  0
   23.4909  -20.2437  -15.0973 C   0  0  1  0  0  0  0  0  0  0  0  0
   23.7540  -18.9717  -14.3372 C   0  0  0  0  0  0  0  0  0  0  0  0
   24.7552  -20.9440  -15.5310 C   0  0  2  0  0  0  0  0  0  0  0  0
   24.3737  -22.0661  -16.3499 N   0  0  0  0  0  0  0  0  0  0  0  0
   25.5766  -21.3071  -14.3567 C   0  0  0  0  0  0  0  0  0  0  0  0
   25.2956  -22.4355  -13.8301 O   0  0  0  0  0  0  0  0  0  0  0  0
   26.6041  -20.4798  -13.8368 N   0  0  0  0  0  0  0  0  0  0  0  0
   27.0453  -19.2302  -14.3746 C   0  0  0  0  0  0  0  0  0  0  0  0
   28.1545  -18.7262  -13.4979 C   0  0  0  0  0  0  0  0  0  0  0  0
   28.6139  -19.9579  -12.7078 C   0  0  0  0  0  0  0  0  0  0  0  0
   27.3687  -20.7889  -12.6636 C   0  0  1  0  0  0  0  0  0  0  0  0
   26.6018  -20.5845  -11.4093 C   0  0  0  0  0  0  0  0  0  0  0  0
   25.6200  -19.8037  -11.4511 O   0  0  0  0  0  0  0  0  0  0  0  0
   26.9141  -21.2135  -10.1885 N   0  0  0  0  0  0  0  0  0  0  0  0
   25.9597  -21.1492   -9.0870 C   0  0  1  0  0  0  0  0  0  0  0  0
   26.5078  -21.7979   -7.8581 C   0  0  0  0  0  0  0  0  0  0  0  0
   27.3218  -20.8845   -7.0404 C   0  0  0  0  0  0  0  0  0  0  0  0
   26.9189  -19.5961   -6.7610 C   0  0  0  0  0  0  0  0  0  0  0  0
   27.6782  -18.7416   -5.9887 C   0  0  0  0  0  0  0  0  0  0  0  0
   28.8725  -19.1374   -5.4628 C   0  0  0  0  0  0  0  0  0  0  0  0
   29.3099  -20.4196   -5.7204 C   0  0  0  0  0  0  0  0  0  0  0  0
   28.5469  -21.2686   -6.4923 C   0  0  0  0  0  0  0  0  0  0  0  0
   25.6707  -19.7280   -8.8203 C   0  0  0  0  0  0  0  0  0  0  0  0
   26.6006  -18.6940   -8.9705 O   0  0  0  0  0  0  0  0  0  0  0  0
   24.5023  -19.4045   -8.4240 O   0  0  0  0  0  0  0  0  0  0  0  0
  2  3  1  1
  2  1  1  0
  4  6  1  0
  4  2  1  0
  4  5  1  1
  6  8  1  0
  7  6  2  0
  8 12  1  0
  8  9  1  0
  9 10  1  0
 10 11  1  0
 12 11  1  0
 12 13  1  1
 14 13  2  0
 15 13  1  0
 16 24  1  0
 16 15  1  0
 16 17  1  1
 18 19  2  0
 18 17  1  0
 20 19  1  0
 21 20  2  0
 22 21  1  0
 22 23  2  0
 23 18  1  0
 24 25  1  0
 26 24  2  0
M  END
$$$$
