VPF.pdb
     RDKit          3D

 26 27  0  0  1  0  0  0  0  0999 V2000
   23.9258  -19.8518  -17.1525 C   0  0  0  0  0  0  0  0  0  0  0  0
   24.8298  -20.4182  -18.2315 C   0  0  1  0  0  0  0  0  0  0  0  0
   24.2292  -20.1161  -19.5780 C   0  0  0  0  0  0  0  0  0  0  0  0
   26.1995  -19.8122  -18.0472 C   0  0  2  0  0  0  0  0  0  0  0  0
   27.0811  -20.4263  -19.0066 N   0  0  0  0  0  0  0  0  0  0  0  0
   26.6445  -19.9522  -16.6444 C   0  0  0  0  0  0  0  0  0  0  0  0
   27.0692  -21.1133  -16.3267 O   0  0  0  0  0  0  0  0  0  0  0  0
   26.6109  -18.8907  -15.7050 N   0  0  0  0  0  0  0  0  0  0  0  0
   26.1463  -17.5588  -15.9413 C   0  0  0  0  0  0  0  0  0  0  0  0
   26.3097  -16.7888  -14.6633 C   0  0  0  0  0  0  0  0  0  0  0  0
   27.2959  -17.6201  -13.8335 C   0  0  0  0  0  0  0  0  0  0  0  0
   27.0513  -19.0062  -14.3452 C   0  0  1  0  0  0  0  0  0  0  0  0
   26.0947  -19.7577  -13.4947 C   0  0  0  0  0  0  0  0  0  0  0  0
   24.8892  -19.7631  -13.8442 O   0  0  0  0  0  0  0  0  0  0  0  0
   26.4642  -20.4573  -12.3296 N   0  0  0  0  0  0  0  0  0  0  0  0
   25.4591  -21.2373  -11.6156 C   0  0  1  0  0  0  0  0  0  0  0  0
   26.0752  -22.0304  -10.5099 C   0  0  0  0  0  0  0  0  0  0  0  0
   26.7517  -21.1909   -9.5083 C   0  0  0  0  0  0  0  0  0  0  0  0
   26.0510  -20.4314   -8.5959 C   0  0  0  0  0  0  0  0  0  0  0  0
   26.6846  -19.6496   -7.6523 C   0  0  0  0  0  0  0  0  0  0  0  0
   28.0451  -19.5929   -7.5798 C   0  0  0  0  0  0  0  0  0  0  0  0
   28.7814  -20.3388   -8.4760 C   0  0  0  0  0  0  0  0  0  0  0  0
   28.1428  -21.1179   -9.4162 C   0  0  0  0  0  0  0  0  0  0  0  0
   24.4624  -20.2987  -11.0676 C   0  0  0  0  0  0  0  0  0  0  0  0
   23.1494  -20.6493  -10.7370 O   0  0  0  0  0  0  0  0  0  0  0  0
   24.8036  -19.0841  -10.8792 O   0  0  0  0  0  0  0  0  0  0  0  0
  2  3  1  6
  2  1  1  0
  4  6  1  0
  4  2  1  0
  4  5  1  6
  6  8  1  0
  7  6  2  0
  8 12  1  0
  8  9  1  0
  9 10  1  0
 10 11  1  0
 12 11  1  0
 12 13  1  1
 14 13  2  0
 15 13  1  0
 16 24  1  0
 16 15  1  0
 16 17  1  1
 18 19  2  0
 18 17  1  0
 20 19  1  0
 21 20  2  0
 22 21  1  0
 22 23  2  0
 23 18  1  0
 24 25  1  0
 26 24  2  0
M  END
$$$$
