VPF.pdb
     RDKit          3D

 26 27  0  0  1  0  0  0  0  0999 V2000
   20.1602   -8.1145  -20.4492 C   0  0  0  0  0  0  0  0  0  0  0  0
   19.5373   -9.4779  -20.2138 C   0  0  1  0  0  0  0  0  0  0  0  0
   18.9896   -9.9945  -21.5169 C   0  0  0  0  0  0  0  0  0  0  0  0
   20.6004  -10.3723  -19.6248 C   0  0  2  0  0  0  0  0  0  0  0  0
   19.9988  -11.6564  -19.3707 N   0  0  0  0  0  0  0  0  0  0  0  0
   21.2048   -9.7437  -18.4311 C   0  0  0  0  0  0  0  0  0  0  0  0
   20.4884   -9.7910  -17.3755 O   0  0  0  0  0  0  0  0  0  0  0  0
   22.4821   -9.1283  -18.4350 N   0  0  0  0  0  0  0  0  0  0  0  0
   23.3930   -9.0641  -19.5358 C   0  0  0  0  0  0  0  0  0  0  0  0
   24.6143   -8.3259  -19.0704 C   0  0  0  0  0  0  0  0  0  0  0  0
   24.5338   -8.3700  -17.5395 C   0  0  0  0  0  0  0  0  0  0  0  0
   23.0581   -8.4641  -17.3021 C   0  0  1  0  0  0  0  0  0  0  0  0
   22.4456   -7.1370  -17.0433 C   0  0  0  0  0  0  0  0  0  0  0  0
   22.0702   -6.4684  -18.0370 O   0  0  0  0  0  0  0  0  0  0  0  0
   22.2654   -6.5946  -15.7561 N   0  0  0  0  0  0  0  0  0  0  0  0
   21.5914   -5.3090  -15.6104 C   0  0  1  0  0  0  0  0  0  0  0  0
   20.2374   -5.4743  -15.0015 C   0  0  0  0  0  0  0  0  0  0  0  0
   20.2120   -6.4704  -13.9186 C   0  0  0  0  0  0  0  0  0  0  0  0
   20.7097   -6.1987  -12.6621 C   0  0  0  0  0  0  0  0  0  0  0  0
   20.6799   -7.1297  -11.6445 C   0  0  0  0  0  0  0  0  0  0  0  0
   20.1519   -8.3719  -11.8385 C   0  0  0  0  0  0  0  0  0  0  0  0
   19.6440   -8.6816  -13.0827 C   0  0  0  0  0  0  0  0  0  0  0  0
   19.6765   -7.7475  -14.0951 C   0  0  0  0  0  0  0  0  0  0  0  0
   22.4295   -4.4530  -14.7506 C   0  0  0  0  0  0  0  0  0  0  0  0
   23.5823   -4.8895  -14.0896 O   0  0  0  0  0  0  0  0  0  0  0  0
   22.0935   -3.2334  -14.5869 O   0  0  0  0  0  0  0  0  0  0  0  0
  2  3  1  6
  2  1  1  0
  4  6  1  0
  4  2  1  0
  4  5  1  1
  6  8  1  0
  7  6  2  0
  8 12  1  0
  8  9  1  0
  9 10  1  0
 10 11  1  0
 12 11  1  0
 12 13  1  6
 14 13  2  0
 15 13  1  0
 16 24  1  0
 16 15  1  0
 16 17  1  1
 18 19  2  0
 18 17  1  0
 20 19  1  0
 21 20  2  0
 22 21  1  0
 22 23  2  0
 23 18  1  0
 24 25  1  0
 26 24  2  0
M  END
$$$$
