VPF.pdb
     RDKit          3D

 26 27  0  0  1  0  0  0  0  0999 V2000
   25.2247  -23.8964  -13.8175 C   0  0  0  0  0  0  0  0  0  0  0  0
   26.1632  -23.4199  -14.9103 C   0  0  1  0  0  0  0  0  0  0  0  0
   26.0887  -24.3784  -16.0683 C   0  0  0  0  0  0  0  0  0  0  0  0
   25.7590  -22.0142  -15.2813 C   0  0  2  0  0  0  0  0  0  0  0  0
   26.6968  -21.5355  -16.2644 N   0  0  0  0  0  0  0  0  0  0  0  0
   25.6657  -21.1653  -14.0746 C   0  0  0  0  0  0  0  0  0  0  0  0
   26.7340  -20.5340  -13.7754 O   0  0  0  0  0  0  0  0  0  0  0  0
   24.4887  -21.0464  -13.2929 N   0  0  0  0  0  0  0  0  0  0  0  0
   23.2807  -21.7951  -13.4531 C   0  0  0  0  0  0  0  0  0  0  0  0
   22.3125  -21.3213  -12.4085 C   0  0  0  0  0  0  0  0  0  0  0  0
   22.8719  -19.9702  -11.9461 C   0  0  0  0  0  0  0  0  0  0  0  0
   24.3392  -20.1311  -12.1991 C   0  0  1  0  0  0  0  0  0  0  0  0
   25.0739  -20.5645  -10.9844 C   0  0  0  0  0  0  0  0  0  0  0  0
   25.1825  -21.7986  -10.7824 O   0  0  0  0  0  0  0  0  0  0  0  0
   25.6492  -19.6743  -10.0571 N   0  0  0  0  0  0  0  0  0  0  0  0
   26.3165  -20.2073   -8.8743 C   0  0  1  0  0  0  0  0  0  0  0  0
   27.2738  -19.2147   -8.3001 C   0  0  0  0  0  0  0  0  0  0  0  0
   27.9016  -19.6774   -7.0521 C   0  0  0  0  0  0  0  0  0  0  0  0
   28.9730  -20.5446   -7.0493 C   0  0  0  0  0  0  0  0  0  0  0  0
   29.5664  -20.9733   -5.8799 C   0  0  0  0  0  0  0  0  0  0  0  0
   29.1147  -20.5541   -4.6635 C   0  0  0  0  0  0  0  0  0  0  0  0
   28.0439  -19.6859   -4.6250 C   0  0  0  0  0  0  0  0  0  0  0  0
   27.4555  -19.2612   -5.7964 C   0  0  0  0  0  0  0  0  0  0  0  0
   25.2793  -20.5402   -7.8804 C   0  0  0  0  0  0  0  0  0  0  0  0
   25.4084  -21.5426   -6.9136 O   0  0  0  0  0  0  0  0  0  0  0  0
   24.1867  -19.8819   -7.8913 O   0  0  0  0  0  0  0  0  0  0  0  0
  2  3  1  6
  2  1  1  0
  4  6  1  0
  4  2  1  0
  4  5  1  6
  6  8  1  0
  7  6  2  0
  8 12  1  0
  8  9  1  0
  9 10  1  0
 10 11  1  0
 12 11  1  0
 12 13  1  1
 14 13  2  0
 15 13  1  0
 16 24  1  0
 16 15  1  0
 16 17  1  1
 18 19  2  0
 18 17  1  0
 20 19  1  0
 21 20  2  0
 22 21  1  0
 22 23  2  0
 23 18  1  0
 24 25  1  0
 26 24  2  0
M  END
$$$$
