VPF.pdb
     RDKit          3D

 26 27  0  0  1  0  0  0  0  0999 V2000
   26.8025  -17.1294  -14.2866 C   0  0  0  0  0  0  0  0  0  0  0  0
   26.4525  -16.8423  -15.7348 C   0  0  1  0  0  0  0  0  0  0  0  0
   27.2371  -15.6441  -16.1971 C   0  0  0  0  0  0  0  0  0  0  0  0
   26.7506  -18.0869  -16.5342 C   0  0  2  0  0  0  0  0  0  0  0  0
   26.5309  -17.7763  -17.9236 N   0  0  0  0  0  0  0  0  0  0  0  0
   25.9504  -19.2267  -16.0380 C   0  0  0  0  0  0  0  0  0  0  0  0
   24.7136  -19.1947  -16.3526 O   0  0  0  0  0  0  0  0  0  0  0  0
   26.4943  -20.2863  -15.2688 N   0  0  0  0  0  0  0  0  0  0  0  0
   27.8311  -20.3764  -14.7683 C   0  0  0  0  0  0  0  0  0  0  0  0
   27.9488  -21.6734  -14.0221 C   0  0  0  0  0  0  0  0  0  0  0  0
   26.7555  -22.5075  -14.5045 C   0  0  0  0  0  0  0  0  0  0  0  0
   25.7590  -21.4521  -14.8729 C   0  0  1  0  0  0  0  0  0  0  0  0
   24.7992  -21.1785  -13.7741 C   0  0  0  0  0  0  0  0  0  0  0  0
   25.2507  -21.1539  -12.6031 O   0  0  0  0  0  0  0  0  0  0  0  0
   23.4244  -20.9475  -13.9738 N   0  0  0  0  0  0  0  0  0  0  0  0
   22.5271  -20.9378  -12.8236 C   0  0  1  0  0  0  0  0  0  0  0  0
   22.8198  -19.7858  -11.9190 C   0  0  0  0  0  0  0  0  0  0  0  0
   23.6715  -20.1540  -10.7767 C   0  0  0  0  0  0  0  0  0  0  0  0
   23.1868  -20.8690   -9.7026 C   0  0  0  0  0  0  0  0  0  0  0  0
   23.9863  -21.2205   -8.6347 C   0  0  0  0  0  0  0  0  0  0  0  0
   25.3042  -20.8725   -8.5941 C   0  0  0  0  0  0  0  0  0  0  0  0
   25.8263  -20.1562   -9.6506 C   0  0  0  0  0  0  0  0  0  0  0  0
   25.0227  -19.8082  -10.7145 C   0  0  0  0  0  0  0  0  0  0  0  0
   21.1447  -20.8436  -13.3282 C   0  0  0  0  0  0  0  0  0  0  0  0
   20.7933  -20.2857  -14.5618 O   0  0  0  0  0  0  0  0  0  0  0  0
   20.1961  -21.2933  -12.6036 O   0  0  0  0  0  0  0  0  0  0  0  0
  2  3  1  6
  2  1  1  0
  4  6  1  0
  4  2  1  0
  4  5  1  6
  6  8  1  0
  7  6  2  0
  8 12  1  0
  8  9  1  0
  9 10  1  0
 10 11  1  0
 12 11  1  0
 12 13  1  1
 14 13  2  0
 15 13  1  0
 16 24  1  0
 16 15  1  0
 16 17  1  1
 18 19  2  0
 18 17  1  0
 20 19  1  0
 21 20  2  0
 22 21  1  0
 22 23  2  0
 23 18  1  0
 24 25  1  0
 26 24  2  0
M  END
$$$$
