VPF.pdb
     RDKit          3D

 26 27  0  0  1  0  0  0  0  0999 V2000
   26.9926  -16.9181  -14.1772 C   0  0  0  0  0  0  0  0  0  0  0  0
   25.6902  -16.7036  -14.9254 C   0  0  1  0  0  0  0  0  0  0  0  0
   25.9648  -15.8802  -16.1548 C   0  0  0  0  0  0  0  0  0  0  0  0
   25.1138  -18.0619  -15.2416 C   0  0  2  0  0  0  0  0  0  0  0  0
   23.8684  -17.8566  -15.9358 N   0  0  0  0  0  0  0  0  0  0  0  0
   24.9913  -18.8730  -14.0117 C   0  0  0  0  0  0  0  0  0  0  0  0
   24.0833  -18.4890  -13.2008 O   0  0  0  0  0  0  0  0  0  0  0  0
   25.8099  -19.9965  -13.7327 N   0  0  0  0  0  0  0  0  0  0  0  0
   26.8186  -20.5476  -14.5838 C   0  0  0  0  0  0  0  0  0  0  0  0
   27.4123  -21.7302  -13.8753 C   0  0  0  0  0  0  0  0  0  0  0  0
   26.3898  -22.0841  -12.7884 C   0  0  0  0  0  0  0  0  0  0  0  0
   25.7396  -20.7616  -12.5219 C   0  0  1  0  0  0  0  0  0  0  0  0
   26.3487  -20.0599  -11.3643 C   0  0  0  0  0  0  0  0  0  0  0  0
   27.3018  -19.2772  -11.5973 O   0  0  0  0  0  0  0  0  0  0  0  0
   25.9183  -20.2241  -10.0334 N   0  0  0  0  0  0  0  0  0  0  0  0
   26.8639  -20.0043   -8.9445 C   0  0  1  0  0  0  0  0  0  0  0  0
   26.1543  -19.7696   -7.6512 C   0  0  0  0  0  0  0  0  0  0  0  0
   27.0734  -19.5544   -6.5222 C   0  0  0  0  0  0  0  0  0  0  0  0
   27.2524  -20.4983   -5.5337 C   0  0  0  0  0  0  0  0  0  0  0  0
   28.1190  -20.3001   -4.4787 C   0  0  0  0  0  0  0  0  0  0  0  0
   28.8437  -19.1504   -4.3661 C   0  0  0  0  0  0  0  0  0  0  0  0
   28.6918  -18.1817   -5.3357 C   0  0  0  0  0  0  0  0  0  0  0  0
   27.8247  -18.3855   -6.3871 C   0  0  0  0  0  0  0  0  0  0  0  0
   27.7201  -21.2003   -8.8396 C   0  0  0  0  0  0  0  0  0  0  0  0
   29.0980  -21.1637   -8.6017 O   0  0  0  0  0  0  0  0  0  0  0  0
   27.1851  -22.3504   -8.9744 O   0  0  0  0  0  0  0  0  0  0  0  0
  2  3  1  6
  2  1  1  0
  4  6  1  0
  4  2  1  0
  4  5  1  1
  6  8  1  0
  7  6  2  0
  8 12  1  0
  8  9  1  0
  9 10  1  0
 10 11  1  0
 12 11  1  0
 12 13  1  1
 14 13  2  0
 15 13  1  0
 16 24  1  0
 16 15  1  0
 16 17  1  1
 18 19  2  0
 18 17  1  0
 20 19  1  0
 21 20  2  0
 22 21  1  0
 22 23  2  0
 23 18  1  0
 24 25  1  0
 26 24  2  0
M  END
$$$$
