VPF.pdb
     RDKit          3D

 26 27  0  0  1  0  0  0  0  0999 V2000
   27.3432  -17.0869  -13.5702 C   0  0  0  0  0  0  0  0  0  0  0  0
   26.0379  -16.8820  -14.3161 C   0  0  1  0  0  0  0  0  0  0  0  0
   26.2457  -15.8429  -15.3848 C   0  0  0  0  0  0  0  0  0  0  0  0
   25.6106  -18.2195  -14.8689 C   0  0  2  0  0  0  0  0  0  0  0  0
   24.4331  -18.0045  -15.6704 N   0  0  0  0  0  0  0  0  0  0  0  0
   25.4251  -19.1976  -13.7761 C   0  0  0  0  0  0  0  0  0  0  0  0
   24.3796  -19.0201  -13.0653 O   0  0  0  0  0  0  0  0  0  0  0  0
   26.3274  -20.2604  -13.5179 N   0  0  0  0  0  0  0  0  0  0  0  0
   27.4843  -20.6010  -14.2867 C   0  0  0  0  0  0  0  0  0  0  0  0
   28.1213  -21.7968  -13.6408 C   0  0  0  0  0  0  0  0  0  0  0  0
   27.0255  -22.3802  -12.7401 C   0  0  0  0  0  0  0  0  0  0  0  0
   26.2032  -21.1709  -12.4171 C   0  0  1  0  0  0  0  0  0  0  0  0
   26.5897  -20.5593  -11.1210 C   0  0  0  0  0  0  0  0  0  0  0  0
   27.6845  -19.9473  -11.0727 O   0  0  0  0  0  0  0  0  0  0  0  0
   25.8017  -20.6286   -9.9558 N   0  0  0  0  0  0  0  0  0  0  0  0
   26.4532  -20.8003   -8.6618 C   0  0  1  0  0  0  0  0  0  0  0  0
   27.2644  -19.5990   -8.3012 C   0  0  0  0  0  0  0  0  0  0  0  0
   27.7881  -19.6507   -6.9269 C   0  0  0  0  0  0  0  0  0  0  0  0
   27.4117  -18.7377   -5.9651 C   0  0  0  0  0  0  0  0  0  0  0  0
   27.8970  -18.7897   -4.6748 C   0  0  0  0  0  0  0  0  0  0  0  0
   28.7791  -19.7558   -4.2901 C   0  0  0  0  0  0  0  0  0  0  0  0
   29.1799  -20.6877   -5.2243 C   0  0  0  0  0  0  0  0  0  0  0  0
   28.6916  -20.6306   -6.5116 C   0  0  0  0  0  0  0  0  0  0  0  0
   25.4022  -21.0205   -7.6512 C   0  0  0  0  0  0  0  0  0  0  0  0
   25.6400  -21.5059   -6.3611 O   0  0  0  0  0  0  0  0  0  0  0  0
   24.1923  -20.7582   -7.9585 O   0  0  0  0  0  0  0  0  0  0  0  0
  2  3  1  6
  2  1  1  0
  4  6  1  0
  4  2  1  0
  4  5  1  1
  6  8  1  0
  7  6  2  0
  8 12  1  0
  8  9  1  0
  9 10  1  0
 10 11  1  0
 12 11  1  0
 12 13  1  1
 14 13  2  0
 15 13  1  0
 16 24  1  0
 16 15  1  0
 16 17  1  1
 18 19  2  0
 18 17  1  0
 20 19  1  0
 21 20  2  0
 22 21  1  0
 22 23  2  0
 23 18  1  0
 24 25  1  0
 26 24  2  0
M  END
$$$$
