VPF.pdb
     RDKit          3D

 26 27  0  0  1  0  0  0  0  0999 V2000
   22.9462  -21.0363  -17.1264 C   0  0  0  0  0  0  0  0  0  0  0  0
   23.7083  -21.0577  -15.8146 C   0  0  1  0  0  0  0  0  0  0  0  0
   23.1306  -22.1321  -14.9332 C   0  0  0  0  0  0  0  0  0  0  0  0
   25.1664  -21.2781  -16.1348 C   0  0  2  0  0  0  0  0  0  0  0  0
   25.2714  -22.5180  -16.8604 N   0  0  0  0  0  0  0  0  0  0  0  0
   25.9814  -21.2306  -14.9023 C   0  0  0  0  0  0  0  0  0  0  0  0
   26.1891  -22.3622  -14.3493 O   0  0  0  0  0  0  0  0  0  0  0  0
   26.5032  -20.0303  -14.3571 N   0  0  0  0  0  0  0  0  0  0  0  0
   26.3756  -18.7176  -14.9104 C   0  0  0  0  0  0  0  0  0  0  0  0
   27.0928  -17.7686  -13.9949 C   0  0  0  0  0  0  0  0  0  0  0  0
   28.0031  -18.6638  -13.1449 C   0  0  0  0  0  0  0  0  0  0  0  0
   27.2551  -19.9612  -13.1379 C   0  0  1  0  0  0  0  0  0  0  0  0
   26.4046  -20.1122  -11.9307 C   0  0  0  0  0  0  0  0  0  0  0  0
   25.1626  -20.0090  -12.0803 O   0  0  0  0  0  0  0  0  0  0  0  0
   26.9120  -20.3623  -10.6410 N   0  0  0  0  0  0  0  0  0  0  0  0
   26.0727  -21.0466   -9.6635 C   0  0  1  0  0  0  0  0  0  0  0  0
   26.9006  -21.7593   -8.6447 C   0  0  0  0  0  0  0  0  0  0  0  0
   27.4546  -20.8580   -7.6217 C   0  0  0  0  0  0  0  0  0  0  0  0
   26.7103  -20.4283   -6.5440 C   0  0  0  0  0  0  0  0  0  0  0  0
   27.2311  -19.5889   -5.5810 C   0  0  0  0  0  0  0  0  0  0  0  0
   28.5176  -19.1427   -5.6536 C   0  0  0  0  0  0  0  0  0  0  0  0
   29.2943  -19.5505   -6.7177 C   0  0  0  0  0  0  0  0  0  0  0  0
   28.7684  -20.3891   -7.6763 C   0  0  0  0  0  0  0  0  0  0  0  0
   25.2258  -20.0344   -9.0058 C   0  0  0  0  0  0  0  0  0  0  0  0
   25.4750  -18.6584   -9.0376 O   0  0  0  0  0  0  0  0  0  0  0  0
   24.1966  -20.4228   -8.3600 O   0  0  0  0  0  0  0  0  0  0  0  0
  2  3  1  1
  2  1  1  0
  4  6  1  0
  4  2  1  0
  4  5  1  1
  6  8  1  0
  7  6  2  0
  8 12  1  0
  8  9  1  0
  9 10  1  0
 10 11  1  0
 12 11  1  0
 12 13  1  1
 14 13  2  0
 15 13  1  0
 16 24  1  0
 16 15  1  0
 16 17  1  1
 18 19  2  0
 18 17  1  0
 20 19  1  0
 21 20  2  0
 22 21  1  0
 22 23  2  0
 23 18  1  0
 24 25  1  0
 26 24  2  0
M  END
$$$$
