VPF.pdb
     RDKit          3D

 26 27  0  0  1  0  0  0  0  0999 V2000
   21.2400  -18.3571  -14.0713 C   0  0  0  0  0  0  0  0  0  0  0  0
   22.0532  -18.9561  -12.9390 C   0  0  1  0  0  0  0  0  0  0  0  0
   21.3848  -18.6256  -11.6317 C   0  0  0  0  0  0  0  0  0  0  0  0
   22.1616  -20.4406  -13.1875 C   0  0  2  0  0  0  0  0  0  0  0  0
   20.8260  -20.9802  -13.1970 N   0  0  0  0  0  0  0  0  0  0  0  0
   23.0580  -21.0690  -12.1940 C   0  0  0  0  0  0  0  0  0  0  0  0
   22.4820  -21.4789  -11.1311 O   0  0  0  0  0  0  0  0  0  0  0  0
   24.4551  -21.2159  -12.3858 N   0  0  0  0  0  0  0  0  0  0  0  0
   25.1977  -20.8502  -13.5522 C   0  0  0  0  0  0  0  0  0  0  0  0
   26.6360  -21.1982  -13.3008 C   0  0  0  0  0  0  0  0  0  0  0  0
   26.5969  -22.1803  -12.1234 C   0  0  0  0  0  0  0  0  0  0  0  0
   25.3471  -21.7686  -11.4084 C   0  0  1  0  0  0  0  0  0  0  0  0
   25.6229  -20.8327  -10.2898 C   0  0  0  0  0  0  0  0  0  0  0  0
   25.7152  -19.6116  -10.5654 O   0  0  0  0  0  0  0  0  0  0  0  0
   25.7844  -21.2378   -8.9508 N   0  0  0  0  0  0  0  0  0  0  0  0
   26.4781  -20.3576   -8.0167 C   0  0  1  0  0  0  0  0  0  0  0  0
   26.5842  -20.9810   -6.6635 C   0  0  0  0  0  0  0  0  0  0  0  0
   27.4875  -20.2478   -5.7622 C   0  0  0  0  0  0  0  0  0  0  0  0
   28.6317  -20.8196   -5.2483 C   0  0  0  0  0  0  0  0  0  0  0  0
   29.4825  -20.1306   -4.4090 C   0  0  0  0  0  0  0  0  0  0  0  0
   29.2266  -18.8411   -4.0469 C   0  0  0  0  0  0  0  0  0  0  0  0
   28.0909  -18.2342   -4.5406 C   0  0  0  0  0  0  0  0  0  0  0  0
   27.2450  -18.9275   -5.3787 C   0  0  0  0  0  0  0  0  0  0  0  0
   27.8245  -20.0942   -8.5572 C   0  0  0  0  0  0  0  0  0  0  0  0
   28.6249  -21.0573   -9.1804 O   0  0  0  0  0  0  0  0  0  0  0  0
   28.3060  -18.9174   -8.4556 O   0  0  0  0  0  0  0  0  0  0  0  0
  2  3  1  1
  2  1  1  0
  4  6  1  0
  4  2  1  0
  4  5  1  1
  6  8  1  0
  7  6  2  0
  8 12  1  0
  8  9  1  0
  9 10  1  0
 10 11  1  0
 12 11  1  0
 12 13  1  1
 14 13  2  0
 15 13  1  0
 16 24  1  0
 16 15  1  0
 16 17  1  1
 18 19  2  0
 18 17  1  0
 20 19  1  0
 21 20  2  0
 22 21  1  0
 22 23  2  0
 23 18  1  0
 24 25  1  0
 26 24  2  0
M  END
$$$$
