VPF.pdb
     RDKit          3D

 26 27  0  0  1  0  0  0  0  0999 V2000
   27.1243  -16.9826  -13.8802 C   0  0  0  0  0  0  0  0  0  0  0  0
   25.8666  -16.8004  -14.7091 C   0  0  1  0  0  0  0  0  0  0  0  0
   26.0383  -15.5970  -15.5963 C   0  0  0  0  0  0  0  0  0  0  0  0
   25.6383  -18.0758  -15.4826 C   0  0  2  0  0  0  0  0  0  0  0  0
   24.4838  -17.8770  -16.3209 N   0  0  0  0  0  0  0  0  0  0  0  0
   25.5235  -19.2274  -14.5627 C   0  0  0  0  0  0  0  0  0  0  0  0
   24.4060  -19.3209  -13.9526 O   0  0  0  0  0  0  0  0  0  0  0  0
   26.5632  -20.1693  -14.3574 N   0  0  0  0  0  0  0  0  0  0  0  0
   27.8575  -20.1551  -14.9658 C   0  0  0  0  0  0  0  0  0  0  0  0
   28.6105  -21.3493  -14.4561 C   0  0  0  0  0  0  0  0  0  0  0  0
   27.5290  -22.2737  -13.8832 C   0  0  0  0  0  0  0  0  0  0  0  0
   26.4603  -21.3029  -13.4852 C   0  0  1  0  0  0  0  0  0  0  0  0
   26.5453  -20.9319  -12.0505 C   0  0  0  0  0  0  0  0  0  0  0  0
   27.2945  -19.9727  -11.7435 O   0  0  0  0  0  0  0  0  0  0  0  0
   25.8375  -21.5916  -11.0272 N   0  0  0  0  0  0  0  0  0  0  0  0
   26.0168  -21.1637   -9.6440 C   0  0  1  0  0  0  0  0  0  0  0  0
   26.6903  -19.8323   -9.5729 C   0  0  0  0  0  0  0  0  0  0  0  0
   27.3882  -19.6088   -8.2966 C   0  0  0  0  0  0  0  0  0  0  0  0
   27.2510  -18.4378   -7.5825 C   0  0  0  0  0  0  0  0  0  0  0  0
   27.8995  -18.2304   -6.3826 C   0  0  0  0  0  0  0  0  0  0  0  0
   28.7129  -19.1837   -5.8451 C   0  0  0  0  0  0  0  0  0  0  0  0
   28.8758  -20.3693   -6.5304 C   0  0  0  0  0  0  0  0  0  0  0  0
   28.2253  -20.5707   -7.7283 C   0  0  0  0  0  0  0  0  0  0  0  0
   24.6845  -21.0885   -9.0167 C   0  0  0  0  0  0  0  0  0  0  0  0
   24.4066  -21.4954   -7.7077 O   0  0  0  0  0  0  0  0  0  0  0  0
   23.7110  -20.6270   -9.6997 O   0  0  0  0  0  0  0  0  0  0  0  0
  2  3  1  6
  2  1  1  0
  4  6  1  0
  4  2  1  0
  4  5  1  1
  6  8  1  0
  7  6  2  0
  8 12  1  0
  8  9  1  0
  9 10  1  0
 10 11  1  0
 12 11  1  0
 12 13  1  1
 14 13  2  0
 15 13  1  0
 16 24  1  0
 16 15  1  0
 16 17  1  6
 18 19  2  0
 18 17  1  0
 20 19  1  0
 21 20  2  0
 22 21  1  0
 22 23  2  0
 23 18  1  0
 24 25  1  0
 26 24  2  0
M  END
$$$$
