VPF.pdb
     RDKit          3D

 26 27  0  0  1  0  0  0  0  0999 V2000
   19.3797  -11.2526  -20.1523 C   0  0  0  0  0  0  0  0  0  0  0  0
   19.7579  -12.6531  -19.7079 C   0  0  1  0  0  0  0  0  0  0  0  0
   19.3290  -13.6326  -20.7669 C   0  0  0  0  0  0  0  0  0  0  0  0
   21.2459  -12.6689  -19.4577 C   0  0  2  0  0  0  0  0  0  0  0  0
   21.5990  -13.9913  -19.0086 N   0  0  0  0  0  0  0  0  0  0  0  0
   21.6258  -11.5924  -18.5184 C   0  0  0  0  0  0  0  0  0  0  0  0
   21.4356  -11.8609  -17.2850 O   0  0  0  0  0  0  0  0  0  0  0  0
   22.1625  -10.3474  -18.9335 N   0  0  0  0  0  0  0  0  0  0  0  0
   22.3721   -9.9173  -20.2813 C   0  0  0  0  0  0  0  0  0  0  0  0
   22.9654   -8.5395  -20.2299 C   0  0  0  0  0  0  0  0  0  0  0  0
   23.4906   -8.3971  -18.7960 C   0  0  0  0  0  0  0  0  0  0  0  0
   22.5838   -9.3133  -18.0337 C   0  0  1  0  0  0  0  0  0  0  0  0
   21.4434   -8.5897  -17.4179 C   0  0  0  0  0  0  0  0  0  0  0  0
   20.4053   -8.4487  -18.1094 O   0  0  0  0  0  0  0  0  0  0  0  0
   21.4643   -8.0590  -16.1136 N   0  0  0  0  0  0  0  0  0  0  0  0
   20.2636   -7.4241  -15.5812 C   0  0  1  0  0  0  0  0  0  0  0  0
   19.6411   -8.2577  -14.5093 C   0  0  0  0  0  0  0  0  0  0  0  0
   18.8889   -9.4065  -15.0387 C   0  0  0  0  0  0  0  0  0  0  0  0
   19.3506  -10.7001  -14.9228 C   0  0  0  0  0  0  0  0  0  0  0  0
   18.6427  -11.7781  -15.4128 C   0  0  0  0  0  0  0  0  0  0  0  0
   17.4434  -11.6098  -16.0396 C   0  0  0  0  0  0  0  0  0  0  0  0
   16.9481  -10.3299  -16.1752 C   0  0  0  0  0  0  0  0  0  0  0  0
   17.6598   -9.2572  -15.6837 C   0  0  0  0  0  0  0  0  0  0  0  0
   20.6499   -6.1094  -15.0365 C   0  0  0  0  0  0  0  0  0  0  0  0
   19.7409   -5.1424  -14.5949 O   0  0  0  0  0  0  0  0  0  0  0  0
   21.8895   -5.8189  -14.9584 O   0  0  0  0  0  0  0  0  0  0  0  0
  2  3  1  6
  2  1  1  0
  4  6  1  0
  4  2  1  0
  4  5  1  1
  6  8  1  0
  7  6  2  0
  8 12  1  0
  8  9  1  0
  9 10  1  0
 10 11  1  0
 12 11  1  0
 12 13  1  6
 14 13  2  0
 15 13  1  0
 16 24  1  0
 16 15  1  0
 16 17  1  1
 18 19  2  0
 18 17  1  0
 20 19  1  0
 21 20  2  0
 22 21  1  0
 22 23  2  0
 23 18  1  0
 24 25  1  0
 26 24  2  0
M  END
$$$$
