HYH.pdb
     RDKit          3D

 33 35  0  0  1  0  0  0  0  0999 V2000
   16.8240   -7.5702  -10.1964 N   0  0  0  0  0  0  0  0  0  0  0  0
   17.5038   -6.9001  -11.2682 C   0  0  1  0  0  0  0  0  0  0  0  0
   18.3707   -5.7580  -10.7674 C   0  0  0  0  0  0  0  0  0  0  0  0
   17.5505   -4.7056  -10.1369 C   0  0  0  0  0  0  0  0  0  0  0  0
   16.8228   -3.7697  -10.8395 C   0  0  0  0  0  0  0  0  0  0  0  0
   16.1889   -2.9564   -9.9663 N   0  0  0  0  0  0  0  0  0  0  0  0
   16.5071   -3.3671   -8.7160 C   0  0  0  0  0  0  0  0  0  0  0  0
   17.3327   -4.4275   -8.8378 N   0  0  0  0  0  0  0  0  0  0  0  0
   18.3143   -7.8571  -12.0639 C   0  0  0  0  0  0  0  0  0  0  0  0
   19.0031   -8.6960  -11.4660 O   0  0  0  0  0  0  0  0  0  0  0  0
   14.9988  -13.5465  -13.0704 O   0  0  0  0  0  0  0  0  0  0  0  0
   15.7921  -12.5476  -13.6273 C   0  0  0  0  0  0  0  0  0  0  0  0
   15.2947  -11.2736  -13.8156 C   0  0  0  0  0  0  0  0  0  0  0  0
   16.0693  -10.2621  -14.3696 C   0  0  0  0  0  0  0  0  0  0  0  0
   17.3776  -10.5025  -14.7541 C   0  0  0  0  0  0  0  0  0  0  0  0
   18.1980   -9.4130  -15.3466 C   0  0  0  0  0  0  0  0  0  0  0  0
   19.0658   -8.7457  -14.2983 C   0  0  2  0  0  0  0  0  0  0  0  0
   18.3108   -7.8241  -13.4844 N   0  0  0  0  0  0  0  0  0  0  0  0
   20.2814   -8.1537  -14.8637 C   0  0  0  0  0  0  0  0  0  0  0  0
   20.2683   -6.9349  -15.1828 O   0  0  0  0  0  0  0  0  0  0  0  0
   17.8655  -11.7757  -14.5627 C   0  0  0  0  0  0  0  0  0  0  0  0
   17.0957  -12.7817  -14.0119 C   0  0  0  0  0  0  0  0  0  0  0  0
   21.4896   -8.8595  -15.0821 N   0  0  0  0  0  0  0  0  0  0  0  0
   22.6454   -8.1730  -15.6414 C   0  0  1  0  0  0  0  0  0  0  0  0
   23.8222   -9.0990  -15.7268 C   0  0  0  0  0  0  0  0  0  0  0  0
   24.9709   -8.4081  -16.3354 C   0  0  0  0  0  0  0  0  0  0  0  0
   24.9473   -7.0845  -16.7385 C   0  0  0  0  0  0  0  0  0  0  0  0
   26.1800   -6.8003  -17.2497 N   0  0  0  0  0  0  0  0  0  0  0  0
   26.9429   -7.8894  -17.1731 C   0  0  0  0  0  0  0  0  0  0  0  0
   26.1871   -8.8461  -16.6165 N   0  0  0  0  0  0  0  0  0  0  0  0
   22.2921   -7.7055  -16.9987 C   0  0  0  0  0  0  0  0  0  0  0  0
   21.6906   -8.5167  -17.7762 O   0  0  0  0  0  0  0  0  0  0  0  0
   22.5660   -6.4402  -17.4950 O   0  0  0  0  0  0  0  0  0  0  0  0
  2  1  1  1
  2  3  1  0
  3  4  1  0
  4  5  2  0
  4  8  1  0
  5  6  1  0
  6  7  1  0
  8  7  2  0
  9 18  1  0
  9  2  1  0
 10  9  2  0
 11 12  1  0
 12 22  2  0
 13 14  2  0
 13 12  1  0
 14 15  1  0
 15 16  1  0
 15 21  2  0
 17 16  1  6
 17 18  1  0
 19 17  1  0
 20 19  2  0
 22 21  1  0
 23 19  1  0
 24 31  1  0
 24 23  1  0
 24 25  1  6
 26 27  2  0
 26 25  1  0
 28 27  1  0
 29 30  2  0
 29 28  1  0
 30 26  1  0
 31 33  1  0
 32 31  2  0
M  END
$$$$
