HYH.pdb
     RDKit          3D

 33 35  0  0  1  0  0  0  0  0999 V2000
   27.3153  -21.5679  -19.4629 N   0  0  0  0  0  0  0  0  0  0  0  0
   26.5841  -20.5057  -18.8328 C   0  0  1  0  0  0  0  0  0  0  0  0
   25.5814  -19.8657  -19.7771 C   0  0  0  0  0  0  0  0  0  0  0  0
   26.2644  -19.1608  -20.8790 C   0  0  0  0  0  0  0  0  0  0  0  0
   26.3553  -19.6450  -22.1660 C   0  0  0  0  0  0  0  0  0  0  0  0
   27.0411  -18.7609  -22.9234 N   0  0  0  0  0  0  0  0  0  0  0  0
   27.3865  -17.7199  -22.1296 C   0  0  0  0  0  0  0  0  0  0  0  0
   26.9082  -17.9785  -20.8945 N   0  0  0  0  0  0  0  0  0  0  0  0
   25.9055  -20.9852  -17.6018 C   0  0  0  0  0  0  0  0  0  0  0  0
   25.3147  -22.0742  -17.6325 O   0  0  0  0  0  0  0  0  0  0  0  0
   23.0111  -21.5263   -9.2576 O   0  0  0  0  0  0  0  0  0  0  0  0
   23.6634  -21.1124  -10.4154 C   0  0  0  0  0  0  0  0  0  0  0  0
   24.8902  -21.6422  -10.7625 C   0  0  0  0  0  0  0  0  0  0  0  0
   25.5583  -21.2431  -11.9134 C   0  0  0  0  0  0  0  0  0  0  0  0
   25.0092  -20.2921  -12.7568 C   0  0  0  0  0  0  0  0  0  0  0  0
   25.7328  -19.8717  -13.9859 C   0  0  0  0  0  0  0  0  0  0  0  0
   25.2235  -20.6143  -15.2051 C   0  0  2  0  0  0  0  0  0  0  0  0
   25.9241  -20.2216  -16.4037 N   0  0  0  0  0  0  0  0  0  0  0  0
   23.7658  -20.5466  -15.3405 C   0  0  0  0  0  0  0  0  0  0  0  0
   23.2421  -19.4592  -15.7022 O   0  0  0  0  0  0  0  0  0  0  0  0
   23.7856  -19.7692  -12.4030 C   0  0  0  0  0  0  0  0  0  0  0  0
   23.1210  -20.1656  -11.2589 C   0  0  0  0  0  0  0  0  0  0  0  0
   22.8868  -21.6286  -15.0916 N   0  0  0  0  0  0  0  0  0  0  0  0
   21.4526  -21.4627  -15.2805 C   0  0  1  0  0  0  0  0  0  0  0  0
   20.8765  -22.6324  -16.0218 C   0  0  0  0  0  0  0  0  0  0  0  0
   19.4455  -22.4122  -16.2877 C   0  0  0  0  0  0  0  0  0  0  0  0
   18.4474  -22.6258  -15.3533 C   0  0  0  0  0  0  0  0  0  0  0  0
   17.2627  -22.3181  -15.9562 N   0  0  0  0  0  0  0  0  0  0  0  0
   17.5010  -21.9299  -17.2078 C   0  0  0  0  0  0  0  0  0  0  0  0
   18.8284  -21.9962  -17.3815 N   0  0  0  0  0  0  0  0  0  0  0  0
   20.8195  -21.3689  -13.9479 C   0  0  0  0  0  0  0  0  0  0  0  0
   21.2423  -22.1408  -13.0259 O   0  0  0  0  0  0  0  0  0  0  0  0
   19.7928  -20.4968  -13.6202 O   0  0  0  0  0  0  0  0  0  0  0  0
  2  1  1  6
  2  3  1  0
  3  4  1  0
  4  5  2  0
  4  8  1  0
  5  6  1  0
  6  7  1  0
  8  7  2  0
  9 18  1  0
  9  2  1  0
 10  9  2  0
 11 12  1  0
 12 22  2  0
 13 14  2  0
 13 12  1  0
 14 15  1  0
 15 16  1  0
 15 21  2  0
 17 16  1  1
 17 18  1  0
 19 17  1  0
 20 19  2  0
 22 21  1  0
 23 19  1  0
 24 31  1  0
 24 23  1  0
 24 25  1  1
 26 27  2  0
 26 25  1  0
 28 27  1  0
 29 30  2  0
 29 28  1  0
 30 26  1  0
 31 33  1  0
 32 31  2  0
M  END
$$$$
