HYH.pdb
     RDKit          3D

 33 35  0  0  1  0  0  0  0  0999 V2000
   25.8345  -13.1760  -19.9251 N   0  0  0  0  0  0  0  0  0  0  0  0
   25.0213  -11.9941  -19.9669 C   0  0  1  0  0  0  0  0  0  0  0  0
   23.7560  -12.2015  -20.7810 C   0  0  0  0  0  0  0  0  0  0  0  0
   24.0662  -12.3518  -22.2159 C   0  0  0  0  0  0  0  0  0  0  0  0
   24.4285  -13.5431  -22.8065 C   0  0  0  0  0  0  0  0  0  0  0  0
   24.6420  -13.3360  -24.1245 N   0  0  0  0  0  0  0  0  0  0  0  0
   24.4187  -12.0245  -24.3764 C   0  0  0  0  0  0  0  0  0  0  0  0
   24.0709  -11.4432  -23.2093 N   0  0  0  0  0  0  0  0  0  0  0  0
   24.6869  -11.5305  -18.5961 C   0  0  0  0  0  0  0  0  0  0  0  0
   24.2828  -12.3596  -17.7685 O   0  0  0  0  0  0  0  0  0  0  0  0
   30.2093  -12.6080  -16.0881 O   0  0  0  0  0  0  0  0  0  0  0  0
   29.1364  -11.7235  -16.1511 C   0  0  0  0  0  0  0  0  0  0  0  0
   28.1429  -11.7490  -15.1927 C   0  0  0  0  0  0  0  0  0  0  0  0
   27.0636  -10.8754  -15.2368 C   0  0  0  0  0  0  0  0  0  0  0  0
   26.9493   -9.9424  -16.2535 C   0  0  0  0  0  0  0  0  0  0  0  0
   25.7898   -9.0122  -16.2917 C   0  0  0  0  0  0  0  0  0  0  0  0
   24.5682   -9.6803  -16.8904 C   0  0  2  0  0  0  0  0  0  0  0  0
   24.8223  -10.1656  -18.2252 N   0  0  0  0  0  0  0  0  0  0  0  0
   23.3660   -8.8472  -16.7986 C   0  0  0  0  0  0  0  0  0  0  0  0
   23.1897   -7.9432  -17.6583 O   0  0  0  0  0  0  0  0  0  0  0  0
   27.9444   -9.9239  -17.2050 C   0  0  0  0  0  0  0  0  0  0  0  0
   29.0177  -10.7923  -17.1615 C   0  0  0  0  0  0  0  0  0  0  0  0
   22.3708   -8.9836  -15.8003 N   0  0  0  0  0  0  0  0  0  0  0  0
   21.2319   -8.0769  -15.7758 C   0  0  1  0  0  0  0  0  0  0  0  0
   19.9434   -8.8443  -15.7523 C   0  0  0  0  0  0  0  0  0  0  0  0
   18.8043   -7.9229  -15.6086 C   0  0  0  0  0  0  0  0  0  0  0  0
   18.1319   -7.3581  -16.6782 C   0  0  0  0  0  0  0  0  0  0  0  0
   17.1473   -6.5686  -16.1595 N   0  0  0  0  0  0  0  0  0  0  0  0
   17.1958   -6.6320  -14.8300 C   0  0  0  0  0  0  0  0  0  0  0  0
   18.2065   -7.4575  -14.5242 N   0  0  0  0  0  0  0  0  0  0  0  0
   21.3288   -7.2472  -14.5561 C   0  0  0  0  0  0  0  0  0  0  0  0
   21.0543   -6.0061  -14.6500 O   0  0  0  0  0  0  0  0  0  0  0  0
   21.6973   -7.7198  -13.3059 O   0  0  0  0  0  0  0  0  0  0  0  0
  2  1  1  1
  2  3  1  0
  3  4  1  0
  4  5  2  0
  4  8  1  0
  5  6  1  0
  6  7  1  0
  8  7  2  0
  9 18  1  0
  9  2  1  0
 10  9  2  0
 11 12  1  0
 12 22  2  0
 13 14  2  0
 13 12  1  0
 14 15  1  0
 15 16  1  0
 15 21  2  0
 17 16  1  6
 17 18  1  0
 19 17  1  0
 20 19  2  0
 22 21  1  0
 23 19  1  0
 24 31  1  0
 24 23  1  0
 24 25  1  1
 26 27  2  0
 26 25  1  0
 28 27  1  0
 29 30  2  0
 29 28  1  0
 30 26  1  0
 31 33  1  0
 32 31  2  0
M  END
$$$$
