HYH.pdb
     RDKit          3D

 33 35  0  0  1  0  0  0  0  0999 V2000
   28.3518  -21.4807  -18.3817 N   0  0  0  0  0  0  0  0  0  0  0  0
   27.9659  -20.3354  -17.6076 C   0  0  1  0  0  0  0  0  0  0  0  0
   27.1758  -19.3319  -18.4294 C   0  0  0  0  0  0  0  0  0  0  0  0
   28.0154  -18.7297  -19.4830 C   0  0  0  0  0  0  0  0  0  0  0  0
   28.0540  -19.1740  -20.7870 C   0  0  0  0  0  0  0  0  0  0  0  0
   28.9192  -18.4094  -21.4888 N   0  0  0  0  0  0  0  0  0  0  0  0
   29.4303  -17.4840  -20.6429 C   0  0  0  0  0  0  0  0  0  0  0  0
   28.8720  -17.6924  -19.4321 N   0  0  0  0  0  0  0  0  0  0  0  0
   27.1961  -20.7423  -16.4044 C   0  0  0  0  0  0  0  0  0  0  0  0
   26.1969  -21.4605  -16.5508 O   0  0  0  0  0  0  0  0  0  0  0  0
   24.2471  -20.8112   -8.0440 O   0  0  0  0  0  0  0  0  0  0  0  0
   25.0529  -20.6754   -9.1708 C   0  0  0  0  0  0  0  0  0  0  0  0
   25.3199  -19.4294   -9.7020 C   0  0  0  0  0  0  0  0  0  0  0  0
   26.1214  -19.2714  -10.8257 C   0  0  0  0  0  0  0  0  0  0  0  0
   26.6831  -20.3698  -11.4544 C   0  0  0  0  0  0  0  0  0  0  0  0
   27.5391  -20.1898  -12.6569 C   0  0  0  0  0  0  0  0  0  0  0  0
   26.8066  -20.5975  -13.9196 C   0  0  2  0  0  0  0  0  0  0  0  0
   27.5850  -20.3242  -15.1033 N   0  0  0  0  0  0  0  0  0  0  0  0
   25.4470  -20.0543  -13.9850 C   0  0  0  0  0  0  0  0  0  0  0  0
   25.2953  -18.8380  -14.2767 O   0  0  0  0  0  0  0  0  0  0  0  0
   26.4117  -21.6086  -10.9180 C   0  0  0  0  0  0  0  0  0  0  0  0
   25.6149  -21.7660   -9.8008 C   0  0  0  0  0  0  0  0  0  0  0  0
   24.2714  -20.8054  -13.7413 N   0  0  0  0  0  0  0  0  0  0  0  0
   22.9657  -20.1674  -13.8306 C   0  0  1  0  0  0  0  0  0  0  0  0
   22.4220  -20.2647  -15.2252 C   0  0  0  0  0  0  0  0  0  0  0  0
   21.1374  -19.5524  -15.3219 C   0  0  0  0  0  0  0  0  0  0  0  0
   20.5310  -18.9110  -14.2562 C   0  0  0  0  0  0  0  0  0  0  0  0
   19.3685  -18.3708  -14.7235 N   0  0  0  0  0  0  0  0  0  0  0  0
   19.2473  -18.6568  -16.0187 C   0  0  0  0  0  0  0  0  0  0  0  0
   20.3302  -19.3718  -16.3544 N   0  0  0  0  0  0  0  0  0  0  0  0
   22.0493  -20.8595  -12.8996 C   0  0  0  0  0  0  0  0  0  0  0  0
   20.8374  -20.4684  -12.8473 O   0  0  0  0  0  0  0  0  0  0  0  0
   22.4097  -21.9120  -12.0722 O   0  0  0  0  0  0  0  0  0  0  0  0
  2  1  1  6
  2  3  1  0
  3  4  1  0
  4  5  2  0
  4  8  1  0
  5  6  1  0
  6  7  1  0
  8  7  2  0
  9 18  1  0
  9  2  1  0
 10  9  2  0
 11 12  1  0
 12 22  2  0
 13 14  2  0
 13 12  1  0
 14 15  1  0
 15 16  1  0
 15 21  2  0
 17 16  1  1
 17 18  1  0
 19 17  1  0
 20 19  2  0
 22 21  1  0
 23 19  1  0
 24 31  1  0
 24 23  1  0
 24 25  1  6
 26 27  2  0
 26 25  1  0
 28 27  1  0
 29 30  2  0
 29 28  1  0
 30 26  1  0
 31 33  1  0
 32 31  2  0
M  END
$$$$
