HYH.pdb
     RDKit          3D

 33 35  0  0  1  0  0  0  0  0999 V2000
   23.5838   -8.7566  -18.1155 N   0  0  0  0  0  0  0  0  0  0  0  0
   22.6265   -7.6939  -17.9971 C   0  0  1  0  0  0  0  0  0  0  0  0
   21.5769   -7.7474  -19.0935 C   0  0  0  0  0  0  0  0  0  0  0  0
   22.1839   -7.5303  -20.4209 C   0  0  0  0  0  0  0  0  0  0  0  0
   22.5324   -8.5453  -21.2855 C   0  0  0  0  0  0  0  0  0  0  0  0
   23.0601   -8.0084  -22.4075 N   0  0  0  0  0  0  0  0  0  0  0  0
   23.0499   -6.6622  -22.2636 C   0  0  0  0  0  0  0  0  0  0  0  0
   22.5159   -6.3899  -21.0546 N   0  0  0  0  0  0  0  0  0  0  0  0
   21.9813   -7.7067  -16.6593 C   0  0  0  0  0  0  0  0  0  0  0  0
   21.5166   -8.7731  -16.2319 O   0  0  0  0  0  0  0  0  0  0  0  0
   19.1489   -5.1016   -8.6829 O   0  0  0  0  0  0  0  0  0  0  0  0
   19.8235   -5.1976   -9.8966 C   0  0  0  0  0  0  0  0  0  0  0  0
   19.6028   -4.2775  -10.9019 C   0  0  0  0  0  0  0  0  0  0  0  0
   20.2653   -4.3549  -12.1206 C   0  0  0  0  0  0  0  0  0  0  0  0
   21.1768   -5.3675  -12.3676 C   0  0  0  0  0  0  0  0  0  0  0  0
   21.8802   -5.4416  -13.6756 C   0  0  0  0  0  0  0  0  0  0  0  0
   21.2561   -6.4878  -14.5773 C   0  0  2  0  0  0  0  0  0  0  0  0
   21.8906   -6.5271  -15.8724 N   0  0  0  0  0  0  0  0  0  0  0  0
   19.7971   -6.3715  -14.6528 C   0  0  0  0  0  0  0  0  0  0  0  0
   19.2989   -5.4924  -15.4054 O   0  0  0  0  0  0  0  0  0  0  0  0
   21.3908   -6.2807  -11.3595 C   0  0  0  0  0  0  0  0  0  0  0  0
   20.7323   -6.2041  -10.1477 C   0  0  0  0  0  0  0  0  0  0  0  0
   18.8899   -7.1859  -13.9322 N   0  0  0  0  0  0  0  0  0  0  0  0
   17.4594   -7.0847  -14.1837 C   0  0  1  0  0  0  0  0  0  0  0  0
   16.7640   -8.3608  -13.8126 C   0  0  0  0  0  0  0  0  0  0  0  0
   16.8991   -9.3482  -14.8960 C   0  0  0  0  0  0  0  0  0  0  0  0
   17.5459   -9.0939  -16.0927 C   0  0  0  0  0  0  0  0  0  0  0  0
   17.4689  -10.2335  -16.8389 N   0  0  0  0  0  0  0  0  0  0  0  0
   16.8070  -11.1603  -16.1482 C   0  0  0  0  0  0  0  0  0  0  0  0
   16.4743  -10.5984  -14.9777 N   0  0  0  0  0  0  0  0  0  0  0  0
   16.9233   -5.9792  -13.3615 C   0  0  0  0  0  0  0  0  0  0  0  0
   17.2211   -5.9526  -12.1225 O   0  0  0  0  0  0  0  0  0  0  0  0
   16.1153   -4.9588  -13.8391 O   0  0  0  0  0  0  0  0  0  0  0  0
  2  1  1  1
  2  3  1  0
  3  4  1  0
  4  5  2  0
  4  8  1  0
  5  6  1  0
  6  7  1  0
  8  7  2  0
  9 18  1  0
  9  2  1  0
 10  9  2  0
 11 12  1  0
 12 22  2  0
 13 14  2  0
 13 12  1  0
 14 15  1  0
 15 16  1  0
 15 21  2  0
 17 16  1  1
 17 18  1  0
 19 17  1  0
 20 19  2  0
 22 21  1  0
 23 19  1  0
 24 31  1  0
 24 23  1  0
 24 25  1  1
 26 27  2  0
 26 25  1  0
 28 27  1  0
 29 30  2  0
 29 28  1  0
 30 26  1  0
 31 33  1  0
 32 31  2  0
M  END
$$$$
