HYH.pdb
     RDKit          3D

 33 35  0  0  1  0  0  0  0  0999 V2000
   29.1218  -22.8102  -17.3579 N   0  0  0  0  0  0  0  0  0  0  0  0
   28.3101  -21.6324  -17.2405 C   0  0  1  0  0  0  0  0  0  0  0  0
   27.6273  -21.2780  -18.5500 C   0  0  0  0  0  0  0  0  0  0  0  0
   28.6173  -20.9399  -19.5908 C   0  0  0  0  0  0  0  0  0  0  0  0
   29.1428  -19.6794  -19.7757 C   0  0  0  0  0  0  0  0  0  0  0  0
   30.0159  -19.7115  -20.8064 N   0  0  0  0  0  0  0  0  0  0  0  0
   30.0498  -20.9804  -21.2776 C   0  0  0  0  0  0  0  0  0  0  0  0
   29.1967  -21.7112  -20.5299 N   0  0  0  0  0  0  0  0  0  0  0  0
   27.3067  -21.7847  -16.1561 C   0  0  0  0  0  0  0  0  0  0  0  0
   26.4854  -22.7098  -16.2296 O   0  0  0  0  0  0  0  0  0  0  0  0
   22.8512  -20.6551   -8.6048 O   0  0  0  0  0  0  0  0  0  0  0  0
   23.8068  -20.5541   -9.6117 C   0  0  0  0  0  0  0  0  0  0  0  0
   23.5625  -19.8035  -10.7444 C   0  0  0  0  0  0  0  0  0  0  0  0
   24.5023  -19.6894  -11.7612 C   0  0  0  0  0  0  0  0  0  0  0  0
   25.7257  -20.3314  -11.6695 C   0  0  0  0  0  0  0  0  0  0  0  0
   26.7245  -20.2032  -12.7636 C   0  0  0  0  0  0  0  0  0  0  0  0
   26.2973  -20.9811  -13.9922 C   0  0  2  0  0  0  0  0  0  0  0  0
   27.2760  -20.8947  -15.0488 N   0  0  0  0  0  0  0  0  0  0  0  0
   24.9413  -20.6424  -14.4328 C   0  0  0  0  0  0  0  0  0  0  0  0
   24.7645  -19.5761  -15.0802 O   0  0  0  0  0  0  0  0  0  0  0  0
   25.9610  -21.0777  -10.5365 C   0  0  0  0  0  0  0  0  0  0  0  0
   25.0269  -21.1914   -9.5253 C   0  0  0  0  0  0  0  0  0  0  0  0
   23.7955  -21.4361  -14.1819 N   0  0  0  0  0  0  0  0  0  0  0  0
   22.4888  -21.0024  -14.6556 C   0  0  1  0  0  0  0  0  0  0  0  0
   22.0905  -21.7643  -15.8847 C   0  0  0  0  0  0  0  0  0  0  0  0
   20.8080  -21.2608  -16.4029 C   0  0  0  0  0  0  0  0  0  0  0  0
   20.0923  -20.2314  -15.8171 C   0  0  0  0  0  0  0  0  0  0  0  0
   18.9693  -20.0464  -16.5697 N   0  0  0  0  0  0  0  0  0  0  0  0
   18.9759  -20.9150  -17.5794 C   0  0  0  0  0  0  0  0  0  0  0  0
   20.0985  -21.6366  -17.4543 N   0  0  0  0  0  0  0  0  0  0  0  0
   21.5025  -21.2542  -13.5836 C   0  0  0  0  0  0  0  0  0  0  0  0
   21.6436  -22.3014  -12.8708 O   0  0  0  0  0  0  0  0  0  0  0  0
   20.4265  -20.4306  -13.2902 O   0  0  0  0  0  0  0  0  0  0  0  0
  2  1  1  6
  2  3  1  0
  3  4  1  0
  4  5  2  0
  4  8  1  0
  5  6  1  0
  6  7  1  0
  8  7  2  0
  9 18  1  0
  9  2  1  0
 10  9  2  0
 11 12  1  0
 12 22  2  0
 13 14  2  0
 13 12  1  0
 14 15  1  0
 15 16  1  0
 15 21  2  0
 17 16  1  1
 17 18  1  0
 19 17  1  0
 20 19  2  0
 22 21  1  0
 23 19  1  0
 24 31  1  0
 24 23  1  0
 24 25  1  6
 26 27  2  0
 26 25  1  0
 28 27  1  0
 29 30  2  0
 29 28  1  0
 30 26  1  0
 31 33  1  0
 32 31  2  0
M  END
$$$$
