HYH.pdb
     RDKit          3D

 33 35  0  0  1  0  0  0  0  0999 V2000
   22.3956  -16.0535  -18.6484 N   0  0  0  0  0  0  0  0  0  0  0  0
   22.7632  -16.3993  -17.3048 C   0  0  1  0  0  0  0  0  0  0  0  0
   21.8609  -15.7365  -16.2786 C   0  0  0  0  0  0  0  0  0  0  0  0
   22.0624  -14.2747  -16.2594 C   0  0  0  0  0  0  0  0  0  0  0  0
   22.8111  -13.6113  -15.3115 C   0  0  0  0  0  0  0  0  0  0  0  0
   22.7925  -12.2874  -15.5810 N   0  0  0  0  0  0  0  0  0  0  0  0
   22.0392  -12.1039  -16.6910 C   0  0  0  0  0  0  0  0  0  0  0  0
   21.6048  -13.3180  -17.0888 N   0  0  0  0  0  0  0  0  0  0  0  0
   22.7679  -17.8727  -17.1178 C   0  0  0  0  0  0  0  0  0  0  0  0
   22.0516  -18.5689  -17.8514 O   0  0  0  0  0  0  0  0  0  0  0  0
   24.8834  -26.0995  -14.8852 O   0  0  0  0  0  0  0  0  0  0  0  0
   24.8960  -24.7173  -15.0487 C   0  0  0  0  0  0  0  0  0  0  0  0
   24.7449  -23.8765  -13.9641 C   0  0  0  0  0  0  0  0  0  0  0  0
   24.7544  -22.4944  -14.1050 C   0  0  0  0  0  0  0  0  0  0  0  0
   24.9174  -21.9111  -15.3501 C   0  0  0  0  0  0  0  0  0  0  0  0
   24.9257  -20.4307  -15.4901 C   0  0  0  0  0  0  0  0  0  0  0  0
   23.5508  -19.9046  -15.8510 C   0  0  2  0  0  0  0  0  0  0  0  0
   23.5727  -18.4876  -16.1213 N   0  0  0  0  0  0  0  0  0  0  0  0
   22.5245  -20.2907  -14.8787 C   0  0  0  0  0  0  0  0  0  0  0  0
   22.6847  -19.9699  -13.6709 O   0  0  0  0  0  0  0  0  0  0  0  0
   25.0674  -22.7569  -16.4262 C   0  0  0  0  0  0  0  0  0  0  0  0
   25.0580  -24.1311  -16.2866 C   0  0  0  0  0  0  0  0  0  0  0  0
   21.3468  -21.0089  -15.1992 N   0  0  0  0  0  0  0  0  0  0  0  0
   20.4497  -21.4502  -14.1407 C   0  0  1  0  0  0  0  0  0  0  0  0
   19.0941  -20.8285  -14.3007 C   0  0  0  0  0  0  0  0  0  0  0  0
   19.1424  -19.4018  -13.9410 C   0  0  0  0  0  0  0  0  0  0  0  0
   18.8063  -18.9115  -12.6913 C   0  0  0  0  0  0  0  0  0  0  0  0
   18.9725  -17.5580  -12.7349 N   0  0  0  0  0  0  0  0  0  0  0  0
   19.3922  -17.2115  -13.9506 C   0  0  0  0  0  0  0  0  0  0  0  0
   19.4863  -18.3454  -14.6591 N   0  0  0  0  0  0  0  0  0  0  0  0
   20.3256  -22.9210  -14.2243 C   0  0  0  0  0  0  0  0  0  0  0  0
   19.7215  -23.5278  -13.2802 O   0  0  0  0  0  0  0  0  0  0  0  0
   20.8191  -23.6982  -15.2609 O   0  0  0  0  0  0  0  0  0  0  0  0
  2  1  1  6
  2  3  1  0
  3  4  1  0
  4  5  2  0
  4  8  1  0
  5  6  1  0
  6  7  1  0
  8  7  2  0
  9 18  1  0
  9  2  1  0
 10  9  2  0
 11 12  1  0
 12 22  2  0
 13 14  2  0
 13 12  1  0
 14 15  1  0
 15 16  1  0
 15 21  2  0
 17 16  1  1
 17 18  1  0
 19 17  1  0
 20 19  2  0
 22 21  1  0
 23 19  1  0
 24 31  1  0
 24 23  1  0
 24 25  1  6
 26 27  2  0
 26 25  1  0
 28 27  1  0
 29 30  2  0
 29 28  1  0
 30 26  1  0
 31 33  1  0
 32 31  2  0
M  END
$$$$
