HYH.pdb
     RDKit          3D

 33 35  0  0  1  0  0  0  0  0999 V2000
   15.0529  -17.1722    6.1904 N   0  0  0  0  0  0  0  0  0  0  0  0
   15.5877  -16.7464    7.4523 C   0  0  1  0  0  0  0  0  0  0  0  0
   15.7928  -17.9102    8.4063 C   0  0  0  0  0  0  0  0  0  0  0  0
   14.5159  -18.3280    9.0167 C   0  0  0  0  0  0  0  0  0  0  0  0
   14.0141  -19.6101    8.9552 C   0  0  0  0  0  0  0  0  0  0  0  0
   12.8338  -19.6546    9.6113 N   0  0  0  0  0  0  0  0  0  0  0  0
   12.5814  -18.4131   10.0889 C   0  0  0  0  0  0  0  0  0  0  0  0
   13.6104  -17.6220    9.7197 N   0  0  0  0  0  0  0  0  0  0  0  0
   16.8568  -15.9977    7.2660 C   0  0  0  0  0  0  0  0  0  0  0  0
   17.7039  -16.4466    6.4807 O   0  0  0  0  0  0  0  0  0  0  0  0
   23.1232   -9.8167    7.4025 O   0  0  0  0  0  0  0  0  0  0  0  0
   21.9130  -10.4887    7.5476 C   0  0  0  0  0  0  0  0  0  0  0  0
   21.2284  -10.9570    6.4439 C   0  0  0  0  0  0  0  0  0  0  0  0
   20.0193  -11.6300    6.5663 C   0  0  0  0  0  0  0  0  0  0  0  0
   19.4571  -11.8545    7.8116 C   0  0  0  0  0  0  0  0  0  0  0  0
   18.1622  -12.5755    7.9316 C   0  0  0  0  0  0  0  0  0  0  0  0
   18.3630  -14.0773    7.8906 C   0  0  2  0  0  0  0  0  0  0  0  0
   17.1099  -14.7882    7.9675 N   0  0  0  0  0  0  0  0  0  0  0  0
   19.3513  -14.5426    8.8676 C   0  0  0  0  0  0  0  0  0  0  0  0
   18.9657  -14.8107   10.0368 O   0  0  0  0  0  0  0  0  0  0  0  0
   20.1465  -11.3842    8.9069 C   0  0  0  0  0  0  0  0  0  0  0  0
   21.3487  -10.7149    8.7856 C   0  0  0  0  0  0  0  0  0  0  0  0
   20.7295  -14.7167    8.5926 N   0  0  0  0  0  0  0  0  0  0  0  0
   21.6196  -15.2357    9.6214 C   0  0  1  0  0  0  0  0  0  0  0  0
   22.7046  -16.0724    9.0113 C   0  0  0  0  0  0  0  0  0  0  0  0
   22.1484  -17.3380    8.5054 C   0  0  0  0  0  0  0  0  0  0  0  0
   21.3172  -18.1626    9.2432 C   0  0  0  0  0  0  0  0  0  0  0  0
   21.0083  -19.2303    8.4518 N   0  0  0  0  0  0  0  0  0  0  0  0
   21.6138  -19.0868    7.2742 C   0  0  0  0  0  0  0  0  0  0  0  0
   22.2961  -17.9347    7.3340 N   0  0  0  0  0  0  0  0  0  0  0  0
   22.2267  -14.0880   10.3283 C   0  0  0  0  0  0  0  0  0  0  0  0
   22.2021  -12.9489    9.7570 O   0  0  0  0  0  0  0  0  0  0  0  0
   22.8250  -14.1556   11.5771 O   0  0  0  0  0  0  0  0  0  0  0  0
  2  1  1  6
  2  3  1  0
  3  4  1  0
  4  5  2  0
  4  8  1  0
  5  6  1  0
  6  7  1  0
  8  7  2  0
  9 18  1  0
  9  2  1  0
 10  9  2  0
 11 12  1  0
 12 22  2  0
 13 14  2  0
 13 12  1  0
 14 15  1  0
 15 16  1  0
 15 21  2  0
 17 16  1  1
 17 18  1  0
 19 17  1  0
 20 19  2  0
 22 21  1  0
 23 19  1  0
 24 31  1  0
 24 23  1  0
 24 25  1  6
 26 27  2  0
 26 25  1  0
 28 27  1  0
 29 30  2  0
 29 28  1  0
 30 26  1  0
 31 33  1  0
 32 31  2  0
M  END
$$$$
