HYH.pdb
     RDKit          3D

 33 35  0  0  1  0  0  0  0  0999 V2000
   40.1084  -11.7593   -7.5345 N   0  0  0  0  0  0  0  0  0  0  0  0
   40.3025  -10.3538   -7.7511 C   0  0  1  0  0  0  0  0  0  0  0  0
   38.9887   -9.5920   -7.7619 C   0  0  0  0  0  0  0  0  0  0  0  0
   38.2829   -9.7684   -9.0457 C   0  0  0  0  0  0  0  0  0  0  0  0
   38.7280  -10.5812  -10.0658 C   0  0  0  0  0  0  0  0  0  0  0  0
   37.8550  -10.5169  -11.0950 N   0  0  0  0  0  0  0  0  0  0  0  0
   36.8598   -9.6710  -10.7382 C   0  0  0  0  0  0  0  0  0  0  0  0
   37.1348   -9.2268   -9.4940 N   0  0  0  0  0  0  0  0  0  0  0  0
   41.2259   -9.7827   -6.7376 C   0  0  0  0  0  0  0  0  0  0  0  0
   41.1169  -10.1486   -5.5586 O   0  0  0  0  0  0  0  0  0  0  0  0
   45.6406  -14.1070   -7.1419 O   0  0  0  0  0  0  0  0  0  0  0  0
   45.3880  -12.7470   -6.9874 C   0  0  0  0  0  0  0  0  0  0  0  0
   45.0513  -11.9634   -8.0730 C   0  0  0  0  0  0  0  0  0  0  0  0
   44.7953  -10.6043   -7.9410 C   0  0  0  0  0  0  0  0  0  0  0  0
   44.8706   -9.9869   -6.7039 C   0  0  0  0  0  0  0  0  0  0  0  0
   44.5952   -8.5315   -6.5734 C   0  0  0  0  0  0  0  0  0  0  0  0
   43.1608   -8.2786   -6.1541 C   0  0  2  0  0  0  0  0  0  0  0  0
   42.2205   -8.8338   -7.0971 N   0  0  0  0  0  0  0  0  0  0  0  0
   42.9025   -6.8699   -5.8432 C   0  0  0  0  0  0  0  0  0  0  0  0
   42.6288   -6.0826   -6.7880 O   0  0  0  0  0  0  0  0  0  0  0  0
   45.2070  -10.7758   -5.6266 C   0  0  0  0  0  0  0  0  0  0  0  0
   45.4616  -12.1271   -5.7575 C   0  0  0  0  0  0  0  0  0  0  0  0
   42.9378   -6.3174   -4.5397 N   0  0  0  0  0  0  0  0  0  0  0  0
   42.6001   -4.9166   -4.3310 C   0  0  1  0  0  0  0  0  0  0  0  0
   42.4195   -4.6265   -2.8705 C   0  0  0  0  0  0  0  0  0  0  0  0
   41.9580   -3.2417   -2.6795 C   0  0  0  0  0  0  0  0  0  0  0  0
   41.0452   -2.6136   -3.5085 C   0  0  0  0  0  0  0  0  0  0  0  0
   40.8652   -1.3518   -3.0217 N   0  0  0  0  0  0  0  0  0  0  0  0
   41.6258   -1.1916   -1.9401 C   0  0  0  0  0  0  0  0  0  0  0  0
   42.2757   -2.3493   -1.7561 N   0  0  0  0  0  0  0  0  0  0  0  0
   43.7069   -4.0914   -4.8598 C   0  0  0  0  0  0  0  0  0  0  0  0
   44.8986   -4.5195   -4.7140 O   0  0  0  0  0  0  0  0  0  0  0  0
   43.5469   -2.8771   -5.5095 O   0  0  0  0  0  0  0  0  0  0  0  0
  2  1  1  1
  2  3  1  0
  3  4  1  0
  4  5  2  0
  4  8  1  0
  5  6  1  0
  6  7  1  0
  8  7  2  0
  9 18  1  0
  9  2  1  0
 10  9  2  0
 11 12  1  0
 12 22  2  0
 13 14  2  0
 13 12  1  0
 14 15  1  0
 15 16  1  0
 15 21  2  0
 17 16  1  6
 17 18  1  0
 19 17  1  0
 20 19  2  0
 22 21  1  0
 23 19  1  0
 24 31  1  0
 24 23  1  0
 24 25  1  1
 26 27  2  0
 26 25  1  0
 28 27  1  0
 29 30  2  0
 29 28  1  0
 30 26  1  0
 31 33  1  0
 32 31  2  0
M  END
$$$$
