HYH.pdb
     RDKit          3D

 33 35  0  0  1  0  0  0  0  0999 V2000
   23.3699  -11.9960  -19.5289 N   0  0  0  0  0  0  0  0  0  0  0  0
   22.5439  -11.3792  -18.5303 C   0  0  1  0  0  0  0  0  0  0  0  0
   22.1227  -12.3625  -17.4522 C   0  0  0  0  0  0  0  0  0  0  0  0
   21.2732  -13.4319  -18.0111 C   0  0  0  0  0  0  0  0  0  0  0  0
   20.9017  -13.5093  -19.3359 C   0  0  0  0  0  0  0  0  0  0  0  0
   20.1278  -14.6023  -19.5147 N   0  0  0  0  0  0  0  0  0  0  0  0
   20.0043  -15.2196  -18.3161 C   0  0  0  0  0  0  0  0  0  0  0  0
   20.7043  -14.4974  -17.4165 N   0  0  0  0  0  0  0  0  0  0  0  0
   23.2269  -10.2069  -17.9260 C   0  0  0  0  0  0  0  0  0  0  0  0
   24.4636  -10.1461  -17.9767 O   0  0  0  0  0  0  0  0  0  0  0  0
   25.3745   -1.9007  -17.0390 O   0  0  0  0  0  0  0  0  0  0  0  0
   24.9804   -3.2082  -17.3085 C   0  0  0  0  0  0  0  0  0  0  0  0
   23.8880   -3.4649  -18.1128 C   0  0  0  0  0  0  0  0  0  0  0  0
   23.4776   -4.7619  -18.3945 C   0  0  0  0  0  0  0  0  0  0  0  0
   24.1583   -5.8487  -17.8722 C   0  0  0  0  0  0  0  0  0  0  0  0
   23.7106   -7.2330  -18.1795 C   0  0  0  0  0  0  0  0  0  0  0  0
   23.0583   -7.8804  -16.9742 C   0  0  2  0  0  0  0  0  0  0  0  0
   22.4904   -9.1666  -17.2980 N   0  0  0  0  0  0  0  0  0  0  0  0
   22.1155   -6.9882  -16.2940 C   0  0  0  0  0  0  0  0  0  0  0  0
   20.9939   -6.7743  -16.8267 O   0  0  0  0  0  0  0  0  0  0  0  0
   25.2465   -5.5836  -17.0712 C   0  0  0  0  0  0  0  0  0  0  0  0
   25.6548   -4.2942  -16.7909 C   0  0  0  0  0  0  0  0  0  0  0  0
   22.3738   -6.3375  -15.0629 N   0  0  0  0  0  0  0  0  0  0  0  0
   21.3373   -5.5343  -14.4300 C   0  0  1  0  0  0  0  0  0  0  0  0
   21.1829   -5.9100  -12.9861 C   0  0  0  0  0  0  0  0  0  0  0  0
   20.4033   -7.1525  -12.8635 C   0  0  0  0  0  0  0  0  0  0  0  0
   19.8749   -7.8390  -13.9427 C   0  0  0  0  0  0  0  0  0  0  0  0
   19.2241   -8.9293  -13.4433 N   0  0  0  0  0  0  0  0  0  0  0  0
   19.3360   -8.9308  -12.1161 C   0  0  0  0  0  0  0  0  0  0  0  0
   20.0535   -7.8459  -11.7926 N   0  0  0  0  0  0  0  0  0  0  0  0
   21.7323   -4.1130  -14.5255 C   0  0  0  0  0  0  0  0  0  0  0  0
   22.9405   -3.8440  -14.8294 O   0  0  0  0  0  0  0  0  0  0  0  0
   20.8813   -3.0399  -14.3094 O   0  0  0  0  0  0  0  0  0  0  0  0
  2  1  1  6
  2  3  1  0
  3  4  1  0
  4  5  2  0
  4  8  1  0
  5  6  1  0
  6  7  1  0
  8  7  2  0
  9 18  1  0
  9  2  1  0
 10  9  2  0
 11 12  1  0
 12 22  2  0
 13 14  2  0
 13 12  1  0
 14 15  1  0
 15 16  1  0
 15 21  2  0
 17 16  1  6
 17 18  1  0
 19 17  1  0
 20 19  2  0
 22 21  1  0
 23 19  1  0
 24 31  1  0
 24 23  1  0
 24 25  1  1
 26 27  2  0
 26 25  1  0
 28 27  1  0
 29 30  2  0
 29 28  1  0
 30 26  1  0
 31 33  1  0
 32 31  2  0
M  END
$$$$
