HYH.pdb
     RDKit          3D

 33 35  0  0  1  0  0  0  0  0999 V2000
   14.0503  -11.4753  -15.3329 N   0  0  0  0  0  0  0  0  0  0  0  0
   15.2577  -11.6466  -14.5762 C   0  0  1  0  0  0  0  0  0  0  0  0
   16.3128  -12.4149  -15.3528 C   0  0  0  0  0  0  0  0  0  0  0  0
   15.9360  -13.8340  -15.4996 C   0  0  0  0  0  0  0  0  0  0  0  0
   14.9817  -14.2918  -16.3822 C   0  0  0  0  0  0  0  0  0  0  0  0
   14.8797  -15.6340  -16.2657 N   0  0  0  0  0  0  0  0  0  0  0  0
   15.7601  -16.0329  -15.3176 C   0  0  0  0  0  0  0  0  0  0  0  0
   16.3916  -14.9300  -14.8641 N   0  0  0  0  0  0  0  0  0  0  0  0
   15.7941  -10.3363  -14.1277 C   0  0  0  0  0  0  0  0  0  0  0  0
   15.6017   -9.3389  -14.8377 O   0  0  0  0  0  0  0  0  0  0  0  0
   19.0254   -3.9225   -8.9967 O   0  0  0  0  0  0  0  0  0  0  0  0
   18.6191   -5.1645   -9.4757 C   0  0  0  0  0  0  0  0  0  0  0  0
   19.5475   -6.1121   -9.8581 C   0  0  0  0  0  0  0  0  0  0  0  0
   19.1636   -7.3577  -10.3389 C   0  0  0  0  0  0  0  0  0  0  0  0
   17.8243   -7.6911  -10.4508 C   0  0  0  0  0  0  0  0  0  0  0  0
   17.4240   -9.0269  -10.9671 C   0  0  0  0  0  0  0  0  0  0  0  0
   17.0574   -8.9614  -12.4363 C   0  0  2  0  0  0  0  0  0  0  0  0
   16.5162  -10.2121  -12.9103 N   0  0  0  0  0  0  0  0  0  0  0  0
   18.1502   -8.4529  -13.2698 C   0  0  0  0  0  0  0  0  0  0  0  0
   18.5456   -7.2697  -13.0925 O   0  0  0  0  0  0  0  0  0  0  0  0
   16.9053   -6.7402  -10.0674 C   0  0  0  0  0  0  0  0  0  0  0  0
   17.2866   -5.5017   -9.5892 C   0  0  0  0  0  0  0  0  0  0  0  0
   18.8064   -9.2028  -14.2761 N   0  0  0  0  0  0  0  0  0  0  0  0
   19.8857   -8.6025  -15.0474 C   0  0  1  0  0  0  0  0  0  0  0  0
   21.0663   -8.3107  -14.1695 C   0  0  0  0  0  0  0  0  0  0  0  0
   21.1711   -6.8636  -13.9211 C   0  0  0  0  0  0  0  0  0  0  0  0
   20.2024   -5.9472  -14.2913 C   0  0  0  0  0  0  0  0  0  0  0  0
   20.6452   -4.7173  -13.9001 N   0  0  0  0  0  0  0  0  0  0  0  0
   21.8331   -4.8507  -13.3128 C   0  0  0  0  0  0  0  0  0  0  0  0
   22.1270   -6.1582  -13.3391 N   0  0  0  0  0  0  0  0  0  0  0  0
   20.2855   -9.5579  -16.1023 C   0  0  0  0  0  0  0  0  0  0  0  0
   19.6960  -10.6871  -16.1455 O   0  0  0  0  0  0  0  0  0  0  0  0
   21.2605   -9.3173  -17.0583 O   0  0  0  0  0  0  0  0  0  0  0  0
  2  1  1  6
  2  3  1  0
  3  4  1  0
  4  5  2  0
  4  8  1  0
  5  6  1  0
  6  7  1  0
  8  7  2  0
  9 18  1  0
  9  2  1  0
 10  9  2  0
 11 12  1  0
 12 22  2  0
 13 14  2  0
 13 12  1  0
 14 15  1  0
 15 16  1  0
 15 21  2  0
 17 16  1  1
 17 18  1  0
 19 17  1  0
 20 19  2  0
 22 21  1  0
 23 19  1  0
 24 31  1  0
 24 23  1  0
 24 25  1  1
 26 27  2  0
 26 25  1  0
 28 27  1  0
 29 30  2  0
 29 28  1  0
 30 26  1  0
 31 33  1  0
 32 31  2  0
M  END
$$$$
