SVE.pdb
     RDKit          3D

 23 22  0  0  1  0  0  0  0  0999 V2000
   23.7231  -37.0494  -11.3885 O   0  0  0  0  0  0  0  0  0  0  0  0
   24.5778  -36.7760  -10.3255 C   0  0  0  0  0  0  0  0  0  0  0  0
   25.3620  -35.5307  -10.6678 C   0  0  2  0  0  0  0  0  0  0  0  0
   26.4208  -35.9087  -11.5808 N   0  0  0  0  0  0  0  0  0  0  0  0
   25.9914  -34.9195   -9.4759 C   0  0  0  0  0  0  0  0  0  0  0  0
   27.1965  -35.1437   -9.2113 O   0  0  0  0  0  0  0  0  0  0  0  0
   23.6700  -32.3600   -7.2859 C   0  0  0  0  0  0  0  0  0  0  0  0
   25.1562  -32.0379   -7.3385 C   0  0  2  0  0  0  0  0  0  0  0  0
   25.3976  -31.1889   -8.5498 C   0  0  0  0  0  0  0  0  0  0  0  0
   25.8734  -33.3827   -7.4738 C   0  0  2  0  0  0  0  0  0  0  0  0
   25.2885  -34.0647   -8.5823 N   0  0  0  0  0  0  0  0  0  0  0  0
   25.7341  -34.1571   -6.1975 C   0  0  0  0  0  0  0  0  0  0  0  0
   24.6506  -34.7233   -5.9094 O   0  0  0  0  0  0  0  0  0  0  0  0
   26.8008  -34.2873   -5.2662 N   0  0  0  0  0  0  0  0  0  0  0  0
   26.6986  -35.1271   -4.0712 C   0  0  1  0  0  0  0  0  0  0  0  0
   28.0623  -35.1817   -3.4574 C   0  0  0  0  0  0  0  0  0  0  0  0
   28.0993  -35.8926   -2.1381 C   0  0  0  0  0  0  0  0  0  0  0  0
   29.4598  -35.9305   -1.5613 C   0  0  0  0  0  0  0  0  0  0  0  0
   30.4909  -35.4614   -2.0914 O   0  0  0  0  0  0  0  0  0  0  0  0
   25.7588  -34.4926   -3.0868 C   0  0  0  0  0  0  0  0  0  0  0  0
   25.6863  -33.1194   -2.9755 O   0  0  0  0  0  0  0  0  0  0  0  0
   29.6276  -36.5444   -0.3062 O   0  0  0  0  0  0  0  0  0  0  0  0
   25.0259  -35.1931   -2.3510 O   0  0  0  0  0  0  0  0  0  0  0  0
  2  1  1  0
  3  2  1  0
  3  4  1  6
  5  6  2  0
  5  3  1  0
  8  7  1  6
  8 10  1  0
  9  8  1  0
 10 12  1  0
 10 11  1  6
 11  5  1  0
 12 14  1  0
 13 12  2  0
 14 15  1  0
 15 20  1  0
 15 16  1  1
 16 17  1  0
 18 22  1  0
 18 17  1  0
 19 18  2  0
 20 23  2  0
 20 21  1  0
M  END
$$$$
