SVE.pdb
     RDKit          3D

 23 22  0  0  1  0  0  0  0  0999 V2000
   14.1533   -9.1576   -9.2054 O   0  0  0  0  0  0  0  0  0  0  0  0
   15.2475   -9.0162  -10.0528 C   0  0  0  0  0  0  0  0  0  0  0  0
   14.8942   -9.6501  -11.3780 C   0  0  2  0  0  0  0  0  0  0  0  0
   14.8794  -11.0866  -11.1941 N   0  0  0  0  0  0  0  0  0  0  0  0
   15.8883   -9.3407  -12.4299 C   0  0  0  0  0  0  0  0  0  0  0  0
   16.9938   -9.9322  -12.4498 O   0  0  0  0  0  0  0  0  0  0  0  0
   14.4399   -7.6506  -15.7031 C   0  0  0  0  0  0  0  0  0  0  0  0
   15.7466   -8.4192  -15.8337 C   0  0  2  0  0  0  0  0  0  0  0  0
   15.4120   -9.8771  -15.9298 C   0  0  0  0  0  0  0  0  0  0  0  0
   16.5331   -8.1322  -14.5530 C   0  0  2  0  0  0  0  0  0  0  0  0
   15.6578   -8.3808  -13.4540 N   0  0  0  0  0  0  0  0  0  0  0  0
   17.0259   -6.7163  -14.5729 C   0  0  0  0  0  0  0  0  0  0  0  0
   16.2739   -5.7736  -14.2215 O   0  0  0  0  0  0  0  0  0  0  0  0
   18.3442   -6.3751  -14.9826 N   0  0  0  0  0  0  0  0  0  0  0  0
   18.8301   -4.9939  -14.9862 C   0  0  1  0  0  0  0  0  0  0  0  0
   19.8991   -4.9040  -13.9427 C   0  0  0  0  0  0  0  0  0  0  0  0
   21.0434   -5.8450  -14.1723 C   0  0  0  0  0  0  0  0  0  0  0  0
   22.0603   -5.7600  -13.1029 C   0  0  0  0  0  0  0  0  0  0  0  0
   22.5863   -4.7081  -12.6774 O   0  0  0  0  0  0  0  0  0  0  0  0
   19.4402   -4.6765  -16.3210 C   0  0  0  0  0  0  0  0  0  0  0  0
   19.8650   -3.3957  -16.6081 O   0  0  0  0  0  0  0  0  0  0  0  0
   22.4853   -6.9583  -12.4996 O   0  0  0  0  0  0  0  0  0  0  0  0
   19.5751   -5.5631  -17.1958 O   0  0  0  0  0  0  0  0  0  0  0  0
  2  1  1  0
  3  2  1  0
  3  4  1  1
  5  6  2  0
  5  3  1  0
  8  7  1  1
  8 10  1  0
  9  8  1  0
 10 12  1  0
 10 11  1  1
 11  5  1  0
 12 14  1  0
 13 12  2  0
 14 15  1  0
 15 20  1  0
 15 16  1  1
 16 17  1  0
 18 22  1  0
 18 17  1  0
 19 18  2  0
 20 23  2  0
 20 21  1  0
M  END
$$$$
