SVE.pdb
     RDKit          3D

 23 22  0  0  1  0  0  0  0  0999 V2000
   20.4707  -14.3270  -15.8669 O   0  0  0  0  0  0  0  0  0  0  0  0
   20.3430  -12.9840  -16.2065 C   0  0  0  0  0  0  0  0  0  0  0  0
   18.9821  -12.5155  -15.7466 C   0  0  2  0  0  0  0  0  0  0  0  0
   17.9913  -13.0871  -16.6350 N   0  0  0  0  0  0  0  0  0  0  0  0
   18.8462  -11.0431  -15.8076 C   0  0  0  0  0  0  0  0  0  0  0  0
   18.7784  -10.4589  -16.9152 O   0  0  0  0  0  0  0  0  0  0  0  0
   16.2920   -8.8021  -14.5753 C   0  0  0  0  0  0  0  0  0  0  0  0
   17.5306   -8.3869  -13.7951 C   0  0  2  0  0  0  0  0  0  0  0  0
   17.4885   -6.8980  -13.6287 C   0  0  0  0  0  0  0  0  0  0  0  0
   18.7271   -8.7973  -14.6560 C   0  0  2  0  0  0  0  0  0  0  0  0
   18.7859  -10.2229  -14.6470 N   0  0  0  0  0  0  0  0  0  0  0  0
   19.9771   -8.1774  -14.1071 C   0  0  0  0  0  0  0  0  0  0  0  0
   20.4539   -8.5650  -13.0116 O   0  0  0  0  0  0  0  0  0  0  0  0
   20.6729   -7.1394  -14.7855 N   0  0  0  0  0  0  0  0  0  0  0  0
   21.9477   -6.6056  -14.3021 C   0  0  1  0  0  0  0  0  0  0  0  0
   22.7758   -6.2917  -15.5085 C   0  0  0  0  0  0  0  0  0  0  0  0
   22.1564   -5.2692  -16.4129 C   0  0  0  0  0  0  0  0  0  0  0  0
   22.9200   -5.0958  -17.6667 C   0  0  0  0  0  0  0  0  0  0  0  0
   23.9964   -5.6659  -17.9508 O   0  0  0  0  0  0  0  0  0  0  0  0
   21.7073   -5.3311  -13.5454 C   0  0  0  0  0  0  0  0  0  0  0  0
   22.6473   -4.8613  -12.6516 O   0  0  0  0  0  0  0  0  0  0  0  0
   22.4051   -4.2159  -18.6367 O   0  0  0  0  0  0  0  0  0  0  0  0
   20.6544   -4.6723  -13.7095 O   0  0  0  0  0  0  0  0  0  0  0  0
  2  1  1  0
  3  2  1  0
  3  4  1  6
  5  6  2  0
  5  3  1  0
  8  7  1  6
  8 10  1  0
  9  8  1  0
 10 12  1  0
 10 11  1  1
 11  5  1  0
 12 14  1  0
 13 12  2  0
 14 15  1  0
 15 20  1  0
 15 16  1  6
 16 17  1  0
 18 22  1  0
 18 17  1  0
 19 18  2  0
 20 23  2  0
 20 21  1  0
M  END
$$$$
