SVE.pdb
     RDKit          3D

 23 22  0  0  1  0  0  0  0  0999 V2000
   17.4200  -11.3927  -19.5152 O   0  0  0  0  0  0  0  0  0  0  0  0
   18.0011  -10.7783  -18.4107 C   0  0  0  0  0  0  0  0  0  0  0  0
   18.7381  -11.8371  -17.6240 C   0  0  2  0  0  0  0  0  0  0  0  0
   17.7520  -12.6994  -17.0064 N   0  0  0  0  0  0  0  0  0  0  0  0
   19.5686  -11.2570  -16.5451 C   0  0  0  0  0  0  0  0  0  0  0  0
   19.0402  -10.8827  -15.4712 O   0  0  0  0  0  0  0  0  0  0  0  0
   23.0513  -12.5420  -15.4883 C   0  0  0  0  0  0  0  0  0  0  0  0
   23.2042  -11.0633  -15.8126 C   0  0  2  0  0  0  0  0  0  0  0  0
   24.1318  -10.4661  -14.7980 C   0  0  0  0  0  0  0  0  0  0  0  0
   21.8051  -10.4576  -15.6832 C   0  0  2  0  0  0  0  0  0  0  0  0
   20.9772  -11.0928  -16.6562 N   0  0  0  0  0  0  0  0  0  0  0  0
   21.8792   -8.9740  -15.8872 C   0  0  0  0  0  0  0  0  0  0  0  0
   21.8989   -8.4892  -17.0457 O   0  0  0  0  0  0  0  0  0  0  0  0
   21.9300   -8.0581  -14.8007 N   0  0  0  0  0  0  0  0  0  0  0  0
   21.8799   -6.6080  -14.9962 C   0  0  1  0  0  0  0  0  0  0  0  0
   20.5616   -6.2980  -15.6330 C   0  0  0  0  0  0  0  0  0  0  0  0
   20.3444   -4.8360  -15.8836 C   0  0  0  0  0  0  0  0  0  0  0  0
   19.0104   -4.5592  -16.4571 C   0  0  0  0  0  0  0  0  0  0  0  0
   18.1356   -5.4144  -16.7171 O   0  0  0  0  0  0  0  0  0  0  0  0
   21.9394   -5.9164  -13.6648 C   0  0  0  0  0  0  0  0  0  0  0  0
   22.3950   -4.6174  -13.5719 O   0  0  0  0  0  0  0  0  0  0  0  0
   18.6790   -3.2214  -16.7416 O   0  0  0  0  0  0  0  0  0  0  0  0
   21.5787   -6.5013  -12.6173 O   0  0  0  0  0  0  0  0  0  0  0  0
  2  1  1  0
  3  2  1  0
  3  4  1  1
  5  6  2  0
  5  3  1  0
  8  7  1  1
  8 10  1  0
  9  8  1  0
 10 12  1  0
 10 11  1  6
 11  5  1  0
 12 14  1  0
 13 12  2  0
 14 15  1  0
 15 20  1  0
 15 16  1  1
 16 17  1  0
 18 22  1  0
 18 17  1  0
 19 18  2  0
 20 23  2  0
 20 21  1  0
M  END
$$$$
