SVE.pdb
     RDKit          3D

 23 22  0  0  1  0  0  0  0  0999 V2000
   17.6684  -11.6028  -19.4407 O   0  0  0  0  0  0  0  0  0  0  0  0
   18.4419  -10.9312  -18.4995 C   0  0  0  0  0  0  0  0  0  0  0  0
   18.8338  -11.9216  -17.4278 C   0  0  2  0  0  0  0  0  0  0  0  0
   17.6223  -12.3751  -16.7766 N   0  0  0  0  0  0  0  0  0  0  0  0
   19.7010  -11.3142  -16.3937 C   0  0  0  0  0  0  0  0  0  0  0  0
   19.2060  -10.8855  -15.3243 O   0  0  0  0  0  0  0  0  0  0  0  0
   23.0835  -12.6739  -15.2077 C   0  0  0  0  0  0  0  0  0  0  0  0
   23.3293  -11.2500  -15.6845 C   0  0  2  0  0  0  0  0  0  0  0  0
   24.3080  -10.6151  -14.7435 C   0  0  0  0  0  0  0  0  0  0  0  0
   21.9751  -10.5416  -15.6090 C   0  0  2  0  0  0  0  0  0  0  0  0
   21.1093  -11.1828  -16.5445 N   0  0  0  0  0  0  0  0  0  0  0  0
   22.1531   -9.0840  -15.9119 C   0  0  0  0  0  0  0  0  0  0  0  0
   22.3838   -8.6994  -17.0851 O   0  0  0  0  0  0  0  0  0  0  0  0
   22.0714   -8.0823  -14.9060 N   0  0  0  0  0  0  0  0  0  0  0  0
   22.1559   -6.6537  -15.2151 C   0  0  1  0  0  0  0  0  0  0  0  0
   20.9219   -6.2991  -15.9840 C   0  0  0  0  0  0  0  0  0  0  0  0
   19.6888   -6.2151  -15.1356 C   0  0  0  0  0  0  0  0  0  0  0  0
   18.5066   -5.7799  -15.9089 C   0  0  0  0  0  0  0  0  0  0  0  0
   18.5205   -5.0011  -16.8874 O   0  0  0  0  0  0  0  0  0  0  0  0
   22.1663   -5.8607  -13.9401 C   0  0  0  0  0  0  0  0  0  0  0  0
   21.8231   -6.4564  -12.7440 O   0  0  0  0  0  0  0  0  0  0  0  0
   17.2471   -6.2759  -15.5240 O   0  0  0  0  0  0  0  0  0  0  0  0
   22.4850   -4.6491  -13.9365 O   0  0  0  0  0  0  0  0  0  0  0  0
  2  1  1  0
  3  2  1  0
  3  4  1  1
  5  6  2  0
  5  3  1  0
  8  7  1  1
  8 10  1  0
  9  8  1  0
 10 12  1  0
 10 11  1  6
 11  5  1  0
 12 14  1  0
 13 12  2  0
 14 15  1  0
 15 20  1  0
 15 16  1  6
 16 17  1  0
 18 22  1  0
 18 17  1  0
 19 18  2  0
 20 23  2  0
 20 21  1  0
M  END
$$$$
