SVE.pdb
     RDKit          3D

 23 22  0  0  1  0  0  0  0  0999 V2000
   17.2584  -12.5163  -11.4422 O   0  0  0  0  0  0  0  0  0  0  0  0
   16.8012  -11.2117  -11.5981 C   0  0  0  0  0  0  0  0  0  0  0  0
   15.6702  -10.9954  -10.6198 C   0  0  2  0  0  0  0  0  0  0  0  0
   14.5530  -11.8139  -11.0435 N   0  0  0  0  0  0  0  0  0  0  0  0
   15.2134   -9.5879  -10.5937 C   0  0  0  0  0  0  0  0  0  0  0  0
   14.3789   -9.1775  -11.4349 O   0  0  0  0  0  0  0  0  0  0  0  0
   13.8718   -7.5993   -7.5840 C   0  0  0  0  0  0  0  0  0  0  0  0
   15.1407   -6.9228   -8.0812 C   0  0  2  0  0  0  0  0  0  0  0  0
   14.9684   -5.4440   -7.9088 C   0  0  0  0  0  0  0  0  0  0  0  0
   15.2546   -7.2808   -9.5644 C   0  0  2  0  0  0  0  0  0  0  0  0
   15.6795   -8.6408   -9.6402 N   0  0  0  0  0  0  0  0  0  0  0  0
   16.2209   -6.3496  -10.2332 C   0  0  0  0  0  0  0  0  0  0  0  0
   17.4198   -6.2995   -9.8622 O   0  0  0  0  0  0  0  0  0  0  0  0
   15.8366   -5.4923  -11.3006 N   0  0  0  0  0  0  0  0  0  0  0  0
   16.7969   -4.6411  -12.0055 C   0  0  1  0  0  0  0  0  0  0  0  0
   16.7259   -5.0089  -13.4545 C   0  0  0  0  0  0  0  0  0  0  0  0
   17.7179   -4.2788  -14.3089 C   0  0  0  0  0  0  0  0  0  0  0  0
   17.7219   -4.7686  -15.7036 C   0  0  0  0  0  0  0  0  0  0  0  0
   16.9595   -5.6419  -16.1730 O   0  0  0  0  0  0  0  0  0  0  0  0
   16.3973   -3.2010  -11.8601 C   0  0  0  0  0  0  0  0  0  0  0  0
   17.3510   -2.2046  -11.8926 O   0  0  0  0  0  0  0  0  0  0  0  0
   18.6594   -4.2144  -16.5950 O   0  0  0  0  0  0  0  0  0  0  0  0
   15.1968   -2.8770  -11.7074 O   0  0  0  0  0  0  0  0  0  0  0  0
  2  1  1  0
  3  2  1  0
  3  4  1  6
  5  6  2  0
  5  3  1  0
  8  7  1  6
  8 10  1  0
  9  8  1  0
 10 12  1  0
 10 11  1  1
 11  5  1  0
 12 14  1  0
 13 12  2  0
 14 15  1  0
 15 20  1  0
 15 16  1  6
 16 17  1  0
 18 22  1  0
 18 17  1  0
 19 18  2  0
 20 23  2  0
 20 21  1  0
M  END
$$$$
