SVE.pdb
     RDKit          3D

 23 22  0  0  1  0  0  0  0  0999 V2000
   20.6445  -10.4721  -20.0104 O   0  0  0  0  0  0  0  0  0  0  0  0
   21.8620  -11.0872  -19.7370 C   0  0  0  0  0  0  0  0  0  0  0  0
   21.6810  -11.9523  -18.5115 C   0  0  2  0  0  0  0  0  0  0  0  0
   20.6192  -12.8980  -18.7875 N   0  0  0  0  0  0  0  0  0  0  0  0
   21.2850  -11.1644  -17.3229 C   0  0  0  0  0  0  0  0  0  0  0  0
   20.0839  -11.1175  -16.9659 O   0  0  0  0  0  0  0  0  0  0  0  0
   24.1557  -10.1758  -14.7342 C   0  0  0  0  0  0  0  0  0  0  0  0
   22.7218  -10.1271  -14.2275 C   0  0  2  0  0  0  0  0  0  0  0  0
   22.3246  -11.5206  -13.8444 C   0  0  0  0  0  0  0  0  0  0  0  0
   21.8770   -9.6320  -15.4033 C   0  0  2  0  0  0  0  0  0  0  0  0
   22.2158  -10.4325  -16.5347 N   0  0  0  0  0  0  0  0  0  0  0  0
   22.1491   -8.1766  -15.6397 C   0  0  0  0  0  0  0  0  0  0  0  0
   23.1248   -7.8159  -16.3436 O   0  0  0  0  0  0  0  0  0  0  0  0
   21.3324   -7.1507  -15.0899 N   0  0  0  0  0  0  0  0  0  0  0  0
   21.6105   -5.7293  -15.3045 C   0  0  1  0  0  0  0  0  0  0  0  0
   20.3061   -5.0734  -15.6330 C   0  0  0  0  0  0  0  0  0  0  0  0
   20.4265   -3.6069  -15.9198 C   0  0  0  0  0  0  0  0  0  0  0  0
   19.1236   -2.9935  -16.2530 C   0  0  0  0  0  0  0  0  0  0  0  0
   18.9462   -1.8125  -16.6245 O   0  0  0  0  0  0  0  0  0  0  0  0
   22.1428   -5.1220  -14.0385 C   0  0  0  0  0  0  0  0  0  0  0  0
   22.9150   -3.9796  -14.0825 O   0  0  0  0  0  0  0  0  0  0  0  0
   17.9711   -3.7945  -16.1487 O   0  0  0  0  0  0  0  0  0  0  0  0
   21.8981   -5.6374  -12.9232 O   0  0  0  0  0  0  0  0  0  0  0  0
  2  1  1  0
  3  2  1  0
  3  4  1  6
  5  6  2  0
  5  3  1  0
  8  7  1  6
  8 10  1  0
  9  8  1  0
 10 12  1  0
 10 11  1  6
 11  5  1  0
 12 14  1  0
 13 12  2  0
 14 15  1  0
 15 20  1  0
 15 16  1  1
 16 17  1  0
 18 22  1  0
 18 17  1  0
 19 18  2  0
 20 23  2  0
 20 21  1  0
M  END
$$$$
