SVE.pdb
     RDKit          3D

 23 22  0  0  1  0  0  0  0  0999 V2000
   14.8488  -10.1315  -12.5727 O   0  0  0  0  0  0  0  0  0  0  0  0
   15.8436   -9.1660  -12.6883 C   0  0  0  0  0  0  0  0  0  0  0  0
   17.0913   -9.7025  -12.0262 C   0  0  2  0  0  0  0  0  0  0  0  0
   16.8808   -9.6767  -10.5935 N   0  0  0  0  0  0  0  0  0  0  0  0
   18.2824   -8.8752  -12.3216 C   0  0  0  0  0  0  0  0  0  0  0  0
   18.5041   -7.8284  -11.6679 O   0  0  0  0  0  0  0  0  0  0  0  0
   21.8043  -10.3302  -12.7847 C   0  0  0  0  0  0  0  0  0  0  0  0
   21.4801   -9.5162  -14.0287 C   0  0  2  0  0  0  0  0  0  0  0  0
   22.7378   -8.8278  -14.4654 C   0  0  0  0  0  0  0  0  0  0  0  0
   20.4286   -8.4913  -13.5983 C   0  0  2  0  0  0  0  0  0  0  0  0
   19.2223   -9.2068  -13.3365 N   0  0  0  0  0  0  0  0  0  0  0  0
   20.2540   -7.4668  -14.6791 C   0  0  0  0  0  0  0  0  0  0  0  0
   19.8541   -7.8051  -15.8207 O   0  0  0  0  0  0  0  0  0  0  0  0
   20.5268   -6.0869  -14.4708 N   0  0  0  0  0  0  0  0  0  0  0  0
   20.3598   -5.0876  -15.5278 C   0  0  1  0  0  0  0  0  0  0  0  0
   19.8451   -3.8430  -14.8753 C   0  0  0  0  0  0  0  0  0  0  0  0
   19.6235   -2.7106  -15.8323 C   0  0  0  0  0  0  0  0  0  0  0  0
   19.1521   -1.4866  -15.1506 C   0  0  0  0  0  0  0  0  0  0  0  0
   18.8701   -0.4030  -15.7078 O   0  0  0  0  0  0  0  0  0  0  0  0
   21.6920   -4.7827  -16.1497 C   0  0  0  0  0  0  0  0  0  0  0  0
   21.7780   -4.4365  -17.4824 O   0  0  0  0  0  0  0  0  0  0  0  0
   19.0018   -1.5264  -13.7519 O   0  0  0  0  0  0  0  0  0  0  0  0
   22.7463   -4.8361  -15.4751 O   0  0  0  0  0  0  0  0  0  0  0  0
  2  1  1  0
  3  2  1  0
  3  4  1  1
  5  6  2  0
  5  3  1  0
  8  7  1  1
  8 10  1  0
  9  8  1  0
 10 12  1  0
 10 11  1  6
 11  5  1  0
 12 14  1  0
 13 12  2  0
 14 15  1  0
 15 20  1  0
 15 16  1  1
 16 17  1  0
 18 22  1  0
 18 17  1  0
 19 18  2  0
 20 23  2  0
 20 21  1  0
M  END
$$$$
