SVE.pdb
     RDKit          3D

 23 22  0  0  1  0  0  0  0  0999 V2000
   17.0868   -8.7579  -16.9409 O   0  0  0  0  0  0  0  0  0  0  0  0
   17.0955  -10.1461  -17.0308 C   0  0  0  0  0  0  0  0  0  0  0  0
   17.3531  -10.7000  -15.6489 C   0  0  2  0  0  0  0  0  0  0  0  0
   16.1544  -10.5029  -14.8601 N   0  0  0  0  0  0  0  0  0  0  0  0
   18.4635  -10.0018  -14.9634 C   0  0  0  0  0  0  0  0  0  0  0  0
   18.2305   -9.2399  -13.9951 O   0  0  0  0  0  0  0  0  0  0  0  0
   21.9133  -11.7123  -14.3071 C   0  0  0  0  0  0  0  0  0  0  0  0
   22.1672  -10.3732  -14.9835 C   0  0  2  0  0  0  0  0  0  0  0  0
   23.3818   -9.7642  -14.3507 C   0  0  0  0  0  0  0  0  0  0  0  0
   20.9296   -9.5186  -14.7021 C   0  0  2  0  0  0  0  0  0  0  0  0
   19.8247  -10.1476  -15.3496 N   0  0  0  0  0  0  0  0  0  0  0  0
   21.1579   -8.1238  -15.2028 C   0  0  0  0  0  0  0  0  0  0  0  0
   21.2215   -7.8906  -16.4354 O   0  0  0  0  0  0  0  0  0  0  0  0
   21.3109   -7.0157  -14.3250 N   0  0  0  0  0  0  0  0  0  0  0  0
   21.4860   -5.6472  -14.8150 C   0  0  1  0  0  0  0  0  0  0  0  0
   20.1425   -4.9898  -14.7653 C   0  0  0  0  0  0  0  0  0  0  0  0
   20.1627   -3.5495  -15.1808 C   0  0  0  0  0  0  0  0  0  0  0  0
   18.8237   -2.9276  -15.1071 C   0  0  0  0  0  0  0  0  0  0  0  0
   18.5926   -1.7065  -14.9663 O   0  0  0  0  0  0  0  0  0  0  0  0
   22.4157   -4.8993  -13.9034 C   0  0  0  0  0  0  0  0  0  0  0  0
   23.1275   -3.8132  -14.3695 O   0  0  0  0  0  0  0  0  0  0  0  0
   17.6993   -3.7685  -15.2018 O   0  0  0  0  0  0  0  0  0  0  0  0
   22.5629   -5.2442  -12.7081 O   0  0  0  0  0  0  0  0  0  0  0  0
  2  1  1  0
  3  2  1  0
  3  4  1  1
  5  6  2  0
  5  3  1  0
  8  7  1  1
  8 10  1  0
  9  8  1  0
 10 12  1  0
 10 11  1  6
 11  5  1  0
 12 14  1  0
 13 12  2  0
 14 15  1  0
 15 20  1  0
 15 16  1  1
 16 17  1  0
 18 22  1  0
 18 17  1  0
 19 18  2  0
 20 23  2  0
 20 21  1  0
M  END
$$$$
