SVE.pdb
     RDKit          3D

 23 22  0  0  1  0  0  0  0  0999 V2000
   16.6843  -14.4828  -12.0285 O   0  0  0  0  0  0  0  0  0  0  0  0
   16.6504  -13.0972  -12.1480 C   0  0  0  0  0  0  0  0  0  0  0  0
   15.2245  -12.6467  -11.9317 C   0  0  2  0  0  0  0  0  0  0  0  0
   14.4544  -13.0333  -13.0958 N   0  0  0  0  0  0  0  0  0  0  0  0
   15.1167  -11.1777  -11.7876 C   0  0  0  0  0  0  0  0  0  0  0  0
   15.2446  -10.4324  -12.7879 O   0  0  0  0  0  0  0  0  0  0  0  0
   13.6391   -7.4336   -8.9942 C   0  0  0  0  0  0  0  0  0  0  0  0
   13.5924   -8.9090   -9.3632 C   0  0  2  0  0  0  0  0  0  0  0  0
   13.8240   -9.7009   -8.1119 C   0  0  0  0  0  0  0  0  0  0  0  0
   14.7341   -9.1301  -10.3575 C   0  0  2  0  0  0  0  0  0  0  0  0
   14.8686  -10.5386  -10.5412 N   0  0  0  0  0  0  0  0  0  0  0  0
   15.9905   -8.5077   -9.8264 C   0  0  0  0  0  0  0  0  0  0  0  0
   16.6163   -9.0427   -8.8779 O   0  0  0  0  0  0  0  0  0  0  0  0
   16.5271   -7.3033  -10.3590 N   0  0  0  0  0  0  0  0  0  0  0  0
   17.6497   -6.6023   -9.7329 C   0  0  1  0  0  0  0  0  0  0  0  0
   18.8647   -6.9022  -10.5536 C   0  0  0  0  0  0  0  0  0  0  0  0
   18.7537   -6.4500  -11.9786 C   0  0  0  0  0  0  0  0  0  0  0  0
   19.9819   -6.7313  -12.7516 C   0  0  0  0  0  0  0  0  0  0  0  0
   21.0588   -7.1594  -12.2812 O   0  0  0  0  0  0  0  0  0  0  0  0
   17.4043   -5.1214   -9.7697 C   0  0  0  0  0  0  0  0  0  0  0  0
   16.4156   -4.5969  -10.5764 O   0  0  0  0  0  0  0  0  0  0  0  0
   19.9546   -6.5028  -14.1400 O   0  0  0  0  0  0  0  0  0  0  0  0
   18.0884   -4.3367   -9.0728 O   0  0  0  0  0  0  0  0  0  0  0  0
  2  1  1  0
  3  2  1  0
  3  4  1  6
  5  6  2  0
  5  3  1  0
  8  7  1  1
  8 10  1  0
  9  8  1  0
 10 12  1  0
 10 11  1  1
 11  5  1  0
 12 14  1  0
 13 12  2  0
 14 15  1  0
 15 20  1  0
 15 16  1  6
 16 17  1  0
 18 22  1  0
 18 17  1  0
 19 18  2  0
 20 23  2  0
 20 21  1  0
M  END
$$$$
