SVE.pdb
     RDKit          3D

 23 22  0  0  1  0  0  0  0  0999 V2000
   22.2280  -21.3609   -8.9281 O   0  0  0  0  0  0  0  0  0  0  0  0
   22.9662  -20.6334   -9.8560 C   0  0  0  0  0  0  0  0  0  0  0  0
   24.4313  -20.8798   -9.5806 C   0  0  2  0  0  0  0  0  0  0  0  0
   24.7464  -20.2954   -8.2934 N   0  0  0  0  0  0  0  0  0  0  0  0
   25.3061  -20.2436  -10.5907 C   0  0  0  0  0  0  0  0  0  0  0  0
   25.5918  -19.0257  -10.5037 O   0  0  0  0  0  0  0  0  0  0  0  0
   28.6273  -20.8093  -11.9119 C   0  0  0  0  0  0  0  0  0  0  0  0
   27.7539  -21.0580  -13.1327 C   0  0  2  0  0  0  0  0  0  0  0  0
   28.4380  -20.4451  -14.3171 C   0  0  0  0  0  0  0  0  0  0  0  0
   26.4275  -20.3485  -12.8524 C   0  0  2  0  0  0  0  0  0  0  0  0
   25.8608  -20.9538  -11.6912 N   0  0  0  0  0  0  0  0  0  0  0  0
   25.5302  -20.4704  -14.0474 C   0  0  0  0  0  0  0  0  0  0  0  0
   25.0304  -21.5795  -14.3598 O   0  0  0  0  0  0  0  0  0  0  0  0
   25.2056  -19.3582  -14.8718 N   0  0  0  0  0  0  0  0  0  0  0  0
   24.2188  -19.4446  -15.9500 C   0  0  1  0  0  0  0  0  0  0  0  0
   23.4353  -18.1697  -15.9287 C   0  0  0  0  0  0  0  0  0  0  0  0
   22.4556  -18.0477  -17.0568 C   0  0  0  0  0  0  0  0  0  0  0  0
   21.0812  -18.4029  -16.6446 C   0  0  0  0  0  0  0  0  0  0  0  0
   20.3829  -19.3145  -17.1401 O   0  0  0  0  0  0  0  0  0  0  0  0
   24.9230  -19.5482  -17.2722 C   0  0  0  0  0  0  0  0  0  0  0  0
   24.3056  -20.1538  -18.3470 O   0  0  0  0  0  0  0  0  0  0  0  0
   20.4914  -17.6604  -15.6047 O   0  0  0  0  0  0  0  0  0  0  0  0
   26.0787  -19.0894  -17.4252 O   0  0  0  0  0  0  0  0  0  0  0  0
  2  1  1  0
  3  2  1  0
  3  4  1  1
  5  6  2  0
  5  3  1  0
  8  7  1  1
  8 10  1  0
  9  8  1  0
 10 12  1  0
 10 11  1  1
 11  5  1  0
 12 14  1  0
 13 12  2  0
 14 15  1  0
 15 20  1  0
 15 16  1  6
 16 17  1  0
 18 22  1  0
 18 17  1  0
 19 18  2  0
 20 23  2  0
 20 21  1  0
M  END
$$$$
