ANF.pdb
     RDKit          3D

 25 25  0  0  1  0  0  0  0  0999 V2000
   18.3003  -11.3394  -14.9463 C   0  0  0  0  0  0  0  0  0  0  0  0
   17.4034  -10.2502  -14.3914 C   0  0  2  0  0  0  0  0  0  0  0  0
   17.0695   -9.3611  -15.4849 N   0  0  0  0  0  0  0  0  0  0  0  0
   18.0436   -9.5253  -13.2693 C   0  0  0  0  0  0  0  0  0  0  0  0
   18.3778  -10.0606  -12.1969 O   0  0  0  0  0  0  0  0  0  0  0  0
   20.3816   -5.7941  -10.6098 N   0  0  0  0  0  0  0  0  0  0  0  0
   20.7624   -5.8264  -11.9849 C   0  0  0  0  0  0  0  0  0  0  0  0
   21.7857   -5.1769  -12.2936 O   0  0  0  0  0  0  0  0  0  0  0  0
   20.0343   -6.5618  -13.0228 C   0  0  0  0  0  0  0  0  0  0  0  0
   18.8930   -7.3238  -12.3864 C   0  0  2  0  0  0  0  0  0  0  0  0
   18.2940   -8.1451  -13.4144 N   0  0  0  0  0  0  0  0  0  0  0  0
   17.9423   -6.4201  -11.7368 C   0  0  0  0  0  0  0  0  0  0  0  0
   17.1312   -5.7908  -12.4827 O   0  0  0  0  0  0  0  0  0  0  0  0
   17.8416   -6.1807  -10.3515 N   0  0  0  0  0  0  0  0  0  0  0  0
   16.7841   -5.3581   -9.7379 C   0  0  1  0  0  0  0  0  0  0  0  0
   16.2461   -6.0019   -8.5097 C   0  0  0  0  0  0  0  0  0  0  0  0
   15.0874   -6.8465   -8.8535 C   0  0  0  0  0  0  0  0  0  0  0  0
   15.1669   -8.2398   -8.7227 C   0  0  0  0  0  0  0  0  0  0  0  0
   14.1273   -9.0771   -9.0015 C   0  0  0  0  0  0  0  0  0  0  0  0
   12.9214   -8.5596   -9.4363 C   0  0  0  0  0  0  0  0  0  0  0  0
   12.8032   -7.2099   -9.5764 C   0  0  0  0  0  0  0  0  0  0  0  0
   13.8720   -6.3709   -9.2884 C   0  0  0  0  0  0  0  0  0  0  0  0
   17.3543   -4.0299   -9.4987 C   0  0  0  0  0  0  0  0  0  0  0  0
   18.6773   -3.7522   -9.7562 O   0  0  0  0  0  0  0  0  0  0  0  0
   16.6341   -3.1117   -9.0462 O   0  0  0  0  0  0  0  0  0  0  0  0
  2  1  1  6
  2  3  1  0
  4  2  1  0
  4  5  2  0
  7  9  1  0
  7  6  1  0
  8  7  2  0
 10  9  1  6
 10 11  1  0
 11  4  1  0
 12 10  1  0
 13 12  2  0
 14 12  1  0
 15 14  1  0
 15 16  1  1
 16 17  1  0
 17 22  2  0
 18 17  1  0
 18 19  2  0
 19 20  1  0
 20 21  2  0
 22 21  1  0
 23 24  1  0
 23 15  1  0
 25 23  2  0
M  END
$$$$
