ANF.pdb
     RDKit          3D

 25 25  0  0  1  0  0  0  0  0999 V2000
   40.8917   -3.0958   -5.4072 C   0  0  0  0  0  0  0  0  0  0  0  0
   40.6783   -4.5969   -5.4034 C   0  0  2  0  0  0  0  0  0  0  0  0
   41.7384   -5.1859   -4.6116 N   0  0  0  0  0  0  0  0  0  0  0  0
   40.6428   -5.1536   -6.7757 C   0  0  0  0  0  0  0  0  0  0  0  0
   39.7028   -4.9794   -7.5722 O   0  0  0  0  0  0  0  0  0  0  0  0
   44.5561   -7.8233  -10.7534 N   0  0  0  0  0  0  0  0  0  0  0  0
   43.5139   -6.9897  -10.2475 C   0  0  0  0  0  0  0  0  0  0  0  0
   42.7268   -6.5094  -11.0925 O   0  0  0  0  0  0  0  0  0  0  0  0
   43.3264   -6.6777   -8.8278 C   0  0  0  0  0  0  0  0  0  0  0  0
   41.8540   -6.4638   -8.5545 C   0  0  2  0  0  0  0  0  0  0  0  0
   41.7350   -5.9293   -7.2165 N   0  0  0  0  0  0  0  0  0  0  0  0
   41.0874   -7.6937   -8.7596 C   0  0  0  0  0  0  0  0  0  0  0  0
   41.2948   -8.6526   -7.9548 O   0  0  0  0  0  0  0  0  0  0  0  0
   40.1338   -7.9156   -9.7735 N   0  0  0  0  0  0  0  0  0  0  0  0
   39.3317   -9.1465   -9.8873 C   0  0  1  0  0  0  0  0  0  0  0  0
   37.8781   -8.8546   -9.7671 C   0  0  0  0  0  0  0  0  0  0  0  0
   37.5546   -8.4864   -8.3764 C   0  0  0  0  0  0  0  0  0  0  0  0
   37.4860   -9.4734   -7.3835 C   0  0  0  0  0  0  0  0  0  0  0  0
   37.2141   -9.1999   -6.0756 C   0  0  0  0  0  0  0  0  0  0  0  0
   36.9905   -7.8959   -5.6748 C   0  0  0  0  0  0  0  0  0  0  0  0
   37.0483   -6.9069   -6.6098 C   0  0  0  0  0  0  0  0  0  0  0  0
   37.3262   -7.2027   -7.9381 C   0  0  0  0  0  0  0  0  0  0  0  0
   39.6961   -9.7836  -11.1553 C   0  0  0  0  0  0  0  0  0  0  0  0
   39.2974  -11.0640  -11.4637 O   0  0  0  0  0  0  0  0  0  0  0  0
   40.3899   -9.1623  -11.9914 O   0  0  0  0  0  0  0  0  0  0  0  0
  2  1  1  6
  2  3  1  0
  4  2  1  0
  4  5  2  0
  7  9  1  0
  7  6  1  0
  8  7  2  0
 10  9  1  1
 10 11  1  0
 11  4  1  0
 12 10  1  0
 13 12  2  0
 14 12  1  0
 15 14  1  0
 15 16  1  6
 16 17  1  0
 17 22  2  0
 18 17  1  0
 18 19  2  0
 19 20  1  0
 20 21  2  0
 22 21  1  0
 23 24  1  0
 23 15  1  0
 25 23  2  0
M  END
$$$$
