ANF.pdb
     RDKit          3D

 25 25  0  0  1  0  0  0  0  0999 V2000
   26.6867  -19.3979  -19.0227 C   0  0  0  0  0  0  0  0  0  0  0  0
   26.4490  -17.9836  -18.5306 C   0  0  2  0  0  0  0  0  0  0  0  0
   27.7448  -17.3756  -18.3091 N   0  0  0  0  0  0  0  0  0  0  0  0
   25.6130  -17.9570  -17.3080 C   0  0  0  0  0  0  0  0  0  0  0  0
   26.0456  -17.6728  -16.1764 O   0  0  0  0  0  0  0  0  0  0  0  0
   21.0107  -16.6984  -14.6677 N   0  0  0  0  0  0  0  0  0  0  0  0
   21.0447  -17.6810  -15.7022 C   0  0  0  0  0  0  0  0  0  0  0  0
   20.1791  -18.5818  -15.6417 O   0  0  0  0  0  0  0  0  0  0  0  0
   22.0158  -17.6863  -16.7999 C   0  0  0  0  0  0  0  0  0  0  0  0
   23.3220  -18.2692  -16.3074 C   0  0  2  0  0  0  0  0  0  0  0  0
   24.2429  -18.2713  -17.4217 N   0  0  0  0  0  0  0  0  0  0  0  0
   23.1270  -19.5920  -15.7118 C   0  0  0  0  0  0  0  0  0  0  0  0
   22.9127  -20.5623  -16.5009 O   0  0  0  0  0  0  0  0  0  0  0  0
   23.1548  -19.8924  -14.3350 N   0  0  0  0  0  0  0  0  0  0  0  0
   23.0816  -21.2612  -13.7944 C   0  0  1  0  0  0  0  0  0  0  0  0
   24.2563  -21.5633  -12.9333 C   0  0  0  0  0  0  0  0  0  0  0  0
   25.4877  -21.5524  -13.7442 C   0  0  0  0  0  0  0  0  0  0  0  0
   25.7905  -22.6355  -14.5809 C   0  0  0  0  0  0  0  0  0  0  0  0
   26.8994  -22.6805  -15.3732 C   0  0  0  0  0  0  0  0  0  0  0  0
   27.7896  -21.6228  -15.3759 C   0  0  0  0  0  0  0  0  0  0  0  0
   27.5312  -20.5506  -14.5764 C   0  0  0  0  0  0  0  0  0  0  0  0
   26.3971  -20.5207  -13.7751 C   0  0  0  0  0  0  0  0  0  0  0  0
   21.7995  -21.3816  -13.0958 C   0  0  0  0  0  0  0  0  0  0  0  0
   21.2661  -22.6066  -12.7664 O   0  0  0  0  0  0  0  0  0  0  0  0
   21.1574  -20.3535  -12.7842 O   0  0  0  0  0  0  0  0  0  0  0  0
  2  1  1  1
  2  3  1  0
  4  2  1  0
  4  5  2  0
  7  9  1  0
  7  6  1  0
  8  7  2  0
 10  9  1  6
 10 11  1  0
 11  4  1  0
 12 10  1  0
 13 12  2  0
 14 12  1  0
 15 14  1  0
 15 16  1  1
 16 17  1  0
 17 22  2  0
 18 17  1  0
 18 19  2  0
 19 20  1  0
 20 21  2  0
 22 21  1  0
 23 24  1  0
 23 15  1  0
 25 23  2  0
M  END
$$$$
