ANF.pdb
     RDKit          3D

 25 25  0  0  1  0  0  0  0  0999 V2000
   18.6385  -13.7325  -18.5764 C   0  0  0  0  0  0  0  0  0  0  0  0
   18.4485  -12.7365  -19.7037 C   0  0  2  0  0  0  0  0  0  0  0  0
   18.9067  -13.3671  -20.9244 N   0  0  0  0  0  0  0  0  0  0  0  0
   19.1595  -11.4635  -19.4422 C   0  0  0  0  0  0  0  0  0  0  0  0
   20.3855  -11.3798  -19.2466 O   0  0  0  0  0  0  0  0  0  0  0  0
   19.1770   -6.7215  -21.5658 N   0  0  0  0  0  0  0  0  0  0  0  0
   18.2999   -7.7220  -21.0494 C   0  0  0  0  0  0  0  0  0  0  0  0
   17.7395   -8.4580  -21.8912 O   0  0  0  0  0  0  0  0  0  0  0  0
   18.0313   -7.9233  -19.6227 C   0  0  0  0  0  0  0  0  0  0  0  0
   18.9723   -8.9770  -19.0819 C   0  0  2  0  0  0  0  0  0  0  0  0
   18.4116  -10.2683  -19.4105 N   0  0  0  0  0  0  0  0  0  0  0  0
   19.2132   -8.7952  -17.6496 C   0  0  0  0  0  0  0  0  0  0  0  0
   18.3630   -9.2881  -16.8469 O   0  0  0  0  0  0  0  0  0  0  0  0
   20.3078   -8.1196  -17.0733 N   0  0  0  0  0  0  0  0  0  0  0  0
   20.5260   -8.0052  -15.6205 C   0  0  1  0  0  0  0  0  0  0  0  0
   21.9744   -8.0665  -15.2874 C   0  0  0  0  0  0  0  0  0  0  0  0
   22.1599   -7.9235  -13.8316 C   0  0  0  0  0  0  0  0  0  0  0  0
   22.3132   -9.0598  -13.0254 C   0  0  0  0  0  0  0  0  0  0  0  0
   22.5105   -8.9986  -11.6775 C   0  0  0  0  0  0  0  0  0  0  0  0
   22.5678   -7.7717  -11.0430 C   0  0  0  0  0  0  0  0  0  0  0  0
   22.4235   -6.6427  -11.7914 C   0  0  0  0  0  0  0  0  0  0  0  0
   22.2229   -6.7226  -13.1635 C   0  0  0  0  0  0  0  0  0  0  0  0
   19.8785   -6.7660  -15.1829 C   0  0  0  0  0  0  0  0  0  0  0  0
   19.2638   -6.6639  -13.9560 O   0  0  0  0  0  0  0  0  0  0  0  0
   19.8728   -5.7640  -15.9328 O   0  0  0  0  0  0  0  0  0  0  0  0
  2  1  1  1
  2  3  1  0
  4  2  1  0
  4  5  2  0
  7  9  1  0
  7  6  1  0
  8  7  2  0
 10  9  1  1
 10 11  1  0
 11  4  1  0
 12 10  1  0
 13 12  2  0
 14 12  1  0
 15 14  1  0
 15 16  1  6
 16 17  1  0
 17 22  2  0
 18 17  1  0
 18 19  2  0
 19 20  1  0
 20 21  2  0
 22 21  1  0
 23 24  1  0
 23 15  1  0
 25 23  2  0
M  END
$$$$
