ANF.pdb
     RDKit          3D

 25 25  0  0  1  0  0  0  0  0999 V2000
   25.7789  -20.7865  -16.3014 C   0  0  0  0  0  0  0  0  0  0  0  0
   26.6918  -20.4494  -15.1387 C   0  0  2  0  0  0  0  0  0  0  0  0
   27.4443  -21.6437  -14.8148 N   0  0  0  0  0  0  0  0  0  0  0  0
   25.9347  -19.9427  -13.9706 C   0  0  0  0  0  0  0  0  0  0  0  0
   25.0336  -19.0878  -14.0441 O   0  0  0  0  0  0  0  0  0  0  0  0
   22.9128  -19.3703  -12.4342 N   0  0  0  0  0  0  0  0  0  0  0  0
   23.0154  -20.7915  -12.3523 C   0  0  0  0  0  0  0  0  0  0  0  0
   21.9842  -21.4404  -12.6350 O   0  0  0  0  0  0  0  0  0  0  0  0
   24.2343  -21.5071  -11.9645 C   0  0  0  0  0  0  0  0  0  0  0  0
   25.3055  -20.5044  -11.5965 C   0  0  2  0  0  0  0  0  0  0  0  0
   26.2460  -20.4531  -12.6932 N   0  0  0  0  0  0  0  0  0  0  0  0
   25.9270  -20.8322  -10.3124 C   0  0  0  0  0  0  0  0  0  0  0  0
   26.4310  -21.9898  -10.1858 O   0  0  0  0  0  0  0  0  0  0  0  0
   26.0194  -19.9778   -9.1952 N   0  0  0  0  0  0  0  0  0  0  0  0
   26.7811  -20.3037   -7.9766 C   0  0  1  0  0  0  0  0  0  0  0  0
   27.5569  -19.1289   -7.4966 C   0  0  0  0  0  0  0  0  0  0  0  0
   28.1640  -19.4307   -6.1872 C   0  0  0  0  0  0  0  0  0  0  0  0
   27.7275  -18.7603   -5.0363 C   0  0  0  0  0  0  0  0  0  0  0  0
   28.2294  -19.0064   -3.7925 C   0  0  0  0  0  0  0  0  0  0  0  0
   29.2179  -19.9577   -3.6226 C   0  0  0  0  0  0  0  0  0  0  0  0
   29.6696  -20.6318   -4.7166 C   0  0  0  0  0  0  0  0  0  0  0  0
   29.1478  -20.3689   -5.9767 C   0  0  0  0  0  0  0  0  0  0  0  0
   25.8231  -20.8124   -6.9917 C   0  0  0  0  0  0  0  0  0  0  0  0
   26.1924  -21.7145   -6.0205 O   0  0  0  0  0  0  0  0  0  0  0  0
   24.6321  -20.4285   -7.0208 O   0  0  0  0  0  0  0  0  0  0  0  0
  2  1  1  6
  2  3  1  0
  4  2  1  0
  4  5  2  0
  7  9  1  0
  7  6  1  0
  8  7  2  0
 10  9  1  6
 10 11  1  0
 11  4  1  0
 12 10  1  0
 13 12  2  0
 14 12  1  0
 15 14  1  0
 15 16  1  1
 16 17  1  0
 17 22  2  0
 18 17  1  0
 18 19  2  0
 19 20  1  0
 20 21  2  0
 22 21  1  0
 23 24  1  0
 23 15  1  0
 25 23  2  0
M  END
$$$$
