ANF.pdb
     RDKit          3D

 25 25  0  0  1  0  0  0  0  0999 V2000
   13.9148  -23.2144   -1.3586 C   0  0  0  0  0  0  0  0  0  0  0  0
   15.0850  -22.5355   -0.6742 C   0  0  2  0  0  0  0  0  0  0  0  0
   15.9326  -23.5746   -0.1268 N   0  0  0  0  0  0  0  0  0  0  0  0
   14.6385  -21.5836    0.3693 C   0  0  0  0  0  0  0  0  0  0  0  0
   13.9651  -20.5634    0.1370 O   0  0  0  0  0  0  0  0  0  0  0  0
   12.0773  -21.9454    3.2664 N   0  0  0  0  0  0  0  0  0  0  0  0
   13.1154  -22.2733    4.1893 C   0  0  0  0  0  0  0  0  0  0  0  0
   12.7847  -22.9723    5.1723 O   0  0  0  0  0  0  0  0  0  0  0  0
   14.5093  -21.8436    4.0460 C   0  0  0  0  0  0  0  0  0  0  0  0
   14.6392  -20.9751    2.8142 C   0  0  2  0  0  0  0  0  0  0  0  0
   14.9925  -21.8392    1.7103 N   0  0  0  0  0  0  0  0  0  0  0  0
   15.5917  -19.8842    3.0265 C   0  0  0  0  0  0  0  0  0  0  0  0
   16.8259  -20.1548    2.9088 O   0  0  0  0  0  0  0  0  0  0  0  0
   15.2658  -18.5520    3.3516 N   0  0  0  0  0  0  0  0  0  0  0  0
   16.2603  -17.4705    3.4647 C   0  0  1  0  0  0  0  0  0  0  0  0
   15.9756  -16.3745    2.5002 C   0  0  0  0  0  0  0  0  0  0  0  0
   16.9324  -15.2705    2.6999 C   0  0  0  0  0  0  0  0  0  0  0  0
   18.2193  -15.3447    2.1493 C   0  0  0  0  0  0  0  0  0  0  0  0
   19.1448  -14.3514    2.2765 C   0  0  0  0  0  0  0  0  0  0  0  0
   18.8315  -13.2010    2.9760 C   0  0  0  0  0  0  0  0  0  0  0  0
   17.5904  -13.0898    3.5266 C   0  0  0  0  0  0  0  0  0  0  0  0
   16.6594  -14.1111    3.3879 C   0  0  0  0  0  0  0  0  0  0  0  0
   16.2638  -17.0316    4.8625 C   0  0  0  0  0  0  0  0  0  0  0  0
   17.4186  -16.6267    5.4919 O   0  0  0  0  0  0  0  0  0  0  0  0
   15.1975  -17.0200    5.5176 O   0  0  0  0  0  0  0  0  0  0  0  0
  2  1  1  1
  2  3  1  0
  4  2  1  0
  4  5  2  0
  7  9  1  0
  7  6  1  0
  8  7  2  0
 10  9  1  1
 10 11  1  0
 11  4  1  0
 12 10  1  0
 13 12  2  0
 14 12  1  0
 15 14  1  0
 15 16  1  6
 16 17  1  0
 17 22  2  0
 18 17  1  0
 18 19  2  0
 19 20  1  0
 20 21  2  0
 22 21  1  0
 23 24  1  0
 23 15  1  0
 25 23  2  0
M  END
$$$$
