ANF.pdb
     RDKit          3D

 25 25  0  0  1  0  0  0  0  0999 V2000
   18.4261  -12.0467  -19.7835 C   0  0  0  0  0  0  0  0  0  0  0  0
   19.3021  -12.0057  -18.5466 C   0  0  2  0  0  0  0  0  0  0  0  0
   18.4281  -12.0384  -17.3921 N   0  0  0  0  0  0  0  0  0  0  0  0
   20.1853  -10.8166  -18.5340 C   0  0  0  0  0  0  0  0  0  0  0  0
   21.3672  -10.8246  -18.9235 O   0  0  0  0  0  0  0  0  0  0  0  0
   21.2895   -5.7514  -20.0705 N   0  0  0  0  0  0  0  0  0  0  0  0
   20.3156   -6.1299  -19.0982 C   0  0  0  0  0  0  0  0  0  0  0  0
   20.0311   -5.2723  -18.2334 O   0  0  0  0  0  0  0  0  0  0  0  0
   19.6518   -7.4362  -19.0644 C   0  0  0  0  0  0  0  0  0  0  0  0
   20.3842   -8.3428  -18.0999 C   0  0  2  0  0  0  0  0  0  0  0  0
   19.6659   -9.5966  -18.0537 N   0  0  0  0  0  0  0  0  0  0  0  0
   20.5404   -7.7135  -16.7876 C   0  0  0  0  0  0  0  0  0  0  0  0
   19.5075   -7.6234  -16.0561 O   0  0  0  0  0  0  0  0  0  0  0  0
   21.7380   -7.1945  -16.2556 N   0  0  0  0  0  0  0  0  0  0  0  0
   21.8528   -6.6257  -14.9011 C   0  0  1  0  0  0  0  0  0  0  0  0
   22.5918   -7.5432  -13.9930 C   0  0  0  0  0  0  0  0  0  0  0  0
   23.7425   -8.1312  -14.7031 C   0  0  0  0  0  0  0  0  0  0  0  0
   24.5155   -7.3432  -15.5670 C   0  0  0  0  0  0  0  0  0  0  0  0
   25.6046   -7.8169  -16.2368 C   0  0  0  0  0  0  0  0  0  0  0  0
   25.9936   -9.1340  -16.0787 C   0  0  0  0  0  0  0  0  0  0  0  0
   25.2685   -9.9331  -15.2474 C   0  0  0  0  0  0  0  0  0  0  0  0
   24.1614   -9.4350  -14.5726 C   0  0  0  0  0  0  0  0  0  0  0  0
   22.4806   -5.3090  -15.0375 C   0  0  0  0  0  0  0  0  0  0  0  0
   22.6056   -4.4516  -13.9685 O   0  0  0  0  0  0  0  0  0  0  0  0
   22.9189   -4.9366  -16.1491 O   0  0  0  0  0  0  0  0  0  0  0  0
  2  1  1  6
  2  3  1  0
  4  2  1  0
  4  5  2  0
  7  9  1  0
  7  6  1  0
  8  7  2  0
 10  9  1  6
 10 11  1  0
 11  4  1  0
 12 10  1  0
 13 12  2  0
 14 12  1  0
 15 14  1  0
 15 16  1  1
 16 17  1  0
 17 22  2  0
 18 17  1  0
 18 19  2  0
 19 20  1  0
 20 21  2  0
 22 21  1  0
 23 24  1  0
 23 15  1  0
 25 23  2  0
M  END
$$$$
