ANF.pdb
     RDKit          3D

 25 25  0  0  1  0  0  0  0  0999 V2000
   26.6791  -22.3097  -16.7016 C   0  0  0  0  0  0  0  0  0  0  0  0
   26.9056  -22.8112  -15.2888 C   0  0  2  0  0  0  0  0  0  0  0  0
   26.0421  -23.9567  -15.0891 N   0  0  0  0  0  0  0  0  0  0  0  0
   26.6585  -21.7541  -14.2809 C   0  0  0  0  0  0  0  0  0  0  0  0
   27.1980  -20.6331  -14.3030 O   0  0  0  0  0  0  0  0  0  0  0  0
   22.6508  -20.8378  -14.5263 N   0  0  0  0  0  0  0  0  0  0  0  0
   23.3172  -20.2690  -13.3996 C   0  0  0  0  0  0  0  0  0  0  0  0
   23.4740  -19.0282  -13.4148 O   0  0  0  0  0  0  0  0  0  0  0  0
   23.8125  -21.0449  -12.2591 C   0  0  0  0  0  0  0  0  0  0  0  0
   25.3251  -21.0343  -12.2680 C   0  0  2  0  0  0  0  0  0  0  0  0
   25.7596  -22.0239  -13.2282 N   0  0  0  0  0  0  0  0  0  0  0  0
   25.8698  -21.2477  -10.9263 C   0  0  0  0  0  0  0  0  0  0  0  0
   25.9470  -22.4441  -10.5104 O   0  0  0  0  0  0  0  0  0  0  0  0
   26.3198  -20.2432  -10.0459 N   0  0  0  0  0  0  0  0  0  0  0  0
   26.8083  -20.5096   -8.6815 C   0  0  1  0  0  0  0  0  0  0  0  0
   27.7266  -19.4347   -8.2191 C   0  0  0  0  0  0  0  0  0  0  0  0
   28.0812  -19.6530   -6.8046 C   0  0  0  0  0  0  0  0  0  0  0  0
   27.5450  -18.8263   -5.8077 C   0  0  0  0  0  0  0  0  0  0  0  0
   27.8130  -18.9863   -4.4803 C   0  0  0  0  0  0  0  0  0  0  0  0
   28.6502  -20.0039   -4.0626 C   0  0  0  0  0  0  0  0  0  0  0  0
   29.1919  -20.8297   -5.0008 C   0  0  0  0  0  0  0  0  0  0  0  0
   28.9089  -20.6528   -6.3491 C   0  0  0  0  0  0  0  0  0  0  0  0
   25.6307  -20.6788   -7.8265 C   0  0  0  0  0  0  0  0  0  0  0  0
   24.4743  -19.9630   -8.0360 O   0  0  0  0  0  0  0  0  0  0  0  0
   25.6600  -21.4903   -6.8740 O   0  0  0  0  0  0  0  0  0  0  0  0
  2  1  1  6
  2  3  1  0
  4  2  1  0
  4  5  2  0
  7  9  1  0
  7  6  1  0
  8  7  2  0
 10  9  1  1
 10 11  1  0
 11  4  1  0
 12 10  1  0
 13 12  2  0
 14 12  1  0
 15 14  1  0
 15 16  1  1
 16 17  1  0
 17 22  2  0
 18 17  1  0
 18 19  2  0
 19 20  1  0
 20 21  2  0
 22 21  1  0
 23 24  1  0
 23 15  1  0
 25 23  2  0
M  END
$$$$
