ANF.pdb
     RDKit          3D

 25 25  0  0  1  0  0  0  0  0999 V2000
   25.7954  -20.2358  -16.4343 C   0  0  0  0  0  0  0  0  0  0  0  0
   26.1356  -20.9419  -15.1364 C   0  0  2  0  0  0  0  0  0  0  0  0
   25.3882  -22.1821  -15.1059 N   0  0  0  0  0  0  0  0  0  0  0  0
   25.8463  -20.0964  -13.9550 C   0  0  0  0  0  0  0  0  0  0  0  0
   26.2567  -18.9297  -13.8182 O   0  0  0  0  0  0  0  0  0  0  0  0
   22.0791  -21.6517  -10.0079 N   0  0  0  0  0  0  0  0  0  0  0  0
   22.7984  -21.3426  -11.2012 C   0  0  0  0  0  0  0  0  0  0  0  0
   23.1123  -22.3112  -11.9276 O   0  0  0  0  0  0  0  0  0  0  0  0
   23.1764  -19.9855  -11.6054 C   0  0  0  0  0  0  0  0  0  0  0  0
   24.6818  -19.9031  -11.7292 C   0  0  2  0  0  0  0  0  0  0  0  0
   25.0594  -20.6362  -12.9166 N   0  0  0  0  0  0  0  0  0  0  0  0
   25.3456  -20.3806  -10.5153 C   0  0  0  0  0  0  0  0  0  0  0  0
   25.4753  -21.6351  -10.3751 O   0  0  0  0  0  0  0  0  0  0  0  0
   25.8582  -19.5735   -9.4797 N   0  0  0  0  0  0  0  0  0  0  0  0
   26.5958  -20.1023   -8.3188 C   0  0  1  0  0  0  0  0  0  0  0  0
   27.3541  -19.0258   -7.6271 C   0  0  0  0  0  0  0  0  0  0  0  0
   28.0003  -19.5665   -6.4171 C   0  0  0  0  0  0  0  0  0  0  0  0
   29.2206  -20.2492   -6.5147 C   0  0  0  0  0  0  0  0  0  0  0  0
   29.8825  -20.7545   -5.4349 C   0  0  0  0  0  0  0  0  0  0  0  0
   29.3525  -20.6034   -4.1672 C   0  0  0  0  0  0  0  0  0  0  0  0
   28.1677  -19.9455   -4.0295 C   0  0  0  0  0  0  0  0  0  0  0  0
   27.5061  -19.4370   -5.1398 C   0  0  0  0  0  0  0  0  0  0  0  0
   25.6202  -20.7750   -7.4573 C   0  0  0  0  0  0  0  0  0  0  0  0
   24.3218  -20.3322   -7.3496 O   0  0  0  0  0  0  0  0  0  0  0  0
   25.9599  -21.7797   -6.7927 O   0  0  0  0  0  0  0  0  0  0  0  0
  2  1  1  6
  2  3  1  0
  4  2  1  0
  4  5  2  0
  7  9  1  0
  7  6  1  0
  8  7  2  0
 10  9  1  1
 10 11  1  0
 11  4  1  0
 12 10  1  0
 13 12  2  0
 14 12  1  0
 15 14  1  0
 15 16  1  1
 16 17  1  0
 17 22  2  0
 18 17  1  0
 18 19  2  0
 19 20  1  0
 20 21  2  0
 22 21  1  0
 23 24  1  0
 23 15  1  0
 25 23  2  0
M  END
$$$$
