ANF.pdb
     RDKit          3D

 25 25  0  0  1  0  0  0  0  0999 V2000
   26.8280  -20.7849  -19.5457 C   0  0  0  0  0  0  0  0  0  0  0  0
   26.9098  -19.2710  -19.5345 C   0  0  2  0  0  0  0  0  0  0  0  0
   28.2233  -18.9018  -20.0205 N   0  0  0  0  0  0  0  0  0  0  0  0
   26.6450  -18.7132  -18.1880 C   0  0  0  0  0  0  0  0  0  0  0  0
   26.8845  -17.5358  -17.8641 O   0  0  0  0  0  0  0  0  0  0  0  0
   23.8799  -16.3122  -14.6231 N   0  0  0  0  0  0  0  0  0  0  0  0
   23.7123  -17.6167  -15.1772 C   0  0  0  0  0  0  0  0  0  0  0  0
   22.9259  -18.3798  -14.5743 O   0  0  0  0  0  0  0  0  0  0  0  0
   24.3967  -18.0923  -16.3828 C   0  0  0  0  0  0  0  0  0  0  0  0
   25.4720  -19.0807  -15.9888 C   0  0  2  0  0  0  0  0  0  0  0  0
   26.0882  -19.5586  -17.2061 N   0  0  0  0  0  0  0  0  0  0  0  0
   24.9325  -20.1525  -15.1506 C   0  0  0  0  0  0  0  0  0  0  0  0
   24.1011  -20.9492  -15.6840 O   0  0  0  0  0  0  0  0  0  0  0  0
   25.2510  -20.3855  -13.7975 N   0  0  0  0  0  0  0  0  0  0  0  0
   24.8612  -21.6018  -13.0627 C   0  0  1  0  0  0  0  0  0  0  0  0
   25.9056  -21.9942  -12.0790 C   0  0  0  0  0  0  0  0  0  0  0  0
   25.8355  -21.1158  -10.8968 C   0  0  0  0  0  0  0  0  0  0  0  0
   26.2665  -19.7847  -10.9810 C   0  0  0  0  0  0  0  0  0  0  0  0
   26.2088  -18.9130   -9.9340 C   0  0  0  0  0  0  0  0  0  0  0  0
   25.7058  -19.3295   -8.7155 C   0  0  0  0  0  0  0  0  0  0  0  0
   25.2762  -20.6162   -8.5925 C   0  0  0  0  0  0  0  0  0  0  0  0
   25.3421  -21.4916   -9.6689 C   0  0  0  0  0  0  0  0  0  0  0  0
   23.5552  -21.3383  -12.4533 C   0  0  0  0  0  0  0  0  0  0  0  0
   23.0827  -20.0579  -12.2775 O   0  0  0  0  0  0  0  0  0  0  0  0
   22.8373  -22.2911  -12.0748 O   0  0  0  0  0  0  0  0  0  0  0  0
  2  1  1  1
  2  3  1  0
  4  2  1  0
  4  5  2  0
  7  9  1  0
  7  6  1  0
  8  7  2  0
 10  9  1  6
 10 11  1  0
 11  4  1  0
 12 10  1  0
 13 12  2  0
 14 12  1  0
 15 14  1  0
 15 16  1  1
 16 17  1  0
 17 22  2  0
 18 17  1  0
 18 19  2  0
 19 20  1  0
 20 21  2  0
 22 21  1  0
 23 24  1  0
 23 15  1  0
 25 23  2  0
M  END
$$$$
