ANF.pdb
     RDKit          3D

 25 25  0  0  1  0  0  0  0  0999 V2000
   27.7926  -18.5977  -17.3210 C   0  0  0  0  0  0  0  0  0  0  0  0
   26.5076  -18.5486  -16.5179 C   0  0  2  0  0  0  0  0  0  0  0  0
   26.4885  -17.2894  -15.8025 N   0  0  0  0  0  0  0  0  0  0  0  0
   26.3851  -19.7045  -15.5996 C   0  0  0  0  0  0  0  0  0  0  0  0
   26.3097  -20.8875  -15.9779 O   0  0  0  0  0  0  0  0  0  0  0  0
   26.0721  -22.2630  -11.0754 N   0  0  0  0  0  0  0  0  0  0  0  0
   26.8988  -21.1048  -10.9660 C   0  0  0  0  0  0  0  0  0  0  0  0
   27.5165  -20.9627   -9.8878 O   0  0  0  0  0  0  0  0  0  0  0  0
   27.0548  -20.1028  -12.0242 C   0  0  0  0  0  0  0  0  0  0  0  0
   26.2112  -20.5000  -13.2154 C   0  0  2  0  0  0  0  0  0  0  0  0
   26.3510  -19.4611  -14.2109 N   0  0  0  0  0  0  0  0  0  0  0  0
   24.8222  -20.7507  -12.8277 C   0  0  0  0  0  0  0  0  0  0  0  0
   24.6054  -21.6963  -12.0098 O   0  0  0  0  0  0  0  0  0  0  0  0
   23.6945  -20.0364  -13.2801 N   0  0  0  0  0  0  0  0  0  0  0  0
   22.3062  -20.4062  -12.9528 C   0  0  1  0  0  0  0  0  0  0  0  0
   21.6332  -19.3337  -12.1722 C   0  0  0  0  0  0  0  0  0  0  0  0
   20.2312  -19.7085  -11.9115 C   0  0  0  0  0  0  0  0  0  0  0  0
   19.9175  -20.5726  -10.8534 C   0  0  0  0  0  0  0  0  0  0  0  0
   18.6420  -20.9420  -10.5434 C   0  0  0  0  0  0  0  0  0  0  0  0
   17.5826  -20.4586  -11.2885 C   0  0  0  0  0  0  0  0  0  0  0  0
   17.8454  -19.6158  -12.3258 C   0  0  0  0  0  0  0  0  0  0  0  0
   19.1506  -19.2496  -12.6285 C   0  0  0  0  0  0  0  0  0  0  0  0
   21.6332  -20.7183  -14.2162 C   0  0  0  0  0  0  0  0  0  0  0  0
   20.6563  -21.6840  -14.2976 O   0  0  0  0  0  0  0  0  0  0  0  0
   21.9438  -20.1013  -15.2599 O   0  0  0  0  0  0  0  0  0  0  0  0
  2  1  1  1
  2  3  1  0
  4  2  1  0
  4  5  2  0
  7  9  1  0
  7  6  1  0
  8  7  2  0
 10  9  1  1
 10 11  1  0
 11  4  1  0
 12 10  1  0
 13 12  2  0
 14 12  1  0
 15 14  1  0
 15 16  1  6
 16 17  1  0
 17 22  2  0
 18 17  1  0
 18 19  2  0
 19 20  1  0
 20 21  2  0
 22 21  1  0
 23 24  1  0
 23 15  1  0
 25 23  2  0
M  END
$$$$
