ANF.pdb
     RDKit          3D

 25 25  0  0  1  0  0  0  0  0999 V2000
   22.7774  -12.8873  -22.3765 C   0  0  0  0  0  0  0  0  0  0  0  0
   23.5290  -11.6236  -22.0062 C   0  0  2  0  0  0  0  0  0  0  0  0
   24.9109  -11.8072  -22.3991 N   0  0  0  0  0  0  0  0  0  0  0  0
   23.4046  -11.3091  -20.5640 C   0  0  0  0  0  0  0  0  0  0  0  0
   22.3252  -11.0577  -19.9981 O   0  0  0  0  0  0  0  0  0  0  0  0
   24.7947  -10.8153  -15.5941 N   0  0  0  0  0  0  0  0  0  0  0  0
   25.8759  -11.3783  -16.3363 C   0  0  0  0  0  0  0  0  0  0  0  0
   26.8905  -11.7029  -15.6809 O   0  0  0  0  0  0  0  0  0  0  0  0
   25.8563  -11.5886  -17.7867 C   0  0  0  0  0  0  0  0  0  0  0  0
   24.5831  -11.0048  -18.3581 C   0  0  2  0  0  0  0  0  0  0  0  0
   24.5735  -11.2905  -19.7752 N   0  0  0  0  0  0  0  0  0  0  0  0
   24.4637   -9.5785  -18.0517 C   0  0  0  0  0  0  0  0  0  0  0  0
   25.3572   -8.8048  -18.5136 O   0  0  0  0  0  0  0  0  0  0  0  0
   23.4432   -8.9786  -17.2867 N   0  0  0  0  0  0  0  0  0  0  0  0
   23.2653   -7.5214  -17.1590 C   0  0  1  0  0  0  0  0  0  0  0  0
   22.6515   -6.9447  -18.3850 C   0  0  0  0  0  0  0  0  0  0  0  0
   21.2496   -7.3872  -18.4989 C   0  0  0  0  0  0  0  0  0  0  0  0
   20.2366   -6.7041  -17.8120 C   0  0  0  0  0  0  0  0  0  0  0  0
   18.9189   -7.0459  -17.8906 C   0  0  0  0  0  0  0  0  0  0  0  0
   18.5280   -8.1131  -18.6776 C   0  0  0  0  0  0  0  0  0  0  0  0
   19.4826   -8.8032  -19.3618 C   0  0  0  0  0  0  0  0  0  0  0  0
   20.8206   -8.4422  -19.2706 C   0  0  0  0  0  0  0  0  0  0  0  0
   22.4773   -7.2871  -15.9463 C   0  0  0  0  0  0  0  0  0  0  0  0
   21.9729   -8.3260  -15.1981 O   0  0  0  0  0  0  0  0  0  0  0  0
   22.2452   -6.1172  -15.5669 O   0  0  0  0  0  0  0  0  0  0  0  0
  2  1  1  1
  2  3  1  0
  4  2  1  0
  4  5  2  0
  7  9  1  0
  7  6  1  0
  8  7  2  0
 10  9  1  6
 10 11  1  0
 11  4  1  0
 12 10  1  0
 13 12  2  0
 14 12  1  0
 15 14  1  0
 15 16  1  6
 16 17  1  0
 17 22  2  0
 18 17  1  0
 18 19  2  0
 19 20  1  0
 20 21  2  0
 22 21  1  0
 23 24  1  0
 23 15  1  0
 25 23  2  0
M  END
$$$$
