VIA.pdb
     RDKit          3D

 21 20  0  0  1  0  0  0  0  0999 V2000
   22.8139  -19.7294  -15.9254 C   0  0  0  0  0  0  0  0  0  0  0  0
   23.5156  -20.0533  -14.6361 C   0  0  2  0  0  0  0  0  0  0  0  0
   24.1940  -18.8442  -14.0378 C   0  0  0  0  0  0  0  0  0  0  0  0
   24.4761  -21.1903  -14.8206 C   0  0  2  0  0  0  0  0  0  0  0  0
   23.8078  -22.3300  -15.3805 N   0  0  0  0  0  0  0  0  0  0  0  0
   25.1054  -21.4837  -13.5037 C   0  0  0  0  0  0  0  0  0  0  0  0
   24.3784  -22.0338  -12.6369 O   0  0  0  0  0  0  0  0  0  0  0  0
   30.7580  -22.0376  -11.0754 C   0  0  0  0  0  0  0  0  0  0  0  0
   29.2679  -22.0428  -10.8855 C   0  0  0  0  0  0  0  0  0  0  0  0
   28.5346  -21.5661  -12.1176 C   0  0  2  0  0  0  0  0  0  0  0  0
   28.9887  -20.1880  -12.5138 C   0  0  0  0  0  0  0  0  0  0  0  0
   27.0402  -21.5352  -11.9177 C   0  0  2  0  0  0  0  0  0  0  0  0
   26.4496  -21.1794  -13.1918 N   0  0  0  0  0  0  0  0  0  0  0  0
   26.6014  -20.5803  -10.9041 C   0  0  0  0  0  0  0  0  0  0  0  0
   26.5090  -19.3664  -11.1704 O   0  0  0  0  0  0  0  0  0  0  0  0
   24.5686  -20.5499   -7.8990 C   0  0  0  0  0  0  0  0  0  0  0  0
   25.8607  -20.1276   -8.5433 C   0  0  2  0  0  0  0  0  0  0  0  0
   26.2739  -21.0139   -9.6043 N   0  0  0  0  0  0  0  0  0  0  0  0
   26.9137  -20.1522   -7.4925 C   0  0  0  0  0  0  0  0  0  0  0  0
   27.9040  -21.1182   -7.4299 O   0  0  0  0  0  0  0  0  0  0  0  0
   26.9488  -19.2610   -6.5818 O   0  0  0  0  0  0  0  0  0  0  0  0
  2  1  1  6
  2  4  1  0
  3  2  1  0
  4  5  1  1
  6  7  2  0
  6  4  1  0
  8  9  1  0
  9 10  1  0
 10 12  1  0
 10 11  1  1
 12 14  1  0
 12 13  1  6
 13  6  1  0
 14 18  1  0
 15 14  2  0
 17 16  1  1
 17 19  1  0
 18 17  1  0
 19 21  2  0
 19 20  1  0
M  END
$$$$
