VIA.pdb
     RDKit          3D

 21 20  0  0  1  0  0  0  0  0999 V2000
   28.5761  -19.1117  -14.2212 C   0  0  0  0  0  0  0  0  0  0  0  0
   27.6789  -18.6453  -15.3334 C   0  0  2  0  0  0  0  0  0  0  0  0
   28.3184  -17.5574  -16.1626 C   0  0  0  0  0  0  0  0  0  0  0  0
   26.3429  -18.2200  -14.8007 C   0  0  2  0  0  0  0  0  0  0  0  0
   26.4832  -17.0863  -13.9325 N   0  0  0  0  0  0  0  0  0  0  0  0
   25.7211  -19.3897  -14.1213 C   0  0  0  0  0  0  0  0  0  0  0  0
   25.5894  -20.4385  -14.8033 O   0  0  0  0  0  0  0  0  0  0  0  0
   26.5223  -20.5402   -8.9090 C   0  0  0  0  0  0  0  0  0  0  0  0
   26.2413  -20.7221  -10.3734 C   0  0  0  0  0  0  0  0  0  0  0  0
   24.7948  -20.4491  -10.7144 C   0  0  2  0  0  0  0  0  0  0  0  0
   23.8892  -21.4560  -10.0600 C   0  0  0  0  0  0  0  0  0  0  0  0
   24.5424  -20.4779  -12.2009 C   0  0  2  0  0  0  0  0  0  0  0  0
   25.2833  -19.3747  -12.7779 N   0  0  0  0  0  0  0  0  0  0  0  0
   23.1335  -20.3480  -12.5615 C   0  0  0  0  0  0  0  0  0  0  0  0
   22.4833  -19.3362  -12.2351 O   0  0  0  0  0  0  0  0  0  0  0  0
   20.7505  -22.2812  -14.7675 C   0  0  0  0  0  0  0  0  0  0  0  0
   21.0909  -21.3144  -13.6664 C   0  0  2  0  0  0  0  0  0  0  0  0
   22.4819  -21.3654  -13.2859 N   0  0  0  0  0  0  0  0  0  0  0  0
   20.2787  -21.6868  -12.4769 C   0  0  0  0  0  0  0  0  0  0  0  0
   18.9329  -21.3860  -12.3497 O   0  0  0  0  0  0  0  0  0  0  0  0
   20.8022  -22.3153  -11.4991 O   0  0  0  0  0  0  0  0  0  0  0  0
  2  1  1  1
  2  4  1  0
  3  2  1  0
  4  5  1  1
  6  7  2  0
  6  4  1  0
  8  9  1  0
  9 10  1  0
 10 12  1  0
 10 11  1  1
 12 14  1  0
 12 13  1  6
 13  6  1  0
 14 18  1  0
 15 14  2  0
 17 16  1  6
 17 19  1  0
 18 17  1  0
 19 21  2  0
 19 20  1  0
M  END
$$$$
