VIA.pdb
     RDKit          3D

 21 20  0  0  1  0  0  0  0  0999 V2000
   18.0677  -23.0212  -15.1294 C   0  0  0  0  0  0  0  0  0  0  0  0
   19.2311  -22.0940  -14.9139 C   0  0  2  0  0  0  0  0  0  0  0  0
   20.2553  -22.1992  -16.0185 C   0  0  0  0  0  0  0  0  0  0  0  0
   19.8491  -22.3150  -13.5653 C   0  0  2  0  0  0  0  0  0  0  0  0
   18.8809  -22.1095  -12.5265 N   0  0  0  0  0  0  0  0  0  0  0  0
   21.0253  -21.4110  -13.4407 C   0  0  0  0  0  0  0  0  0  0  0  0
   20.7890  -20.2065  -13.1654 O   0  0  0  0  0  0  0  0  0  0  0  0
   26.5172  -21.2007  -11.1442 C   0  0  0  0  0  0  0  0  0  0  0  0
   25.4815  -20.5510  -12.0169 C   0  0  0  0  0  0  0  0  0  0  0  0
   24.4277  -21.5311  -12.4771 C   0  0  2  0  0  0  0  0  0  0  0  0
   25.0591  -22.7463  -13.0992 C   0  0  0  0  0  0  0  0  0  0  0  0
   23.4791  -20.9225  -13.4792 C   0  0  2  0  0  0  0  0  0  0  0  0
   22.3621  -21.8352  -13.6135 N   0  0  0  0  0  0  0  0  0  0  0  0
   24.0747  -20.6991  -14.7934 C   0  0  0  0  0  0  0  0  0  0  0  0
   24.5218  -21.6523  -15.4603 O   0  0  0  0  0  0  0  0  0  0  0  0
   24.6355  -17.6427  -16.9796 C   0  0  0  0  0  0  0  0  0  0  0  0
   24.7189  -19.1028  -16.6274 C   0  0  2  0  0  0  0  0  0  0  0  0
   24.1551  -19.4003  -15.3329 N   0  0  0  0  0  0  0  0  0  0  0  0
   26.1594  -19.4734  -16.5935 C   0  0  0  0  0  0  0  0  0  0  0  0
   26.8722  -19.8611  -17.7158 O   0  0  0  0  0  0  0  0  0  0  0  0
   26.8149  -19.4487  -15.5005 O   0  0  0  0  0  0  0  0  0  0  0  0
  2  1  1  6
  2  4  1  0
  3  2  1  0
  4  5  1  1
  6  7  2  0
  6  4  1  0
  8  9  1  0
  9 10  1  0
 10 12  1  0
 10 11  1  6
 12 14  1  0
 12 13  1  6
 13  6  1  0
 14 18  1  0
 15 14  2  0
 17 16  1  1
 17 19  1  0
 18 17  1  0
 19 21  2  0
 19 20  1  0
M  END
$$$$
