VIA.pdb
     RDKit          3D

 21 20  0  0  1  0  0  0  0  0999 V2000
   26.2799  -18.8281  -16.6998 C   0  0  0  0  0  0  0  0  0  0  0  0
   27.1304  -18.3863  -15.5418 C   0  0  2  0  0  0  0  0  0  0  0  0
   28.2286  -17.4423  -15.9696 C   0  0  0  0  0  0  0  0  0  0  0  0
   27.6771  -19.5681  -14.7976 C   0  0  2  0  0  0  0  0  0  0  0  0
   28.4992  -20.3701  -15.6578 N   0  0  0  0  0  0  0  0  0  0  0  0
   26.5307  -20.3277  -14.2276 C   0  0  0  0  0  0  0  0  0  0  0  0
   26.2112  -21.3958  -14.8104 O   0  0  0  0  0  0  0  0  0  0  0  0
   26.2668  -20.4973   -9.1131 C   0  0  0  0  0  0  0  0  0  0  0  0
   25.9327  -21.1312  -10.4333 C   0  0  0  0  0  0  0  0  0  0  0  0
   24.7075  -20.5150  -11.0676 C   0  0  2  0  0  0  0  0  0  0  0  0
   23.4501  -21.1238  -10.5104 C   0  0  0  0  0  0  0  0  0  0  0  0
   24.6935  -20.6830  -12.5663 C   0  0  2  0  0  0  0  0  0  0  0  0
   25.8035  -19.9128  -13.0892 N   0  0  0  0  0  0  0  0  0  0  0  0
   23.4576  -20.2300  -13.1980 C   0  0  0  0  0  0  0  0  0  0  0  0
   23.0372  -19.0710  -13.0162 O   0  0  0  0  0  0  0  0  0  0  0  0
   21.3112  -21.5519  -15.9878 C   0  0  0  0  0  0  0  0  0  0  0  0
   21.5584  -20.6855  -14.7831 C   0  0  2  0  0  0  0  0  0  0  0  0
   22.7162  -21.0958  -14.0258 N   0  0  0  0  0  0  0  0  0  0  0  0
   20.3691  -20.8015  -13.8967 C   0  0  0  0  0  0  0  0  0  0  0  0
   19.2173  -20.0517  -14.0666 O   0  0  0  0  0  0  0  0  0  0  0  0
   20.3610  -21.6180  -12.9178 O   0  0  0  0  0  0  0  0  0  0  0  0
  2  1  1  6
  2  4  1  0
  3  2  1  0
  4  5  1  6
  6  7  2  0
  6  4  1  0
  8  9  1  0
  9 10  1  0
 10 12  1  0
 10 11  1  1
 12 14  1  0
 12 13  1  6
 13  6  1  0
 14 18  1  0
 15 14  2  0
 17 16  1  6
 17 19  1  0
 18 17  1  0
 19 21  2  0
 19 20  1  0
M  END
$$$$
