VIA.pdb
     RDKit          3D

 21 20  0  0  1  0  0  0  0  0999 V2000
   20.5501  -15.8975  -16.9216 C   0  0  0  0  0  0  0  0  0  0  0  0
   19.7822  -14.6119  -17.0517 C   0  0  2  0  0  0  0  0  0  0  0  0
   20.6240  -13.4080  -16.7024 C   0  0  0  0  0  0  0  0  0  0  0  0
   18.5210  -14.6575  -16.2411 C   0  0  2  0  0  0  0  0  0  0  0  0
   17.7346  -15.8043  -16.5951 N   0  0  0  0  0  0  0  0  0  0  0  0
   17.7917  -13.3759  -16.4461 C   0  0  0  0  0  0  0  0  0  0  0  0
   17.3725  -13.1408  -17.6086 O   0  0  0  0  0  0  0  0  0  0  0  0
   13.2915  -12.3523  -14.5767 C   0  0  0  0  0  0  0  0  0  0  0  0
   14.5529  -12.2889  -15.3900 C   0  0  0  0  0  0  0  0  0  0  0  0
   15.5502  -11.3077  -14.8194 C   0  0  2  0  0  0  0  0  0  0  0  0
   14.9512   -9.9320  -14.7150 C   0  0  0  0  0  0  0  0  0  0  0  0
   16.8048  -11.2182  -15.6515 C   0  0  2  0  0  0  0  0  0  0  0  0
   17.5553  -12.4352  -15.4185 N   0  0  0  0  0  0  0  0  0  0  0  0
   17.6451  -10.0689  -15.3279 C   0  0  0  0  0  0  0  0  0  0  0  0
   18.0560   -9.8877  -14.1654 O   0  0  0  0  0  0  0  0  0  0  0  0
   19.1451   -7.2088  -17.3249 C   0  0  0  0  0  0  0  0  0  0  0  0
   18.7664   -7.9422  -16.0672 C   0  0  2  0  0  0  0  0  0  0  0  0
   18.0077   -9.1422  -16.3250 N   0  0  0  0  0  0  0  0  0  0  0  0
   17.9156   -7.0301  -15.2562 C   0  0  0  0  0  0  0  0  0  0  0  0
   18.4274   -6.1206  -14.3459 O   0  0  0  0  0  0  0  0  0  0  0  0
   16.6460   -7.0485  -15.3688 O   0  0  0  0  0  0  0  0  0  0  0  0
  2  1  1  1
  2  4  1  0
  3  2  1  0
  4  5  1  6
  6  7  2  0
  6  4  1  0
  8  9  1  0
  9 10  1  0
 10 12  1  0
 10 11  1  6
 12 14  1  0
 12 13  1  1
 13  6  1  0
 14 18  1  0
 15 14  2  0
 17 16  1  6
 17 19  1  0
 18 17  1  0
 19 21  2  0
 19 20  1  0
M  END
$$$$
