VIA.pdb
     RDKit          3D

 21 20  0  0  1  0  0  0  0  0999 V2000
   17.8318   -8.2315  -19.0594 C   0  0  0  0  0  0  0  0  0  0  0  0
   19.0906   -9.0115  -19.3167 C   0  0  2  0  0  0  0  0  0  0  0  0
   19.1745   -9.5031  -20.7420 C   0  0  0  0  0  0  0  0  0  0  0  0
   19.2330  -10.1369  -18.3355 C   0  0  2  0  0  0  0  0  0  0  0  0
   18.1300  -11.0477  -18.4483 N   0  0  0  0  0  0  0  0  0  0  0  0
   19.3562   -9.5507  -16.9726 C   0  0  0  0  0  0  0  0  0  0  0  0
   18.3046   -9.4861  -16.2851 O   0  0  0  0  0  0  0  0  0  0  0  0
   22.7159  -10.0566  -12.1616 C   0  0  0  0  0  0  0  0  0  0  0  0
   21.8056   -9.1137  -12.8954 C   0  0  0  0  0  0  0  0  0  0  0  0
   21.5907   -9.5308  -14.3316 C   0  0  2  0  0  0  0  0  0  0  0  0
   22.8967   -9.5890  -15.0755 C   0  0  0  0  0  0  0  0  0  0  0  0
   20.6659   -8.5938  -15.0672 C   0  0  2  0  0  0  0  0  0  0  0  0
   20.5714   -9.0754  -16.4303 N   0  0  0  0  0  0  0  0  0  0  0  0
   21.1218   -7.2069  -15.0807 C   0  0  0  0  0  0  0  0  0  0  0  0
   22.2007   -6.8964  -15.6217 O   0  0  0  0  0  0  0  0  0  0  0  0
   19.5873   -3.8871  -14.1120 C   0  0  0  0  0  0  0  0  0  0  0  0
   20.7303   -4.8006  -14.4614 C   0  0  2  0  0  0  0  0  0  0  0  0
   20.3495   -6.1923  -14.4817 N   0  0  0  0  0  0  0  0  0  0  0  0
   21.7757   -4.6290  -13.4168 C   0  0  0  0  0  0  0  0  0  0  0  0
   22.7918   -3.6920  -13.5036 O   0  0  0  0  0  0  0  0  0  0  0  0
   21.7796   -5.3571  -12.3705 O   0  0  0  0  0  0  0  0  0  0  0  0
  2  1  1  6
  2  4  1  0
  3  2  1  0
  4  5  1  1
  6  7  2  0
  6  4  1  0
  8  9  1  0
  9 10  1  0
 10 12  1  0
 10 11  1  6
 12 14  1  0
 12 13  1  6
 13  6  1  0
 14 18  1  0
 15 14  2  0
 17 16  1  1
 17 19  1  0
 18 17  1  0
 19 21  2  0
 19 20  1  0
M  END
$$$$
