VIA.pdb
     RDKit          3D

 21 20  0  0  1  0  0  0  0  0999 V2000
   20.0944  -10.7087  -20.7618 C   0  0  0  0  0  0  0  0  0  0  0  0
   19.8939   -9.9182  -19.4991 C   0  0  2  0  0  0  0  0  0  0  0  0
   20.4286   -8.5110  -19.6173 C   0  0  0  0  0  0  0  0  0  0  0  0
   20.4818  -10.6348  -18.3200 C   0  0  2  0  0  0  0  0  0  0  0  0
   19.9889  -11.9805  -18.2498 N   0  0  0  0  0  0  0  0  0  0  0  0
   20.1720   -9.8456  -17.0963 C   0  0  0  0  0  0  0  0  0  0  0  0
   18.9949   -9.9162  -16.6579 O   0  0  0  0  0  0  0  0  0  0  0  0
   21.9780   -9.0378  -11.6238 C   0  0  0  0  0  0  0  0  0  0  0  0
   21.2652   -8.3411  -12.7475 C   0  0  0  0  0  0  0  0  0  0  0  0
   21.4557   -9.0486  -14.0690 C   0  0  2  0  0  0  0  0  0  0  0  0
   22.9168   -9.1958  -14.3940 C   0  0  0  0  0  0  0  0  0  0  0  0
   20.7859   -8.3223  -15.2084 C   0  0  2  0  0  0  0  0  0  0  0  0
   21.1176   -9.0407  -16.4219 N   0  0  0  0  0  0  0  0  0  0  0  0
   21.2051   -6.9306  -15.3470 C   0  0  0  0  0  0  0  0  0  0  0  0
   22.4138   -6.6322  -15.4039 O   0  0  0  0  0  0  0  0  0  0  0  0
   19.4345   -3.6781  -16.0826 C   0  0  0  0  0  0  0  0  0  0  0  0
   20.5864   -4.5035  -15.5778 C   0  0  2  0  0  0  0  0  0  0  0  0
   20.2499   -5.8977  -15.4191 N   0  0  0  0  0  0  0  0  0  0  0  0
   20.9667   -3.9712  -14.2415 C   0  0  0  0  0  0  0  0  0  0  0  0
   21.8440   -2.9143  -14.0648 O   0  0  0  0  0  0  0  0  0  0  0  0
   20.4878   -4.4797  -13.1752 O   0  0  0  0  0  0  0  0  0  0  0  0
  2  1  1  6
  2  4  1  0
  3  2  1  0
  4  5  1  1
  6  7  2  0
  6  4  1  0
  8  9  1  0
  9 10  1  0
 10 12  1  0
 10 11  1  6
 12 14  1  0
 12 13  1  6
 13  6  1  0
 14 18  1  0
 15 14  2  0
 17 16  1  1
 17 19  1  0
 18 17  1  0
 19 21  2  0
 19 20  1  0
M  END
$$$$
