VIA.pdb
     RDKit          3D

 21 20  0  0  1  0  0  0  0  0999 V2000
   22.9570  -22.0195  -18.0435 C   0  0  0  0  0  0  0  0  0  0  0  0
   23.6831  -23.2937  -18.3733 C   0  0  2  0  0  0  0  0  0  0  0  0
   22.8639  -24.5181  -18.0418 C   0  0  0  0  0  0  0  0  0  0  0  0
   25.0267  -23.3316  -17.7078 C   0  0  2  0  0  0  0  0  0  0  0  0
   25.7917  -22.1664  -18.0480 N   0  0  0  0  0  0  0  0  0  0  0  0
   25.7034  -24.5978  -18.1018 C   0  0  0  0  0  0  0  0  0  0  0  0
   25.9918  -24.7326  -19.3188 O   0  0  0  0  0  0  0  0  0  0  0  0
   30.2615  -26.0145  -16.5207 C   0  0  0  0  0  0  0  0  0  0  0  0
   28.9635  -25.8951  -17.2671 C   0  0  0  0  0  0  0  0  0  0  0  0
   27.9707  -26.9581  -16.8579 C   0  0  2  0  0  0  0  0  0  0  0  0
   28.5378  -28.3344  -17.0734 C   0  0  0  0  0  0  0  0  0  0  0  0
   26.6738  -26.8534  -17.6204 C   0  0  2  0  0  0  0  0  0  0  0  0
   26.0283  -25.6292  -17.1922 N   0  0  0  0  0  0  0  0  0  0  0  0
   25.7670  -27.9756  -17.3964 C   0  0  0  0  0  0  0  0  0  0  0  0
   25.2530  -28.1655  -16.2771 O   0  0  0  0  0  0  0  0  0  0  0  0
   23.6775  -30.1249  -19.5762 C   0  0  0  0  0  0  0  0  0  0  0  0
   24.4936  -29.9352  -18.3268 C   0  0  2  0  0  0  0  0  0  0  0  0
   25.4556  -28.8659  -18.4428 N   0  0  0  0  0  0  0  0  0  0  0  0
   25.2423  -31.1979  -18.0851 C   0  0  0  0  0  0  0  0  0  0  0  0
   24.7128  -32.2768  -17.3970 O   0  0  0  0  0  0  0  0  0  0  0  0
   26.4342  -31.3430  -18.5131 O   0  0  0  0  0  0  0  0  0  0  0  0
  2  1  1  1
  2  4  1  0
  3  2  1  0
  4  5  1  6
  6  7  2  0
  6  4  1  0
  8  9  1  0
  9 10  1  0
 10 12  1  0
 10 11  1  6
 12 14  1  0
 12 13  1  1
 13  6  1  0
 14 18  1  0
 15 14  2  0
 17 16  1  6
 17 19  1  0
 18 17  1  0
 19 21  2  0
 19 20  1  0
M  END
$$$$
