VIA.pdb
     RDKit          3D

 21 20  0  0  1  0  0  0  0  0999 V2000
   34.6108  -38.0754   -3.9768 C   0  0  0  0  0  0  0  0  0  0  0  0
   34.9707  -37.5649   -2.6096 C   0  0  2  0  0  0  0  0  0  0  0  0
   33.7558  -37.3844   -1.7312 C   0  0  0  0  0  0  0  0  0  0  0  0
   35.7758  -36.3031   -2.7042 C   0  0  2  0  0  0  0  0  0  0  0  0
   36.9696  -36.5220   -3.4696 N   0  0  0  0  0  0  0  0  0  0  0  0
   36.0593  -35.8293   -1.3216 C   0  0  0  0  0  0  0  0  0  0  0  0
   36.9407  -36.4539   -0.6769 O   0  0  0  0  0  0  0  0  0  0  0  0
   36.9694  -30.7498   -0.2399 C   0  0  0  0  0  0  0  0  0  0  0  0
   36.9285  -32.2513   -0.2200 C   0  0  0  0  0  0  0  0  0  0  0  0
   35.7622  -32.7791    0.5826 C   0  0  2  0  0  0  0  0  0  0  0  0
   35.8090  -32.2700    1.9971 C   0  0  0  0  0  0  0  0  0  0  0  0
   35.7293  -34.2863    0.6205 C   0  0  2  0  0  0  0  0  0  0  0  0
   35.3988  -34.7366   -0.7162 N   0  0  0  0  0  0  0  0  0  0  0  0
   34.7557  -34.8305    1.5626 C   0  0  0  0  0  0  0  0  0  0  0  0
   33.5328  -34.6970    1.3629 O   0  0  0  0  0  0  0  0  0  0  0  0
   34.9866  -36.9114    4.7293 C   0  0  0  0  0  0  0  0  0  0  0  0
   34.2796  -36.0838    3.6909 C   0  0  2  0  0  0  0  0  0  0  0  0
   35.1809  -35.5175    2.7167 N   0  0  0  0  0  0  0  0  0  0  0  0
   33.6061  -34.9604    4.3964 C   0  0  0  0  0  0  0  0  0  0  0  0
   32.4793  -35.1231    5.1848 O   0  0  0  0  0  0  0  0  0  0  0  0
   34.0504  -33.7693    4.3017 O   0  0  0  0  0  0  0  0  0  0  0  0
  2  1  1  6
  2  4  1  0
  3  2  1  0
  4  5  1  1
  6  7  2  0
  6  4  1  0
  8  9  1  0
  9 10  1  0
 10 12  1  0
 10 11  1  1
 12 14  1  0
 12 13  1  6
 13  6  1  0
 14 18  1  0
 15 14  2  0
 17 16  1  1
 17 19  1  0
 18 17  1  0
 19 21  2  0
 19 20  1  0
M  END
$$$$
