VIA.pdb
     RDKit          3D

 21 20  0  0  1  0  0  0  0  0999 V2000
   25.9208  -17.8769  -16.0302 C   0  0  0  0  0  0  0  0  0  0  0  0
   26.8001  -17.5362  -14.8596 C   0  0  2  0  0  0  0  0  0  0  0  0
   27.6727  -16.3347  -15.1337 C   0  0  0  0  0  0  0  0  0  0  0  0
   27.6129  -18.7238  -14.4371 C   0  0  2  0  0  0  0  0  0  0  0  0
   28.4127  -19.2021  -15.5282 N   0  0  0  0  0  0  0  0  0  0  0  0
   26.6817  -19.7593  -13.9110 C   0  0  0  0  0  0  0  0  0  0  0  0
   26.4467  -20.7439  -14.6579 O   0  0  0  0  0  0  0  0  0  0  0  0
   26.6369  -20.3970   -8.6342 C   0  0  0  0  0  0  0  0  0  0  0  0
   26.5227  -20.9246  -10.0360 C   0  0  0  0  0  0  0  0  0  0  0  0
   25.1738  -20.6278  -10.6486 C   0  0  2  0  0  0  0  0  0  0  0  0
   24.1248  -21.5667  -10.1192 C   0  0  0  0  0  0  0  0  0  0  0  0
   25.1926  -20.7353  -12.1527 C   0  0  2  0  0  0  0  0  0  0  0  0
   26.0654  -19.6873  -12.6414 N   0  0  0  0  0  0  0  0  0  0  0  0
   23.8775  -20.5887  -12.7699 C   0  0  0  0  0  0  0  0  0  0  0  0
   23.2799  -19.4954  -12.7435 O   0  0  0  0  0  0  0  0  0  0  0  0
   21.6908  -22.7953  -14.9351 C   0  0  0  0  0  0  0  0  0  0  0  0
   21.9694  -21.6101  -14.0516 C   0  0  2  0  0  0  0  0  0  0  0  0
   23.2588  -21.6818  -13.4078 N   0  0  0  0  0  0  0  0  0  0  0  0
   20.9291  -21.5902  -12.9882 C   0  0  0  0  0  0  0  0  0  0  0  0
   19.6665  -21.0506  -13.1686 O   0  0  0  0  0  0  0  0  0  0  0  0
   21.1633  -22.0823  -11.8358 O   0  0  0  0  0  0  0  0  0  0  0  0
  2  1  1  6
  2  4  1  0
  3  2  1  0
  4  5  1  6
  6  7  2  0
  6  4  1  0
  8  9  1  0
  9 10  1  0
 10 12  1  0
 10 11  1  1
 12 14  1  0
 12 13  1  6
 13  6  1  0
 14 18  1  0
 15 14  2  0
 17 16  1  6
 17 19  1  0
 18 17  1  0
 19 21  2  0
 19 20  1  0
M  END
$$$$
