VIA.pdb
     RDKit          3D

 21 20  0  0  1  0  0  0  0  0999 V2000
   17.8456  -26.7753   -7.3672 C   0  0  0  0  0  0  0  0  0  0  0  0
   18.0087  -25.4556   -8.0680 C   0  0  2  0  0  0  0  0  0  0  0  0
   18.5434  -25.6180   -9.4708 C   0  0  0  0  0  0  0  0  0  0  0  0
   18.8578  -24.5211   -7.2585 C   0  0  2  0  0  0  0  0  0  0  0  0
   18.2653  -24.2860   -5.9729 N   0  0  0  0  0  0  0  0  0  0  0  0
   19.0452  -23.2690   -8.0417 C   0  0  0  0  0  0  0  0  0  0  0  0
   18.0972  -22.4421   -8.0259 O   0  0  0  0  0  0  0  0  0  0  0  0
   23.8240  -20.9718   -7.8773 C   0  0  0  0  0  0  0  0  0  0  0  0
   22.3349  -21.1506   -7.9601 C   0  0  0  0  0  0  0  0  0  0  0  0
   21.8658  -21.3754   -9.3788 C   0  0  2  0  0  0  0  0  0  0  0  0
   22.1237  -20.1615  -10.2287 C   0  0  0  0  0  0  0  0  0  0  0  0
   20.3953  -21.7021   -9.4500 C   0  0  2  0  0  0  0  0  0  0  0  0
   20.2114  -22.9752   -8.7835 N   0  0  0  0  0  0  0  0  0  0  0  0
   19.8786  -21.7967  -10.8123 C   0  0  0  0  0  0  0  0  0  0  0  0
   20.3559  -22.6181  -11.6189 O   0  0  0  0  0  0  0  0  0  0  0  0
   16.8711  -20.3803  -12.6051 C   0  0  0  0  0  0  0  0  0  0  0  0
   18.2211  -21.0414  -12.5471 C   0  0  2  0  0  0  0  0  0  0  0  0
   18.8293  -20.9601  -11.2411 N   0  0  0  0  0  0  0  0  0  0  0  0
   19.1083  -20.3325  -13.5082 C   0  0  0  0  0  0  0  0  0  0  0  0
   19.2512  -20.7101  -14.8329 O   0  0  0  0  0  0  0  0  0  0  0  0
   19.7921  -19.3209  -13.1423 O   0  0  0  0  0  0  0  0  0  0  0  0
  2  1  1  1
  2  4  1  0
  3  2  1  0
  4  5  1  1
  6  7  2  0
  6  4  1  0
  8  9  1  0
  9 10  1  0
 10 12  1  0
 10 11  1  6
 12 14  1  0
 12 13  1  6
 13  6  1  0
 14 18  1  0
 15 14  2  0
 17 16  1  1
 17 19  1  0
 18 17  1  0
 19 21  2  0
 19 20  1  0
M  END
$$$$
