VIA.pdb
     RDKit          3D

 21 20  0  0  1  0  0  0  0  0999 V2000
   11.7338  -10.3601  -11.6715 C   0  0  0  0  0  0  0  0  0  0  0  0
   12.1106  -11.8140  -11.6107 C   0  0  2  0  0  0  0  0  0  0  0  0
   12.1548  -12.3319  -10.1930 C   0  0  0  0  0  0  0  0  0  0  0  0
   13.4033  -12.0623  -12.3296 C   0  0  2  0  0  0  0  0  0  0  0  0
   13.7452  -13.4552  -12.2868 N   0  0  0  0  0  0  0  0  0  0  0  0
   14.4478  -11.1958  -11.7179 C   0  0  0  0  0  0  0  0  0  0  0  0
   15.0185  -11.6360  -10.6868 O   0  0  0  0  0  0  0  0  0  0  0  0
   18.5828   -9.9201  -14.2862 C   0  0  0  0  0  0  0  0  0  0  0  0
   17.5739  -10.1740  -13.2026 C   0  0  0  0  0  0  0  0  0  0  0  0
   16.8981   -8.9029  -12.7439 C   0  0  2  0  0  0  0  0  0  0  0  0
   17.9083   -7.9085  -12.2410 C   0  0  0  0  0  0  0  0  0  0  0  0
   15.8916   -9.1532  -11.6491 C   0  0  2  0  0  0  0  0  0  0  0  0
   14.8177   -9.9322  -12.2310 N   0  0  0  0  0  0  0  0  0  0  0  0
   15.3373   -7.9334  -11.0688 C   0  0  0  0  0  0  0  0  0  0  0  0
   14.7484   -7.0990  -11.7829 O   0  0  0  0  0  0  0  0  0  0  0  0
   14.9907   -6.5465   -7.5591 C   0  0  0  0  0  0  0  0  0  0  0  0
   15.0259   -6.4519   -9.0601 C   0  0  2  0  0  0  0  0  0  0  0  0
   15.4579   -7.6767   -9.6889 N   0  0  0  0  0  0  0  0  0  0  0  0
   16.0006   -5.3866   -9.4187 C   0  0  0  0  0  0  0  0  0  0  0  0
   15.7048   -4.0348   -9.3645 O   0  0  0  0  0  0  0  0  0  0  0  0
   17.1802   -5.6821   -9.8010 O   0  0  0  0  0  0  0  0  0  0  0  0
  2  1  1  1
  2  4  1  0
  3  2  1  0
  4  5  1  1
  6  7  2  0
  6  4  1  0
  8  9  1  0
  9 10  1  0
 10 12  1  0
 10 11  1  1
 12 14  1  0
 12 13  1  6
 13  6  1  0
 14 18  1  0
 15 14  2  0
 17 16  1  1
 17 19  1  0
 18 17  1  0
 19 21  2  0
 19 20  1  0
M  END
$$$$
