VIA.pdb
     RDKit          3D

 21 20  0  0  1  0  0  0  0  0999 V2000
   17.8303  -11.2739  -19.5896 C   0  0  0  0  0  0  0  0  0  0  0  0
   19.2902  -11.5138  -19.8549 C   0  0  2  0  0  0  0  0  0  0  0  0
   19.5181  -12.2758  -21.1385 C   0  0  0  0  0  0  0  0  0  0  0  0
   19.9420  -12.1925  -18.6870 C   0  0  2  0  0  0  0  0  0  0  0  0
   19.3393  -13.4722  -18.4460 N   0  0  0  0  0  0  0  0  0  0  0  0
   19.8489  -11.2837  -17.5116 C   0  0  0  0  0  0  0  0  0  0  0  0
   18.8751  -11.4584  -16.7345 O   0  0  0  0  0  0  0  0  0  0  0  0
   23.8244  -10.9494  -14.3679 C   0  0  0  0  0  0  0  0  0  0  0  0
   22.4654  -10.9037  -15.0062 C   0  0  0  0  0  0  0  0  0  0  0  0
   22.0590   -9.4977  -15.3817 C   0  0  2  0  0  0  0  0  0  0  0  0
   22.0325   -8.6047  -14.1717 C   0  0  0  0  0  0  0  0  0  0  0  0
   20.7017   -9.4505  -16.0373 C   0  0  2  0  0  0  0  0  0  0  0  0
   20.7823  -10.2590  -17.2368 N   0  0  0  0  0  0  0  0  0  0  0  0
   20.2682   -8.1035  -16.3970 C   0  0  0  0  0  0  0  0  0  0  0  0
   20.9833   -7.3735  -17.1105 O   0  0  0  0  0  0  0  0  0  0  0  0
   17.0825   -6.1109  -15.8706 C   0  0  0  0  0  0  0  0  0  0  0  0
   18.5083   -6.3085  -16.3077 C   0  0  2  0  0  0  0  0  0  0  0  0
   19.0318   -7.6030  -15.9438 N   0  0  0  0  0  0  0  0  0  0  0  0
   19.3329   -5.2749  -15.6258 C   0  0  0  0  0  0  0  0  0  0  0  0
   20.0762   -5.5255  -14.4845 O   0  0  0  0  0  0  0  0  0  0  0  0
   19.3910   -4.0838  -16.0760 O   0  0  0  0  0  0  0  0  0  0  0  0
  2  1  1  1
  2  4  1  0
  3  2  1  0
  4  5  1  1
  6  7  2  0
  6  4  1  0
  8  9  1  0
  9 10  1  0
 10 12  1  0
 10 11  1  1
 12 14  1  0
 12 13  1  6
 13  6  1  0
 14 18  1  0
 15 14  2  0
 17 16  1  1
 17 19  1  0
 18 17  1  0
 19 21  2  0
 19 20  1  0
M  END
$$$$
