VIA.pdb
     RDKit          3D

 21 20  0  0  1  0  0  0  0  0999 V2000
   14.9501  -12.6670  -17.8894 C   0  0  0  0  0  0  0  0  0  0  0  0
   15.6841  -11.7733  -16.9292 C   0  0  2  0  0  0  0  0  0  0  0  0
   15.7464  -10.3449  -17.4150 C   0  0  0  0  0  0  0  0  0  0  0  0
   17.0506  -12.3152  -16.6317 C   0  0  2  0  0  0  0  0  0  0  0  0
   16.9622  -13.6483  -16.1084 N   0  0  0  0  0  0  0  0  0  0  0  0
   17.7285  -11.3755  -15.6969 C   0  0  0  0  0  0  0  0  0  0  0  0
   17.3580  -11.4042  -14.4951 O   0  0  0  0  0  0  0  0  0  0  0  0
   22.9679   -9.7911  -13.7521 C   0  0  0  0  0  0  0  0  0  0  0  0
   21.5791   -9.2604  -13.9668 C   0  0  0  0  0  0  0  0  0  0  0  0
   20.8060  -10.0779  -14.9752 C   0  0  2  0  0  0  0  0  0  0  0  0
   21.4804  -10.0508  -16.3194 C   0  0  0  0  0  0  0  0  0  0  0  0
   19.3898   -9.5879  -15.1438 C   0  0  2  0  0  0  0  0  0  0  0  0
   18.7443  -10.4752  -16.0898 N   0  0  0  0  0  0  0  0  0  0  0  0
   19.2960   -8.2160  -15.6345 C   0  0  0  0  0  0  0  0  0  0  0  0
   19.7787   -7.9003  -16.7393 O   0  0  0  0  0  0  0  0  0  0  0  0
   17.3218   -5.1749  -14.6277 C   0  0  0  0  0  0  0  0  0  0  0  0
   18.4732   -5.8612  -15.3105 C   0  0  2  0  0  0  0  0  0  0  0  0
   18.6571   -7.2220  -14.8673 N   0  0  0  0  0  0  0  0  0  0  0  0
   19.7084   -5.1019  -14.9768 C   0  0  0  0  0  0  0  0  0  0  0  0
   20.0986   -3.9525  -15.6434 O   0  0  0  0  0  0  0  0  0  0  0  0
   20.4794   -5.4885  -14.0382 O   0  0  0  0  0  0  0  0  0  0  0  0
  2  1  1  6
  2  4  1  0
  3  2  1  0
  4  5  1  1
  6  7  2  0
  6  4  1  0
  8  9  1  0
  9 10  1  0
 10 12  1  0
 10 11  1  6
 12 14  1  0
 12 13  1  6
 13  6  1  0
 14 18  1  0
 15 14  2  0
 17 16  1  1
 17 19  1  0
 18 17  1  0
 19 21  2  0
 19 20  1  0
M  END
$$$$
