VIA.pdb
     RDKit          3D

 21 20  0  0  1  0  0  0  0  0999 V2000
   15.8899  -10.0922  -19.0754 C   0  0  0  0  0  0  0  0  0  0  0  0
   16.7198   -9.6133  -17.9173 C   0  0  2  0  0  0  0  0  0  0  0  0
   17.3518   -8.2687  -18.1871 C   0  0  0  0  0  0  0  0  0  0  0  0
   17.7454  -10.6383  -17.5337 C   0  0  2  0  0  0  0  0  0  0  0  0
   17.1173  -11.8923  -17.2309 N   0  0  0  0  0  0  0  0  0  0  0  0
   18.5336  -10.1003  -16.3911 C   0  0  0  0  0  0  0  0  0  0  0  0
   18.0190  -10.2037  -15.2478 O   0  0  0  0  0  0  0  0  0  0  0  0
   23.6355  -10.6212  -13.7336 C   0  0  0  0  0  0  0  0  0  0  0  0
   22.5530   -9.6125  -13.9923 C   0  0  0  0  0  0  0  0  0  0  0  0
   21.6620  -10.0154  -15.1442 C   0  0  2  0  0  0  0  0  0  0  0  0
   22.4564  -10.1588  -16.4134 C   0  0  0  0  0  0  0  0  0  0  0  0
   20.5548   -9.0205  -15.3862 C   0  0  2  0  0  0  0  0  0  0  0  0
   19.8023   -9.4939  -16.5300 N   0  0  0  0  0  0  0  0  0  0  0  0
   21.0288   -7.6656  -15.6533 C   0  0  0  0  0  0  0  0  0  0  0  0
   21.8343   -7.4434  -16.5779 O   0  0  0  0  0  0  0  0  0  0  0  0
   19.8848   -4.2293  -14.8004 C   0  0  0  0  0  0  0  0  0  0  0  0
   20.9840   -5.2142  -15.0917 C   0  0  2  0  0  0  0  0  0  0  0  0
   20.5838   -6.5826  -14.8699 N   0  0  0  0  0  0  0  0  0  0  0  0
   22.1109   -4.9132  -14.1680 C   0  0  0  0  0  0  0  0  0  0  0  0
   23.0897   -3.9728  -14.4427 O   0  0  0  0  0  0  0  0  0  0  0  0
   22.2251   -5.5250  -13.0556 O   0  0  0  0  0  0  0  0  0  0  0  0
  2  1  1  6
  2  4  1  0
  3  2  1  0
  4  5  1  1
  6  7  2  0
  6  4  1  0
  8  9  1  0
  9 10  1  0
 10 12  1  0
 10 11  1  6
 12 14  1  0
 12 13  1  6
 13  6  1  0
 14 18  1  0
 15 14  2  0
 17 16  1  1
 17 19  1  0
 18 17  1  0
 19 21  2  0
 19 20  1  0
M  END
$$$$
