VIA.pdb
     RDKit          3D

 21 20  0  0  1  0  0  0  0  0999 V2000
   17.6400  -12.9161  -19.6060 C   0  0  0  0  0  0  0  0  0  0  0  0
   17.8582  -11.8414  -18.5780 C   0  0  2  0  0  0  0  0  0  0  0  0
   18.0049  -10.4754  -19.2047 C   0  0  0  0  0  0  0  0  0  0  0  0
   19.0258  -12.1727  -17.6969 C   0  0  2  0  0  0  0  0  0  0  0  0
   18.8882  -13.4927  -17.1515 N   0  0  0  0  0  0  0  0  0  0  0  0
   19.1246  -11.1243  -16.6445 C   0  0  0  0  0  0  0  0  0  0  0  0
   18.3010  -11.1925  -15.6960 O   0  0  0  0  0  0  0  0  0  0  0  0
   23.3669  -10.5512  -13.9940 C   0  0  0  0  0  0  0  0  0  0  0  0
   21.9654  -10.5192  -14.5337 C   0  0  0  0  0  0  0  0  0  0  0  0
   21.5972   -9.1608  -15.0834 C   0  0  2  0  0  0  0  0  0  0  0  0
   21.7623   -8.0943  -14.0356 C   0  0  0  0  0  0  0  0  0  0  0  0
   20.1773   -9.1143  -15.5895 C   0  0  2  0  0  0  0  0  0  0  0  0
   20.0784  -10.0819  -16.6632 N   0  0  0  0  0  0  0  0  0  0  0  0
   19.7729   -7.8032  -16.0888 C   0  0  0  0  0  0  0  0  0  0  0  0
   20.4881   -7.1817  -16.8984 O   0  0  0  0  0  0  0  0  0  0  0  0
   16.6941   -5.6247  -15.6865 C   0  0  0  0  0  0  0  0  0  0  0  0
   18.1155   -5.9111  -16.0871 C   0  0  2  0  0  0  0  0  0  0  0  0
   18.5651   -7.2155  -15.6643 N   0  0  0  0  0  0  0  0  0  0  0  0
   18.9797   -4.8951  -15.4280 C   0  0  0  0  0  0  0  0  0  0  0  0
   19.8009   -5.1787  -14.3495 O   0  0  0  0  0  0  0  0  0  0  0  0
   19.0006   -3.6889  -15.8399 O   0  0  0  0  0  0  0  0  0  0  0  0
  2  1  1  6
  2  4  1  0
  3  2  1  0
  4  5  1  1
  6  7  2  0
  6  4  1  0
  8  9  1  0
  9 10  1  0
 10 12  1  0
 10 11  1  1
 12 14  1  0
 12 13  1  6
 13  6  1  0
 14 18  1  0
 15 14  2  0
 17 16  1  1
 17 19  1  0
 18 17  1  0
 19 21  2  0
 19 20  1  0
M  END
$$$$
