WSW.pdb
     RDKit          3D

 35 38  0  0  1  0  0  0  0  0999 V2000
   29.2430  -18.8061  -18.2560 N   0  0  0  0  0  0  0  0  0  0  0  0
   28.5753  -19.7344  -17.4622 C   0  0  1  0  0  0  0  0  0  0  0  0
   28.9674  -21.1491  -17.7581 C   0  0  0  0  0  0  0  0  0  0  0  0
   28.8180  -21.5693  -19.1518 C   0  0  0  0  0  0  0  0  0  0  0  0
   29.6905  -22.2571  -19.9446 C   0  0  0  0  0  0  0  0  0  0  0  0
   29.1595  -22.4513  -21.1805 N   0  0  0  0  0  0  0  0  0  0  0  0
   27.9440  -21.8835  -21.1738 C   0  0  0  0  0  0  0  0  0  0  0  0
   26.9737  -21.7937  -22.1811 C   0  0  0  0  0  0  0  0  0  0  0  0
   25.7603  -21.1420  -21.9308 C   0  0  0  0  0  0  0  0  0  0  0  0
   25.5285  -20.5909  -20.6846 C   0  0  0  0  0  0  0  0  0  0  0  0
   26.5032  -20.7001  -19.7261 C   0  0  0  0  0  0  0  0  0  0  0  0
   27.7124  -21.3331  -19.9310 C   0  0  0  0  0  0  0  0  0  0  0  0
   28.5302  -19.4693  -15.9812 C   0  0  0  0  0  0  0  0  0  0  0  0
   29.6628  -19.3242  -15.4404 O   0  0  0  0  0  0  0  0  0  0  0  0
   24.7428  -18.7234  -14.0443 O   0  0  0  0  0  0  0  0  0  0  0  0
   25.9396  -18.2279  -13.6789 C   0  0  0  0  0  0  0  0  0  0  0  0
   27.0833  -19.2299  -13.8303 C   0  0  2  0  0  0  0  0  0  0  0  0
   27.3606  -19.3762  -15.2266 N   0  0  0  0  0  0  0  0  0  0  0  0
   27.0706  -20.3535  -12.9485 C   0  0  0  0  0  0  0  0  0  0  0  0
   26.7677  -21.5196  -13.3700 O   0  0  0  0  0  0  0  0  0  0  0  0
   27.3841  -20.3106  -11.5604 N   0  0  0  0  0  0  0  0  0  0  0  0
   26.9724  -21.3505  -10.6695 C   0  0  1  0  0  0  0  0  0  0  0  0
   27.5758  -21.4753   -9.3376 C   0  0  0  0  0  0  0  0  0  0  0  0
   27.3073  -20.4131   -8.3487 C   0  0  0  0  0  0  0  0  0  0  0  0
   26.3710  -19.4008   -8.3177 C   0  0  0  0  0  0  0  0  0  0  0  0
   26.5335  -18.6686   -7.1784 N   0  0  0  0  0  0  0  0  0  0  0  0
   27.5526  -19.1775   -6.4606 C   0  0  0  0  0  0  0  0  0  0  0  0
   28.1274  -18.8597   -5.2467 C   0  0  0  0  0  0  0  0  0  0  0  0
   29.1740  -19.6077   -4.7526 C   0  0  0  0  0  0  0  0  0  0  0  0
   29.6896  -20.6892   -5.4358 C   0  0  0  0  0  0  0  0  0  0  0  0
   29.0919  -20.9956   -6.6690 C   0  0  0  0  0  0  0  0  0  0  0  0
   28.0444  -20.2517   -7.1665 C   0  0  0  0  0  0  0  0  0  0  0  0
   25.4767  -21.2212  -10.5058 C   0  0  0  0  0  0  0  0  0  0  0  0
   24.8773  -20.1814  -10.9077 O   0  0  0  0  0  0  0  0  0  0  0  0
   24.7153  -22.2183   -9.9210 O   0  0  0  0  0  0  0  0  0  0  0  0
  2  3  1  0
  2  1  1  6
  4  5  2  0
  4  3  1  0
  6  5  1  0
  7 12  2  0
  7  6  1  0
  8  7  1  0
  9 10  1  0
  9  8  2  0
 10 11  2  0
 11 12  1  0
 12  4  1  0
 13  2  1  0
 14 13  2  0
 16 15  1  0
 17 16  1  6
 17 18  1  0
 18 13  1  0
 19 17  1  0
 19 21  1  0
 20 19  2  0
 22 23  1  1
 22 33  1  0
 22 21  1  0
 24 23  1  0
 24 32  1  0
 25 24  2  0
 26 25  1  0
 26 27  1  0
 27 28  1  0
 27 32  2  0
 28 29  2  0
 29 30  1  0
 31 30  2  0
 32 31  1  0
 33 35  1  0
 34 33  2  0
M  END
$$$$
