WSW.pdb
     RDKit          3D

 35 38  0  0  1  0  0  0  0  0999 V2000
   21.2508  -16.6651  -17.7165 N   0  0  0  0  0  0  0  0  0  0  0  0
   21.6710  -17.3316  -16.5690 C   0  0  1  0  0  0  0  0  0  0  0  0
   20.6038  -18.1922  -15.9665 C   0  0  0  0  0  0  0  0  0  0  0  0
   19.3662  -17.5029  -15.5999 C   0  0  0  0  0  0  0  0  0  0  0  0
   18.2282  -17.3235  -16.3317 C   0  0  0  0  0  0  0  0  0  0  0  0
   17.3054  -16.6294  -15.6150 N   0  0  0  0  0  0  0  0  0  0  0  0
   17.8595  -16.3653  -14.4221 C   0  0  0  0  0  0  0  0  0  0  0  0
   17.3482  -15.6828  -13.3099 C   0  0  0  0  0  0  0  0  0  0  0  0
   18.1290  -15.5345  -12.1575 C   0  0  0  0  0  0  0  0  0  0  0  0
   19.4043  -16.0669  -12.1265 C   0  0  0  0  0  0  0  0  0  0  0  0
   19.8677  -16.7276  -13.2353 C   0  0  0  0  0  0  0  0  0  0  0  0
   19.1319  -16.8958  -14.3908 C   0  0  0  0  0  0  0  0  0  0  0  0
   22.9923  -18.0497  -16.6336 C   0  0  0  0  0  0  0  0  0  0  0  0
   22.9786  -19.1110  -17.3191 O   0  0  0  0  0  0  0  0  0  0  0  0
   26.5106  -16.2095  -15.0985 O   0  0  0  0  0  0  0  0  0  0  0  0
   26.5343  -17.3274  -15.8475 C   0  0  0  0  0  0  0  0  0  0  0  0
   25.3602  -18.2664  -15.5739 C   0  0  2  0  0  0  0  0  0  0  0  0
   24.1629  -17.6159  -16.0111 N   0  0  0  0  0  0  0  0  0  0  0  0
   25.4055  -19.0089  -14.3544 C   0  0  0  0  0  0  0  0  0  0  0  0
   25.0731  -18.4745  -13.2439 O   0  0  0  0  0  0  0  0  0  0  0  0
   25.8032  -20.3708  -14.2375 N   0  0  0  0  0  0  0  0  0  0  0  0
   26.7983  -20.7799  -13.2957 C   0  0  1  0  0  0  0  0  0  0  0  0
   27.1382  -19.9272  -12.1506 C   0  0  0  0  0  0  0  0  0  0  0  0
   28.1814  -20.3964  -11.2180 C   0  0  0  0  0  0  0  0  0  0  0  0
   29.4621  -20.8627  -11.4296 C   0  0  0  0  0  0  0  0  0  0  0  0
   30.0323  -21.1790  -10.2315 N   0  0  0  0  0  0  0  0  0  0  0  0
   29.1572  -20.9296   -9.2393 C   0  0  0  0  0  0  0  0  0  0  0  0
   29.2052  -21.0384   -7.8642 C   0  0  0  0  0  0  0  0  0  0  0  0
   28.1216  -20.6702   -7.0964 C   0  0  0  0  0  0  0  0  0  0  0  0
   26.9573  -20.1859   -7.6551 C   0  0  0  0  0  0  0  0  0  0  0  0
   26.9281  -20.0838   -9.0553 C   0  0  0  0  0  0  0  0  0  0  0  0
   28.0093  -20.4492   -9.8270 C   0  0  0  0  0  0  0  0  0  0  0  0
   26.3792  -22.1340  -12.7749 C   0  0  0  0  0  0  0  0  0  0  0  0
   25.1522  -22.4228  -12.6601 O   0  0  0  0  0  0  0  0  0  0  0  0
   27.3045  -23.0966  -12.4101 O   0  0  0  0  0  0  0  0  0  0  0  0
  2  3  1  0
  2  1  1  6
  4  5  2  0
  4  3  1  0
  6  5  1  0
  7 12  2  0
  7  6  1  0
  8  7  1  0
  9 10  1  0
  9  8  2  0
 10 11  2  0
 11 12  1  0
 12  4  1  0
 13  2  1  0
 14 13  2  0
 16 15  1  0
 17 16  1  1
 17 18  1  0
 18 13  1  0
 19 17  1  0
 19 21  1  0
 20 19  2  0
 22 23  1  1
 22 33  1  0
 22 21  1  0
 24 23  1  0
 24 32  1  0
 25 24  2  0
 26 25  1  0
 26 27  1  0
 27 28  1  0
 27 32  2  0
 28 29  2  0
 29 30  1  0
 31 30  2  0
 32 31  1  0
 33 35  1  0
 34 33  2  0
M  END
$$$$
