WSW.pdb
     RDKit          3D

 35 38  0  0  1  0  0  0  0  0999 V2000
   26.4239  -19.9085  -16.1320 N   0  0  0  0  0  0  0  0  0  0  0  0
   26.3598  -20.8598  -15.1178 C   0  0  1  0  0  0  0  0  0  0  0  0
   27.3600  -21.9620  -15.2833 C   0  0  0  0  0  0  0  0  0  0  0  0
   27.2779  -22.7083  -16.5393 C   0  0  0  0  0  0  0  0  0  0  0  0
   28.1221  -22.6900  -17.6115 C   0  0  0  0  0  0  0  0  0  0  0  0
   27.6850  -23.5413  -18.5765 N   0  0  0  0  0  0  0  0  0  0  0  0
   26.5570  -24.1030  -18.1161 C   0  0  0  0  0  0  0  0  0  0  0  0
   25.7037  -25.0479  -18.7019 C   0  0  0  0  0  0  0  0  0  0  0  0
   24.5683  -25.4907  -18.0130 C   0  0  0  0  0  0  0  0  0  0  0  0
   24.2985  -24.9899  -16.7532 C   0  0  0  0  0  0  0  0  0  0  0  0
   25.1581  -24.0667  -16.2151 C   0  0  0  0  0  0  0  0  0  0  0  0
   26.2871  -23.6033  -16.8596 C   0  0  0  0  0  0  0  0  0  0  0  0
   26.3200  -20.3548  -13.7004 C   0  0  0  0  0  0  0  0  0  0  0  0
   27.2452  -19.5462  -13.4063 O   0  0  0  0  0  0  0  0  0  0  0  0
   22.7529  -20.7295  -11.3729 O   0  0  0  0  0  0  0  0  0  0  0  0
   23.7200  -19.7993  -11.2694 C   0  0  0  0  0  0  0  0  0  0  0  0
   25.1308  -20.3751  -11.3847 C   0  0  2  0  0  0  0  0  0  0  0  0
   25.3586  -20.7151  -12.7560 N   0  0  0  0  0  0  0  0  0  0  0  0
   25.5639  -21.2249  -10.3214 C   0  0  0  0  0  0  0  0  0  0  0  0
   25.5921  -22.4934  -10.4604 O   0  0  0  0  0  0  0  0  0  0  0  0
   26.0001  -20.7799   -9.0414 N   0  0  0  0  0  0  0  0  0  0  0  0
   26.2791  -21.7026   -7.9852 C   0  0  1  0  0  0  0  0  0  0  0  0
   27.3650  -21.4419   -7.0331 C   0  0  0  0  0  0  0  0  0  0  0  0
   27.6177  -20.0450   -6.6299 C   0  0  0  0  0  0  0  0  0  0  0  0
   27.1432  -18.8461   -7.1198 C   0  0  0  0  0  0  0  0  0  0  0  0
   27.6821  -17.8188   -6.4023 N   0  0  0  0  0  0  0  0  0  0  0  0
   28.4970  -18.3151   -5.4525 C   0  0  0  0  0  0  0  0  0  0  0  0
   29.2654  -17.7520   -4.4537 C   0  0  0  0  0  0  0  0  0  0  0  0
   29.9931  -18.5507   -3.5984 C   0  0  0  0  0  0  0  0  0  0  0  0
   29.9904  -19.9263   -3.6985 C   0  0  0  0  0  0  0  0  0  0  0  0
   29.2034  -20.4796   -4.7214 C   0  0  0  0  0  0  0  0  0  0  0  0
   28.4730  -19.6854   -5.5781 C   0  0  0  0  0  0  0  0  0  0  0  0
   24.9961  -21.8816   -7.2089 C   0  0  0  0  0  0  0  0  0  0  0  0
   24.0053  -21.1253   -7.4286 O   0  0  0  0  0  0  0  0  0  0  0  0
   24.8554  -22.8639   -6.2440 O   0  0  0  0  0  0  0  0  0  0  0  0
  2  3  1  0
  2  1  1  6
  4  5  2  0
  4  3  1  0
  6  5  1  0
  7 12  2  0
  7  6  1  0
  8  7  1  0
  9 10  1  0
  9  8  2  0
 10 11  2  0
 11 12  1  0
 12  4  1  0
 13  2  1  0
 14 13  2  0
 16 15  1  0
 17 16  1  6
 17 18  1  0
 18 13  1  0
 19 17  1  0
 19 21  1  0
 20 19  2  0
 22 23  1  1
 22 33  1  0
 22 21  1  0
 24 23  1  0
 24 32  1  0
 25 24  2  0
 26 25  1  0
 26 27  1  0
 27 28  1  0
 27 32  2  0
 28 29  2  0
 29 30  1  0
 31 30  2  0
 32 31  1  0
 33 35  1  0
 34 33  2  0
M  END
$$$$
