WSW.pdb
     RDKit          3D

 35 38  0  0  1  0  0  0  0  0999 V2000
   24.9464  -21.8132  -17.3649 N   0  0  0  0  0  0  0  0  0  0  0  0
   25.1693  -21.0977  -16.1918 C   0  0  1  0  0  0  0  0  0  0  0  0
   23.9227  -20.8820  -15.3905 C   0  0  0  0  0  0  0  0  0  0  0  0
   22.7988  -20.2883  -16.1153 C   0  0  0  0  0  0  0  0  0  0  0  0
   21.5786  -20.8258  -16.4068 C   0  0  0  0  0  0  0  0  0  0  0  0
   20.8173  -19.9343  -17.0944 N   0  0  0  0  0  0  0  0  0  0  0  0
   21.5572  -18.8250  -17.2416 C   0  0  0  0  0  0  0  0  0  0  0  0
   21.2598  -17.6066  -17.8673 C   0  0  0  0  0  0  0  0  0  0  0  0
   22.2102  -16.5790  -17.8903 C   0  0  0  0  0  0  0  0  0  0  0  0
   23.4401  -16.7762  -17.2908 C   0  0  0  0  0  0  0  0  0  0  0  0
   23.6921  -17.9825  -16.6892 C   0  0  0  0  0  0  0  0  0  0  0  0
   22.7844  -19.0213  -16.6443 C   0  0  0  0  0  0  0  0  0  0  0  0
   26.3178  -21.5373  -15.3239 C   0  0  0  0  0  0  0  0  0  0  0  0
   26.3743  -22.7831  -15.1214 O   0  0  0  0  0  0  0  0  0  0  0  0
   27.5720  -18.1527  -13.1877 O   0  0  0  0  0  0  0  0  0  0  0  0
   28.4680  -19.1369  -13.3872 C   0  0  0  0  0  0  0  0  0  0  0  0
   27.8362  -20.5260  -13.4668 C   0  0  2  0  0  0  0  0  0  0  0  0
   27.2693  -20.6795  -14.7718 N   0  0  0  0  0  0  0  0  0  0  0  0
   27.1583  -20.9886  -12.2977 C   0  0  0  0  0  0  0  0  0  0  0  0
   25.9173  -21.2855  -12.3287 O   0  0  0  0  0  0  0  0  0  0  0  0
   27.7582  -21.1699  -11.0193 N   0  0  0  0  0  0  0  0  0  0  0  0
   26.9898  -21.5808   -9.8855 C   0  0  1  0  0  0  0  0  0  0  0  0
   27.5717  -21.5515   -8.5386 C   0  0  0  0  0  0  0  0  0  0  0  0
   27.3839  -20.3347   -7.7248 C   0  0  0  0  0  0  0  0  0  0  0  0
   26.5613  -19.2391   -7.8848 C   0  0  0  0  0  0  0  0  0  0  0  0
   26.7610  -18.3688   -6.8537 N   0  0  0  0  0  0  0  0  0  0  0  0
   27.6934  -18.8679   -6.0205 C   0  0  0  0  0  0  0  0  0  0  0  0
   28.2555  -18.4361   -4.8362 C   0  0  0  0  0  0  0  0  0  0  0  0
   29.1975  -19.2060   -4.1890 C   0  0  0  0  0  0  0  0  0  0  0  0
   29.6179  -20.4222   -4.6853 C   0  0  0  0  0  0  0  0  0  0  0  0
   29.0349  -20.8433   -5.8914 C   0  0  0  0  0  0  0  0  0  0  0  0
   28.0917  -20.0778   -6.5415 C   0  0  0  0  0  0  0  0  0  0  0  0
   25.7328  -20.7437   -9.8809 C   0  0  0  0  0  0  0  0  0  0  0  0
   25.7166  -19.6119  -10.4472 O   0  0  0  0  0  0  0  0  0  0  0  0
   24.5685  -21.1747   -9.2689 O   0  0  0  0  0  0  0  0  0  0  0  0
  2  3  1  0
  2  1  1  6
  4  5  2  0
  4  3  1  0
  6  5  1  0
  7 12  2  0
  7  6  1  0
  8  7  1  0
  9 10  1  0
  9  8  2  0
 10 11  2  0
 11 12  1  0
 12  4  1  0
 13  2  1  0
 14 13  2  0
 16 15  1  0
 17 16  1  1
 17 18  1  0
 18 13  1  0
 19 17  1  0
 19 21  1  0
 20 19  2  0
 22 23  1  1
 22 33  1  0
 22 21  1  0
 24 23  1  0
 24 32  1  0
 25 24  2  0
 26 25  1  0
 26 27  1  0
 27 28  1  0
 27 32  2  0
 28 29  2  0
 29 30  1  0
 31 30  2  0
 32 31  1  0
 33 35  1  0
 34 33  2  0
M  END
$$$$
