WSW.pdb
     RDKit          3D

 35 38  0  0  1  0  0  0  0  0999 V2000
   22.9990  -21.2466   -9.1229 N   0  0  0  0  0  0  0  0  0  0  0  0
   22.6969  -21.9257   -7.9459 C   0  0  1  0  0  0  0  0  0  0  0  0
   23.3621  -21.3356   -6.7410 C   0  0  0  0  0  0  0  0  0  0  0  0
   24.6579  -20.6995   -6.9807 C   0  0  0  0  0  0  0  0  0  0  0  0
   25.1337  -20.1101   -8.1161 C   0  0  0  0  0  0  0  0  0  0  0  0
   26.3900  -19.6328   -7.9144 N   0  0  0  0  0  0  0  0  0  0  0  0
   26.7150  -19.9207   -6.6450 C   0  0  0  0  0  0  0  0  0  0  0  0
   27.8851  -19.6556   -5.9205 C   0  0  0  0  0  0  0  0  0  0  0  0
   27.9900  -20.0598   -4.5843 C   0  0  0  0  0  0  0  0  0  0  0  0
   26.9317  -20.7193   -3.9879 C   0  0  0  0  0  0  0  0  0  0  0  0
   25.8044  -20.9597   -4.7309 C   0  0  0  0  0  0  0  0  0  0  0  0
   25.6599  -20.5792   -6.0497 C   0  0  0  0  0  0  0  0  0  0  0  0
   21.2482  -22.2383   -7.6828 C   0  0  0  0  0  0  0  0  0  0  0  0
   20.4987  -21.2239   -7.6077 O   0  0  0  0  0  0  0  0  0  0  0  0
   20.0223  -26.3742   -7.2312 O   0  0  0  0  0  0  0  0  0  0  0  0
   19.3663  -25.4481   -7.9546 C   0  0  0  0  0  0  0  0  0  0  0  0
   19.4120  -24.0511   -7.3370 C   0  0  2  0  0  0  0  0  0  0  0  0
   20.7279  -23.5240   -7.5335 N   0  0  0  0  0  0  0  0  0  0  0  0
   18.7110  -23.8727   -6.1053 C   0  0  0  0  0  0  0  0  0  0  0  0
   19.3386  -23.6714   -5.0122 O   0  0  0  0  0  0  0  0  0  0  0  0
   17.2953  -23.8923   -5.9569 N   0  0  0  0  0  0  0  0  0  0  0  0
   16.6772  -23.7648   -4.6737 C   0  0  1  0  0  0  0  0  0  0  0  0
   15.5905  -22.8018   -4.4605 C   0  0  0  0  0  0  0  0  0  0  0  0
   14.9940  -22.7115   -3.1136 C   0  0  0  0  0  0  0  0  0  0  0  0
   15.4731  -22.1935   -1.9284 C   0  0  0  0  0  0  0  0  0  0  0  0
   14.5341  -22.3536   -0.9521 N   0  0  0  0  0  0  0  0  0  0  0  0
   13.4501  -22.9623   -1.4689 C   0  0  0  0  0  0  0  0  0  0  0  0
   12.2254  -23.3427   -0.9585 C   0  0  0  0  0  0  0  0  0  0  0  0
   11.2864  -23.9418   -1.7700 C   0  0  0  0  0  0  0  0  0  0  0  0
   11.5216  -24.1877   -3.1066 C   0  0  0  0  0  0  0  0  0  0  0  0
   12.7736  -23.7943   -3.6063 C   0  0  0  0  0  0  0  0  0  0  0  0
   13.7150  -23.1937   -2.7995 C   0  0  0  0  0  0  0  0  0  0  0  0
   16.1811  -25.1379   -4.2875 C   0  0  0  0  0  0  0  0  0  0  0  0
   15.7865  -25.9482   -5.1762 O   0  0  0  0  0  0  0  0  0  0  0  0
   16.1402  -25.5575   -2.9692 O   0  0  0  0  0  0  0  0  0  0  0  0
  2  3  1  0
  2  1  1  6
  4  5  2  0
  4  3  1  0
  6  5  1  0
  7 12  2  0
  7  6  1  0
  8  7  1  0
  9 10  1  0
  9  8  2  0
 10 11  2  0
 11 12  1  0
 12  4  1  0
 13  2  1  0
 14 13  2  0
 16 15  1  0
 17 16  1  1
 17 18  1  0
 18 13  1  0
 19 17  1  0
 19 21  1  0
 20 19  2  0
 22 23  1  6
 22 33  1  0
 22 21  1  0
 24 23  1  0
 24 32  1  0
 25 24  2  0
 26 25  1  0
 26 27  1  0
 27 28  1  0
 27 32  2  0
 28 29  2  0
 29 30  1  0
 31 30  2  0
 32 31  1  0
 33 35  1  0
 34 33  2  0
M  END
$$$$
