WSW.pdb
     RDKit          3D

 35 38  0  0  1  0  0  0  0  0999 V2000
   25.6959  -18.4528  -16.1463 N   0  0  0  0  0  0  0  0  0  0  0  0
   26.4949  -18.4762  -15.0067 C   0  0  1  0  0  0  0  0  0  0  0  0
   26.5558  -17.1542  -14.3058 C   0  0  0  0  0  0  0  0  0  0  0  0
   26.9451  -16.0143  -15.1366 C   0  0  0  0  0  0  0  0  0  0  0  0
   26.4610  -14.7382  -15.1336 C   0  0  0  0  0  0  0  0  0  0  0  0
   27.1032  -13.9829  -16.0632 N   0  0  0  0  0  0  0  0  0  0  0  0
   27.9994  -14.7826  -16.6607 C   0  0  0  0  0  0  0  0  0  0  0  0
   28.9205  -14.5167  -17.6830 C   0  0  0  0  0  0  0  0  0  0  0  0
   29.7666  -15.5310  -18.1468 C   0  0  0  0  0  0  0  0  0  0  0  0
   29.6862  -16.7927  -17.5878 C   0  0  0  0  0  0  0  0  0  0  0  0
   28.7716  -17.0122  -16.5898 C   0  0  0  0  0  0  0  0  0  0  0  0
   27.9192  -16.0416  -16.1039 C   0  0  0  0  0  0  0  0  0  0  0  0
   26.2814  -19.6084  -14.0382 C   0  0  0  0  0  0  0  0  0  0  0  0
   25.0770  -19.7901  -13.7021 O   0  0  0  0  0  0  0  0  0  0  0  0
   29.7607  -21.5048  -12.3730 O   0  0  0  0  0  0  0  0  0  0  0  0
   28.6501  -22.2014  -12.6772 C   0  0  0  0  0  0  0  0  0  0  0  0
   27.3615  -21.4015  -12.4905 C   0  0  2  0  0  0  0  0  0  0  0  0
   27.2953  -20.4213  -13.5310 N   0  0  0  0  0  0  0  0  0  0  0  0
   26.9896  -21.0921  -11.1466 C   0  0  0  0  0  0  0  0  0  0  0  0
   27.8065  -21.2606  -10.1804 O   0  0  0  0  0  0  0  0  0  0  0  0
   25.7246  -20.5783  -10.7431 N   0  0  0  0  0  0  0  0  0  0  0  0
   25.0034  -21.1461   -9.6467 C   0  0  1  0  0  0  0  0  0  0  0  0
   25.0841  -20.5471   -8.3094 C   0  0  0  0  0  0  0  0  0  0  0  0
   26.2897  -19.7678   -7.9667 C   0  0  0  0  0  0  0  0  0  0  0  0
   26.8139  -18.6056   -8.4927 C   0  0  0  0  0  0  0  0  0  0  0  0
   27.9608  -18.2847   -7.8278 N   0  0  0  0  0  0  0  0  0  0  0  0
   28.2004  -19.2075   -6.8772 C   0  0  0  0  0  0  0  0  0  0  0  0
   29.1797  -19.3688   -5.9180 C   0  0  0  0  0  0  0  0  0  0  0  0
   29.1357  -20.4367   -5.0480 C   0  0  0  0  0  0  0  0  0  0  0  0
   28.1303  -21.3797   -5.0942 C   0  0  0  0  0  0  0  0  0  0  0  0
   27.1443  -21.1983   -6.0774 C   0  0  0  0  0  0  0  0  0  0  0  0
   27.1831  -20.1316   -6.9485 C   0  0  0  0  0  0  0  0  0  0  0  0
   23.5514  -21.2012  -10.0583 C   0  0  0  0  0  0  0  0  0  0  0  0
   23.1724  -20.6613  -11.1386 O   0  0  0  0  0  0  0  0  0  0  0  0
   22.5947  -21.8347   -9.2843 O   0  0  0  0  0  0  0  0  0  0  0  0
  2  3  1  0
  2  1  1  6
  4  5  2  0
  4  3  1  0
  6  5  1  0
  7 12  2  0
  7  6  1  0
  8  7  1  0
  9 10  1  0
  9  8  2  0
 10 11  2  0
 11 12  1  0
 12  4  1  0
 13  2  1  0
 14 13  2  0
 16 15  1  0
 17 16  1  1
 17 18  1  0
 18 13  1  0
 19 17  1  0
 19 21  1  0
 20 19  2  0
 22 23  1  1
 22 33  1  0
 22 21  1  0
 24 23  1  0
 24 32  1  0
 25 24  2  0
 26 25  1  0
 26 27  1  0
 27 28  1  0
 27 32  2  0
 28 29  2  0
 29 30  1  0
 31 30  2  0
 32 31  1  0
 33 35  1  0
 34 33  2  0
M  END
$$$$
