WSW.pdb
     RDKit          3D

 35 38  0  0  1  0  0  0  0  0999 V2000
   20.4973  -18.4475  -21.5564 N   0  0  0  0  0  0  0  0  0  0  0  0
   20.6302  -18.0399  -20.2320 C   0  0  1  0  0  0  0  0  0  0  0  0
   20.6531  -16.5507  -20.0761 C   0  0  0  0  0  0  0  0  0  0  0  0
   21.5721  -15.8352  -20.9618 C   0  0  0  0  0  0  0  0  0  0  0  0
   21.3142  -15.1961  -22.1399 C   0  0  0  0  0  0  0  0  0  0  0  0
   22.4518  -14.6502  -22.6447 N   0  0  0  0  0  0  0  0  0  0  0  0
   23.4380  -14.9444  -21.7841 C   0  0  0  0  0  0  0  0  0  0  0  0
   24.8025  -14.6260  -21.8171 C   0  0  0  0  0  0  0  0  0  0  0  0
   25.6474  -15.0503  -20.7847 C   0  0  0  0  0  0  0  0  0  0  0  0
   25.1247  -15.7826  -19.7353 C   0  0  0  0  0  0  0  0  0  0  0  0
   23.7845  -16.0734  -19.7402 C   0  0  0  0  0  0  0  0  0  0  0  0
   22.9172  -15.6753  -20.7373 C   0  0  0  0  0  0  0  0  0  0  0  0
   19.7293  -18.6905  -19.2168 C   0  0  0  0  0  0  0  0  0  0  0  0
   18.5131  -18.7455  -19.5548 O   0  0  0  0  0  0  0  0  0  0  0  0
   20.9307  -19.2305  -15.0274 O   0  0  0  0  0  0  0  0  0  0  0  0
   20.5502  -20.2182  -15.8587 C   0  0  0  0  0  0  0  0  0  0  0  0
   19.4872  -19.7865  -16.8679 C   0  0  2  0  0  0  0  0  0  0  0  0
   20.1556  -19.2099  -17.9943 N   0  0  0  0  0  0  0  0  0  0  0  0
   18.2926  -19.2141  -16.3335 C   0  0  0  0  0  0  0  0  0  0  0  0
   18.2238  -17.9700  -16.0563 O   0  0  0  0  0  0  0  0  0  0  0  0
   17.0906  -19.9276  -16.0633 N   0  0  0  0  0  0  0  0  0  0  0  0
   15.9071  -19.2569  -15.6227 C   0  0  1  0  0  0  0  0  0  0  0  0
   14.9913  -18.6440  -16.5918 C   0  0  0  0  0  0  0  0  0  0  0  0
   14.3600  -19.5157  -17.6016 C   0  0  0  0  0  0  0  0  0  0  0  0
   14.0297  -20.8547  -17.5834 C   0  0  0  0  0  0  0  0  0  0  0  0
   13.4619  -21.1972  -18.7754 N   0  0  0  0  0  0  0  0  0  0  0  0
   13.4102  -20.1146  -19.5742 C   0  0  0  0  0  0  0  0  0  0  0  0
   12.9297  -19.8799  -20.8466 C   0  0  0  0  0  0  0  0  0  0  0  0
   13.0008  -18.6190  -21.3982 C   0  0  0  0  0  0  0  0  0  0  0  0
   13.5476  -17.5507  -20.7186 C   0  0  0  0  0  0  0  0  0  0  0  0
   14.0317  -17.8102  -19.4262 C   0  0  0  0  0  0  0  0  0  0  0  0
   13.9614  -19.0686  -18.8698 C   0  0  0  0  0  0  0  0  0  0  0  0
   15.1277  -20.2453  -14.7882 C   0  0  0  0  0  0  0  0  0  0  0  0
   14.0985  -19.8733  -14.1524 O   0  0  0  0  0  0  0  0  0  0  0  0
   15.5012  -21.5744  -14.6887 O   0  0  0  0  0  0  0  0  0  0  0  0
  2  3  1  0
  2  1  1  6
  4  5  2  0
  4  3  1  0
  6  5  1  0
  7 12  2  0
  7  6  1  0
  8  7  1  0
  9 10  1  0
  9  8  2  0
 10 11  2  0
 11 12  1  0
 12  4  1  0
 13  2  1  0
 14 13  2  0
 16 15  1  0
 17 16  1  1
 17 18  1  0
 18 13  1  0
 19 17  1  0
 19 21  1  0
 20 19  2  0
 22 23  1  6
 22 33  1  0
 22 21  1  0
 24 23  1  0
 24 32  1  0
 25 24  2  0
 26 25  1  0
 26 27  1  0
 27 28  1  0
 27 32  2  0
 28 29  2  0
 29 30  1  0
 31 30  2  0
 32 31  1  0
 33 35  1  0
 34 33  2  0
M  END
$$$$
