WSW.pdb
     RDKit          3D

 35 38  0  0  1  0  0  0  0  0999 V2000
   23.5072  -18.1907  -17.4327 N   0  0  0  0  0  0  0  0  0  0  0  0
   24.2318  -18.2822  -16.2477 C   0  0  1  0  0  0  0  0  0  0  0  0
   23.3728  -18.1776  -15.0254 C   0  0  0  0  0  0  0  0  0  0  0  0
   22.3215  -17.1610  -15.0753 C   0  0  0  0  0  0  0  0  0  0  0  0
   20.9674  -17.3213  -15.1353 C   0  0  0  0  0  0  0  0  0  0  0  0
   20.3454  -16.1132  -15.1594 N   0  0  0  0  0  0  0  0  0  0  0  0
   21.3084  -15.1803  -15.1155 C   0  0  0  0  0  0  0  0  0  0  0  0
   21.2238  -13.7813  -15.1142 C   0  0  0  0  0  0  0  0  0  0  0  0
   22.3892  -13.0076  -15.0601 C   0  0  0  0  0  0  0  0  0  0  0  0
   23.6201  -13.6344  -15.0068 C   0  0  0  0  0  0  0  0  0  0  0  0
   23.6602  -15.0052  -15.0101 C   0  0  0  0  0  0  0  0  0  0  0  0
   22.5366  -15.8050  -15.0629 C   0  0  0  0  0  0  0  0  0  0  0  0
   25.2262  -19.4062  -16.1326 C   0  0  0  0  0  0  0  0  0  0  0  0
   24.7361  -20.5584  -16.3019 O   0  0  0  0  0  0  0  0  0  0  0  0
   28.8358  -18.1812  -14.5010 O   0  0  0  0  0  0  0  0  0  0  0  0
   28.9060  -19.2776  -15.2782 C   0  0  0  0  0  0  0  0  0  0  0  0
   27.6052  -20.0786  -15.3170 C   0  0  2  0  0  0  0  0  0  0  0  0
   26.5858  -19.2395  -15.8690 N   0  0  0  0  0  0  0  0  0  0  0  0
   27.3474  -20.9345  -14.2028 C   0  0  0  0  0  0  0  0  0  0  0  0
   28.2280  -21.7597  -13.7871 O   0  0  0  0  0  0  0  0  0  0  0  0
   26.1365  -20.9649  -13.4547 N   0  0  0  0  0  0  0  0  0  0  0  0
   25.9477  -21.8855  -12.3769 C   0  0  1  0  0  0  0  0  0  0  0  0
   26.8787  -21.9086  -11.2427 C   0  0  0  0  0  0  0  0  0  0  0  0
   26.6702  -20.9382  -10.1504 C   0  0  0  0  0  0  0  0  0  0  0  0
   25.6247  -20.0851   -9.8652 C   0  0  0  0  0  0  0  0  0  0  0  0
   25.9120  -19.3793   -8.7339 N   0  0  0  0  0  0  0  0  0  0  0  0
   27.1200  -19.7504   -8.2693 C   0  0  0  0  0  0  0  0  0  0  0  0
   27.8814  -19.3925   -7.1752 C   0  0  0  0  0  0  0  0  0  0  0  0
   29.1043  -19.9871   -6.9510 C   0  0  0  0  0  0  0  0  0  0  0  0
   29.6178  -20.9496   -7.7949 C   0  0  0  0  0  0  0  0  0  0  0  0
   28.8285  -21.2990   -8.9025 C   0  0  0  0  0  0  0  0  0  0  0  0
   27.6048  -20.7084   -9.1301 C   0  0  0  0  0  0  0  0  0  0  0  0
   24.5527  -21.6581  -11.8451 C   0  0  0  0  0  0  0  0  0  0  0  0
   23.9156  -20.6079  -12.1505 O   0  0  0  0  0  0  0  0  0  0  0  0
   23.9262  -22.5742  -11.0180 O   0  0  0  0  0  0  0  0  0  0  0  0
  2  3  1  0
  2  1  1  6
  4  5  2  0
  4  3  1  0
  6  5  1  0
  7 12  2  0
  7  6  1  0
  8  7  1  0
  9 10  1  0
  9  8  2  0
 10 11  2  0
 11 12  1  0
 12  4  1  0
 13  2  1  0
 14 13  2  0
 16 15  1  0
 17 16  1  1
 17 18  1  0
 18 13  1  0
 19 17  1  0
 19 21  1  0
 20 19  2  0
 22 23  1  1
 22 33  1  0
 22 21  1  0
 24 23  1  0
 24 32  1  0
 25 24  2  0
 26 25  1  0
 26 27  1  0
 27 28  1  0
 27 32  2  0
 28 29  2  0
 29 30  1  0
 31 30  2  0
 32 31  1  0
 33 35  1  0
 34 33  2  0
M  END
$$$$
