WSW.pdb
     RDKit          3D

 35 38  0  0  1  0  0  0  0  0999 V2000
   25.3571  -19.1082  -18.2845 N   0  0  0  0  0  0  0  0  0  0  0  0
   25.0760  -18.7664  -16.9647 C   0  0  1  0  0  0  0  0  0  0  0  0
   25.1985  -17.2974  -16.7004 C   0  0  0  0  0  0  0  0  0  0  0  0
   26.4513  -16.6782  -17.1343 C   0  0  0  0  0  0  0  0  0  0  0  0
   26.6472  -15.6354  -17.9927 C   0  0  0  0  0  0  0  0  0  0  0  0
   27.9732  -15.3659  -18.1200 N   0  0  0  0  0  0  0  0  0  0  0  0
   28.6236  -16.2420  -17.3396 C   0  0  0  0  0  0  0  0  0  0  0  0
   29.9944  -16.4064  -17.0986 C   0  0  0  0  0  0  0  0  0  0  0  0
   30.4388  -17.4074  -16.2267 C   0  0  0  0  0  0  0  0  0  0  0  0
   29.5157  -18.2285  -15.6066 C   0  0  0  0  0  0  0  0  0  0  0  0
   28.1836  -18.0353  -15.8689 C   0  0  0  0  0  0  0  0  0  0  0  0
   27.7033  -17.0618  -16.7211 C   0  0  0  0  0  0  0  0  0  0  0  0
   23.8230  -19.3370  -16.3566 C   0  0  0  0  0  0  0  0  0  0  0  0
   22.7792  -19.1621  -17.0468 O   0  0  0  0  0  0  0  0  0  0  0  0
   23.7324  -20.6117  -12.1660 O   0  0  0  0  0  0  0  0  0  0  0  0
   23.3337  -21.3636  -13.2085 C   0  0  0  0  0  0  0  0  0  0  0  0
   22.7084  -20.5493  -14.3403 C   0  0  2  0  0  0  0  0  0  0  0  0
   23.7693  -20.0158  -15.1391 N   0  0  0  0  0  0  0  0  0  0  0  0
   21.5578  -19.7707  -14.0084 C   0  0  0  0  0  0  0  0  0  0  0  0
   21.6699  -18.5594  -13.6220 O   0  0  0  0  0  0  0  0  0  0  0  0
   20.2114  -20.2291  -14.0705 N   0  0  0  0  0  0  0  0  0  0  0  0
   19.1110  -19.3487  -13.8281 C   0  0  1  0  0  0  0  0  0  0  0  0
   18.7546  -18.3123  -14.8041 C   0  0  0  0  0  0  0  0  0  0  0  0
   18.4305  -18.7338  -16.1808 C   0  0  0  0  0  0  0  0  0  0  0  0
   17.4525  -19.5677  -16.6813 C   0  0  0  0  0  0  0  0  0  0  0  0
   17.5712  -19.6415  -18.0381 N   0  0  0  0  0  0  0  0  0  0  0  0
   18.6024  -18.8746  -18.4397 C   0  0  0  0  0  0  0  0  0  0  0  0
   19.1495  -18.5646  -19.6684 C   0  0  0  0  0  0  0  0  0  0  0  0
   20.2207  -17.7023  -19.7581 C   0  0  0  0  0  0  0  0  0  0  0  0
   20.7889  -17.1197  -18.6445 C   0  0  0  0  0  0  0  0  0  0  0  0
   20.2187  -17.4486  -17.4042 C   0  0  0  0  0  0  0  0  0  0  0  0
   19.1467  -18.3089  -17.3094 C   0  0  0  0  0  0  0  0  0  0  0  0
   17.8987  -20.2171  -13.5895 C   0  0  0  0  0  0  0  0  0  0  0  0
   17.9656  -21.4692  -13.7621 O   0  0  0  0  0  0  0  0  0  0  0  0
   16.6880  -19.6871  -13.1784 O   0  0  0  0  0  0  0  0  0  0  0  0
  2  3  1  0
  2  1  1  6
  4  5  2  0
  4  3  1  0
  6  5  1  0
  7 12  2  0
  7  6  1  0
  8  7  1  0
  9 10  1  0
  9  8  2  0
 10 11  2  0
 11 12  1  0
 12  4  1  0
 13  2  1  0
 14 13  2  0
 16 15  1  0
 17 16  1  1
 17 18  1  0
 18 13  1  0
 19 17  1  0
 19 21  1  0
 20 19  2  0
 22 23  1  6
 22 33  1  0
 22 21  1  0
 24 23  1  0
 24 32  1  0
 25 24  2  0
 26 25  1  0
 26 27  1  0
 27 28  1  0
 27 32  2  0
 28 29  2  0
 29 30  1  0
 31 30  2  0
 32 31  1  0
 33 35  1  0
 34 33  2  0
M  END
$$$$
