WSW.pdb
     RDKit          3D

 35 38  0  0  1  0  0  0  0  0999 V2000
   17.1588  -24.5036  -17.1249 N   0  0  0  0  0  0  0  0  0  0  0  0
   16.0043  -23.7445  -16.9559 C   0  0  1  0  0  0  0  0  0  0  0  0
   14.9432  -24.4565  -16.1751 C   0  0  0  0  0  0  0  0  0  0  0  0
   14.5983  -25.7965  -16.6512 C   0  0  0  0  0  0  0  0  0  0  0  0
   15.0864  -27.0070  -16.2521 C   0  0  0  0  0  0  0  0  0  0  0  0
   14.4923  -28.0127  -16.9468 N   0  0  0  0  0  0  0  0  0  0  0  0
   13.6229  -27.4391  -17.7922 C   0  0  0  0  0  0  0  0  0  0  0  0
   12.7528  -28.0091  -18.7315 C   0  0  0  0  0  0  0  0  0  0  0  0
   11.9262  -27.1903  -19.5100 C   0  0  0  0  0  0  0  0  0  0  0  0
   11.9750  -25.8190  -19.3430 C   0  0  0  0  0  0  0  0  0  0  0  0
   12.8399  -25.3005  -18.4135 C   0  0  0  0  0  0  0  0  0  0  0  0
   13.6716  -26.0710  -17.6265 C   0  0  0  0  0  0  0  0  0  0  0  0
   16.1757  -22.3232  -16.4911 C   0  0  0  0  0  0  0  0  0  0  0  0
   16.9118  -22.1903  -15.4728 O   0  0  0  0  0  0  0  0  0  0  0  0
   13.9657  -19.1009  -18.4511 O   0  0  0  0  0  0  0  0  0  0  0  0
   15.2694  -19.0680  -18.1185 C   0  0  0  0  0  0  0  0  0  0  0  0
   15.5835  -19.8095  -16.8199 C   0  0  2  0  0  0  0  0  0  0  0  0
   15.5962  -21.2121  -17.1039 N   0  0  0  0  0  0  0  0  0  0  0  0
   14.9889  -19.2930  -15.6283 C   0  0  0  0  0  0  0  0  0  0  0  0
   13.9481  -19.8322  -15.1231 O   0  0  0  0  0  0  0  0  0  0  0  0
   15.4661  -18.1711  -14.8931 N   0  0  0  0  0  0  0  0  0  0  0  0
   14.8871  -17.7986  -13.6398 C   0  0  1  0  0  0  0  0  0  0  0  0
   15.7325  -17.3231  -12.5385 C   0  0  0  0  0  0  0  0  0  0  0  0
   16.8573  -16.4240  -12.8617 C   0  0  0  0  0  0  0  0  0  0  0  0
   16.9104  -15.0666  -13.1008 C   0  0  0  0  0  0  0  0  0  0  0  0
   18.1989  -14.7030  -13.3617 N   0  0  0  0  0  0  0  0  0  0  0  0
   18.9924  -15.7889  -13.2976 C   0  0  0  0  0  0  0  0  0  0  0  0
   20.3481  -15.9999  -13.4471 C   0  0  0  0  0  0  0  0  0  0  0  0
   20.8795  -17.2620  -13.2923 C   0  0  0  0  0  0  0  0  0  0  0  0
   20.0961  -18.3556  -12.9880 C   0  0  0  0  0  0  0  0  0  0  0  0
   18.7196  -18.1203  -12.8410 C   0  0  0  0  0  0  0  0  0  0  0  0
   18.1838  -16.8601  -12.9933 C   0  0  0  0  0  0  0  0  0  0  0  0
   13.8472  -16.7437  -13.9334 C   0  0  0  0  0  0  0  0  0  0  0  0
   13.9365  -16.0308  -14.9755 O   0  0  0  0  0  0  0  0  0  0  0  0
   12.7732  -16.5196  -13.0896 O   0  0  0  0  0  0  0  0  0  0  0  0
  2  3  1  0
  2  1  1  1
  4  5  2  0
  4  3  1  0
  6  5  1  0
  7 12  2  0
  7  6  1  0
  8  7  1  0
  9 10  1  0
  9  8  2  0
 10 11  2  0
 11 12  1  0
 12  4  1  0
 13  2  1  0
 14 13  2  0
 16 15  1  0
 17 16  1  6
 17 18  1  0
 18 13  1  0
 19 17  1  0
 19 21  1  0
 20 19  2  0
 22 23  1  1
 22 33  1  0
 22 21  1  0
 24 23  1  0
 24 32  1  0
 25 24  2  0
 26 25  1  0
 26 27  1  0
 27 28  1  0
 27 32  2  0
 28 29  2  0
 29 30  1  0
 31 30  2  0
 32 31  1  0
 33 35  1  0
 34 33  2  0
M  END
$$$$
