WSW.pdb
     RDKit          3D

 35 38  0  0  1  0  0  0  0  0999 V2000
   28.4702  -19.8141  -18.8833 N   0  0  0  0  0  0  0  0  0  0  0  0
   27.7697  -20.4668  -17.8728 C   0  0  1  0  0  0  0  0  0  0  0  0
   27.3070  -21.8348  -18.2692 C   0  0  0  0  0  0  0  0  0  0  0  0
   26.4181  -21.8910  -19.4301 C   0  0  0  0  0  0  0  0  0  0  0  0
   26.5132  -22.6593  -20.5542 C   0  0  0  0  0  0  0  0  0  0  0  0
   25.4715  -22.4104  -21.3908 N   0  0  0  0  0  0  0  0  0  0  0  0
   24.7109  -21.4788  -20.7964 C   0  0  0  0  0  0  0  0  0  0  0  0
   23.5230  -20.8661  -21.2181 C   0  0  0  0  0  0  0  0  0  0  0  0
   22.9024  -19.9069  -20.4091 C   0  0  0  0  0  0  0  0  0  0  0  0
   23.4696  -19.5719  -19.1939 C   0  0  0  0  0  0  0  0  0  0  0  0
   24.6324  -20.1941  -18.8175 C   0  0  0  0  0  0  0  0  0  0  0  0
   25.2765  -21.1438  -19.5843 C   0  0  0  0  0  0  0  0  0  0  0  0
   28.3815  -20.4646  -16.4976 C   0  0  0  0  0  0  0  0  0  0  0  0
   29.6080  -20.1625  -16.4704 O   0  0  0  0  0  0  0  0  0  0  0  0
   26.6709  -18.1243  -14.1417 O   0  0  0  0  0  0  0  0  0  0  0  0
   27.8622  -18.7423  -14.0406 C   0  0  0  0  0  0  0  0  0  0  0  0
   27.7527  -20.2653  -13.9792 C   0  0  2  0  0  0  0  0  0  0  0  0
   27.6915  -20.7583  -15.3213 N   0  0  0  0  0  0  0  0  0  0  0  0
   26.9291  -20.8064  -12.9453 C   0  0  0  0  0  0  0  0  0  0  0  0
   25.7632  -21.2596  -13.1997 O   0  0  0  0  0  0  0  0  0  0  0  0
   27.2942  -20.9051  -11.5728 N   0  0  0  0  0  0  0  0  0  0  0  0
   26.4462  -21.5501  -10.6191 C   0  0  1  0  0  0  0  0  0  0  0  0
   26.8834  -21.7257   -9.2292 C   0  0  0  0  0  0  0  0  0  0  0  0
   26.8524  -20.5517   -8.3354 C   0  0  0  0  0  0  0  0  0  0  0  0
   25.9975  -19.4716   -8.2652 C   0  0  0  0  0  0  0  0  0  0  0  0
   26.3964  -18.6433   -7.2576 N   0  0  0  0  0  0  0  0  0  0  0  0
   27.4912  -19.1551   -6.6641 C   0  0  0  0  0  0  0  0  0  0  0  0
   28.2836  -18.7624   -5.6044 C   0  0  0  0  0  0  0  0  0  0  0  0
   29.3528  -19.5360   -5.2078 C   0  0  0  0  0  0  0  0  0  0  0  0
   29.6780  -20.7177   -5.8404 C   0  0  0  0  0  0  0  0  0  0  0  0
   28.8605  -21.0992   -6.9165 C   0  0  0  0  0  0  0  0  0  0  0  0
   27.7896  -20.3299   -7.3159 C   0  0  0  0  0  0  0  0  0  0  0  0
   25.1371  -20.7971  -10.6162 C   0  0  0  0  0  0  0  0  0  0  0  0
   25.0925  -19.5914  -10.9986 O   0  0  0  0  0  0  0  0  0  0  0  0
   23.9545  -21.3864  -10.2036 O   0  0  0  0  0  0  0  0  0  0  0  0
  2  3  1  0
  2  1  1  6
  4  5  2  0
  4  3  1  0
  6  5  1  0
  7 12  2  0
  7  6  1  0
  8  7  1  0
  9 10  1  0
  9  8  2  0
 10 11  2  0
 11 12  1  0
 12  4  1  0
 13  2  1  0
 14 13  2  0
 16 15  1  0
 17 16  1  6
 17 18  1  0
 18 13  1  0
 19 17  1  0
 19 21  1  0
 20 19  2  0
 22 23  1  1
 22 33  1  0
 22 21  1  0
 24 23  1  0
 24 32  1  0
 25 24  2  0
 26 25  1  0
 26 27  1  0
 27 28  1  0
 27 32  2  0
 28 29  2  0
 29 30  1  0
 31 30  2  0
 32 31  1  0
 33 35  1  0
 34 33  2  0
M  END
$$$$
