WSW.pdb
     RDKit          3D

 35 38  0  0  1  0  0  0  0  0999 V2000
   27.0079  -19.6779  -12.4259 N   0  0  0  0  0  0  0  0  0  0  0  0
   26.3351  -20.8965  -12.4168 C   0  0  1  0  0  0  0  0  0  0  0  0
   25.8641  -21.2962  -11.0526 C   0  0  0  0  0  0  0  0  0  0  0  0
   26.5563  -20.6594   -9.9317 C   0  0  0  0  0  0  0  0  0  0  0  0
   26.0941  -19.7272   -9.0485 C   0  0  0  0  0  0  0  0  0  0  0  0
   27.0604  -19.4021   -8.1498 N   0  0  0  0  0  0  0  0  0  0  0  0
   28.1425  -20.1303   -8.4636 C   0  0  0  0  0  0  0  0  0  0  0  0
   29.4088  -20.1864   -7.8657 C   0  0  0  0  0  0  0  0  0  0  0  0
   30.3911  -21.0406   -8.3810 C   0  0  0  0  0  0  0  0  0  0  0  0
   30.1007  -21.8264   -9.4804 C   0  0  0  0  0  0  0  0  0  0  0  0
   28.8498  -21.7422  -10.0364 C   0  0  0  0  0  0  0  0  0  0  0  0
   27.8535  -20.9141   -9.5606 C   0  0  0  0  0  0  0  0  0  0  0  0
   25.2651  -21.1010  -13.4554 C   0  0  0  0  0  0  0  0  0  0  0  0
   24.5553  -20.0810  -13.6840 O   0  0  0  0  0  0  0  0  0  0  0  0
   24.4953  -25.0965  -14.1644 O   0  0  0  0  0  0  0  0  0  0  0  0
   24.2730  -24.2904  -15.2190 C   0  0  0  0  0  0  0  0  0  0  0  0
   23.9168  -22.8579  -14.8238 C   0  0  2  0  0  0  0  0  0  0  0  0
   25.0412  -22.2957  -14.1400 N   0  0  0  0  0  0  0  0  0  0  0  0
   22.5794  -22.6314  -14.3763 C   0  0  0  0  0  0  0  0  0  0  0  0
   22.2403  -22.8613  -13.1674 O   0  0  0  0  0  0  0  0  0  0  0  0
   21.5157  -22.1406  -15.1853 N   0  0  0  0  0  0  0  0  0  0  0  0
   20.2096  -21.9184  -14.6472 C   0  0  1  0  0  0  0  0  0  0  0  0
   19.8825  -20.6535  -13.9788 C   0  0  0  0  0  0  0  0  0  0  0  0
   20.5768  -19.4299  -14.4249 C   0  0  0  0  0  0  0  0  0  0  0  0
   21.1871  -19.1016  -15.6174 C   0  0  0  0  0  0  0  0  0  0  0  0
   21.6936  -17.8379  -15.5339 N   0  0  0  0  0  0  0  0  0  0  0  0
   21.4285  -17.3288  -14.3160 C   0  0  0  0  0  0  0  0  0  0  0  0
   21.6779  -16.1167  -13.7048 C   0  0  0  0  0  0  0  0  0  0  0  0
   21.2455  -15.8819  -12.4175 C   0  0  0  0  0  0  0  0  0  0  0  0
   20.5570  -16.8302  -11.6903 C   0  0  0  0  0  0  0  0  0  0  0  0
   20.3142  -18.0568  -12.3293 C   0  0  0  0  0  0  0  0  0  0  0  0
   20.7431  -18.2958  -13.6166 C   0  0  0  0  0  0  0  0  0  0  0  0
   19.2285  -22.1299  -15.7756 C   0  0  0  0  0  0  0  0  0  0  0  0
   19.6336  -22.1804  -16.9737 O   0  0  0  0  0  0  0  0  0  0  0  0
   17.8710  -22.2757  -15.5477 O   0  0  0  0  0  0  0  0  0  0  0  0
  2  3  1  0
  2  1  1  1
  4  5  2  0
  4  3  1  0
  6  5  1  0
  7 12  2  0
  7  6  1  0
  8  7  1  0
  9 10  1  0
  9  8  2  0
 10 11  2  0
 11 12  1  0
 12  4  1  0
 13  2  1  0
 14 13  2  0
 16 15  1  0
 17 16  1  1
 17 18  1  0
 18 13  1  0
 19 17  1  0
 19 21  1  0
 20 19  2  0
 22 23  1  6
 22 33  1  0
 22 21  1  0
 24 23  1  0
 24 32  1  0
 25 24  2  0
 26 25  1  0
 26 27  1  0
 27 28  1  0
 27 32  2  0
 28 29  2  0
 29 30  1  0
 31 30  2  0
 32 31  1  0
 33 35  1  0
 34 33  2  0
M  END
$$$$
