WSW.pdb
     RDKit          3D

 35 38  0  0  1  0  0  0  0  0999 V2000
   13.6142  -25.2002  -17.5339 N   0  0  0  0  0  0  0  0  0  0  0  0
   14.6113  -25.2454  -16.5636 C   0  0  1  0  0  0  0  0  0  0  0  0
   15.0732  -23.8873  -16.1337 C   0  0  0  0  0  0  0  0  0  0  0  0
   15.4109  -22.9614  -17.2152 C   0  0  0  0  0  0  0  0  0  0  0  0
   14.6846  -21.9223  -17.7208 C   0  0  0  0  0  0  0  0  0  0  0  0
   15.3669  -21.3069  -18.7221 N   0  0  0  0  0  0  0  0  0  0  0  0
   16.5322  -21.9583  -18.8546 C   0  0  0  0  0  0  0  0  0  0  0  0
   17.6042  -21.7408  -19.7308 C   0  0  0  0  0  0  0  0  0  0  0  0
   18.7336  -22.5662  -19.6767 C   0  0  0  0  0  0  0  0  0  0  0  0
   18.7819  -23.5934  -18.7530 C   0  0  0  0  0  0  0  0  0  0  0  0
   17.7124  -23.7731  -17.9135 C   0  0  0  0  0  0  0  0  0  0  0  0
   16.5807  -22.9835  -17.9338 C   0  0  0  0  0  0  0  0  0  0  0  0
   14.3855  -26.1537  -15.3849 C   0  0  0  0  0  0  0  0  0  0  0  0
   13.3184  -25.9286  -14.7469 O   0  0  0  0  0  0  0  0  0  0  0  0
   17.6104  -28.5164  -13.6460 O   0  0  0  0  0  0  0  0  0  0  0  0
   16.4604  -29.0423  -14.1067 C   0  0  0  0  0  0  0  0  0  0  0  0
   15.2545  -28.1225  -13.9200 C   0  0  2  0  0  0  0  0  0  0  0  0
   15.2497  -27.1767  -14.9939 N   0  0  0  0  0  0  0  0  0  0  0  0
   14.9472  -27.7344  -12.5801 C   0  0  0  0  0  0  0  0  0  0  0  0
   15.3002  -26.5950  -12.1258 O   0  0  0  0  0  0  0  0  0  0  0  0
   14.2397  -28.5322  -11.6368 N   0  0  0  0  0  0  0  0  0  0  0  0
   13.7904  -27.9929  -10.3910 C   0  0  1  0  0  0  0  0  0  0  0  0
   12.4283  -27.4639  -10.2540 C   0  0  0  0  0  0  0  0  0  0  0  0
   11.3313  -28.4197  -10.0072 C   0  0  0  0  0  0  0  0  0  0  0  0
   11.1239  -29.3427   -9.0034 C   0  0  0  0  0  0  0  0  0  0  0  0
    9.9473  -29.9961   -9.2253 N   0  0  0  0  0  0  0  0  0  0  0  0
    9.3772  -29.5226  -10.3493 C   0  0  0  0  0  0  0  0  0  0  0  0
    8.2016  -29.7940  -11.0198 C   0  0  0  0  0  0  0  0  0  0  0  0
    7.8764  -29.1026  -12.1666 C   0  0  0  0  0  0  0  0  0  0  0  0
    8.6958  -28.1251  -12.6914 C   0  0  0  0  0  0  0  0  0  0  0  0
    9.8873  -27.8646  -11.9953 C   0  0  0  0  0  0  0  0  0  0  0  0
   10.2162  -28.5521  -10.8476 C   0  0  0  0  0  0  0  0  0  0  0  0
   13.9921  -29.0677   -9.3495 C   0  0  0  0  0  0  0  0  0  0  0  0
   14.2777  -30.2504   -9.6986 O   0  0  0  0  0  0  0  0  0  0  0  0
   13.8760  -28.8059   -7.9953 O   0  0  0  0  0  0  0  0  0  0  0  0
  2  3  1  0
  2  1  1  1
  4  5  2  0
  4  3  1  0
  6  5  1  0
  7 12  2  0
  7  6  1  0
  8  7  1  0
  9 10  1  0
  9  8  2  0
 10 11  2  0
 11 12  1  0
 12  4  1  0
 13  2  1  0
 14 13  2  0
 16 15  1  0
 17 16  1  1
 17 18  1  0
 18 13  1  0
 19 17  1  0
 19 21  1  0
 20 19  2  0
 22 23  1  6
 22 33  1  0
 22 21  1  0
 24 23  1  0
 24 32  1  0
 25 24  2  0
 26 25  1  0
 26 27  1  0
 27 28  1  0
 27 32  2  0
 28 29  2  0
 29 30  1  0
 31 30  2  0
 32 31  1  0
 33 35  1  0
 34 33  2  0
M  END
$$$$
