KNL.pdb
     RDKit          3D

 26 25  0  0  1  0  0  0  0  0999 V2000
    8.9911  -12.5448   20.4619 N   0  0  0  0  0  0  0  0  0  0  0  0
    7.7561  -13.2435   20.4338 C   0  0  1  0  0  0  0  0  0  0  0  0
    7.2661  -13.6580   19.0595 C   0  0  0  0  0  0  0  0  0  0  0  0
    8.3052  -14.1770   18.1360 C   0  0  0  0  0  0  0  0  0  0  0  0
    7.7864  -14.5977   16.8104 C   0  0  0  0  0  0  0  0  0  0  0  0
    8.8393  -15.0850   15.8857 C   0  0  0  0  0  0  0  0  0  0  0  0
    8.4269  -15.5242   14.5927 N   0  0  0  0  0  0  0  0  0  0  0  0
    7.9010  -14.5197   21.1984 C   0  0  0  0  0  0  0  0  0  0  0  0
    6.9387  -15.3110   21.2100 O   0  0  0  0  0  0  0  0  0  0  0  0
   11.1519  -17.2044   19.7014 N   0  0  0  0  0  0  0  0  0  0  0  0
   10.3066  -17.4276   20.8407 C   0  0  0  0  0  0  0  0  0  0  0  0
    9.3491  -18.2343   20.7661 O   0  0  0  0  0  0  0  0  0  0  0  0
   10.6423  -16.6596   22.0719 C   0  0  0  0  0  0  0  0  0  0  0  0
    9.3658  -16.0049   22.5704 C   0  0  2  0  0  0  0  0  0  0  0  0
    9.1281  -14.7498   21.8644 N   0  0  0  0  0  0  0  0  0  0  0  0
    9.5751  -15.6487   23.9972 C   0  0  0  0  0  0  0  0  0  0  0  0
   10.7130  -15.2373   24.4012 O   0  0  0  0  0  0  0  0  0  0  0  0
    5.8499  -13.0401   26.3537 C   0  0  0  0  0  0  0  0  0  0  0  0
    7.2629  -13.4401   26.0632 C   0  0  1  0  0  0  0  0  0  0  0  0
    8.1749  -12.2169   26.2078 C   0  0  0  0  0  0  0  0  0  0  0  0
    7.7327  -14.5908   26.8314 C   0  0  0  0  0  0  0  0  0  0  0  0
    8.8822  -15.4245   26.4319 C   0  0  2  0  0  0  0  0  0  0  0  0
    8.5883  -15.7261   24.9839 N   0  0  0  0  0  0  0  0  0  0  0  0
    9.0868  -16.6635   27.1413 C   0  0  0  0  0  0  0  0  0  0  0  0
    9.6937  -16.6118   28.4356 O   0  0  0  0  0  0  0  0  0  0  0  0
    8.8039  -17.8304   26.7856 O   0  0  0  0  0  0  0  0  0  0  0  0
  2  1  1  6
  2  3  1  0
  3  4  1  0
  5  6  1  0
  5  4  1  0
  7  6  1  0
  8  2  1  0
  9  8  2  0
 10 11  1  0
 11 13  1  0
 12 11  2  0
 14 13  1  6
 14 15  1  0
 15  8  1  0
 16 14  1  0
 16 17  2  0
 19 21  1  0
 19 18  1  1
 20 19  1  0
 22 21  1  1
 22 23  1  0
 23 16  1  0
 24 22  1  0
 25 24  1  0
 26 24  2  0
M  END
$$$$
