KNL.pdb
     RDKit          3D

 26 25  0  0  1  0  0  0  0  0999 V2000
    9.9897  -13.2489   19.6702 N   0  0  0  0  0  0  0  0  0  0  0  0
    8.5828  -13.1355   19.8183 C   0  0  1  0  0  0  0  0  0  0  0  0
    7.7726  -13.2970   18.5462 C   0  0  0  0  0  0  0  0  0  0  0  0
    8.3023  -14.2777   17.5668 C   0  0  0  0  0  0  0  0  0  0  0  0
    7.9217  -13.9988   16.1593 C   0  0  0  0  0  0  0  0  0  0  0  0
    8.4052  -15.0200   15.1978 C   0  0  0  0  0  0  0  0  0  0  0  0
    8.0068  -14.8808   13.8352 N   0  0  0  0  0  0  0  0  0  0  0  0
    8.1001  -14.2179   20.7292 C   0  0  0  0  0  0  0  0  0  0  0  0
    6.8707  -14.3656   20.8674 O   0  0  0  0  0  0  0  0  0  0  0  0
    8.1717  -19.2015   23.0159 N   0  0  0  0  0  0  0  0  0  0  0  0
    9.3263  -18.3496   22.9584 C   0  0  0  0  0  0  0  0  0  0  0  0
   10.2152  -18.4333   23.8394 O   0  0  0  0  0  0  0  0  0  0  0  0
    9.3872  -17.3972   21.8150 C   0  0  0  0  0  0  0  0  0  0  0  0
    8.6758  -16.1233   22.2365 C   0  0  2  0  0  0  0  0  0  0  0  0
    9.0747  -15.0104   21.3806 N   0  0  0  0  0  0  0  0  0  0  0  0
    9.1409  -15.7850   23.6059 C   0  0  0  0  0  0  0  0  0  0  0  0
   10.0721  -14.9307   23.7805 O   0  0  0  0  0  0  0  0  0  0  0  0
    5.8359  -12.8681   25.6697 C   0  0  0  0  0  0  0  0  0  0  0  0
    7.2298  -13.4140   25.6841 C   0  0  1  0  0  0  0  0  0  0  0  0
    8.0987  -12.5585   26.6126 C   0  0  0  0  0  0  0  0  0  0  0  0
    7.3139  -14.8413   25.9855 C   0  0  0  0  0  0  0  0  0  0  0  0
    8.5861  -15.5822   26.0776 C   0  0  2  0  0  0  0  0  0  0  0  0
    8.6229  -16.3448   24.7771 N   0  0  0  0  0  0  0  0  0  0  0  0
    8.7419  -16.5074   27.1732 C   0  0  0  0  0  0  0  0  0  0  0  0
    9.4552  -16.0705   28.3336 O   0  0  0  0  0  0  0  0  0  0  0  0
    8.3324  -17.6866   27.2723 O   0  0  0  0  0  0  0  0  0  0  0  0
  2  1  1  6
  2  3  1  0
  3  4  1  0
  5  6  1  0
  5  4  1  0
  7  6  1  0
  8  2  1  0
  9  8  2  0
 10 11  1  0
 11 13  1  0
 12 11  2  0
 14 13  1  6
 14 15  1  0
 15  8  1  0
 16 14  1  0
 16 17  2  0
 19 21  1  0
 19 18  1  1
 20 19  1  0
 22 21  1  1
 22 23  1  0
 23 16  1  0
 24 22  1  0
 25 24  1  0
 26 24  2  0
M  END
$$$$
