KNL.pdb
     RDKit          3D

 26 25  0  0  1  0  0  0  0  0999 V2000
    9.1655  -15.0988   18.9451 N   0  0  0  0  0  0  0  0  0  0  0  0
    7.9573  -14.9815   19.6805 C   0  0  1  0  0  0  0  0  0  0  0  0
    6.7367  -15.6202   19.0460 C   0  0  0  0  0  0  0  0  0  0  0  0
    6.9183  -17.0099   18.5586 C   0  0  0  0  0  0  0  0  0  0  0  0
    7.5666  -17.1083   17.2269 C   0  0  0  0  0  0  0  0  0  0  0  0
    7.5898  -18.4855   16.6757 C   0  0  0  0  0  0  0  0  0  0  0  0
    8.3067  -18.6953   15.4604 N   0  0  0  0  0  0  0  0  0  0  0  0
    8.1195  -15.6709   20.9968 C   0  0  0  0  0  0  0  0  0  0  0  0
    7.1153  -15.7939   21.7240 O   0  0  0  0  0  0  0  0  0  0  0  0
   10.7681  -19.7656   23.8100 N   0  0  0  0  0  0  0  0  0  0  0  0
   11.1440  -18.3804   23.7628 C   0  0  0  0  0  0  0  0  0  0  0  0
   11.6184  -17.8215   24.7806 O   0  0  0  0  0  0  0  0  0  0  0  0
   10.9383  -17.6849   22.4619 C   0  0  0  0  0  0  0  0  0  0  0  0
    9.6153  -16.9430   22.5389 C   0  0  2  0  0  0  0  0  0  0  0  0
    9.4098  -16.1426   21.3359 N   0  0  0  0  0  0  0  0  0  0  0  0
    9.7073  -15.9833   23.6688 C   0  0  0  0  0  0  0  0  0  0  0  0
   10.5158  -14.9979   23.6166 O   0  0  0  0  0  0  0  0  0  0  0  0
    8.2018  -11.9621   26.5369 C   0  0  0  0  0  0  0  0  0  0  0  0
    7.3427  -13.1849   26.6247 C   0  0  1  0  0  0  0  0  0  0  0  0
    5.8766  -12.7892   26.4180 C   0  0  0  0  0  0  0  0  0  0  0  0
    7.7625  -14.2791   25.7520 C   0  0  0  0  0  0  0  0  0  0  0  0
    9.0294  -15.0160   25.9190 C   0  0  2  0  0  0  0  0  0  0  0  0
    8.9490  -16.0664   24.8400 N   0  0  0  0  0  0  0  0  0  0  0  0
    9.2655  -15.6587   27.1885 C   0  0  0  0  0  0  0  0  0  0  0  0
   10.1071  -14.9973   28.1374 O   0  0  0  0  0  0  0  0  0  0  0  0
    8.8298  -16.7548   27.6092 O   0  0  0  0  0  0  0  0  0  0  0  0
  2  1  1  6
  2  3  1  0
  3  4  1  0
  5  6  1  0
  5  4  1  0
  7  6  1  0
  8  2  1  0
  9  8  2  0
 10 11  1  0
 11 13  1  0
 12 11  2  0
 14 13  1  6
 14 15  1  0
 15  8  1  0
 16 14  1  0
 16 17  2  0
 19 21  1  0
 19 18  1  6
 20 19  1  0
 22 21  1  1
 22 23  1  0
 23 16  1  0
 24 22  1  0
 25 24  1  0
 26 24  2  0
M  END
$$$$
