KNL.pdb
     RDKit          3D

 26 25  0  0  1  0  0  0  0  0999 V2000
    8.0261  -15.5350   21.3748 N   0  0  0  0  0  0  0  0  0  0  0  0
    7.2351  -16.7101   21.4616 C   0  0  1  0  0  0  0  0  0  0  0  0
    7.3610  -17.6750   20.2981 C   0  0  0  0  0  0  0  0  0  0  0  0
    8.0808  -17.1571   19.1085 C   0  0  0  0  0  0  0  0  0  0  0  0
    8.1287  -18.1037   17.9660 C   0  0  0  0  0  0  0  0  0  0  0  0
    8.8784  -17.5866   16.7948 C   0  0  0  0  0  0  0  0  0  0  0  0
    9.1635  -18.5034   15.7397 N   0  0  0  0  0  0  0  0  0  0  0  0
    7.6544  -17.4917   22.6648 C   0  0  0  0  0  0  0  0  0  0  0  0
    7.4361  -18.7183   22.6748 O   0  0  0  0  0  0  0  0  0  0  0  0
   12.4191  -17.5911   22.9454 N   0  0  0  0  0  0  0  0  0  0  0  0
   11.8583  -16.2755   22.8142 C   0  0  0  0  0  0  0  0  0  0  0  0
   12.6020  -15.2666   22.8596 O   0  0  0  0  0  0  0  0  0  0  0  0
   10.3829  -16.2032   22.6245 C   0  0  0  0  0  0  0  0  0  0  0  0
    9.7285  -16.7886   23.8638 C   0  0  2  0  0  0  0  0  0  0  0  0
    8.2759  -16.7857   23.7220 N   0  0  0  0  0  0  0  0  0  0  0  0
   10.0393  -15.8852   25.0011 C   0  0  0  0  0  0  0  0  0  0  0  0
   11.2485  -15.6762   25.3498 O   0  0  0  0  0  0  0  0  0  0  0  0
    6.0017  -12.6076   26.4196 C   0  0  0  0  0  0  0  0  0  0  0  0
    7.3356  -13.1205   25.9738 C   0  0  1  0  0  0  0  0  0  0  0  0
    7.9542  -12.1279   24.9834 C   0  0  0  0  0  0  0  0  0  0  0  0
    8.2415  -13.4701   27.0657 C   0  0  0  0  0  0  0  0  0  0  0  0
    9.4586  -14.2842   26.8873 C   0  0  2  0  0  0  0  0  0  0  0  0
    9.0787  -15.2093   25.7587 N   0  0  0  0  0  0  0  0  0  0  0  0
    9.9078  -15.0686   28.0114 C   0  0  0  0  0  0  0  0  0  0  0  0
    9.8108  -16.4932   27.9263 O   0  0  0  0  0  0  0  0  0  0  0  0
   10.3910  -14.6804   29.0995 O   0  0  0  0  0  0  0  0  0  0  0  0
  2  1  1  6
  2  3  1  0
  3  4  1  0
  5  6  1  0
  5  4  1  0
  7  6  1  0
  8  2  1  0
  9  8  2  0
 10 11  1  0
 11 13  1  0
 12 11  2  0
 14 13  1  6
 14 15  1  0
 15  8  1  0
 16 14  1  0
 16 17  2  0
 19 21  1  0
 19 18  1  1
 20 19  1  0
 22 21  1  1
 22 23  1  0
 23 16  1  0
 24 22  1  0
 25 24  1  0
 26 24  2  0
M  END
$$$$
