KNL.pdb
     RDKit          3D

 26 25  0  0  1  0  0  0  0  0999 V2000
    6.6845  -14.5875   21.2468 N   0  0  0  0  0  0  0  0  0  0  0  0
    7.6459  -14.8256   20.2304 C   0  0  1  0  0  0  0  0  0  0  0  0
    8.1863  -13.5911   19.5342 C   0  0  0  0  0  0  0  0  0  0  0  0
    7.5748  -13.2748   18.2197 C   0  0  0  0  0  0  0  0  0  0  0  0
    8.3021  -13.8433   17.0573 C   0  0  0  0  0  0  0  0  0  0  0  0
    7.7037  -13.4865   15.7474 C   0  0  0  0  0  0  0  0  0  0  0  0
    8.2549  -14.1003   14.5837 N   0  0  0  0  0  0  0  0  0  0  0  0
    8.8415  -15.4875   20.8361 C   0  0  0  0  0  0  0  0  0  0  0  0
    9.7380  -15.8950   20.0729 O   0  0  0  0  0  0  0  0  0  0  0  0
   12.0457  -17.7306   22.3181 N   0  0  0  0  0  0  0  0  0  0  0  0
   12.3902  -16.3364   22.3083 C   0  0  0  0  0  0  0  0  0  0  0  0
   13.5650  -15.9798   22.0518 O   0  0  0  0  0  0  0  0  0  0  0  0
   11.2875  -15.3822   22.6113 C   0  0  0  0  0  0  0  0  0  0  0  0
   10.0403  -16.1967   22.9081 C   0  0  2  0  0  0  0  0  0  0  0  0
    8.8798  -15.6104   22.2453 N   0  0  0  0  0  0  0  0  0  0  0  0
    9.7814  -16.0999   24.3675 C   0  0  0  0  0  0  0  0  0  0  0  0
   10.6524  -16.5039   25.2075 O   0  0  0  0  0  0  0  0  0  0  0  0
    6.3600  -12.5105   26.2969 C   0  0  0  0  0  0  0  0  0  0  0  0
    7.5695  -13.3927   26.2931 C   0  0  1  0  0  0  0  0  0  0  0  0
    8.6759  -12.7379   27.1272 C   0  0  0  0  0  0  0  0  0  0  0  0
    7.3070  -14.7754   26.6859 C   0  0  0  0  0  0  0  0  0  0  0  0
    8.1924  -15.9038   26.3411 C   0  0  2  0  0  0  0  0  0  0  0  0
    8.6128  -15.5787   24.9298 N   0  0  0  0  0  0  0  0  0  0  0  0
    7.6265  -17.2301   26.3726 C   0  0  0  0  0  0  0  0  0  0  0  0
    7.4005  -17.8409   27.6461 O   0  0  0  0  0  0  0  0  0  0  0  0
    7.2868  -17.9642   25.4165 O   0  0  0  0  0  0  0  0  0  0  0  0
  2  1  1  1
  2  3  1  0
  3  4  1  0
  5  6  1  0
  5  4  1  0
  7  6  1  0
  8  2  1  0
  9  8  2  0
 10 11  1  0
 11 13  1  0
 12 11  2  0
 14 13  1  1
 14 15  1  0
 15  8  1  0
 16 14  1  0
 16 17  2  0
 19 21  1  0
 19 18  1  1
 20 19  1  0
 22 21  1  6
 22 23  1  0
 23 16  1  0
 24 22  1  0
 25 24  1  0
 26 24  2  0
M  END
$$$$
