KNL.pdb
     RDKit          3D

 26 25  0  0  1  0  0  0  0  0999 V2000
   10.4365  -13.7968   19.6197 N   0  0  0  0  0  0  0  0  0  0  0  0
    9.0823  -13.6813   20.0283 C   0  0  1  0  0  0  0  0  0  0  0  0
    8.0459  -13.9699   18.9591 C   0  0  0  0  0  0  0  0  0  0  0  0
    8.5803  -14.2328   17.6000 C   0  0  0  0  0  0  0  0  0  0  0  0
    7.6924  -13.7824   16.4990 C   0  0  0  0  0  0  0  0  0  0  0  0
    8.2610  -14.0037   15.1466 C   0  0  0  0  0  0  0  0  0  0  0  0
    7.4711  -13.6044   14.0279 N   0  0  0  0  0  0  0  0  0  0  0  0
    8.8139  -14.6758   21.1115 C   0  0  0  0  0  0  0  0  0  0  0  0
    7.6406  -14.8107   21.5085 O   0  0  0  0  0  0  0  0  0  0  0  0
    9.9602  -19.2136   21.3196 N   0  0  0  0  0  0  0  0  0  0  0  0
   10.9445  -18.1730   21.4213 C   0  0  0  0  0  0  0  0  0  0  0  0
   11.7573  -17.9813   20.4854 O   0  0  0  0  0  0  0  0  0  0  0  0
   10.9258  -17.3673   22.6738 C   0  0  0  0  0  0  0  0  0  0  0  0
    9.7147  -16.4526   22.6165 C   0  0  2  0  0  0  0  0  0  0  0  0
    9.9147  -15.4050   21.6202 N   0  0  0  0  0  0  0  0  0  0  0  0
    9.6118  -15.7663   23.9298 C   0  0  0  0  0  0  0  0  0  0  0  0
   10.3949  -14.8017   24.2190 O   0  0  0  0  0  0  0  0  0  0  0  0
    5.8844  -12.7484   25.7654 C   0  0  0  0  0  0  0  0  0  0  0  0
    7.2868  -13.2711   25.7993 C   0  0  1  0  0  0  0  0  0  0  0  0
    8.1622  -12.3185   26.6210 C   0  0  0  0  0  0  0  0  0  0  0  0
    7.4004  -14.6615   26.2339 C   0  0  0  0  0  0  0  0  0  0  0  0
    8.6738  -15.4057   26.2640 C   0  0  2  0  0  0  0  0  0  0  0  0
    8.6874  -16.0979   24.9243 N   0  0  0  0  0  0  0  0  0  0  0  0
    8.8486  -16.3877   27.3058 C   0  0  0  0  0  0  0  0  0  0  0  0
    9.4383  -15.9695   28.5401 O   0  0  0  0  0  0  0  0  0  0  0  0
    8.5517  -17.6043   27.2989 O   0  0  0  0  0  0  0  0  0  0  0  0
  2  1  1  6
  2  3  1  0
  3  4  1  0
  5  6  1  0
  5  4  1  0
  7  6  1  0
  8  2  1  0
  9  8  2  0
 10 11  1  0
 11 13  1  0
 12 11  2  0
 14 13  1  1
 14 15  1  0
 15  8  1  0
 16 14  1  0
 16 17  2  0
 19 21  1  0
 19 18  1  1
 20 19  1  0
 22 21  1  1
 22 23  1  0
 23 16  1  0
 24 22  1  0
 25 24  1  0
 26 24  2  0
M  END
$$$$
