KNL.pdb
     RDKit          3D

 26 25  0  0  1  0  0  0  0  0999 V2000
   10.3277  -14.7142   19.4050 N   0  0  0  0  0  0  0  0  0  0  0  0
    9.3147  -13.8871   19.9563 C   0  0  1  0  0  0  0  0  0  0  0  0
    8.1478  -13.5762   19.0385 C   0  0  0  0  0  0  0  0  0  0  0  0
    8.3120  -13.9963   17.6249 C   0  0  0  0  0  0  0  0  0  0  0  0
    7.2024  -13.5771   16.7324 C   0  0  0  0  0  0  0  0  0  0  0  0
    7.3052  -14.1238   15.3569 C   0  0  0  0  0  0  0  0  0  0  0  0
    8.4220  -13.7156   14.5689 N   0  0  0  0  0  0  0  0  0  0  0  0
    8.7107  -14.5777   21.1363 C   0  0  0  0  0  0  0  0  0  0  0  0
    7.6963  -14.0748   21.6564 O   0  0  0  0  0  0  0  0  0  0  0  0
    9.6561  -19.3678   20.7333 N   0  0  0  0  0  0  0  0  0  0  0  0
    8.7399  -18.7045   21.6182 C   0  0  0  0  0  0  0  0  0  0  0  0
    7.5033  -18.7996   21.4312 O   0  0  0  0  0  0  0  0  0  0  0  0
    9.3467  -17.9271   22.7343 C   0  0  0  0  0  0  0  0  0  0  0  0
    8.7587  -16.5273   22.6953 C   0  0  2  0  0  0  0  0  0  0  0  0
    9.3322  -15.7649   21.5907 N   0  0  0  0  0  0  0  0  0  0  0  0
    9.1742  -15.8343   23.9416 C   0  0  0  0  0  0  0  0  0  0  0  0
   10.3845  -15.4654   24.1043 O   0  0  0  0  0  0  0  0  0  0  0  0
    5.6542  -12.5317   26.2745 C   0  0  0  0  0  0  0  0  0  0  0  0
    6.9903  -13.0045   25.7925 C   0  0  1  0  0  0  0  0  0  0  0  0
    7.9030  -11.7947   25.5641 C   0  0  0  0  0  0  0  0  0  0  0  0
    7.6062  -14.0277   26.6343 C   0  0  0  0  0  0  0  0  0  0  0  0
    8.7929  -14.8075   26.2348 C   0  0  2  0  0  0  0  0  0  0  0  0
    8.3154  -15.5339   25.0026 N   0  0  0  0  0  0  0  0  0  0  0  0
    9.3101  -15.7672   27.1793 C   0  0  0  0  0  0  0  0  0  0  0  0
    9.0797  -17.1566   26.9294 O   0  0  0  0  0  0  0  0  0  0  0  0
    9.9583  -15.5656   28.2316 O   0  0  0  0  0  0  0  0  0  0  0  0
  2  1  1  6
  2  3  1  0
  3  4  1  0
  5  6  1  0
  5  4  1  0
  7  6  1  0
  8  2  1  0
  9  8  2  0
 10 11  1  0
 11 13  1  0
 12 11  2  0
 14 13  1  1
 14 15  1  0
 15  8  1  0
 16 14  1  0
 16 17  2  0
 19 21  1  0
 19 18  1  1
 20 19  1  0
 22 21  1  1
 22 23  1  0
 23 16  1  0
 24 22  1  0
 25 24  1  0
 26 24  2  0
M  END
$$$$
