KNL.pdb
     RDKit          3D

 26 25  0  0  1  0  0  0  0  0999 V2000
    7.7926  -18.3846   21.1576 N   0  0  0  0  0  0  0  0  0  0  0  0
    9.0578  -18.1988   20.5421 C   0  0  1  0  0  0  0  0  0  0  0  0
    9.1278  -18.5414   19.0662 C   0  0  0  0  0  0  0  0  0  0  0  0
    7.9655  -19.2872   18.5235 C   0  0  0  0  0  0  0  0  0  0  0  0
    8.0416  -19.5564   17.0657 C   0  0  0  0  0  0  0  0  0  0  0  0
    6.8499  -20.2563   16.5260 C   0  0  0  0  0  0  0  0  0  0  0  0
    6.4489  -21.4642   17.1703 N   0  0  0  0  0  0  0  0  0  0  0  0
    9.4329  -16.7543   20.6263 C   0  0  0  0  0  0  0  0  0  0  0  0
   10.4976  -16.3909   20.0908 O   0  0  0  0  0  0  0  0  0  0  0  0
    8.1172  -12.3454   18.8222 N   0  0  0  0  0  0  0  0  0  0  0  0
    7.7255  -13.6064   19.3869 C   0  0  0  0  0  0  0  0  0  0  0  0
    7.4871  -14.5845   18.6388 O   0  0  0  0  0  0  0  0  0  0  0  0
    7.6305  -13.6631   20.8721 C   0  0  0  0  0  0  0  0  0  0  0  0
    8.8229  -14.4540   21.3814 C   0  0  2  0  0  0  0  0  0  0  0  0
    8.5508  -15.8862   21.3124 N   0  0  0  0  0  0  0  0  0  0  0  0
    8.9912  -14.1294   22.8211 C   0  0  0  0  0  0  0  0  0  0  0  0
    9.1509  -12.9211   23.1976 O   0  0  0  0  0  0  0  0  0  0  0  0
    8.4477  -11.9038   27.0053 C   0  0  0  0  0  0  0  0  0  0  0  0
    7.5133  -13.0039   26.6080 C   0  0  1  0  0  0  0  0  0  0  0  0
    6.0810  -12.4603   26.5645 C   0  0  0  0  0  0  0  0  0  0  0  0
    7.8920  -13.7013   25.3811 C   0  0  0  0  0  0  0  0  0  0  0  0
    8.9985  -14.6737   25.3034 C   0  0  2  0  0  0  0  0  0  0  0  0
    8.9881  -15.0754   23.8499 N   0  0  0  0  0  0  0  0  0  0  0  0
    8.9055  -15.8575   26.1222 C   0  0  0  0  0  0  0  0  0  0  0  0
    9.7114  -15.9313   27.3017 O   0  0  0  0  0  0  0  0  0  0  0  0
    8.1980  -16.8771   25.9548 O   0  0  0  0  0  0  0  0  0  0  0  0
  2  1  1  6
  2  3  1  0
  3  4  1  0
  5  6  1  0
  5  4  1  0
  7  6  1  0
  8  2  1  0
  9  8  2  0
 10 11  1  0
 11 13  1  0
 12 11  2  0
 14 13  1  1
 14 15  1  0
 15  8  1  0
 16 14  1  0
 16 17  2  0
 19 21  1  0
 19 18  1  6
 20 19  1  0
 22 21  1  6
 22 23  1  0
 23 16  1  0
 24 22  1  0
 25 24  1  0
 26 24  2  0
M  END
$$$$
