LAM.pdb
     RDKit          3D

 22 21  0  0  1  0  0  0  0  0999 V2000
    5.2921  -12.6029   26.2817 C   0  0  0  0  0  0  0  0  0  0  0  0
    6.7047  -12.6517   25.7774 C   0  0  2  0  0  0  0  0  0  0  0  0
    7.3916  -11.3159   25.8301 C   0  0  0  0  0  0  0  0  0  0  0  0
    6.7231  -13.2622   24.4050 C   0  0  0  0  0  0  0  0  0  0  0  0
    6.4146  -14.7502   24.5602 C   0  0  2  0  0  0  0  0  0  0  0  0
    5.9481  -15.0121   25.9118 N   0  0  0  0  0  0  0  0  0  0  0  0
    7.6414  -15.5251   24.2459 C   0  0  0  0  0  0  0  0  0  0  0  0
    8.2247  -16.1119   25.1764 O   0  0  0  0  0  0  0  0  0  0  0  0
    9.6680  -16.1898   21.1435 C   0  0  0  0  0  0  0  0  0  0  0  0
    9.1898  -16.4229   22.5634 C   0  0  2  0  0  0  0  0  0  0  0  0
    8.0818  -15.5550   22.9047 N   0  0  0  0  0  0  0  0  0  0  0  0
   10.3303  -16.0667   23.4559 C   0  0  0  0  0  0  0  0  0  0  0  0
   10.8328  -14.9176   23.4107 O   0  0  0  0  0  0  0  0  0  0  0  0
   10.1406  -13.3295   28.4534 C   0  0  0  0  0  0  0  0  0  0  0  0
   10.8730  -14.8580   29.0121 S   0  0  0  0  0  0  0  0  0  0  0  0
   11.7690  -15.7677   27.7928 C   0  0  0  0  0  0  0  0  0  0  0  0
   11.0994  -16.0926   26.5359 C   0  0  0  0  0  0  0  0  0  0  0  0
   11.7654  -16.6811   25.3753 C   0  0  2  0  0  0  0  0  0  0  0  0
   10.8217  -17.0469   24.3414 N   0  0  0  0  0  0  0  0  0  0  0  0
   12.6862  -17.7978   25.5588 C   0  0  0  0  0  0  0  0  0  0  0  0
   12.4814  -18.9326   25.0177 O   0  0  0  0  0  0  0  0  0  0  0  0
   13.8264  -17.6708   26.3316 O   0  0  0  0  0  0  0  0  0  0  0  0
  2  3  1  6
  2  1  1  0
  4  5  1  0
  4  2  1  0
  5  6  1  1
  7 11  1  0
  7  5  1  0
  8  7  2  0
 10  9  1  6
 10 12  1  0
 10 11  1  0
 12 19  1  0
 13 12  2  0
 14 15  1  0
 16 15  1  0
 17 16  1  0
 18 20  1  0
 18 17  1  1
 19 18  1  0
 20 22  1  0
 21 20  2  0
M  END
$$$$
