LAM.pdb
     RDKit          3D

 22 21  0  0  1  0  0  0  0  0999 V2000
    8.9661  -14.0767   18.0004 C   0  0  0  0  0  0  0  0  0  0  0  0
    7.7564  -13.6231   18.7640 C   0  0  2  0  0  0  0  0  0  0  0  0
    7.5881  -12.1295   18.7610 C   0  0  0  0  0  0  0  0  0  0  0  0
    7.7958  -14.2019   20.1497 C   0  0  0  0  0  0  0  0  0  0  0  0
    7.8370  -15.7226   20.0111 C   0  0  2  0  0  0  0  0  0  0  0  0
    6.5697  -16.1974   19.4805 N   0  0  0  0  0  0  0  0  0  0  0  0
    8.1280  -16.3132   21.3418 C   0  0  0  0  0  0  0  0  0  0  0  0
    7.2373  -16.2791   22.2113 O   0  0  0  0  0  0  0  0  0  0  0  0
   10.9944  -18.2549   22.8178 C   0  0  0  0  0  0  0  0  0  0  0  0
    9.6804  -17.4982   22.8317 C   0  0  2  0  0  0  0  0  0  0  0  0
    9.4027  -16.8836   21.5501 N   0  0  0  0  0  0  0  0  0  0  0  0
    9.8361  -16.4021   23.8308 C   0  0  0  0  0  0  0  0  0  0  0  0
   10.5470  -15.4023   23.5661 O   0  0  0  0  0  0  0  0  0  0  0  0
    6.4090  -11.0982   27.9776 C   0  0  0  0  0  0  0  0  0  0  0  0
    6.5185  -12.4679   26.8388 S   0  0  0  0  0  0  0  0  0  0  0  0
    7.9229  -13.5189   27.0388 C   0  0  0  0  0  0  0  0  0  0  0  0
    8.1452  -14.5772   26.0567 C   0  0  0  0  0  0  0  0  0  0  0  0
    9.2972  -15.4772   26.0614 C   0  0  2  0  0  0  0  0  0  0  0  0
    9.1692  -16.5201   25.0669 N   0  0  0  0  0  0  0  0  0  0  0  0
    9.7255  -16.0975   27.3105 C   0  0  0  0  0  0  0  0  0  0  0  0
    9.9274  -15.4129   28.3654 O   0  0  0  0  0  0  0  0  0  0  0  0
    9.9313  -17.4623   27.4025 O   0  0  0  0  0  0  0  0  0  0  0  0
  2  3  1  1
  2  1  1  0
  4  5  1  0
  4  2  1  0
  5  6  1  1
  7 11  1  0
  7  5  1  0
  8  7  2  0
 10  9  1  6
 10 12  1  0
 10 11  1  0
 12 19  1  0
 13 12  2  0
 14 15  1  0
 16 15  1  0
 17 16  1  0
 18 20  1  0
 18 17  1  1
 19 18  1  0
 20 22  1  0
 21 20  2  0
M  END
$$$$
