LAM.pdb
     RDKit          3D

 22 21  0  0  1  0  0  0  0  0999 V2000
    9.7460  -13.0697   18.6907 C   0  0  0  0  0  0  0  0  0  0  0  0
    8.2507  -13.1743   18.7632 C   0  0  2  0  0  0  0  0  0  0  0  0
    7.5705  -11.8342   18.7863 C   0  0  0  0  0  0  0  0  0  0  0  0
    7.8677  -14.0418   19.9283 C   0  0  0  0  0  0  0  0  0  0  0  0
    8.6210  -15.3629   19.7843 C   0  0  2  0  0  0  0  0  0  0  0  0
    8.0033  -16.1640   18.7404 N   0  0  0  0  0  0  0  0  0  0  0  0
    8.6049  -16.0641   21.0929 C   0  0  0  0  0  0  0  0  0  0  0  0
    7.5078  -16.4303   21.5539 O   0  0  0  0  0  0  0  0  0  0  0  0
   11.1839  -17.6425   23.2788 C   0  0  0  0  0  0  0  0  0  0  0  0
    9.8366  -17.0059   22.9981 C   0  0  2  0  0  0  0  0  0  0  0  0
    9.8383  -16.2786   21.7458 N   0  0  0  0  0  0  0  0  0  0  0  0
    9.6017  -16.0181   24.0905 C   0  0  0  0  0  0  0  0  0  0  0  0
   10.1532  -14.8914   24.0527 O   0  0  0  0  0  0  0  0  0  0  0  0
    7.6740  -11.0536   26.7722 C   0  0  0  0  0  0  0  0  0  0  0  0
    6.6177  -12.4502   27.1167 S   0  0  0  0  0  0  0  0  0  0  0  0
    6.5757  -13.7029   25.8734 C   0  0  0  0  0  0  0  0  0  0  0  0
    7.0572  -15.0389   26.2154 C   0  0  0  0  0  0  0  0  0  0  0  0
    8.4645  -15.4346   26.2089 C   0  0  2  0  0  0  0  0  0  0  0  0
    8.7520  -16.3825   25.1543 N   0  0  0  0  0  0  0  0  0  0  0  0
    9.0837  -15.9255   27.4354 C   0  0  0  0  0  0  0  0  0  0  0  0
    9.4687  -15.1343   28.3562 O   0  0  0  0  0  0  0  0  0  0  0  0
    9.2794  -17.2777   27.6512 O   0  0  0  0  0  0  0  0  0  0  0  0
  2  3  1  1
  2  1  1  0
  4  5  1  0
  4  2  1  0
  5  6  1  6
  7 11  1  0
  7  5  1  0
  8  7  2  0
 10  9  1  1
 10 12  1  0
 10 11  1  0
 12 19  1  0
 13 12  2  0
 14 15  1  0
 16 15  1  0
 17 16  1  0
 18 20  1  0
 18 17  1  1
 19 18  1  0
 20 22  1  0
 21 20  2  0
M  END
$$$$
