LAM.pdb
     RDKit          3D

 22 21  0  0  1  0  0  0  0  0999 V2000
    9.3973  -13.8432   18.7791 C   0  0  0  0  0  0  0  0  0  0  0  0
    8.0314  -13.6316   19.3638 C   0  0  2  0  0  0  0  0  0  0  0  0
    7.6087  -12.1893   19.3570 C   0  0  0  0  0  0  0  0  0  0  0  0
    7.9739  -14.2488   20.7321 C   0  0  0  0  0  0  0  0  0  0  0  0
    8.3760  -15.7158   20.5914 C   0  0  2  0  0  0  0  0  0  0  0  0
    7.3274  -16.4431   19.8953 N   0  0  0  0  0  0  0  0  0  0  0  0
    8.6214  -16.2732   21.9454 C   0  0  0  0  0  0  0  0  0  0  0  0
    7.6580  -16.3705   22.7282 O   0  0  0  0  0  0  0  0  0  0  0  0
   11.5462  -17.8570   23.6915 C   0  0  0  0  0  0  0  0  0  0  0  0
   10.1912  -17.1825   23.6016 C   0  0  2  0  0  0  0  0  0  0  0  0
    9.9380  -16.6642   22.2733 N   0  0  0  0  0  0  0  0  0  0  0  0
   10.2362  -16.0206   24.5356 C   0  0  0  0  0  0  0  0  0  0  0  0
   10.8493  -14.9742   24.2130 O   0  0  0  0  0  0  0  0  0  0  0  0
    7.0212  -10.8647   25.7294 C   0  0  0  0  0  0  0  0  0  0  0  0
    6.6794  -12.0543   27.0150 S   0  0  0  0  0  0  0  0  0  0  0  0
    8.0289  -13.0975   27.4706 C   0  0  0  0  0  0  0  0  0  0  0  0
    8.3409  -14.2430   26.6195 C   0  0  0  0  0  0  0  0  0  0  0  0
    9.5792  -15.0158   26.6989 C   0  0  2  0  0  0  0  0  0  0  0  0
    9.5777  -16.1307   25.7768 N   0  0  0  0  0  0  0  0  0  0  0  0
   10.0462  -15.5030   27.9924 C   0  0  0  0  0  0  0  0  0  0  0  0
   10.1289  -16.7475   28.2509 O   0  0  0  0  0  0  0  0  0  0  0  0
   10.4211  -14.6298   28.9975 O   0  0  0  0  0  0  0  0  0  0  0  0
  2  3  1  1
  2  1  1  0
  4  5  1  0
  4  2  1  0
  5  6  1  1
  7 11  1  0
  7  5  1  0
  8  7  2  0
 10  9  1  6
 10 12  1  0
 10 11  1  0
 12 19  1  0
 13 12  2  0
 14 15  1  0
 16 15  1  0
 17 16  1  0
 18 20  1  0
 18 17  1  1
 19 18  1  0
 20 22  1  0
 21 20  2  0
M  END
$$$$
