LAM.pdb
     RDKit          3D

 22 21  0  0  1  0  0  0  0  0999 V2000
    9.8189  -20.0403   19.5067 C   0  0  0  0  0  0  0  0  0  0  0  0
   10.9195  -19.0331   19.6695 C   0  0  2  0  0  0  0  0  0  0  0  0
   12.2839  -19.6110   19.4179 C   0  0  0  0  0  0  0  0  0  0  0  0
   10.8029  -18.3811   21.0179 C   0  0  0  0  0  0  0  0  0  0  0  0
    9.4128  -17.7539   21.1059 C   0  0  2  0  0  0  0  0  0  0  0  0
    9.2961  -16.6893   20.1231 N   0  0  0  0  0  0  0  0  0  0  0  0
    9.2063  -17.2482   22.4864 C   0  0  0  0  0  0  0  0  0  0  0  0
    9.7689  -16.1880   22.8180 O   0  0  0  0  0  0  0  0  0  0  0  0
    6.8197  -18.1222   25.2407 C   0  0  0  0  0  0  0  0  0  0  0  0
    8.0172  -17.4215   24.6289 C   0  0  2  0  0  0  0  0  0  0  0  0
    8.3805  -17.9989   23.3515 N   0  0  0  0  0  0  0  0  0  0  0  0
    9.1582  -17.6443   25.5630 C   0  0  0  0  0  0  0  0  0  0  0  0
   10.0519  -18.4789   25.2807 O   0  0  0  0  0  0  0  0  0  0  0  0
    7.8959  -13.2300   28.2716 C   0  0  0  0  0  0  0  0  0  0  0  0
    9.6575  -13.1049   28.5290 S   0  0  0  0  0  0  0  0  0  0  0  0
   10.6290  -14.3925   27.8112 C   0  0  0  0  0  0  0  0  0  0  0  0
   10.5421  -15.7325   28.3863 C   0  0  0  0  0  0  0  0  0  0  0  0
   10.3759  -16.9560   27.6037 C   0  0  2  0  0  0  0  0  0  0  0  0
    9.2032  -16.8988   26.7583 N   0  0  0  0  0  0  0  0  0  0  0  0
   10.3827  -18.2510   28.2757 C   0  0  0  0  0  0  0  0  0  0  0  0
    9.3324  -18.9659   28.3662 O   0  0  0  0  0  0  0  0  0  0  0  0
   11.5358  -18.7600   28.8454 O   0  0  0  0  0  0  0  0  0  0  0  0
  2  3  1  1
  2  1  1  0
  4  5  1  0
  4  2  1  0
  5  6  1  6
  7 11  1  0
  7  5  1  0
  8  7  2  0
 10  9  1  1
 10 12  1  0
 10 11  1  0
 12 19  1  0
 13 12  2  0
 14 15  1  0
 16 15  1  0
 17 16  1  0
 18 20  1  0
 18 17  1  1
 19 18  1  0
 20 22  1  0
 21 20  2  0
M  END
$$$$
