LAM.pdb
     RDKit          3D

 22 21  0  0  1  0  0  0  0  0999 V2000
    9.9959  -13.6276   18.7135 C   0  0  0  0  0  0  0  0  0  0  0  0
    8.5645  -13.3308   19.0529 C   0  0  2  0  0  0  0  0  0  0  0  0
    8.2315  -11.8683   18.9584 C   0  0  0  0  0  0  0  0  0  0  0  0
    8.2395  -13.9164   20.3976 C   0  0  0  0  0  0  0  0  0  0  0  0
    8.6860  -15.3771   20.3824 C   0  0  2  0  0  0  0  0  0  0  0  0
    7.8359  -16.1365   19.4803 N   0  0  0  0  0  0  0  0  0  0  0  0
    8.6239  -15.9074   21.7678 C   0  0  0  0  0  0  0  0  0  0  0  0
    7.5320  -15.8735   22.3654 O   0  0  0  0  0  0  0  0  0  0  0  0
   10.6303  -18.3316   23.6406 C   0  0  0  0  0  0  0  0  0  0  0  0
    9.7210  -17.1187   23.6017 C   0  0  2  0  0  0  0  0  0  0  0  0
    9.8098  -16.4232   22.3346 N   0  0  0  0  0  0  0  0  0  0  0  0
   10.2129  -16.1893   24.6592 C   0  0  0  0  0  0  0  0  0  0  0  0
   11.2054  -15.4529   24.4412 O   0  0  0  0  0  0  0  0  0  0  0  0
    5.5307  -13.1891   27.2097 C   0  0  0  0  0  0  0  0  0  0  0  0
    7.0533  -12.2850   27.4315 S   0  0  0  0  0  0  0  0  0  0  0  0
    8.5133  -13.0911   26.8522 C   0  0  0  0  0  0  0  0  0  0  0  0
    8.8422  -14.4076   27.3930 C   0  0  0  0  0  0  0  0  0  0  0  0
    9.9532  -15.2358   26.9274 C   0  0  2  0  0  0  0  0  0  0  0  0
    9.5384  -16.1624   25.8965 N   0  0  0  0  0  0  0  0  0  0  0  0
   10.7617  -15.9714   27.8938 C   0  0  0  0  0  0  0  0  0  0  0  0
   10.7038  -17.2401   27.9901 O   0  0  0  0  0  0  0  0  0  0  0  0
   11.6300  -15.3188   28.7503 O   0  0  0  0  0  0  0  0  0  0  0  0
  2  3  1  1
  2  1  1  0
  4  5  1  0
  4  2  1  0
  5  6  1  6
  7 11  1  0
  7  5  1  0
  8  7  2  0
 10  9  1  6
 10 12  1  0
 10 11  1  0
 12 19  1  0
 13 12  2  0
 14 15  1  0
 16 15  1  0
 17 16  1  0
 18 20  1  0
 18 17  1  1
 19 18  1  0
 20 22  1  0
 21 20  2  0
M  END
$$$$
