LAM.pdb
     RDKit          3D

 22 21  0  0  1  0  0  0  0  0999 V2000
    6.0648  -12.1475   24.5450 C   0  0  0  0  0  0  0  0  0  0  0  0
    6.2909  -12.8555   25.8488 C   0  0  2  0  0  0  0  0  0  0  0  0
    6.6955  -11.9252   26.9577 C   0  0  0  0  0  0  0  0  0  0  0  0
    7.2688  -13.9772   25.6437 C   0  0  0  0  0  0  0  0  0  0  0  0
    6.6431  -14.9564   24.6522 C   0  0  2  0  0  0  0  0  0  0  0  0
    5.5022  -15.6119   25.2699 N   0  0  0  0  0  0  0  0  0  0  0  0
    7.6773  -15.9369   24.2359 C   0  0  0  0  0  0  0  0  0  0  0  0
    7.9058  -16.9076   24.9816 O   0  0  0  0  0  0  0  0  0  0  0  0
    9.9577  -16.3140   21.2610 C   0  0  0  0  0  0  0  0  0  0  0  0
    9.4407  -16.5966   22.6582 C   0  0  2  0  0  0  0  0  0  0  0  0
    8.3478  -15.7153   23.0132 N   0  0  0  0  0  0  0  0  0  0  0  0
   10.5689  -16.3105   23.5907 C   0  0  0  0  0  0  0  0  0  0  0  0
   11.1721  -15.2115   23.5340 O   0  0  0  0  0  0  0  0  0  0  0  0
   10.9458  -13.9377   30.3732 C   0  0  0  0  0  0  0  0  0  0  0  0
   10.3005  -14.5012   28.8077 S   0  0  0  0  0  0  0  0  0  0  0  0
   11.2933  -15.6841   27.9520 C   0  0  0  0  0  0  0  0  0  0  0  0
   10.8421  -16.1556   26.6451 C   0  0  0  0  0  0  0  0  0  0  0  0
   11.6654  -16.9320   25.7197 C   0  0  2  0  0  0  0  0  0  0  0  0
   10.9337  -17.2991   24.5267 N   0  0  0  0  0  0  0  0  0  0  0  0
   12.3694  -18.1172   26.1976 C   0  0  0  0  0  0  0  0  0  0  0  0
   11.8746  -19.2849   26.0799 O   0  0  0  0  0  0  0  0  0  0  0  0
   13.6103  -18.0224   26.8013 O   0  0  0  0  0  0  0  0  0  0  0  0
  2  3  1  1
  2  1  1  0
  4  5  1  0
  4  2  1  0
  5  6  1  1
  7 11  1  0
  7  5  1  0
  8  7  2  0
 10  9  1  6
 10 12  1  0
 10 11  1  0
 12 19  1  0
 13 12  2  0
 14 15  1  0
 16 15  1  0
 17 16  1  0
 18 20  1  0
 18 17  1  1
 19 18  1  0
 20 22  1  0
 21 20  2  0
M  END
$$$$
