LAM.pdb
     RDKit          3D

 22 21  0  0  1  0  0  0  0  0999 V2000
    9.0310  -13.8990   18.4674 C   0  0  0  0  0  0  0  0  0  0  0  0
    7.7833  -13.6680   19.2688 C   0  0  2  0  0  0  0  0  0  0  0  0
    7.3521  -12.2283   19.2790 C   0  0  0  0  0  0  0  0  0  0  0  0
    7.9666  -14.2308   20.6495 C   0  0  0  0  0  0  0  0  0  0  0  0
    8.2636  -15.7219   20.5019 C   0  0  2  0  0  0  0  0  0  0  0  0
    7.1165  -16.3903   19.9100 N   0  0  0  0  0  0  0  0  0  0  0  0
    8.5885  -16.2764   21.8403 C   0  0  0  0  0  0  0  0  0  0  0  0
    7.6686  -16.3924   22.6714 O   0  0  0  0  0  0  0  0  0  0  0  0
   11.6501  -17.7771   23.4286 C   0  0  0  0  0  0  0  0  0  0  0  0
   10.2504  -17.1945   23.3989 C   0  0  2  0  0  0  0  0  0  0  0  0
    9.9271  -16.6435   22.0993 N   0  0  0  0  0  0  0  0  0  0  0  0
   10.2414  -16.0697   24.3781 C   0  0  0  0  0  0  0  0  0  0  0  0
   10.4447  -14.8934   23.9908 O   0  0  0  0  0  0  0  0  0  0  0  0
    6.3386  -11.0205   27.6220 C   0  0  0  0  0  0  0  0  0  0  0  0
    6.8433  -12.3760   26.5764 S   0  0  0  0  0  0  0  0  0  0  0  0
    8.2230  -13.3145   27.1530 C   0  0  0  0  0  0  0  0  0  0  0  0
    8.7028  -14.4226   26.3310 C   0  0  0  0  0  0  0  0  0  0  0  0
    9.8253  -15.2882   26.6884 C   0  0  2  0  0  0  0  0  0  0  0  0
   10.0008  -16.3627   25.7356 N   0  0  0  0  0  0  0  0  0  0  0  0
    9.9002  -15.8595   28.0288 C   0  0  0  0  0  0  0  0  0  0  0  0
    9.8845  -15.1287   29.0718 O   0  0  0  0  0  0  0  0  0  0  0  0
    9.9913  -17.2258   28.2245 O   0  0  0  0  0  0  0  0  0  0  0  0
  2  3  1  1
  2  1  1  0
  4  5  1  0
  4  2  1  0
  5  6  1  1
  7 11  1  0
  7  5  1  0
  8  7  2  0
 10  9  1  6
 10 12  1  0
 10 11  1  0
 12 19  1  0
 13 12  2  0
 14 15  1  0
 16 15  1  0
 17 16  1  0
 18 20  1  0
 18 17  1  6
 19 18  1  0
 20 22  1  0
 21 20  2  0
M  END
$$$$
