LAM.pdb
     RDKit          3D

 22 21  0  0  1  0  0  0  0  0999 V2000
    8.9142  -13.7680   18.6026 C   0  0  0  0  0  0  0  0  0  0  0  0
    7.7312  -13.3188   19.4093 C   0  0  2  0  0  0  0  0  0  0  0  0
    7.5737  -11.8243   19.4352 C   0  0  0  0  0  0  0  0  0  0  0  0
    7.8079  -13.9202   20.7838 C   0  0  0  0  0  0  0  0  0  0  0  0
    7.8570  -15.4380   20.6188 C   0  0  2  0  0  0  0  0  0  0  0  0
    6.6007  -15.9074   20.0580 N   0  0  0  0  0  0  0  0  0  0  0  0
    8.1272  -16.0514   21.9435 C   0  0  0  0  0  0  0  0  0  0  0  0
    7.2115  -16.0634   22.7873 O   0  0  0  0  0  0  0  0  0  0  0  0
   10.9174  -18.1067   23.3811 C   0  0  0  0  0  0  0  0  0  0  0  0
    9.6581  -17.2637   23.4338 C   0  0  2  0  0  0  0  0  0  0  0  0
    9.4116  -16.5899   22.1758 N   0  0  0  0  0  0  0  0  0  0  0  0
    9.8965  -16.2141   24.4660 C   0  0  0  0  0  0  0  0  0  0  0  0
   10.7003  -15.2771   24.2402 O   0  0  0  0  0  0  0  0  0  0  0  0
    6.8057  -11.0553   26.6528 C   0  0  0  0  0  0  0  0  0  0  0  0
    6.3204  -12.7366   26.3027 S   0  0  0  0  0  0  0  0  0  0  0  0
    7.6327  -13.8398   25.8813 C   0  0  0  0  0  0  0  0  0  0  0  0
    8.4404  -14.4042   26.9597 C   0  0  0  0  0  0  0  0  0  0  0  0
    9.5058  -15.3860   26.7644 C   0  0  2  0  0  0  0  0  0  0  0  0
    9.2009  -16.3040   25.6885 N   0  0  0  0  0  0  0  0  0  0  0  0
    9.9865  -16.1671   27.8990 C   0  0  0  0  0  0  0  0  0  0  0  0
   10.3995  -15.6129   28.9689 O   0  0  0  0  0  0  0  0  0  0  0  0
   10.0141  -17.5496   27.8607 O   0  0  0  0  0  0  0  0  0  0  0  0
  2  3  1  1
  2  1  1  0
  4  5  1  0
  4  2  1  0
  5  6  1  1
  7 11  1  0
  7  5  1  0
  8  7  2  0
 10  9  1  6
 10 12  1  0
 10 11  1  0
 12 19  1  0
 13 12  2  0
 14 15  1  0
 16 15  1  0
 17 16  1  0
 18 20  1  0
 18 17  1  1
 19 18  1  0
 20 22  1  0
 21 20  2  0
M  END
$$$$
