LAM.pdb
     RDKit          3D

 22 21  0  0  1  0  0  0  0  0999 V2000
    9.4858  -13.2013   19.2357 C   0  0  0  0  0  0  0  0  0  0  0  0
    8.0190  -13.3081   19.5348 C   0  0  2  0  0  0  0  0  0  0  0  0
    7.3330  -11.9718   19.5857 C   0  0  0  0  0  0  0  0  0  0  0  0
    7.8235  -14.1113   20.7891 C   0  0  0  0  0  0  0  0  0  0  0  0
    8.5728  -15.4305   20.6112 C   0  0  2  0  0  0  0  0  0  0  0  0
    7.8842  -16.2528   19.6300 N   0  0  0  0  0  0  0  0  0  0  0  0
    8.6593  -16.1092   21.9288 C   0  0  0  0  0  0  0  0  0  0  0  0
    7.6067  -16.5181   22.4535 O   0  0  0  0  0  0  0  0  0  0  0  0
   11.1977  -17.9989   23.6938 C   0  0  0  0  0  0  0  0  0  0  0  0
   10.0429  -17.0175   23.7440 C   0  0  2  0  0  0  0  0  0  0  0  0
    9.9344  -16.2550   22.5176 N   0  0  0  0  0  0  0  0  0  0  0  0
   10.3528  -16.0582   24.8430 C   0  0  0  0  0  0  0  0  0  0  0  0
   11.1629  -15.1189   24.6519 O   0  0  0  0  0  0  0  0  0  0  0  0
    6.4658  -11.2802   26.3557 C   0  0  0  0  0  0  0  0  0  0  0  0
    6.9405  -12.7414   27.2637 S   0  0  0  0  0  0  0  0  0  0  0  0
    8.5325  -13.3992   26.8768 C   0  0  0  0  0  0  0  0  0  0  0  0
    9.0214  -14.5380   27.6501 C   0  0  0  0  0  0  0  0  0  0  0  0
   10.1034  -15.4222   27.2209 C   0  0  2  0  0  0  0  0  0  0  0  0
    9.7168  -16.2351   26.0883 N   0  0  0  0  0  0  0  0  0  0  0  0
   10.7578  -16.2900   28.1943 C   0  0  0  0  0  0  0  0  0  0  0  0
   11.3284  -15.8233   29.2330 O   0  0  0  0  0  0  0  0  0  0  0  0
   10.7859  -17.6631   28.0297 O   0  0  0  0  0  0  0  0  0  0  0  0
  2  3  1  1
  2  1  1  0
  4  5  1  0
  4  2  1  0
  5  6  1  6
  7 11  1  0
  7  5  1  0
  8  7  2  0
 10  9  1  6
 10 12  1  0
 10 11  1  0
 12 19  1  0
 13 12  2  0
 14 15  1  0
 16 15  1  0
 17 16  1  0
 18 20  1  0
 18 17  1  1
 19 18  1  0
 20 22  1  0
 21 20  2  0
M  END
$$$$
