LAM.pdb
     RDKit          3D

 22 21  0  0  1  0  0  0  0  0999 V2000
    9.7463  -13.4085   18.8444 C   0  0  0  0  0  0  0  0  0  0  0  0
    8.3064  -13.3670   19.2653 C   0  0  2  0  0  0  0  0  0  0  0  0
    7.7472  -11.9725   19.3025 C   0  0  0  0  0  0  0  0  0  0  0  0
    8.1477  -14.0932   20.5707 C   0  0  0  0  0  0  0  0  0  0  0  0
    8.6030  -15.5349   20.3526 C   0  0  2  0  0  0  0  0  0  0  0  0
    7.6828  -16.2041   19.4479 N   0  0  0  0  0  0  0  0  0  0  0  0
    8.6676  -16.2172   21.6696 C   0  0  0  0  0  0  0  0  0  0  0  0
    7.6107  -16.3658   22.3109 O   0  0  0  0  0  0  0  0  0  0  0  0
   11.1006  -18.3645   23.4471 C   0  0  0  0  0  0  0  0  0  0  0  0
   10.0006  -17.3213   23.4126 C   0  0  2  0  0  0  0  0  0  0  0  0
    9.9278  -16.6623   22.1251 N   0  0  0  0  0  0  0  0  0  0  0  0
   10.3668  -16.2893   24.4249 C   0  0  0  0  0  0  0  0  0  0  0  0
   10.9845  -15.2538   24.0765 O   0  0  0  0  0  0  0  0  0  0  0  0
    5.9616  -12.1311   26.8444 C   0  0  0  0  0  0  0  0  0  0  0  0
    7.6304  -12.6242   27.2405 S   0  0  0  0  0  0  0  0  0  0  0  0
    8.3292  -13.8662   26.1984 C   0  0  0  0  0  0  0  0  0  0  0  0
    9.7469  -14.1841   26.3494 C   0  0  0  0  0  0  0  0  0  0  0  0
   10.2594  -15.4890   26.7636 C   0  0  2  0  0  0  0  0  0  0  0  0
   10.0033  -16.5080   25.7690 N   0  0  0  0  0  0  0  0  0  0  0  0
    9.8904  -16.0306   28.0671 C   0  0  0  0  0  0  0  0  0  0  0  0
    9.1523  -17.0624   28.1809 O   0  0  0  0  0  0  0  0  0  0  0  0
   10.3290  -15.4437   29.2404 O   0  0  0  0  0  0  0  0  0  0  0  0
  2  3  1  1
  2  1  1  0
  4  5  1  0
  4  2  1  0
  5  6  1  6
  7 11  1  0
  7  5  1  0
  8  7  2  0
 10  9  1  6
 10 12  1  0
 10 11  1  0
 12 19  1  0
 13 12  2  0
 14 15  1  0
 16 15  1  0
 17 16  1  0
 18 20  1  0
 18 17  1  6
 19 18  1  0
 20 22  1  0
 21 20  2  0
M  END
$$$$
