HQF.pdb
     RDKit          3D

 31 32  0  0  1  0  0  0  0  0999 V2000
   17.3487  -10.9817  -13.4315 N   0  0  0  0  0  0  0  0  0  0  0  0
   17.7478   -9.6538  -13.0225 C   0  0  1  0  0  0  0  0  0  0  0  0
   18.3022   -8.8771  -14.2088 C   0  0  0  0  0  0  0  0  0  0  0  0
   19.5159   -9.4764  -14.7714 C   0  0  0  0  0  0  0  0  0  0  0  0
   19.7126  -10.7518  -15.2696 C   0  0  0  0  0  0  0  0  0  0  0  0
   20.9966  -10.8550  -15.6823 N   0  0  0  0  0  0  0  0  0  0  0  0
   21.6024   -9.6838  -15.4558 C   0  0  0  0  0  0  0  0  0  0  0  0
   20.7055   -8.8619  -14.9085 N   0  0  0  0  0  0  0  0  0  0  0  0
   16.6143   -8.9097  -12.4477 C   0  0  0  0  0  0  0  0  0  0  0  0
   15.4606   -9.0689  -12.9473 O   0  0  0  0  0  0  0  0  0  0  0  0
   13.6979   -9.8275   -7.9787 N   0  0  0  0  0  0  0  0  0  0  0  0
   13.0501   -8.6106   -8.2528 C   0  0  0  0  0  0  0  0  0  0  0  0
   11.9603   -8.3512   -7.6922 O   0  0  0  0  0  0  0  0  0  0  0  0
   13.6738   -7.6748   -9.1932 C   0  0  0  0  0  0  0  0  0  0  0  0
   14.9834   -8.2748   -9.6705 C   0  0  0  0  0  0  0  0  0  0  0  0
   15.5950   -7.3971  -10.7434 C   0  0  2  0  0  0  0  0  0  0  0  0
   16.7307   -8.0216  -11.3650 N   0  0  0  0  0  0  0  0  0  0  0  0
   15.9745   -6.0992  -10.1280 C   0  0  0  0  0  0  0  0  0  0  0  0
   16.8963   -6.0306   -9.2801 O   0  0  0  0  0  0  0  0  0  0  0  0
   15.3088   -4.9195  -10.4823 N   0  0  0  0  0  0  0  0  0  0  0  0
   15.6783   -3.5961  -10.0084 C   0  0  1  0  0  0  0  0  0  0  0  0
   15.4026   -2.5318  -10.9954 C   0  0  0  0  0  0  0  0  0  0  0  0
   16.2926   -2.6472  -12.1633 C   0  0  0  0  0  0  0  0  0  0  0  0
   17.3963   -1.7978  -12.3064 C   0  0  0  0  0  0  0  0  0  0  0  0
   18.2586   -1.8913  -13.3638 C   0  0  0  0  0  0  0  0  0  0  0  0
   18.0659   -2.8438  -14.3433 C   0  0  0  0  0  0  0  0  0  0  0  0
   16.9951   -3.6781  -14.2170 C   0  0  0  0  0  0  0  0  0  0  0  0
   16.1207   -3.5887  -13.1513 C   0  0  0  0  0  0  0  0  0  0  0  0
   14.9629   -3.3669   -8.7468 C   0  0  0  0  0  0  0  0  0  0  0  0
   14.0770   -4.1391   -8.3168 O   0  0  0  0  0  0  0  0  0  0  0  0
   15.2393   -2.2551   -7.9469 O   0  0  0  0  0  0  0  0  0  0  0  0
  2  1  1  6
  3  2  1  0
  4  5  2  0
  4  3  1  0
  6  5  1  0
  7  8  2  0
  7  6  1  0
  8  4  1  0
  9 17  1  0
  9  2  1  0
 10  9  2  0
 11 12  1  0
 12 14  1  0
 13 12  2  0
 14 15  1  0
 16 15  1  1
 16 17  1  0
 18 16  1  0
 19 18  2  0
 20 18  1  0
 21 29  1  0
 21 20  1  0
 22 23  1  0
 21 22  1  6
 23 28  1  0
 24 23  2  0
 24 25  1  0
 25 26  2  0
 26 27  1  0
 28 27  2  0
 29 31  1  0
 30 29  2  0
M  END
$$$$
