HQF.pdb
     RDKit          3D

 31 32  0  0  1  0  0  0  0  0999 V2000
   19.3429  -31.4776    0.8628 N   0  0  0  0  0  0  0  0  0  0  0  0
   20.2322  -31.9582    1.8961 C   0  0  1  0  0  0  0  0  0  0  0  0
   21.5489  -32.4234    1.2895 C   0  0  0  0  0  0  0  0  0  0  0  0
   21.4553  -33.7415    0.6550 C   0  0  0  0  0  0  0  0  0  0  0  0
   20.5134  -34.7376    0.8406 C   0  0  0  0  0  0  0  0  0  0  0  0
   20.8313  -35.7796    0.0388 N   0  0  0  0  0  0  0  0  0  0  0  0
   21.9405  -35.4612   -0.6381 C   0  0  0  0  0  0  0  0  0  0  0  0
   22.3081  -34.2353   -0.2616 N   0  0  0  0  0  0  0  0  0  0  0  0
   20.5060  -30.9101    2.8938 C   0  0  0  0  0  0  0  0  0  0  0  0
   20.6518  -29.7140    2.5014 O   0  0  0  0  0  0  0  0  0  0  0  0
   17.6992  -27.7300    7.6472 N   0  0  0  0  0  0  0  0  0  0  0  0
   18.7666  -28.5860    7.9694 C   0  0  0  0  0  0  0  0  0  0  0  0
   18.7354  -29.2359    9.0397 O   0  0  0  0  0  0  0  0  0  0  0  0
   19.8922  -28.6930    7.0363 C   0  0  0  0  0  0  0  0  0  0  0  0
   19.6327  -29.8606    6.1023 C   0  0  0  0  0  0  0  0  0  0  0  0
   20.8486  -30.1093    5.2333 C   0  0  2  0  0  0  0  0  0  0  0  0
   20.6176  -31.1538    4.2733 N   0  0  0  0  0  0  0  0  0  0  0  0
   21.9957  -30.4446    6.1160 C   0  0  0  0  0  0  0  0  0  0  0  0
   22.1753  -31.6164    6.5256 O   0  0  0  0  0  0  0  0  0  0  0  0
   22.9048  -29.4559    6.5114 N   0  0  0  0  0  0  0  0  0  0  0  0
   24.0361  -29.6888    7.3936 C   0  0  1  0  0  0  0  0  0  0  0  0
   25.3286  -29.3081    6.7874 C   0  0  0  0  0  0  0  0  0  0  0  0
   25.7337  -30.2732    5.7511 C   0  0  0  0  0  0  0  0  0  0  0  0
   26.5305  -31.3776    6.0764 C   0  0  0  0  0  0  0  0  0  0  0  0
   26.9058  -32.3076    5.1466 C   0  0  0  0  0  0  0  0  0  0  0  0
   26.5041  -32.1863    3.8321 C   0  0  0  0  0  0  0  0  0  0  0  0
   25.7277  -31.1159    3.5008 C   0  0  0  0  0  0  0  0  0  0  0  0
   25.3452  -30.1732    4.4353 C   0  0  0  0  0  0  0  0  0  0  0  0
   23.7806  -28.9520    8.6377 C   0  0  0  0  0  0  0  0  0  0  0  0
   22.7499  -28.2671    8.8236 O   0  0  0  0  0  0  0  0  0  0  0  0
   24.6913  -28.9779    9.6972 O   0  0  0  0  0  0  0  0  0  0  0  0
  2  1  1  6
  3  2  1  0
  4  5  2  0
  4  3  1  0
  6  5  1  0
  7  8  2  0
  7  6  1  0
  8  4  1  0
  9 17  1  0
  9  2  1  0
 10  9  2  0
 11 12  1  0
 12 14  1  0
 13 12  2  0
 14 15  1  0
 16 15  1  1
 16 17  1  0
 18 16  1  0
 19 18  2  0
 20 18  1  0
 21 29  1  0
 21 20  1  0
 22 23  1  0
 21 22  1  6
 23 28  1  0
 24 23  2  0
 24 25  1  0
 25 26  2  0
 26 27  1  0
 28 27  2  0
 29 31  1  0
 30 29  2  0
M  END
$$$$
