HQF.pdb
     RDKit          3D

 31 32  0  0  1  0  0  0  0  0999 V2000
   17.4463  -11.3298  -18.2212 N   0  0  0  0  0  0  0  0  0  0  0  0
   17.9364  -10.8688  -16.9418 C   0  0  1  0  0  0  0  0  0  0  0  0
   19.0286  -11.7957  -16.4262 C   0  0  0  0  0  0  0  0  0  0  0  0
   18.5334  -13.1322  -16.0834 C   0  0  0  0  0  0  0  0  0  0  0  0
   18.9088  -14.3623  -16.5930 C   0  0  0  0  0  0  0  0  0  0  0  0
   18.1803  -15.3200  -15.9751 N   0  0  0  0  0  0  0  0  0  0  0  0
   17.3650  -14.7227  -15.0985 C   0  0  0  0  0  0  0  0  0  0  0  0
   17.5840  -13.4087  -15.1704 N   0  0  0  0  0  0  0  0  0  0  0  0
   18.4725   -9.5005  -17.0378 C   0  0  0  0  0  0  0  0  0  0  0  0
   19.2746   -9.2215  -17.9784 O   0  0  0  0  0  0  0  0  0  0  0  0
   14.9880   -6.1675  -16.0823 N   0  0  0  0  0  0  0  0  0  0  0  0
   15.4625   -6.1670  -17.4054 C   0  0  0  0  0  0  0  0  0  0  0  0
   14.6456   -6.2078  -18.3543 O   0  0  0  0  0  0  0  0  0  0  0  0
   16.9092   -6.1187  -17.6367 C   0  0  0  0  0  0  0  0  0  0  0  0
   17.6101   -6.0861  -16.2911 C   0  0  0  0  0  0  0  0  0  0  0  0
   18.6942   -7.1435  -16.2457 C   0  0  2  0  0  0  0  0  0  0  0  0
   18.1474   -8.4687  -16.1409 N   0  0  0  0  0  0  0  0  0  0  0  0
   19.5908   -6.8477  -15.0986 C   0  0  0  0  0  0  0  0  0  0  0  0
   19.2917   -7.2072  -13.9347 O   0  0  0  0  0  0  0  0  0  0  0  0
   20.7938   -6.1581  -15.2923 N   0  0  0  0  0  0  0  0  0  0  0  0
   21.7326   -5.8342  -14.2311 C   0  0  1  0  0  0  0  0  0  0  0  0
   23.0821   -6.3883  -14.4654 C   0  0  0  0  0  0  0  0  0  0  0  0
   23.0430   -7.8572  -14.5649 C   0  0  0  0  0  0  0  0  0  0  0  0
   23.1605   -8.6537  -13.4195 C   0  0  0  0  0  0  0  0  0  0  0  0
   23.1040  -10.0193  -13.4697 C   0  0  0  0  0  0  0  0  0  0  0  0
   22.9260  -10.6698  -14.6734 C   0  0  0  0  0  0  0  0  0  0  0  0
   22.8099   -9.9069  -15.7972 C   0  0  0  0  0  0  0  0  0  0  0  0
   22.8660   -8.5274  -15.7531 C   0  0  0  0  0  0  0  0  0  0  0  0
   21.7598   -4.3719  -14.1013 C   0  0  0  0  0  0  0  0  0  0  0  0
   21.2208   -3.6049  -14.9304 O   0  0  0  0  0  0  0  0  0  0  0  0
   22.4002   -3.7500  -13.0263 O   0  0  0  0  0  0  0  0  0  0  0  0
  2  1  1  6
  3  2  1  0
  4  5  2  0
  4  3  1  0
  6  5  1  0
  7  8  2  0
  7  6  1  0
  8  4  1  0
  9 17  1  0
  9  2  1  0
 10  9  2  0
 11 12  1  0
 12 14  1  0
 13 12  2  0
 14 15  1  0
 16 15  1  1
 16 17  1  0
 18 16  1  0
 19 18  2  0
 20 18  1  0
 21 29  1  0
 21 20  1  0
 22 23  1  0
 21 22  1  6
 23 28  1  0
 24 23  2  0
 24 25  1  0
 25 26  2  0
 26 27  1  0
 28 27  2  0
 29 31  1  0
 30 29  2  0
M  END
$$$$
