HQF.pdb
     RDKit          3D

 31 32  0  0  1  0  0  0  0  0999 V2000
   20.8207  -12.4424  -20.4520 N   0  0  0  0  0  0  0  0  0  0  0  0
   21.6668  -11.8656  -19.4317 C   0  0  1  0  0  0  0  0  0  0  0  0
   23.1251  -11.9031  -19.8675 C   0  0  0  0  0  0  0  0  0  0  0  0
   23.6227  -13.2635  -20.0926 C   0  0  0  0  0  0  0  0  0  0  0  0
   23.8931  -13.9108  -21.2849 C   0  0  0  0  0  0  0  0  0  0  0  0
   24.3348  -15.1576  -21.0024 N   0  0  0  0  0  0  0  0  0  0  0  0
   24.3469  -15.3041  -19.6727 C   0  0  0  0  0  0  0  0  0  0  0  0
   23.9176  -14.1615  -19.1344 N   0  0  0  0  0  0  0  0  0  0  0  0
   21.2854  -10.4717  -19.1479 C   0  0  0  0  0  0  0  0  0  0  0  0
   20.8675   -9.7454  -20.0986 O   0  0  0  0  0  0  0  0  0  0  0  0
   17.6724   -8.3915  -14.9774 N   0  0  0  0  0  0  0  0  0  0  0  0
   18.0038   -7.1805  -15.6094 C   0  0  0  0  0  0  0  0  0  0  0  0
   17.2892   -6.1693  -15.4198 O   0  0  0  0  0  0  0  0  0  0  0  0
   19.1841   -7.1370  -16.4777 C   0  0  0  0  0  0  0  0  0  0  0  0
   19.6893   -8.5547  -16.6730 C   0  0  0  0  0  0  0  0  0  0  0  0
   20.8883   -8.5545  -17.5991 C   0  0  2  0  0  0  0  0  0  0  0  0
   21.3556   -9.8861  -17.8724 N   0  0  0  0  0  0  0  0  0  0  0  0
   21.9601   -7.7334  -16.9792 C   0  0  0  0  0  0  0  0  0  0  0  0
   22.4502   -8.0429  -15.8669 O   0  0  0  0  0  0  0  0  0  0  0  0
   22.4484   -6.5914  -17.6256 N   0  0  0  0  0  0  0  0  0  0  0  0
   23.5406   -5.7720  -17.1276 C   0  0  1  0  0  0  0  0  0  0  0  0
   23.9672   -4.7333  -18.0880 C   0  0  0  0  0  0  0  0  0  0  0  0
   25.0966   -3.9511  -17.5571 C   0  0  0  0  0  0  0  0  0  0  0  0
   24.8717   -2.7804  -16.8230 C   0  0  0  0  0  0  0  0  0  0  0  0
   25.8936   -2.0416  -16.2936 C   0  0  0  0  0  0  0  0  0  0  0  0
   27.2052   -2.4328  -16.4686 C   0  0  0  0  0  0  0  0  0  0  0  0
   27.4394   -3.5711  -17.1813 C   0  0  0  0  0  0  0  0  0  0  0  0
   26.4115   -4.3216  -17.7184 C   0  0  0  0  0  0  0  0  0  0  0  0
   23.1046   -5.1882  -15.8529 C   0  0  0  0  0  0  0  0  0  0  0  0
   21.9816   -4.6587  -15.6956 O   0  0  0  0  0  0  0  0  0  0  0  0
   23.9356   -5.1939  -14.7296 O   0  0  0  0  0  0  0  0  0  0  0  0
  2  1  1  6
  3  2  1  0
  4  5  2  0
  4  3  1  0
  6  5  1  0
  7  8  2  0
  7  6  1  0
  8  4  1  0
  9 17  1  0
  9  2  1  0
 10  9  2  0
 11 12  1  0
 12 14  1  0
 13 12  2  0
 14 15  1  0
 16 15  1  1
 16 17  1  0
 18 16  1  0
 19 18  2  0
 20 18  1  0
 21 29  1  0
 21 20  1  0
 22 23  1  0
 21 22  1  6
 23 28  1  0
 24 23  2  0
 24 25  1  0
 25 26  2  0
 26 27  1  0
 28 27  2  0
 29 31  1  0
 30 29  2  0
M  END
$$$$
