HQF.pdb
     RDKit          3D

 31 32  0  0  1  0  0  0  0  0999 V2000
   23.0367  -12.2433  -18.9112 N   0  0  0  0  0  0  0  0  0  0  0  0
   22.5001  -11.8002  -17.6442 C   0  0  1  0  0  0  0  0  0  0  0  0
   23.4393  -12.1799  -16.5078 C   0  0  0  0  0  0  0  0  0  0  0  0
   23.6207  -13.6282  -16.3719 C   0  0  0  0  0  0  0  0  0  0  0  0
   22.7467  -14.5770  -15.8722 C   0  0  0  0  0  0  0  0  0  0  0  0
   23.3452  -15.7878  -15.9444 N   0  0  0  0  0  0  0  0  0  0  0  0
   24.5627  -15.6200  -16.4730 C   0  0  0  0  0  0  0  0  0  0  0  0
   24.7195  -14.3197  -16.7266 N   0  0  0  0  0  0  0  0  0  0  0  0
   22.2959  -10.3417  -17.6325 C   0  0  0  0  0  0  0  0  0  0  0  0
   23.2436   -9.5876  -18.0055 O   0  0  0  0  0  0  0  0  0  0  0  0
   16.9200   -7.2649  -17.9631 N   0  0  0  0  0  0  0  0  0  0  0  0
   17.8156   -6.1870  -17.8542 C   0  0  0  0  0  0  0  0  0  0  0  0
   17.3833   -5.0143  -17.9374 O   0  0  0  0  0  0  0  0  0  0  0  0
   19.2387   -6.4697  -17.6451 C   0  0  0  0  0  0  0  0  0  0  0  0
   19.4251   -7.9744  -17.5800 C   0  0  0  0  0  0  0  0  0  0  0  0
   20.8827   -8.3058  -17.3328 C   0  0  2  0  0  0  0  0  0  0  0  0
   21.1008   -9.7228  -17.2286 N   0  0  0  0  0  0  0  0  0  0  0  0
   21.3188   -7.6099  -16.0948 C   0  0  0  0  0  0  0  0  0  0  0  0
   21.0192   -8.0571  -14.9619 O   0  0  0  0  0  0  0  0  0  0  0  0
   22.0767   -6.4347  -16.1659 N   0  0  0  0  0  0  0  0  0  0  0  0
   22.6030   -5.7280  -15.0101 C   0  0  1  0  0  0  0  0  0  0  0  0
   24.0716   -5.5710  -15.0491 C   0  0  0  0  0  0  0  0  0  0  0  0
   24.4962   -4.8476  -16.2599 C   0  0  0  0  0  0  0  0  0  0  0  0
   24.8135   -5.5433  -17.4327 C   0  0  0  0  0  0  0  0  0  0  0  0
   25.1875   -4.9050  -18.5829 C   0  0  0  0  0  0  0  0  0  0  0  0
   25.2660   -3.5281  -18.6268 C   0  0  0  0  0  0  0  0  0  0  0  0
   24.9596   -2.8374  -17.4922 C   0  0  0  0  0  0  0  0  0  0  0  0
   24.5811   -3.4763  -16.3273 C   0  0  0  0  0  0  0  0  0  0  0  0
   21.9187   -4.4308  -14.9406 C   0  0  0  0  0  0  0  0  0  0  0  0
   21.2179   -3.9801  -15.8743 O   0  0  0  0  0  0  0  0  0  0  0  0
   22.0163   -3.6180  -13.8082 O   0  0  0  0  0  0  0  0  0  0  0  0
  2  1  1  6
  3  2  1  0
  4  5  2  0
  4  3  1  0
  6  5  1  0
  7  8  2  0
  7  6  1  0
  8  4  1  0
  9 17  1  0
  9  2  1  0
 10  9  2  0
 11 12  1  0
 12 14  1  0
 13 12  2  0
 14 15  1  0
 16 15  1  1
 16 17  1  0
 18 16  1  0
 19 18  2  0
 20 18  1  0
 21 29  1  0
 21 20  1  0
 22 23  1  0
 21 22  1  6
 23 28  1  0
 24 23  2  0
 24 25  1  0
 25 26  2  0
 26 27  1  0
 28 27  2  0
 29 31  1  0
 30 29  2  0
M  END
$$$$
