HQF.pdb
     RDKit          3D

 31 32  0  0  1  0  0  0  0  0999 V2000
   16.5024   -3.4226  -15.0090 N   0  0  0  0  0  0  0  0  0  0  0  0
   17.2020   -4.1524  -16.0423 C   0  0  1  0  0  0  0  0  0  0  0  0
   18.3369   -3.3115  -16.6105 C   0  0  0  0  0  0  0  0  0  0  0  0
   17.8676   -2.2036  -17.4479 C   0  0  0  0  0  0  0  0  0  0  0  0
   17.6770   -2.1610  -18.8174 C   0  0  0  0  0  0  0  0  0  0  0  0
   17.2312   -0.9274  -19.1476 N   0  0  0  0  0  0  0  0  0  0  0  0
   17.1393   -0.2036  -18.0261 C   0  0  0  0  0  0  0  0  0  0  0  0
   17.5235   -0.9782  -17.0103 N   0  0  0  0  0  0  0  0  0  0  0  0
   17.7527   -5.4157  -15.5230 C   0  0  0  0  0  0  0  0  0  0  0  0
   18.2832   -5.4255  -14.3722 O   0  0  0  0  0  0  0  0  0  0  0  0
   14.3833  -10.0405  -17.2719 N   0  0  0  0  0  0  0  0  0  0  0  0
   15.3096  -10.2001  -16.2268 C   0  0  0  0  0  0  0  0  0  0  0  0
   15.5171  -11.3417  -15.7547 O   0  0  0  0  0  0  0  0  0  0  0  0
   16.0100   -9.0175  -15.7172 C   0  0  0  0  0  0  0  0  0  0  0  0
   17.4450   -9.0596  -16.2093 C   0  0  0  0  0  0  0  0  0  0  0  0
   18.2103   -7.8649  -15.6781 C   0  0  2  0  0  0  0  0  0  0  0  0
   17.7277   -6.6291  -16.2313 N   0  0  0  0  0  0  0  0  0  0  0  0
   19.6513   -8.0562  -15.9852 C   0  0  0  0  0  0  0  0  0  0  0  0
   20.1374   -7.6682  -17.0744 O   0  0  0  0  0  0  0  0  0  0  0  0
   20.5015   -8.6765  -15.0617 N   0  0  0  0  0  0  0  0  0  0  0  0
   21.9408   -8.7960  -15.2250 C   0  0  1  0  0  0  0  0  0  0  0  0
   22.7010   -8.1459  -14.1375 C   0  0  0  0  0  0  0  0  0  0  0  0
   22.6387   -6.6787  -14.2498 C   0  0  0  0  0  0  0  0  0  0  0  0
   21.7868   -5.9351  -13.4243 C   0  0  0  0  0  0  0  0  0  0  0  0
   21.7200   -4.5703  -13.4826 C   0  0  0  0  0  0  0  0  0  0  0  0
   22.5048   -3.8675  -14.3737 C   0  0  0  0  0  0  0  0  0  0  0  0
   23.3394   -4.5785  -15.1838 C   0  0  0  0  0  0  0  0  0  0  0  0
   23.4116   -5.9569  -15.1296 C   0  0  0  0  0  0  0  0  0  0  0  0
   22.2529  -10.2272  -15.3269 C   0  0  0  0  0  0  0  0  0  0  0  0
   21.4072  -11.1249  -15.1148 O   0  0  0  0  0  0  0  0  0  0  0  0
   23.5329  -10.6685  -15.6721 O   0  0  0  0  0  0  0  0  0  0  0  0
  2  1  1  1
  3  2  1  0
  4  5  2  0
  4  3  1  0
  6  5  1  0
  7  8  2  0
  7  6  1  0
  8  4  1  0
  9 17  1  0
  9  2  1  0
 10  9  2  0
 11 12  1  0
 12 14  1  0
 13 12  2  0
 14 15  1  0
 16 15  1  6
 16 17  1  0
 18 16  1  0
 19 18  2  0
 20 18  1  0
 21 29  1  0
 21 20  1  0
 22 23  1  0
 21 22  1  1
 23 28  1  0
 24 23  2  0
 24 25  1  0
 25 26  2  0
 26 27  1  0
 28 27  2  0
 29 31  1  0
 30 29  2  0
M  END
$$$$
