HQF.pdb
     RDKit          3D

 31 32  0  0  1  0  0  0  0  0999 V2000
   24.5759  -16.4761  -19.5329 N   0  0  0  0  0  0  0  0  0  0  0  0
   23.8050  -16.7998  -18.3537 C   0  0  1  0  0  0  0  0  0  0  0  0
   22.3151  -16.7447  -18.6617 C   0  0  0  0  0  0  0  0  0  0  0  0
   21.8541  -15.4032  -19.0317 C   0  0  0  0  0  0  0  0  0  0  0  0
   22.1353  -14.1860  -18.4376 C   0  0  0  0  0  0  0  0  0  0  0  0
   21.4879  -13.2169  -19.1242 N   0  0  0  0  0  0  0  0  0  0  0  0
   20.8141  -13.7947  -20.1252 C   0  0  0  0  0  0  0  0  0  0  0  0
   21.0398  -15.1079  -20.0618 N   0  0  0  0  0  0  0  0  0  0  0  0
   24.1423  -18.1412  -17.8478 C   0  0  0  0  0  0  0  0  0  0  0  0
   24.5613  -19.0159  -18.6635 O   0  0  0  0  0  0  0  0  0  0  0  0
   27.3039  -19.6471  -13.8034 N   0  0  0  0  0  0  0  0  0  0  0  0
   27.3490  -20.9154  -14.4078 C   0  0  0  0  0  0  0  0  0  0  0  0
   28.0052  -21.8346  -13.8659 O   0  0  0  0  0  0  0  0  0  0  0  0
   26.6217  -21.1257  -15.6631 C   0  0  0  0  0  0  0  0  0  0  0  0
   26.0907  -19.7867  -16.1408 C   0  0  0  0  0  0  0  0  0  0  0  0
   24.5847  -19.7401  -15.9824 C   0  0  2  0  0  0  0  0  0  0  0  0
   24.0281  -18.5198  -16.4994 N   0  0  0  0  0  0  0  0  0  0  0  0
   24.2590  -19.9029  -14.5420 C   0  0  0  0  0  0  0  0  0  0  0  0
   25.1570  -20.1384  -13.6986 O   0  0  0  0  0  0  0  0  0  0  0  0
   22.9371  -19.7968  -14.0928 N   0  0  0  0  0  0  0  0  0  0  0  0
   22.2202  -20.8537  -13.3990 C   0  0  1  0  0  0  0  0  0  0  0  0
   22.3526  -20.7725  -11.9296 C   0  0  0  0  0  0  0  0  0  0  0  0
   23.7612  -20.8921  -11.5161 C   0  0  0  0  0  0  0  0  0  0  0  0
   24.5473  -19.7501  -11.3210 C   0  0  0  0  0  0  0  0  0  0  0  0
   25.8509  -19.8207  -10.9136 C   0  0  0  0  0  0  0  0  0  0  0  0
   26.4461  -21.0428  -10.6767 C   0  0  0  0  0  0  0  0  0  0  0  0
   25.6925  -22.1635  -10.8624 C   0  0  0  0  0  0  0  0  0  0  0  0
   24.3753  -22.0988  -11.2736 C   0  0  0  0  0  0  0  0  0  0  0  0
   20.8164  -20.7829  -13.8236 C   0  0  0  0  0  0  0  0  0  0  0  0
   19.9560  -21.6208  -13.4720 O   0  0  0  0  0  0  0  0  0  0  0  0
   20.3606  -19.7581  -14.6568 O   0  0  0  0  0  0  0  0  0  0  0  0
  2  1  1  6
  3  2  1  0
  4  5  2  0
  4  3  1  0
  6  5  1  0
  7  8  2  0
  7  6  1  0
  8  4  1  0
  9 17  1  0
  9  2  1  0
 10  9  2  0
 11 12  1  0
 12 14  1  0
 13 12  2  0
 14 15  1  0
 16 15  1  1
 16 17  1  0
 18 16  1  0
 19 18  2  0
 20 18  1  0
 21 29  1  0
 21 20  1  0
 22 23  1  0
 21 22  1  1
 23 28  1  0
 24 23  2  0
 24 25  1  0
 25 26  2  0
 26 27  1  0
 28 27  2  0
 29 31  1  0
 30 29  2  0
M  END
$$$$
