HQF.pdb
     RDKit          3D

 31 32  0  0  1  0  0  0  0  0999 V2000
   20.3234  -33.0651   -9.6300 N   0  0  0  0  0  0  0  0  0  0  0  0
   20.4913  -32.6492   -8.2557 C   0  0  1  0  0  0  0  0  0  0  0  0
   19.1403  -32.5574   -7.5599 C   0  0  0  0  0  0  0  0  0  0  0  0
   18.3109  -31.4563   -8.0584 C   0  0  0  0  0  0  0  0  0  0  0  0
   17.4326  -31.4360   -9.1270 C   0  0  0  0  0  0  0  0  0  0  0  0
   16.8895  -30.1999   -9.2090 N   0  0  0  0  0  0  0  0  0  0  0  0
   17.4033  -29.4529   -8.2252 C   0  0  0  0  0  0  0  0  0  0  0  0
   18.2560  -30.2158   -7.5392 N   0  0  0  0  0  0  0  0  0  0  0  0
   21.3507  -33.5887   -7.5156 C   0  0  0  0  0  0  0  0  0  0  0  0
   21.0381  -34.8166   -7.4924 O   0  0  0  0  0  0  0  0  0  0  0  0
   27.0077  -34.4900   -8.0034 N   0  0  0  0  0  0  0  0  0  0  0  0
   26.3033  -33.3031   -8.2691 C   0  0  0  0  0  0  0  0  0  0  0  0
   26.7898  -32.4596   -9.0571 O   0  0  0  0  0  0  0  0  0  0  0  0
   25.0112  -33.0865   -7.6114 C   0  0  0  0  0  0  0  0  0  0  0  0
   24.7013  -34.2973   -6.7507 C   0  0  0  0  0  0  0  0  0  0  0  0
   23.3376  -34.1417   -6.1091 C   0  0  2  0  0  0  0  0  0  0  0  0
   22.5121  -33.2063   -6.8231 N   0  0  0  0  0  0  0  0  0  0  0  0
   23.5284  -33.7121   -4.6997 C   0  0  0  0  0  0  0  0  0  0  0  0
   23.7799  -32.5164   -4.4165 O   0  0  0  0  0  0  0  0  0  0  0  0
   23.4313  -34.6365   -3.6525 N   0  0  0  0  0  0  0  0  0  0  0  0
   23.5316  -34.2924   -2.2440 C   0  0  1  0  0  0  0  0  0  0  0  0
   22.3275  -34.6633   -1.4721 C   0  0  0  0  0  0  0  0  0  0  0  0
   21.2248  -33.7197   -1.7228 C   0  0  0  0  0  0  0  0  0  0  0  0
   20.2372  -34.0116   -2.6712 C   0  0  0  0  0  0  0  0  0  0  0  0
   19.1852  -33.1718   -2.9136 C   0  0  0  0  0  0  0  0  0  0  0  0
   19.0598  -31.9866   -2.2183 C   0  0  0  0  0  0  0  0  0  0  0  0
   20.0142  -31.6893   -1.2914 C   0  0  0  0  0  0  0  0  0  0  0  0
   21.0789  -32.5334   -1.0419 C   0  0  0  0  0  0  0  0  0  0  0  0
   24.7373  -34.9450   -1.7183 C   0  0  0  0  0  0  0  0  0  0  0  0
   25.1767  -34.7357   -0.5654 O   0  0  0  0  0  0  0  0  0  0  0  0
   25.4693  -35.8496   -2.4918 O   0  0  0  0  0  0  0  0  0  0  0  0
  2  1  1  6
  3  2  1  0
  4  5  2  0
  4  3  1  0
  6  5  1  0
  7  8  2  0
  7  6  1  0
  8  4  1  0
  9 17  1  0
  9  2  1  0
 10  9  2  0
 11 12  1  0
 12 14  1  0
 13 12  2  0
 14 15  1  0
 16 15  1  6
 16 17  1  0
 18 16  1  0
 19 18  2  0
 20 18  1  0
 21 29  1  0
 21 20  1  0
 22 23  1  0
 21 22  1  1
 23 28  1  0
 24 23  2  0
 24 25  1  0
 25 26  2  0
 26 27  1  0
 28 27  2  0
 29 31  1  0
 30 29  2  0
M  END
$$$$
