HQF.pdb
     RDKit          3D

 31 32  0  0  1  0  0  0  0  0999 V2000
   23.8443  -19.5408  -15.7474 N   0  0  0  0  0  0  0  0  0  0  0  0
   24.1617  -19.1158  -14.4027 C   0  0  1  0  0  0  0  0  0  0  0  0
   22.8917  -18.9850  -13.5734 C   0  0  0  0  0  0  0  0  0  0  0  0
   21.9178  -18.0573  -14.1564 C   0  0  0  0  0  0  0  0  0  0  0  0
   21.9877  -17.3439  -15.3395 C   0  0  0  0  0  0  0  0  0  0  0  0
   20.8543  -16.6166  -15.4663 N   0  0  0  0  0  0  0  0  0  0  0  0
   20.0837  -16.8564  -14.3993 C   0  0  0  0  0  0  0  0  0  0  0  0
   20.7305  -17.7229  -13.6179 N   0  0  0  0  0  0  0  0  0  0  0  0
   25.0710  -20.0682  -13.7431 C   0  0  0  0  0  0  0  0  0  0  0  0
   24.7200  -21.2819  -13.6444 O   0  0  0  0  0  0  0  0  0  0  0  0
   28.4390  -22.4102  -14.6378 N   0  0  0  0  0  0  0  0  0  0  0  0
   28.6213  -21.1418  -15.2156 C   0  0  0  0  0  0  0  0  0  0  0  0
   28.6667  -21.0322  -16.4626 O   0  0  0  0  0  0  0  0  0  0  0  0
   28.7537  -19.9772  -14.3352 C   0  0  0  0  0  0  0  0  0  0  0  0
   28.6348  -20.4463  -12.8968 C   0  0  0  0  0  0  0  0  0  0  0  0
   27.1775  -20.6533  -12.5381 C   0  0  2  0  0  0  0  0  0  0  0  0
   26.3210  -19.7134  -13.2083 N   0  0  0  0  0  0  0  0  0  0  0  0
   27.0366  -20.5408  -11.0633 C   0  0  0  0  0  0  0  0  0  0  0  0
   27.9518  -20.0468  -10.3622 O   0  0  0  0  0  0  0  0  0  0  0  0
   25.8745  -20.9857  -10.4214 N   0  0  0  0  0  0  0  0  0  0  0  0
   25.6401  -20.8871   -8.9904 C   0  0  1  0  0  0  0  0  0  0  0  0
   26.0666  -19.5909   -8.4237 C   0  0  0  0  0  0  0  0  0  0  0  0
   27.0623  -19.7806   -7.3551 C   0  0  0  0  0  0  0  0  0  0  0  0
   27.9989  -18.7809   -7.0664 C   0  0  0  0  0  0  0  0  0  0  0  0
   28.9222  -18.9109   -6.0659 C   0  0  0  0  0  0  0  0  0  0  0  0
   28.9621  -20.0532   -5.2929 C   0  0  0  0  0  0  0  0  0  0  0  0
   28.0558  -21.0352   -5.5626 C   0  0  0  0  0  0  0  0  0  0  0  0
   27.1208  -20.9098   -6.5717 C   0  0  0  0  0  0  0  0  0  0  0  0
   24.2113  -21.1370   -8.7622 C   0  0  0  0  0  0  0  0  0  0  0  0
   23.3478  -21.0187   -9.6602 O   0  0  0  0  0  0  0  0  0  0  0  0
   23.7334  -21.5268   -7.5083 O   0  0  0  0  0  0  0  0  0  0  0  0
  2  1  1  6
  3  2  1  0
  4  5  2  0
  4  3  1  0
  6  5  1  0
  7  8  2  0
  7  6  1  0
  8  4  1  0
  9 17  1  0
  9  2  1  0
 10  9  2  0
 11 12  1  0
 12 14  1  0
 13 12  2  0
 14 15  1  0
 16 15  1  1
 16 17  1  0
 18 16  1  0
 19 18  2  0
 20 18  1  0
 21 29  1  0
 21 20  1  0
 22 23  1  0
 21 22  1  6
 23 28  1  0
 24 23  2  0
 24 25  1  0
 25 26  2  0
 26 27  1  0
 28 27  2  0
 29 31  1  0
 30 29  2  0
M  END
$$$$
