HQF.pdb
     RDKit          3D

 31 32  0  0  1  0  0  0  0  0999 V2000
   13.3694  -22.1809    1.4081 N   0  0  0  0  0  0  0  0  0  0  0  0
   14.7008  -22.1844    1.9713 C   0  0  1  0  0  0  0  0  0  0  0  0
   15.7294  -21.8347    0.9048 C   0  0  0  0  0  0  0  0  0  0  0  0
   15.8474  -22.8588   -0.1374 C   0  0  0  0  0  0  0  0  0  0  0  0
   15.4622  -22.8054   -1.4650 C   0  0  0  0  0  0  0  0  0  0  0  0
   15.7699  -23.9875   -2.0460 N   0  0  0  0  0  0  0  0  0  0  0  0
   16.3338  -24.7723   -1.1207 C   0  0  0  0  0  0  0  0  0  0  0  0
   16.3762  -24.0861    0.0225 N   0  0  0  0  0  0  0  0  0  0  0  0
   14.8127  -21.2229    3.0812 C   0  0  0  0  0  0  0  0  0  0  0  0
   14.1275  -20.1577    3.0403 O   0  0  0  0  0  0  0  0  0  0  0  0
   14.8523  -23.8487    8.6536 N   0  0  0  0  0  0  0  0  0  0  0  0
   15.6930  -23.0400    7.8695 C   0  0  0  0  0  0  0  0  0  0  0  0
   16.8900  -23.3707    7.7051 O   0  0  0  0  0  0  0  0  0  0  0  0
   15.1399  -21.8253    7.2634 C   0  0  0  0  0  0  0  0  0  0  0  0
   16.2593  -21.0938    6.5458 C   0  0  0  0  0  0  0  0  0  0  0  0
   15.7331  -20.4618    5.2734 C   0  0  2  0  0  0  0  0  0  0  0  0
   15.6424  -21.4128    4.1994 N   0  0  0  0  0  0  0  0  0  0  0  0
   16.6252  -19.3317    4.9069 C   0  0  0  0  0  0  0  0  0  0  0  0
   17.6436  -19.5154    4.1980 O   0  0  0  0  0  0  0  0  0  0  0  0
   16.3477  -18.0317    5.3467 N   0  0  0  0  0  0  0  0  0  0  0  0
   17.1566  -16.8678    5.0251 C   0  0  1  0  0  0  0  0  0  0  0  0
   16.4247  -15.8570    4.2341 C   0  0  0  0  0  0  0  0  0  0  0  0
   17.3177  -14.7642    3.8126 C   0  0  0  0  0  0  0  0  0  0  0  0
   17.3126  -13.5376    4.4874 C   0  0  0  0  0  0  0  0  0  0  0  0
   18.1444  -12.5088    4.1407 C   0  0  0  0  0  0  0  0  0  0  0  0
   19.0332  -12.6482    3.0945 C   0  0  0  0  0  0  0  0  0  0  0  0
   19.0494  -13.8374    2.4283 C   0  0  0  0  0  0  0  0  0  0  0  0
   18.2119  -14.8803    2.7738 C   0  0  0  0  0  0  0  0  0  0  0  0
   17.6508  -16.3140    6.2920 C   0  0  0  0  0  0  0  0  0  0  0  0
   16.9835  -16.3355    7.3504 O   0  0  0  0  0  0  0  0  0  0  0  0
   18.9141  -15.7239    6.3829 O   0  0  0  0  0  0  0  0  0  0  0  0
  2  1  1  6
  3  2  1  0
  4  5  2  0
  4  3  1  0
  6  5  1  0
  7  8  2  0
  7  6  1  0
  8  4  1  0
  9 17  1  0
  9  2  1  0
 10  9  2  0
 11 12  1  0
 12 14  1  0
 13 12  2  0
 14 15  1  0
 16 15  1  1
 16 17  1  0
 18 16  1  0
 19 18  2  0
 20 18  1  0
 21 29  1  0
 21 20  1  0
 22 23  1  0
 21 22  1  1
 23 28  1  0
 24 23  2  0
 24 25  1  0
 25 26  2  0
 26 27  1  0
 28 27  2  0
 29 31  1  0
 30 29  2  0
M  END
$$$$
