VHF.pdb
     RDKit          3D

 29 30  0  0  1  0  0  0  0  0999 V2000
    8.0850  -12.0451   18.9390 C   0  0  0  0  0  0  0  0  0  0  0  0
    7.9827  -13.1070   20.0057 C   0  0  2  0  0  0  0  0  0  0  0  0
    8.3414  -12.5731   21.3710 C   0  0  0  0  0  0  0  0  0  0  0  0
    8.6838  -14.3842   19.6777 C   0  0  2  0  0  0  0  0  0  0  0  0
    8.0456  -14.8601   18.4287 N   0  0  0  0  0  0  0  0  0  0  0  0
    8.5882  -15.4463   20.6772 C   0  0  0  0  0  0  0  0  0  0  0  0
    7.5291  -16.1659   20.7510 O   0  0  0  0  0  0  0  0  0  0  0  0
    9.6003  -15.7523   21.5945 N   0  0  0  0  0  0  0  0  0  0  0  0
    9.4811  -16.9140   22.5534 C   0  0  1  0  0  0  0  0  0  0  0  0
   10.6351  -17.7617   22.1830 C   0  0  0  0  0  0  0  0  0  0  0  0
   10.5517  -18.7243   21.1062 C   0  0  0  0  0  0  0  0  0  0  0  0
    9.7243  -19.7239   20.7253 C   0  0  0  0  0  0  0  0  0  0  0  0
   10.1153  -20.2725   19.5514 N   0  0  0  0  0  0  0  0  0  0  0  0
   11.1999  -19.6042   19.1966 C   0  0  0  0  0  0  0  0  0  0  0  0
   11.4991  -18.6687   20.0948 N   0  0  0  0  0  0  0  0  0  0  0  0
    9.7186  -16.2964   23.9006 C   0  0  0  0  0  0  0  0  0  0  0  0
   10.7630  -15.5643   24.0282 O   0  0  0  0  0  0  0  0  0  0  0  0
    8.8486  -16.4931   24.9803 N   0  0  0  0  0  0  0  0  0  0  0  0
    9.2062  -15.9169   26.2873 C   0  0  1  0  0  0  0  0  0  0  0  0
    7.9188  -15.5760   27.0065 C   0  0  0  0  0  0  0  0  0  0  0  0
    7.3947  -14.2507   26.6015 C   0  0  0  0  0  0  0  0  0  0  0  0
    8.2339  -13.1344   26.5976 C   0  0  0  0  0  0  0  0  0  0  0  0
    7.7254  -11.9199   26.2071 C   0  0  0  0  0  0  0  0  0  0  0  0
    6.4093  -11.8147   25.8275 C   0  0  0  0  0  0  0  0  0  0  0  0
    5.5883  -12.9268   25.8353 C   0  0  0  0  0  0  0  0  0  0  0  0
    6.0724  -14.1547   26.2219 C   0  0  0  0  0  0  0  0  0  0  0  0
    9.9898  -16.9282   27.0230 C   0  0  0  0  0  0  0  0  0  0  0  0
   10.1864  -18.1823   26.4713 O   0  0  0  0  0  0  0  0  0  0  0  0
   10.5038  -16.7205   28.1469 O   0  0  0  0  0  0  0  0  0  0  0  0
  2  1  1  6
  2  3  1  0
  4  2  1  0
  4  5  1  6
  6  4  1  0
  7  6  2  0
  8  6  1  0
  9  8  1  0
  9 10  1  6
 10 11  1  0
 11 15  1  0
 12 11  2  0
 12 13  1  0
 13 14  1  0
 15 14  2  0
 16 17  2  0
 16  9  1  0
 18 16  1  0
 19 18  1  0
 19 20  1  1
 21 22  2  0
 21 20  1  0
 23 22  1  0
 24 23  2  0
 25 24  1  0
 25 26  2  0
 26 21  1  0
 27 19  1  0
 28 27  1  0
 29 27  2  0
M  END
$$$$
