VHF.pdb
     RDKit          3D

 29 30  0  0  1  0  0  0  0  0999 V2000
    7.2077  -12.7627   21.0422 C   0  0  0  0  0  0  0  0  0  0  0  0
    8.4567  -12.9987   20.2296 C   0  0  2  0  0  0  0  0  0  0  0  0
    8.6000  -11.9973   19.1095 C   0  0  0  0  0  0  0  0  0  0  0  0
    8.6438  -14.4093   19.7766 C   0  0  2  0  0  0  0  0  0  0  0  0
    7.6368  -14.6037   18.7078 N   0  0  0  0  0  0  0  0  0  0  0  0
    8.4443  -15.4431   20.7904 C   0  0  0  0  0  0  0  0  0  0  0  0
    7.3043  -16.0194   20.9051 O   0  0  0  0  0  0  0  0  0  0  0  0
    9.4376  -15.8707   21.6792 N   0  0  0  0  0  0  0  0  0  0  0  0
    9.2118  -17.0218   22.6316 C   0  0  1  0  0  0  0  0  0  0  0  0
   10.2633  -17.9834   22.2354 C   0  0  0  0  0  0  0  0  0  0  0  0
   10.0062  -19.0302   21.2704 C   0  0  0  0  0  0  0  0  0  0  0  0
    9.0811  -19.9962   21.0711 C   0  0  0  0  0  0  0  0  0  0  0  0
    9.3112  -20.6755   19.9233 N   0  0  0  0  0  0  0  0  0  0  0  0
   10.3935  -20.1236   19.4008 C   0  0  0  0  0  0  0  0  0  0  0  0
   10.8444  -19.1358   20.1704 N   0  0  0  0  0  0  0  0  0  0  0  0
    9.5353  -16.4449   23.9790 C   0  0  0  0  0  0  0  0  0  0  0  0
   10.5667  -15.6875   24.0543 O   0  0  0  0  0  0  0  0  0  0  0  0
    8.7560  -16.7045   25.1133 N   0  0  0  0  0  0  0  0  0  0  0  0
    9.1460  -16.0876   26.3922 C   0  0  1  0  0  0  0  0  0  0  0  0
    7.8775  -15.6905   27.1161 C   0  0  0  0  0  0  0  0  0  0  0  0
    7.4168  -14.3388   26.7210 C   0  0  0  0  0  0  0  0  0  0  0  0
    8.2253  -13.2244   26.9553 C   0  0  0  0  0  0  0  0  0  0  0  0
    7.7790  -11.9844   26.5691 C   0  0  0  0  0  0  0  0  0  0  0  0
    6.5538  -11.8523   25.9618 C   0  0  0  0  0  0  0  0  0  0  0  0
    5.7625  -12.9627   25.7350 C   0  0  0  0  0  0  0  0  0  0  0  0
    6.1857  -14.2158   26.1119 C   0  0  0  0  0  0  0  0  0  0  0  0
    9.9177  -17.0882   27.1547 C   0  0  0  0  0  0  0  0  0  0  0  0
   10.0583  -18.3730   26.6595 O   0  0  0  0  0  0  0  0  0  0  0  0
   10.4701  -16.8443   28.2528 O   0  0  0  0  0  0  0  0  0  0  0  0
  2  1  1  6
  2  3  1  0
  4  2  1  0
  4  5  1  6
  6  4  1  0
  7  6  2  0
  8  6  1  0
  9  8  1  0
  9 10  1  6
 10 11  1  0
 11 15  1  0
 12 11  2  0
 12 13  1  0
 13 14  1  0
 15 14  2  0
 16 17  2  0
 16  9  1  0
 18 16  1  0
 19 18  1  0
 19 20  1  1
 21 22  2  0
 21 20  1  0
 23 22  1  0
 24 23  2  0
 25 24  1  0
 25 26  2  0
 26 21  1  0
 27 19  1  0
 28 27  1  0
 29 27  2  0
M  END
$$$$
