VHF.pdb
     RDKit          3D

 29 30  0  0  1  0  0  0  0  0999 V2000
    6.9154  -13.2153   20.4576 C   0  0  0  0  0  0  0  0  0  0  0  0
    8.3479  -13.0706   20.0073 C   0  0  2  0  0  0  0  0  0  0  0  0
    8.5184  -11.9434   19.0182 C   0  0  0  0  0  0  0  0  0  0  0  0
    8.9870  -14.3425   19.5559 C   0  0  2  0  0  0  0  0  0  0  0  0
    8.3229  -14.6690   18.2728 N   0  0  0  0  0  0  0  0  0  0  0  0
    8.8448  -15.4882   20.4524 C   0  0  0  0  0  0  0  0  0  0  0  0
    8.3117  -16.5746   20.0274 O   0  0  0  0  0  0  0  0  0  0  0  0
    9.2613  -15.4937   21.7887 N   0  0  0  0  0  0  0  0  0  0  0  0
    9.1338  -16.7235   22.6573 C   0  0  1  0  0  0  0  0  0  0  0  0
   10.1590  -17.6281   22.0933 C   0  0  0  0  0  0  0  0  0  0  0  0
   10.3972  -18.9420   22.6501 C   0  0  0  0  0  0  0  0  0  0  0  0
   11.0826  -19.4755   23.6865 C   0  0  0  0  0  0  0  0  0  0  0  0
   10.8925  -20.8128   23.7723 N   0  0  0  0  0  0  0  0  0  0  0  0
   10.0764  -21.1150   22.7764 C   0  0  0  0  0  0  0  0  0  0  0  0
    9.7529  -20.0291   22.0784 N   0  0  0  0  0  0  0  0  0  0  0  0
    9.5661  -16.2531   24.0155 C   0  0  0  0  0  0  0  0  0  0  0  0
   10.6193  -15.5245   24.0700 O   0  0  0  0  0  0  0  0  0  0  0  0
    8.8622  -16.5787   25.1817 N   0  0  0  0  0  0  0  0  0  0  0  0
    9.3848  -16.1069   26.4748 C   0  0  1  0  0  0  0  0  0  0  0  0
    8.2046  -15.6665   27.3139 C   0  0  0  0  0  0  0  0  0  0  0  0
    7.6435  -14.3782   26.8440 C   0  0  0  0  0  0  0  0  0  0  0  0
    8.3538  -13.1910   27.0352 C   0  0  0  0  0  0  0  0  0  0  0  0
    7.8160  -12.0122   26.5800 C   0  0  0  0  0  0  0  0  0  0  0  0
    6.5968  -12.0110   25.9470 C   0  0  0  0  0  0  0  0  0  0  0  0
    5.9032  -13.1925   25.7634 C   0  0  0  0  0  0  0  0  0  0  0  0
    6.4192  -14.3867   26.2095 C   0  0  0  0  0  0  0  0  0  0  0  0
   10.1095  -17.2296   27.1011 C   0  0  0  0  0  0  0  0  0  0  0  0
   10.1073  -18.4742   26.4955 O   0  0  0  0  0  0  0  0  0  0  0  0
   10.7452  -17.1277   28.1763 O   0  0  0  0  0  0  0  0  0  0  0  0
  2  1  1  6
  2  3  1  0
  4  2  1  0
  4  5  1  6
  6  4  1  0
  7  6  2  0
  8  6  1  0
  9  8  1  0
  9 10  1  6
 10 11  1  0
 11 15  1  0
 12 11  2  0
 12 13  1  0
 13 14  1  0
 15 14  2  0
 16 17  2  0
 16  9  1  0
 18 16  1  0
 19 18  1  0
 19 20  1  1
 21 22  2  0
 21 20  1  0
 23 22  1  0
 24 23  2  0
 25 24  1  0
 25 26  2  0
 26 21  1  0
 27 19  1  0
 28 27  1  0
 29 27  2  0
M  END
$$$$
