VHF.pdb
     RDKit          3D

 29 30  0  0  1  0  0  0  0  0999 V2000
    8.0353  -12.2194   18.8408 C   0  0  0  0  0  0  0  0  0  0  0  0
    7.8579  -13.1979   19.9754 C   0  0  2  0  0  0  0  0  0  0  0  0
    8.2165  -12.5883   21.3087 C   0  0  0  0  0  0  0  0  0  0  0  0
    8.4990  -14.5280   19.7523 C   0  0  2  0  0  0  0  0  0  0  0  0
    7.8616  -15.0581   18.5248 N   0  0  0  0  0  0  0  0  0  0  0  0
    8.3300  -15.5115   20.8203 C   0  0  0  0  0  0  0  0  0  0  0  0
    7.2257  -16.1540   20.9335 O   0  0  0  0  0  0  0  0  0  0  0  0
    9.3162  -15.8200   21.7645 N   0  0  0  0  0  0  0  0  0  0  0  0
    9.1201  -16.9087   22.7938 C   0  0  1  0  0  0  0  0  0  0  0  0
   10.1021  -17.9327   22.3756 C   0  0  0  0  0  0  0  0  0  0  0  0
    9.7615  -18.9593   21.4148 C   0  0  0  0  0  0  0  0  0  0  0  0
    8.6579  -19.6431   21.0364 C   0  0  0  0  0  0  0  0  0  0  0  0
    8.9191  -20.4740   20.0005 N   0  0  0  0  0  0  0  0  0  0  0  0
   10.2024  -20.3038   19.7299 C   0  0  0  0  0  0  0  0  0  0  0  0
   10.7479  -19.4078   20.5490 N   0  0  0  0  0  0  0  0  0  0  0  0
    9.5660  -16.2752   24.0794 C   0  0  0  0  0  0  0  0  0  0  0  0
   10.6471  -15.5875   24.0439 O   0  0  0  0  0  0  0  0  0  0  0  0
    8.8456  -16.4116   25.2727 N   0  0  0  0  0  0  0  0  0  0  0  0
    9.3896  -15.8019   26.4976 C   0  0  1  0  0  0  0  0  0  0  0  0
    8.2214  -15.2957   27.3162 C   0  0  0  0  0  0  0  0  0  0  0  0
    7.6437  -14.0564   26.7457 C   0  0  0  0  0  0  0  0  0  0  0  0
    6.4022  -14.0891   26.1069 C   0  0  0  0  0  0  0  0  0  0  0  0
    5.8844  -12.9239   25.5968 C   0  0  0  0  0  0  0  0  0  0  0  0
    6.5850  -11.7484   25.7180 C   0  0  0  0  0  0  0  0  0  0  0  0
    7.8129  -11.7285   26.3525 C   0  0  0  0  0  0  0  0  0  0  0  0
    8.3538  -12.8811   26.8723 C   0  0  0  0  0  0  0  0  0  0  0  0
   10.1481  -16.8435   27.2171 C   0  0  0  0  0  0  0  0  0  0  0  0
   10.1282  -18.1497   26.7600 O   0  0  0  0  0  0  0  0  0  0  0  0
   10.8289  -16.6167   28.2445 O   0  0  0  0  0  0  0  0  0  0  0  0
  2  1  1  6
  2  3  1  0
  4  2  1  0
  4  5  1  6
  6  4  1  0
  7  6  2  0
  8  6  1  0
  9  8  1  0
  9 10  1  6
 10 11  1  0
 11 15  1  0
 12 11  2  0
 12 13  1  0
 13 14  1  0
 15 14  2  0
 16 17  2  0
 16  9  1  0
 18 16  1  0
 19 18  1  0
 19 20  1  1
 21 22  2  0
 21 20  1  0
 23 22  1  0
 24 23  2  0
 25 24  1  0
 25 26  2  0
 26 21  1  0
 27 19  1  0
 28 27  1  0
 29 27  2  0
M  END
$$$$
