VHF.pdb
     RDKit          3D

 29 30  0  0  1  0  0  0  0  0999 V2000
    6.6661  -17.5317   18.9780 C   0  0  0  0  0  0  0  0  0  0  0  0
    7.4008  -18.8132   19.2845 C   0  0  2  0  0  0  0  0  0  0  0  0
    6.5038  -20.0212   19.1659 C   0  0  0  0  0  0  0  0  0  0  0  0
    8.1813  -18.7907   20.5574 C   0  0  2  0  0  0  0  0  0  0  0  0
    7.1649  -18.8912   21.6302 N   0  0  0  0  0  0  0  0  0  0  0  0
    8.9873  -17.5953   20.7975 C   0  0  0  0  0  0  0  0  0  0  0  0
   10.0047  -17.3468   20.0571 O   0  0  0  0  0  0  0  0  0  0  0  0
    8.7260  -16.6645   21.8097 N   0  0  0  0  0  0  0  0  0  0  0  0
    9.6466  -15.4957   22.0735 C   0  0  1  0  0  0  0  0  0  0  0  0
    8.8419  -14.3393   21.6233 C   0  0  0  0  0  0  0  0  0  0  0  0
    8.7463  -13.9833   20.2243 C   0  0  0  0  0  0  0  0  0  0  0  0
    9.2159  -14.4467   19.0439 C   0  0  0  0  0  0  0  0  0  0  0  0
    8.7358  -13.7289   18.0017 N   0  0  0  0  0  0  0  0  0  0  0  0
    7.9558  -12.8071   18.5412 C   0  0  0  0  0  0  0  0  0  0  0  0
    7.9306  -12.9199   19.8670 N   0  0  0  0  0  0  0  0  0  0  0  0
    9.7780  -15.4695   23.5685 C   0  0  0  0  0  0  0  0  0  0  0  0
   10.6388  -14.6578   24.0619 O   0  0  0  0  0  0  0  0  0  0  0  0
    9.0016  -16.2816   24.4046 N   0  0  0  0  0  0  0  0  0  0  0  0
    9.2121  -16.1997   25.8596 C   0  0  1  0  0  0  0  0  0  0  0  0
    7.8518  -16.0969   26.5152 C   0  0  0  0  0  0  0  0  0  0  0  0
    7.3423  -14.7057   26.5138 C   0  0  0  0  0  0  0  0  0  0  0  0
    8.1017  -13.6786   27.0786 C   0  0  0  0  0  0  0  0  0  0  0  0
    7.6110  -12.3962   27.0540 C   0  0  0  0  0  0  0  0  0  0  0  0
    6.3900  -12.1374   26.4800 C   0  0  0  0  0  0  0  0  0  0  0  0
    5.6474  -13.1622   25.9241 C   0  0  0  0  0  0  0  0  0  0  0  0
    6.1158  -14.4552   25.9354 C   0  0  0  0  0  0  0  0  0  0  0  0
    9.9273  -17.4211   26.2777 C   0  0  0  0  0  0  0  0  0  0  0  0
   10.3892  -17.5380   27.5772 O   0  0  0  0  0  0  0  0  0  0  0  0
   10.1505  -18.3874   25.5116 O   0  0  0  0  0  0  0  0  0  0  0  0
  2  1  1  1
  2  3  1  0
  4  2  1  0
  4  5  1  1
  6  4  1  0
  7  6  2  0
  8  6  1  0
  9  8  1  0
  9 10  1  1
 10 11  1  0
 11 15  1  0
 12 11  2  0
 12 13  1  0
 13 14  1  0
 15 14  2  0
 16 17  2  0
 16  9  1  0
 18 16  1  0
 19 18  1  0
 19 20  1  1
 21 22  2  0
 21 20  1  0
 23 22  1  0
 24 23  2  0
 25 24  1  0
 25 26  2  0
 26 21  1  0
 27 19  1  0
 28 27  1  0
 29 27  2  0
M  END
$$$$
