VHF.pdb
     RDKit          3D

 29 30  0  0  1  0  0  0  0  0999 V2000
   12.9571  -19.7502   20.1977 C   0  0  0  0  0  0  0  0  0  0  0  0
   12.3353  -18.6321   20.9971 C   0  0  2  0  0  0  0  0  0  0  0  0
   11.6056  -19.1456   22.2144 C   0  0  0  0  0  0  0  0  0  0  0  0
   11.5211  -17.6734   20.1920 C   0  0  2  0  0  0  0  0  0  0  0  0
   12.4813  -17.0557   19.2483 N   0  0  0  0  0  0  0  0  0  0  0  0
   10.8584  -16.6059   20.9389 C   0  0  0  0  0  0  0  0  0  0  0  0
   11.5455  -15.6350   21.4187 O   0  0  0  0  0  0  0  0  0  0  0  0
    9.4804  -16.5574   21.1801 N   0  0  0  0  0  0  0  0  0  0  0  0
    8.8471  -15.4250   21.9544 C   0  0  1  0  0  0  0  0  0  0  0  0
    7.6297  -15.1330   21.1670 C   0  0  0  0  0  0  0  0  0  0  0  0
    7.6899  -14.3825   19.9316 C   0  0  0  0  0  0  0  0  0  0  0  0
    8.0694  -13.1470   19.5339 C   0  0  0  0  0  0  0  0  0  0  0  0
    7.9639  -13.0024   18.1923 N   0  0  0  0  0  0  0  0  0  0  0  0
    7.5139  -14.1644   17.7493 C   0  0  0  0  0  0  0  0  0  0  0  0
    7.3355  -15.0208   18.7523 N   0  0  0  0  0  0  0  0  0  0  0  0
    8.4648  -16.0517   23.2636 C   0  0  0  0  0  0  0  0  0  0  0  0
    8.2145  -17.3088   23.2548 O   0  0  0  0  0  0  0  0  0  0  0  0
    8.3851  -15.3164   24.4528 N   0  0  0  0  0  0  0  0  0  0  0  0
    8.1550  -16.0399   25.7144 C   0  0  1  0  0  0  0  0  0  0  0  0
    8.4521  -15.0861   26.8515 C   0  0  0  0  0  0  0  0  0  0  0  0
    7.7705  -13.7829   26.6709 C   0  0  0  0  0  0  0  0  0  0  0  0
    6.3859  -13.6867   26.8254 C   0  0  0  0  0  0  0  0  0  0  0  0
    5.7807  -12.4646   26.6634 C   0  0  0  0  0  0  0  0  0  0  0  0
    6.5348  -11.3588   26.3540 C   0  0  0  0  0  0  0  0  0  0  0  0
    7.9047  -11.4664   26.2037 C   0  0  0  0  0  0  0  0  0  0  0  0
    8.5355  -12.6783   26.3606 C   0  0  0  0  0  0  0  0  0  0  0  0
    6.7465  -16.4806   25.7271 C   0  0  0  0  0  0  0  0  0  0  0  0
    6.3117  -17.3696   26.6947 O   0  0  0  0  0  0  0  0  0  0  0  0
    5.8935  -16.0917   24.8955 O   0  0  0  0  0  0  0  0  0  0  0  0
  2  1  1  6
  2  3  1  0
  4  2  1  0
  4  5  1  6
  6  4  1  0
  7  6  2  0
  8  6  1  0
  9  8  1  0
  9 10  1  6
 10 11  1  0
 11 15  1  0
 12 11  2  0
 12 13  1  0
 13 14  1  0
 15 14  2  0
 16 17  2  0
 16  9  1  0
 18 16  1  0
 19 18  1  0
 19 20  1  1
 21 22  2  0
 21 20  1  0
 23 22  1  0
 24 23  2  0
 25 24  1  0
 25 26  2  0
 26 21  1  0
 27 19  1  0
 28 27  1  0
 29 27  2  0
M  END
$$$$
