VHF.pdb
     RDKit          3D

 29 30  0  0  1  0  0  0  0  0999 V2000
    7.8609  -12.3213   18.3916 C   0  0  0  0  0  0  0  0  0  0  0  0
    7.9918  -13.3904   19.4480 C   0  0  2  0  0  0  0  0  0  0  0  0
    8.3893  -12.8169   20.7863 C   0  0  0  0  0  0  0  0  0  0  0  0
    8.8274  -14.5606   19.0450 C   0  0  2  0  0  0  0  0  0  0  0  0
    8.1908  -15.0775   17.8115 N   0  0  0  0  0  0  0  0  0  0  0  0
    8.9135  -15.6537   20.0114 C   0  0  0  0  0  0  0  0  0  0  0  0
    7.9341  -16.4708   20.1465 O   0  0  0  0  0  0  0  0  0  0  0  0
   10.0231  -15.8886   20.8317 N   0  0  0  0  0  0  0  0  0  0  0  0
   10.0046  -16.9437   21.9132 C   0  0  1  0  0  0  0  0  0  0  0  0
   11.2110  -17.7433   21.6087 C   0  0  0  0  0  0  0  0  0  0  0  0
   11.1612  -18.8744   20.7080 C   0  0  0  0  0  0  0  0  0  0  0  0
   10.2546  -19.4602   19.8934 C   0  0  0  0  0  0  0  0  0  0  0  0
   10.7957  -20.4965   19.2115 N   0  0  0  0  0  0  0  0  0  0  0  0
   12.0565  -20.5554   19.6063 C   0  0  0  0  0  0  0  0  0  0  0  0
   12.3214  -19.6055   20.5001 N   0  0  0  0  0  0  0  0  0  0  0  0
   10.2186  -16.1671   23.1796 C   0  0  0  0  0  0  0  0  0  0  0  0
   10.8720  -15.0684   23.0840 O   0  0  0  0  0  0  0  0  0  0  0  0
    9.7302  -16.6017   24.4182 N   0  0  0  0  0  0  0  0  0  0  0  0
    9.2698  -15.5931   25.3871 C   0  0  1  0  0  0  0  0  0  0  0  0
    8.2019  -14.7606   24.7107 C   0  0  0  0  0  0  0  0  0  0  0  0
    7.5758  -13.7989   25.6479 C   0  0  0  0  0  0  0  0  0  0  0  0
    6.1909  -13.7933   25.8281 C   0  0  0  0  0  0  0  0  0  0  0  0
    5.6375  -12.8991   26.7112 C   0  0  0  0  0  0  0  0  0  0  0  0
    6.4426  -12.0267   27.4026 C   0  0  0  0  0  0  0  0  0  0  0  0
    7.8121  -12.0416   27.2160 C   0  0  0  0  0  0  0  0  0  0  0  0
    8.3918  -12.9271   26.3377 C   0  0  0  0  0  0  0  0  0  0  0  0
    8.7379  -16.3110   26.5617 C   0  0  0  0  0  0  0  0  0  0  0  0
    9.0919  -15.9036   27.8363 O   0  0  0  0  0  0  0  0  0  0  0  0
    7.9646  -17.2936   26.4790 O   0  0  0  0  0  0  0  0  0  0  0  0
  2  1  1  6
  2  3  1  0
  4  2  1  0
  4  5  1  6
  6  4  1  0
  7  6  2  0
  8  6  1  0
  9  8  1  0
  9 10  1  6
 10 11  1  0
 11 15  1  0
 12 11  2  0
 12 13  1  0
 13 14  1  0
 15 14  2  0
 16 17  2  0
 16  9  1  0
 18 16  1  0
 19 18  1  0
 19 20  1  6
 21 22  2  0
 21 20  1  0
 23 22  1  0
 24 23  2  0
 25 24  1  0
 25 26  2  0
 26 21  1  0
 27 19  1  0
 28 27  1  0
 29 27  2  0
M  END
$$$$
