VHF.pdb
     RDKit          3D

 29 30  0  0  1  0  0  0  0  0999 V2000
    6.0596  -19.3351   23.6189 C   0  0  0  0  0  0  0  0  0  0  0  0
    5.1332  -18.3617   22.9332 C   0  0  2  0  0  0  0  0  0  0  0  0
    3.7297  -18.9044   22.8156 C   0  0  0  0  0  0  0  0  0  0  0  0
    5.6543  -17.8121   21.6462 C   0  0  2  0  0  0  0  0  0  0  0  0
    5.6148  -18.9515   20.7006 N   0  0  0  0  0  0  0  0  0  0  0  0
    7.0175  -17.2856   21.6759 C   0  0  0  0  0  0  0  0  0  0  0  0
    8.0007  -18.0267   21.3164 O   0  0  0  0  0  0  0  0  0  0  0  0
    7.3470  -15.9866   22.0801 N   0  0  0  0  0  0  0  0  0  0  0  0
    8.7825  -15.5423   22.2389 C   0  0  1  0  0  0  0  0  0  0  0  0
    8.7763  -14.1962   21.6261 C   0  0  0  0  0  0  0  0  0  0  0  0
    8.5008  -14.0072   20.2184 C   0  0  0  0  0  0  0  0  0  0  0  0
    8.1908  -14.7782   19.1516 C   0  0  0  0  0  0  0  0  0  0  0  0
    7.9720  -14.0306   18.0448 N   0  0  0  0  0  0  0  0  0  0  0  0
    8.1470  -12.7772   18.4288 C   0  0  0  0  0  0  0  0  0  0  0  0
    8.4640  -12.7135   19.7198 N   0  0  0  0  0  0  0  0  0  0  0  0
    8.9612  -15.4213   23.7242 C   0  0  0  0  0  0  0  0  0  0  0  0
    9.2624  -14.2620   24.1806 O   0  0  0  0  0  0  0  0  0  0  0  0
    8.8049  -16.5108   24.5902 N   0  0  0  0  0  0  0  0  0  0  0  0
    8.9760  -16.2917   26.0361 C   0  0  1  0  0  0  0  0  0  0  0  0
    7.6157  -15.9676   26.6155 C   0  0  0  0  0  0  0  0  0  0  0  0
    7.3262  -14.5153   26.5649 C   0  0  0  0  0  0  0  0  0  0  0  0
    8.2261  -13.5999   27.1150 C   0  0  0  0  0  0  0  0  0  0  0  0
    7.9388  -12.2588   27.0447 C   0  0  0  0  0  0  0  0  0  0  0  0
    6.7807  -11.8338   26.4402 C   0  0  0  0  0  0  0  0  0  0  0  0
    5.8977  -12.7494   25.8992 C   0  0  0  0  0  0  0  0  0  0  0  0
    6.1615  -14.0980   25.9561 C   0  0  0  0  0  0  0  0  0  0  0  0
    9.5328  -17.5303   26.6137 C   0  0  0  0  0  0  0  0  0  0  0  0
    9.9783  -17.5397   27.9241 O   0  0  0  0  0  0  0  0  0  0  0  0
    9.6319  -18.6055   25.9776 O   0  0  0  0  0  0  0  0  0  0  0  0
  2  1  1  6
  2  3  1  0
  4  2  1  0
  4  5  1  6
  6  4  1  0
  7  6  2  0
  8  6  1  0
  9  8  1  0
  9 10  1  6
 10 11  1  0
 11 15  1  0
 12 11  2  0
 12 13  1  0
 13 14  1  0
 15 14  2  0
 16 17  2  0
 16  9  1  0
 18 16  1  0
 19 18  1  0
 19 20  1  1
 21 22  2  0
 21 20  1  0
 23 22  1  0
 24 23  2  0
 25 24  1  0
 25 26  2  0
 26 21  1  0
 27 19  1  0
 28 27  1  0
 29 27  2  0
M  END
$$$$
