VHF.pdb
     RDKit          3D

 29 30  0  0  1  0  0  0  0  0999 V2000
    7.2148  -12.6515   21.2796 C   0  0  0  0  0  0  0  0  0  0  0  0
    8.4357  -12.9422   20.4425 C   0  0  2  0  0  0  0  0  0  0  0  0
    8.5223  -12.0388   19.2365 C   0  0  0  0  0  0  0  0  0  0  0  0
    8.6259  -14.3842   20.1041 C   0  0  2  0  0  0  0  0  0  0  0  0
    7.5248  -14.7049   19.1667 N   0  0  0  0  0  0  0  0  0  0  0  0
    8.5650  -15.3218   21.2237 C   0  0  0  0  0  0  0  0  0  0  0  0
    7.4526  -15.8786   21.5360 O   0  0  0  0  0  0  0  0  0  0  0  0
    9.6672  -15.6741   22.0113 N   0  0  0  0  0  0  0  0  0  0  0  0
    9.5693  -16.7239   23.0937 C   0  0  1  0  0  0  0  0  0  0  0  0
   10.5370  -17.7475   22.6430 C   0  0  0  0  0  0  0  0  0  0  0  0
   10.2078  -18.6907   21.5965 C   0  0  0  0  0  0  0  0  0  0  0  0
    9.1070  -19.3327   21.1440 C   0  0  0  0  0  0  0  0  0  0  0  0
    9.3821  -20.0797   20.0494 N   0  0  0  0  0  0  0  0  0  0  0  0
   10.6714  -19.8987   19.8170 C   0  0  0  0  0  0  0  0  0  0  0  0
   11.2073  -19.0761   20.7154 N   0  0  0  0  0  0  0  0  0  0  0  0
   10.0971  -16.0323   24.3168 C   0  0  0  0  0  0  0  0  0  0  0  0
   11.2336  -15.4490   24.2096 O   0  0  0  0  0  0  0  0  0  0  0  0
    9.3939  -16.0081   25.5277 N   0  0  0  0  0  0  0  0  0  0  0  0
   10.1501  -15.8269   26.7780 C   0  0  1  0  0  0  0  0  0  0  0  0
    9.7026  -14.5217   27.4002 C   0  0  0  0  0  0  0  0  0  0  0  0
    8.5194  -13.9581   26.7091 C   0  0  0  0  0  0  0  0  0  0  0  0
    7.2486  -14.4861   26.9476 C   0  0  0  0  0  0  0  0  0  0  0  0
    6.1674  -13.9377   26.3024 C   0  0  0  0  0  0  0  0  0  0  0  0
    6.3434  -12.8855   25.4369 C   0  0  0  0  0  0  0  0  0  0  0  0
    7.6061  -12.3713   25.2090 C   0  0  0  0  0  0  0  0  0  0  0  0
    8.7055  -12.9019   25.8423 C   0  0  0  0  0  0  0  0  0  0  0  0
    9.8515  -16.9777   27.6524 C   0  0  0  0  0  0  0  0  0  0  0  0
   10.5385  -17.1341   28.8438 O   0  0  0  0  0  0  0  0  0  0  0  0
    8.9920  -17.8479   27.3796 O   0  0  0  0  0  0  0  0  0  0  0  0
  2  1  1  6
  2  3  1  0
  4  2  1  0
  4  5  1  6
  6  4  1  0
  7  6  2  0
  8  6  1  0
  9  8  1  0
  9 10  1  6
 10 11  1  0
 11 15  1  0
 12 11  2  0
 12 13  1  0
 13 14  1  0
 15 14  2  0
 16 17  2  0
 16  9  1  0
 18 16  1  0
 19 18  1  0
 19 20  1  1
 21 22  2  0
 21 20  1  0
 23 22  1  0
 24 23  2  0
 25 24  1  0
 25 26  2  0
 26 21  1  0
 27 19  1  0
 28 27  1  0
 29 27  2  0
M  END
$$$$
