VHF.pdb
     RDKit          3D

 29 30  0  0  1  0  0  0  0  0999 V2000
    8.1147  -12.3282   18.4606 C   0  0  0  0  0  0  0  0  0  0  0  0
    8.0692  -13.2596   19.6464 C   0  0  2  0  0  0  0  0  0  0  0  0
    8.4813  -12.5691   20.9236 C   0  0  0  0  0  0  0  0  0  0  0  0
    8.7680  -14.5628   19.4378 C   0  0  2  0  0  0  0  0  0  0  0  0
    8.1438  -15.1409   18.2253 N   0  0  0  0  0  0  0  0  0  0  0  0
    8.6539  -15.5356   20.5228 C   0  0  0  0  0  0  0  0  0  0  0  0
    7.5605  -16.1843   20.6919 O   0  0  0  0  0  0  0  0  0  0  0  0
    9.6834  -15.8268   21.4254 N   0  0  0  0  0  0  0  0  0  0  0  0
    9.5024  -16.8263   22.5440 C   0  0  1  0  0  0  0  0  0  0  0  0
   10.3082  -17.9784   22.0848 C   0  0  0  0  0  0  0  0  0  0  0  0
    9.7507  -18.9936   21.2178 C   0  0  0  0  0  0  0  0  0  0  0  0
    8.5882  -19.2168   20.5640 C   0  0  0  0  0  0  0  0  0  0  0  0
    8.6459  -20.3450   19.8185 N   0  0  0  0  0  0  0  0  0  0  0  0
    9.8615  -20.8295   20.0102 C   0  0  0  0  0  0  0  0  0  0  0  0
   10.5584  -20.0556   20.8388 N   0  0  0  0  0  0  0  0  0  0  0  0
   10.1717  -16.1774   23.7203 C   0  0  0  0  0  0  0  0  0  0  0  0
   11.4074  -15.8642   23.5858 O   0  0  0  0  0  0  0  0  0  0  0  0
    9.4943  -15.9120   24.9170 N   0  0  0  0  0  0  0  0  0  0  0  0
   10.2792  -15.5141   26.0976 C   0  0  1  0  0  0  0  0  0  0  0  0
   10.1346  -14.0164   26.2616 C   0  0  0  0  0  0  0  0  0  0  0  0
    8.7148  -13.6084   26.3762 C   0  0  0  0  0  0  0  0  0  0  0  0
    7.8404  -13.7979   25.3038 C   0  0  0  0  0  0  0  0  0  0  0  0
    6.5269  -13.4211   25.4404 C   0  0  0  0  0  0  0  0  0  0  0  0
    6.0889  -12.8668   26.6187 C   0  0  0  0  0  0  0  0  0  0  0  0
    6.9638  -12.6843   27.6732 C   0  0  0  0  0  0  0  0  0  0  0  0
    8.2840  -13.0531   27.5626 C   0  0  0  0  0  0  0  0  0  0  0  0
    9.7390  -16.2440   27.2609 C   0  0  0  0  0  0  0  0  0  0  0  0
   10.3527  -16.1229   28.4956 O   0  0  0  0  0  0  0  0  0  0  0  0
    8.7322  -16.9879   27.2030 O   0  0  0  0  0  0  0  0  0  0  0  0
  2  1  1  6
  2  3  1  0
  4  2  1  0
  4  5  1  6
  6  4  1  0
  7  6  2  0
  8  6  1  0
  9  8  1  0
  9 10  1  6
 10 11  1  0
 11 15  1  0
 12 11  2  0
 12 13  1  0
 13 14  1  0
 15 14  2  0
 16 17  2  0
 16  9  1  0
 18 16  1  0
 19 18  1  0
 19 20  1  1
 21 22  2  0
 21 20  1  0
 23 22  1  0
 24 23  2  0
 25 24  1  0
 25 26  2  0
 26 21  1  0
 27 19  1  0
 28 27  1  0
 29 27  2  0
M  END
$$$$
