VHF.pdb
     RDKit          3D

 29 30  0  0  1  0  0  0  0  0999 V2000
    7.6824  -12.1396   18.7678 C   0  0  0  0  0  0  0  0  0  0  0  0
    7.7134  -13.1711   19.8682 C   0  0  2  0  0  0  0  0  0  0  0  0
    8.1729  -12.5839   21.1805 C   0  0  0  0  0  0  0  0  0  0  0  0
    8.4275  -14.4338   19.5139 C   0  0  2  0  0  0  0  0  0  0  0  0
    7.7736  -14.9064   18.2716 N   0  0  0  0  0  0  0  0  0  0  0  0
    8.3662  -15.5077   20.5036 C   0  0  0  0  0  0  0  0  0  0  0  0
    7.2957  -16.2022   20.6330 O   0  0  0  0  0  0  0  0  0  0  0  0
    9.4244  -15.8517   21.3529 N   0  0  0  0  0  0  0  0  0  0  0  0
    9.3248  -17.0075   22.3210 C   0  0  1  0  0  0  0  0  0  0  0  0
   10.5200  -17.8133   21.9901 C   0  0  0  0  0  0  0  0  0  0  0  0
   10.8716  -18.9925   22.7510 C   0  0  0  0  0  0  0  0  0  0  0  0
   11.8718  -19.3877   23.5708 C   0  0  0  0  0  0  0  0  0  0  0  0
   11.6443  -20.6242   24.0720 N   0  0  0  0  0  0  0  0  0  0  0  0
   10.4861  -21.0028   23.5580 C   0  0  0  0  0  0  0  0  0  0  0  0
    9.9863  -20.0602   22.7624 N   0  0  0  0  0  0  0  0  0  0  0  0
    9.5025  -16.3678   23.6671 C   0  0  0  0  0  0  0  0  0  0  0  0
   10.4139  -15.4722   23.7690 O   0  0  0  0  0  0  0  0  0  0  0  0
    8.7156  -16.7144   24.7726 N   0  0  0  0  0  0  0  0  0  0  0  0
    9.1015  -16.2055   26.0993 C   0  0  1  0  0  0  0  0  0  0  0  0
    7.8342  -15.8060   26.8242 C   0  0  0  0  0  0  0  0  0  0  0  0
    7.4576  -14.4008   26.5434 C   0  0  0  0  0  0  0  0  0  0  0  0
    6.2175  -14.1064   25.9724 C   0  0  0  0  0  0  0  0  0  0  0  0
    5.8889  -12.7947   25.7328 C   0  0  0  0  0  0  0  0  0  0  0  0
    6.7737  -11.7938   26.0535 C   0  0  0  0  0  0  0  0  0  0  0  0
    7.9982  -12.0976   26.6184 C   0  0  0  0  0  0  0  0  0  0  0  0
    8.3519  -13.4028   26.8688 C   0  0  0  0  0  0  0  0  0  0  0  0
    9.8137  -17.2888   26.8044 C   0  0  0  0  0  0  0  0  0  0  0  0
   10.9340  -16.9969   27.5630 O   0  0  0  0  0  0  0  0  0  0  0  0
    9.4610  -18.4905   26.7604 O   0  0  0  0  0  0  0  0  0  0  0  0
  2  1  1  6
  2  3  1  0
  4  2  1  0
  4  5  1  6
  6  4  1  0
  7  6  2  0
  8  6  1  0
  9  8  1  0
  9 10  1  6
 10 11  1  0
 11 15  1  0
 12 11  2  0
 12 13  1  0
 13 14  1  0
 15 14  2  0
 16 17  2  0
 16  9  1  0
 18 16  1  0
 19 18  1  0
 19 20  1  1
 21 22  2  0
 21 20  1  0
 23 22  1  0
 24 23  2  0
 25 24  1  0
 25 26  2  0
 26 21  1  0
 27 19  1  0
 28 27  1  0
 29 27  2  0
M  END
$$$$
