VHF.pdb
     RDKit          3D

 29 30  0  0  1  0  0  0  0  0999 V2000
    6.6839  -14.1441   18.9832 C   0  0  0  0  0  0  0  0  0  0  0  0
    7.8083  -13.3291   19.5726 C   0  0  2  0  0  0  0  0  0  0  0  0
    8.5727  -12.5721   18.5141 C   0  0  0  0  0  0  0  0  0  0  0  0
    8.6978  -14.0837   20.5050 C   0  0  2  0  0  0  0  0  0  0  0  0
    9.4156  -15.0540   19.6463 N   0  0  0  0  0  0  0  0  0  0  0  0
    8.0305  -14.8220   21.5755 C   0  0  0  0  0  0  0  0  0  0  0  0
    7.2881  -14.2021   22.4178 O   0  0  0  0  0  0  0  0  0  0  0  0
    8.1412  -16.2051   21.7603 N   0  0  0  0  0  0  0  0  0  0  0  0
    7.3714  -16.9281   22.8409 C   0  0  1  0  0  0  0  0  0  0  0  0
    7.5543  -18.3495   22.4754 C   0  0  0  0  0  0  0  0  0  0  0  0
    7.0730  -19.4169   23.3251 C   0  0  0  0  0  0  0  0  0  0  0  0
    6.4102  -19.5348   24.4980 C   0  0  0  0  0  0  0  0  0  0  0  0
    6.1612  -20.8304   24.8001 N   0  0  0  0  0  0  0  0  0  0  0  0
    6.6749  -21.5279   23.8008 C   0  0  0  0  0  0  0  0  0  0  0  0
    7.2302  -20.7262   22.8952 N   0  0  0  0  0  0  0  0  0  0  0  0
    8.1382  -16.6253   24.0951 C   0  0  0  0  0  0  0  0  0  0  0  0
    9.4082  -16.4929   23.9820 O   0  0  0  0  0  0  0  0  0  0  0  0
    7.5140  -16.4840   25.3408 N   0  0  0  0  0  0  0  0  0  0  0  0
    8.3516  -16.2192   26.5225 C   0  0  1  0  0  0  0  0  0  0  0  0
    7.5586  -15.3318   27.4578 C   0  0  0  0  0  0  0  0  0  0  0  0
    7.4008  -13.9615   26.9168 C   0  0  0  0  0  0  0  0  0  0  0  0
    8.4672  -13.0610   26.9621 C   0  0  0  0  0  0  0  0  0  0  0  0
    8.2976  -11.8007   26.4435 C   0  0  0  0  0  0  0  0  0  0  0  0
    7.0927  -11.4405   25.8905 C   0  0  0  0  0  0  0  0  0  0  0  0
    6.0444  -12.3406   25.8512 C   0  0  0  0  0  0  0  0  0  0  0  0
    6.1879  -13.6089   26.3634 C   0  0  0  0  0  0  0  0  0  0  0  0
    8.6711  -17.5187   27.1449 C   0  0  0  0  0  0  0  0  0  0  0  0
    9.6569  -17.5946   28.1135 O   0  0  0  0  0  0  0  0  0  0  0  0
    8.0919  -18.5889   26.8457 O   0  0  0  0  0  0  0  0  0  0  0  0
  2  1  1  6
  2  3  1  0
  4  2  1  0
  4  5  1  6
  6  4  1  0
  7  6  2  0
  8  6  1  0
  9  8  1  0
  9 10  1  6
 10 11  1  0
 11 15  1  0
 12 11  2  0
 12 13  1  0
 13 14  1  0
 15 14  2  0
 16 17  2  0
 16  9  1  0
 18 16  1  0
 19 18  1  0
 19 20  1  1
 21 22  2  0
 21 20  1  0
 23 22  1  0
 24 23  2  0
 25 24  1  0
 25 26  2  0
 26 21  1  0
 27 19  1  0
 28 27  1  0
 29 27  2  0
M  END
$$$$
