IRD.pdb
     RDKit          3D

 28 27  0  0  1  0  0  0  0  0999 V2000
    6.7110  -11.5357   27.2849 C   0  0  0  0  0  0  0  0  0  0  0  0
    6.1826  -12.6542   26.4426 C   0  0  0  0  0  0  0  0  0  0  0  0
    7.3024  -13.5656   26.0383 C   0  0  2  0  0  0  0  0  0  0  0  0
    8.4158  -12.8068   25.4156 C   0  0  0  0  0  0  0  0  0  0  0  0
    6.6980  -14.6471   25.1626 C   0  0  2  0  0  0  0  0  0  0  0  0
    5.6600  -15.3287   25.9196 N   0  0  0  0  0  0  0  0  0  0  0  0
    7.7649  -15.6479   24.8537 C   0  0  0  0  0  0  0  0  0  0  0  0
    7.9576  -16.5430   25.7057 O   0  0  0  0  0  0  0  0  0  0  0  0
    7.2715  -14.8396   18.4576 N   0  0  0  0  0  0  0  0  0  0  0  0
    8.0434  -13.6630   18.6655 C   0  0  0  0  0  0  0  0  0  0  0  0
    7.6201  -12.5512   18.1630 N   0  0  0  0  0  0  0  0  0  0  0  0
    9.2435  -13.6315   19.3897 N   0  0  0  0  0  0  0  0  0  0  0  0
    9.8455  -14.8576   19.8549 C   0  0  0  0  0  0  0  0  0  0  0  0
    9.2739  -15.1179   21.2635 C   0  0  0  0  0  0  0  0  0  0  0  0
    9.8621  -16.3577   21.8414 C   0  0  0  0  0  0  0  0  0  0  0  0
    9.4082  -16.6213   23.2338 C   0  0  2  0  0  0  0  0  0  0  0  0
    8.4882  -15.5524   23.6587 N   0  0  0  0  0  0  0  0  0  0  0  0
   10.5061  -16.6722   24.1921 C   0  0  0  0  0  0  0  0  0  0  0  0
   11.0881  -15.5845   24.5290 O   0  0  0  0  0  0  0  0  0  0  0  0
    8.1120  -11.6399   18.3130 N   0  0  0  0  0  0  0  0  0  0  0  0
   10.9496  -17.8848   24.7731 C   0  0  1  0  0  0  0  0  0  0  0  0
   12.2056  -17.8991   25.5008 C   0  0  0  0  0  0  0  0  0  0  0  0
   12.2143  -19.2489   26.2371 C   0  0  0  0  0  0  0  0  0  0  0  0
   11.2939  -19.2230   27.3747 O   0  0  0  0  0  0  0  0  0  0  0  0
   10.8978  -20.2921   27.8643 C   0  0  0  0  0  0  0  0  0  0  0  0
   13.3324  -17.7640   24.5688 O   0  0  0  0  0  0  0  0  0  0  0  0
   13.1729  -18.1719   23.2335 O   0  0  0  0  0  0  0  0  0  0  0  0
   10.8860  -17.9826   27.8796 O   0  0  0  0  0  0  0  0  0  0  0  0
  1  2  1  0
  3  4  1  6
  3  5  1  0
  3  2  1  0
  5  6  1  1
  7  5  1  0
  7 17  1  0
  8  7  2  0
  9 10  1  0
 10 11  2  0
 12 10  1  0
 12 13  1  0
 13 14  1  0
 16 15  1  6
 15 14  1  0
 16 17  1  0
 18 16  1  0
 19 18  2  0
 20 18  1  0
 21 22  1  1
 21 20  1  0
 23 27  1  0
 23 22  1  0
 24 23  2  0
 25 21  1  0
 26 25  1  0
 28 25  2  0
M  END
$$$$
