IRD.pdb
     RDKit          3D

 28 27  0  0  1  0  0  0  0  0999 V2000
    6.5155  -11.5388   27.3734 C   0  0  0  0  0  0  0  0  0  0  0  0
    6.0624  -12.9098   26.9797 C   0  0  0  0  0  0  0  0  0  0  0  0
    7.0727  -13.5432   26.0709 C   0  0  2  0  0  0  0  0  0  0  0  0
    7.3899  -12.6607   24.9203 C   0  0  0  0  0  0  0  0  0  0  0  0
    6.5348  -14.9117   25.6971 C   0  0  2  0  0  0  0  0  0  0  0  0
    6.2999  -15.6656   26.9184 N   0  0  0  0  0  0  0  0  0  0  0  0
    7.5883  -15.6301   24.9166 C   0  0  0  0  0  0  0  0  0  0  0  0
    8.3855  -16.3381   25.5705 O   0  0  0  0  0  0  0  0  0  0  0  0
    8.5969  -13.5690   16.5642 N   0  0  0  0  0  0  0  0  0  0  0  0
    8.4334  -13.3287   17.9567 C   0  0  0  0  0  0  0  0  0  0  0  0
    9.3334  -12.6374   18.5729 N   0  0  0  0  0  0  0  0  0  0  0  0
    7.3468  -13.7958   18.7096 N   0  0  0  0  0  0  0  0  0  0  0  0
    7.3659  -15.1264   19.2676 C   0  0  0  0  0  0  0  0  0  0  0  0
    8.0163  -15.0066   20.6608 C   0  0  0  0  0  0  0  0  0  0  0  0
    8.1018  -16.3436   21.3105 C   0  0  0  0  0  0  0  0  0  0  0  0
    8.5905  -16.2767   22.7145 C   0  0  2  0  0  0  0  0  0  0  0  0
    7.6441  -15.4909   23.5245 N   0  0  0  0  0  0  0  0  0  0  0  0
    9.9036  -15.6537   22.8327 C   0  0  0  0  0  0  0  0  0  0  0  0
   10.1163  -14.8280   23.7857 O   0  0  0  0  0  0  0  0  0  0  0  0
    9.3149  -12.4798   19.6071 N   0  0  0  0  0  0  0  0  0  0  0  0
   10.9600  -15.9353   21.9332 C   0  0  1  0  0  0  0  0  0  0  0  0
   12.2738  -16.2483   22.4656 C   0  0  0  0  0  0  0  0  0  0  0  0
   12.0651  -17.5286   23.2911 C   0  0  0  0  0  0  0  0  0  0  0  0
   12.7311  -17.4205   24.5898 O   0  0  0  0  0  0  0  0  0  0  0  0
   13.3275  -16.3732   24.8849 C   0  0  0  0  0  0  0  0  0  0  0  0
   13.2318  -16.4404   21.3693 O   0  0  0  0  0  0  0  0  0  0  0  0
   14.5550  -15.9939   21.5262 O   0  0  0  0  0  0  0  0  0  0  0  0
   12.6737  -18.5107   25.4661 O   0  0  0  0  0  0  0  0  0  0  0  0
  1  2  1  0
  3  4  1  6
  3  5  1  0
  3  2  1  0
  5  6  1  1
  7  5  1  0
  7 17  1  0
  8  7  2  0
  9 10  1  0
 10 11  2  0
 12 10  1  0
 12 13  1  0
 13 14  1  0
 16 15  1  6
 15 14  1  0
 16 17  1  0
 18 16  1  0
 19 18  2  0
 20 18  1  0
 21 22  1  6
 21 20  1  0
 23 27  1  0
 23 22  1  0
 24 23  2  0
 25 21  1  0
 26 25  1  0
 28 25  2  0
M  END
$$$$
