IRD.pdb
     RDKit          3D

 28 27  0  0  1  0  0  0  0  0999 V2000
    8.8178  -12.5954   26.9717 C   0  0  0  0  0  0  0  0  0  0  0  0
    8.2431  -13.9663   26.7982 C   0  0  0  0  0  0  0  0  0  0  0  0
    6.9770  -13.8949   25.9985 C   0  0  2  0  0  0  0  0  0  0  0  0
    6.0017  -12.9623   26.6168 C   0  0  0  0  0  0  0  0  0  0  0  0
    6.4803  -15.3184   25.8286 C   0  0  2  0  0  0  0  0  0  0  0  0
    6.4976  -15.9722   27.1275 N   0  0  0  0  0  0  0  0  0  0  0  0
    7.4405  -16.0452   24.9425 C   0  0  0  0  0  0  0  0  0  0  0  0
    8.2062  -16.8636   25.4977 O   0  0  0  0  0  0  0  0  0  0  0  0
   10.0609  -13.4454   18.8965 N   0  0  0  0  0  0  0  0  0  0  0  0
    8.8370  -12.7227   18.9546 C   0  0  0  0  0  0  0  0  0  0  0  0
    8.8808  -11.4325   18.9205 N   0  0  0  0  0  0  0  0  0  0  0  0
    7.5748  -13.3262   19.0442 N   0  0  0  0  0  0  0  0  0  0  0  0
    7.4580  -14.7221   19.3907 C   0  0  0  0  0  0  0  0  0  0  0  0
    8.0695  -14.8756   20.7981 C   0  0  0  0  0  0  0  0  0  0  0  0
    7.9666  -16.2882   21.2575 C   0  0  0  0  0  0  0  0  0  0  0  0
    8.4000  -16.4726   22.6691 C   0  0  2  0  0  0  0  0  0  0  0  0
    7.4489  -15.7933   23.5653 N   0  0  0  0  0  0  0  0  0  0  0  0
    9.7276  -15.9308   22.9340 C   0  0  0  0  0  0  0  0  0  0  0  0
    9.9280  -15.2773   24.0147 O   0  0  0  0  0  0  0  0  0  0  0  0
    8.0291  -10.8351   19.0333 N   0  0  0  0  0  0  0  0  0  0  0  0
   10.8111  -16.1082   22.0400 C   0  0  1  0  0  0  0  0  0  0  0  0
   12.1484  -16.2770   22.5787 C   0  0  0  0  0  0  0  0  0  0  0  0
   12.0621  -17.5431   23.4469 C   0  0  0  0  0  0  0  0  0  0  0  0
   12.7865  -17.3575   24.7049 O   0  0  0  0  0  0  0  0  0  0  0  0
   13.2497  -16.2407   24.9839 C   0  0  0  0  0  0  0  0  0  0  0  0
   13.1207  -16.4137   21.4868 O   0  0  0  0  0  0  0  0  0  0  0  0
   14.3547  -15.7474   21.5773 O   0  0  0  0  0  0  0  0  0  0  0  0
   12.9353  -18.4546   25.5617 O   0  0  0  0  0  0  0  0  0  0  0  0
  1  2  1  0
  3  4  1  1
  3  5  1  0
  3  2  1  0
  5  6  1  1
  7  5  1  0
  7 17  1  0
  8  7  2  0
  9 10  1  0
 10 11  2  0
 12 10  1  0
 12 13  1  0
 13 14  1  0
 16 15  1  6
 15 14  1  0
 16 17  1  0
 18 16  1  0
 19 18  2  0
 20 18  1  0
 21 22  1  6
 21 20  1  0
 23 27  1  0
 23 22  1  0
 24 23  2  0
 25 21  1  0
 26 25  1  0
 28 25  2  0
M  END
$$$$
