IRD.pdb
     RDKit          3D

 28 27  0  0  1  0  0  0  0  0999 V2000
    7.5414  -12.2861   28.2665 C   0  0  0  0  0  0  0  0  0  0  0  0
    6.5172  -12.9926   27.4348 C   0  0  0  0  0  0  0  0  0  0  0  0
    7.0886  -13.3244   26.0890 C   0  0  2  0  0  0  0  0  0  0  0  0
    7.0235  -12.1574   25.1740 C   0  0  0  0  0  0  0  0  0  0  0  0
    6.3667  -14.5642   25.5954 C   0  0  2  0  0  0  0  0  0  0  0  0
    6.3922  -15.5649   26.6504 N   0  0  0  0  0  0  0  0  0  0  0  0
    7.1262  -15.1140   24.4308 C   0  0  0  0  0  0  0  0  0  0  0  0
    7.5367  -16.2908   24.5344 O   0  0  0  0  0  0  0  0  0  0  0  0
    7.7366  -13.3641   15.9987 N   0  0  0  0  0  0  0  0  0  0  0  0
    8.5992  -14.3755   16.5052 C   0  0  0  0  0  0  0  0  0  0  0  0
    9.7826  -14.4862   16.0002 N   0  0  0  0  0  0  0  0  0  0  0  0
    8.2454  -15.2660   17.5286 N   0  0  0  0  0  0  0  0  0  0  0  0
    7.4664  -14.8094   18.6542 C   0  0  0  0  0  0  0  0  0  0  0  0
    8.4747  -14.3217   19.7143 C   0  0  0  0  0  0  0  0  0  0  0  0
    7.7638  -13.9085   20.9556 C   0  0  0  0  0  0  0  0  0  0  0  0
    7.9307  -14.8795   22.0708 C   0  0  2  0  0  0  0  0  0  0  0  0
    7.3441  -14.3181   23.2997 N   0  0  0  0  0  0  0  0  0  0  0  0
    9.3269  -15.1967   22.3473 C   0  0  0  0  0  0  0  0  0  0  0  0
   10.0881  -14.2871   22.8255 O   0  0  0  0  0  0  0  0  0  0  0  0
   10.4896  -15.1677   16.3616 N   0  0  0  0  0  0  0  0  0  0  0  0
    9.8731  -16.4817   22.1131 C   0  0  2  0  0  0  0  0  0  0  0  0
   11.2799  -16.7100   22.3890 C   0  0  0  0  0  0  0  0  0  0  0  0
   11.3516  -18.1698   22.8669 C   0  0  0  0  0  0  0  0  0  0  0  0
   11.1662  -18.2487   24.3164 O   0  0  0  0  0  0  0  0  0  0  0  0
   11.7633  -17.4484   25.0530 C   0  0  0  0  0  0  0  0  0  0  0  0
   12.0774  -16.4791   21.1778 O   0  0  0  0  0  0  0  0  0  0  0  0
   13.3987  -16.0169   21.3023 O   0  0  0  0  0  0  0  0  0  0  0  0
   10.3134  -19.2325   24.8312 O   0  0  0  0  0  0  0  0  0  0  0  0
  1  2  1  0
  3  4  1  6
  3  5  1  0
  3  2  1  0
  5  6  1  1
  7  5  1  0
  7 17  1  0
  8  7  2  0
  9 10  1  0
 10 11  2  0
 12 10  1  0
 12 13  1  0
 13 14  1  0
 16 15  1  6
 15 14  1  0
 16 17  1  0
 18 16  1  0
 19 18  2  0
 20 18  1  0
 21 22  1  6
 21 20  1  0
 23 27  1  0
 23 22  1  0
 24 23  2  0
 25 21  1  0
 26 25  1  0
 28 25  2  0
M  END
$$$$
