IRD.pdb
     RDKit          3D

 28 27  0  0  1  0  0  0  0  0999 V2000
    7.4099  -11.4870   21.0025 C   0  0  0  0  0  0  0  0  0  0  0  0
    7.3448  -12.9821   20.9931 C   0  0  0  0  0  0  0  0  0  0  0  0
    8.4206  -13.5373   20.1087 C   0  0  2  0  0  0  0  0  0  0  0  0
    8.3314  -12.9780   18.7366 C   0  0  0  0  0  0  0  0  0  0  0  0
    8.3233  -15.0492   20.1898 C   0  0  2  0  0  0  0  0  0  0  0  0
    8.1360  -15.4265   21.5818 N   0  0  0  0  0  0  0  0  0  0  0  0
    9.6258  -15.6257   19.7352 C   0  0  0  0  0  0  0  0  0  0  0  0
    9.7407  -15.8549   18.5111 O   0  0  0  0  0  0  0  0  0  0  0  0
   15.3012  -16.0228   16.5052 N   0  0  0  0  0  0  0  0  0  0  0  0
   16.1985  -15.1244   17.1466 C   0  0  0  0  0  0  0  0  0  0  0  0
   17.4676  -15.3003   16.9848 N   0  0  0  0  0  0  0  0  0  0  0  0
   15.7903  -14.0488   17.9478 N   0  0  0  0  0  0  0  0  0  0  0  0
   14.3929  -13.8567   18.2522 C   0  0  0  0  0  0  0  0  0  0  0  0
   13.9461  -15.0960   19.0540 C   0  0  0  0  0  0  0  0  0  0  0  0
   12.5055  -14.9892   19.4147 C   0  0  0  0  0  0  0  0  0  0  0  0
   12.0263  -16.1335   20.2365 C   0  0  2  0  0  0  0  0  0  0  0  0
   10.6403  -15.8806   20.6659 N   0  0  0  0  0  0  0  0  0  0  0  0
   12.8309  -16.3536   21.4326 C   0  0  0  0  0  0  0  0  0  0  0  0
   12.6966  -15.5606   22.4267 O   0  0  0  0  0  0  0  0  0  0  0  0
   18.1812  -14.6171   17.3297 N   0  0  0  0  0  0  0  0  0  0  0  0
   13.7540  -17.4219   21.5393 C   0  0  2  0  0  0  0  0  0  0  0  0
   14.4290  -17.6456   22.8048 C   0  0  0  0  0  0  0  0  0  0  0  0
   14.4759  -19.1750   22.9566 C   0  0  0  0  0  0  0  0  0  0  0  0
   13.8744  -19.5871   24.2255 O   0  0  0  0  0  0  0  0  0  0  0  0
   13.5232  -18.7231   25.0440 C   0  0  0  0  0  0  0  0  0  0  0  0
   15.7691  -17.0457   22.7769 O   0  0  0  0  0  0  0  0  0  0  0  0
   16.3475  -16.5987   23.9771 O   0  0  0  0  0  0  0  0  0  0  0  0
   13.7120  -20.9545   24.4784 O   0  0  0  0  0  0  0  0  0  0  0  0
  1  2  1  0
  3  4  1  6
  3  5  1  0
  3  2  1  0
  5  6  1  1
  7  5  1  0
  7 17  1  0
  8  7  2  0
  9 10  1  0
 10 11  2  0
 12 10  1  0
 12 13  1  0
 13 14  1  0
 16 15  1  1
 15 14  1  0
 16 17  1  0
 18 16  1  0
 19 18  2  0
 20 18  1  0
 21 22  1  6
 21 20  1  0
 23 27  1  0
 23 22  1  0
 24 23  2  0
 25 21  1  0
 26 25  1  0
 28 25  2  0
M  END
$$$$
