IRD.pdb
     RDKit          3D

 28 27  0  0  1  0  0  0  0  0999 V2000
    7.1703  -11.1711   27.5596 C   0  0  0  0  0  0  0  0  0  0  0  0
    7.6744  -12.5770   27.4641 C   0  0  0  0  0  0  0  0  0  0  0  0
    6.8101  -13.3700   26.5304 C   0  0  2  0  0  0  0  0  0  0  0  0
    5.3868  -13.3304   26.9500 C   0  0  0  0  0  0  0  0  0  0  0  0
    7.4121  -14.7600   26.4437 C   0  0  2  0  0  0  0  0  0  0  0  0
    8.8311  -14.6692   26.7492 N   0  0  0  0  0  0  0  0  0  0  0  0
    7.2818  -15.2379   25.0330 C   0  0  0  0  0  0  0  0  0  0  0  0
    6.3127  -15.9877   24.7822 O   0  0  0  0  0  0  0  0  0  0  0  0
    8.8141  -12.4371   16.9182 N   0  0  0  0  0  0  0  0  0  0  0  0
    8.0800  -13.6542   16.9778 C   0  0  0  0  0  0  0  0  0  0  0  0
    8.0938  -14.4334   15.9481 N   0  0  0  0  0  0  0  0  0  0  0  0
    7.3382  -14.0674   18.0933 N   0  0  0  0  0  0  0  0  0  0  0  0
    7.6048  -13.5036   19.3946 C   0  0  0  0  0  0  0  0  0  0  0  0
    7.9428  -14.6879   20.3229 C   0  0  0  0  0  0  0  0  0  0  0  0
    7.8965  -14.2599   21.7482 C   0  0  0  0  0  0  0  0  0  0  0  0
    8.1762  -15.3712   22.6976 C   0  0  2  0  0  0  0  0  0  0  0  0
    8.2190  -14.8416   24.0712 N   0  0  0  0  0  0  0  0  0  0  0  0
    9.4461  -16.0387   22.4368 C   0  0  0  0  0  0  0  0  0  0  0  0
    9.6152  -16.6388   21.3203 O   0  0  0  0  0  0  0  0  0  0  0  0
    8.4964  -14.1447   15.0264 N   0  0  0  0  0  0  0  0  0  0  0  0
   10.5077  -16.0411   23.3737 C   0  0  1  0  0  0  0  0  0  0  0  0
   11.6955  -16.8259   23.0901 C   0  0  0  0  0  0  0  0  0  0  0  0
   12.8069  -15.7861   22.8717 C   0  0  0  0  0  0  0  0  0  0  0  0
   13.2219  -15.7601   21.4685 O   0  0  0  0  0  0  0  0  0  0  0  0
   12.6011  -16.4384   20.6354 C   0  0  0  0  0  0  0  0  0  0  0  0
   11.9866  -17.7273   24.2122 O   0  0  0  0  0  0  0  0  0  0  0  0
   11.1453  -17.7181   25.3378 O   0  0  0  0  0  0  0  0  0  0  0  0
   14.3151  -14.9639   21.1068 O   0  0  0  0  0  0  0  0  0  0  0  0
  1  2  1  0
  3  4  1  1
  3  5  1  0
  3  2  1  0
  5  6  1  6
  7  5  1  0
  7 17  1  0
  8  7  2  0
  9 10  1  0
 10 11  2  0
 12 10  1  0
 12 13  1  0
 13 14  1  0
 16 15  1  6
 15 14  1  0
 16 17  1  0
 18 16  1  0
 19 18  2  0
 20 18  1  0
 21 22  1  6
 21 20  1  0
 23 27  1  0
 23 22  1  0
 24 23  2  0
 25 21  1  0
 26 25  1  0
 28 25  2  0
M  END
$$$$
