IRD.pdb
     RDKit          3D

 28 27  0  0  1  0  0  0  0  0999 V2000
    7.0012  -12.0555   28.1920 C   0  0  0  0  0  0  0  0  0  0  0  0
    6.3153  -13.1884   27.4951 C   0  0  0  0  0  0  0  0  0  0  0  0
    7.1626  -13.6820   26.3609 C   0  0  2  0  0  0  0  0  0  0  0  0
    7.6023  -12.5627   25.4908 C   0  0  0  0  0  0  0  0  0  0  0  0
    6.3694  -14.7660   25.6555 C   0  0  2  0  0  0  0  0  0  0  0  0
    6.1030  -15.8356   26.6041 N   0  0  0  0  0  0  0  0  0  0  0  0
    7.2197  -15.3305   24.5630 C   0  0  0  0  0  0  0  0  0  0  0  0
    7.6299  -16.5016   24.7202 O   0  0  0  0  0  0  0  0  0  0  0  0
    9.5089  -13.5823   18.4110 N   0  0  0  0  0  0  0  0  0  0  0  0
    8.4075  -13.7202   17.5214 C   0  0  0  0  0  0  0  0  0  0  0  0
    8.6449  -13.8053   16.2548 N   0  0  0  0  0  0  0  0  0  0  0  0
    7.0689  -13.7730   17.9347 N   0  0  0  0  0  0  0  0  0  0  0  0
    6.7385  -13.7381   19.3390 C   0  0  0  0  0  0  0  0  0  0  0  0
    7.6597  -14.7638   20.0302 C   0  0  0  0  0  0  0  0  0  0  0  0
    8.3392  -14.1447   21.2015 C   0  0  0  0  0  0  0  0  0  0  0  0
    8.4114  -15.0532   22.3779 C   0  0  2  0  0  0  0  0  0  0  0  0
    7.5177  -14.5539   23.4367 N   0  0  0  0  0  0  0  0  0  0  0  0
    9.7537  -15.1556   22.9383 C   0  0  0  0  0  0  0  0  0  0  0  0
   10.0192  -14.5465   24.0309 O   0  0  0  0  0  0  0  0  0  0  0  0
    7.8864  -13.9310   15.5450 N   0  0  0  0  0  0  0  0  0  0  0  0
   10.7773  -15.9140   22.3205 C   0  0  2  0  0  0  0  0  0  0  0  0
   11.9874  -16.2044   23.0680 C   0  0  0  0  0  0  0  0  0  0  0  0
   11.5335  -17.1492   24.1930 C   0  0  0  0  0  0  0  0  0  0  0  0
   12.6883  -17.6903   24.9108 O   0  0  0  0  0  0  0  0  0  0  0  0
   13.1022  -17.1109   25.9269 C   0  0  0  0  0  0  0  0  0  0  0  0
   12.9890  -16.8225   22.1897 O   0  0  0  0  0  0  0  0  0  0  0  0
   12.6818  -17.0273   20.8338 O   0  0  0  0  0  0  0  0  0  0  0  0
   13.2948  -18.8549   24.4251 O   0  0  0  0  0  0  0  0  0  0  0  0
  1  2  1  0
  3  4  1  6
  3  5  1  0
  3  2  1  0
  5  6  1  1
  7  5  1  0
  7 17  1  0
  8  7  2  0
  9 10  1  0
 10 11  2  0
 12 10  1  0
 12 13  1  0
 13 14  1  0
 16 15  1  6
 15 14  1  0
 16 17  1  0
 18 16  1  0
 19 18  2  0
 20 18  1  0
 21 22  1  6
 21 20  1  0
 23 27  1  0
 23 22  1  0
 24 23  2  0
 25 21  1  0
 26 25  1  0
 28 25  2  0
M  END
$$$$
