IRD.pdb
     RDKit          3D

 28 27  0  0  1  0  0  0  0  0999 V2000
    6.4450  -11.9193   28.0211 C   0  0  0  0  0  0  0  0  0  0  0  0
    5.9673  -13.2436   27.5133 C   0  0  0  0  0  0  0  0  0  0  0  0
    6.8234  -13.6935   26.3677 C   0  0  2  0  0  0  0  0  0  0  0  0
    6.8907  -12.6575   25.3067 C   0  0  0  0  0  0  0  0  0  0  0  0
    6.2854  -15.0377   25.9147 C   0  0  2  0  0  0  0  0  0  0  0  0
    6.3338  -15.9581   27.0397 N   0  0  0  0  0  0  0  0  0  0  0  0
    7.1941  -15.5707   24.8537 C   0  0  0  0  0  0  0  0  0  0  0  0
    8.0203  -16.4403   25.2082 O   0  0  0  0  0  0  0  0  0  0  0  0
    9.7020  -14.1343   17.7237 N   0  0  0  0  0  0  0  0  0  0  0  0
    8.5866  -13.3981   18.2108 C   0  0  0  0  0  0  0  0  0  0  0  0
    8.6918  -12.1150   18.3130 N   0  0  0  0  0  0  0  0  0  0  0  0
    7.3682  -13.9804   18.5877 N   0  0  0  0  0  0  0  0  0  0  0  0
    7.2364  -15.4159   18.6522 C   0  0  0  0  0  0  0  0  0  0  0  0
    7.9329  -15.8606   19.9543 C   0  0  0  0  0  0  0  0  0  0  0  0
    7.2590  -15.2557   21.1362 C   0  0  0  0  0  0  0  0  0  0  0  0
    7.7987  -15.7538   22.4304 C   0  0  2  0  0  0  0  0  0  0  0  0
    7.0918  -15.0940   23.5413 N   0  0  0  0  0  0  0  0  0  0  0  0
    9.2245  -15.4943   22.5919 C   0  0  0  0  0  0  0  0  0  0  0  0
    9.6046  -14.6201   23.4442 O   0  0  0  0  0  0  0  0  0  0  0  0
    7.9236  -11.5134   18.6910 N   0  0  0  0  0  0  0  0  0  0  0  0
   10.2099  -16.1824   21.8433 C   0  0  1  0  0  0  0  0  0  0  0  0
   11.5832  -16.1765   22.3136 C   0  0  0  0  0  0  0  0  0  0  0  0
   11.5029  -16.6970   23.7583 C   0  0  0  0  0  0  0  0  0  0  0  0
   12.8422  -16.8456   24.3292 O   0  0  0  0  0  0  0  0  0  0  0  0
   13.8332  -16.5316   23.6518 C   0  0  0  0  0  0  0  0  0  0  0  0
   12.4152  -17.0315   21.4574 O   0  0  0  0  0  0  0  0  0  0  0  0
   13.8063  -16.8338   21.4324 O   0  0  0  0  0  0  0  0  0  0  0  0
   12.9647  -17.3411   25.6329 O   0  0  0  0  0  0  0  0  0  0  0  0
  1  2  1  0
  3  4  1  6
  3  5  1  0
  3  2  1  0
  5  6  1  1
  7  5  1  0
  7 17  1  0
  8  7  2  0
  9 10  1  0
 10 11  2  0
 12 10  1  0
 12 13  1  0
 13 14  1  0
 16 15  1  6
 15 14  1  0
 16 17  1  0
 18 16  1  0
 19 18  2  0
 20 18  1  0
 21 22  1  6
 21 20  1  0
 23 27  1  0
 23 22  1  0
 24 23  2  0
 25 21  1  0
 26 25  1  0
 28 25  2  0
M  END
$$$$
