IRD.pdb
     RDKit          3D

 28 27  0  0  1  0  0  0  0  0999 V2000
    7.1566  -12.3392   28.1600 C   0  0  0  0  0  0  0  0  0  0  0  0
    6.4398  -13.5164   27.5769 C   0  0  0  0  0  0  0  0  0  0  0  0
    7.1286  -13.9681   26.3241 C   0  0  2  0  0  0  0  0  0  0  0  0
    7.2849  -12.8484   25.3622 C   0  0  0  0  0  0  0  0  0  0  0  0
    6.3511  -15.1594   25.7968 C   0  0  2  0  0  0  0  0  0  0  0  0
    6.1684  -16.1096   26.8826 N   0  0  0  0  0  0  0  0  0  0  0  0
    7.1769  -15.8270   24.7444 C   0  0  0  0  0  0  0  0  0  0  0  0
    7.8419  -16.8241   25.1022 O   0  0  0  0  0  0  0  0  0  0  0  0
    9.8863  -14.4522   17.5436 N   0  0  0  0  0  0  0  0  0  0  0  0
    8.6538  -13.7916   17.8043 C   0  0  0  0  0  0  0  0  0  0  0  0
    8.5831  -12.5176   17.6054 N   0  0  0  0  0  0  0  0  0  0  0  0
    7.4995  -14.4407   18.2647 N   0  0  0  0  0  0  0  0  0  0  0  0
    6.7530  -13.8989   19.3744 C   0  0  0  0  0  0  0  0  0  0  0  0
    7.5459  -14.2531   20.6488 C   0  0  0  0  0  0  0  0  0  0  0  0
    7.2877  -15.6648   21.0453 C   0  0  0  0  0  0  0  0  0  0  0  0
    7.8991  -16.0214   22.3543 C   0  0  2  0  0  0  0  0  0  0  0  0
    7.1771  -15.3295   23.4356 N   0  0  0  0  0  0  0  0  0  0  0  0
    9.3059  -15.6491   22.4475 C   0  0  0  0  0  0  0  0  0  0  0  0
    9.6679  -14.8053   23.3376 O   0  0  0  0  0  0  0  0  0  0  0  0
    7.7775  -11.9379   17.9370 N   0  0  0  0  0  0  0  0  0  0  0  0
   10.2928  -16.1949   21.5915 C   0  0  1  0  0  0  0  0  0  0  0  0
   11.6258  -16.4324   22.1149 C   0  0  0  0  0  0  0  0  0  0  0  0
   11.4191  -17.4216   23.2738 C   0  0  0  0  0  0  0  0  0  0  0  0
   12.1823  -17.0052   24.4510 O   0  0  0  0  0  0  0  0  0  0  0  0
   12.8634  -15.9691   24.4023 C   0  0  0  0  0  0  0  0  0  0  0  0
   12.4930  -16.9779   21.0629 O   0  0  0  0  0  0  0  0  0  0  0  0
   13.8460  -16.6000   21.0224 O   0  0  0  0  0  0  0  0  0  0  0  0
   12.1194  -17.7949   25.6053 O   0  0  0  0  0  0  0  0  0  0  0  0
  1  2  1  0
  3  4  1  6
  3  5  1  0
  3  2  1  0
  5  6  1  1
  7  5  1  0
  7 17  1  0
  8  7  2  0
  9 10  1  0
 10 11  2  0
 12 10  1  0
 12 13  1  0
 13 14  1  0
 16 15  1  6
 15 14  1  0
 16 17  1  0
 18 16  1  0
 19 18  2  0
 20 18  1  0
 21 22  1  6
 21 20  1  0
 23 27  1  0
 23 22  1  0
 24 23  2  0
 25 21  1  0
 26 25  1  0
 28 25  2  0
M  END
$$$$
