IRD.pdb
     RDKit          3D

 28 27  0  0  1  0  0  0  0  0999 V2000
   10.2369  -14.2514   29.3686 C   0  0  0  0  0  0  0  0  0  0  0  0
    9.2262  -15.1709   28.7581 C   0  0  0  0  0  0  0  0  0  0  0  0
    9.0192  -14.8209   27.3150 C   0  0  2  0  0  0  0  0  0  0  0  0
    8.6993  -13.3807   27.1509 C   0  0  0  0  0  0  0  0  0  0  0  0
    7.9696  -15.7739   26.7749 C   0  0  2  0  0  0  0  0  0  0  0  0
    8.0248  -17.0068   27.5443 N   0  0  0  0  0  0  0  0  0  0  0  0
    8.3240  -16.1060   25.3608 C   0  0  0  0  0  0  0  0  0  0  0  0
    8.5468  -17.3102   25.1067 O   0  0  0  0  0  0  0  0  0  0  0  0
    9.5031  -13.2857   18.4781 N   0  0  0  0  0  0  0  0  0  0  0  0
    8.2654  -13.6671   17.8897 C   0  0  0  0  0  0  0  0  0  0  0  0
    8.2360  -13.9165   16.6229 N   0  0  0  0  0  0  0  0  0  0  0  0
    7.0653  -13.7939   18.6032 N   0  0  0  0  0  0  0  0  0  0  0  0
    7.0054  -13.4296   19.9981 C   0  0  0  0  0  0  0  0  0  0  0  0
    7.9600  -14.3864   20.7409 C   0  0  0  0  0  0  0  0  0  0  0  0
    7.7260  -14.3163   22.2097 C   0  0  0  0  0  0  0  0  0  0  0  0
    8.4178  -15.3992   22.9601 C   0  0  2  0  0  0  0  0  0  0  0  0
    8.3916  -15.0900   24.3999 N   0  0  0  0  0  0  0  0  0  0  0  0
    9.8114  -15.5670   22.5650 C   0  0  0  0  0  0  0  0  0  0  0  0
   10.0778  -15.9632   21.3787 O   0  0  0  0  0  0  0  0  0  0  0  0
    7.3584  -14.1847   16.1201 N   0  0  0  0  0  0  0  0  0  0  0  0
   10.8867  -15.2990   23.4462 C   0  0  2  0  0  0  0  0  0  0  0  0
   12.1214  -16.0482   23.2990 C   0  0  0  0  0  0  0  0  0  0  0  0
   11.7226  -17.5111   23.5539 C   0  0  0  0  0  0  0  0  0  0  0  0
   12.8917  -18.3875   23.4710 O   0  0  0  0  0  0  0  0  0  0  0  0
   14.0046  -17.8990   23.2209 C   0  0  0  0  0  0  0  0  0  0  0  0
   12.6784  -15.8472   21.9552 O   0  0  0  0  0  0  0  0  0  0  0  0
   11.9839  -15.0421   21.0363 O   0  0  0  0  0  0  0  0  0  0  0  0
   12.7169  -19.7609   23.6787 O   0  0  0  0  0  0  0  0  0  0  0  0
  1  2  1  0
  3  4  1  1
  3  5  1  0
  3  2  1  0
  5  6  1  1
  7  5  1  0
  7 17  1  0
  8  7  2  0
  9 10  1  0
 10 11  2  0
 12 10  1  0
 12 13  1  0
 13 14  1  0
 16 15  1  6
 15 14  1  0
 16 17  1  0
 18 16  1  0
 19 18  2  0
 20 18  1  0
 21 22  1  1
 21 20  1  0
 23 27  1  0
 23 22  1  0
 24 23  2  0
 25 21  1  0
 26 25  1  0
 28 25  2  0
M  END
$$$$
