IRD.pdb
     RDKit          3D

 28 27  0  0  1  0  0  0  0  0999 V2000
    8.7741  -12.6360   21.9056 C   0  0  0  0  0  0  0  0  0  0  0  0
    8.5144  -13.8287   21.0398 C   0  0  0  0  0  0  0  0  0  0  0  0
    8.4620  -13.4160   19.5994 C   0  0  2  0  0  0  0  0  0  0  0  0
    7.4213  -12.3821   19.3732 C   0  0  0  0  0  0  0  0  0  0  0  0
    8.2920  -14.6829   18.7822 C   0  0  2  0  0  0  0  0  0  0  0  0
    7.0936  -15.3696   19.2376 N   0  0  0  0  0  0  0  0  0  0  0  0
    9.4587  -15.5764   19.0580 C   0  0  0  0  0  0  0  0  0  0  0  0
    9.2325  -16.5987   19.7422 O   0  0  0  0  0  0  0  0  0  0  0  0
   15.3999  -13.4191   16.4742 N   0  0  0  0  0  0  0  0  0  0  0  0
   16.2706  -14.2713   17.2086 C   0  0  0  0  0  0  0  0  0  0  0  0
   17.2579  -13.7397   17.8491 N   0  0  0  0  0  0  0  0  0  0  0  0
   16.1229  -15.6634   17.2851 N   0  0  0  0  0  0  0  0  0  0  0  0
   15.0678  -16.3249   16.5560 C   0  0  0  0  0  0  0  0  0  0  0  0
   14.0282  -16.7736   17.6031 C   0  0  0  0  0  0  0  0  0  0  0  0
   12.8973  -15.8067   17.6592 C   0  0  0  0  0  0  0  0  0  0  0  0
   11.8493  -16.1954   18.6416 C   0  0  2  0  0  0  0  0  0  0  0  0
   10.7241  -15.2489   18.5561 N   0  0  0  0  0  0  0  0  0  0  0  0
   12.3293  -16.1949   20.0185 C   0  0  0  0  0  0  0  0  0  0  0  0
   12.3633  -15.0918   20.6646 O   0  0  0  0  0  0  0  0  0  0  0  0
   17.9236  -14.3018   18.4286 N   0  0  0  0  0  0  0  0  0  0  0  0
   12.7539  -17.3760   20.6738 C   0  0  1  0  0  0  0  0  0  0  0  0
   13.5086  -17.2638   21.9087 C   0  0  0  0  0  0  0  0  0  0  0  0
   14.4430  -16.0630   21.6870 C   0  0  0  0  0  0  0  0  0  0  0  0
   15.2384  -15.7986   22.8867 O   0  0  0  0  0  0  0  0  0  0  0  0
   15.2036  -16.6019   23.8317 C   0  0  0  0  0  0  0  0  0  0  0  0
   12.5974  -17.0606   23.0423 O   0  0  0  0  0  0  0  0  0  0  0  0
   11.7931  -15.9089   23.0802 O   0  0  0  0  0  0  0  0  0  0  0  0
   16.0206  -14.6384   22.9309 O   0  0  0  0  0  0  0  0  0  0  0  0
  1  2  1  0
  3  4  1  1
  3  5  1  0
  3  2  1  0
  5  6  1  1
  7  5  1  0
  7 17  1  0
  8  7  2  0
  9 10  1  0
 10 11  2  0
 12 10  1  0
 12 13  1  0
 13 14  1  0
 16 15  1  6
 15 14  1  0
 16 17  1  0
 18 16  1  0
 19 18  2  0
 20 18  1  0
 21 22  1  6
 21 20  1  0
 23 27  1  0
 23 22  1  0
 24 23  2  0
 25 21  1  0
 26 25  1  0
 28 25  2  0
M  END
$$$$
