IRD.pdb
     RDKit          3D

 28 27  0  0  1  0  0  0  0  0999 V2000
    7.8649  -12.0658   27.6574 C   0  0  0  0  0  0  0  0  0  0  0  0
    6.9260  -13.0811   27.0852 C   0  0  0  0  0  0  0  0  0  0  0  0
    7.6179  -13.8772   26.0197 C   0  0  2  0  0  0  0  0  0  0  0  0
    8.2378  -12.9912   25.0029 C   0  0  0  0  0  0  0  0  0  0  0  0
    6.6016  -14.8627   25.4738 C   0  0  2  0  0  0  0  0  0  0  0  0
    6.1616  -15.7228   26.5609 N   0  0  0  0  0  0  0  0  0  0  0  0
    7.2848  -15.7252   24.4616 C   0  0  0  0  0  0  0  0  0  0  0  0
    7.6312  -16.8661   24.8394 O   0  0  0  0  0  0  0  0  0  0  0  0
    7.6896  -12.7952   16.9410 N   0  0  0  0  0  0  0  0  0  0  0  0
    8.6668  -13.1918   17.8956 C   0  0  0  0  0  0  0  0  0  0  0  0
    9.3007  -12.2742   18.5467 N   0  0  0  0  0  0  0  0  0  0  0  0
    8.9871  -14.5268   18.1800 N   0  0  0  0  0  0  0  0  0  0  0  0
    7.9443  -15.5181   18.2906 C   0  0  0  0  0  0  0  0  0  0  0  0
    8.1957  -16.2709   19.6129 C   0  0  0  0  0  0  0  0  0  0  0  0
    7.7677  -15.4407   20.7724 C   0  0  0  0  0  0  0  0  0  0  0  0
    7.9286  -16.1384   22.0769 C   0  0  2  0  0  0  0  0  0  0  0  0
    7.5058  -15.2419   23.1663 N   0  0  0  0  0  0  0  0  0  0  0  0
    9.3040  -16.5443   22.3413 C   0  0  0  0  0  0  0  0  0  0  0  0
    9.7722  -17.5765   21.7493 O   0  0  0  0  0  0  0  0  0  0  0  0
   10.0679  -12.4901   19.2247 N   0  0  0  0  0  0  0  0  0  0  0  0
   10.1479  -15.8312   23.2267 C   0  0  2  0  0  0  0  0  0  0  0  0
   11.5052  -16.3009   23.4375 C   0  0  0  0  0  0  0  0  0  0  0  0
   12.3972  -15.1715   22.8961 C   0  0  0  0  0  0  0  0  0  0  0  0
   12.8214  -15.4600   21.5255 O   0  0  0  0  0  0  0  0  0  0  0  0
   12.3837  -16.4684   20.9501 C   0  0  0  0  0  0  0  0  0  0  0  0
   11.7357  -16.5592   24.8646 O   0  0  0  0  0  0  0  0  0  0  0  0
   10.6780  -16.3883   25.7739 O   0  0  0  0  0  0  0  0  0  0  0  0
   13.7150  -14.5817   20.9007 O   0  0  0  0  0  0  0  0  0  0  0  0
  1  2  1  0
  3  4  1  6
  3  5  1  0
  3  2  1  0
  5  6  1  1
  7  5  1  0
  7 17  1  0
  8  7  2  0
  9 10  1  0
 10 11  2  0
 12 10  1  0
 12 13  1  0
 13 14  1  0
 16 15  1  6
 15 14  1  0
 16 17  1  0
 18 16  1  0
 19 18  2  0
 20 18  1  0
 21 22  1  6
 21 20  1  0
 23 27  1  0
 23 22  1  0
 24 23  2  0
 25 21  1  0
 26 25  1  0
 28 25  2  0
M  END
$$$$
