IRD.pdb
     RDKit          3D

 28 27  0  0  1  0  0  0  0  0999 V2000
   10.1859  -14.8277   17.2338 C   0  0  0  0  0  0  0  0  0  0  0  0
    9.5853  -13.9685   18.3019 C   0  0  0  0  0  0  0  0  0  0  0  0
    8.1126  -14.2305   18.4039 C   0  0  2  0  0  0  0  0  0  0  0  0
    7.4337  -14.0010   17.1040 C   0  0  0  0  0  0  0  0  0  0  0  0
    7.5922  -13.3886   19.5538 C   0  0  2  0  0  0  0  0  0  0  0  0
    7.9516  -12.0006   19.3102 N   0  0  0  0  0  0  0  0  0  0  0  0
    8.2878  -13.8242   20.8035 C   0  0  0  0  0  0  0  0  0  0  0  0
    9.3219  -13.1948   21.1180 O   0  0  0  0  0  0  0  0  0  0  0  0
    9.3621  -18.8757   27.9114 N   0  0  0  0  0  0  0  0  0  0  0  0
    8.0055  -18.9061   27.4844 C   0  0  0  0  0  0  0  0  0  0  0  0
    7.2665  -19.9004   27.8491 N   0  0  0  0  0  0  0  0  0  0  0  0
    7.4127  -17.9159   26.6885 N   0  0  0  0  0  0  0  0  0  0  0  0
    7.3546  -18.0719   25.2551 C   0  0  0  0  0  0  0  0  0  0  0  0
    8.2443  -16.9624   24.6584 C   0  0  0  0  0  0  0  0  0  0  0  0
    7.5956  -16.3660   23.4583 C   0  0  0  0  0  0  0  0  0  0  0  0
    8.4559  -15.3657   22.7700 C   0  0  2  0  0  0  0  0  0  0  0  0
    7.7738  -14.8876   21.5554 N   0  0  0  0  0  0  0  0  0  0  0  0
    9.7510  -15.9045   22.3718 C   0  0  0  0  0  0  0  0  0  0  0  0
    9.8841  -16.4017   21.2012 O   0  0  0  0  0  0  0  0  0  0  0  0
    6.2848  -20.0289   27.5105 N   0  0  0  0  0  0  0  0  0  0  0  0
   10.8749  -15.8909   23.2328 C   0  0  1  0  0  0  0  0  0  0  0  0
   12.1561  -16.3477   22.7257 C   0  0  0  0  0  0  0  0  0  0  0  0
   12.5105  -15.3525   21.6084 C   0  0  0  0  0  0  0  0  0  0  0  0
   13.8691  -15.5883   21.1181 O   0  0  0  0  0  0  0  0  0  0  0  0
   14.2776  -16.7526   20.9870 C   0  0  0  0  0  0  0  0  0  0  0  0
   13.1535  -16.3558   23.8035 O   0  0  0  0  0  0  0  0  0  0  0  0
   14.4288  -16.8919   23.5562 O   0  0  0  0  0  0  0  0  0  0  0  0
   14.6721  -14.4839   20.8091 O   0  0  0  0  0  0  0  0  0  0  0  0
  1  2  1  0
  3  4  1  6
  3  5  1  0
  3  2  1  0
  5  6  1  6
  7  5  1  0
  7 17  1  0
  8  7  2  0
  9 10  1  0
 10 11  2  0
 12 10  1  0
 12 13  1  0
 13 14  1  0
 16 15  1  6
 15 14  1  0
 16 17  1  0
 18 16  1  0
 19 18  2  0
 20 18  1  0
 21 22  1  1
 21 20  1  0
 23 27  1  0
 23 22  1  0
 24 23  2  0
 25 21  1  0
 26 25  1  0
 28 25  2  0
M  END
$$$$
