IRD.pdb
     RDKit          3D

 28 27  0  0  1  0  0  0  0  0999 V2000
    7.1616  -11.7745   27.8471 C   0  0  0  0  0  0  0  0  0  0  0  0
    6.3815  -12.9430   27.3316 C   0  0  0  0  0  0  0  0  0  0  0  0
    7.1614  -13.6503   26.2642 C   0  0  2  0  0  0  0  0  0  0  0  0
    7.4706  -12.7417   25.1319 C   0  0  0  0  0  0  0  0  0  0  0  0
    6.3736  -14.8918   25.8902 C   0  0  2  0  0  0  0  0  0  0  0  0
    6.1872  -15.6988   27.0857 N   0  0  0  0  0  0  0  0  0  0  0  0
    7.1914  -15.6910   24.9269 C   0  0  0  0  0  0  0  0  0  0  0  0
    7.8683  -16.6265   25.4076 O   0  0  0  0  0  0  0  0  0  0  0  0
    8.9740  -12.7115   17.3220 N   0  0  0  0  0  0  0  0  0  0  0  0
    9.1314  -13.8581   18.1490 C   0  0  0  0  0  0  0  0  0  0  0  0
   10.3123  -14.1463   18.5852 N   0  0  0  0  0  0  0  0  0  0  0  0
    8.0772  -14.7015   18.5271 N   0  0  0  0  0  0  0  0  0  0  0  0
    7.0355  -14.2182   19.4009 C   0  0  0  0  0  0  0  0  0  0  0  0
    7.5475  -14.4158   20.8421 C   0  0  0  0  0  0  0  0  0  0  0  0
    7.4985  -15.8558   21.2176 C   0  0  0  0  0  0  0  0  0  0  0  0
    7.9997  -16.1142   22.5947 C   0  0  2  0  0  0  0  0  0  0  0  0
    7.1716  -15.3754   23.5630 N   0  0  0  0  0  0  0  0  0  0  0  0
    9.3850  -15.7004   22.7849 C   0  0  0  0  0  0  0  0  0  0  0  0
    9.6333  -14.4866   23.1016 O   0  0  0  0  0  0  0  0  0  0  0  0
   10.5320  -15.0489   19.0669 N   0  0  0  0  0  0  0  0  0  0  0  0
   10.4708  -16.5973   22.6395 C   0  0  2  0  0  0  0  0  0  0  0  0
   11.8228  -16.1026   22.8261 C   0  0  0  0  0  0  0  0  0  0  0  0
   12.4464  -17.0531   23.8614 C   0  0  0  0  0  0  0  0  0  0  0  0
   13.8562  -16.7265   24.0794 O   0  0  0  0  0  0  0  0  0  0  0  0
   14.3321  -15.7017   23.5667 C   0  0  0  0  0  0  0  0  0  0  0  0
   12.5472  -16.1150   21.5488 O   0  0  0  0  0  0  0  0  0  0  0  0
   12.0488  -16.8834   20.4830 O   0  0  0  0  0  0  0  0  0  0  0  0
   14.6304  -17.5874   24.8666 O   0  0  0  0  0  0  0  0  0  0  0  0
  1  2  1  0
  3  4  1  6
  3  5  1  0
  3  2  1  0
  5  6  1  1
  7  5  1  0
  7 17  1  0
  8  7  2  0
  9 10  1  0
 10 11  2  0
 12 10  1  0
 12 13  1  0
 13 14  1  0
 16 15  1  6
 15 14  1  0
 16 17  1  0
 18 16  1  0
 19 18  2  0
 20 18  1  0
 21 22  1  6
 21 20  1  0
 23 27  1  0
 23 22  1  0
 24 23  2  0
 25 21  1  0
 26 25  1  0
 28 25  2  0
M  END
$$$$
