IRD.pdb
     RDKit          3D

 28 27  0  0  1  0  0  0  0  0999 V2000
    7.9939  -12.2996   27.7580 C   0  0  0  0  0  0  0  0  0  0  0  0
    6.9490  -13.1297   27.0807 C   0  0  0  0  0  0  0  0  0  0  0  0
    7.5930  -14.0752   26.1115 C   0  0  2  0  0  0  0  0  0  0  0  0
    8.4934  -13.3563   25.1757 C   0  0  0  0  0  0  0  0  0  0  0  0
    6.4752  -14.8577   25.4481 C   0  0  2  0  0  0  0  0  0  0  0  0
    5.6684  -15.4810   26.4852 N   0  0  0  0  0  0  0  0  0  0  0  0
    7.0900  -15.9507   24.6340 C   0  0  0  0  0  0  0  0  0  0  0  0
    7.3080  -17.0329   25.2219 O   0  0  0  0  0  0  0  0  0  0  0  0
    9.8031  -13.6608   18.6697 N   0  0  0  0  0  0  0  0  0  0  0  0
    8.6127  -12.8951   18.8125 C   0  0  0  0  0  0  0  0  0  0  0  0
    8.7054  -11.6071   18.8203 N   0  0  0  0  0  0  0  0  0  0  0  0
    7.3335  -13.4536   18.9435 N   0  0  0  0  0  0  0  0  0  0  0  0
    7.1778  -14.8657   19.1965 C   0  0  0  0  0  0  0  0  0  0  0  0
    7.5867  -15.0940   20.6659 C   0  0  0  0  0  0  0  0  0  0  0  0
    7.5025  -16.5403   21.0094 C   0  0  0  0  0  0  0  0  0  0  0  0
    7.8748  -16.8242   22.4220 C   0  0  2  0  0  0  0  0  0  0  0  0
    7.3904  -15.7326   23.2840 N   0  0  0  0  0  0  0  0  0  0  0  0
    9.3145  -16.9438   22.6198 C   0  0  0  0  0  0  0  0  0  0  0  0
   10.0850  -16.9359   21.5992 O   0  0  0  0  0  0  0  0  0  0  0  0
    7.8754  -10.9817   18.9423 N   0  0  0  0  0  0  0  0  0  0  0  0
    9.8959  -17.0607   23.9055 C   0  0  2  0  0  0  0  0  0  0  0  0
   11.3377  -17.1875   24.0175 C   0  0  0  0  0  0  0  0  0  0  0  0
   11.8936  -15.9176   23.3522 C   0  0  0  0  0  0  0  0  0  0  0  0
   13.3471  -15.8466   23.5078 O   0  0  0  0  0  0  0  0  0  0  0  0
   14.0460  -16.8123   23.1633 C   0  0  0  0  0  0  0  0  0  0  0  0
   11.7283  -17.2953   25.4290 O   0  0  0  0  0  0  0  0  0  0  0  0
   13.0520  -17.6396   25.7518 O   0  0  0  0  0  0  0  0  0  0  0  0
   13.9085  -14.6817   24.0443 O   0  0  0  0  0  0  0  0  0  0  0  0
  1  2  1  0
  3  4  1  6
  3  5  1  0
  3  2  1  0
  5  6  1  1
  7  5  1  0
  7 17  1  0
  8  7  2  0
  9 10  1  0
 10 11  2  0
 12 10  1  0
 12 13  1  0
 13 14  1  0
 16 15  1  6
 15 14  1  0
 16 17  1  0
 18 16  1  0
 19 18  2  0
 20 18  1  0
 21 22  1  6
 21 20  1  0
 23 27  1  0
 23 22  1  0
 24 23  2  0
 25 21  1  0
 26 25  1  0
 28 25  2  0
M  END
$$$$
