IRD.pdb
     RDKit          3D

 28 27  0  0  1  0  0  0  0  0999 V2000
    8.5370  -11.5642   19.5022 C   0  0  0  0  0  0  0  0  0  0  0  0
    7.5153  -12.5747   19.0841 C   0  0  0  0  0  0  0  0  0  0  0  0
    7.7509  -13.8701   19.8014 C   0  0  2  0  0  0  0  0  0  0  0  0
    8.1019  -13.6408   21.2253 C   0  0  0  0  0  0  0  0  0  0  0  0
    8.7893  -14.6353   19.0028 C   0  0  2  0  0  0  0  0  0  0  0  0
    8.2828  -14.8314   17.6536 N   0  0  0  0  0  0  0  0  0  0  0  0
    8.9555  -15.9846   19.6250 C   0  0  0  0  0  0  0  0  0  0  0  0
    8.0146  -16.7938   19.4687 O   0  0  0  0  0  0  0  0  0  0  0  0
    7.7028  -22.1707   20.2177 N   0  0  0  0  0  0  0  0  0  0  0  0
    7.8236  -21.3561   19.0578 C   0  0  0  0  0  0  0  0  0  0  0  0
    6.7673  -21.1312   18.3497 N   0  0  0  0  0  0  0  0  0  0  0  0
    9.0257  -20.7740   18.6314 N   0  0  0  0  0  0  0  0  0  0  0  0
   10.2628  -21.0788   19.3088 C   0  0  0  0  0  0  0  0  0  0  0  0
   10.4113  -20.0377   20.4368 C   0  0  0  0  0  0  0  0  0  0  0  0
   10.2026  -18.6628   19.9048 C   0  0  0  0  0  0  0  0  0  0  0  0
   10.3223  -17.6111   20.9509 C   0  0  2  0  0  0  0  0  0  0  0  0
   10.1219  -16.2869   20.3380 N   0  0  0  0  0  0  0  0  0  0  0  0
   11.6236  -17.6060   21.6088 C   0  0  0  0  0  0  0  0  0  0  0  0
   12.6622  -17.2966   20.9299 O   0  0  0  0  0  0  0  0  0  0  0  0
    6.7891  -20.5753   17.4634 N   0  0  0  0  0  0  0  0  0  0  0  0
   11.7814  -17.9242   22.9794 C   0  0  1  0  0  0  0  0  0  0  0  0
   13.1002  -17.8257   23.5780 C   0  0  0  0  0  0  0  0  0  0  0  0
   13.4997  -16.3515   23.4008 C   0  0  0  0  0  0  0  0  0  0  0  0
   14.7974  -16.2444   22.7327 O   0  0  0  0  0  0  0  0  0  0  0  0
   15.3619  -17.2720   22.3267 C   0  0  0  0  0  0  0  0  0  0  0  0
   13.0462  -18.2238   24.9904 O   0  0  0  0  0  0  0  0  0  0  0  0
   14.2138  -18.6892   25.6188 O   0  0  0  0  0  0  0  0  0  0  0  0
   15.3660  -14.9753   22.5707 O   0  0  0  0  0  0  0  0  0  0  0  0
  1  2  1  0
  3  4  1  1
  3  5  1  0
  3  2  1  0
  5  6  1  6
  7  5  1  0
  7 17  1  0
  8  7  2  0
  9 10  1  0
 10 11  2  0
 12 10  1  0
 12 13  1  0
 13 14  1  0
 16 15  1  6
 15 14  1  0
 16 17  1  0
 18 16  1  0
 19 18  2  0
 20 18  1  0
 21 22  1  1
 21 20  1  0
 23 27  1  0
 23 22  1  0
 24 23  2  0
 25 21  1  0
 26 25  1  0
 28 25  2  0
M  END
$$$$
