KDP.pdb
     RDKit          3D

 25 25  0  0  1  0  0  0  0  0999 V2000
    5.9141  -17.0269   20.3910 N   0  0  0  0  0  0  0  0  0  0  0  0
    7.0089  -16.2336   20.9313 C   0  0  1  0  0  0  0  0  0  0  0  0
    6.9101  -14.7978   20.5063 C   0  0  0  0  0  0  0  0  0  0  0  0
    7.2839  -14.4953   19.1255 C   0  0  0  0  0  0  0  0  0  0  0  0
    8.2297  -13.4499   18.7498 C   0  0  0  0  0  0  0  0  0  0  0  0
    8.5383  -13.1571   17.3359 C   0  0  0  0  0  0  0  0  0  0  0  0
    9.6476  -12.1487   17.3812 N   0  0  0  0  0  0  0  0  0  0  0  0
    6.8257  -16.3134   22.4433 C   0  0  0  0  0  0  0  0  0  0  0  0
    5.6830  -16.1361   22.9373 O   0  0  0  0  0  0  0  0  0  0  0  0
    7.9231  -16.5844   23.2865 N   0  0  0  0  0  0  0  0  0  0  0  0
    7.7359  -16.6268   24.7384 C   0  0  1  0  0  0  0  0  0  0  0  0
    7.8305  -18.1149   25.0880 C   0  0  0  0  0  0  0  0  0  0  0  0
    7.8057  -18.3489   26.5516 C   0  0  0  0  0  0  0  0  0  0  0  0
    8.8062  -18.5478   27.2538 O   0  0  0  0  0  0  0  0  0  0  0  0
    8.7925  -15.8607   25.4369 C   0  0  0  0  0  0  0  0  0  0  0  0
    9.9755  -15.9755   24.9567 O   0  0  0  0  0  0  0  0  0  0  0  0
    6.5691  -18.3502   27.2174 O   0  0  0  0  0  0  0  0  0  0  0  0
    8.5311  -15.0484   26.5635 N   0  0  0  0  0  0  0  0  0  0  0  0
    7.2429  -14.7576   27.1215 C   0  0  0  0  0  0  0  0  0  0  0  0
    7.3762  -13.2688   27.4629 C   0  0  0  0  0  0  0  0  0  0  0  0
    8.8555  -12.9869   27.5328 C   0  0  0  0  0  0  0  0  0  0  0  0
    9.4954  -14.3443   27.3600 C   0  0  1  0  0  0  0  0  0  0  0  0
    9.6471  -14.9513   28.7259 C   0  0  0  0  0  0  0  0  0  0  0  0
   10.6158  -14.5326   29.6217 O   0  0  0  0  0  0  0  0  0  0  0  0
    8.8885  -15.8765   29.1162 O   0  0  0  0  0  0  0  0  0  0  0  0
  2  1  1  6
  3  2  1  0
  4  3  1  0
  5  6  1  0
  5  4  1  0
  6  7  1  0
  8  9  2  0
  8  2  1  0
 10  8  1  0
 11 15  1  0
 11 10  1  0
 11 12  1  1
 13 12  1  0
 13 14  2  0
 15 18  1  0
 16 15  2  0
 17 13  1  0
 18 22  1  0
 19 18  1  0
 19 20  1  0
 20 21  1  0
 22 21  1  0
 23 24  1  0
 22 23  1  1
 25 23  2  0
M  END
$$$$
