KDP.pdb
     RDKit          3D

 25 25  0  0  1  0  0  0  0  0999 V2000
    7.3281  -17.1314   19.8683 N   0  0  0  0  0  0  0  0  0  0  0  0
    8.0503  -16.0151   20.4618 C   0  0  1  0  0  0  0  0  0  0  0  0
    7.7774  -14.7327   19.7319 C   0  0  0  0  0  0  0  0  0  0  0  0
    8.1757  -14.6807   18.3260 C   0  0  0  0  0  0  0  0  0  0  0  0
    7.9023  -13.5503   17.4450 C   0  0  0  0  0  0  0  0  0  0  0  0
    8.1950  -13.6078   15.9989 C   0  0  0  0  0  0  0  0  0  0  0  0
    7.5443  -12.3856   15.4221 N   0  0  0  0  0  0  0  0  0  0  0  0
    7.4871  -15.9069   21.8750 C   0  0  0  0  0  0  0  0  0  0  0  0
    6.2730  -15.6217   22.0361 O   0  0  0  0  0  0  0  0  0  0  0  0
    8.3142  -16.1243   22.9964 N   0  0  0  0  0  0  0  0  0  0  0  0
    7.7749  -15.9495   24.3468 C   0  0  1  0  0  0  0  0  0  0  0  0
    7.7557  -17.3648   24.9318 C   0  0  0  0  0  0  0  0  0  0  0  0
    6.7089  -18.2124   24.3126 C   0  0  0  0  0  0  0  0  0  0  0  0
    6.8946  -19.3512   23.8628 O   0  0  0  0  0  0  0  0  0  0  0  0
    8.6400  -15.0636   25.1580 C   0  0  0  0  0  0  0  0  0  0  0  0
    9.8729  -15.0159   24.8102 O   0  0  0  0  0  0  0  0  0  0  0  0
    5.4003  -17.7120   24.2159 O   0  0  0  0  0  0  0  0  0  0  0  0
    8.1538  -14.3101   26.2504 N   0  0  0  0  0  0  0  0  0  0  0  0
    6.7856  -14.1977   26.6638 C   0  0  0  0  0  0  0  0  0  0  0  0
    6.6854  -12.7097   27.0202 C   0  0  0  0  0  0  0  0  0  0  0  0
    8.0988  -12.2396   27.2528 C   0  0  0  0  0  0  0  0  0  0  0  0
    8.9254  -13.4998   27.1492 C   0  0  1  0  0  0  0  0  0  0  0  0
    9.0056  -14.1036   28.5225 C   0  0  0  0  0  0  0  0  0  0  0  0
    9.8327  -13.5968   29.5100 O   0  0  0  0  0  0  0  0  0  0  0  0
    8.3137  -15.1075   28.8348 O   0  0  0  0  0  0  0  0  0  0  0  0
  2  1  1  6
  3  2  1  0
  4  3  1  0
  5  6  1  0
  5  4  1  0
  6  7  1  0
  8  9  2  0
  8  2  1  0
 10  8  1  0
 11 15  1  0
 11 10  1  0
 11 12  1  1
 13 12  1  0
 13 14  2  0
 15 18  1  0
 16 15  2  0
 17 13  1  0
 18 22  1  0
 19 18  1  0
 19 20  1  0
 20 21  1  0
 22 21  1  0
 23 24  1  0
 22 23  1  1
 25 23  2  0
M  END
$$$$
