KDP.pdb
     RDKit          3D

 25 25  0  0  1  0  0  0  0  0999 V2000
   10.1027  -15.9375   20.4936 N   0  0  0  0  0  0  0  0  0  0  0  0
    8.9878  -15.0077   20.6041 C   0  0  1  0  0  0  0  0  0  0  0  0
    7.9035  -15.3290   19.6177 C   0  0  0  0  0  0  0  0  0  0  0  0
    8.1464  -16.4576   18.7205 C   0  0  0  0  0  0  0  0  0  0  0  0
    7.1995  -16.9079   17.7059 C   0  0  0  0  0  0  0  0  0  0  0  0
    7.4865  -18.0693   16.8407 C   0  0  0  0  0  0  0  0  0  0  0  0
    6.3088  -18.1660   15.9170 N   0  0  0  0  0  0  0  0  0  0  0  0
    8.4504  -15.2248   22.0148 C   0  0  0  0  0  0  0  0  0  0  0  0
    7.4760  -14.5392   22.4170 O   0  0  0  0  0  0  0  0  0  0  0  0
    9.0351  -16.1850   22.8662 N   0  0  0  0  0  0  0  0  0  0  0  0
    8.5490  -16.3363   24.2394 C   0  0  1  0  0  0  0  0  0  0  0  0
    8.4492  -17.8514   24.4399 C   0  0  0  0  0  0  0  0  0  0  0  0
    8.1035  -18.2099   25.8362 C   0  0  0  0  0  0  0  0  0  0  0  0
    8.9169  -18.5762   26.6951 O   0  0  0  0  0  0  0  0  0  0  0  0
    9.4966  -15.7450   25.2108 C   0  0  0  0  0  0  0  0  0  0  0  0
   10.7405  -15.8984   24.9418 O   0  0  0  0  0  0  0  0  0  0  0  0
    6.7611  -18.1375   26.2425 O   0  0  0  0  0  0  0  0  0  0  0  0
    9.0739  -15.0509   26.3672 N   0  0  0  0  0  0  0  0  0  0  0  0
    7.7195  -14.8629   26.7983 C   0  0  0  0  0  0  0  0  0  0  0  0
    7.7419  -13.4080   27.2817 C   0  0  0  0  0  0  0  0  0  0  0  0
    9.1892  -13.0769   27.5438 C   0  0  0  0  0  0  0  0  0  0  0  0
    9.9094  -14.3869   27.3268 C   0  0  1  0  0  0  0  0  0  0  0  0
    9.9397  -15.1112   28.6426 C   0  0  0  0  0  0  0  0  0  0  0  0
    9.1709  -16.2355   28.8898 O   0  0  0  0  0  0  0  0  0  0  0  0
   10.6760  -14.7202   29.5854 O   0  0  0  0  0  0  0  0  0  0  0  0
  2  1  1  6
  3  2  1  0
  4  3  1  0
  5  6  1  0
  5  4  1  0
  6  7  1  0
  8  9  2  0
  8  2  1  0
 10  8  1  0
 11 15  1  0
 11 10  1  0
 11 12  1  1
 13 12  1  0
 13 14  2  0
 15 18  1  0
 16 15  2  0
 17 13  1  0
 18 22  1  0
 19 18  1  0
 19 20  1  0
 20 21  1  0
 22 21  1  0
 23 24  1  0
 22 23  1  1
 25 23  2  0
M  END
$$$$
