KDP.pdb
     RDKit          3D

 25 25  0  0  1  0  0  0  0  0999 V2000
    8.9749  -16.9760   14.7334 N   0  0  0  0  0  0  0  0  0  0  0  0
    9.3959  -15.9316   15.6563 C   0  0  1  0  0  0  0  0  0  0  0  0
    8.7178  -14.6268   15.3572 C   0  0  0  0  0  0  0  0  0  0  0  0
    7.7685  -14.6207   14.2452 C   0  0  0  0  0  0  0  0  0  0  0  0
    7.9683  -13.8705   13.0099 C   0  0  0  0  0  0  0  0  0  0  0  0
    6.9263  -13.8075   11.9657 C   0  0  0  0  0  0  0  0  0  0  0  0
    7.4713  -12.8701   10.9293 N   0  0  0  0  0  0  0  0  0  0  0  0
    8.9344  -16.4245   17.0238 C   0  0  0  0  0  0  0  0  0  0  0  0
    7.7055  -16.4468   17.2900 O   0  0  0  0  0  0  0  0  0  0  0  0
    9.8713  -16.8541   17.9863 N   0  0  0  0  0  0  0  0  0  0  0  0
    9.4193  -17.2381   19.3253 C   0  0  1  0  0  0  0  0  0  0  0  0
   10.1017  -18.5849   19.5823 C   0  0  0  0  0  0  0  0  0  0  0  0
    9.7458  -19.1494   20.9061 C   0  0  0  0  0  0  0  0  0  0  0  0
   10.1006  -18.6783   21.9950 O   0  0  0  0  0  0  0  0  0  0  0  0
    9.8375  -16.2422   20.3374 C   0  0  0  0  0  0  0  0  0  0  0  0
   11.0349  -15.7990   20.2234 O   0  0  0  0  0  0  0  0  0  0  0  0
    8.9477  -20.3038   20.9588 O   0  0  0  0  0  0  0  0  0  0  0  0
    8.9829  -15.7962   21.3711 N   0  0  0  0  0  0  0  0  0  0  0  0
    7.6246  -16.2015   21.5854 C   0  0  0  0  0  0  0  0  0  0  0  0
    6.9572  -14.8758   21.9702 C   0  0  0  0  0  0  0  0  0  0  0  0
    8.0696  -13.9629   22.4195 C   0  0  0  0  0  0  0  0  0  0  0  0
    9.2971  -14.8431   22.3972 C   0  0  1  0  0  0  0  0  0  0  0  0
    9.4160  -15.4898   23.7479 C   0  0  0  0  0  0  0  0  0  0  0  0
   10.0131  -14.8573   24.8247 O   0  0  0  0  0  0  0  0  0  0  0  0
    8.9704  -16.6480   23.9578 O   0  0  0  0  0  0  0  0  0  0  0  0
  2  1  1  6
  3  2  1  0
  4  3  1  0
  5  6  1  0
  5  4  1  0
  6  7  1  0
  8  9  2  0
  8  2  1  0
 10  8  1  0
 11 15  1  0
 11 10  1  0
 11 12  1  1
 13 12  1  0
 13 14  2  0
 15 18  1  0
 16 15  2  0
 17 13  1  0
 18 22  1  0
 19 18  1  0
 19 20  1  0
 20 21  1  0
 22 21  1  0
 23 24  1  0
 22 23  1  1
 25 23  2  0
M  END
$$$$
