KDP.pdb
     RDKit          3D

 25 25  0  0  1  0  0  0  0  0999 V2000
    9.2801  -15.8718   20.0036 N   0  0  0  0  0  0  0  0  0  0  0  0
    9.0240  -14.4750   20.3248 C   0  0  1  0  0  0  0  0  0  0  0  0
    8.1680  -13.8185   19.2817 C   0  0  0  0  0  0  0  0  0  0  0  0
    8.3632  -14.2583   17.9011 C   0  0  0  0  0  0  0  0  0  0  0  0
    7.7579  -13.6037   16.7461 C   0  0  0  0  0  0  0  0  0  0  0  0
    8.0117  -14.0732   15.3695 C   0  0  0  0  0  0  0  0  0  0  0  0
    7.2179  -13.1513   14.4922 N   0  0  0  0  0  0  0  0  0  0  0  0
    8.2503  -14.5230   21.6382 C   0  0  0  0  0  0  0  0  0  0  0  0
    7.6763  -13.4847   22.0554 O   0  0  0  0  0  0  0  0  0  0  0  0
    8.1735  -15.7178   22.3835 N   0  0  0  0  0  0  0  0  0  0  0  0
    7.5260  -15.7192   23.6970 C   0  0  1  0  0  0  0  0  0  0  0  0
    7.3408  -17.2037   24.0251 C   0  0  0  0  0  0  0  0  0  0  0  0
    6.3379  -17.8506   23.1457 C   0  0  0  0  0  0  0  0  0  0  0  0
    6.5332  -18.8818   22.4882 O   0  0  0  0  0  0  0  0  0  0  0  0
    8.3785  -15.0645   24.7147 C   0  0  0  0  0  0  0  0  0  0  0  0
    9.6397  -15.0898   24.4868 O   0  0  0  0  0  0  0  0  0  0  0  0
    5.0631  -17.2726   23.0309 O   0  0  0  0  0  0  0  0  0  0  0  0
    7.8518  -14.4451   25.8708 N   0  0  0  0  0  0  0  0  0  0  0  0
    6.4856  -14.4760   26.3042 C   0  0  0  0  0  0  0  0  0  0  0  0
    6.2750  -13.0354   26.7853 C   0  0  0  0  0  0  0  0  0  0  0  0
    7.6508  -12.4759   27.0440 C   0  0  0  0  0  0  0  0  0  0  0  0
    8.5716  -13.6537   26.8277 C   0  0  1  0  0  0  0  0  0  0  0  0
    8.7198  -14.3613   28.1446 C   0  0  0  0  0  0  0  0  0  0  0  0
    9.5639  -13.9051   29.1424 O   0  0  0  0  0  0  0  0  0  0  0  0
    8.0729  -15.4108   28.3974 O   0  0  0  0  0  0  0  0  0  0  0  0
  2  1  1  6
  3  2  1  0
  4  3  1  0
  5  6  1  0
  5  4  1  0
  6  7  1  0
  8  9  2  0
  8  2  1  0
 10  8  1  0
 11 15  1  0
 11 10  1  0
 11 12  1  1
 13 12  1  0
 13 14  2  0
 15 18  1  0
 16 15  2  0
 17 13  1  0
 18 22  1  0
 19 18  1  0
 19 20  1  0
 20 21  1  0
 22 21  1  0
 23 24  1  0
 22 23  1  1
 25 23  2  0
M  END
$$$$
