KDP.pdb
     RDKit          3D

 25 25  0  0  1  0  0  0  0  0999 V2000
    6.1242  -16.3039   20.4195 N   0  0  0  0  0  0  0  0  0  0  0  0
    6.9872  -15.3010   21.0271 C   0  0  1  0  0  0  0  0  0  0  0  0
    6.5053  -13.9103   20.7348 C   0  0  0  0  0  0  0  0  0  0  0  0
    7.4352  -13.0282   20.0312 C   0  0  0  0  0  0  0  0  0  0  0  0
    8.6627  -13.4868   19.3895 C   0  0  0  0  0  0  0  0  0  0  0  0
    9.5631  -12.5526   18.6849 C   0  0  0  0  0  0  0  0  0  0  0  0
   10.7217  -13.3933   18.2370 N   0  0  0  0  0  0  0  0  0  0  0  0
    6.8709  -15.5578   22.5260 C   0  0  0  0  0  0  0  0  0  0  0  0
    5.7753  -15.3457   23.1059 O   0  0  0  0  0  0  0  0  0  0  0  0
    7.9774  -16.0299   23.2619 N   0  0  0  0  0  0  0  0  0  0  0  0
    7.8386  -16.3061   24.6934 C   0  0  1  0  0  0  0  0  0  0  0  0
    7.6910  -17.8285   24.7716 C   0  0  0  0  0  0  0  0  0  0  0  0
    7.6708  -18.3179   26.1708 C   0  0  0  0  0  0  0  0  0  0  0  0
    6.6752  -18.3153   26.9074 O   0  0  0  0  0  0  0  0  0  0  0  0
    9.0349  -15.8609   25.4429 C   0  0  0  0  0  0  0  0  0  0  0  0
   10.1540  -15.9774   24.8287 O   0  0  0  0  0  0  0  0  0  0  0  0
    8.8546  -18.8281   26.7281 O   0  0  0  0  0  0  0  0  0  0  0  0
    8.9658  -15.3371   26.7538 N   0  0  0  0  0  0  0  0  0  0  0  0
    7.7742  -15.1187   27.5203 C   0  0  0  0  0  0  0  0  0  0  0  0
    8.0709  -13.7699   28.1865 C   0  0  0  0  0  0  0  0  0  0  0  0
    9.5680  -13.5998   28.1372 C   0  0  0  0  0  0  0  0  0  0  0  0
   10.0664  -14.9076   27.5688 C   0  0  1  0  0  0  0  0  0  0  0  0
   10.3097  -15.8398   28.7215 C   0  0  0  0  0  0  0  0  0  0  0  0
   11.3896  -15.6989   29.5760 O   0  0  0  0  0  0  0  0  0  0  0  0
    9.5302  -16.7985   28.9606 O   0  0  0  0  0  0  0  0  0  0  0  0
  2  1  1  6
  3  2  1  0
  4  3  1  0
  5  6  1  0
  5  4  1  0
  6  7  1  0
  8  9  2  0
  8  2  1  0
 10  8  1  0
 11 15  1  0
 11 10  1  0
 11 12  1  6
 13 12  1  0
 13 14  2  0
 15 18  1  0
 16 15  2  0
 17 13  1  0
 18 22  1  0
 19 18  1  0
 19 20  1  0
 20 21  1  0
 22 21  1  0
 23 24  1  0
 22 23  1  1
 25 23  2  0
M  END
$$$$
