KDP.pdb
     RDKit          3D

 25 25  0  0  1  0  0  0  0  0999 V2000
    8.3949  -15.4365   19.7750 N   0  0  0  0  0  0  0  0  0  0  0  0
    8.5823  -14.1304   20.3903 C   0  0  1  0  0  0  0  0  0  0  0  0
    7.7926  -13.0696   19.6809 C   0  0  0  0  0  0  0  0  0  0  0  0
    7.2653  -13.4163   18.3620 C   0  0  0  0  0  0  0  0  0  0  0  0
    8.1015  -13.7610   17.2172 C   0  0  0  0  0  0  0  0  0  0  0  0
    7.5202  -14.0246   15.8858 C   0  0  0  0  0  0  0  0  0  0  0  0
    8.6927  -14.3427   15.0062 N   0  0  0  0  0  0  0  0  0  0  0  0
    8.0305  -14.2932   21.8028 C   0  0  0  0  0  0  0  0  0  0  0  0
    7.9603  -13.2902   22.5580 O   0  0  0  0  0  0  0  0  0  0  0  0
    7.5999  -15.5541   22.2648 N   0  0  0  0  0  0  0  0  0  0  0  0
    7.1995  -15.7220   23.6634 C   0  0  1  0  0  0  0  0  0  0  0  0
    6.9852  -17.2308   23.8164 C   0  0  0  0  0  0  0  0  0  0  0  0
    6.5571  -17.5994   25.1869 C   0  0  0  0  0  0  0  0  0  0  0  0
    6.3961  -16.7985   26.1177 O   0  0  0  0  0  0  0  0  0  0  0  0
    8.2593  -15.2518   24.5837 C   0  0  0  0  0  0  0  0  0  0  0  0
    9.4562  -15.5946   24.2788 O   0  0  0  0  0  0  0  0  0  0  0  0
    6.3084  -18.9503   25.4795 O   0  0  0  0  0  0  0  0  0  0  0  0
    7.9866  -14.4724   25.7308 N   0  0  0  0  0  0  0  0  0  0  0  0
    6.6917  -14.0733   26.1993 C   0  0  0  0  0  0  0  0  0  0  0  0
    6.9470  -12.6258   26.6358 C   0  0  0  0  0  0  0  0  0  0  0  0
    8.4359  -12.5074   26.8405 C   0  0  0  0  0  0  0  0  0  0  0  0
    8.9458  -13.9154   26.6416 C   0  0  1  0  0  0  0  0  0  0  0  0
    8.9166  -14.6013   27.9778 C   0  0  0  0  0  0  0  0  0  0  0  0
    8.0530  -15.6463   28.2580 O   0  0  0  0  0  0  0  0  0  0  0  0
    9.6874  -14.2495   28.9084 O   0  0  0  0  0  0  0  0  0  0  0  0
  2  1  1  6
  3  2  1  0
  4  3  1  0
  5  6  1  0
  5  4  1  0
  6  7  1  0
  8  9  2  0
  8  2  1  0
 10  8  1  0
 11 15  1  0
 11 10  1  0
 11 12  1  1
 13 12  1  0
 13 14  2  0
 15 18  1  0
 16 15  2  0
 17 13  1  0
 18 22  1  0
 19 18  1  0
 19 20  1  0
 20 21  1  0
 22 21  1  0
 23 24  1  0
 22 23  1  1
 25 23  2  0
M  END
$$$$
