KDP.pdb
     RDKit          3D

 25 25  0  0  1  0  0  0  0  0999 V2000
    6.8147  -16.7505   20.1092 N   0  0  0  0  0  0  0  0  0  0  0  0
    7.7177  -15.8092   20.7560 C   0  0  1  0  0  0  0  0  0  0  0  0
    7.4312  -14.3965   20.3386 C   0  0  0  0  0  0  0  0  0  0  0  0
    8.0035  -13.9597   19.0660 C   0  0  0  0  0  0  0  0  0  0  0  0
    7.8589  -12.6104   18.5302 C   0  0  0  0  0  0  0  0  0  0  0  0
    8.4146  -12.2367   17.2143 C   0  0  0  0  0  0  0  0  0  0  0  0
    7.9922  -13.3377   16.2875 N   0  0  0  0  0  0  0  0  0  0  0  0
    7.4153  -15.9540   22.2438 C   0  0  0  0  0  0  0  0  0  0  0  0
    6.2454  -15.7530   22.6589 O   0  0  0  0  0  0  0  0  0  0  0  0
    8.4332  -16.3112   23.1522 N   0  0  0  0  0  0  0  0  0  0  0  0
    8.1398  -16.3877   24.5850 C   0  0  1  0  0  0  0  0  0  0  0  0
    7.7645  -17.8546   24.8156 C   0  0  0  0  0  0  0  0  0  0  0  0
    7.5200  -18.1515   26.2473 C   0  0  0  0  0  0  0  0  0  0  0  0
    8.3820  -18.5410   27.0467 O   0  0  0  0  0  0  0  0  0  0  0  0
    9.3239  -16.0209   25.3941 C   0  0  0  0  0  0  0  0  0  0  0  0
   10.4519  -16.4453   24.9575 O   0  0  0  0  0  0  0  0  0  0  0  0
    6.2238  -17.9874   26.7624 O   0  0  0  0  0  0  0  0  0  0  0  0
    9.2346  -15.2512   26.5761 N   0  0  0  0  0  0  0  0  0  0  0  0
    8.0348  -14.7297   27.1625 C   0  0  0  0  0  0  0  0  0  0  0  0
    8.4823  -13.3315   27.6049 C   0  0  0  0  0  0  0  0  0  0  0  0
    9.9871  -13.3796   27.6830 C   0  0  0  0  0  0  0  0  0  0  0  0
   10.3216  -14.8275   27.4121 C   0  0  1  0  0  0  0  0  0  0  0  0
   10.3291  -15.5457   28.7316 C   0  0  0  0  0  0  0  0  0  0  0  0
   11.3587  -15.4084   29.6466 O   0  0  0  0  0  0  0  0  0  0  0  0
    9.3863  -16.3107   29.0630 O   0  0  0  0  0  0  0  0  0  0  0  0
  2  1  1  6
  3  2  1  0
  4  3  1  0
  5  6  1  0
  5  4  1  0
  6  7  1  0
  8  9  2  0
  8  2  1  0
 10  8  1  0
 11 15  1  0
 11 10  1  0
 11 12  1  1
 13 12  1  0
 13 14  2  0
 15 18  1  0
 16 15  2  0
 17 13  1  0
 18 22  1  0
 19 18  1  0
 19 20  1  0
 20 21  1  0
 22 21  1  0
 23 24  1  0
 22 23  1  1
 25 23  2  0
M  END
$$$$
