KDP.pdb
     RDKit          3D

 25 25  0  0  1  0  0  0  0  0999 V2000
    7.9441  -15.5740   20.2448 N   0  0  0  0  0  0  0  0  0  0  0  0
    8.3860  -14.3423   20.8830 C   0  0  1  0  0  0  0  0  0  0  0  0
    7.6025  -13.1586   20.3963 C   0  0  0  0  0  0  0  0  0  0  0  0
    7.5004  -12.9904   18.9475 C   0  0  0  0  0  0  0  0  0  0  0  0
    8.5383  -13.3984   18.0067 C   0  0  0  0  0  0  0  0  0  0  0  0
    8.4280  -13.1146   16.5619 C   0  0  0  0  0  0  0  0  0  0  0  0
    9.6640  -13.7084   15.9541 N   0  0  0  0  0  0  0  0  0  0  0  0
    8.0892  -14.5542   22.3639 C   0  0  0  0  0  0  0  0  0  0  0  0
    7.6142  -13.6066   23.0406 O   0  0  0  0  0  0  0  0  0  0  0  0
    8.3414  -15.7994   22.9761 N   0  0  0  0  0  0  0  0  0  0  0  0
    8.0959  -15.9718   24.4095 C   0  0  1  0  0  0  0  0  0  0  0  0
    7.5690  -17.4046   24.5327 C   0  0  0  0  0  0  0  0  0  0  0  0
    6.3101  -17.6051   23.7760 C   0  0  0  0  0  0  0  0  0  0  0  0
    5.1843  -17.2792   24.1758 O   0  0  0  0  0  0  0  0  0  0  0  0
    9.3432  -15.8080   25.1896 C   0  0  0  0  0  0  0  0  0  0  0  0
   10.4284  -16.1105   24.5778 O   0  0  0  0  0  0  0  0  0  0  0  0
    6.3691  -18.2071   22.5085 O   0  0  0  0  0  0  0  0  0  0  0  0
    9.3555  -15.3477   26.5259 N   0  0  0  0  0  0  0  0  0  0  0  0
    8.2228  -14.8960   27.2799 C   0  0  0  0  0  0  0  0  0  0  0  0
    8.8020  -13.6877   28.0252 C   0  0  0  0  0  0  0  0  0  0  0  0
   10.2987  -13.8683   28.0146 C   0  0  0  0  0  0  0  0  0  0  0  0
   10.4991  -15.2266   27.3846 C   0  0  1  0  0  0  0  0  0  0  0  0
   10.4834  -16.2452   28.4887 C   0  0  0  0  0  0  0  0  0  0  0  0
   11.5616  -16.4412   29.3344 O   0  0  0  0  0  0  0  0  0  0  0  0
    9.4752  -16.9704   28.6926 O   0  0  0  0  0  0  0  0  0  0  0  0
  2  1  1  6
  3  2  1  0
  4  3  1  0
  5  6  1  0
  5  4  1  0
  6  7  1  0
  8  9  2  0
  8  2  1  0
 10  8  1  0
 11 15  1  0
 11 10  1  0
 11 12  1  6
 13 12  1  0
 13 14  2  0
 15 18  1  0
 16 15  2  0
 17 13  1  0
 18 22  1  0
 19 18  1  0
 19 20  1  0
 20 21  1  0
 22 21  1  0
 23 24  1  0
 22 23  1  1
 25 23  2  0
M  END
$$$$
