KDP.pdb
     RDKit          3D

 25 25  0  0  1  0  0  0  0  0999 V2000
    6.8601  -16.1851   19.5139 N   0  0  0  0  0  0  0  0  0  0  0  0
    7.6615  -15.2458   20.2853 C   0  0  1  0  0  0  0  0  0  0  0  0
    7.3291  -13.8242   19.9381 C   0  0  0  0  0  0  0  0  0  0  0  0
    7.9927  -13.2639   18.7619 C   0  0  0  0  0  0  0  0  0  0  0  0
    8.0263  -13.9187   17.4585 C   0  0  0  0  0  0  0  0  0  0  0  0
    8.7832  -13.3494   16.3258 C   0  0  0  0  0  0  0  0  0  0  0  0
    8.6197  -14.3406   15.2121 N   0  0  0  0  0  0  0  0  0  0  0  0
    7.2616  -15.5054   21.7340 C   0  0  0  0  0  0  0  0  0  0  0  0
    6.0472  -15.4589   22.0574 O   0  0  0  0  0  0  0  0  0  0  0  0
    8.2390  -15.7968   22.7079 N   0  0  0  0  0  0  0  0  0  0  0  0
    7.8461  -15.9712   24.1079 C   0  0  1  0  0  0  0  0  0  0  0  0
    7.9701  -17.4784   24.3498 C   0  0  0  0  0  0  0  0  0  0  0  0
    7.7458  -17.8377   25.7705 C   0  0  0  0  0  0  0  0  0  0  0  0
    6.7394  -17.5366   26.4264 O   0  0  0  0  0  0  0  0  0  0  0  0
    8.7472  -15.2237   25.0137 C   0  0  0  0  0  0  0  0  0  0  0  0
   10.0010  -15.3367   24.7724 O   0  0  0  0  0  0  0  0  0  0  0  0
    8.7313  -18.5744   26.4476 O   0  0  0  0  0  0  0  0  0  0  0  0
    8.2719  -14.4298   26.0821 N   0  0  0  0  0  0  0  0  0  0  0  0
    6.9011  -14.1241   26.3698 C   0  0  0  0  0  0  0  0  0  0  0  0
    6.9848  -12.6458   26.7681 C   0  0  0  0  0  0  0  0  0  0  0  0
    8.4222  -12.3961   27.1480 C   0  0  0  0  0  0  0  0  0  0  0  0
    9.0622  -13.7626   27.0772 C   0  0  1  0  0  0  0  0  0  0  0  0
    8.9192  -14.4009   28.4296 C   0  0  0  0  0  0  0  0  0  0  0  0
    9.7134  -14.0465   29.5065 O   0  0  0  0  0  0  0  0  0  0  0  0
    8.0589  -15.2950   28.6410 O   0  0  0  0  0  0  0  0  0  0  0  0
  2  1  1  6
  3  2  1  0
  4  3  1  0
  5  6  1  0
  5  4  1  0
  6  7  1  0
  8  9  2  0
  8  2  1  0
 10  8  1  0
 11 15  1  0
 11 10  1  0
 11 12  1  1
 13 12  1  0
 13 14  2  0
 15 18  1  0
 16 15  2  0
 17 13  1  0
 18 22  1  0
 19 18  1  0
 19 20  1  0
 20 21  1  0
 22 21  1  0
 23 24  1  0
 22 23  1  1
 25 23  2  0
M  END
$$$$
