KDP.pdb
     RDKit          3D

 25 25  0  0  1  0  0  0  0  0999 V2000
    8.8538  -15.2557   19.8787 N   0  0  0  0  0  0  0  0  0  0  0  0
    8.8031  -13.9468   20.5142 C   0  0  1  0  0  0  0  0  0  0  0  0
    7.9223  -12.9994   19.7535 C   0  0  0  0  0  0  0  0  0  0  0  0
    7.5028  -13.4227   18.4183 C   0  0  0  0  0  0  0  0  0  0  0  0
    8.4291  -13.7130   17.3291 C   0  0  0  0  0  0  0  0  0  0  0  0
    7.9495  -14.0279   15.9687 C   0  0  0  0  0  0  0  0  0  0  0  0
    9.1919  -14.2859   15.1690 N   0  0  0  0  0  0  0  0  0  0  0  0
    8.1779  -14.2116   21.8799 C   0  0  0  0  0  0  0  0  0  0  0  0
    7.7939  -13.2416   22.5821 O   0  0  0  0  0  0  0  0  0  0  0  0
    8.0272  -15.5299   22.3574 N   0  0  0  0  0  0  0  0  0  0  0  0
    7.5981  -15.7621   23.7382 C   0  0  1  0  0  0  0  0  0  0  0  0
    7.3430  -17.2708   23.8057 C   0  0  0  0  0  0  0  0  0  0  0  0
    7.0014  -17.7202   25.1765 C   0  0  0  0  0  0  0  0  0  0  0  0
    7.7951  -18.2490   25.9664 O   0  0  0  0  0  0  0  0  0  0  0  0
    8.6531  -15.3700   24.6997 C   0  0  0  0  0  0  0  0  0  0  0  0
    9.8504  -15.6965   24.3789 O   0  0  0  0  0  0  0  0  0  0  0  0
    5.6872  -17.5454   25.6398 O   0  0  0  0  0  0  0  0  0  0  0  0
    8.3756  -14.6781   25.9005 N   0  0  0  0  0  0  0  0  0  0  0  0
    7.0798  -14.3002   26.3840 C   0  0  0  0  0  0  0  0  0  0  0  0
    7.3466  -12.8940   26.9339 C   0  0  0  0  0  0  0  0  0  0  0  0
    8.8342  -12.8105   27.1638 C   0  0  0  0  0  0  0  0  0  0  0  0
    9.3301  -14.2051   26.8623 C   0  0  1  0  0  0  0  0  0  0  0  0
    9.2767  -14.9918   28.1411 C   0  0  0  0  0  0  0  0  0  0  0  0
   10.2083  -14.8306   29.1522 O   0  0  0  0  0  0  0  0  0  0  0  0
    8.3698  -15.8396   28.3478 O   0  0  0  0  0  0  0  0  0  0  0  0
  2  1  1  6
  3  2  1  0
  4  3  1  0
  5  6  1  0
  5  4  1  0
  6  7  1  0
  8  9  2  0
  8  2  1  0
 10  8  1  0
 11 15  1  0
 11 10  1  0
 11 12  1  6
 13 12  1  0
 13 14  2  0
 15 18  1  0
 16 15  2  0
 17 13  1  0
 18 22  1  0
 19 18  1  0
 19 20  1  0
 20 21  1  0
 22 21  1  0
 23 24  1  0
 22 23  1  1
 25 23  2  0
M  END
$$$$
