QCQ.pdb
     RDKit          3D

 25 24  0  0  1  0  0  0  0  0999 V2000
   17.4860  -16.1296  -15.4439 N   0  0  0  0  0  0  0  0  0  0  0  0
   18.3568  -17.0924  -16.0581 C   0  0  0  0  0  0  0  0  0  0  0  0
   18.5971  -18.1314  -15.4184 O   0  0  0  0  0  0  0  0  0  0  0  0
   18.9026  -16.8046  -17.3665 C   0  0  0  0  0  0  0  0  0  0  0  0
   18.4635  -15.5293  -18.0166 C   0  0  0  0  0  0  0  0  0  0  0  0
   19.2491  -14.3205  -17.6665 C   0  0  2  0  0  0  0  0  0  0  0  0
   19.8819  -14.4472  -16.3909 N   0  0  0  0  0  0  0  0  0  0  0  0
   18.4067  -13.0829  -17.6580 C   0  0  0  0  0  0  0  0  0  0  0  0
   17.7870  -12.7205  -18.6917 O   0  0  0  0  0  0  0  0  0  0  0  0
   18.2586  -12.2622  -16.5131 N   0  0  0  0  0  0  0  0  0  0  0  0
   17.4585  -11.0705  -16.4798 C   0  0  1  0  0  0  0  0  0  0  0  0
   16.5609  -10.9409  -15.3118 C   0  0  0  0  0  0  0  0  0  0  0  0
   15.8455  -12.5753  -14.8885 S   0  0  0  0  0  0  0  0  0  0  0  0
   18.3588   -9.8703  -16.5410 C   0  0  0  0  0  0  0  0  0  0  0  0
   19.5097   -9.9162  -16.0378 O   0  0  0  0  0  0  0  0  0  0  0  0
   17.5308   -5.1868  -20.5801 N   0  0  0  0  0  0  0  0  0  0  0  0
   18.7523   -4.7863  -19.9289 C   0  0  0  0  0  0  0  0  0  0  0  0
   19.2906   -3.7563  -20.3652 O   0  0  0  0  0  0  0  0  0  0  0  0
   19.2399   -5.6121  -18.8314 C   0  0  0  0  0  0  0  0  0  0  0  0
   18.3195   -6.7546  -18.5469 C   0  0  0  0  0  0  0  0  0  0  0  0
   18.7876   -7.5219  -17.3597 C   0  0  2  0  0  0  0  0  0  0  0  0
   17.9190   -8.6735  -17.1674 N   0  0  0  0  0  0  0  0  0  0  0  0
   18.7739   -6.6718  -16.1429 C   0  0  0  0  0  0  0  0  0  0  0  0
   19.9411   -6.0391  -15.7632 O   0  0  0  0  0  0  0  0  0  0  0  0
   17.7473   -6.5160  -15.4626 O   0  0  0  0  0  0  0  0  0  0  0  0
  1  2  1  0
  2  4  1  0
  3  2  2  0
  5  4  1  0
  6  5  1  0
  6  7  1  1
  8  6  1  0
  8  9  2  0
 10  8  1  0
 11 10  1  0
 11 14  1  0
 11 12  1  1
 13 12  1  0
 14 22  1  0
 15 14  2  0
 17 16  1  0
 17 19  1  0
 18 17  2  0
 19 20  1  0
 21 20  1  6
 21 23  1  0
 22 21  1  0
 23 25  2  0
 23 24  1  0
M  END
$$$$
