QCQ.pdb
     RDKit          3D

 25 24  0  0  1  0  0  0  0  0999 V2000
   18.9730  -17.7638  -13.5554 N   0  0  0  0  0  0  0  0  0  0  0  0
   19.8185  -17.9288  -14.7044 C   0  0  0  0  0  0  0  0  0  0  0  0
   19.7832  -17.0359  -15.5694 O   0  0  0  0  0  0  0  0  0  0  0  0
   20.6504  -19.1088  -14.7948 C   0  0  0  0  0  0  0  0  0  0  0  0
   20.6276  -20.0432  -13.6251 C   0  0  0  0  0  0  0  0  0  0  0  0
   21.8693  -20.0960  -12.8148 C   0  0  2  0  0  0  0  0  0  0  0  0
   23.0218  -20.3497  -13.6216 N   0  0  0  0  0  0  0  0  0  0  0  0
   21.8001  -21.1397  -11.7437 C   0  0  0  0  0  0  0  0  0  0  0  0
   22.0953  -22.3373  -11.9937 O   0  0  0  0  0  0  0  0  0  0  0  0
   21.4070  -20.8510  -10.4139 N   0  0  0  0  0  0  0  0  0  0  0  0
   21.4514  -21.8037   -9.3406 C   0  0  1  0  0  0  0  0  0  0  0  0
   22.1603  -21.3553   -8.1227 C   0  0  0  0  0  0  0  0  0  0  0  0
   21.5669  -19.6917   -7.6304 S   0  0  0  0  0  0  0  0  0  0  0  0
   20.0500  -22.1990   -8.9739 C   0  0  0  0  0  0  0  0  0  0  0  0
   19.1189  -21.3567   -9.0328 O   0  0  0  0  0  0  0  0  0  0  0  0
   17.7506  -27.9471   -9.1695 N   0  0  0  0  0  0  0  0  0  0  0  0
   16.6210  -27.2059   -8.6683 C   0  0  0  0  0  0  0  0  0  0  0  0
   15.5526  -27.8323   -8.5822 O   0  0  0  0  0  0  0  0  0  0  0  0
   16.8293  -25.8085   -8.3108 C   0  0  0  0  0  0  0  0  0  0  0  0
   18.2311  -25.3697   -8.5858 C   0  0  0  0  0  0  0  0  0  0  0  0
   18.4309  -23.9563   -8.1619 C   0  0  2  0  0  0  0  0  0  0  0  0
   19.7637  -23.5268   -8.5579 N   0  0  0  0  0  0  0  0  0  0  0  0
   18.2733  -23.8189   -6.6922 C   0  0  0  0  0  0  0  0  0  0  0  0
   17.0046  -23.6461   -6.1750 O   0  0  0  0  0  0  0  0  0  0  0  0
   19.2458  -23.8552   -5.9216 O   0  0  0  0  0  0  0  0  0  0  0  0
  1  2  1  0
  2  4  1  0
  3  2  2  0
  5  4  1  0
  6  5  1  0
  6  7  1  6
  8  6  1  0
  8  9  2  0
 10  8  1  0
 11 10  1  0
 11 14  1  0
 11 12  1  1
 13 12  1  0
 14 22  1  0
 15 14  2  0
 17 16  1  0
 17 19  1  0
 18 17  2  0
 19 20  1  0
 21 20  1  1
 21 23  1  0
 22 21  1  0
 23 25  2  0
 23 24  1  0
M  END
$$$$
