QCQ.pdb
     RDKit          3D

 25 24  0  0  1  0  0  0  0  0999 V2000
   26.5511  -17.3664  -15.3746 N   0  0  0  0  0  0  0  0  0  0  0  0
   27.8205  -17.6187  -15.9967 C   0  0  0  0  0  0  0  0  0  0  0  0
   28.0979  -16.9563  -17.0121 O   0  0  0  0  0  0  0  0  0  0  0  0
   28.6938  -18.6174  -15.4201 C   0  0  0  0  0  0  0  0  0  0  0  0
   28.2290  -19.2739  -14.1572 C   0  0  0  0  0  0  0  0  0  0  0  0
   27.4339  -20.5147  -14.3276 C   0  0  2  0  0  0  0  0  0  0  0  0
   26.6236  -20.4711  -15.5045 N   0  0  0  0  0  0  0  0  0  0  0  0
   26.5482  -20.7834  -13.1508 C   0  0  0  0  0  0  0  0  0  0  0  0
   27.0068  -21.3272  -12.1126 O   0  0  0  0  0  0  0  0  0  0  0  0
   25.1716  -20.4507  -13.1335 N   0  0  0  0  0  0  0  0  0  0  0  0
   24.2457  -20.9226  -12.1428 C   0  0  1  0  0  0  0  0  0  0  0  0
   24.3330  -20.2582  -10.8246 C   0  0  0  0  0  0  0  0  0  0  0  0
   25.4203  -21.2243   -9.7082 S   0  0  0  0  0  0  0  0  0  0  0  0
   22.8464  -20.7834  -12.6697 C   0  0  0  0  0  0  0  0  0  0  0  0
   22.4953  -19.7325  -13.2631 O   0  0  0  0  0  0  0  0  0  0  0  0
   19.4921  -25.4254  -14.4132 N   0  0  0  0  0  0  0  0  0  0  0  0
   18.4440  -24.4369  -14.4400 C   0  0  0  0  0  0  0  0  0  0  0  0
   17.4411  -24.7236  -15.1130 O   0  0  0  0  0  0  0  0  0  0  0  0
   18.6498  -23.2073  -13.6850 C   0  0  0  0  0  0  0  0  0  0  0  0
   19.9925  -23.1780  -13.0297 C   0  0  0  0  0  0  0  0  0  0  0  0
   20.5853  -21.8144  -13.1094 C   0  0  2  0  0  0  0  0  0  0  0  0
   21.9078  -21.8366  -12.5026 N   0  0  0  0  0  0  0  0  0  0  0  0
   19.7273  -20.8244  -12.4114 C   0  0  0  0  0  0  0  0  0  0  0  0
   18.7408  -20.1787  -13.1303 O   0  0  0  0  0  0  0  0  0  0  0  0
   19.8727  -20.5638  -11.2065 O   0  0  0  0  0  0  0  0  0  0  0  0
  1  2  1  0
  2  4  1  0
  3  2  2  0
  5  4  1  0
  6  5  1  0
  6  7  1  6
  8  6  1  0
  8  9  2  0
 10  8  1  0
 11 10  1  0
 11 14  1  0
 11 12  1  1
 13 12  1  0
 14 22  1  0
 15 14  2  0
 17 16  1  0
 17 19  1  0
 18 17  2  0
 19 20  1  0
 21 20  1  1
 21 23  1  0
 22 21  1  0
 23 25  2  0
 23 24  1  0
M  END
$$$$
