QCQ.pdb
     RDKit          3D

 25 24  0  0  1  0  0  0  0  0999 V2000
   20.3203  -36.1317  -13.0185 N   0  0  0  0  0  0  0  0  0  0  0  0
   21.6338  -36.0596  -13.5946 C   0  0  0  0  0  0  0  0  0  0  0  0
   21.7832  -35.3136  -14.5783 O   0  0  0  0  0  0  0  0  0  0  0  0
   22.6958  -36.8498  -13.0112 C   0  0  0  0  0  0  0  0  0  0  0  0
   23.3596  -36.2935  -11.7898 C   0  0  0  0  0  0  0  0  0  0  0  0
   24.1371  -35.0454  -11.9876 C   0  0  2  0  0  0  0  0  0  0  0  0
   25.3911  -35.2945  -12.6270 N   0  0  0  0  0  0  0  0  0  0  0  0
   24.3952  -34.3310  -10.6975 C   0  0  0  0  0  0  0  0  0  0  0  0
   25.4299  -34.5751  -10.0238 O   0  0  0  0  0  0  0  0  0  0  0  0
   23.5116  -33.3593  -10.1673 N   0  0  0  0  0  0  0  0  0  0  0  0
   23.7504  -32.6397   -8.9480 C   0  0  1  0  0  0  0  0  0  0  0  0
   23.7344  -31.1658   -9.0671 C   0  0  0  0  0  0  0  0  0  0  0  0
   23.9493  -30.4025   -7.4139 S   0  0  0  0  0  0  0  0  0  0  0  0
   22.7377  -33.0590   -7.9216 C   0  0  0  0  0  0  0  0  0  0  0  0
   21.5161  -32.8283   -8.1068 O   0  0  0  0  0  0  0  0  0  0  0  0
   21.7661  -35.8341   -1.3008 N   0  0  0  0  0  0  0  0  0  0  0  0
   22.5926  -35.8803   -2.4803 C   0  0  0  0  0  0  0  0  0  0  0  0
   23.7935  -36.1348   -2.2950 O   0  0  0  0  0  0  0  0  0  0  0  0
   21.9557  -35.6298   -3.7670 C   0  0  0  0  0  0  0  0  0  0  0  0
   22.9163  -35.0572   -4.7582 C   0  0  0  0  0  0  0  0  0  0  0  0
   22.2121  -34.1531   -5.7090 C   0  0  2  0  0  0  0  0  0  0  0  0
   23.1502  -33.7196   -6.7335 N   0  0  0  0  0  0  0  0  0  0  0  0
   21.6575  -32.9718   -5.0014 C   0  0  0  0  0  0  0  0  0  0  0  0
   22.4641  -31.8645   -4.8274 O   0  0  0  0  0  0  0  0  0  0  0  0
   20.4956  -32.9539   -4.5650 O   0  0  0  0  0  0  0  0  0  0  0  0
  1  2  1  0
  2  4  1  0
  3  2  2  0
  5  4  1  0
  6  5  1  0
  6  7  1  1
  8  6  1  0
  8  9  2  0
 10  8  1  0
 11 10  1  0
 11 14  1  0
 11 12  1  6
 13 12  1  0
 14 22  1  0
 15 14  2  0
 17 16  1  0
 17 19  1  0
 18 17  2  0
 19 20  1  0
 21 20  1  1
 21 23  1  0
 22 21  1  0
 23 25  2  0
 23 24  1  0
M  END
$$$$
