QCQ.pdb
     RDKit          3D

 25 24  0  0  1  0  0  0  0  0999 V2000
   18.2872  -15.3404  -14.4704 N   0  0  0  0  0  0  0  0  0  0  0  0
   18.2073  -14.6832  -15.7448 C   0  0  0  0  0  0  0  0  0  0  0  0
   19.0888  -14.9524  -16.5797 O   0  0  0  0  0  0  0  0  0  0  0  0
   17.1244  -13.7544  -15.9841 C   0  0  0  0  0  0  0  0  0  0  0  0
   16.8661  -12.7294  -14.9236 C   0  0  0  0  0  0  0  0  0  0  0  0
   16.8751  -11.3158  -15.3740 C   0  0  2  0  0  0  0  0  0  0  0  0
   17.6527  -11.1395  -16.5605 N   0  0  0  0  0  0  0  0  0  0  0  0
   17.4002  -10.3912  -14.3201 C   0  0  0  0  0  0  0  0  0  0  0  0
   17.0186  -10.4960  -13.1254 O   0  0  0  0  0  0  0  0  0  0  0  0
   18.3366   -9.3649  -14.5958 N   0  0  0  0  0  0  0  0  0  0  0  0
   18.8626   -8.4722  -13.6018 C   0  0  1  0  0  0  0  0  0  0  0  0
   20.0672   -7.7140  -14.0032 C   0  0  0  0  0  0  0  0  0  0  0  0
   20.6658   -6.7009  -12.5969 S   0  0  0  0  0  0  0  0  0  0  0  0
   17.7900   -7.5053  -13.1903 C   0  0  0  0  0  0  0  0  0  0  0  0
   17.0914   -6.9270  -14.0607 O   0  0  0  0  0  0  0  0  0  0  0  0
   15.1385   -7.2709   -7.5606 N   0  0  0  0  0  0  0  0  0  0  0  0
   14.5442   -6.1206   -8.1932 C   0  0  0  0  0  0  0  0  0  0  0  0
   13.6842   -5.5178   -7.5313 O   0  0  0  0  0  0  0  0  0  0  0  0
   14.9992   -5.7707   -9.5329 C   0  0  0  0  0  0  0  0  0  0  0  0
   16.0863   -6.6814  -10.0039 C   0  0  0  0  0  0  0  0  0  0  0  0
   16.5516   -6.2843  -11.3615 C   0  0  2  0  0  0  0  0  0  0  0  0
   17.5549   -7.2356  -11.8155 N   0  0  0  0  0  0  0  0  0  0  0  0
   17.1269   -4.9160  -11.3428 C   0  0  0  0  0  0  0  0  0  0  0  0
   16.2669   -3.8356  -11.3342 O   0  0  0  0  0  0  0  0  0  0  0  0
   18.3525   -4.7193  -11.3349 O   0  0  0  0  0  0  0  0  0  0  0  0
  1  2  1  0
  2  4  1  0
  3  2  2  0
  5  4  1  0
  6  5  1  0
  6  7  1  6
  8  6  1  0
  8  9  2  0
 10  8  1  0
 11 10  1  0
 11 14  1  0
 11 12  1  6
 13 12  1  0
 14 22  1  0
 15 14  2  0
 17 16  1  0
 17 19  1  0
 18 17  2  0
 19 20  1  0
 21 20  1  1
 21 23  1  0
 22 21  1  0
 23 25  2  0
 23 24  1  0
M  END
$$$$
