QCQ.pdb
     RDKit          3D

 25 24  0  0  1  0  0  0  0  0999 V2000
   16.1965  -15.4224  -19.5305 N   0  0  0  0  0  0  0  0  0  0  0  0
   16.0447  -14.7957  -18.2473 C   0  0  0  0  0  0  0  0  0  0  0  0
   14.9932  -14.1637  -18.0439 O   0  0  0  0  0  0  0  0  0  0  0  0
   17.1088  -14.9277  -17.2763 C   0  0  0  0  0  0  0  0  0  0  0  0
   18.4849  -14.5443  -17.7249 C   0  0  0  0  0  0  0  0  0  0  0  0
   19.1706  -13.5167  -16.9033 C   0  0  2  0  0  0  0  0  0  0  0  0
   19.0063  -13.7567  -15.5037 N   0  0  0  0  0  0  0  0  0  0  0  0
   18.6847  -12.1339  -17.2084 C   0  0  0  0  0  0  0  0  0  0  0  0
   18.7817  -11.6607  -18.3706 O   0  0  0  0  0  0  0  0  0  0  0  0
   18.0999  -11.2920  -16.2310 N   0  0  0  0  0  0  0  0  0  0  0  0
   17.5022  -10.0197  -16.5236 C   0  0  1  0  0  0  0  0  0  0  0  0
   16.0281  -10.0229  -16.6417 C   0  0  0  0  0  0  0  0  0  0  0  0
   15.3534   -8.4080  -16.0951 S   0  0  0  0  0  0  0  0  0  0  0  0
   17.9067   -9.0306  -15.4687 C   0  0  0  0  0  0  0  0  0  0  0  0
   17.8125   -9.3295  -14.2515 O   0  0  0  0  0  0  0  0  0  0  0  0
   22.6399   -5.3132  -15.9198 N   0  0  0  0  0  0  0  0  0  0  0  0
   22.0845   -4.8340  -14.6795 C   0  0  0  0  0  0  0  0  0  0  0  0
   22.7892   -4.0386  -14.0377 O   0  0  0  0  0  0  0  0  0  0  0  0
   20.7642   -5.3165  -14.2944 C   0  0  0  0  0  0  0  0  0  0  0  0
   20.2093   -6.2727  -15.2999 C   0  0  0  0  0  0  0  0  0  0  0  0
   18.8815   -6.7837  -14.8604 C   0  0  2  0  0  0  0  0  0  0  0  0
   18.3991   -7.7497  -15.8360 N   0  0  0  0  0  0  0  0  0  0  0  0
   17.9063   -5.6725  -14.7270 C   0  0  0  0  0  0  0  0  0  0  0  0
   17.8065   -5.0202  -13.5140 O   0  0  0  0  0  0  0  0  0  0  0  0
   17.1831   -5.3170  -15.6713 O   0  0  0  0  0  0  0  0  0  0  0  0
  1  2  1  0
  2  4  1  0
  3  2  2  0
  5  4  1  0
  6  5  1  0
  6  7  1  1
  8  6  1  0
  8  9  2  0
 10  8  1  0
 11 10  1  0
 11 14  1  0
 11 12  1  1
 13 12  1  0
 14 22  1  0
 15 14  2  0
 17 16  1  0
 17 19  1  0
 18 17  2  0
 19 20  1  0
 21 20  1  6
 21 23  1  0
 22 21  1  0
 23 25  2  0
 23 24  1  0
M  END
$$$$
