QCQ.pdb
     RDKit          3D

 25 24  0  0  1  0  0  0  0  0999 V2000
   25.1585  -24.5323  -14.6599 N   0  0  0  0  0  0  0  0  0  0  0  0
   24.1026  -24.7266  -13.7062 C   0  0  0  0  0  0  0  0  0  0  0  0
   23.4303  -25.7681  -13.8064 O   0  0  0  0  0  0  0  0  0  0  0  0
   23.8783  -23.7140  -12.6978 C   0  0  0  0  0  0  0  0  0  0  0  0
   24.8060  -22.5388  -12.7018 C   0  0  0  0  0  0  0  0  0  0  0  0
   24.1639  -21.2070  -12.5787 C   0  0  2  0  0  0  0  0  0  0  0  0
   22.7720  -21.2546  -12.9010 N   0  0  0  0  0  0  0  0  0  0  0  0
   24.8188  -20.1819  -13.4513 C   0  0  0  0  0  0  0  0  0  0  0  0
   24.1335  -19.4676  -14.2286 O   0  0  0  0  0  0  0  0  0  0  0  0
   26.2173  -19.9579  -13.4566 N   0  0  0  0  0  0  0  0  0  0  0  0
   26.9062  -19.2172  -14.4756 C   0  0  1  0  0  0  0  0  0  0  0  0
   28.1663  -18.5715  -14.0489 C   0  0  0  0  0  0  0  0  0  0  0  0
   29.1084  -19.7012  -12.9543 S   0  0  0  0  0  0  0  0  0  0  0  0
   27.1901  -20.1245  -15.6380 C   0  0  0  0  0  0  0  0  0  0  0  0
   27.2552  -21.3683  -15.4687 O   0  0  0  0  0  0  0  0  0  0  0  0
   24.5679  -23.5786  -17.3028 N   0  0  0  0  0  0  0  0  0  0  0  0
   25.8878  -23.8621  -17.8068 C   0  0  0  0  0  0  0  0  0  0  0  0
   26.1682  -25.0621  -17.9565 O   0  0  0  0  0  0  0  0  0  0  0  0
   26.7631  -22.7326  -18.0936 C   0  0  0  0  0  0  0  0  0  0  0  0
   26.1048  -21.4283  -17.7795 C   0  0  0  0  0  0  0  0  0  0  0  0
   26.9921  -20.2908  -18.1484 C   0  0  2  0  0  0  0  0  0  0  0  0
   27.3873  -19.5864  -16.9379 N   0  0  0  0  0  0  0  0  0  0  0  0
   26.2977  -19.3574  -19.0704 C   0  0  0  0  0  0  0  0  0  0  0  0
   26.4888  -19.5043  -20.4301 O   0  0  0  0  0  0  0  0  0  0  0  0
   25.5548  -18.4545  -18.6535 O   0  0  0  0  0  0  0  0  0  0  0  0
  1  2  1  0
  2  4  1  0
  3  2  2  0
  5  4  1  0
  6  5  1  0
  6  7  1  6
  8  6  1  0
  8  9  2  0
 10  8  1  0
 11 10  1  0
 11 14  1  0
 11 12  1  1
 13 12  1  0
 14 22  1  0
 15 14  2  0
 17 16  1  0
 17 19  1  0
 18 17  2  0
 19 20  1  0
 21 20  1  1
 21 23  1  0
 22 21  1  0
 23 25  2  0
 23 24  1  0
M  END
$$$$
