QCQ.pdb
     RDKit          3D

 25 24  0  0  1  0  0  0  0  0999 V2000
   23.8535  -17.7569  -17.4655 N   0  0  0  0  0  0  0  0  0  0  0  0
   24.9482  -18.6770  -17.5969 C   0  0  0  0  0  0  0  0  0  0  0  0
   25.5038  -18.7450  -18.7075 O   0  0  0  0  0  0  0  0  0  0  0  0
   25.3377  -19.4664  -16.4489 C   0  0  0  0  0  0  0  0  0  0  0  0
   24.5587  -19.2555  -15.1877 C   0  0  0  0  0  0  0  0  0  0  0  0
   24.1000  -20.4857  -14.4970 C   0  0  2  0  0  0  0  0  0  0  0  0
   23.3878  -21.3575  -15.3781 N   0  0  0  0  0  0  0  0  0  0  0  0
   23.2248  -20.1799  -13.3215 C   0  0  0  0  0  0  0  0  0  0  0  0
   23.3742  -19.1139  -12.6695 O   0  0  0  0  0  0  0  0  0  0  0  0
   22.1988  -21.0510  -12.8804 N   0  0  0  0  0  0  0  0  0  0  0  0
   21.1584  -20.6666  -11.9685 C   0  0  1  0  0  0  0  0  0  0  0  0
   20.4089  -19.4466  -12.3384 C   0  0  0  0  0  0  0  0  0  0  0  0
   19.9849  -18.4922  -10.8312 S   0  0  0  0  0  0  0  0  0  0  0  0
   20.1930  -21.8061  -11.8131 C   0  0  0  0  0  0  0  0  0  0  0  0
   19.6273  -22.2983  -12.8218 O   0  0  0  0  0  0  0  0  0  0  0  0
   19.1126  -24.8258   -6.3859 N   0  0  0  0  0  0  0  0  0  0  0  0
   18.1367  -25.4328   -7.2552 C   0  0  0  0  0  0  0  0  0  0  0  0
   17.3910  -26.2766   -6.7328 O   0  0  0  0  0  0  0  0  0  0  0  0
   18.1105  -25.0081   -8.6492 C   0  0  0  0  0  0  0  0  0  0  0  0
   19.0683  -23.8899   -8.9054 C   0  0  0  0  0  0  0  0  0  0  0  0
   18.9608  -23.4199  -10.3142 C   0  0  2  0  0  0  0  0  0  0  0  0
   19.9107  -22.3380  -10.5264 N   0  0  0  0  0  0  0  0  0  0  0  0
   17.5849  -22.9474  -10.6094 C   0  0  0  0  0  0  0  0  0  0  0  0
   16.6736  -23.8445  -11.1304 O   0  0  0  0  0  0  0  0  0  0  0  0
   17.2349  -21.7747  -10.4013 O   0  0  0  0  0  0  0  0  0  0  0  0
  1  2  1  0
  2  4  1  0
  3  2  2  0
  5  4  1  0
  6  5  1  0
  6  7  1  6
  8  6  1  0
  8  9  2  0
 10  8  1  0
 11 10  1  0
 11 14  1  0
 11 12  1  6
 13 12  1  0
 14 22  1  0
 15 14  2  0
 17 16  1  0
 17 19  1  0
 18 17  2  0
 19 20  1  0
 21 20  1  1
 21 23  1  0
 22 21  1  0
 23 25  2  0
 23 24  1  0
M  END
$$$$
