QCQ.pdb
     RDKit          3D

 25 24  0  0  1  0  0  0  0  0999 V2000
   15.5236  -14.7517  -13.0342 N   0  0  0  0  0  0  0  0  0  0  0  0
   16.6566  -14.1202  -13.6505 C   0  0  0  0  0  0  0  0  0  0  0  0
   17.5906  -14.8569  -14.0134 O   0  0  0  0  0  0  0  0  0  0  0  0
   16.6527  -12.6825  -13.8102 C   0  0  0  0  0  0  0  0  0  0  0  0
   15.4824  -11.9422  -13.2408 C   0  0  0  0  0  0  0  0  0  0  0  0
   15.5217  -10.4655  -13.3781 C   0  0  2  0  0  0  0  0  0  0  0  0
   16.5300  -10.0426  -14.2990 N   0  0  0  0  0  0  0  0  0  0  0  0
   15.7594   -9.7830  -12.0670 C   0  0  0  0  0  0  0  0  0  0  0  0
   15.0606  -10.0663  -11.0593 O   0  0  0  0  0  0  0  0  0  0  0  0
   16.7615   -8.7990  -11.8837 N   0  0  0  0  0  0  0  0  0  0  0  0
   17.0513   -8.1758  -10.6230 C   0  0  1  0  0  0  0  0  0  0  0  0
   18.4692   -7.8178  -10.4029 C   0  0  0  0  0  0  0  0  0  0  0  0
   19.1109   -6.8883  -11.8472 S   0  0  0  0  0  0  0  0  0  0  0  0
   16.2066   -6.9431  -10.4766 C   0  0  0  0  0  0  0  0  0  0  0  0
   15.8379   -6.3040  -11.4942 O   0  0  0  0  0  0  0  0  0  0  0  0
   13.4283   -5.1547   -5.1314 N   0  0  0  0  0  0  0  0  0  0  0  0
   13.0838   -4.0666   -6.0112 C   0  0  0  0  0  0  0  0  0  0  0  0
   12.3776   -3.1713   -5.5206 O   0  0  0  0  0  0  0  0  0  0  0  0
   13.5881   -4.1117   -7.3779 C   0  0  0  0  0  0  0  0  0  0  0  0
   14.4441   -5.3139   -7.6128 C   0  0  0  0  0  0  0  0  0  0  0  0
   15.0170   -5.2892   -8.9870 C   0  0  2  0  0  0  0  0  0  0  0  0
   15.8167   -6.4883   -9.1884 N   0  0  0  0  0  0  0  0  0  0  0  0
   15.8589   -4.0829   -9.1862 C   0  0  0  0  0  0  0  0  0  0  0  0
   15.2843   -2.9587   -9.7454 O   0  0  0  0  0  0  0  0  0  0  0  0
   17.0578   -4.0590   -8.8653 O   0  0  0  0  0  0  0  0  0  0  0  0
  1  2  1  0
  2  4  1  0
  3  2  2  0
  5  4  1  0
  6  5  1  0
  6  7  1  6
  8  6  1  0
  8  9  2  0
 10  8  1  0
 11 10  1  0
 11 14  1  0
 11 12  1  6
 13 12  1  0
 14 22  1  0
 15 14  2  0
 17 16  1  0
 17 19  1  0
 18 17  2  0
 19 20  1  0
 21 20  1  1
 21 23  1  0
 22 21  1  0
 23 25  2  0
 23 24  1  0
M  END
$$$$
