QCQ.pdb
     RDKit          3D

 25 24  0  0  1  0  0  0  0  0999 V2000
   29.0316  -20.6715  -16.2318 N   0  0  0  0  0  0  0  0  0  0  0  0
   28.5932  -21.1212  -17.5232 C   0  0  0  0  0  0  0  0  0  0  0  0
   29.4513  -21.1983  -18.4201 O   0  0  0  0  0  0  0  0  0  0  0  0
   27.1972  -21.4516  -17.7100 C   0  0  0  0  0  0  0  0  0  0  0  0
   26.3090  -21.3371  -16.5102 C   0  0  0  0  0  0  0  0  0  0  0  0
   26.5902  -22.2849  -15.4040 C   0  0  2  0  0  0  0  0  0  0  0  0
   26.6460  -23.6378  -15.8626 N   0  0  0  0  0  0  0  0  0  0  0  0
   25.5707  -22.1955  -14.3114 C   0  0  0  0  0  0  0  0  0  0  0  0
   24.4442  -22.7424  -14.4374 O   0  0  0  0  0  0  0  0  0  0  0  0
   25.8049  -21.5056  -13.0967 N   0  0  0  0  0  0  0  0  0  0  0  0
   24.8043  -21.2964  -12.0883 C   0  0  1  0  0  0  0  0  0  0  0  0
   25.2951  -20.7243  -10.8161 C   0  0  0  0  0  0  0  0  0  0  0  0
   26.7688  -21.6513  -10.2408 S   0  0  0  0  0  0  0  0  0  0  0  0
   23.7258  -20.4094  -12.6404 C   0  0  0  0  0  0  0  0  0  0  0  0
   24.0196  -19.4597  -13.4097 O   0  0  0  0  0  0  0  0  0  0  0  0
   21.6991  -22.2401  -16.8728 N   0  0  0  0  0  0  0  0  0  0  0  0
   20.5592  -21.3703  -16.7293 C   0  0  0  0  0  0  0  0  0  0  0  0
   19.8156  -21.2781  -17.7190 O   0  0  0  0  0  0  0  0  0  0  0  0
   20.3816  -20.6872  -15.4541 C   0  0  0  0  0  0  0  0  0  0  0  0
   21.4742  -21.0205  -14.4906 C   0  0  0  0  0  0  0  0  0  0  0  0
   21.2661  -20.3134  -13.1968 C   0  0  2  0  0  0  0  0  0  0  0  0
   22.3654  -20.6349  -12.2991 N   0  0  0  0  0  0  0  0  0  0  0  0
   19.9772  -20.7133  -12.5783 C   0  0  0  0  0  0  0  0  0  0  0  0
   18.8450  -19.9798  -12.8729 O   0  0  0  0  0  0  0  0  0  0  0  0
   19.8917  -21.6833  -11.8084 O   0  0  0  0  0  0  0  0  0  0  0  0
  1  2  1  0
  2  4  1  0
  3  2  2  0
  5  4  1  0
  6  5  1  0
  6  7  1  6
  8  6  1  0
  8  9  2  0
 10  8  1  0
 11 10  1  0
 11 14  1  0
 11 12  1  1
 13 12  1  0
 14 22  1  0
 15 14  2  0
 17 16  1  0
 17 19  1  0
 18 17  2  0
 19 20  1  0
 21 20  1  6
 21 23  1  0
 22 21  1  0
 23 25  2  0
 23 24  1  0
M  END
$$$$
