QCQ.pdb
     RDKit          3D

 25 24  0  0  1  0  0  0  0  0999 V2000
   18.3829  -23.7749  -12.7258 N   0  0  0  0  0  0  0  0  0  0  0  0
   19.1603  -22.8483  -11.9517 C   0  0  0  0  0  0  0  0  0  0  0  0
   19.4504  -21.7636  -12.4864 O   0  0  0  0  0  0  0  0  0  0  0  0
   19.5616  -23.2222  -10.6131 C   0  0  0  0  0  0  0  0  0  0  0  0
   19.0810  -24.5474  -10.1085 C   0  0  0  0  0  0  0  0  0  0  0  0
   17.7498  -24.5465   -9.4537 C   0  0  2  0  0  0  0  0  0  0  0  0
   17.2879  -23.2201   -9.1871 N   0  0  0  0  0  0  0  0  0  0  0  0
   17.7521  -25.3158   -8.1694 C   0  0  0  0  0  0  0  0  0  0  0  0
   18.0959  -26.5262   -8.1462 O   0  0  0  0  0  0  0  0  0  0  0  0
   17.3760  -24.7427   -6.9299 N   0  0  0  0  0  0  0  0  0  0  0  0
   17.2969  -25.4773   -5.6988 C   0  0  1  0  0  0  0  0  0  0  0  0
   18.5939  -25.7831   -5.0576 C   0  0  0  0  0  0  0  0  0  0  0  0
   18.3145  -26.5315   -3.4071 S   0  0  0  0  0  0  0  0  0  0  0  0
   16.4369  -24.7210   -4.7276 C   0  0  0  0  0  0  0  0  0  0  0  0
   16.7385  -23.5466   -4.3966 O   0  0  0  0  0  0  0  0  0  0  0  0
   10.4449  -24.6877   -4.6137 N   0  0  0  0  0  0  0  0  0  0  0  0
   10.6898  -24.0011   -3.3706 C   0  0  0  0  0  0  0  0  0  0  0  0
    9.6973  -23.4969   -2.8214 O   0  0  0  0  0  0  0  0  0  0  0  0
   12.0597  -23.9612   -2.8746 C   0  0  0  0  0  0  0  0  0  0  0  0
   13.0028  -24.6653   -3.7955 C   0  0  0  0  0  0  0  0  0  0  0  0
   14.3897  -24.6278   -3.2548 C   0  0  2  0  0  0  0  0  0  0  0  0
   15.2758  -25.3248   -4.1749 N   0  0  0  0  0  0  0  0  0  0  0  0
   14.4514  -25.2654   -1.9156 C   0  0  0  0  0  0  0  0  0  0  0  0
   14.1709  -24.4978   -0.8026 O   0  0  0  0  0  0  0  0  0  0  0  0
   14.7465  -26.4625   -1.7717 O   0  0  0  0  0  0  0  0  0  0  0  0
  1  2  1  0
  2  4  1  0
  3  2  2  0
  5  4  1  0
  6  5  1  0
  6  7  1  1
  8  6  1  0
  8  9  2  0
 10  8  1  0
 11 10  1  0
 11 14  1  0
 11 12  1  1
 13 12  1  0
 14 22  1  0
 15 14  2  0
 17 16  1  0
 17 19  1  0
 18 17  2  0
 19 20  1  0
 21 20  1  6
 21 23  1  0
 22 21  1  0
 23 25  2  0
 23 24  1  0
M  END
$$$$
