MHR.pdb
     RDKit          3D

 30 30  0  0  1  0  0  0  0  0999 V2000
    7.9930  -11.4061   19.5605 C   0  0  0  0  0  0  0  0  0  0  0  0
    7.0629  -12.3657   18.3200 S   0  0  0  0  0  0  0  0  0  0  0  0
    7.4839  -14.1208   18.4250 C   0  0  0  0  0  0  0  0  0  0  0  0
    7.9934  -14.5463   19.7583 C   0  0  0  0  0  0  0  0  0  0  0  0
    8.2863  -15.9998   19.9123 C   0  0  2  0  0  0  0  0  0  0  0  0
    7.4077  -16.8914   19.2318 N   0  0  0  0  0  0  0  0  0  0  0  0
    8.4395  -16.3227   21.3687 C   0  0  0  0  0  0  0  0  0  0  0  0
    9.3117  -15.6755   22.0230 O   0  0  0  0  0  0  0  0  0  0  0  0
    7.6325  -17.3144   21.9666 N   0  0  0  0  0  0  0  0  0  0  0  0
    7.7828  -17.6679   23.3619 C   0  0  1  0  0  0  0  0  0  0  0  0
    6.7480  -18.6957   23.7271 C   0  0  0  0  0  0  0  0  0  0  0  0
    6.8140  -19.1919   25.0972 C   0  0  0  0  0  0  0  0  0  0  0  0
    7.6554  -18.7350   26.0866 C   0  0  0  0  0  0  0  0  0  0  0  0
    7.4024  -19.4721   27.1788 N   0  0  0  0  0  0  0  0  0  0  0  0
    6.4377  -20.3517   26.8686 C   0  0  0  0  0  0  0  0  0  0  0  0
    6.0649  -20.1957   25.5996 N   0  0  0  0  0  0  0  0  0  0  0  0
    9.1211  -18.1821   23.6690 C   0  0  0  0  0  0  0  0  0  0  0  0
    9.7487  -18.8229   22.7914 O   0  0  0  0  0  0  0  0  0  0  0  0
   14.0831  -13.7226   20.4126 N   0  0  0  0  0  0  0  0  0  0  0  0
   13.8595  -15.0750   20.0127 C   0  0  0  0  0  0  0  0  0  0  0  0
   14.1447  -15.4550   18.8295 N   0  0  0  0  0  0  0  0  0  0  0  0
   13.3147  -16.0330   20.9246 N   0  0  0  0  0  0  0  0  0  0  0  0
   12.6590  -15.6756   22.1578 C   0  0  0  0  0  0  0  0  0  0  0  0
   12.2365  -16.8962   22.9473 C   0  0  0  0  0  0  0  0  0  0  0  0
   11.5385  -16.5561   24.2161 C   0  0  0  0  0  0  0  0  0  0  0  0
   11.1377  -17.7591   25.0343 C   0  0  2  0  0  0  0  0  0  0  0  0
    9.7285  -17.9668   24.9559 N   0  0  0  0  0  0  0  0  0  0  0  0
   11.5916  -17.7045   26.4271 C   0  0  0  0  0  0  0  0  0  0  0  0
   10.8703  -17.0940   27.2716 O   0  0  0  0  0  0  0  0  0  0  0  0
   12.7500  -18.2652   26.9127 O   0  0  0  0  0  0  0  0  0  0  0  0
  1  2  1  0
  2  3  1  0
  4  5  1  0
  4  3  1  0
  5  6  1  1
  7  8  2  0
  7  5  1  0
  9  7  1  0
 10 11  1  6
 10  9  1  0
 11 12  1  0
 12 16  1  0
 13 12  2  0
 13 14  1  0
 14 15  1  0
 16 15  2  0
 17 10  1  0
 18 17  2  0
 20 19  1  0
 20 22  1  0
 21 20  2  0
 23 22  1  0
 24 23  1  0
 25 24  1  0
 26 25  1  1
 26 27  1  0
 27 17  1  0
 28 30  1  0
 28 26  1  0
 29 28  2  0
M  END
$$$$
