MHR.pdb
     RDKit          3D

 30 30  0  0  1  0  0  0  0  0999 V2000
    7.6679  -12.5450   17.1086 C   0  0  0  0  0  0  0  0  0  0  0  0
    7.8011  -13.8015   15.7939 S   0  0  0  0  0  0  0  0  0  0  0  0
    8.7835  -15.2112   16.3565 C   0  0  0  0  0  0  0  0  0  0  0  0
    9.9739  -14.8381   17.1702 C   0  0  0  0  0  0  0  0  0  0  0  0
   10.7707  -15.9717   17.7199 C   0  0  2  0  0  0  0  0  0  0  0  0
   10.2672  -17.2779   17.4550 N   0  0  0  0  0  0  0  0  0  0  0  0
   11.0391  -15.7288   19.1751 C   0  0  0  0  0  0  0  0  0  0  0  0
   11.9375  -14.8847   19.4717 O   0  0  0  0  0  0  0  0  0  0  0  0
   10.3068  -16.4261   20.1600 N   0  0  0  0  0  0  0  0  0  0  0  0
   10.4633  -16.1278   21.5675 C   0  0  1  0  0  0  0  0  0  0  0  0
    9.1385  -16.2921   22.2592 C   0  0  0  0  0  0  0  0  0  0  0  0
    8.1071  -15.3358   21.8730 C   0  0  0  0  0  0  0  0  0  0  0  0
    8.2777  -14.2459   21.0493 C   0  0  0  0  0  0  0  0  0  0  0  0
    7.0883  -13.6298   20.9733 N   0  0  0  0  0  0  0  0  0  0  0  0
    6.2175  -14.3196   21.7259 C   0  0  0  0  0  0  0  0  0  0  0  0
    6.8221  -15.3667   22.2842 N   0  0  0  0  0  0  0  0  0  0  0  0
   11.4677  -16.9789   22.2128 C   0  0  0  0  0  0  0  0  0  0  0  0
   11.5551  -18.1856   21.8795 O   0  0  0  0  0  0  0  0  0  0  0  0
   17.9500  -14.4708   20.2316 N   0  0  0  0  0  0  0  0  0  0  0  0
   16.5511  -14.4526   19.9460 C   0  0  0  0  0  0  0  0  0  0  0  0
   16.0772  -13.6386   19.0866 N   0  0  0  0  0  0  0  0  0  0  0  0
   15.6510  -15.3432   20.6113 N   0  0  0  0  0  0  0  0  0  0  0  0
   16.0233  -16.6602   21.0646 C   0  0  0  0  0  0  0  0  0  0  0  0
   14.8757  -17.3653   21.7556 C   0  0  0  0  0  0  0  0  0  0  0  0
   14.7126  -16.9573   23.1767 C   0  0  0  0  0  0  0  0  0  0  0  0
   13.3659  -17.3058   23.7617 C   0  0  2  0  0  0  0  0  0  0  0  0
   12.3540  -16.4585   23.2201 N   0  0  0  0  0  0  0  0  0  0  0  0
   13.3386  -17.2989   25.2274 C   0  0  0  0  0  0  0  0  0  0  0  0
   12.5618  -16.4852   25.8110 O   0  0  0  0  0  0  0  0  0  0  0  0
   14.0920  -18.1093   26.0445 O   0  0  0  0  0  0  0  0  0  0  0  0
  1  2  1  0
  2  3  1  0
  4  5  1  0
  4  3  1  0
  5  6  1  1
  7  8  2  0
  7  5  1  0
  9  7  1  0
 10 11  1  1
 10  9  1  0
 11 12  1  0
 12 16  1  0
 13 12  2  0
 13 14  1  0
 14 15  1  0
 16 15  2  0
 17 10  1  0
 18 17  2  0
 20 19  1  0
 20 22  1  0
 21 20  2  0
 23 22  1  0
 24 23  1  0
 25 24  1  0
 26 25  1  1
 26 27  1  0
 27 17  1  0
 28 30  1  0
 28 26  1  0
 29 28  2  0
M  END
$$$$
