MHR.pdb
     RDKit          3D

 30 30  0  0  1  0  0  0  0  0999 V2000
    7.8743  -11.7086   20.5025 C   0  0  0  0  0  0  0  0  0  0  0  0
    7.5080  -12.4099   18.8597 S   0  0  0  0  0  0  0  0  0  0  0  0
    8.3618  -13.9877   18.6353 C   0  0  0  0  0  0  0  0  0  0  0  0
    9.2840  -14.3451   19.7490 C   0  0  0  0  0  0  0  0  0  0  0  0
   10.0256  -15.6291   19.5965 C   0  0  2  0  0  0  0  0  0  0  0  0
    9.7358  -16.3845   18.4237 N   0  0  0  0  0  0  0  0  0  0  0  0
    9.8957  -16.4291   20.8582 C   0  0  0  0  0  0  0  0  0  0  0  0
   10.0433  -15.8156   21.9579 O   0  0  0  0  0  0  0  0  0  0  0  0
    9.6200  -17.8122   20.7989 N   0  0  0  0  0  0  0  0  0  0  0  0
    9.5183  -18.6124   22.0004 C   0  0  1  0  0  0  0  0  0  0  0  0
    9.5233  -20.0690   21.6277 C   0  0  0  0  0  0  0  0  0  0  0  0
    9.4846  -21.0025   22.7478 C   0  0  0  0  0  0  0  0  0  0  0  0
    9.4935  -20.6689   24.0835 C   0  0  0  0  0  0  0  0  0  0  0  0
    9.4664  -21.8217   24.7693 N   0  0  0  0  0  0  0  0  0  0  0  0
    9.4417  -22.8286   23.8827 C   0  0  0  0  0  0  0  0  0  0  0  0
    9.4524  -22.3474   22.6410 N   0  0  0  0  0  0  0  0  0  0  0  0
   10.6028  -18.3404   22.9488 C   0  0  0  0  0  0  0  0  0  0  0  0
   11.6739  -17.8391   22.5289 O   0  0  0  0  0  0  0  0  0  0  0  0
    5.2972  -13.0155   25.5152 N   0  0  0  0  0  0  0  0  0  0  0  0
    6.4421  -12.7055   26.3102 C   0  0  0  0  0  0  0  0  0  0  0  0
    6.4840  -11.6283   26.9911 N   0  0  0  0  0  0  0  0  0  0  0  0
    7.5641  -13.5911   26.3641 N   0  0  0  0  0  0  0  0  0  0  0  0
    7.7763  -14.6659   25.4268 C   0  0  0  0  0  0  0  0  0  0  0  0
    8.9741  -15.5128   25.8003 C   0  0  0  0  0  0  0  0  0  0  0  0
    9.1754  -16.6710   24.8887 C   0  0  0  0  0  0  0  0  0  0  0  0
   10.3291  -17.5622   25.2788 C   0  0  2  0  0  0  0  0  0  0  0  0
   10.4635  -18.6368   24.3502 N   0  0  0  0  0  0  0  0  0  0  0  0
   10.2552  -18.0551   26.6573 C   0  0  0  0  0  0  0  0  0  0  0  0
   11.0210  -17.5365   27.5237 O   0  0  0  0  0  0  0  0  0  0  0  0
    9.4156  -19.0475   27.1073 O   0  0  0  0  0  0  0  0  0  0  0  0
  1  2  1  0
  2  3  1  0
  4  5  1  0
  4  3  1  0
  5  6  1  6
  7  8  2  0
  7  5  1  0
  9  7  1  0
 10 11  1  6
 10  9  1  0
 11 12  1  0
 12 16  1  0
 13 12  2  0
 13 14  1  0
 14 15  1  0
 16 15  2  0
 17 10  1  0
 18 17  2  0
 20 19  1  0
 20 22  1  0
 21 20  2  0
 23 22  1  0
 24 23  1  0
 25 24  1  0
 26 25  1  6
 26 27  1  0
 27 17  1  0
 28 30  1  0
 28 26  1  0
 29 28  2  0
M  END
$$$$
