MHR.pdb
     RDKit          3D

 30 30  0  0  1  0  0  0  0  0999 V2000
    7.4573  -12.1052   20.2036 C   0  0  0  0  0  0  0  0  0  0  0  0
    7.8804  -12.9390   18.6382 S   0  0  0  0  0  0  0  0  0  0  0  0
    8.9660  -14.3525   18.9419 C   0  0  0  0  0  0  0  0  0  0  0  0
    9.6192  -14.3424   20.2804 C   0  0  0  0  0  0  0  0  0  0  0  0
   10.5368  -15.4814   20.5681 C   0  0  2  0  0  0  0  0  0  0  0  0
   10.9697  -16.2374   19.4407 N   0  0  0  0  0  0  0  0  0  0  0  0
    9.9468  -16.3307   21.6541 C   0  0  0  0  0  0  0  0  0  0  0  0
    9.3968  -15.7352   22.6290 O   0  0  0  0  0  0  0  0  0  0  0  0
   10.0142  -17.7383   21.5728 N   0  0  0  0  0  0  0  0  0  0  0  0
    9.4378  -18.5807   22.5987 C   0  0  1  0  0  0  0  0  0  0  0  0
    9.8693  -20.0031   22.3723 C   0  0  0  0  0  0  0  0  0  0  0  0
    9.1670  -20.7088   21.3064 C   0  0  0  0  0  0  0  0  0  0  0  0
    8.1076  -20.2243   20.5725 C   0  0  0  0  0  0  0  0  0  0  0  0
    7.7548  -21.1956   19.7167 N   0  0  0  0  0  0  0  0  0  0  0  0
    8.5714  -22.2409   19.9198 C   0  0  0  0  0  0  0  0  0  0  0  0
    9.4420  -21.9621   20.8883 N   0  0  0  0  0  0  0  0  0  0  0  0
    9.8171  -18.1575   23.9503 C   0  0  0  0  0  0  0  0  0  0  0  0
   11.0020  -17.8106   24.1749 O   0  0  0  0  0  0  0  0  0  0  0  0
    8.2841  -12.5203   26.4844 N   0  0  0  0  0  0  0  0  0  0  0  0
    7.0671  -12.5977   25.7416 C   0  0  0  0  0  0  0  0  0  0  0  0
    6.7160  -11.6417   24.9744 N   0  0  0  0  0  0  0  0  0  0  0  0
    6.2165  -13.7438   25.8371 N   0  0  0  0  0  0  0  0  0  0  0  0
    6.5350  -14.9087   26.6245 C   0  0  0  0  0  0  0  0  0  0  0  0
    7.8303  -15.5539   26.1802 C   0  0  0  0  0  0  0  0  0  0  0  0
    8.1320  -16.8157   26.9081 C   0  0  0  0  0  0  0  0  0  0  0  0
    9.2515  -17.6214   26.2959 C   0  0  2  0  0  0  0  0  0  0  0  0
    8.8584  -18.1324   25.0233 N   0  0  0  0  0  0  0  0  0  0  0  0
    9.7561  -18.6881   27.1658 C   0  0  0  0  0  0  0  0  0  0  0  0
    9.4662  -19.8876   26.8770 O   0  0  0  0  0  0  0  0  0  0  0  0
   10.5301  -18.5051   28.2880 O   0  0  0  0  0  0  0  0  0  0  0  0
  1  2  1  0
  2  3  1  0
  4  5  1  0
  4  3  1  0
  5  6  1  6
  7  8  2  0
  7  5  1  0
  9  7  1  0
 10 11  1  6
 10  9  1  0
 11 12  1  0
 12 16  1  0
 13 12  2  0
 13 14  1  0
 14 15  1  0
 16 15  2  0
 17 10  1  0
 18 17  2  0
 20 19  1  0
 20 22  1  0
 21 20  2  0
 23 22  1  0
 24 23  1  0
 25 24  1  0
 26 25  1  1
 26 27  1  0
 27 17  1  0
 28 30  1  0
 28 26  1  0
 29 28  2  0
M  END
$$$$
