MHR.pdb
     RDKit          3D

 30 30  0  0  1  0  0  0  0  0999 V2000
    7.3992  -11.1726   19.2977 C   0  0  0  0  0  0  0  0  0  0  0  0
    7.0324  -12.7260   20.1792 S   0  0  0  0  0  0  0  0  0  0  0  0
    8.5478  -13.6695   20.4660 C   0  0  0  0  0  0  0  0  0  0  0  0
    8.8687  -14.6483   19.3902 C   0  0  0  0  0  0  0  0  0  0  0  0
   10.1166  -15.4413   19.5796 C   0  0  2  0  0  0  0  0  0  0  0  0
   10.5417  -16.2169   18.4626 N   0  0  0  0  0  0  0  0  0  0  0  0
   10.0085  -16.2409   20.8436 C   0  0  0  0  0  0  0  0  0  0  0  0
    9.6257  -15.6341   21.8890 O   0  0  0  0  0  0  0  0  0  0  0  0
   10.3270  -17.6160   20.8455 N   0  0  0  0  0  0  0  0  0  0  0  0
   10.2209  -18.4124   22.0492 C   0  0  1  0  0  0  0  0  0  0  0  0
   10.8384  -19.7617   21.8068 C   0  0  0  0  0  0  0  0  0  0  0  0
   10.1618  -20.5916   20.8164 C   0  0  0  0  0  0  0  0  0  0  0  0
    9.0105  -20.2668   20.1349 C   0  0  0  0  0  0  0  0  0  0  0  0
    8.7244  -21.3103   19.3415 N   0  0  0  0  0  0  0  0  0  0  0  0
    9.6696  -22.2437   19.5308 C   0  0  0  0  0  0  0  0  0  0  0  0
   10.5576  -21.8224   20.4293 N   0  0  0  0  0  0  0  0  0  0  0  0
   10.8631  -17.7740   23.2023 C   0  0  0  0  0  0  0  0  0  0  0  0
   11.4105  -16.6540   23.0578 O   0  0  0  0  0  0  0  0  0  0  0  0
    5.4050  -13.3590   26.6906 N   0  0  0  0  0  0  0  0  0  0  0  0
    6.6810  -12.7428   26.5143 C   0  0  0  0  0  0  0  0  0  0  0  0
    6.8012  -11.4751   26.5786 N   0  0  0  0  0  0  0  0  0  0  0  0
    7.8505  -13.5275   26.2643 N   0  0  0  0  0  0  0  0  0  0  0  0
    7.8108  -14.9182   25.8860 C   0  0  0  0  0  0  0  0  0  0  0  0
    9.1988  -15.5068   25.7509 C   0  0  0  0  0  0  0  0  0  0  0  0
    9.1868  -16.9566   25.4183 C   0  0  0  0  0  0  0  0  0  0  0  0
   10.5096  -17.6465   25.6453 C   0  0  2  0  0  0  0  0  0  0  0  0
   10.8784  -18.4059   24.4952 N   0  0  0  0  0  0  0  0  0  0  0  0
   10.5478  -18.4663   26.8599 C   0  0  0  0  0  0  0  0  0  0  0  0
   10.0427  -19.6279   26.8180 O   0  0  0  0  0  0  0  0  0  0  0  0
   11.0914  -18.0852   28.0646 O   0  0  0  0  0  0  0  0  0  0  0  0
  1  2  1  0
  2  3  1  0
  4  5  1  0
  4  3  1  0
  5  6  1  6
  7  8  2  0
  7  5  1  0
  9  7  1  0
 10 11  1  6
 10  9  1  0
 11 12  1  0
 12 16  1  0
 13 12  2  0
 13 14  1  0
 14 15  1  0
 16 15  2  0
 17 10  1  0
 18 17  2  0
 20 19  1  0
 20 22  1  0
 21 20  2  0
 23 22  1  0
 24 23  1  0
 25 24  1  0
 26 25  1  6
 26 27  1  0
 27 17  1  0
 28 30  1  0
 28 26  1  0
 29 28  2  0
M  END
$$$$
