MHR.pdb
     RDKit          3D

 30 30  0  0  1  0  0  0  0  0999 V2000
    6.8453  -11.7693   19.4978 C   0  0  0  0  0  0  0  0  0  0  0  0
    6.6410  -12.7714   17.9882 S   0  0  0  0  0  0  0  0  0  0  0  0
    7.5591  -14.3230   18.1240 C   0  0  0  0  0  0  0  0  0  0  0  0
    8.1964  -14.5395   19.4526 C   0  0  0  0  0  0  0  0  0  0  0  0
    8.8536  -15.8621   19.6541 C   0  0  2  0  0  0  0  0  0  0  0  0
    8.1708  -16.9899   19.1138 N   0  0  0  0  0  0  0  0  0  0  0  0
    9.2039  -16.0256   21.1031 C   0  0  0  0  0  0  0  0  0  0  0  0
   10.1397  -15.3047   21.5639 O   0  0  0  0  0  0  0  0  0  0  0  0
    8.5049  -16.9542   21.9040 N   0  0  0  0  0  0  0  0  0  0  0  0
    8.8747  -17.1881   23.2835 C   0  0  1  0  0  0  0  0  0  0  0  0
    7.9129  -18.1687   23.8950 C   0  0  0  0  0  0  0  0  0  0  0  0
    8.2292  -18.5916   25.2547 C   0  0  0  0  0  0  0  0  0  0  0  0
    9.3468  -18.2368   25.9762 C   0  0  0  0  0  0  0  0  0  0  0  0
    9.2523  -18.8554   27.1630 N   0  0  0  0  0  0  0  0  0  0  0  0
    8.1140  -19.5660   27.1683 C   0  0  0  0  0  0  0  0  0  0  0  0
    7.4745  -19.4173   26.0097 N   0  0  0  0  0  0  0  0  0  0  0  0
   10.2459  -17.6892   23.4192 C   0  0  0  0  0  0  0  0  0  0  0  0
   10.5631  -18.7677   22.8615 O   0  0  0  0  0  0  0  0  0  0  0  0
   16.7890  -14.6503   20.0944 N   0  0  0  0  0  0  0  0  0  0  0  0
   15.4332  -14.2666   19.8629 C   0  0  0  0  0  0  0  0  0  0  0  0
   15.1470  -13.4214   18.9521 N   0  0  0  0  0  0  0  0  0  0  0  0
   14.3675  -14.8186   20.6410 N   0  0  0  0  0  0  0  0  0  0  0  0
   14.4679  -16.0651   21.3585 C   0  0  0  0  0  0  0  0  0  0  0  0
   13.2368  -16.3352   22.1969 C   0  0  0  0  0  0  0  0  0  0  0  0
   13.5538  -16.6208   23.6219 C   0  0  0  0  0  0  0  0  0  0  0  0
   12.5468  -17.5136   24.3047 C   0  0  2  0  0  0  0  0  0  0  0  0
   11.2340  -16.9697   24.1789 N   0  0  0  0  0  0  0  0  0  0  0  0
   12.8702  -17.8071   25.7040 C   0  0  0  0  0  0  0  0  0  0  0  0
   12.1646  -17.2709   26.6100 O   0  0  0  0  0  0  0  0  0  0  0  0
   13.8880  -18.6263   26.1342 O   0  0  0  0  0  0  0  0  0  0  0  0
  1  2  1  0
  2  3  1  0
  4  5  1  0
  4  3  1  0
  5  6  1  1
  7  8  2  0
  7  5  1  0
  9  7  1  0
 10 11  1  6
 10  9  1  0
 11 12  1  0
 12 16  1  0
 13 12  2  0
 13 14  1  0
 14 15  1  0
 16 15  2  0
 17 10  1  0
 18 17  2  0
 20 19  1  0
 20 22  1  0
 21 20  2  0
 23 22  1  0
 24 23  1  0
 25 24  1  0
 26 25  1  1
 26 27  1  0
 27 17  1  0
 28 30  1  0
 28 26  1  0
 29 28  2  0
M  END
$$$$
