MHR.pdb
     RDKit          3D

 30 30  0  0  1  0  0  0  0  0999 V2000
    8.1671  -12.1617   21.6163 C   0  0  0  0  0  0  0  0  0  0  0  0
    6.9668  -12.6275   20.3252 S   0  0  0  0  0  0  0  0  0  0  0  0
    7.6673  -13.8799   19.2254 C   0  0  0  0  0  0  0  0  0  0  0  0
    8.2096  -15.0747   19.9301 C   0  0  0  0  0  0  0  0  0  0  0  0
    8.8309  -16.1173   19.0647 C   0  0  2  0  0  0  0  0  0  0  0  0
    8.0036  -16.6513   18.0350 N   0  0  0  0  0  0  0  0  0  0  0  0
    9.4495  -17.1747   19.9296 C   0  0  0  0  0  0  0  0  0  0  0  0
    8.8225  -18.2697   20.0540 O   0  0  0  0  0  0  0  0  0  0  0  0
   10.6839  -16.9369   20.5716 N   0  0  0  0  0  0  0  0  0  0  0  0
   11.3073  -17.9443   21.4027 C   0  0  1  0  0  0  0  0  0  0  0  0
   12.7983  -17.8867   21.2173 C   0  0  0  0  0  0  0  0  0  0  0  0
   13.3308  -18.7335   20.1558 C   0  0  0  0  0  0  0  0  0  0  0  0
   12.5927  -19.4304   19.2257 C   0  0  0  0  0  0  0  0  0  0  0  0
   13.4694  -20.0891   18.4525 N   0  0  0  0  0  0  0  0  0  0  0  0
   14.7040  -19.8050   18.8946 C   0  0  0  0  0  0  0  0  0  0  0  0
   14.6398  -18.9774   19.9359 N   0  0  0  0  0  0  0  0  0  0  0  0
   10.9784  -17.7822   22.8224 C   0  0  0  0  0  0  0  0  0  0  0  0
   10.9866  -16.6333   23.3269 O   0  0  0  0  0  0  0  0  0  0  0  0
    5.4034  -21.4918   27.5120 N   0  0  0  0  0  0  0  0  0  0  0  0
    5.5473  -22.2127   26.2878 C   0  0  0  0  0  0  0  0  0  0  0  0
    4.7414  -23.1563   25.9947 N   0  0  0  0  0  0  0  0  0  0  0  0
    6.5919  -21.8954   25.3636 N   0  0  0  0  0  0  0  0  0  0  0  0
    7.9515  -21.6259   25.7601 C   0  0  0  0  0  0  0  0  0  0  0  0
    8.4034  -20.2474   25.3276 C   0  0  0  0  0  0  0  0  0  0  0  0
    9.8287  -19.9730   25.6532 C   0  0  0  0  0  0  0  0  0  0  0  0
   10.3648  -18.7070   25.0308 C   0  0  2  0  0  0  0  0  0  0  0  0
   10.6471  -18.9136   23.6478 N   0  0  0  0  0  0  0  0  0  0  0  0
   11.5234  -18.1477   25.7335 C   0  0  0  0  0  0  0  0  0  0  0  0
   12.6813  -18.4193   25.2959 O   0  0  0  0  0  0  0  0  0  0  0  0
   11.4700  -17.3394   26.8453 O   0  0  0  0  0  0  0  0  0  0  0  0
  1  2  1  0
  2  3  1  0
  4  5  1  0
  4  3  1  0
  5  6  1  6
  7  8  2  0
  7  5  1  0
  9  7  1  0
 10 11  1  1
 10  9  1  0
 11 12  1  0
 12 16  1  0
 13 12  2  0
 13 14  1  0
 14 15  1  0
 16 15  2  0
 17 10  1  0
 18 17  2  0
 20 19  1  0
 20 22  1  0
 21 20  2  0
 23 22  1  0
 24 23  1  0
 25 24  1  0
 26 25  1  1
 26 27  1  0
 27 17  1  0
 28 30  1  0
 28 26  1  0
 29 28  2  0
M  END
$$$$
