MHR.pdb
     RDKit          3D

 30 30  0  0  1  0  0  0  0  0999 V2000
    8.9789  -11.6979   19.3852 C   0  0  0  0  0  0  0  0  0  0  0  0
    7.5283  -12.2746   20.3275 S   0  0  0  0  0  0  0  0  0  0  0  0
    7.9164  -13.7926   21.2295 C   0  0  0  0  0  0  0  0  0  0  0  0
    8.7853  -14.7417   20.4794 C   0  0  0  0  0  0  0  0  0  0  0  0
   10.0736  -15.1056   21.1351 C   0  0  2  0  0  0  0  0  0  0  0  0
   11.2502  -14.9109   20.3556 N   0  0  0  0  0  0  0  0  0  0  0  0
    9.9669  -16.4894   21.7030 C   0  0  0  0  0  0  0  0  0  0  0  0
    8.9650  -16.7451   22.4368 O   0  0  0  0  0  0  0  0  0  0  0  0
   10.9572  -17.4541   21.4182 N   0  0  0  0  0  0  0  0  0  0  0  0
   10.9762  -18.7355   22.0904 C   0  0  1  0  0  0  0  0  0  0  0  0
   11.6265  -19.7546   21.1965 C   0  0  0  0  0  0  0  0  0  0  0  0
   10.8343  -20.1758   20.0465 C   0  0  0  0  0  0  0  0  0  0  0  0
    9.5040  -20.5304   20.0630 C   0  0  0  0  0  0  0  0  0  0  0  0
    9.1785  -20.8653   18.8052 N   0  0  0  0  0  0  0  0  0  0  0  0
   10.2735  -20.7207   18.0432 C   0  0  0  0  0  0  0  0  0  0  0  0
   11.2965  -20.2997   18.7847 N   0  0  0  0  0  0  0  0  0  0  0  0
   11.6795  -18.6840   23.3759 C   0  0  0  0  0  0  0  0  0  0  0  0
   12.7386  -18.0174   23.4697 O   0  0  0  0  0  0  0  0  0  0  0  0
   11.1216  -21.6116   31.0663 N   0  0  0  0  0  0  0  0  0  0  0  0
   12.5064  -21.2655   31.0296 C   0  0  0  0  0  0  0  0  0  0  0  0
   13.3328  -21.8198   31.8268 N   0  0  0  0  0  0  0  0  0  0  0  0
   12.9997  -20.2950   30.1017 N   0  0  0  0  0  0  0  0  0  0  0  0
   12.1686  -19.6254   29.1324 C   0  0  0  0  0  0  0  0  0  0  0  0
   11.8440  -20.5180   27.9537 C   0  0  0  0  0  0  0  0  0  0  0  0
   11.0578  -19.8254   26.8978 C   0  0  0  0  0  0  0  0  0  0  0  0
   11.8964  -19.2939   25.7613 C   0  0  2  0  0  0  0  0  0  0  0  0
   11.1799  -19.3823   24.5309 N   0  0  0  0  0  0  0  0  0  0  0  0
   13.2161  -19.9235   25.6560 C   0  0  0  0  0  0  0  0  0  0  0  0
   14.2122  -19.3203   26.1561 O   0  0  0  0  0  0  0  0  0  0  0  0
   13.4794  -21.1317   25.0534 O   0  0  0  0  0  0  0  0  0  0  0  0
  1  2  1  0
  2  3  1  0
  4  5  1  0
  4  3  1  0
  5  6  1  6
  7  8  2  0
  7  5  1  0
  9  7  1  0
 10 11  1  6
 10  9  1  0
 11 12  1  0
 12 16  1  0
 13 12  2  0
 13 14  1  0
 14 15  1  0
 16 15  2  0
 17 10  1  0
 18 17  2  0
 20 19  1  0
 20 22  1  0
 21 20  2  0
 23 22  1  0
 24 23  1  0
 25 24  1  0
 26 25  1  1
 26 27  1  0
 27 17  1  0
 28 30  1  0
 28 26  1  0
 29 28  2  0
M  END
$$$$
