MHR.pdb
     RDKit          3D

 30 30  0  0  1  0  0  0  0  0999 V2000
   10.3200  -16.0023   15.9641 C   0  0  0  0  0  0  0  0  0  0  0  0
   11.0316  -17.5975   16.4872 S   0  0  0  0  0  0  0  0  0  0  0  0
   10.2753  -18.1572   18.0311 C   0  0  0  0  0  0  0  0  0  0  0  0
   10.4621  -17.2218   19.1750 C   0  0  0  0  0  0  0  0  0  0  0  0
    9.8593  -17.6459   20.4707 C   0  0  2  0  0  0  0  0  0  0  0  0
    8.6831  -18.4451   20.3828 N   0  0  0  0  0  0  0  0  0  0  0  0
    9.6904  -16.4464   21.3547 C   0  0  0  0  0  0  0  0  0  0  0  0
   10.7294  -15.7767   21.6372 O   0  0  0  0  0  0  0  0  0  0  0  0
    8.4131  -16.0958   21.8426 N   0  0  0  0  0  0  0  0  0  0  0  0
    8.2114  -14.9037   22.6379 C   0  0  1  0  0  0  0  0  0  0  0  0
    7.1366  -14.0628   22.0068 C   0  0  0  0  0  0  0  0  0  0  0  0
    7.4044  -13.6249   20.6415 C   0  0  0  0  0  0  0  0  0  0  0  0
    6.5430  -13.7269   19.5724 C   0  0  0  0  0  0  0  0  0  0  0  0
    7.1878  -13.2249   18.5081 N   0  0  0  0  0  0  0  0  0  0  0  0
    8.4044  -12.8286   18.9122 C   0  0  0  0  0  0  0  0  0  0  0  0
    8.5555  -13.0650   20.2140 N   0  0  0  0  0  0  0  0  0  0  0  0
    7.8497  -15.2099   24.0254 C   0  0  0  0  0  0  0  0  0  0  0  0
    6.6712  -15.0144   24.4098 O   0  0  0  0  0  0  0  0  0  0  0  0
    5.3466  -22.6253   24.4452 N   0  0  0  0  0  0  0  0  0  0  0  0
    5.7975  -22.4688   25.7909 C   0  0  0  0  0  0  0  0  0  0  0  0
    5.5548  -23.3670   26.6627 N   0  0  0  0  0  0  0  0  0  0  0  0
    6.5305  -21.3080   26.1928 N   0  0  0  0  0  0  0  0  0  0  0  0
    6.7982  -20.1930   25.3189 C   0  0  0  0  0  0  0  0  0  0  0  0
    7.4272  -19.0327   26.0601 C   0  0  0  0  0  0  0  0  0  0  0  0
    7.7837  -17.8966   25.1685 C   0  0  0  0  0  0  0  0  0  0  0  0
    8.4199  -16.7321   25.8873 C   0  0  2  0  0  0  0  0  0  0  0  0
    8.8184  -15.7293   24.9543 N   0  0  0  0  0  0  0  0  0  0  0  0
    9.5298  -17.1145   26.7653 C   0  0  0  0  0  0  0  0  0  0  0  0
    9.2880  -17.8904   27.7378 O   0  0  0  0  0  0  0  0  0  0  0  0
   10.8349  -16.7020   26.6294 O   0  0  0  0  0  0  0  0  0  0  0  0
  1  2  1  0
  2  3  1  0
  4  5  1  0
  4  3  1  0
  5  6  1  6
  7  8  2  0
  7  5  1  0
  9  7  1  0
 10 11  1  6
 10  9  1  0
 11 12  1  0
 12 16  1  0
 13 12  2  0
 13 14  1  0
 14 15  1  0
 16 15  2  0
 17 10  1  0
 18 17  2  0
 20 19  1  0
 20 22  1  0
 21 20  2  0
 23 22  1  0
 24 23  1  0
 25 24  1  0
 26 25  1  6
 26 27  1  0
 27 17  1  0
 28 30  1  0
 28 26  1  0
 29 28  2  0
M  END
$$$$
