MHR.pdb
     RDKit          3D

 30 30  0  0  1  0  0  0  0  0999 V2000
    7.0439  -12.0481   27.3100 C   0  0  0  0  0  0  0  0  0  0  0  0
    7.8837  -11.6366   25.7446 S   0  0  0  0  0  0  0  0  0  0  0  0
    6.7436  -11.7906   24.3499 C   0  0  0  0  0  0  0  0  0  0  0  0
    6.3552  -13.1930   24.0326 C   0  0  0  0  0  0  0  0  0  0  0  0
    7.2218  -13.9045   23.0504 C   0  0  2  0  0  0  0  0  0  0  0  0
    7.1336  -13.4599   21.6996 N   0  0  0  0  0  0  0  0  0  0  0  0
    7.0247  -15.3840   23.1964 C   0  0  0  0  0  0  0  0  0  0  0  0
    5.8598  -15.8420   22.9940 O   0  0  0  0  0  0  0  0  0  0  0  0
    8.1099  -16.2154   23.5475 N   0  0  0  0  0  0  0  0  0  0  0  0
    7.9253  -17.6280   23.8021 C   0  0  1  0  0  0  0  0  0  0  0  0
    8.5321  -18.4180   22.6759 C   0  0  0  0  0  0  0  0  0  0  0  0
    8.4795  -19.8677   22.8280 C   0  0  0  0  0  0  0  0  0  0  0  0
    7.9368  -20.5534   23.8914 C   0  0  0  0  0  0  0  0  0  0  0  0
    8.1137  -21.8593   23.6391 N   0  0  0  0  0  0  0  0  0  0  0  0
    8.7441  -21.9698   22.4597 C   0  0  0  0  0  0  0  0  0  0  0  0
    8.9764  -20.7624   21.9482 N   0  0  0  0  0  0  0  0  0  0  0  0
    8.5149  -18.0499   25.0765 C   0  0  0  0  0  0  0  0  0  0  0  0
    9.7280  -18.3685   25.1159 O   0  0  0  0  0  0  0  0  0  0  0  0
    6.1679  -24.9523   26.5529 N   0  0  0  0  0  0  0  0  0  0  0  0
    5.2331  -23.9274   26.2146 C   0  0  0  0  0  0  0  0  0  0  0  0
    4.1357  -24.2189   25.6345 N   0  0  0  0  0  0  0  0  0  0  0  0
    5.5013  -22.5554   26.5176 N   0  0  0  0  0  0  0  0  0  0  0  0
    6.7326  -22.0968   27.1113 C   0  0  0  0  0  0  0  0  0  0  0  0
    6.8573  -20.5891   27.0597 C   0  0  0  0  0  0  0  0  0  0  0  0
    8.1622  -20.0948   27.5750 C   0  0  0  0  0  0  0  0  0  0  0  0
    8.3294  -18.5980   27.4795 C   0  0  2  0  0  0  0  0  0  0  0  0
    7.7305  -18.1060   26.2818 N   0  0  0  0  0  0  0  0  0  0  0  0
    9.7196  -18.1495   27.6034 C   0  0  0  0  0  0  0  0  0  0  0  0
   10.4527  -18.1697   26.5698 O   0  0  0  0  0  0  0  0  0  0  0  0
   10.3142  -17.6998   28.7593 O   0  0  0  0  0  0  0  0  0  0  0  0
  1  2  1  0
  2  3  1  0
  4  5  1  0
  4  3  1  0
  5  6  1  6
  7  8  2  0
  7  5  1  0
  9  7  1  0
 10 11  1  6
 10  9  1  0
 11 12  1  0
 12 16  1  0
 13 12  2  0
 13 14  1  0
 14 15  1  0
 16 15  2  0
 17 10  1  0
 18 17  2  0
 20 19  1  0
 20 22  1  0
 21 20  2  0
 23 22  1  0
 24 23  1  0
 25 24  1  0
 26 25  1  6
 26 27  1  0
 27 17  1  0
 28 30  1  0
 28 26  1  0
 29 28  2  0
M  END
$$$$
