MHR.pdb
     RDKit          3D

 30 30  0  0  1  0  0  0  0  0999 V2000
    8.3579  -12.0385   27.0602 C   0  0  0  0  0  0  0  0  0  0  0  0
    6.5445  -12.1038   27.2394 S   0  0  0  0  0  0  0  0  0  0  0  0
    5.8622  -13.4986   26.3134 C   0  0  0  0  0  0  0  0  0  0  0  0
    6.8903  -14.3731   25.6837 C   0  0  0  0  0  0  0  0  0  0  0  0
    7.0707  -14.2144   24.2126 C   0  0  2  0  0  0  0  0  0  0  0  0
    5.8764  -14.1099   23.4426 N   0  0  0  0  0  0  0  0  0  0  0  0
    8.0030  -15.2761   23.7104 C   0  0  0  0  0  0  0  0  0  0  0  0
    7.8116  -16.4623   24.1153 O   0  0  0  0  0  0  0  0  0  0  0  0
    9.0479  -14.9436   22.8215 N   0  0  0  0  0  0  0  0  0  0  0  0
    9.8935  -15.9626   22.2377 C   0  0  1  0  0  0  0  0  0  0  0  0
   10.4932  -15.4384   20.9625 C   0  0  0  0  0  0  0  0  0  0  0  0
    9.5358  -14.9820   19.9612 C   0  0  0  0  0  0  0  0  0  0  0  0
    8.7622  -15.7840   19.1525 C   0  0  0  0  0  0  0  0  0  0  0  0
    8.0418  -14.9644   18.3719 N   0  0  0  0  0  0  0  0  0  0  0  0
    8.3635  -13.7016   18.6920 C   0  0  0  0  0  0  0  0  0  0  0  0
    9.2758  -13.6920   19.6621 N   0  0  0  0  0  0  0  0  0  0  0  0
   10.9608  -16.3936   23.1460 C   0  0  0  0  0  0  0  0  0  0  0  0
   12.1068  -15.8966   23.0259 O   0  0  0  0  0  0  0  0  0  0  0  0
   11.3024  -20.9172   31.0038 N   0  0  0  0  0  0  0  0  0  0  0  0
   12.6245  -20.6096   30.5606 C   0  0  0  0  0  0  0  0  0  0  0  0
   13.6248  -20.8033   31.3272 N   0  0  0  0  0  0  0  0  0  0  0  0
   12.8595  -20.0811   29.2524 N   0  0  0  0  0  0  0  0  0  0  0  0
   11.8078  -19.6349   28.3729 C   0  0  0  0  0  0  0  0  0  0  0  0
   12.3485  -19.1609   27.0408 C   0  0  0  0  0  0  0  0  0  0  0  0
   11.2852  -18.6787   26.1190 C   0  0  0  0  0  0  0  0  0  0  0  0
   11.7842  -17.7388   25.0490 C   0  0  2  0  0  0  0  0  0  0  0  0
   10.7203  -17.3745   24.1713 N   0  0  0  0  0  0  0  0  0  0  0  0
   12.9382  -18.2508   24.3040 C   0  0  0  0  0  0  0  0  0  0  0  0
   14.0962  -17.8724   24.6535 O   0  0  0  0  0  0  0  0  0  0  0  0
   12.8805  -19.1209   23.2402 O   0  0  0  0  0  0  0  0  0  0  0  0
  1  2  1  0
  2  3  1  0
  4  5  1  0
  4  3  1  0
  5  6  1  6
  7  8  2  0
  7  5  1  0
  9  7  1  0
 10 11  1  6
 10  9  1  0
 11 12  1  0
 12 16  1  0
 13 12  2  0
 13 14  1  0
 14 15  1  0
 16 15  2  0
 17 10  1  0
 18 17  2  0
 20 19  1  0
 20 22  1  0
 21 20  2  0
 23 22  1  0
 24 23  1  0
 25 24  1  0
 26 25  1  1
 26 27  1  0
 27 17  1  0
 28 30  1  0
 28 26  1  0
 29 28  2  0
M  END
$$$$
