MHR.pdb
     RDKit          3D

 30 30  0  0  1  0  0  0  0  0999 V2000
    6.5886  -14.2502   18.6209 C   0  0  0  0  0  0  0  0  0  0  0  0
    7.4199  -13.0854   19.7510 S   0  0  0  0  0  0  0  0  0  0  0  0
    7.1457  -13.5625   21.4731 C   0  0  0  0  0  0  0  0  0  0  0  0
    7.7257  -14.8847   21.8387 C   0  0  0  0  0  0  0  0  0  0  0  0
    9.1620  -14.8803   22.2373 C   0  0  2  0  0  0  0  0  0  0  0  0
   10.0740  -14.3357   21.2877 N   0  0  0  0  0  0  0  0  0  0  0  0
    9.5502  -16.2507   22.7063 C   0  0  0  0  0  0  0  0  0  0  0  0
    8.8005  -16.8105   23.5620 O   0  0  0  0  0  0  0  0  0  0  0  0
   10.7115  -16.8738   22.2007 N   0  0  0  0  0  0  0  0  0  0  0  0
   11.0838  -18.2131   22.6029 C   0  0  1  0  0  0  0  0  0  0  0  0
   11.6149  -18.9592   21.4104 C   0  0  0  0  0  0  0  0  0  0  0  0
   10.6111  -19.3944   20.4458 C   0  0  0  0  0  0  0  0  0  0  0  0
    9.3630  -18.8414   20.2672 C   0  0  0  0  0  0  0  0  0  0  0  0
    8.7620  -19.5498   19.2991 N   0  0  0  0  0  0  0  0  0  0  0  0
    9.6142  -20.5056   18.8979 C   0  0  0  0  0  0  0  0  0  0  0  0
   10.7506  -20.4266   19.5876 N   0  0  0  0  0  0  0  0  0  0  0  0
   12.0832  -18.2190   23.6757 C   0  0  0  0  0  0  0  0  0  0  0  0
   13.0462  -17.4162   23.6217 O   0  0  0  0  0  0  0  0  0  0  0  0
   11.7577  -21.3688   32.0354 N   0  0  0  0  0  0  0  0  0  0  0  0
   11.7838  -22.0404   30.7756 C   0  0  0  0  0  0  0  0  0  0  0  0
   11.3577  -23.2377   30.6722 N   0  0  0  0  0  0  0  0  0  0  0  0
   12.2839  -21.3904   29.6036 N   0  0  0  0  0  0  0  0  0  0  0  0
   12.6867  -20.0064   29.5709 C   0  0  0  0  0  0  0  0  0  0  0  0
   13.3263  -19.6353   28.2501 C   0  0  0  0  0  0  0  0  0  0  0  0
   12.3436  -19.5198   27.1393 C   0  0  0  0  0  0  0  0  0  0  0  0
   12.9458  -19.0518   25.8371 C   0  0  2  0  0  0  0  0  0  0  0  0
   11.9819  -19.1264   24.7881 N   0  0  0  0  0  0  0  0  0  0  0  0
   14.1834  -19.7487   25.4742 C   0  0  0  0  0  0  0  0  0  0  0  0
   14.1020  -20.7722   24.7313 O   0  0  0  0  0  0  0  0  0  0  0  0
   15.4498  -19.3882   25.8722 O   0  0  0  0  0  0  0  0  0  0  0  0
  1  2  1  0
  2  3  1  0
  4  5  1  0
  4  3  1  0
  5  6  1  6
  7  8  2  0
  7  5  1  0
  9  7  1  0
 10 11  1  6
 10  9  1  0
 11 12  1  0
 12 16  1  0
 13 12  2  0
 13 14  1  0
 14 15  1  0
 16 15  2  0
 17 10  1  0
 18 17  2  0
 20 19  1  0
 20 22  1  0
 21 20  2  0
 23 22  1  0
 24 23  1  0
 25 24  1  0
 26 25  1  1
 26 27  1  0
 27 17  1  0
 28 30  1  0
 28 26  1  0
 29 28  2  0
M  END
$$$$
