MHR.pdb
     RDKit          3D

 30 30  0  0  1  0  0  0  0  0999 V2000
    7.0278  -13.0445   27.5674 C   0  0  0  0  0  0  0  0  0  0  0  0
    6.0968  -12.2344   26.2252 S   0  0  0  0  0  0  0  0  0  0  0  0
    6.1425  -13.2377   24.7219 C   0  0  0  0  0  0  0  0  0  0  0  0
    6.7742  -14.5746   24.9007 C   0  0  0  0  0  0  0  0  0  0  0  0
    8.2593  -14.6170   24.7788 C   0  0  2  0  0  0  0  0  0  0  0  0
    8.8222  -13.8586   23.7120 N   0  0  0  0  0  0  0  0  0  0  0  0
    8.7167  -16.0451   24.7902 C   0  0  0  0  0  0  0  0  0  0  0  0
    8.1201  -16.8444   25.5731 O   0  0  0  0  0  0  0  0  0  0  0  0
    9.7743  -16.4605   23.9528 N   0  0  0  0  0  0  0  0  0  0  0  0
   10.2076  -17.8408   23.9147 C   0  0  1  0  0  0  0  0  0  0  0  0
   10.8886  -18.1105   22.6017 C   0  0  0  0  0  0  0  0  0  0  0  0
   10.0510  -17.9547   21.4178 C   0  0  0  0  0  0  0  0  0  0  0  0
    8.7889  -18.4760   21.2417 C   0  0  0  0  0  0  0  0  0  0  0  0
    8.3892  -18.1123   20.0137 N   0  0  0  0  0  0  0  0  0  0  0  0
    9.3742  -17.3919   19.4557 C   0  0  0  0  0  0  0  0  0  0  0  0
   10.3991  -17.2845   20.2993 N   0  0  0  0  0  0  0  0  0  0  0  0
   11.1119  -18.1753   25.0193 C   0  0  0  0  0  0  0  0  0  0  0  0
   11.9482  -17.3238   25.4071 O   0  0  0  0  0  0  0  0  0  0  0  0
   11.3129  -20.4179   32.2674 N   0  0  0  0  0  0  0  0  0  0  0  0
   11.4293  -21.8330   32.1157 C   0  0  0  0  0  0  0  0  0  0  0  0
   12.0100  -22.5334   33.0090 N   0  0  0  0  0  0  0  0  0  0  0  0
   10.8988  -22.4974   30.9654 N   0  0  0  0  0  0  0  0  0  0  0  0
   10.2141  -21.8144   29.8962 C   0  0  0  0  0  0  0  0  0  0  0  0
   11.1403  -20.8962   29.1278 C   0  0  0  0  0  0  0  0  0  0  0  0
   10.6488  -20.5861   27.7585 C   0  0  0  0  0  0  0  0  0  0  0  0
   11.4913  -19.5740   27.0215 C   0  0  2  0  0  0  0  0  0  0  0  0
   11.0596  -19.4595   25.6667 N   0  0  0  0  0  0  0  0  0  0  0  0
   12.9318  -19.8335   27.1018 C   0  0  0  0  0  0  0  0  0  0  0  0
   13.5007  -20.3811   26.1105 O   0  0  0  0  0  0  0  0  0  0  0  0
   13.7397  -19.5321   28.1735 O   0  0  0  0  0  0  0  0  0  0  0  0
  1  2  1  0
  2  3  1  0
  4  5  1  0
  4  3  1  0
  5  6  1  6
  7  8  2  0
  7  5  1  0
  9  7  1  0
 10 11  1  6
 10  9  1  0
 11 12  1  0
 12 16  1  0
 13 12  2  0
 13 14  1  0
 14 15  1  0
 16 15  2  0
 17 10  1  0
 18 17  2  0
 20 19  1  0
 20 22  1  0
 21 20  2  0
 23 22  1  0
 24 23  1  0
 25 24  1  0
 26 25  1  6
 26 27  1  0
 27 17  1  0
 28 30  1  0
 28 26  1  0
 29 28  2  0
M  END
$$$$
