VCM.pdb
     RDKit          3D

 22 21  0  0  1  0  0  0  0  0999 V2000
   25.1304  -31.4002   -1.7014 C   0  0  0  0  0  0  0  0  0  0  0  0
   25.7475  -32.1861   -2.8251 C   0  0  2  0  0  0  0  0  0  0  0  0
   25.3221  -31.6348   -4.1864 C   0  0  0  0  0  0  0  0  0  0  0  0
   25.5248  -33.6596   -2.7169 C   0  0  2  0  0  0  0  0  0  0  0  0
   24.1214  -33.9236   -2.9677 N   0  0  0  0  0  0  0  0  0  0  0  0
   25.9219  -34.2512   -1.4380 C   0  0  0  0  0  0  0  0  0  0  0  0
   25.1925  -34.3466   -0.4265 O   0  0  0  0  0  0  0  0  0  0  0  0
   27.2467  -34.7825   -1.2705 N   0  0  0  0  0  0  0  0  0  0  0  0
   27.7080  -35.3621   -0.0537 C   0  0  1  0  0  0  0  0  0  0  0  0
   28.9405  -36.1846   -0.1574 C   0  0  0  0  0  0  0  0  0  0  0  0
   28.7877  -37.5847   -1.2678 S   0  0  0  0  0  0  0  0  0  0  0  0
   27.9535  -34.2724    0.9565 C   0  0  0  0  0  0  0  0  0  0  0  0
   28.6780  -33.2835    0.6941 O   0  0  0  0  0  0  0  0  0  0  0  0
   24.8908  -29.2179    5.6637 C   0  0  0  0  0  0  0  0  0  0  0  0
   24.7469  -30.5246    4.4063 S   0  0  0  0  0  0  0  0  0  0  0  0
   26.3254  -31.4033    4.3324 C   0  0  0  0  0  0  0  0  0  0  0  0
   26.3142  -32.4636    3.2786 C   0  0  0  0  0  0  0  0  0  0  0  0
   27.6230  -33.2380    3.1932 C   0  0  2  0  0  0  0  0  0  0  0  0
   27.3775  -34.3135    2.2507 N   0  0  0  0  0  0  0  0  0  0  0  0
   28.0003  -33.7632    4.5295 C   0  0  0  0  0  0  0  0  0  0  0  0
   28.3994  -33.0359    5.4550 O   0  0  0  0  0  0  0  0  0  0  0  0
   27.9068  -35.1309    4.7678 O   0  0  0  0  0  0  0  0  0  0  0  0
  2  1  1  1
  2  3  1  0
  4  2  1  0
  4  5  1  1
  6  4  1  0
  6  8  1  0
  7  6  2  0
  9  8  1  0
  9 12  1  0
  9 10  1  6
 11 10  1  0
 12 13  2  0
 12 19  1  0
 14 15  1  0
 16 15  1  0
 17 16  1  0
 18 17  1  1
 18 20  1  0
 19 18  1  0
 20 22  1  0
 21 20  2  0
M  END
$$$$
