VCM.pdb
     RDKit          3D

 22 21  0  0  1  0  0  0  0  0999 V2000
   19.5507  -16.2149  -18.0883 C   0  0  0  0  0  0  0  0  0  0  0  0
   19.5362  -14.7185  -18.2364 C   0  0  2  0  0  0  0  0  0  0  0  0
   20.9357  -14.1297  -18.0555 C   0  0  0  0  0  0  0  0  0  0  0  0
   18.5220  -14.0421  -17.3724 C   0  0  2  0  0  0  0  0  0  0  0  0
   17.2205  -14.6014  -17.6815 N   0  0  0  0  0  0  0  0  0  0  0  0
   18.4796  -12.5840  -17.4969 C   0  0  0  0  0  0  0  0  0  0  0  0
   18.0728  -11.9540  -18.4979 O   0  0  0  0  0  0  0  0  0  0  0  0
   18.9296  -11.7550  -16.4126 N   0  0  0  0  0  0  0  0  0  0  0  0
   18.8918  -10.3315  -16.4497 C   0  0  1  0  0  0  0  0  0  0  0  0
   17.5686   -9.7139  -16.1776 C   0  0  0  0  0  0  0  0  0  0  0  0
   16.1776  -10.7785  -16.5632 S   0  0  0  0  0  0  0  0  0  0  0  0
   19.8811   -9.7800  -15.4569 C   0  0  0  0  0  0  0  0  0  0  0  0
   20.1725  -10.3985  -14.4062 O   0  0  0  0  0  0  0  0  0  0  0  0
   26.7379  -10.6310  -14.8157 C   0  0  0  0  0  0  0  0  0  0  0  0
   25.1269  -10.7118  -15.6567 S   0  0  0  0  0  0  0  0  0  0  0  0
   24.1387   -9.3017  -15.1051 C   0  0  0  0  0  0  0  0  0  0  0  0
   22.7521   -9.3523  -15.6616 C   0  0  0  0  0  0  0  0  0  0  0  0
   21.8329   -8.2868  -15.0788 C   0  0  2  0  0  0  0  0  0  0  0  0
   20.5287   -8.5365  -15.6637 N   0  0  0  0  0  0  0  0  0  0  0  0
   22.3309   -6.9311  -15.4220 C   0  0  0  0  0  0  0  0  0  0  0  0
   22.0216   -6.3417  -16.4717 O   0  0  0  0  0  0  0  0  0  0  0  0
   23.1837   -6.2812  -14.5352 O   0  0  0  0  0  0  0  0  0  0  0  0
  2  1  1  1
  2  3  1  0
  4  2  1  0
  4  5  1  6
  6  4  1  0
  6  8  1  0
  7  6  2  0
  9  8  1  0
  9 12  1  0
  9 10  1  1
 11 10  1  0
 12 13  2  0
 12 19  1  0
 14 15  1  0
 16 15  1  0
 17 16  1  0
 18 17  1  6
 18 20  1  0
 19 18  1  0
 20 22  1  0
 21 20  2  0
M  END
$$$$
