VCM.pdb
     RDKit          3D

 22 21  0  0  1  0  0  0  0  0999 V2000
   17.9467   -9.0780  -16.0610 C   0  0  0  0  0  0  0  0  0  0  0  0
   17.9878  -10.5106  -15.6057 C   0  0  2  0  0  0  0  0  0  0  0  0
   17.3008  -11.4328  -16.6134 C   0  0  0  0  0  0  0  0  0  0  0  0
   17.4770  -10.7110  -14.2159 C   0  0  2  0  0  0  0  0  0  0  0  0
   16.0336  -10.5769  -14.2417 N   0  0  0  0  0  0  0  0  0  0  0  0
   18.0433   -9.8059  -13.2141 C   0  0  0  0  0  0  0  0  0  0  0  0
   19.2547   -9.7244  -12.9140 O   0  0  0  0  0  0  0  0  0  0  0  0
   17.1861   -8.9141  -12.4824 N   0  0  0  0  0  0  0  0  0  0  0  0
   17.6616   -8.0200  -11.4805 C   0  0  1  0  0  0  0  0  0  0  0  0
   18.7274   -7.0785  -11.9093 C   0  0  0  0  0  0  0  0  0  0  0  0
   18.1582   -5.7994  -13.0303 S   0  0  0  0  0  0  0  0  0  0  0  0
   16.5086   -7.2126  -10.9445 C   0  0  0  0  0  0  0  0  0  0  0  0
   15.5911   -6.7998  -11.6923 O   0  0  0  0  0  0  0  0  0  0  0  0
   12.5431   -8.9248   -6.9352 C   0  0  0  0  0  0  0  0  0  0  0  0
   12.5617   -7.2392   -6.2514 S   0  0  0  0  0  0  0  0  0  0  0  0
   13.4392   -6.1736   -7.4192 C   0  0  0  0  0  0  0  0  0  0  0  0
   14.6217   -6.8684   -8.0140 C   0  0  0  0  0  0  0  0  0  0  0  0
   15.3136   -6.0526   -9.0984 C   0  0  2  0  0  0  0  0  0  0  0  0
   16.4069   -6.8816   -9.5703 N   0  0  0  0  0  0  0  0  0  0  0  0
   15.8076   -4.7680   -8.5421 C   0  0  0  0  0  0  0  0  0  0  0  0
   16.9865   -4.5913   -8.1901 O   0  0  0  0  0  0  0  0  0  0  0  0
   14.9188   -3.7064   -8.4040 O   0  0  0  0  0  0  0  0  0  0  0  0
  2  1  1  6
  2  3  1  0
  4  2  1  0
  4  5  1  6
  6  4  1  0
  6  8  1  0
  7  6  2  0
  9  8  1  0
  9 12  1  0
  9 10  1  6
 11 10  1  0
 12 13  2  0
 12 19  1  0
 14 15  1  0
 16 15  1  0
 17 16  1  0
 18 17  1  1
 18 20  1  0
 19 18  1  0
 20 22  1  0
 21 20  2  0
M  END
$$$$
