VCM.pdb
     RDKit          3D

 22 21  0  0  1  0  0  0  0  0999 V2000
   25.8680   -8.9223  -16.8862 C   0  0  0  0  0  0  0  0  0  0  0  0
   25.5717   -9.7015  -15.6347 C   0  0  2  0  0  0  0  0  0  0  0  0
   26.8141  -10.4381  -15.1328 C   0  0  0  0  0  0  0  0  0  0  0  0
   24.3895  -10.6066  -15.7599 C   0  0  2  0  0  0  0  0  0  0  0  0
   24.7484  -11.6984  -16.6439 N   0  0  0  0  0  0  0  0  0  0  0  0
   23.1658   -9.9605  -16.2381 C   0  0  0  0  0  0  0  0  0  0  0  0
   22.8447   -9.8156  -17.4382 O   0  0  0  0  0  0  0  0  0  0  0  0
   22.2172   -9.4291  -15.2984 N   0  0  0  0  0  0  0  0  0  0  0  0
   21.0172   -8.7681  -15.6886 C   0  0  1  0  0  0  0  0  0  0  0  0
   19.7528   -9.4371  -15.2888 C   0  0  0  0  0  0  0  0  0  0  0  0
   19.6493  -11.1549  -15.7938 S   0  0  0  0  0  0  0  0  0  0  0  0
   21.0099   -7.3722  -15.1229 C   0  0  0  0  0  0  0  0  0  0  0  0
   21.8647   -6.9974  -14.2859 O   0  0  0  0  0  0  0  0  0  0  0  0
   23.8442   -1.0401  -16.1654 C   0  0  0  0  0  0  0  0  0  0  0  0
   23.5381   -2.8203  -16.3806 S   0  0  0  0  0  0  0  0  0  0  0  0
   21.9093   -3.1933  -15.6900 C   0  0  0  0  0  0  0  0  0  0  0  0
   21.5650   -4.6396  -15.8470 C   0  0  0  0  0  0  0  0  0  0  0  0
   20.2334   -5.0118  -15.2079 C   0  0  2  0  0  0  0  0  0  0  0  0
   20.0369   -6.4173  -15.5098 N   0  0  0  0  0  0  0  0  0  0  0  0
   19.1406   -4.1783  -15.7689 C   0  0  0  0  0  0  0  0  0  0  0  0
   18.5062   -4.4918  -16.7908 O   0  0  0  0  0  0  0  0  0  0  0  0
   18.8026   -2.9896  -15.1296 O   0  0  0  0  0  0  0  0  0  0  0  0
  2  1  1  6
  2  3  1  0
  4  2  1  0
  4  5  1  6
  6  4  1  0
  6  8  1  0
  7  6  2  0
  9  8  1  0
  9 12  1  0
  9 10  1  1
 11 10  1  0
 12 13  2  0
 12 19  1  0
 14 15  1  0
 16 15  1  0
 17 16  1  0
 18 17  1  6
 18 20  1  0
 19 18  1  0
 20 22  1  0
 21 20  2  0
M  END
$$$$
