VCM.pdb
     RDKit          3D

 22 21  0  0  1  0  0  0  0  0999 V2000
   26.1597  -20.6944  -18.9495 C   0  0  0  0  0  0  0  0  0  0  0  0
   25.3990  -19.4519  -18.5768 C   0  0  2  0  0  0  0  0  0  0  0  0
   25.3984  -18.4378  -19.7212 C   0  0  0  0  0  0  0  0  0  0  0  0
   25.8404  -18.8459  -17.2843 C   0  0  2  0  0  0  0  0  0  0  0  0
   27.1016  -18.1677  -17.5110 N   0  0  0  0  0  0  0  0  0  0  0  0
   25.9758  -19.7909  -16.1743 C   0  0  0  0  0  0  0  0  0  0  0  0
   25.0920  -20.5881  -15.7898 O   0  0  0  0  0  0  0  0  0  0  0  0
   27.2018  -19.8537  -15.4272 N   0  0  0  0  0  0  0  0  0  0  0  0
   27.3527  -20.6209  -14.2364 C   0  0  1  0  0  0  0  0  0  0  0  0
   28.7510  -20.8634  -13.7979 C   0  0  0  0  0  0  0  0  0  0  0  0
   29.5241  -19.4445  -13.0197 S   0  0  0  0  0  0  0  0  0  0  0  0
   26.6175  -19.9434  -13.1099 C   0  0  0  0  0  0  0  0  0  0  0  0
   26.5907  -18.6949  -12.9990 O   0  0  0  0  0  0  0  0  0  0  0  0
   21.0909  -21.5656  -10.9695 C   0  0  0  0  0  0  0  0  0  0  0  0
   21.2641  -19.9159  -10.2226 S   0  0  0  0  0  0  0  0  0  0  0  0
   23.0293  -19.5666  -10.0458 C   0  0  0  0  0  0  0  0  0  0  0  0
   23.8192  -20.1476  -11.1742 C   0  0  0  0  0  0  0  0  0  0  0  0
   25.3243  -20.0073  -10.9872 C   0  0  2  0  0  0  0  0  0  0  0  0
   25.9219  -20.6849  -12.1226 N   0  0  0  0  0  0  0  0  0  0  0  0
   25.7451  -20.6242   -9.7042 C   0  0  0  0  0  0  0  0  0  0  0  0
   26.1294  -21.8028   -9.6134 O   0  0  0  0  0  0  0  0  0  0  0  0
   25.7116  -19.8571   -8.5439 O   0  0  0  0  0  0  0  0  0  0  0  0
  2  1  1  6
  2  3  1  0
  4  2  1  0
  4  5  1  6
  6  4  1  0
  6  8  1  0
  7  6  2  0
  9  8  1  0
  9 12  1  0
  9 10  1  1
 11 10  1  0
 12 13  2  0
 12 19  1  0
 14 15  1  0
 16 15  1  0
 17 16  1  0
 18 17  1  6
 18 20  1  0
 19 18  1  0
 20 22  1  0
 21 20  2  0
M  END
$$$$
