VCM.pdb
     RDKit          3D

 22 21  0  0  1  0  0  0  0  0999 V2000
   25.3213  -21.9293  -16.8722 C   0  0  0  0  0  0  0  0  0  0  0  0
   26.7150  -21.3910  -17.0421 C   0  0  2  0  0  0  0  0  0  0  0  0
   27.4991  -22.1983  -18.0771 C   0  0  0  0  0  0  0  0  0  0  0  0
   27.4605  -21.2453  -15.7554 C   0  0  2  0  0  0  0  0  0  0  0  0
   27.6403  -22.5664  -15.1857 N   0  0  0  0  0  0  0  0  0  0  0  0
   26.8295  -20.3614  -14.7735 C   0  0  0  0  0  0  0  0  0  0  0  0
   26.5298  -19.1624  -14.9655 O   0  0  0  0  0  0  0  0  0  0  0  0
   26.5041  -20.8553  -13.4638 N   0  0  0  0  0  0  0  0  0  0  0  0
   25.8554  -20.0669  -12.4703 C   0  0  1  0  0  0  0  0  0  0  0  0
   24.4463  -19.6964  -12.7594 C   0  0  0  0  0  0  0  0  0  0  0  0
   23.2583  -20.9699  -12.3313 S   0  0  0  0  0  0  0  0  0  0  0  0
   25.8888  -20.7972  -11.1535 C   0  0  0  0  0  0  0  0  0  0  0  0
   25.6415  -22.0237  -11.0753 O   0  0  0  0  0  0  0  0  0  0  0  0
   29.4271  -18.9185   -6.1452 C   0  0  0  0  0  0  0  0  0  0  0  0
   27.9973  -19.5441   -5.2106 S   0  0  0  0  0  0  0  0  0  0  0  0
   27.0100  -20.5715   -6.3237 C   0  0  0  0  0  0  0  0  0  0  0  0
   26.9535  -19.9912   -7.7002 C   0  0  0  0  0  0  0  0  0  0  0  0
   26.1792  -20.8577   -8.6849 C   0  0  2  0  0  0  0  0  0  0  0  0
   26.2011  -20.1325   -9.9415 N   0  0  0  0  0  0  0  0  0  0  0  0
   24.7906  -21.0699   -8.2050 C   0  0  0  0  0  0  0  0  0  0  0  0
   23.8136  -20.4545   -8.6652 O   0  0  0  0  0  0  0  0  0  0  0  0
   24.5606  -21.9978   -7.1940 O   0  0  0  0  0  0  0  0  0  0  0  0
  2  1  1  1
  2  3  1  0
  4  2  1  0
  4  5  1  1
  6  4  1  0
  6  8  1  0
  7  6  2  0
  9  8  1  0
  9 12  1  0
  9 10  1  6
 11 10  1  0
 12 13  2  0
 12 19  1  0
 14 15  1  0
 16 15  1  0
 17 16  1  0
 18 17  1  1
 18 20  1  0
 19 18  1  0
 20 22  1  0
 21 20  2  0
M  END
$$$$
