VCM.pdb
     RDKit          3D

 22 21  0  0  1  0  0  0  0  0999 V2000
   29.2751  -16.4173    8.8031 C   0  0  0  0  0  0  0  0  0  0  0  0
   30.0939  -17.5937    9.2579 C   0  0  2  0  0  0  0  0  0  0  0  0
   30.5478  -18.4452    8.0717 C   0  0  0  0  0  0  0  0  0  0  0  0
   29.4300  -18.4099   10.3188 C   0  0  2  0  0  0  0  0  0  0  0  0
   29.2160  -17.5604   11.4741 N   0  0  0  0  0  0  0  0  0  0  0  0
   30.1589  -19.6159   10.7159 C   0  0  0  0  0  0  0  0  0  0  0  0
   31.1467  -19.6459   11.4825 O   0  0  0  0  0  0  0  0  0  0  0  0
   29.7528  -20.9005   10.2155 N   0  0  0  0  0  0  0  0  0  0  0  0
   30.4197  -22.1147   10.5475 C   0  0  1  0  0  0  0  0  0  0  0  0
   29.6447  -23.3606   10.3163 C   0  0  0  0  0  0  0  0  0  0  0  0
   30.5178  -24.8559   10.7834 S   0  0  0  0  0  0  0  0  0  0  0  0
   31.7041  -22.2082    9.7664 C   0  0  0  0  0  0  0  0  0  0  0  0
   31.7523  -21.9319    8.5446 O   0  0  0  0  0  0  0  0  0  0  0  0
   36.8662  -19.8665   11.5962 C   0  0  0  0  0  0  0  0  0  0  0  0
   37.7688  -21.0682   10.5712 S   0  0  0  0  0  0  0  0  0  0  0  0
   36.5520  -22.0871    9.7049 C   0  0  0  0  0  0  0  0  0  0  0  0
   35.2056  -22.0000   10.3487 C   0  0  0  0  0  0  0  0  0  0  0  0
   34.1240  -22.7481    9.5802 C   0  0  2  0  0  0  0  0  0  0  0  0
   32.9180  -22.6129   10.3756 N   0  0  0  0  0  0  0  0  0  0  0  0
   34.5040  -24.1729    9.4088 C   0  0  0  0  0  0  0  0  0  0  0  0
   34.0464  -25.0858   10.1174 O   0  0  0  0  0  0  0  0  0  0  0  0
   35.4134  -24.5132    8.4122 O   0  0  0  0  0  0  0  0  0  0  0  0
  2  1  1  6
  2  3  1  0
  4  2  1  0
  4  5  1  1
  6  4  1  0
  6  8  1  0
  7  6  2  0
  9  8  1  0
  9 12  1  0
  9 10  1  6
 11 10  1  0
 12 13  2  0
 12 19  1  0
 14 15  1  0
 16 15  1  0
 17 16  1  0
 18 17  1  1
 18 20  1  0
 19 18  1  0
 20 22  1  0
 21 20  2  0
M  END
$$$$
