VCM.pdb
     RDKit          3D

 22 21  0  0  1  0  0  0  0  0999 V2000
   11.1825  -22.1658   -9.2711 C   0  0  0  0  0  0  0  0  0  0  0  0
   12.4888  -22.2681  -10.0091 C   0  0  2  0  0  0  0  0  0  0  0  0
   13.1522  -23.6260   -9.7767 C   0  0  0  0  0  0  0  0  0  0  0  0
   13.4189  -21.1304   -9.7385 C   0  0  2  0  0  0  0  0  0  0  0  0
   14.5505  -21.2490  -10.6371 N   0  0  0  0  0  0  0  0  0  0  0  0
   13.8894  -21.0339   -8.3555 C   0  0  0  0  0  0  0  0  0  0  0  0
   14.8473  -21.6748   -7.8698 O   0  0  0  0  0  0  0  0  0  0  0  0
   13.2362  -20.1466   -7.4326 N   0  0  0  0  0  0  0  0  0  0  0  0
   13.6688  -19.9611   -6.0882 C   0  0  1  0  0  0  0  0  0  0  0  0
   13.6600  -18.5599   -5.5952 C   0  0  0  0  0  0  0  0  0  0  0  0
   14.9131  -17.5187   -6.3449 S   0  0  0  0  0  0  0  0  0  0  0  0
   12.8093  -20.7884   -5.1688 C   0  0  0  0  0  0  0  0  0  0  0  0
   11.5576  -20.7336   -5.2123 O   0  0  0  0  0  0  0  0  0  0  0  0
   14.5252  -25.7862   -0.3599 C   0  0  0  0  0  0  0  0  0  0  0  0
   15.3444  -25.0545   -1.8100 S   0  0  0  0  0  0  0  0  0  0  0  0
   14.5006  -23.5047   -2.2039 C   0  0  0  0  0  0  0  0  0  0  0  0
   13.2993  -23.7370   -3.0629 C   0  0  0  0  0  0  0  0  0  0  0  0
   12.5160  -22.4639   -3.3553 C   0  0  2  0  0  0  0  0  0  0  0  0
   13.3748  -21.6672   -4.2116 N   0  0  0  0  0  0  0  0  0  0  0  0
   12.1979  -21.7517   -2.0922 C   0  0  0  0  0  0  0  0  0  0  0  0
   12.8899  -20.8199   -1.6475 O   0  0  0  0  0  0  0  0  0  0  0  0
   11.0761  -22.1367   -1.3648 O   0  0  0  0  0  0  0  0  0  0  0  0
  2  1  1  1
  2  3  1  0
  4  2  1  0
  4  5  1  6
  6  4  1  0
  6  8  1  0
  7  6  2  0
  9  8  1  0
  9 12  1  0
  9 10  1  1
 11 10  1  0
 12 13  2  0
 12 19  1  0
 14 15  1  0
 16 15  1  0
 17 16  1  0
 18 17  1  1
 18 20  1  0
 19 18  1  0
 20 22  1  0
 21 20  2  0
M  END
$$$$
