VCM.pdb
     RDKit          3D

 22 21  0  0  1  0  0  0  0  0999 V2000
   20.1475  -12.6605  -17.4290 C   0  0  0  0  0  0  0  0  0  0  0  0
   18.6726  -12.3951  -17.3039 C   0  0  2  0  0  0  0  0  0  0  0  0
   17.8694  -13.6955  -17.3479 C   0  0  0  0  0  0  0  0  0  0  0  0
   18.1629  -11.3822  -18.2769 C   0  0  2  0  0  0  0  0  0  0  0  0
   18.2646  -11.9449  -19.6092 N   0  0  0  0  0  0  0  0  0  0  0  0
   18.8421  -10.0860  -18.2307 C   0  0  0  0  0  0  0  0  0  0  0  0
   19.8238   -9.7573  -18.9324 O   0  0  0  0  0  0  0  0  0  0  0  0
   18.3890   -9.0672  -17.3240 N   0  0  0  0  0  0  0  0  0  0  0  0
   18.9763   -7.7717  -17.2479 C   0  0  1  0  0  0  0  0  0  0  0  0
   18.0444   -6.6583  -16.9342 C   0  0  0  0  0  0  0  0  0  0  0  0
   18.8629   -5.0946  -16.6154 S   0  0  0  0  0  0  0  0  0  0  0  0
   20.0671   -7.7786  -16.2093 C   0  0  0  0  0  0  0  0  0  0  0  0
   19.8501   -8.1448  -15.0302 O   0  0  0  0  0  0  0  0  0  0  0  0
   26.8455  -10.1920  -14.3122 C   0  0  0  0  0  0  0  0  0  0  0  0
   25.9671   -9.4474  -15.7205 S   0  0  0  0  0  0  0  0  0  0  0  0
   24.6819   -8.3586  -15.0632 C   0  0  0  0  0  0  0  0  0  0  0  0
   23.5670   -8.1730  -16.0416 C   0  0  0  0  0  0  0  0  0  0  0  0
   22.4074   -7.3592  -15.4821 C   0  0  2  0  0  0  0  0  0  0  0  0
   21.3894   -7.3714  -16.5159 N   0  0  0  0  0  0  0  0  0  0  0  0
   22.8493   -5.9763  -15.1720 C   0  0  0  0  0  0  0  0  0  0  0  0
   22.8604   -5.0637  -16.0159 O   0  0  0  0  0  0  0  0  0  0  0  0
   23.2725   -5.6768  -13.8808 O   0  0  0  0  0  0  0  0  0  0  0  0
  2  1  1  6
  2  3  1  0
  4  2  1  0
  4  5  1  6
  6  4  1  0
  6  8  1  0
  7  6  2  0
  9  8  1  0
  9 12  1  0
  9 10  1  1
 11 10  1  0
 12 13  2  0
 12 19  1  0
 14 15  1  0
 16 15  1  0
 17 16  1  0
 18 17  1  6
 18 20  1  0
 19 18  1  0
 20 22  1  0
 21 20  2  0
M  END
$$$$
