VCM.pdb
     RDKit          3D

 22 21  0  0  1  0  0  0  0  0999 V2000
   19.5572  -13.1027  -20.9467 C   0  0  0  0  0  0  0  0  0  0  0  0
   19.7619  -13.8277  -19.6453 C   0  0  2  0  0  0  0  0  0  0  0  0
   19.0786  -15.1955  -19.6590 C   0  0  0  0  0  0  0  0  0  0  0  0
   19.3868  -13.0200  -18.4455 C   0  0  2  0  0  0  0  0  0  0  0  0
   17.9399  -12.9741  -18.3666 N   0  0  0  0  0  0  0  0  0  0  0  0
   19.9301  -11.6606  -18.4227 C   0  0  0  0  0  0  0  0  0  0  0  0
   21.1448  -11.3667  -18.3750 O   0  0  0  0  0  0  0  0  0  0  0  0
   19.0436  -10.5299  -18.4555 N   0  0  0  0  0  0  0  0  0  0  0  0
   19.4958   -9.1805  -18.3945 C   0  0  1  0  0  0  0  0  0  0  0  0
   18.7476   -8.2107  -19.2347 C   0  0  0  0  0  0  0  0  0  0  0  0
   19.1287   -8.3204  -20.9839 S   0  0  0  0  0  0  0  0  0  0  0  0
   19.4468   -8.7019  -16.9672 C   0  0  0  0  0  0  0  0  0  0  0  0
   18.3817   -8.7129  -16.3062 O   0  0  0  0  0  0  0  0  0  0  0  0
   22.3009  -11.2755  -12.6913 C   0  0  0  0  0  0  0  0  0  0  0  0
   22.4281   -9.7023  -11.7867 S   0  0  0  0  0  0  0  0  0  0  0  0
   21.4577   -8.4657  -12.6801 C   0  0  0  0  0  0  0  0  0  0  0  0
   21.3689   -8.7862  -14.1376 C   0  0  0  0  0  0  0  0  0  0  0  0
   20.5237   -7.7897  -14.9203 C   0  0  2  0  0  0  0  0  0  0  0  0
   20.6019   -8.2167  -16.3047 N   0  0  0  0  0  0  0  0  0  0  0  0
   21.0537   -6.4140  -14.7460 C   0  0  0  0  0  0  0  0  0  0  0  0
   21.7941   -5.8631  -15.5787 O   0  0  0  0  0  0  0  0  0  0  0  0
   20.7126   -5.6995  -13.6019 O   0  0  0  0  0  0  0  0  0  0  0  0
  2  1  1  6
  2  3  1  0
  4  2  1  0
  4  5  1  6
  6  4  1  0
  6  8  1  0
  7  6  2  0
  9  8  1  0
  9 12  1  0
  9 10  1  6
 11 10  1  0
 12 13  2  0
 12 19  1  0
 14 15  1  0
 16 15  1  0
 17 16  1  0
 18 17  1  1
 18 20  1  0
 19 18  1  0
 20 22  1  0
 21 20  2  0
M  END
$$$$
