VCM.pdb
     RDKit          3D

 22 21  0  0  1  0  0  0  0  0999 V2000
   15.3639  -13.9124  -17.9163 C   0  0  0  0  0  0  0  0  0  0  0  0
   16.5854  -14.7824  -18.0265 C   0  0  2  0  0  0  0  0  0  0  0  0
   16.2775  -16.2245  -17.6221 C   0  0  0  0  0  0  0  0  0  0  0  0
   17.7758  -14.2353  -17.3080 C   0  0  2  0  0  0  0  0  0  0  0  0
   17.5753  -14.4338  -15.8859 N   0  0  0  0  0  0  0  0  0  0  0  0
   18.0653  -12.8258  -17.5781 C   0  0  0  0  0  0  0  0  0  0  0  0
   18.3555  -12.3474  -18.6966 O   0  0  0  0  0  0  0  0  0  0  0  0
   18.0287  -11.8654  -16.5096 N   0  0  0  0  0  0  0  0  0  0  0  0
   18.3852  -10.4964  -16.6771 C   0  0  1  0  0  0  0  0  0  0  0  0
   17.3002   -9.5123  -16.4308 C   0  0  0  0  0  0  0  0  0  0  0  0
   16.1533   -9.3388  -17.7986 S   0  0  0  0  0  0  0  0  0  0  0  0
   19.5365  -10.1653  -15.7642 C   0  0  0  0  0  0  0  0  0  0  0  0
   19.4961  -10.4177  -14.5369 O   0  0  0  0  0  0  0  0  0  0  0  0
   27.0537  -10.6166  -14.6643 C   0  0  0  0  0  0  0  0  0  0  0  0
   25.6581  -10.7256  -15.8260 S   0  0  0  0  0  0  0  0  0  0  0  0
   24.2607   -9.8341  -15.1038 C   0  0  0  0  0  0  0  0  0  0  0  0
   23.0268   -9.9823  -15.9347 C   0  0  0  0  0  0  0  0  0  0  0  0
   21.8173   -9.2687  -15.3449 C   0  0  2  0  0  0  0  0  0  0  0  0
   20.7190   -9.5532  -16.2493 N   0  0  0  0  0  0  0  0  0  0  0  0
   22.0755   -7.8101  -15.2467 C   0  0  0  0  0  0  0  0  0  0  0  0
   21.9775   -7.0383  -16.2160 O   0  0  0  0  0  0  0  0  0  0  0  0
   22.4449   -7.2716  -14.0180 O   0  0  0  0  0  0  0  0  0  0  0  0
  2  1  1  1
  2  3  1  0
  4  2  1  0
  4  5  1  1
  6  4  1  0
  6  8  1  0
  7  6  2  0
  9  8  1  0
  9 12  1  0
  9 10  1  1
 11 10  1  0
 12 13  2  0
 12 19  1  0
 14 15  1  0
 16 15  1  0
 17 16  1  0
 18 17  1  6
 18 20  1  0
 19 18  1  0
 20 22  1  0
 21 20  2  0
M  END
$$$$
