VCM.pdb
     RDKit          3D

 22 21  0  0  1  0  0  0  0  0999 V2000
   22.0855  -17.7515  -19.1005 C   0  0  0  0  0  0  0  0  0  0  0  0
   22.9414  -18.7088  -18.3179 C   0  0  2  0  0  0  0  0  0  0  0  0
   22.3603  -20.1229  -18.3465 C   0  0  0  0  0  0  0  0  0  0  0  0
   23.2375  -18.2469  -16.9281 C   0  0  2  0  0  0  0  0  0  0  0  0
   23.6850  -16.8695  -16.9959 N   0  0  0  0  0  0  0  0  0  0  0  0
   24.2218  -19.0552  -16.2061 C   0  0  0  0  0  0  0  0  0  0  0  0
   24.0751  -20.2533  -15.8787 O   0  0  0  0  0  0  0  0  0  0  0  0
   25.4788  -18.4792  -15.8142 N   0  0  0  0  0  0  0  0  0  0  0  0
   26.4727  -19.1943  -15.0860 C   0  0  1  0  0  0  0  0  0  0  0  0
   27.8661  -18.7050  -15.2453 C   0  0  0  0  0  0  0  0  0  0  0  0
   28.3071  -18.3081  -16.9378 S   0  0  0  0  0  0  0  0  0  0  0  0
   26.1306  -19.1703  -13.6194 C   0  0  0  0  0  0  0  0  0  0  0  0
   26.1558  -18.1071  -12.9557 O   0  0  0  0  0  0  0  0  0  0  0  0
   21.0155  -19.8690  -11.7453 C   0  0  0  0  0  0  0  0  0  0  0  0
   21.6339  -19.5715  -10.0606 S   0  0  0  0  0  0  0  0  0  0  0  0
   23.4174  -19.8689  -10.0608 C   0  0  0  0  0  0  0  0  0  0  0  0
   23.9743  -19.8636  -11.4482 C   0  0  0  0  0  0  0  0  0  0  0  0
   25.4362  -20.2866  -11.5091 C   0  0  2  0  0  0  0  0  0  0  0  0
   25.7646  -20.3479  -12.9211 N   0  0  0  0  0  0  0  0  0  0  0  0
   25.6203  -21.6048  -10.8515 C   0  0  0  0  0  0  0  0  0  0  0  0
   25.5709  -21.7596   -9.6192 O   0  0  0  0  0  0  0  0  0  0  0  0
   25.8595  -22.7250  -11.6413 O   0  0  0  0  0  0  0  0  0  0  0  0
  2  1  1  1
  2  3  1  0
  4  2  1  0
  4  5  1  6
  6  4  1  0
  6  8  1  0
  7  6  2  0
  9  8  1  0
  9 12  1  0
  9 10  1  1
 11 10  1  0
 12 13  2  0
 12 19  1  0
 14 15  1  0
 16 15  1  0
 17 16  1  0
 18 17  1  6
 18 20  1  0
 19 18  1  0
 20 22  1  0
 21 20  2  0
M  END
$$$$
