VCM.pdb
     RDKit          3D

 22 21  0  0  1  0  0  0  0  0999 V2000
   18.0753  -11.4108  -19.1712 C   0  0  0  0  0  0  0  0  0  0  0  0
   18.6967  -10.7617  -17.9655 C   0  0  2  0  0  0  0  0  0  0  0  0
   18.9941   -9.2840  -18.2225 C   0  0  0  0  0  0  0  0  0  0  0  0
   19.8873  -11.4950  -17.4388 C   0  0  2  0  0  0  0  0  0  0  0  0
   19.4581  -12.8181  -17.0298 N   0  0  0  0  0  0  0  0  0  0  0  0
   20.5802  -10.8322  -16.3324 C   0  0  0  0  0  0  0  0  0  0  0  0
   20.1251  -10.6858  -15.1766 O   0  0  0  0  0  0  0  0  0  0  0  0
   21.8941  -10.2845  -16.5300 N   0  0  0  0  0  0  0  0  0  0  0  0
   22.5998   -9.5644  -15.5238 C   0  0  1  0  0  0  0  0  0  0  0  0
   24.0436   -9.8877  -15.3917 C   0  0  0  0  0  0  0  0  0  0  0  0
   24.3635  -11.5248  -14.7328 S   0  0  0  0  0  0  0  0  0  0  0  0
   22.4709   -8.0866  -15.7845 C   0  0  0  0  0  0  0  0  0  0  0  0
   22.4112   -7.6271  -16.9494 O   0  0  0  0  0  0  0  0  0  0  0  0
   18.8981   -4.6987  -18.2533 C   0  0  0  0  0  0  0  0  0  0  0  0
   18.7560   -4.0968  -16.5426 S   0  0  0  0  0  0  0  0  0  0  0  0
   20.3932   -4.1904  -15.7809 C   0  0  0  0  0  0  0  0  0  0  0  0
   20.8046   -5.6068  -15.5371 C   0  0  0  0  0  0  0  0  0  0  0  0
   22.2287   -5.7357  -15.0122 C   0  0  2  0  0  0  0  0  0  0  0  0
   22.4111   -7.1463  -14.7258 N   0  0  0  0  0  0  0  0  0  0  0  0
   22.4067   -4.9071  -13.7933 C   0  0  0  0  0  0  0  0  0  0  0  0
   22.4566   -5.3886  -12.6485 O   0  0  0  0  0  0  0  0  0  0  0  0
   22.5240   -3.5271  -13.9269 O   0  0  0  0  0  0  0  0  0  0  0  0
  2  1  1  6
  2  3  1  0
  4  2  1  0
  4  5  1  1
  6  4  1  0
  6  8  1  0
  7  6  2  0
  9  8  1  0
  9 12  1  0
  9 10  1  6
 11 10  1  0
 12 13  2  0
 12 19  1  0
 14 15  1  0
 16 15  1  0
 17 16  1  0
 18 17  1  1
 18 20  1  0
 19 18  1  0
 20 22  1  0
 21 20  2  0
M  END
$$$$
