NYR.pdb
     RDKit          3D

 32 32  0  0  1  0  0  0  0  0999 V2000
   22.2901  -18.1656  -20.7127 N   0  0  0  0  0  0  0  0  0  0  0  0
   23.6736  -18.3331  -20.9393 C   0  0  0  0  0  0  0  0  0  0  0  0
   24.1266  -18.2764  -22.1038 O   0  0  0  0  0  0  0  0  0  0  0  0
   24.6041  -18.5759  -19.8198 C   0  0  0  0  0  0  0  0  0  0  0  0
   23.8619  -18.6386  -18.4859 C   0  0  2  0  0  0  0  0  0  0  0  0
   23.3599  -17.3328  -18.1924 N   0  0  0  0  0  0  0  0  0  0  0  0
   24.8377  -19.0994  -17.4271 C   0  0  0  0  0  0  0  0  0  0  0  0
   25.3096  -20.2603  -17.4628 O   0  0  0  0  0  0  0  0  0  0  0  0
   30.0535  -15.1903  -19.2658 O   0  0  0  0  0  0  0  0  0  0  0  0
   29.2732  -15.6766  -18.2137 C   0  0  0  0  0  0  0  0  0  0  0  0
   29.7132  -16.8604  -17.6107 C   0  0  0  0  0  0  0  0  0  0  0  0
   28.9615  -17.3752  -16.5591 C   0  0  0  0  0  0  0  0  0  0  0  0
   27.8167  -16.7557  -16.1093 C   0  0  0  0  0  0  0  0  0  0  0  0
   27.0352  -17.3183  -14.9943 C   0  0  0  0  0  0  0  0  0  0  0  0
   26.1948  -18.4817  -15.3688 C   0  0  2  0  0  0  0  0  0  0  0  0
   25.2307  -18.2239  -16.3810 N   0  0  0  0  0  0  0  0  0  0  0  0
   25.6223  -19.0723  -14.1105 C   0  0  0  0  0  0  0  0  0  0  0  0
   26.0902  -18.7862  -12.9846 O   0  0  0  0  0  0  0  0  0  0  0  0
   27.4055  -15.5913  -16.7203 C   0  0  0  0  0  0  0  0  0  0  0  0
   28.1329  -15.0410  -17.7806 C   0  0  0  0  0  0  0  0  0  0  0  0
   19.5572  -24.3398  -13.6691 N   0  0  0  0  0  0  0  0  0  0  0  0
   19.0530  -23.3972  -12.7404 C   0  0  0  0  0  0  0  0  0  0  0  0
   18.1638  -23.7246  -11.8560 N   0  0  0  0  0  0  0  0  0  0  0  0
   19.5503  -22.0671  -12.7993 N   0  0  0  0  0  0  0  0  0  0  0  0
   20.5121  -21.7368  -13.8171 C   0  0  0  0  0  0  0  0  0  0  0  0
   21.8952  -21.8884  -13.1659 C   0  0  0  0  0  0  0  0  0  0  0  0
   22.4659  -20.5069  -13.0933 C   0  0  0  0  0  0  0  0  0  0  0  0
   23.9573  -20.5002  -12.8694 C   0  0  2  0  0  0  0  0  0  0  0  0
   24.5298  -19.9777  -14.1296 N   0  0  0  0  0  0  0  0  0  0  0  0
   24.4068  -21.9011  -12.6658 C   0  0  0  0  0  0  0  0  0  0  0  0
   24.9133  -22.6280  -13.5317 O   0  0  0  0  0  0  0  0  0  0  0  0
   24.2508  -22.4621  -11.3889 O   0  0  0  0  0  0  0  0  0  0  0  0
  2  1  1  0
  3  2  2  0
  4  2  1  0
  5  6  1  1
  5  4  1  0
  7  5  1  0
  8  7  2  0
  9 10  1  0
 10 20  2  0
 10 11  1  0
 11 12  2  0
 12 13  1  0
 13 14  1  0
 15 14  1  1
 15 16  1  0
 16  7  1  0
 17 29  1  0
 17 15  1  0
 18 17  2  0
 19 13  2  0
 20 19  1  0
 21 22  1  0
 22 24  1  0
 22 23  2  0
 24 25  1  0
 26 25  1  0
 27 26  1  0
 28 27  1  6
 28 29  1  0
 30 32  1  0
 30 28  1  0
 31 30  2  0
M  END
$$$$
