NYR.pdb
     RDKit          3D

 32 32  0  0  1  0  0  0  0  0999 V2000
   19.9874  -16.9989  -12.9843 N   0  0  0  0  0  0  0  0  0  0  0  0
   19.7648  -18.3312  -13.3954 C   0  0  0  0  0  0  0  0  0  0  0  0
   18.6970  -18.9076  -13.0923 O   0  0  0  0  0  0  0  0  0  0  0  0
   20.7758  -19.0636  -14.1824 C   0  0  0  0  0  0  0  0  0  0  0  0
   22.0597  -18.2489  -14.3305 C   0  0  2  0  0  0  0  0  0  0  0  0
   21.8137  -17.1931  -15.2621 N   0  0  0  0  0  0  0  0  0  0  0  0
   23.1476  -19.1735  -14.8275 C   0  0  0  0  0  0  0  0  0  0  0  0
   23.3009  -19.3684  -16.0563 O   0  0  0  0  0  0  0  0  0  0  0  0
   28.1964  -15.8683  -17.1258 O   0  0  0  0  0  0  0  0  0  0  0  0
   27.7403  -16.8839  -16.2817 C   0  0  0  0  0  0  0  0  0  0  0  0
   28.0429  -18.1945  -16.6683 C   0  0  0  0  0  0  0  0  0  0  0  0
   27.6049  -19.2328  -15.8521 C   0  0  0  0  0  0  0  0  0  0  0  0
   26.8943  -19.0011  -14.6954 C   0  0  0  0  0  0  0  0  0  0  0  0
   26.4396  -20.1155  -13.8457 C   0  0  0  0  0  0  0  0  0  0  0  0
   25.1150  -20.6653  -14.2239 C   0  0  2  0  0  0  0  0  0  0  0  0
   24.0076  -19.8315  -13.9094 N   0  0  0  0  0  0  0  0  0  0  0  0
   25.0103  -22.0601  -13.6729 C   0  0  0  0  0  0  0  0  0  0  0  0
   24.7559  -22.2659  -12.4641 O   0  0  0  0  0  0  0  0  0  0  0  0
   26.6098  -17.7014  -14.3376 C   0  0  0  0  0  0  0  0  0  0  0  0
   27.0319  -16.6294  -15.1304 C   0  0  0  0  0  0  0  0  0  0  0  0
   19.4165  -24.3978  -10.8392 N   0  0  0  0  0  0  0  0  0  0  0  0
   18.9061  -24.6190  -12.1414 C   0  0  0  0  0  0  0  0  0  0  0  0
   17.6315  -24.6583  -12.3731 N   0  0  0  0  0  0  0  0  0  0  0  0
   19.8340  -24.7985  -13.2028 N   0  0  0  0  0  0  0  0  0  0  0  0
   21.2389  -24.6799  -12.9158 C   0  0  0  0  0  0  0  0  0  0  0  0
   21.9756  -25.0949  -14.1984 C   0  0  0  0  0  0  0  0  0  0  0  0
   22.9592  -24.0018  -14.4762 C   0  0  0  0  0  0  0  0  0  0  0  0
   24.3885  -24.4309  -14.2594 C   0  0  2  0  0  0  0  0  0  0  0  0
   25.1920  -23.2093  -14.4854 N   0  0  0  0  0  0  0  0  0  0  0  0
   24.7339  -25.4465  -15.2867 C   0  0  0  0  0  0  0  0  0  0  0  0
   25.1349  -25.2036  -16.4334 O   0  0  0  0  0  0  0  0  0  0  0  0
   24.5993  -26.8006  -14.9432 O   0  0  0  0  0  0  0  0  0  0  0  0
  2  1  1  0
  3  2  2  0
  4  2  1  0
  5  6  1  6
  5  4  1  0
  7  5  1  0
  8  7  2  0
  9 10  1  0
 10 20  2  0
 10 11  1  0
 11 12  2  0
 12 13  1  0
 13 14  1  0
 15 14  1  1
 15 16  1  0
 16  7  1  0
 17 29  1  0
 17 15  1  0
 18 17  2  0
 19 13  2  0
 20 19  1  0
 21 22  1  0
 22 24  1  0
 22 23  2  0
 24 25  1  0
 26 25  1  0
 27 26  1  0
 28 27  1  6
 28 29  1  0
 30 32  1  0
 30 28  1  0
 31 30  2  0
M  END
$$$$
