NYR.pdb
     RDKit          3D

 32 32  0  0  1  0  0  0  0  0999 V2000
   26.8347  -14.3641  -19.0810 N   0  0  0  0  0  0  0  0  0  0  0  0
   25.7717  -14.6201  -19.9743 C   0  0  0  0  0  0  0  0  0  0  0  0
   25.7572  -15.6788  -20.6400 O   0  0  0  0  0  0  0  0  0  0  0  0
   24.6675  -13.6549  -20.1396 C   0  0  0  0  0  0  0  0  0  0  0  0
   24.8844  -12.4119  -19.2782 C   0  0  2  0  0  0  0  0  0  0  0  0
   25.0126  -12.8286  -17.9169 N   0  0  0  0  0  0  0  0  0  0  0  0
   23.6920  -11.5005  -19.4607 C   0  0  0  0  0  0  0  0  0  0  0  0
   23.3811  -11.0850  -20.6017 O   0  0  0  0  0  0  0  0  0  0  0  0
   18.4906  -14.7241  -21.5329 O   0  0  0  0  0  0  0  0  0  0  0  0
   18.9749  -13.7353  -20.6728 C   0  0  0  0  0  0  0  0  0  0  0  0
   19.5604  -14.1810  -19.4824 C   0  0  0  0  0  0  0  0  0  0  0  0
   20.0542  -13.2248  -18.6005 C   0  0  0  0  0  0  0  0  0  0  0  0
   19.9798  -11.8764  -18.8703 C   0  0  0  0  0  0  0  0  0  0  0  0
   20.5087  -10.8804  -17.9222 C   0  0  0  0  0  0  0  0  0  0  0  0
   21.7783  -10.2465  -18.3538 C   0  0  2  0  0  0  0  0  0  0  0  0
   22.9112  -11.1050  -18.3430 N   0  0  0  0  0  0  0  0  0  0  0  0
   21.9608   -8.9778  -17.5683 C   0  0  0  0  0  0  0  0  0  0  0  0
   22.6426   -8.9539  -16.5180 O   0  0  0  0  0  0  0  0  0  0  0  0
   19.3985  -11.4642  -20.0495 C   0  0  0  0  0  0  0  0  0  0  0  0
   18.8900  -12.3934  -20.9628 C   0  0  0  0  0  0  0  0  0  0  0  0
   19.6893   -0.8269  -19.7766 N   0  0  0  0  0  0  0  0  0  0  0  0
   20.1985   -0.6297  -18.4701 C   0  0  0  0  0  0  0  0  0  0  0  0
   20.2967    0.5542  -17.9515 N   0  0  0  0  0  0  0  0  0  0  0  0
   20.6038   -1.7730  -17.7296 N   0  0  0  0  0  0  0  0  0  0  0  0
   20.5084   -3.0660  -18.3535 C   0  0  0  0  0  0  0  0  0  0  0  0
   21.1032   -4.0697  -17.3541 C   0  0  0  0  0  0  0  0  0  0  0  0
   20.9949   -5.4109  -18.0091 C   0  0  0  0  0  0  0  0  0  0  0  0
   21.5539   -6.5245  -17.1596 C   0  0  2  0  0  0  0  0  0  0  0  0
   21.3763   -7.7490  -17.9708 N   0  0  0  0  0  0  0  0  0  0  0  0
   20.7359   -6.6273  -15.9241 C   0  0  0  0  0  0  0  0  0  0  0  0
   19.7125   -7.3129  -15.7928 O   0  0  0  0  0  0  0  0  0  0  0  0
   21.1452   -5.8904  -14.8020 O   0  0  0  0  0  0  0  0  0  0  0  0
  2  1  1  0
  3  2  2  0
  4  2  1  0
  5  6  1  1
  5  4  1  0
  7  5  1  0
  8  7  2  0
  9 10  1  0
 10 20  2  0
 10 11  1  0
 11 12  2  0
 12 13  1  0
 13 14  1  0
 15 14  1  1
 15 16  1  0
 16  7  1  0
 17 29  1  0
 17 15  1  0
 18 17  2  0
 19 13  2  0
 20 19  1  0
 21 22  1  0
 22 24  1  0
 22 23  2  0
 24 25  1  0
 26 25  1  0
 27 26  1  0
 28 27  1  6
 28 29  1  0
 30 32  1  0
 30 28  1  0
 31 30  2  0
M  END
$$$$
