NYR.pdb
     RDKit          3D

 32 32  0  0  1  0  0  0  0  0999 V2000
   25.6311  -13.7396  -21.3351 N   0  0  0  0  0  0  0  0  0  0  0  0
   24.3914  -13.1154  -21.5945 C   0  0  0  0  0  0  0  0  0  0  0  0
   23.9133  -13.1338  -22.7501 O   0  0  0  0  0  0  0  0  0  0  0  0
   23.6422  -12.4358  -20.5200 C   0  0  0  0  0  0  0  0  0  0  0  0
   24.4391  -12.4144  -19.2167 C   0  0  2  0  0  0  0  0  0  0  0  0
   24.5596  -13.7583  -18.7448 N   0  0  0  0  0  0  0  0  0  0  0  0
   23.6929  -11.5518  -18.2244 C   0  0  0  0  0  0  0  0  0  0  0  0
   22.5950  -11.9324  -17.7539 O   0  0  0  0  0  0  0  0  0  0  0  0
   22.0117   -4.4053  -13.2280 O   0  0  0  0  0  0  0  0  0  0  0  0
   22.6510   -5.3557  -14.0279 C   0  0  0  0  0  0  0  0  0  0  0  0
   22.6900   -6.6623  -13.5279 C   0  0  0  0  0  0  0  0  0  0  0  0
   23.3187   -7.6365  -14.2971 C   0  0  0  0  0  0  0  0  0  0  0  0
   23.8914   -7.3465  -15.5155 C   0  0  0  0  0  0  0  0  0  0  0  0
   24.5527   -8.3934  -16.3137 C   0  0  0  0  0  0  0  0  0  0  0  0
   23.6179   -9.3592  -16.9409 C   0  0  2  0  0  0  0  0  0  0  0  0
   24.2261  -10.3017  -17.8142 N   0  0  0  0  0  0  0  0  0  0  0  0
   22.4890   -8.5849  -17.5621 C   0  0  0  0  0  0  0  0  0  0  0  0
   22.6430   -7.9542  -18.6330 O   0  0  0  0  0  0  0  0  0  0  0  0
   23.8390   -6.0522  -15.9848 C   0  0  0  0  0  0  0  0  0  0  0  0
   23.2164   -5.0436  -15.2423 C   0  0  0  0  0  0  0  0  0  0  0  0
   13.9500   -9.8250  -16.7277 N   0  0  0  0  0  0  0  0  0  0  0  0
   14.0161   -8.8630  -17.7645 C   0  0  0  0  0  0  0  0  0  0  0  0
   12.9733   -8.5510  -18.4684 N   0  0  0  0  0  0  0  0  0  0  0  0
   15.2668   -8.2379  -18.0195 N   0  0  0  0  0  0  0  0  0  0  0  0
   16.4581   -8.8372  -17.4793 C   0  0  0  0  0  0  0  0  0  0  0  0
   17.6189   -7.9081  -17.8656 C   0  0  0  0  0  0  0  0  0  0  0  0
   18.8483   -8.5230  -17.2740 C   0  0  0  0  0  0  0  0  0  0  0  0
   20.1061   -7.7662  -17.6194 C   0  0  2  0  0  0  0  0  0  0  0  0
   21.1986   -8.5275  -16.9745 N   0  0  0  0  0  0  0  0  0  0  0  0
   20.0210   -6.4135  -17.0118 C   0  0  0  0  0  0  0  0  0  0  0  0
   20.0832   -6.1629  -15.8002 O   0  0  0  0  0  0  0  0  0  0  0  0
   19.8558   -5.3165  -17.8713 O   0  0  0  0  0  0  0  0  0  0  0  0
  2  1  1  0
  3  2  2  0
  4  2  1  0
  5  6  1  1
  5  4  1  0
  7  5  1  0
  8  7  2  0
  9 10  1  0
 10 20  2  0
 10 11  1  0
 11 12  2  0
 12 13  1  0
 13 14  1  0
 15 14  1  6
 15 16  1  0
 16  7  1  0
 17 29  1  0
 17 15  1  0
 18 17  2  0
 19 13  2  0
 20 19  1  0
 21 22  1  0
 22 24  1  0
 22 23  2  0
 24 25  1  0
 26 25  1  0
 27 26  1  0
 28 27  1  1
 28 29  1  0
 30 32  1  0
 30 28  1  0
 31 30  2  0
M  END
$$$$
