NYR.pdb
     RDKit          3D

 32 32  0  0  1  0  0  0  0  0999 V2000
   28.2586  -24.2926  -16.9466 N   0  0  0  0  0  0  0  0  0  0  0  0
   27.2739  -23.5845  -17.6695 C   0  0  0  0  0  0  0  0  0  0  0  0
   27.4693  -23.2946  -18.8704 O   0  0  0  0  0  0  0  0  0  0  0  0
   26.0077  -23.1762  -17.0309 C   0  0  0  0  0  0  0  0  0  0  0  0
   25.9640  -23.6021  -15.5644 C   0  0  2  0  0  0  0  0  0  0  0  0
   25.7658  -25.0168  -15.5159 N   0  0  0  0  0  0  0  0  0  0  0  0
   24.8242  -22.8675  -14.8960 C   0  0  0  0  0  0  0  0  0  0  0  0
   23.7339  -23.4486  -14.6838 O   0  0  0  0  0  0  0  0  0  0  0  0
   25.9130  -21.4058   -7.8792 O   0  0  0  0  0  0  0  0  0  0  0  0
   25.6104  -20.9721   -9.1724 C   0  0  0  0  0  0  0  0  0  0  0  0
   24.3111  -20.4945   -9.3784 C   0  0  0  0  0  0  0  0  0  0  0  0
   23.9729  -20.0537  -10.6541 C   0  0  0  0  0  0  0  0  0  0  0  0
   24.8727  -20.0777  -11.6964 C   0  0  0  0  0  0  0  0  0  0  0  0
   24.4936  -19.6065  -13.0398 C   0  0  0  0  0  0  0  0  0  0  0  0
   23.9786  -20.6723  -13.9335 C   0  0  2  0  0  0  0  0  0  0  0  0
   24.9750  -21.5122  -14.5013 N   0  0  0  0  0  0  0  0  0  0  0  0
   23.0618  -20.0378  -14.9419 C   0  0  0  0  0  0  0  0  0  0  0  0
   23.5003  -19.5692  -16.0173 O   0  0  0  0  0  0  0  0  0  0  0  0
   26.1455  -20.5527  -11.4667 C   0  0  0  0  0  0  0  0  0  0  0  0
   26.5253  -21.0050  -10.1989 C   0  0  0  0  0  0  0  0  0  0  0  0
   20.8212  -23.1551  -21.2031 N   0  0  0  0  0  0  0  0  0  0  0  0
   21.5419  -21.9403  -21.1037 C   0  0  0  0  0  0  0  0  0  0  0  0
   22.4289  -21.6032  -21.9867 N   0  0  0  0  0  0  0  0  0  0  0  0
   21.2674  -21.0870  -20.0008 N   0  0  0  0  0  0  0  0  0  0  0  0
   20.2912  -21.5082  -19.0315 C   0  0  0  0  0  0  0  0  0  0  0  0
   20.0699  -20.3095  -18.0964 C   0  0  0  0  0  0  0  0  0  0  0  0
   20.8942  -20.5846  -16.8780 C   0  0  0  0  0  0  0  0  0  0  0  0
   20.7613  -19.5118  -15.8265 C   0  0  2  0  0  0  0  0  0  0  0  0
   21.6620  -19.9367  -14.7323 N   0  0  0  0  0  0  0  0  0  0  0  0
   19.3587  -19.5058  -15.3378 C   0  0  0  0  0  0  0  0  0  0  0  0
   18.3834  -19.0536  -15.9535 O   0  0  0  0  0  0  0  0  0  0  0  0
   19.1015  -20.0558  -14.0725 O   0  0  0  0  0  0  0  0  0  0  0  0
  2  1  1  0
  3  2  2  0
  4  2  1  0
  5  6  1  6
  5  4  1  0
  7  5  1  0
  8  7  2  0
  9 10  1  0
 10 20  2  0
 10 11  1  0
 11 12  2  0
 12 13  1  0
 13 14  1  0
 15 14  1  6
 15 16  1  0
 16  7  1  0
 17 29  1  0
 17 15  1  0
 18 17  2  0
 19 13  2  0
 20 19  1  0
 21 22  1  0
 22 24  1  0
 22 23  2  0
 24 25  1  0
 26 25  1  0
 27 26  1  0
 28 27  1  6
 28 29  1  0
 30 32  1  0
 30 28  1  0
 31 30  2  0
M  END
$$$$
