NYR.pdb
     RDKit          3D

 32 32  0  0  1  0  0  0  0  0999 V2000
   16.2591  -24.1499  -17.2151 N   0  0  0  0  0  0  0  0  0  0  0  0
   16.7982  -23.9041  -15.9334 C   0  0  0  0  0  0  0  0  0  0  0  0
   16.5588  -24.6942  -14.9938 O   0  0  0  0  0  0  0  0  0  0  0  0
   17.6458  -22.7233  -15.6780 C   0  0  0  0  0  0  0  0  0  0  0  0
   17.8501  -21.9023  -16.9502 C   0  0  2  0  0  0  0  0  0  0  0  0
   18.9653  -22.4472  -17.6591 N   0  0  0  0  0  0  0  0  0  0  0  0
   18.1071  -20.4680  -16.5469 C   0  0  0  0  0  0  0  0  0  0  0  0
   19.1256  -20.1705  -15.8794 O   0  0  0  0  0  0  0  0  0  0  0  0
   18.0066  -16.3464  -22.9240 O   0  0  0  0  0  0  0  0  0  0  0  0
   18.1428  -16.5861  -21.5543 C   0  0  0  0  0  0  0  0  0  0  0  0
   18.5698  -17.8677  -21.1883 C   0  0  0  0  0  0  0  0  0  0  0  0
   18.7170  -18.1436  -19.8325 C   0  0  0  0  0  0  0  0  0  0  0  0
   18.4562  -17.2002  -18.8637 C   0  0  0  0  0  0  0  0  0  0  0  0
   18.6182  -17.5136  -17.4333 C   0  0  0  0  0  0  0  0  0  0  0  0
   17.3926  -18.0405  -16.7852 C   0  0  2  0  0  0  0  0  0  0  0  0
   17.1988  -19.4424  -16.9189 N   0  0  0  0  0  0  0  0  0  0  0  0
   16.2251  -17.2120  -17.2439 C   0  0  0  0  0  0  0  0  0  0  0  0
   15.6983  -17.3929  -18.3656 O   0  0  0  0  0  0  0  0  0  0  0  0
   18.0372  -15.9461  -19.2510 C   0  0  0  0  0  0  0  0  0  0  0  0
   17.8767  -15.6284  -20.6036 C   0  0  0  0  0  0  0  0  0  0  0  0
   15.2060  -10.7971  -21.3878 N   0  0  0  0  0  0  0  0  0  0  0  0
   14.0322  -10.6022  -20.6201 C   0  0  0  0  0  0  0  0  0  0  0  0
   13.2956   -9.5453  -20.7627 N   0  0  0  0  0  0  0  0  0  0  0  0
   13.6741  -11.6042  -19.6780 N   0  0  0  0  0  0  0  0  0  0  0  0
   14.5037  -12.7749  -19.5701 C   0  0  0  0  0  0  0  0  0  0  0  0
   13.8349  -13.6798  -18.5241 C   0  0  0  0  0  0  0  0  0  0  0  0
   14.9430  -14.4641  -17.8945 C   0  0  0  0  0  0  0  0  0  0  0  0
   14.4498  -15.4614  -16.8764 C   0  0  2  0  0  0  0  0  0  0  0  0
   15.6609  -16.1894  -16.4379 N   0  0  0  0  0  0  0  0  0  0  0  0
   13.5245  -16.4048  -17.5546 C   0  0  0  0  0  0  0  0  0  0  0  0
   13.0419  -16.2525  -18.6853 O   0  0  0  0  0  0  0  0  0  0  0  0
   13.1570  -17.5722  -16.8680 O   0  0  0  0  0  0  0  0  0  0  0  0
  2  1  1  0
  3  2  2  0
  4  2  1  0
  5  6  1  1
  5  4  1  0
  7  5  1  0
  8  7  2  0
  9 10  1  0
 10 20  2  0
 10 11  1  0
 11 12  2  0
 12 13  1  0
 13 14  1  0
 15 14  1  6
 15 16  1  0
 16  7  1  0
 17 29  1  0
 17 15  1  0
 18 17  2  0
 19 13  2  0
 20 19  1  0
 21 22  1  0
 22 24  1  0
 22 23  2  0
 24 25  1  0
 26 25  1  0
 27 26  1  0
 28 27  1  6
 28 29  1  0
 30 32  1  0
 30 28  1  0
 31 30  2  0
M  END
$$$$
