NYR.pdb
     RDKit          3D

 32 32  0  0  1  0  0  0  0  0999 V2000
   29.6905  -22.0603  -19.4220 N   0  0  0  0  0  0  0  0  0  0  0  0
   30.0445  -22.9961  -18.4257 C   0  0  0  0  0  0  0  0  0  0  0  0
   31.0357  -23.7404  -18.5927 O   0  0  0  0  0  0  0  0  0  0  0  0
   29.2614  -23.1147  -17.1805 C   0  0  0  0  0  0  0  0  0  0  0  0
   28.0563  -22.1757  -17.1922 C   0  0  2  0  0  0  0  0  0  0  0  0
   28.5353  -20.8359  -17.3284 N   0  0  0  0  0  0  0  0  0  0  0  0
   27.3064  -22.3583  -15.8922 C   0  0  0  0  0  0  0  0  0  0  0  0
   26.8479  -23.4819  -15.5778 O   0  0  0  0  0  0  0  0  0  0  0  0
   23.7327  -20.5265   -8.0291 O   0  0  0  0  0  0  0  0  0  0  0  0
   24.4323  -20.4279   -9.2345 C   0  0  0  0  0  0  0  0  0  0  0  0
   25.6521  -21.1107   -9.3014 C   0  0  0  0  0  0  0  0  0  0  0  0
   26.3774  -21.0356  -10.4864 C   0  0  0  0  0  0  0  0  0  0  0  0
   25.9281  -20.3176  -11.5723 C   0  0  0  0  0  0  0  0  0  0  0  0
   26.7123  -20.2509  -12.8176 C   0  0  0  0  0  0  0  0  0  0  0  0
   26.2969  -21.2323  -13.8493 C   0  0  2  0  0  0  0  0  0  0  0  0
   27.1128  -21.2607  -15.0130 N   0  0  0  0  0  0  0  0  0  0  0  0
   24.8339  -21.0293  -14.1291 C   0  0  0  0  0  0  0  0  0  0  0  0
   24.4147  -19.9868  -14.6821 O   0  0  0  0  0  0  0  0  0  0  0  0
   24.7238  -19.6545  -11.4801 C   0  0  0  0  0  0  0  0  0  0  0  0
   23.9642  -19.7047  -10.3068 C   0  0  0  0  0  0  0  0  0  0  0  0
   21.3486  -27.7036  -16.3762 N   0  0  0  0  0  0  0  0  0  0  0  0
   22.4680  -27.2516  -15.6360 C   0  0  0  0  0  0  0  0  0  0  0  0
   23.5499  -27.9592  -15.5418 N   0  0  0  0  0  0  0  0  0  0  0  0
   22.3786  -25.9884  -14.9908 N   0  0  0  0  0  0  0  0  0  0  0  0
   21.2775  -25.1234  -15.3219 C   0  0  0  0  0  0  0  0  0  0  0  0
   21.8663  -23.7105  -15.4535 C   0  0  0  0  0  0  0  0  0  0  0  0
   21.7832  -23.1047  -14.0877 C   0  0  0  0  0  0  0  0  0  0  0  0
   22.4185  -21.7390  -14.0130 C   0  0  2  0  0  0  0  0  0  0  0  0
   23.8570  -21.9995  -13.7854 N   0  0  0  0  0  0  0  0  0  0  0  0
   21.8543  -21.0232  -12.8401 C   0  0  0  0  0  0  0  0  0  0  0  0
   21.9831  -21.3662  -11.6567 O   0  0  0  0  0  0  0  0  0  0  0  0
   21.1097  -19.8576  -13.0777 O   0  0  0  0  0  0  0  0  0  0  0  0
  2  1  1  0
  3  2  2  0
  4  2  1  0
  5  6  1  1
  5  4  1  0
  7  5  1  0
  8  7  2  0
  9 10  1  0
 10 20  2  0
 10 11  1  0
 11 12  2  0
 12 13  1  0
 13 14  1  0
 15 14  1  1
 15 16  1  0
 16  7  1  0
 17 29  1  0
 17 15  1  0
 18 17  2  0
 19 13  2  0
 20 19  1  0
 21 22  1  0
 22 24  1  0
 22 23  2  0
 24 25  1  0
 26 25  1  0
 27 26  1  0
 28 27  1  1
 28 29  1  0
 30 32  1  0
 30 28  1  0
 31 30  2  0
M  END
$$$$
