NYR.pdb
     RDKit          3D

 32 32  0  0  1  0  0  0  0  0999 V2000
   27.2446  -20.4642  -18.4852 N   0  0  0  0  0  0  0  0  0  0  0  0
   25.8567  -20.6294  -18.2846 C   0  0  0  0  0  0  0  0  0  0  0  0
   25.0505  -20.2615  -19.1673 O   0  0  0  0  0  0  0  0  0  0  0  0
   25.3338  -21.2328  -17.0435 C   0  0  0  0  0  0  0  0  0  0  0  0
   26.4665  -21.6050  -16.0882 C   0  0  2  0  0  0  0  0  0  0  0  0
   27.0424  -22.8343  -16.5357 N   0  0  0  0  0  0  0  0  0  0  0  0
   25.8827  -21.7481  -14.7011 C   0  0  0  0  0  0  0  0  0  0  0  0
   25.3070  -22.8090  -14.3624 O   0  0  0  0  0  0  0  0  0  0  0  0
   31.4768  -22.0954  -10.7701 O   0  0  0  0  0  0  0  0  0  0  0  0
   30.2150  -21.5342  -10.9824 C   0  0  0  0  0  0  0  0  0  0  0  0
   29.2144  -21.8956  -10.0731 C   0  0  0  0  0  0  0  0  0  0  0  0
   27.9444  -21.3564  -10.2527 C   0  0  0  0  0  0  0  0  0  0  0  0
   27.6584  -20.4921  -11.2861 C   0  0  0  0  0  0  0  0  0  0  0  0
   26.3063  -19.9329  -11.4581 C   0  0  0  0  0  0  0  0  0  0  0  0
   25.4683  -20.6632  -12.4402 C   0  0  2  0  0  0  0  0  0  0  0  0
   25.9793  -20.6839  -13.7666 N   0  0  0  0  0  0  0  0  0  0  0  0
   24.0603  -20.1477  -12.3319 C   0  0  0  0  0  0  0  0  0  0  0  0
   23.5997  -19.3306  -13.1617 O   0  0  0  0  0  0  0  0  0  0  0  0
   28.6616  -20.1525  -12.1673 C   0  0  0  0  0  0  0  0  0  0  0  0
   29.9518  -20.6726  -12.0218 C   0  0  0  0  0  0  0  0  0  0  0  0
   18.0145  -24.5925  -13.8009 N   0  0  0  0  0  0  0  0  0  0  0  0
   17.2894  -23.3841  -13.9394 C   0  0  0  0  0  0  0  0  0  0  0  0
   15.9980  -23.3765  -14.0504 N   0  0  0  0  0  0  0  0  0  0  0  0
   18.0178  -22.1638  -13.9533 N   0  0  0  0  0  0  0  0  0  0  0  0
   19.4432  -22.2114  -13.7635 C   0  0  0  0  0  0  0  0  0  0  0  0
   19.7511  -21.2725  -12.5871 C   0  0  0  0  0  0  0  0  0  0  0  0
   21.2404  -21.2760  -12.4409 C   0  0  0  0  0  0  0  0  0  0  0  0
   21.7282  -20.3102  -11.3904 C   0  0  2  0  0  0  0  0  0  0  0  0
   23.1839  -20.5558  -11.2931 N   0  0  0  0  0  0  0  0  0  0  0  0
   21.0812  -20.6563  -10.0990 C   0  0  0  0  0  0  0  0  0  0  0  0
   21.4719  -21.5260   -9.3080 O   0  0  0  0  0  0  0  0  0  0  0  0
   19.9283  -19.9459   -9.7306 O   0  0  0  0  0  0  0  0  0  0  0  0
  2  1  1  0
  3  2  2  0
  4  2  1  0
  5  6  1  6
  5  4  1  0
  7  5  1  0
  8  7  2  0
  9 10  1  0
 10 20  2  0
 10 11  1  0
 11 12  2  0
 12 13  1  0
 13 14  1  0
 15 14  1  1
 15 16  1  0
 16  7  1  0
 17 29  1  0
 17 15  1  0
 18 17  2  0
 19 13  2  0
 20 19  1  0
 21 22  1  0
 22 24  1  0
 22 23  2  0
 24 25  1  0
 26 25  1  0
 27 26  1  0
 28 27  1  6
 28 29  1  0
 30 32  1  0
 30 28  1  0
 31 30  2  0
M  END
$$$$
