NYR.pdb
     RDKit          3D

 32 32  0  0  1  0  0  0  0  0999 V2000
   28.8510  -17.4302  -15.7915 N   0  0  0  0  0  0  0  0  0  0  0  0
   27.7352  -18.0151  -16.4290 C   0  0  0  0  0  0  0  0  0  0  0  0
   27.2901  -17.5188  -17.4873 O   0  0  0  0  0  0  0  0  0  0  0  0
   27.0778  -19.2108  -15.8667 C   0  0  0  0  0  0  0  0  0  0  0  0
   27.7497  -19.6534  -14.5679 C   0  0  2  0  0  0  0  0  0  0  0  0
   28.9678  -20.3230  -14.9009 N   0  0  0  0  0  0  0  0  0  0  0  0
   26.8001  -20.5770  -13.8393 C   0  0  0  0  0  0  0  0  0  0  0  0
   26.8485  -21.8149  -14.0311 O   0  0  0  0  0  0  0  0  0  0  0  0
   28.0159  -20.8434   -6.6234 O   0  0  0  0  0  0  0  0  0  0  0  0
   27.1202  -20.6218   -7.6725 C   0  0  0  0  0  0  0  0  0  0  0  0
   26.9175  -21.6917   -8.5516 C   0  0  0  0  0  0  0  0  0  0  0  0
   26.0321  -21.5081   -9.6091 C   0  0  0  0  0  0  0  0  0  0  0  0
   25.3651  -20.3191   -9.8038 C   0  0  0  0  0  0  0  0  0  0  0  0
   24.4319  -20.1459  -10.9306 C   0  0  0  0  0  0  0  0  0  0  0  0
   24.8769  -20.7888  -12.1911 C   0  0  2  0  0  0  0  0  0  0  0  0
   25.8433  -20.0538  -12.9304 N   0  0  0  0  0  0  0  0  0  0  0  0
   23.6559  -21.1678  -12.9819 C   0  0  0  0  0  0  0  0  0  0  0  0
   22.9192  -20.2978  -13.5003 O   0  0  0  0  0  0  0  0  0  0  0  0
   25.5826  -19.2816   -8.9237 C   0  0  0  0  0  0  0  0  0  0  0  0
   26.4646  -19.4254   -7.8479 C   0  0  0  0  0  0  0  0  0  0  0  0
   20.3509  -29.1570  -14.3955 N   0  0  0  0  0  0  0  0  0  0  0  0
   19.4702  -28.3477  -15.1535 C   0  0  0  0  0  0  0  0  0  0  0  0
   18.4367  -28.8481  -15.7547 N   0  0  0  0  0  0  0  0  0  0  0  0
   19.7472  -26.9565  -15.2410 N   0  0  0  0  0  0  0  0  0  0  0  0
   20.8519  -26.4263  -14.4869 C   0  0  0  0  0  0  0  0  0  0  0  0
   20.8214  -24.9043  -14.6937 C   0  0  0  0  0  0  0  0  0  0  0  0
   21.9719  -24.3620  -13.9051 C   0  0  0  0  0  0  0  0  0  0  0  0
   22.0635  -22.8578  -13.9615 C   0  0  2  0  0  0  0  0  0  0  0  0
   23.2753  -22.5200  -13.1828 N   0  0  0  0  0  0  0  0  0  0  0  0
   20.8684  -22.2899  -13.2868 C   0  0  0  0  0  0  0  0  0  0  0  0
   20.7150  -22.1839  -12.0620 O   0  0  0  0  0  0  0  0  0  0  0  0
   19.8154  -21.8303  -14.0927 O   0  0  0  0  0  0  0  0  0  0  0  0
  2  1  1  0
  3  2  2  0
  4  2  1  0
  5  6  1  6
  5  4  1  0
  7  5  1  0
  8  7  2  0
  9 10  1  0
 10 20  2  0
 10 11  1  0
 11 12  2  0
 12 13  1  0
 13 14  1  0
 15 14  1  1
 15 16  1  0
 16  7  1  0
 17 29  1  0
 17 15  1  0
 18 17  2  0
 19 13  2  0
 20 19  1  0
 21 22  1  0
 22 24  1  0
 22 23  2  0
 24 25  1  0
 26 25  1  0
 27 26  1  0
 28 27  1  1
 28 29  1  0
 30 32  1  0
 30 28  1  0
 31 30  2  0
M  END
$$$$
