NYR.pdb
     RDKit          3D

 32 32  0  0  1  0  0  0  0  0999 V2000
   23.7512   -6.0752  -15.0256 N   0  0  0  0  0  0  0  0  0  0  0  0
   22.8374   -5.0762  -14.6249 C   0  0  0  0  0  0  0  0  0  0  0  0
   23.2548   -4.0319  -14.0775 O   0  0  0  0  0  0  0  0  0  0  0  0
   21.3868   -5.2411  -14.8408 C   0  0  0  0  0  0  0  0  0  0  0  0
   21.0786   -6.5576  -15.5522 C   0  0  2  0  0  0  0  0  0  0  0  0
   21.5402   -6.4551  -16.9011 N   0  0  0  0  0  0  0  0  0  0  0  0
   19.5840   -6.7796  -15.5016 C   0  0  0  0  0  0  0  0  0  0  0  0
   18.8442   -6.3186  -16.4026 O   0  0  0  0  0  0  0  0  0  0  0  0
   19.6433  -13.4889  -16.3302 O   0  0  0  0  0  0  0  0  0  0  0  0
   19.0112  -12.2607  -16.1203 C   0  0  0  0  0  0  0  0  0  0  0  0
   18.1622  -12.1816  -15.0105 C   0  0  0  0  0  0  0  0  0  0  0  0
   17.5149  -10.9738  -14.7693 C   0  0  0  0  0  0  0  0  0  0  0  0
   17.6894   -9.8774  -15.5842 C   0  0  0  0  0  0  0  0  0  0  0  0
   16.9937   -8.6079  -15.3108 C   0  0  0  0  0  0  0  0  0  0  0  0
   17.6203   -7.7904  -14.2436 C   0  0  2  0  0  0  0  0  0  0  0  0
   19.0012   -7.5120  -14.4342 N   0  0  0  0  0  0  0  0  0  0  0  0
   17.2977   -8.4212  -12.9178 C   0  0  0  0  0  0  0  0  0  0  0  0
   18.0899   -9.2186  -12.3654 O   0  0  0  0  0  0  0  0  0  0  0  0
   18.5307   -9.9820  -16.6702 C   0  0  0  0  0  0  0  0  0  0  0  0
   19.2002  -11.1782  -16.9475 C   0  0  0  0  0  0  0  0  0  0  0  0
   13.1864   -4.7143   -6.6405 N   0  0  0  0  0  0  0  0  0  0  0  0
   14.4270   -4.7800   -7.3198 C   0  0  0  0  0  0  0  0  0  0  0  0
   15.1232   -3.7148   -7.5661 N   0  0  0  0  0  0  0  0  0  0  0  0
   14.8990   -6.0562   -7.7303 N   0  0  0  0  0  0  0  0  0  0  0  0
   13.9365   -7.0565   -8.1086 C   0  0  0  0  0  0  0  0  0  0  0  0
   14.7375   -8.2062   -8.7385 C   0  0  0  0  0  0  0  0  0  0  0  0
   15.1527   -7.7208  -10.0919 C   0  0  0  0  0  0  0  0  0  0  0  0
   15.7976   -8.7976  -10.9280 C   0  0  2  0  0  0  0  0  0  0  0  0
   16.0890   -8.1496  -12.2257 N   0  0  0  0  0  0  0  0  0  0  0  0
   14.8096   -9.8880  -11.1309 C   0  0  0  0  0  0  0  0  0  0  0  0
   14.0710  -10.0164  -12.1172 O   0  0  0  0  0  0  0  0  0  0  0  0
   14.6920  -10.8629  -10.1283 O   0  0  0  0  0  0  0  0  0  0  0  0
  2  1  1  0
  3  2  2  0
  4  2  1  0
  5  6  1  6
  5  4  1  0
  7  5  1  0
  8  7  2  0
  9 10  1  0
 10 20  2  0
 10 11  1  0
 11 12  2  0
 12 13  1  0
 13 14  1  0
 15 14  1  6
 15 16  1  0
 16  7  1  0
 17 29  1  0
 17 15  1  0
 18 17  2  0
 19 13  2  0
 20 19  1  0
 21 22  1  0
 22 24  1  0
 22 23  2  0
 24 25  1  0
 26 25  1  0
 27 26  1  0
 28 27  1  1
 28 29  1  0
 30 32  1  0
 30 28  1  0
 31 30  2  0
M  END
$$$$
