KWP.pdb
     RDKit          3D

 31 33  0  0  1  0  0  0  0  0999 V2000
    8.3389  -16.1890   20.8504 N   0  0  0  0  0  0  0  0  0  0  0  0
    9.1602  -15.0347   21.0390 C   0  0  1  0  0  0  0  0  0  0  0  0
    8.7374  -13.8391   20.2221 C   0  0  0  0  0  0  0  0  0  0  0  0
    7.8101  -14.2284   19.1223 C   0  0  0  0  0  0  0  0  0  0  0  0
    8.5362  -14.8182   17.9306 C   0  0  0  0  0  0  0  0  0  0  0  0
    8.6770  -13.8271   16.7989 C   0  0  0  0  0  0  0  0  0  0  0  0
    9.4099  -14.5054   15.7349 N   0  0  0  0  0  0  0  0  0  0  0  0
    9.2687  -14.7351   22.4863 C   0  0  0  0  0  0  0  0  0  0  0  0
    9.7945  -13.6714   22.9153 O   0  0  0  0  0  0  0  0  0  0  0  0
    8.7650  -15.6774   23.4146 N   0  0  0  0  0  0  0  0  0  0  0  0
    8.8460  -15.3953   24.8405 C   0  0  1  0  0  0  0  0  0  0  0  0
    7.6606  -16.0019   25.5578 C   0  0  0  0  0  0  0  0  0  0  0  0
    6.6376  -14.9629   25.7528 C   0  0  0  0  0  0  0  0  0  0  0  0
    5.2967  -15.1788   25.9125 C   0  0  0  0  0  0  0  0  0  0  0  0
    4.6498  -14.0213   26.0732 N   0  0  0  0  0  0  0  0  0  0  0  0
    5.5657  -13.0401   26.0193 C   0  0  0  0  0  0  0  0  0  0  0  0
    5.4514  -11.6691   26.1252 C   0  0  0  0  0  0  0  0  0  0  0  0
    6.5531  -10.8474   26.0368 C   0  0  0  0  0  0  0  0  0  0  0  0
    7.7937  -11.4043   25.8387 C   0  0  0  0  0  0  0  0  0  0  0  0
    7.9158  -12.7686   25.7322 C   0  0  0  0  0  0  0  0  0  0  0  0
    6.8229  -13.5986   25.8190 C   0  0  0  0  0  0  0  0  0  0  0  0
   10.1502  -15.9214   25.3398 C   0  0  0  0  0  0  0  0  0  0  0  0
   10.9380  -16.4674   24.4941 O   0  0  0  0  0  0  0  0  0  0  0  0
   10.5459  -15.8421   26.6810 N   0  0  0  0  0  0  0  0  0  0  0  0
    9.8821  -15.2267   27.7831 C   0  0  0  0  0  0  0  0  0  0  0  0
   10.9769  -14.7637   28.7331 C   0  0  0  0  0  0  0  0  0  0  0  0
   12.2517  -15.2837   28.1254 C   0  0  0  0  0  0  0  0  0  0  0  0
   11.7776  -16.3968   27.2232 C   0  0  1  0  0  0  0  0  0  0  0  0
   11.4887  -17.5814   28.0367 C   0  0  0  0  0  0  0  0  0  0  0  0
   10.1732  -18.0452   28.2043 O   0  0  0  0  0  0  0  0  0  0  0  0
   12.3715  -18.2444   28.6233 O   0  0  0  0  0  0  0  0  0  0  0  0
  2  1  1  1
  3  4  1  0
  3  2  1  0
  5  6  1  0
  5  4  1  0
  7  6  1  0
  8  2  1  0
  8  9  2  0
 10  8  1  0
 11 10  1  0
 11 12  1  1
 13 12  1  0
 14 13  2  0
 15 14  1  0
 16 15  1  0
 16 21  2  0
 17 16  1  0
 18 17  2  0
 18 19  1  0
 19 20  2  0
 20 21  1  0
 21 13  1  0
 22 11  1  0
 23 22  2  0
 24 25  1  0
 24 22  1  0
 26 27  1  0
 26 25  1  0
 27 28  1  0
 28 24  1  0
 28 29  1  1
 29 30  1  0
 31 29  2  0
M  END
$$$$
