KWP.pdb
     RDKit          3D

 31 33  0  0  1  0  0  0  0  0999 V2000
    9.7244  -16.3669   20.3179 N   0  0  0  0  0  0  0  0  0  0  0  0
   10.4525  -16.9857   21.3808 C   0  0  1  0  0  0  0  0  0  0  0  0
   11.9178  -17.1887   21.0856 C   0  0  0  0  0  0  0  0  0  0  0  0
   12.1205  -17.9538   19.8228 C   0  0  0  0  0  0  0  0  0  0  0  0
   13.5733  -18.3130   19.5871 C   0  0  0  0  0  0  0  0  0  0  0  0
   13.7848  -18.9961   18.2561 C   0  0  0  0  0  0  0  0  0  0  0  0
   15.2237  -19.1859   18.1050 N   0  0  0  0  0  0  0  0  0  0  0  0
   10.2156  -16.2432   22.6413 C   0  0  0  0  0  0  0  0  0  0  0  0
   10.6019  -15.0531   22.8035 O   0  0  0  0  0  0  0  0  0  0  0  0
    9.5337  -16.8957   23.6960 N   0  0  0  0  0  0  0  0  0  0  0  0
    9.3369  -16.2033   24.9614 C   0  0  1  0  0  0  0  0  0  0  0  0
    7.9011  -16.3481   25.4146 C   0  0  0  0  0  0  0  0  0  0  0  0
    7.1301  -15.1907   24.9350 C   0  0  0  0  0  0  0  0  0  0  0  0
    6.4278  -15.1260   23.7632 C   0  0  0  0  0  0  0  0  0  0  0  0
    5.8361  -13.9354   23.6347 N   0  0  0  0  0  0  0  0  0  0  0  0
    6.1488  -13.2135   24.7237 C   0  0  0  0  0  0  0  0  0  0  0  0
    5.8103  -11.9313   25.1048 C   0  0  0  0  0  0  0  0  0  0  0  0
    6.2579  -11.3925   26.2905 C   0  0  0  0  0  0  0  0  0  0  0  0
    7.0595  -12.1478   27.1126 C   0  0  0  0  0  0  0  0  0  0  0  0
    7.4010  -13.4253   26.7401 C   0  0  0  0  0  0  0  0  0  0  0  0
    6.9597  -13.9735   25.5587 C   0  0  0  0  0  0  0  0  0  0  0  0
   10.3092  -16.7610   25.9466 C   0  0  0  0  0  0  0  0  0  0  0  0
   11.0717  -17.7120   25.5617 O   0  0  0  0  0  0  0  0  0  0  0  0
   10.4232  -16.2914   27.2612 N   0  0  0  0  0  0  0  0  0  0  0  0
    9.6227  -15.3328   27.9499 C   0  0  0  0  0  0  0  0  0  0  0  0
   10.5428  -14.6551   28.9547 C   0  0  0  0  0  0  0  0  0  0  0  0
   11.8447  -15.4013   28.8407 C   0  0  0  0  0  0  0  0  0  0  0  0
   11.4394  -16.7132   28.2142 C   0  0  1  0  0  0  0  0  0  0  0  0
   10.8477  -17.5721   29.2440 C   0  0  0  0  0  0  0  0  0  0  0  0
   11.6463  -18.1993   30.2148 O   0  0  0  0  0  0  0  0  0  0  0  0
    9.6213  -17.8003   29.3273 O   0  0  0  0  0  0  0  0  0  0  0  0
  2  1  1  6
  3  4  1  0
  3  2  1  0
  5  6  1  0
  5  4  1  0
  7  6  1  0
  8  2  1  0
  8  9  2  0
 10  8  1  0
 11 10  1  0
 11 12  1  1
 13 12  1  0
 14 13  2  0
 15 14  1  0
 16 15  1  0
 16 21  2  0
 17 16  1  0
 18 17  2  0
 18 19  1  0
 19 20  2  0
 20 21  1  0
 21 13  1  0
 22 11  1  0
 23 22  2  0
 24 25  1  0
 24 22  1  0
 26 27  1  0
 26 25  1  0
 27 28  1  0
 28 24  1  0
 28 29  1  1
 29 30  1  0
 31 29  2  0
M  END
$$$$
