KWP.pdb
     RDKit          3D

 31 33  0  0  1  0  0  0  0  0999 V2000
    5.2076  -20.9101   23.3258 N   0  0  0  0  0  0  0  0  0  0  0  0
    5.9484  -20.1828   22.3435 C   0  0  1  0  0  0  0  0  0  0  0  0
    5.4657  -20.3923   20.9298 C   0  0  0  0  0  0  0  0  0  0  0  0
    5.5143  -21.8306   20.5426 C   0  0  0  0  0  0  0  0  0  0  0  0
    4.9570  -22.0790   19.1560 C   0  0  0  0  0  0  0  0  0  0  0  0
    5.0358  -23.5350   18.7603 C   0  0  0  0  0  0  0  0  0  0  0  0
    3.6679  -24.0429   18.7517 N   0  0  0  0  0  0  0  0  0  0  0  0
    6.0077  -18.7525   22.7267 C   0  0  0  0  0  0  0  0  0  0  0  0
    5.2227  -17.8929   22.2401 O   0  0  0  0  0  0  0  0  0  0  0  0
    6.9799  -18.3417   23.6697 N   0  0  0  0  0  0  0  0  0  0  0  0
    7.2875  -16.9262   23.8144 C   0  0  1  0  0  0  0  0  0  0  0  0
    7.7191  -16.6311   25.2337 C   0  0  0  0  0  0  0  0  0  0  0  0
    7.0161  -15.4285   25.7063 C   0  0  0  0  0  0  0  0  0  0  0  0
    5.6711  -15.3229   25.9304 C   0  0  0  0  0  0  0  0  0  0  0  0
    5.3609  -14.0973   26.3615 N   0  0  0  0  0  0  0  0  0  0  0  0
    6.5034  -13.3932   26.4217 C   0  0  0  0  0  0  0  0  0  0  0  0
    6.7617  -12.0906   26.7966 C   0  0  0  0  0  0  0  0  0  0  0  0
    8.0396  -11.5775   26.7775 C   0  0  0  0  0  0  0  0  0  0  0  0
    9.0808  -12.3797   26.3763 C   0  0  0  0  0  0  0  0  0  0  0  0
    8.8318  -13.6778   26.0015 C   0  0  0  0  0  0  0  0  0  0  0  0
    7.5600  -14.2006   26.0167 C   0  0  0  0  0  0  0  0  0  0  0  0
    8.3363  -16.5788   22.8112 C   0  0  0  0  0  0  0  0  0  0  0  0
    9.1100  -17.5127   22.4070 O   0  0  0  0  0  0  0  0  0  0  0  0
    8.5073  -15.2874   22.2966 N   0  0  0  0  0  0  0  0  0  0  0  0
    7.8983  -14.0646   22.7062 C   0  0  0  0  0  0  0  0  0  0  0  0
    7.8038  -13.1988   21.4585 C   0  0  0  0  0  0  0  0  0  0  0  0
    8.5136  -13.9898   20.3930 C   0  0  0  0  0  0  0  0  0  0  0  0
    9.3793  -14.9397   21.1842 C   0  0  1  0  0  0  0  0  0  0  0  0
   10.5607  -14.2195   21.6682 C   0  0  0  0  0  0  0  0  0  0  0  0
   11.6159  -13.8884   20.8019 O   0  0  0  0  0  0  0  0  0  0  0  0
   10.7070  -13.8590   22.8563 O   0  0  0  0  0  0  0  0  0  0  0  0
  2  1  1  1
  3  4  1  0
  3  2  1  0
  5  6  1  0
  5  4  1  0
  7  6  1  0
  8  2  1  0
  8  9  2  0
 10  8  1  0
 11 10  1  0
 11 12  1  1
 13 12  1  0
 14 13  2  0
 15 14  1  0
 16 15  1  0
 16 21  2  0
 17 16  1  0
 18 17  2  0
 18 19  1  0
 19 20  2  0
 20 21  1  0
 21 13  1  0
 22 11  1  0
 23 22  2  0
 24 25  1  0
 24 22  1  0
 26 27  1  0
 26 25  1  0
 27 28  1  0
 28 24  1  0
 28 29  1  1
 29 30  1  0
 31 29  2  0
M  END
$$$$
