KWP.pdb
     RDKit          3D

 31 33  0  0  1  0  0  0  0  0999 V2000
    4.3938  -19.0870   21.1195 N   0  0  0  0  0  0  0  0  0  0  0  0
    5.6514  -19.4936   21.6633 C   0  0  1  0  0  0  0  0  0  0  0  0
    6.4454  -20.4053   20.7611 C   0  0  0  0  0  0  0  0  0  0  0  0
    6.4201  -21.8138   21.2474 C   0  0  0  0  0  0  0  0  0  0  0  0
    5.5818  -22.7181   20.3672 C   0  0  0  0  0  0  0  0  0  0  0  0
    5.6051  -24.1542   20.8363 C   0  0  0  0  0  0  0  0  0  0  0  0
    4.8777  -24.9337   19.8400 N   0  0  0  0  0  0  0  0  0  0  0  0
    6.4154  -18.2984   22.0921 C   0  0  0  0  0  0  0  0  0  0  0  0
    6.5357  -17.2785   21.3590 O   0  0  0  0  0  0  0  0  0  0  0  0
    7.0296  -18.3063   23.3671 N   0  0  0  0  0  0  0  0  0  0  0  0
    7.8620  -17.1822   23.7709 C   0  0  1  0  0  0  0  0  0  0  0  0
    7.8141  -17.0140   25.2732 C   0  0  0  0  0  0  0  0  0  0  0  0
    7.0317  -15.8103   25.5942 C   0  0  0  0  0  0  0  0  0  0  0  0
    5.6704  -15.7468   25.7090 C   0  0  0  0  0  0  0  0  0  0  0  0
    5.2817  -14.5062   26.0159 N   0  0  0  0  0  0  0  0  0  0  0  0
    6.3887  -13.7502   26.1036 C   0  0  0  0  0  0  0  0  0  0  0  0
    6.5678  -12.4124   26.3906 C   0  0  0  0  0  0  0  0  0  0  0  0
    7.8230  -11.8469   26.4249 C   0  0  0  0  0  0  0  0  0  0  0  0
    8.9217  -12.6313   26.1677 C   0  0  0  0  0  0  0  0  0  0  0  0
    8.7517  -13.9642   25.8811 C   0  0  0  0  0  0  0  0  0  0  0  0
    7.5032  -14.5395   25.8442 C   0  0  0  0  0  0  0  0  0  0  0  0
    9.2439  -17.4282   23.2641 C   0  0  0  0  0  0  0  0  0  0  0  0
    9.6417  -18.6398   23.1759 O   0  0  0  0  0  0  0  0  0  0  0  0
   10.1151  -16.3999   22.8829 N   0  0  0  0  0  0  0  0  0  0  0  0
    9.9321  -14.9875   22.9584 C   0  0  0  0  0  0  0  0  0  0  0  0
   10.7295  -14.3942   21.8062 C   0  0  0  0  0  0  0  0  0  0  0  0
   11.4447  -15.5688   21.1949 C   0  0  0  0  0  0  0  0  0  0  0  0
   11.4350  -16.5953   22.3012 C   0  0  1  0  0  0  0  0  0  0  0  0
   12.4767  -16.2580   23.2756 C   0  0  0  0  0  0  0  0  0  0  0  0
   13.8325  -16.5096   23.0071 O   0  0  0  0  0  0  0  0  0  0  0  0
   12.2364  -15.7357   24.3858 O   0  0  0  0  0  0  0  0  0  0  0  0
  2  1  1  6
  3  4  1  0
  3  2  1  0
  5  6  1  0
  5  4  1  0
  7  6  1  0
  8  2  1  0
  8  9  2  0
 10  8  1  0
 11 10  1  0
 11 12  1  1
 13 12  1  0
 14 13  2  0
 15 14  1  0
 16 15  1  0
 16 21  2  0
 17 16  1  0
 18 17  2  0
 18 19  1  0
 19 20  2  0
 20 21  1  0
 21 13  1  0
 22 11  1  0
 23 22  2  0
 24 25  1  0
 24 22  1  0
 26 27  1  0
 26 25  1  0
 27 28  1  0
 28 24  1  0
 28 29  1  1
 29 30  1  0
 31 29  2  0
M  END
$$$$
