KWP.pdb
     RDKit          3D

 31 33  0  0  1  0  0  0  0  0999 V2000
    8.5946  -16.6873   21.3497 N   0  0  0  0  0  0  0  0  0  0  0  0
    9.5234  -15.6099   21.4883 C   0  0  1  0  0  0  0  0  0  0  0  0
    9.2345  -14.4303   20.5936 C   0  0  0  0  0  0  0  0  0  0  0  0
    8.6604  -14.8617   19.2877 C   0  0  0  0  0  0  0  0  0  0  0  0
    8.8828  -13.8424   18.1892 C   0  0  0  0  0  0  0  0  0  0  0  0
    8.2807  -14.2785   16.8739 C   0  0  0  0  0  0  0  0  0  0  0  0
    8.4433  -13.1635   15.9468 N   0  0  0  0  0  0  0  0  0  0  0  0
    9.6377  -15.2353   22.9175 C   0  0  0  0  0  0  0  0  0  0  0  0
   10.2508  -14.1989   23.2941 O   0  0  0  0  0  0  0  0  0  0  0  0
    9.0383  -16.0721   23.8890 N   0  0  0  0  0  0  0  0  0  0  0  0
    9.0922  -15.6949   25.2941 C   0  0  1  0  0  0  0  0  0  0  0  0
    7.8268  -16.1321   25.9979 C   0  0  0  0  0  0  0  0  0  0  0  0
    6.7835  -15.1186   25.7776 C   0  0  0  0  0  0  0  0  0  0  0  0
    5.5230  -15.3565   25.3036 C   0  0  0  0  0  0  0  0  0  0  0  0
    4.8260  -14.2194   25.2293 N   0  0  0  0  0  0  0  0  0  0  0  0
    5.6285  -13.2297   25.6551 C   0  0  0  0  0  0  0  0  0  0  0  0
    5.4231  -11.8714   25.7849 C   0  0  0  0  0  0  0  0  0  0  0  0
    6.4133  -11.0368   26.2534 C   0  0  0  0  0  0  0  0  0  0  0  0
    7.6329  -11.5675   26.5992 C   0  0  0  0  0  0  0  0  0  0  0  0
    7.8452  -12.9190   26.4728 C   0  0  0  0  0  0  0  0  0  0  0  0
    6.8638  -13.7618   26.0063 C   0  0  0  0  0  0  0  0  0  0  0  0
   10.3189  -16.3040   25.8868 C   0  0  0  0  0  0  0  0  0  0  0  0
   11.1187  -16.9208   25.1034 O   0  0  0  0  0  0  0  0  0  0  0  0
   10.6302  -16.2285   27.2503 N   0  0  0  0  0  0  0  0  0  0  0  0
    9.8666  -15.6772   28.3213 C   0  0  0  0  0  0  0  0  0  0  0  0
   10.8736  -15.1684   29.3424 C   0  0  0  0  0  0  0  0  0  0  0  0
   12.2112  -15.5976   28.8027 C   0  0  0  0  0  0  0  0  0  0  0  0
   11.8601  -16.7186   27.8552 C   0  0  1  0  0  0  0  0  0  0  0  0
   11.5979  -17.9349   28.6300 C   0  0  0  0  0  0  0  0  0  0  0  0
   10.3144  -18.5042   28.6776 O   0  0  0  0  0  0  0  0  0  0  0  0
   12.4769  -18.5350   29.2858 O   0  0  0  0  0  0  0  0  0  0  0  0
  2  1  1  1
  3  4  1  0
  3  2  1  0
  5  6  1  0
  5  4  1  0
  7  6  1  0
  8  2  1  0
  8  9  2  0
 10  8  1  0
 11 10  1  0
 11 12  1  1
 13 12  1  0
 14 13  2  0
 15 14  1  0
 16 15  1  0
 16 21  2  0
 17 16  1  0
 18 17  2  0
 18 19  1  0
 19 20  2  0
 20 21  1  0
 21 13  1  0
 22 11  1  0
 23 22  2  0
 24 25  1  0
 24 22  1  0
 26 27  1  0
 26 25  1  0
 27 28  1  0
 28 24  1  0
 28 29  1  1
 29 30  1  0
 31 29  2  0
M  END
$$$$
