KWP.pdb
     RDKit          3D

 31 33  0  0  1  0  0  0  0  0999 V2000
   10.7398  -18.1788   20.6177 N   0  0  0  0  0  0  0  0  0  0  0  0
   11.3544  -16.8887   20.6435 C   0  0  1  0  0  0  0  0  0  0  0  0
   11.3738  -16.1902   19.3066 C   0  0  0  0  0  0  0  0  0  0  0  0
   11.1396  -17.1453   18.1868 C   0  0  0  0  0  0  0  0  0  0  0  0
   12.4288  -17.7006   17.6167 C   0  0  0  0  0  0  0  0  0  0  0  0
   12.1810  -18.7162   16.5259 C   0  0  0  0  0  0  0  0  0  0  0  0
   13.4820  -19.2670   16.1609 N   0  0  0  0  0  0  0  0  0  0  0  0
   10.7398  -16.0685   21.7138 C   0  0  0  0  0  0  0  0  0  0  0  0
   11.0071  -14.8441   21.8601 O   0  0  0  0  0  0  0  0  0  0  0  0
    9.8237  -16.6841   22.5998 N   0  0  0  0  0  0  0  0  0  0  0  0
    9.2711  -15.9188   23.7081 C   0  0  1  0  0  0  0  0  0  0  0  0
    7.7622  -15.8806   23.6113 C   0  0  0  0  0  0  0  0  0  0  0  0
    7.2245  -15.2023   24.8008 C   0  0  0  0  0  0  0  0  0  0  0  0
    6.7324  -15.8165   25.9193 C   0  0  0  0  0  0  0  0  0  0  0  0
    6.3308  -14.9107   26.8151 N   0  0  0  0  0  0  0  0  0  0  0  0
    6.5583  -13.6968   26.2863 C   0  0  0  0  0  0  0  0  0  0  0  0
    6.3357  -12.4254   26.7740 C   0  0  0  0  0  0  0  0  0  0  0  0
    6.6562  -11.3070   26.0371 C   0  0  0  0  0  0  0  0  0  0  0  0
    7.2098  -11.4598   24.7885 C   0  0  0  0  0  0  0  0  0  0  0  0
    7.4346  -12.7225   24.2959 C   0  0  0  0  0  0  0  0  0  0  0  0
    7.1186  -13.8461   25.0229 C   0  0  0  0  0  0  0  0  0  0  0  0
    9.7497  -16.5386   24.9785 C   0  0  0  0  0  0  0  0  0  0  0  0
   10.1593  -17.7487   24.9364 O   0  0  0  0  0  0  0  0  0  0  0  0
    9.7714  -15.8585   26.2027 N   0  0  0  0  0  0  0  0  0  0  0  0
    9.0594  -14.6874   26.5975 C   0  0  0  0  0  0  0  0  0  0  0  0
    9.9433  -13.9748   27.6106 C   0  0  0  0  0  0  0  0  0  0  0  0
   11.1075  -14.9052   27.8194 C   0  0  0  0  0  0  0  0  0  0  0  0
   10.5739  -16.2387   27.3560 C   0  0  1  0  0  0  0  0  0  0  0  0
    9.7218  -16.8039   28.4062 C   0  0  0  0  0  0  0  0  0  0  0  0
   10.2690  -17.2758   29.6111 O   0  0  0  0  0  0  0  0  0  0  0  0
    8.4797  -16.9025   28.3047 O   0  0  0  0  0  0  0  0  0  0  0  0
  2  1  1  6
  3  4  1  0
  3  2  1  0
  5  6  1  0
  5  4  1  0
  7  6  1  0
  8  2  1  0
  8  9  2  0
 10  8  1  0
 11 10  1  0
 11 12  1  1
 13 12  1  0
 14 13  2  0
 15 14  1  0
 16 15  1  0
 16 21  2  0
 17 16  1  0
 18 17  2  0
 18 19  1  0
 19 20  2  0
 20 21  1  0
 21 13  1  0
 22 11  1  0
 23 22  2  0
 24 25  1  0
 24 22  1  0
 26 27  1  0
 26 25  1  0
 27 28  1  0
 28 24  1  0
 28 29  1  1
 29 30  1  0
 31 29  2  0
M  END
$$$$
