KWP.pdb
     RDKit          3D

 31 33  0  0  1  0  0  0  0  0999 V2000
    8.7873  -17.5824   21.2315 N   0  0  0  0  0  0  0  0  0  0  0  0
   10.0387  -16.9828   21.5737 C   0  0  1  0  0  0  0  0  0  0  0  0
   10.6605  -16.1788   20.4590 C   0  0  0  0  0  0  0  0  0  0  0  0
   12.1468  -16.2874   20.4694 C   0  0  0  0  0  0  0  0  0  0  0  0
   12.6724  -17.1831   19.3664 C   0  0  0  0  0  0  0  0  0  0  0  0
   14.1763  -17.3220   19.4103 C   0  0  0  0  0  0  0  0  0  0  0  0
   14.5588  -18.1207   18.2506 N   0  0  0  0  0  0  0  0  0  0  0  0
    9.8905  -16.2094   22.8291 C   0  0  0  0  0  0  0  0  0  0  0  0
   10.2865  -15.0161   22.9346 O   0  0  0  0  0  0  0  0  0  0  0  0
    9.2847  -16.8352   23.9448 N   0  0  0  0  0  0  0  0  0  0  0  0
    9.2115  -16.1264   25.2143 C   0  0  1  0  0  0  0  0  0  0  0  0
    7.8988  -16.4279   25.9024 C   0  0  0  0  0  0  0  0  0  0  0  0
    6.8910  -15.4536   25.4561 C   0  0  0  0  0  0  0  0  0  0  0  0
    5.7159  -15.7500   24.8225 C   0  0  0  0  0  0  0  0  0  0  0  0
    5.0282  -14.6350   24.5615 N   0  0  0  0  0  0  0  0  0  0  0  0
    5.7512  -13.6014   25.0237 C   0  0  0  0  0  0  0  0  0  0  0  0
    5.5179  -12.2414   25.0190 C   0  0  0  0  0  0  0  0  0  0  0  0
    6.4216  -11.3557   25.5625 C   0  0  0  0  0  0  0  0  0  0  0  0
    7.5814  -11.8360   26.1218 C   0  0  0  0  0  0  0  0  0  0  0  0
    7.8209  -13.1888   26.1304 C   0  0  0  0  0  0  0  0  0  0  0  0
    6.9257  -14.0823   25.5908 C   0  0  0  0  0  0  0  0  0  0  0  0
   10.3940  -16.5257   26.0325 C   0  0  0  0  0  0  0  0  0  0  0  0
   11.2819  -17.2616   25.4809 O   0  0  0  0  0  0  0  0  0  0  0  0
   10.5728  -16.1319   27.3646 N   0  0  0  0  0  0  0  0  0  0  0  0
    9.7386  -15.3158   28.1843 C   0  0  0  0  0  0  0  0  0  0  0  0
   10.6662  -14.6049   29.1588 C   0  0  0  0  0  0  0  0  0  0  0  0
   12.0251  -15.1910   28.8855 C   0  0  0  0  0  0  0  0  0  0  0  0
   11.7084  -16.4971   28.1988 C   0  0  1  0  0  0  0  0  0  0  0  0
   11.3048  -17.4817   29.2069 C   0  0  0  0  0  0  0  0  0  0  0  0
   10.0118  -18.0310   29.2100 O   0  0  0  0  0  0  0  0  0  0  0  0
   12.0649  -17.8905   30.1114 O   0  0  0  0  0  0  0  0  0  0  0  0
  2  1  1  6
  3  4  1  0
  3  2  1  0
  5  6  1  0
  5  4  1  0
  7  6  1  0
  8  2  1  0
  8  9  2  0
 10  8  1  0
 11 10  1  0
 11 12  1  1
 13 12  1  0
 14 13  2  0
 15 14  1  0
 16 15  1  0
 16 21  2  0
 17 16  1  0
 18 17  2  0
 18 19  1  0
 19 20  2  0
 20 21  1  0
 21 13  1  0
 22 11  1  0
 23 22  2  0
 24 25  1  0
 24 22  1  0
 26 27  1  0
 26 25  1  0
 27 28  1  0
 28 24  1  0
 28 29  1  1
 29 30  1  0
 31 29  2  0
M  END
$$$$
