KWP.pdb
     RDKit          3D

 31 33  0  0  1  0  0  0  0  0999 V2000
    4.4320  -19.2835   21.1708 N   0  0  0  0  0  0  0  0  0  0  0  0
    5.1300  -19.5505   22.3890 C   0  0  1  0  0  0  0  0  0  0  0  0
    5.9007  -20.8473   22.3845 C   0  0  0  0  0  0  0  0  0  0  0  0
    6.8859  -20.8942   21.2673 C   0  0  0  0  0  0  0  0  0  0  0  0
    7.5595  -22.2454   21.1419 C   0  0  0  0  0  0  0  0  0  0  0  0
    8.5096  -22.3041   19.9687 C   0  0  0  0  0  0  0  0  0  0  0  0
    9.1160  -23.6313   19.9848 N   0  0  0  0  0  0  0  0  0  0  0  0
    5.9691  -18.3822   22.7454 C   0  0  0  0  0  0  0  0  0  0  0  0
    6.5149  -17.6545   21.8710 O   0  0  0  0  0  0  0  0  0  0  0  0
    6.1626  -18.0771   24.1139 N   0  0  0  0  0  0  0  0  0  0  0  0
    6.9235  -16.8929   24.4855 C   0  0  1  0  0  0  0  0  0  0  0  0
    6.7330  -16.5937   25.9558 C   0  0  0  0  0  0  0  0  0  0  0  0
    7.5190  -15.4004   26.3059 C   0  0  0  0  0  0  0  0  0  0  0  0
    8.8519  -15.3803   26.6109 C   0  0  0  0  0  0  0  0  0  0  0  0
    9.2553  -14.1345   26.8747 N   0  0  0  0  0  0  0  0  0  0  0  0
    8.1863  -13.3316   26.7435 C   0  0  0  0  0  0  0  0  0  0  0  0
    8.0360  -11.9686   26.8978 C   0  0  0  0  0  0  0  0  0  0  0  0
    6.8185  -11.3540   26.7066 C   0  0  0  0  0  0  0  0  0  0  0  0
    5.7290  -12.1140   26.3546 C   0  0  0  0  0  0  0  0  0  0  0  0
    5.8705  -13.4717   26.1991 C   0  0  0  0  0  0  0  0  0  0  0  0
    7.0812  -14.0960   26.3873 C   0  0  0  0  0  0  0  0  0  0  0  0
    8.3524  -17.1340   24.1287 C   0  0  0  0  0  0  0  0  0  0  0  0
    8.8345  -18.2980   24.3446 O   0  0  0  0  0  0  0  0  0  0  0  0
    9.1798  -16.1509   23.5714 N   0  0  0  0  0  0  0  0  0  0  0  0
    8.9889  -14.7389   23.5102 C   0  0  0  0  0  0  0  0  0  0  0  0
    9.6860  -14.2710   22.2412 C   0  0  0  0  0  0  0  0  0  0  0  0
   10.3625  -15.5031   21.7034 C   0  0  0  0  0  0  0  0  0  0  0  0
   10.4513  -16.4052   22.9101 C   0  0  1  0  0  0  0  0  0  0  0  0
   11.5636  -15.9636   23.7564 C   0  0  0  0  0  0  0  0  0  0  0  0
   11.3378  -15.4472   25.0432 O   0  0  0  0  0  0  0  0  0  0  0  0
   12.7609  -16.0147   23.4000 O   0  0  0  0  0  0  0  0  0  0  0  0
  2  1  1  6
  3  4  1  0
  3  2  1  0
  5  6  1  0
  5  4  1  0
  7  6  1  0
  8  2  1  0
  8  9  2  0
 10  8  1  0
 11 10  1  0
 11 12  1  1
 13 12  1  0
 14 13  2  0
 15 14  1  0
 16 15  1  0
 16 21  2  0
 17 16  1  0
 18 17  2  0
 18 19  1  0
 19 20  2  0
 20 21  1  0
 21 13  1  0
 22 11  1  0
 23 22  2  0
 24 25  1  0
 24 22  1  0
 26 27  1  0
 26 25  1  0
 27 28  1  0
 28 24  1  0
 28 29  1  1
 29 30  1  0
 31 29  2  0
M  END
$$$$
