KWP.pdb
     RDKit          3D

 31 33  0  0  1  0  0  0  0  0999 V2000
    4.5888  -21.0994   23.0333 N   0  0  0  0  0  0  0  0  0  0  0  0
    5.9464  -20.6655   23.1405 C   0  0  1  0  0  0  0  0  0  0  0  0
    6.8294  -21.1231   22.0063 C   0  0  0  0  0  0  0  0  0  0  0  0
    7.3412  -22.5041   22.2345 C   0  0  0  0  0  0  0  0  0  0  0  0
    8.2325  -22.9876   21.1089 C   0  0  0  0  0  0  0  0  0  0  0  0
    8.6744  -24.4192   21.3040 C   0  0  0  0  0  0  0  0  0  0  0  0
    9.6293  -24.7131   20.2404 N   0  0  0  0  0  0  0  0  0  0  0  0
    5.9828  -19.1980   23.3437 C   0  0  0  0  0  0  0  0  0  0  0  0
    5.4625  -18.3925   22.5237 O   0  0  0  0  0  0  0  0  0  0  0  0
    6.6247  -18.6878   24.4972 N   0  0  0  0  0  0  0  0  0  0  0  0
    6.8818  -17.2588   24.6039 C   0  0  1  0  0  0  0  0  0  0  0  0
    6.9865  -16.8572   26.0583 C   0  0  0  0  0  0  0  0  0  0  0  0
    6.6026  -15.4434   26.1921 C   0  0  0  0  0  0  0  0  0  0  0  0
    5.3330  -14.9451   26.0919 C   0  0  0  0  0  0  0  0  0  0  0  0
    5.3318  -13.6214   26.2707 N   0  0  0  0  0  0  0  0  0  0  0  0
    6.6031  -13.2459   26.4891 C   0  0  0  0  0  0  0  0  0  0  0  0
    7.1680  -12.0105   26.7308 C   0  0  0  0  0  0  0  0  0  0  0  0
    8.5232  -11.8667   26.9291 C   0  0  0  0  0  0  0  0  0  0  0  0
    9.3313  -12.9775   26.8854 C   0  0  0  0  0  0  0  0  0  0  0  0
    8.7763  -14.2112   26.6453 C   0  0  0  0  0  0  0  0  0  0  0  0
    7.4246  -14.3665   26.4459 C   0  0  0  0  0  0  0  0  0  0  0  0
    8.1238  -16.9565   23.8337 C   0  0  0  0  0  0  0  0  0  0  0  0
    9.0068  -17.8757   23.7379 O   0  0  0  0  0  0  0  0  0  0  0  0
    8.3612  -15.7223   23.2155 N   0  0  0  0  0  0  0  0  0  0  0  0
    7.7198  -14.4668   23.4306 C   0  0  0  0  0  0  0  0  0  0  0  0
    7.7720  -13.7301   22.1002 C   0  0  0  0  0  0  0  0  0  0  0  0
    8.5902  -14.6210   21.2049 C   0  0  0  0  0  0  0  0  0  0  0  0
    9.3547  -15.4843   22.1786 C   0  0  1  0  0  0  0  0  0  0  0  0
   10.4801  -14.7153   22.7177 C   0  0  0  0  0  0  0  0  0  0  0  0
   11.6170  -14.4462   21.9374 O   0  0  0  0  0  0  0  0  0  0  0  0
   10.5054  -14.2572   23.8806 O   0  0  0  0  0  0  0  0  0  0  0  0
  2  1  1  6
  3  4  1  0
  3  2  1  0
  5  6  1  0
  5  4  1  0
  7  6  1  0
  8  2  1  0
  8  9  2  0
 10  8  1  0
 11 10  1  0
 11 12  1  1
 13 12  1  0
 14 13  2  0
 15 14  1  0
 16 15  1  0
 16 21  2  0
 17 16  1  0
 18 17  2  0
 18 19  1  0
 19 20  2  0
 20 21  1  0
 21 13  1  0
 22 11  1  0
 23 22  2  0
 24 25  1  0
 24 22  1  0
 26 27  1  0
 26 25  1  0
 27 28  1  0
 28 24  1  0
 28 29  1  1
 29 30  1  0
 31 29  2  0
M  END
$$$$
