KWP.pdb
     RDKit          3D

 31 33  0  0  1  0  0  0  0  0999 V2000
    8.5004  -16.1107   20.4740 N   0  0  0  0  0  0  0  0  0  0  0  0
    9.0660  -14.8242   20.7337 C   0  0  1  0  0  0  0  0  0  0  0  0
    8.3595  -13.6895   20.0345 C   0  0  0  0  0  0  0  0  0  0  0  0
    7.9442  -14.0709   18.6550 C   0  0  0  0  0  0  0  0  0  0  0  0
    9.0782  -13.9656   17.6559 C   0  0  0  0  0  0  0  0  0  0  0  0
    8.6962  -14.5069   16.2981 C   0  0  0  0  0  0  0  0  0  0  0  0
    9.9002  -14.4645   15.4747 N   0  0  0  0  0  0  0  0  0  0  0  0
    9.1788  -14.6189   22.1970 C   0  0  0  0  0  0  0  0  0  0  0  0
    9.7824  -13.6279   22.6925 O   0  0  0  0  0  0  0  0  0  0  0  0
    8.5889  -15.5697   23.0637 N   0  0  0  0  0  0  0  0  0  0  0  0
    8.6229  -15.3492   24.5023 C   0  0  1  0  0  0  0  0  0  0  0  0
    7.4403  -16.0255   25.1593 C   0  0  0  0  0  0  0  0  0  0  0  0
    6.5617  -14.9963   25.7363 C   0  0  0  0  0  0  0  0  0  0  0  0
    5.3640  -15.2217   26.3568 C   0  0  0  0  0  0  0  0  0  0  0  0
    4.8254  -14.0718   26.7713 N   0  0  0  0  0  0  0  0  0  0  0  0
    5.6693  -13.0862   26.4234 C   0  0  0  0  0  0  0  0  0  0  0  0
    5.6104  -11.7194   26.6032 C   0  0  0  0  0  0  0  0  0  0  0  0
    6.6144  -10.8916   26.1524 C   0  0  0  0  0  0  0  0  0  0  0  0
    7.6990  -11.4380   25.5091 C   0  0  0  0  0  0  0  0  0  0  0  0
    7.7650  -12.7980   25.3261 C   0  0  0  0  0  0  0  0  0  0  0  0
    6.7685  -13.6341   25.7721 C   0  0  0  0  0  0  0  0  0  0  0  0
    9.9307  -15.8542   25.0139 C   0  0  0  0  0  0  0  0  0  0  0  0
   10.7293  -16.4001   24.1783 O   0  0  0  0  0  0  0  0  0  0  0  0
   10.3185  -15.7557   26.3562 N   0  0  0  0  0  0  0  0  0  0  0  0
    9.6164  -15.1859   27.4591 C   0  0  0  0  0  0  0  0  0  0  0  0
   10.6792  -14.6602   28.4128 C   0  0  0  0  0  0  0  0  0  0  0  0
   11.9844  -15.0991   27.8058 C   0  0  0  0  0  0  0  0  0  0  0  0
   11.5809  -16.2359   26.8988 C   0  0  1  0  0  0  0  0  0  0  0  0
   11.3635  -17.4388   27.7078 C   0  0  0  0  0  0  0  0  0  0  0  0
   10.0776  -17.9786   27.8771 O   0  0  0  0  0  0  0  0  0  0  0  0
   12.2850  -18.0523   28.2886 O   0  0  0  0  0  0  0  0  0  0  0  0
  2  1  1  1
  3  4  1  0
  3  2  1  0
  5  6  1  0
  5  4  1  0
  7  6  1  0
  8  2  1  0
  8  9  2  0
 10  8  1  0
 11 10  1  0
 11 12  1  1
 13 12  1  0
 14 13  2  0
 15 14  1  0
 16 15  1  0
 16 21  2  0
 17 16  1  0
 18 17  2  0
 18 19  1  0
 19 20  2  0
 20 21  1  0
 21 13  1  0
 22 11  1  0
 23 22  2  0
 24 25  1  0
 24 22  1  0
 26 27  1  0
 26 25  1  0
 27 28  1  0
 28 24  1  0
 28 29  1  1
 29 30  1  0
 31 29  2  0
M  END
$$$$
