KWP.pdb
     RDKit          3D

 31 33  0  0  1  0  0  0  0  0999 V2000
    8.6417  -16.6138   21.1815 N   0  0  0  0  0  0  0  0  0  0  0  0
    9.7911  -15.8196   21.4827 C   0  0  1  0  0  0  0  0  0  0  0  0
   10.0453  -14.7070   20.4963 C   0  0  0  0  0  0  0  0  0  0  0  0
    9.2650  -14.8997   19.2413 C   0  0  0  0  0  0  0  0  0  0  0  0
    8.3929  -13.7062   18.9095 C   0  0  0  0  0  0  0  0  0  0  0  0
    8.3891  -13.3941   17.4312 C   0  0  0  0  0  0  0  0  0  0  0  0
    8.5612  -14.6638   16.7330 N   0  0  0  0  0  0  0  0  0  0  0  0
    9.7096  -15.3413   22.8830 C   0  0  0  0  0  0  0  0  0  0  0  0
   10.1518  -14.2133   23.2352 O   0  0  0  0  0  0  0  0  0  0  0  0
    9.1157  -16.1821   23.8544 N   0  0  0  0  0  0  0  0  0  0  0  0
    9.0952  -15.7658   25.2492 C   0  0  1  0  0  0  0  0  0  0  0  0
    7.7944  -16.1851   25.8972 C   0  0  0  0  0  0  0  0  0  0  0  0
    6.7579  -15.1929   25.5728 C   0  0  0  0  0  0  0  0  0  0  0  0
    5.5731  -15.4499   24.9399 C   0  0  0  0  0  0  0  0  0  0  0  0
    4.8585  -14.3293   24.8065 N   0  0  0  0  0  0  0  0  0  0  0  0
    5.5734  -13.3314   25.3523 C   0  0  0  0  0  0  0  0  0  0  0  0
    5.3148  -11.9828   25.4877 C   0  0  0  0  0  0  0  0  0  0  0  0
    6.2150  -11.1363   26.0955 C   0  0  0  0  0  0  0  0  0  0  0  0
    7.3971  -11.6450   26.5779 C   0  0  0  0  0  0  0  0  0  0  0  0
    7.6619  -12.9867   26.4469 C   0  0  0  0  0  0  0  0  0  0  0  0
    6.7704  -13.8412   25.8419 C   0  0  0  0  0  0  0  0  0  0  0  0
   10.2889  -16.3563   25.9227 C   0  0  0  0  0  0  0  0  0  0  0  0
   11.1021  -17.0373   25.2094 O   0  0  0  0  0  0  0  0  0  0  0  0
   10.5557  -16.1969   27.2883 N   0  0  0  0  0  0  0  0  0  0  0  0
    9.7845  -15.5324   28.2872 C   0  0  0  0  0  0  0  0  0  0  0  0
   10.7800  -15.0003   29.3076 C   0  0  0  0  0  0  0  0  0  0  0  0
   12.1118  -15.5325   28.8519 C   0  0  0  0  0  0  0  0  0  0  0  0
   11.7368  -16.7011   27.9736 C   0  0  1  0  0  0  0  0  0  0  0  0
   11.3853  -17.8435   28.8221 C   0  0  0  0  0  0  0  0  0  0  0  0
   10.0744  -18.3475   28.8566 O   0  0  0  0  0  0  0  0  0  0  0  0
   12.2078  -18.4337   29.5556 O   0  0  0  0  0  0  0  0  0  0  0  0
  2  1  1  6
  3  4  1  0
  3  2  1  0
  5  6  1  0
  5  4  1  0
  7  6  1  0
  8  2  1  0
  8  9  2  0
 10  8  1  0
 11 10  1  0
 11 12  1  1
 13 12  1  0
 14 13  2  0
 15 14  1  0
 16 15  1  0
 16 21  2  0
 17 16  1  0
 18 17  2  0
 18 19  1  0
 19 20  2  0
 20 21  1  0
 21 13  1  0
 22 11  1  0
 23 22  2  0
 24 25  1  0
 24 22  1  0
 26 27  1  0
 26 25  1  0
 27 28  1  0
 28 24  1  0
 28 29  1  1
 29 30  1  0
 31 29  2  0
M  END
$$$$
