KWP.pdb
     RDKit          3D

 31 33  0  0  1  0  0  0  0  0999 V2000
    3.5645  -19.6093   22.1027 N   0  0  0  0  0  0  0  0  0  0  0  0
    4.7709  -19.6760   22.8662 C   0  0  1  0  0  0  0  0  0  0  0  0
    5.8080  -20.6116   22.2965 C   0  0  0  0  0  0  0  0  0  0  0  0
    5.2978  -22.0095   22.2150 C   0  0  0  0  0  0  0  0  0  0  0  0
    4.8651  -22.3900   20.8138 C   0  0  0  0  0  0  0  0  0  0  0  0
    4.4910  -23.8500   20.7076 C   0  0  0  0  0  0  0  0  0  0  0  0
    4.2275  -24.1149   19.2970 N   0  0  0  0  0  0  0  0  0  0  0  0
    5.2910  -18.3067   23.0912 C   0  0  0  0  0  0  0  0  0  0  0  0
    5.1605  -17.3887   22.2356 O   0  0  0  0  0  0  0  0  0  0  0  0
    5.9566  -18.0245   24.3080 N   0  0  0  0  0  0  0  0  0  0  0  0
    6.5808  -16.7234   24.5007 C   0  0  1  0  0  0  0  0  0  0  0  0
    6.7794  -16.4563   25.9761 C   0  0  0  0  0  0  0  0  0  0  0  0
    7.5285  -15.2006   26.1373 C   0  0  0  0  0  0  0  0  0  0  0  0
    8.8902  -15.0795   26.1766 C   0  0  0  0  0  0  0  0  0  0  0  0
    9.2445  -13.8003   26.3263 N   0  0  0  0  0  0  0  0  0  0  0  0
    8.1144  -13.0764   26.3859 C   0  0  0  0  0  0  0  0  0  0  0  0
    7.8972  -11.7217   26.5331 C   0  0  0  0  0  0  0  0  0  0  0  0
    6.6241  -11.1979   26.5674 C   0  0  0  0  0  0  0  0  0  0  0  0
    5.5457  -12.0421   26.4528 C   0  0  0  0  0  0  0  0  0  0  0  0
    5.7537  -13.3922   26.3060 C   0  0  0  0  0  0  0  0  0  0  0  0
    7.0204  -13.9263   26.2703 C   0  0  0  0  0  0  0  0  0  0  0  0
    7.8629  -16.7111   23.7370 C   0  0  0  0  0  0  0  0  0  0  0  0
    8.5760  -17.7719   23.7485 O   0  0  0  0  0  0  0  0  0  0  0  0
    8.3136  -15.5997   23.0136 N   0  0  0  0  0  0  0  0  0  0  0  0
    7.8272  -14.2591   23.0225 C   0  0  0  0  0  0  0  0  0  0  0  0
    8.0913  -13.7027   21.6310 C   0  0  0  0  0  0  0  0  0  0  0  0
    8.8594  -14.7888   20.9274 C   0  0  0  0  0  0  0  0  0  0  0  0
    9.4160  -15.6122   22.0631 C   0  0  1  0  0  0  0  0  0  0  0  0
   10.5820  -14.9247   22.6255 C   0  0  0  0  0  0  0  0  0  0  0  0
   11.8067  -14.8893   21.9381 O   0  0  0  0  0  0  0  0  0  0  0  0
   10.5674  -14.3368   23.7287 O   0  0  0  0  0  0  0  0  0  0  0  0
  2  1  1  6
  3  4  1  0
  3  2  1  0
  5  6  1  0
  5  4  1  0
  7  6  1  0
  8  2  1  0
  8  9  2  0
 10  8  1  0
 11 10  1  0
 11 12  1  1
 13 12  1  0
 14 13  2  0
 15 14  1  0
 16 15  1  0
 16 21  2  0
 17 16  1  0
 18 17  2  0
 18 19  1  0
 19 20  2  0
 20 21  1  0
 21 13  1  0
 22 11  1  0
 23 22  2  0
 24 25  1  0
 24 22  1  0
 26 27  1  0
 26 25  1  0
 27 28  1  0
 28 24  1  0
 28 29  1  1
 29 30  1  0
 31 29  2  0
M  END
$$$$
