TES.pdb
     RDKit          3D

 23 22  0  0  1  0  0  0  0  0999 V2000
    6.0311  -20.5765   22.8711 C   0  0  0  0  0  0  0  0  0  0  0  0
    6.7822  -21.4799   23.8099 C   0  0  1  0  0  0  0  0  0  0  0  0
    7.5023  -22.4236   23.0934 O   0  0  0  0  0  0  0  0  0  0  0  0
    7.6745  -20.6733   24.7323 C   0  0  2  0  0  0  0  0  0  0  0  0
    8.6059  -19.9381   23.8956 N   0  0  0  0  0  0  0  0  0  0  0  0
    8.3672  -21.5419   25.7120 C   0  0  0  0  0  0  0  0  0  0  0  0
    7.6652  -22.2211   26.4844 O   0  0  0  0  0  0  0  0  0  0  0  0
    9.7576  -21.6390   25.8150 N   0  0  0  0  0  0  0  0  0  0  0  0
   10.5054  -22.3955   26.7600 C   0  0  1  0  0  0  0  0  0  0  0  0
   11.5486  -23.2883   26.2231 C   0  0  0  0  0  0  0  0  0  0  0  0
   12.5349  -22.6370   25.3051 C   0  0  0  0  0  0  0  0  0  0  0  0
   13.5565  -23.5866   24.7935 C   0  0  0  0  0  0  0  0  0  0  0  0
   13.6041  -24.7936   25.0700 O   0  0  0  0  0  0  0  0  0  0  0  0
   11.1377  -21.4600   27.7667 C   0  0  0  0  0  0  0  0  0  0  0  0
   11.6360  -20.4180   27.3216 O   0  0  0  0  0  0  0  0  0  0  0  0
   14.5579  -23.1104   23.9288 O   0  0  0  0  0  0  0  0  0  0  0  0
   10.3071  -18.7461   31.0721 O   0  0  0  0  0  0  0  0  0  0  0  0
   10.2345  -19.6859   30.0695 C   0  0  0  0  0  0  0  0  0  0  0  0
   11.3083  -20.7507   30.1667 C   0  0  2  0  0  0  0  0  0  0  0  0
   11.1563  -21.7656   29.1554 N   0  0  0  0  0  0  0  0  0  0  0  0
   11.4382  -21.2884   31.5296 C   0  0  0  0  0  0  0  0  0  0  0  0
   11.3383  -22.6415   31.7453 O   0  0  0  0  0  0  0  0  0  0  0  0
   11.6384  -20.5214   32.4873 O   0  0  0  0  0  0  0  0  0  0  0  0
  2  1  1  6
  2  4  1  0
  3  2  1  0
  4  6  1  0
  4  5  1  6
  6  7  2  0
  8  6  1  0
  8  9  1  0
  9 14  1  0
  9 10  1  6
 11 12  1  0
 11 10  1  0
 12 13  2  0
 12 16  1  0
 14 20  1  0
 14 15  2  0
 18 17  1  0
 19 18  1  1
 20 19  1  0
 21 19  1  0
 21 22  1  0
 23 21  2  0
M  END
$$$$
