TES.pdb
     RDKit          3D

 23 22  0  0  1  0  0  0  0  0999 V2000
    8.7855  -12.2210   19.7083 C   0  0  0  0  0  0  0  0  0  0  0  0
    7.8880  -13.1024   18.8844 C   0  0  1  0  0  0  0  0  0  0  0  0
    7.0289  -12.3293   18.1184 O   0  0  0  0  0  0  0  0  0  0  0  0
    8.7047  -14.0506   18.0291 C   0  0  2  0  0  0  0  0  0  0  0  0
    7.7722  -14.7965   17.2031 N   0  0  0  0  0  0  0  0  0  0  0  0
    9.5503  -14.9382   18.8603 C   0  0  0  0  0  0  0  0  0  0  0  0
    8.9803  -15.8026   19.5522 O   0  0  0  0  0  0  0  0  0  0  0  0
   10.9447  -14.8579   18.9092 N   0  0  0  0  0  0  0  0  0  0  0  0
   11.8354  -15.6930   19.6396 C   0  0  1  0  0  0  0  0  0  0  0  0
   13.2596  -15.6395   19.2623 C   0  0  0  0  0  0  0  0  0  0  0  0
   13.8930  -14.2866   19.3529 C   0  0  0  0  0  0  0  0  0  0  0  0
   15.3314  -14.3003   18.9813 C   0  0  0  0  0  0  0  0  0  0  0  0
   16.2721  -14.2623   19.7870 O   0  0  0  0  0  0  0  0  0  0  0  0
   11.7125  -15.3900   21.1166 C   0  0  0  0  0  0  0  0  0  0  0  0
   11.2472  -14.2841   21.4209 O   0  0  0  0  0  0  0  0  0  0  0  0
   15.6841  -14.3601   17.6215 O   0  0  0  0  0  0  0  0  0  0  0  0
    9.1472  -17.1665   24.1106 O   0  0  0  0  0  0  0  0  0  0  0  0
    9.8921  -16.8738   22.9910 C   0  0  0  0  0  0  0  0  0  0  0  0
   11.3441  -16.5696   23.2995 C   0  0  2  0  0  0  0  0  0  0  0  0
   12.1124  -16.3320   22.1041 N   0  0  0  0  0  0  0  0  0  0  0  0
   11.9435  -17.5668   24.1995 C   0  0  0  0  0  0  0  0  0  0  0  0
   11.9855  -17.3320   25.5524 O   0  0  0  0  0  0  0  0  0  0  0  0
   12.4121  -18.6221   23.7390 O   0  0  0  0  0  0  0  0  0  0  0  0
  2  1  1  6
  2  4  1  0
  3  2  1  0
  4  6  1  0
  4  5  1  1
  6  7  2  0
  8  6  1  0
  8  9  1  0
  9 14  1  0
  9 10  1  6
 11 12  1  0
 11 10  1  0
 12 13  2  0
 12 16  1  0
 14 20  1  0
 14 15  2  0
 18 17  1  0
 19 18  1  6
 20 19  1  0
 21 19  1  0
 21 22  1  0
 23 21  2  0
M  END
$$$$
