TES.pdb
     RDKit          3D

 23 22  0  0  1  0  0  0  0  0999 V2000
   10.8892  -16.7914   20.7830 C   0  0  0  0  0  0  0  0  0  0  0  0
   10.9904  -18.0129   19.9118 C   0  0  1  0  0  0  0  0  0  0  0  0
    9.9926  -17.9991   18.9491 O   0  0  0  0  0  0  0  0  0  0  0  0
   12.3693  -18.1168   19.2908 C   0  0  2  0  0  0  0  0  0  0  0  0
   12.3625  -19.2782   18.4195 N   0  0  0  0  0  0  0  0  0  0  0  0
   13.4251  -18.1997   20.3264 C   0  0  0  0  0  0  0  0  0  0  0  0
   13.3995  -19.1710   21.1054 O   0  0  0  0  0  0  0  0  0  0  0  0
   14.4417  -17.2523   20.4749 N   0  0  0  0  0  0  0  0  0  0  0  0
   15.4896  -17.2498   21.4373 C   0  0  1  0  0  0  0  0  0  0  0  0
   16.5855  -16.2864   21.2268 C   0  0  0  0  0  0  0  0  0  0  0  0
   17.6597  -16.3047   22.2687 C   0  0  0  0  0  0  0  0  0  0  0  0
   18.7301  -15.3082   22.0070 C   0  0  0  0  0  0  0  0  0  0  0  0
   18.7553  -14.1576   22.4663 O   0  0  0  0  0  0  0  0  0  0  0  0
   14.9066  -17.0288   22.8157 C   0  0  0  0  0  0  0  0  0  0  0  0
   14.4018  -15.9202   23.0351 O   0  0  0  0  0  0  0  0  0  0  0  0
   19.8090  -15.6675   21.1798 O   0  0  0  0  0  0  0  0  0  0  0  0
   12.4152  -18.4667   26.4488 O   0  0  0  0  0  0  0  0  0  0  0  0
   12.9941  -18.5745   25.2049 C   0  0  0  0  0  0  0  0  0  0  0  0
   14.3365  -17.8786   25.1059 C   0  0  2  0  0  0  0  0  0  0  0  0
   14.9384  -18.0472   23.8077 N   0  0  0  0  0  0  0  0  0  0  0  0
   15.2290  -18.2281   26.2216 C   0  0  0  0  0  0  0  0  0  0  0  0
   14.8409  -17.9759   27.5151 O   0  0  0  0  0  0  0  0  0  0  0  0
   16.3341  -18.7515   25.9972 O   0  0  0  0  0  0  0  0  0  0  0  0
  2  1  1  6
  2  4  1  0
  3  2  1  0
  4  6  1  0
  4  5  1  6
  6  7  2  0
  8  6  1  0
  8  9  1  0
  9 14  1  0
  9 10  1  6
 11 12  1  0
 11 10  1  0
 12 13  2  0
 12 16  1  0
 14 20  1  0
 14 15  2  0
 18 17  1  0
 19 18  1  6
 20 19  1  0
 21 19  1  0
 21 22  1  0
 23 21  2  0
M  END
$$$$
