TES.pdb
     RDKit          3D

 23 22  0  0  1  0  0  0  0  0999 V2000
    8.3426  -12.1388   18.1993 C   0  0  0  0  0  0  0  0  0  0  0  0
    8.6196  -13.2458   19.1787 C   0  0  1  0  0  0  0  0  0  0  0  0
    7.6663  -13.2448   20.1855 O   0  0  0  0  0  0  0  0  0  0  0  0
    8.6881  -14.5844   18.4708 C   0  0  2  0  0  0  0  0  0  0  0  0
    7.4674  -14.7252   17.6974 N   0  0  0  0  0  0  0  0  0  0  0  0
    8.8739  -15.6965   19.4313 C   0  0  0  0  0  0  0  0  0  0  0  0
    7.8813  -16.3949   19.7104 O   0  0  0  0  0  0  0  0  0  0  0  0
   10.0957  -16.0018   20.0373 N   0  0  0  0  0  0  0  0  0  0  0  0
   10.3686  -17.0546   20.9546 C   0  0  1  0  0  0  0  0  0  0  0  0
   11.4567  -17.9835   20.5985 C   0  0  0  0  0  0  0  0  0  0  0  0
   12.7598  -17.3354   20.2497 C   0  0  0  0  0  0  0  0  0  0  0  0
   13.8121  -18.3202   19.8892 C   0  0  0  0  0  0  0  0  0  0  0  0
   14.6159  -18.8230   20.6871 O   0  0  0  0  0  0  0  0  0  0  0  0
   10.6557  -16.4707   22.3202 C   0  0  0  0  0  0  0  0  0  0  0  0
   11.5481  -15.6154   22.3833 O   0  0  0  0  0  0  0  0  0  0  0  0
   13.9305  -18.7325   18.5500 O   0  0  0  0  0  0  0  0  0  0  0  0
    8.4429  -14.6647   24.3732 O   0  0  0  0  0  0  0  0  0  0  0  0
    8.9524  -15.5597   25.2861 C   0  0  0  0  0  0  0  0  0  0  0  0
   10.1632  -16.3140   24.7749 C   0  0  2  0  0  0  0  0  0  0  0  0
    9.9334  -16.8862   23.4727 N   0  0  0  0  0  0  0  0  0  0  0  0
   10.6778  -17.2761   25.7613 C   0  0  0  0  0  0  0  0  0  0  0  0
   11.0232  -16.8488   27.0204 O   0  0  0  0  0  0  0  0  0  0  0  0
   10.8008  -18.4756   25.4587 O   0  0  0  0  0  0  0  0  0  0  0  0
  2  1  1  6
  2  4  1  0
  3  2  1  0
  4  6  1  0
  4  5  1  1
  6  7  2  0
  8  6  1  0
  8  9  1  0
  9 14  1  0
  9 10  1  6
 11 12  1  0
 11 10  1  0
 12 13  2  0
 12 16  1  0
 14 20  1  0
 14 15  2  0
 18 17  1  0
 19 18  1  1
 20 19  1  0
 21 19  1  0
 21 22  1  0
 23 21  2  0
M  END
$$$$
