TES.pdb
     RDKit          3D

 23 22  0  0  1  0  0  0  0  0999 V2000
    8.7963  -12.4425   19.6665 C   0  0  0  0  0  0  0  0  0  0  0  0
    7.9709  -13.1820   18.6500 C   0  0  1  0  0  0  0  0  0  0  0  0
    7.1287  -12.3034   17.9856 O   0  0  0  0  0  0  0  0  0  0  0  0
    8.8603  -13.9442   17.6879 C   0  0  2  0  0  0  0  0  0  0  0  0
    7.9943  -14.5667   16.7025 N   0  0  0  0  0  0  0  0  0  0  0  0
    9.7032  -14.9340   18.3975 C   0  0  0  0  0  0  0  0  0  0  0  0
    9.1846  -16.0231   18.7068 O   0  0  0  0  0  0  0  0  0  0  0  0
   11.0408  -14.7122   18.7364 N   0  0  0  0  0  0  0  0  0  0  0  0
   11.9418  -15.6261   19.3507 C   0  0  1  0  0  0  0  0  0  0  0  0
   13.3336  -15.6184   18.8645 C   0  0  0  0  0  0  0  0  0  0  0  0
   13.9177  -14.2616   18.6244 C   0  0  0  0  0  0  0  0  0  0  0  0
   15.3455  -14.3154   18.2172 C   0  0  0  0  0  0  0  0  0  0  0  0
   16.2535  -13.6428   18.7257 O   0  0  0  0  0  0  0  0  0  0  0  0
   11.9484  -15.3981   20.8462 C   0  0  0  0  0  0  0  0  0  0  0  0
   12.2239  -14.2552   21.2336 O   0  0  0  0  0  0  0  0  0  0  0  0
   15.7266  -15.1847   17.1797 O   0  0  0  0  0  0  0  0  0  0  0  0
    9.6461  -17.5991   23.4451 O   0  0  0  0  0  0  0  0  0  0  0  0
   10.2385  -16.3980   23.7617 C   0  0  0  0  0  0  0  0  0  0  0  0
   11.6318  -16.2463   23.1856 C   0  0  2  0  0  0  0  0  0  0  0  0
   11.6517  -16.4475   21.7590 N   0  0  0  0  0  0  0  0  0  0  0  0
   12.6255  -17.0529   23.9106 C   0  0  0  0  0  0  0  0  0  0  0  0
   12.7803  -16.8940   25.2664 O   0  0  0  0  0  0  0  0  0  0  0  0
   13.3258  -17.8785   23.2996 O   0  0  0  0  0  0  0  0  0  0  0  0
  2  1  1  1
  2  4  1  0
  3  2  1  0
  4  6  1  0
  4  5  1  6
  6  7  2  0
  8  6  1  0
  8  9  1  0
  9 14  1  0
  9 10  1  6
 11 12  1  0
 11 10  1  0
 12 13  2  0
 12 16  1  0
 14 20  1  0
 14 15  2  0
 18 17  1  0
 19 18  1  1
 20 19  1  0
 21 19  1  0
 21 22  1  0
 23 21  2  0
M  END
$$$$
