TES.pdb
     RDKit          3D

 23 22  0  0  1  0  0  0  0  0999 V2000
    9.2622  -12.3895   19.7765 C   0  0  0  0  0  0  0  0  0  0  0  0
    8.1354  -12.9522   18.9549 C   0  0  1  0  0  0  0  0  0  0  0  0
    7.6349  -11.9824   18.0996 O   0  0  0  0  0  0  0  0  0  0  0  0
    8.5853  -14.1882   18.2016 C   0  0  2  0  0  0  0  0  0  0  0  0
    7.4408  -14.6765   17.4534 N   0  0  0  0  0  0  0  0  0  0  0  0
    9.1327  -15.2133   19.1200 C   0  0  0  0  0  0  0  0  0  0  0  0
    8.3320  -16.0090   19.6458 O   0  0  0  0  0  0  0  0  0  0  0  0
   10.4909  -15.3342   19.4260 N   0  0  0  0  0  0  0  0  0  0  0  0
   11.1118  -16.3270   20.2343 C   0  0  1  0  0  0  0  0  0  0  0  0
   12.3718  -16.9037   19.7312 C   0  0  0  0  0  0  0  0  0  0  0  0
   12.2746  -17.5894   18.4045 C   0  0  0  0  0  0  0  0  0  0  0  0
   13.5708  -18.1615   17.9577 C   0  0  0  0  0  0  0  0  0  0  0  0
   14.4878  -17.5145   17.4323 O   0  0  0  0  0  0  0  0  0  0  0  0
   11.3516  -15.7702   21.6202 C   0  0  0  0  0  0  0  0  0  0  0  0
   11.2131  -14.5483   21.7606 O   0  0  0  0  0  0  0  0  0  0  0  0
   13.8049  -19.5372   18.1302 O   0  0  0  0  0  0  0  0  0  0  0  0
    8.8508  -16.5313   25.0037 O   0  0  0  0  0  0  0  0  0  0  0  0
    9.5347  -16.6862   23.8195 C   0  0  0  0  0  0  0  0  0  0  0  0
   11.0377  -16.5733   23.9758 C   0  0  2  0  0  0  0  0  0  0  0  0
   11.7176  -16.6124   22.7062 N   0  0  0  0  0  0  0  0  0  0  0  0
   11.5688  -17.5278   24.9609 C   0  0  0  0  0  0  0  0  0  0  0  0
   11.8339  -17.1133   26.2436 O   0  0  0  0  0  0  0  0  0  0  0  0
   11.7783  -18.7093   24.6358 O   0  0  0  0  0  0  0  0  0  0  0  0
  2  1  1  6
  2  4  1  0
  3  2  1  0
  4  6  1  0
  4  5  1  1
  6  7  2  0
  8  6  1  0
  8  9  1  0
  9 14  1  0
  9 10  1  6
 11 12  1  0
 11 10  1  0
 12 13  2  0
 12 16  1  0
 14 20  1  0
 14 15  2  0
 18 17  1  0
 19 18  1  6
 20 19  1  0
 21 19  1  0
 21 22  1  0
 23 21  2  0
M  END
$$$$
