TES.pdb
     RDKit          3D

 23 22  0  0  1  0  0  0  0  0999 V2000
    8.1187  -12.2172   18.1954 C   0  0  0  0  0  0  0  0  0  0  0  0
    8.2551  -13.5067   18.9569 C   0  0  1  0  0  0  0  0  0  0  0  0
    8.1584  -14.5864   18.0924 O   0  0  0  0  0  0  0  0  0  0  0  0
    9.5503  -13.5310   19.7441 C   0  0  2  0  0  0  0  0  0  0  0  0
   10.6383  -13.4751   18.7843 N   0  0  0  0  0  0  0  0  0  0  0  0
    9.6327  -14.7262   20.6150 C   0  0  0  0  0  0  0  0  0  0  0  0
    8.7248  -14.9006   21.4494 O   0  0  0  0  0  0  0  0  0  0  0  0
   10.6681  -15.6626   20.5506 N   0  0  0  0  0  0  0  0  0  0  0  0
   10.7495  -16.9120   21.2266 C   0  0  1  0  0  0  0  0  0  0  0  0
   11.5470  -17.9694   20.5790 C   0  0  0  0  0  0  0  0  0  0  0  0
   12.7032  -17.4857   19.7611 C   0  0  0  0  0  0  0  0  0  0  0  0
   13.4678  -18.5953   19.1356 C   0  0  0  0  0  0  0  0  0  0  0  0
   13.1850  -19.1296   18.0539 O   0  0  0  0  0  0  0  0  0  0  0  0
   11.2786  -16.6932   22.6268 C   0  0  0  0  0  0  0  0  0  0  0  0
   12.2503  -15.9353   22.7425 O   0  0  0  0  0  0  0  0  0  0  0  0
   14.6023  -19.0992   19.7961 O   0  0  0  0  0  0  0  0  0  0  0  0
    8.8938  -16.8687   25.7066 O   0  0  0  0  0  0  0  0  0  0  0  0
   10.1959  -16.5610   26.0289 C   0  0  0  0  0  0  0  0  0  0  0  0
   11.2090  -17.1793   25.0868 C   0  0  2  0  0  0  0  0  0  0  0  0
   10.6858  -17.3284   23.7527 N   0  0  0  0  0  0  0  0  0  0  0  0
   11.7979  -18.4117   25.6324 C   0  0  0  0  0  0  0  0  0  0  0  0
   12.4355  -18.3868   26.8491 O   0  0  0  0  0  0  0  0  0  0  0  0
   11.7201  -19.4765   24.9955 O   0  0  0  0  0  0  0  0  0  0  0  0
  2  1  1  6
  2  4  1  0
  3  2  1  0
  4  6  1  0
  4  5  1  6
  6  7  2  0
  8  6  1  0
  8  9  1  0
  9 14  1  0
  9 10  1  6
 11 12  1  0
 11 10  1  0
 12 13  2  0
 12 16  1  0
 14 20  1  0
 14 15  2  0
 18 17  1  0
 19 18  1  1
 20 19  1  0
 21 19  1  0
 21 22  1  0
 23 21  2  0
M  END
$$$$
