TES.pdb
     RDKit          3D

 23 22  0  0  1  0  0  0  0  0999 V2000
    9.4621  -12.2472   19.7768 C   0  0  0  0  0  0  0  0  0  0  0  0
    8.2840  -12.8191   19.0376 C   0  0  1  0  0  0  0  0  0  0  0  0
    7.7945  -11.8947   18.1274 O   0  0  0  0  0  0  0  0  0  0  0  0
    8.6545  -14.1268   18.3665 C   0  0  2  0  0  0  0  0  0  0  0  0
    7.4918  -14.5715   17.6192 N   0  0  0  0  0  0  0  0  0  0  0  0
    9.1041  -15.1345   19.3546 C   0  0  0  0  0  0  0  0  0  0  0  0
    8.2442  -15.6425   20.0985 O   0  0  0  0  0  0  0  0  0  0  0  0
   10.4332  -15.5429   19.4957 N   0  0  0  0  0  0  0  0  0  0  0  0
   10.9379  -16.5749   20.3352 C   0  0  1  0  0  0  0  0  0  0  0  0
   12.2016  -17.2118   19.9220 C   0  0  0  0  0  0  0  0  0  0  0  0
   12.1513  -17.9409   18.6161 C   0  0  0  0  0  0  0  0  0  0  0  0
   13.4992  -18.1725   18.0358 C   0  0  0  0  0  0  0  0  0  0  0  0
   14.4326  -18.7439   18.6169 O   0  0  0  0  0  0  0  0  0  0  0  0
   11.0984  -16.0452   21.7430 C   0  0  0  0  0  0  0  0  0  0  0  0
   11.7051  -14.9737   21.8687 O   0  0  0  0  0  0  0  0  0  0  0  0
   13.7669  -17.7212   16.7312 O   0  0  0  0  0  0  0  0  0  0  0  0
    8.2901  -16.5146   24.6407 O   0  0  0  0  0  0  0  0  0  0  0  0
    9.3334  -15.6171   24.6510 C   0  0  0  0  0  0  0  0  0  0  0  0
   10.6491  -16.2220   24.2046 C   0  0  2  0  0  0  0  0  0  0  0  0
   10.5760  -16.7464   22.8646 N   0  0  0  0  0  0  0  0  0  0  0  0
   11.1842  -17.1784   25.1857 C   0  0  0  0  0  0  0  0  0  0  0  0
   11.4338  -18.4766   24.8121 O   0  0  0  0  0  0  0  0  0  0  0  0
   11.4114  -16.8149   26.3527 O   0  0  0  0  0  0  0  0  0  0  0  0
  2  1  1  6
  2  4  1  0
  3  2  1  0
  4  6  1  0
  4  5  1  1
  6  7  2  0
  8  6  1  0
  8  9  1  0
  9 14  1  0
  9 10  1  6
 11 12  1  0
 11 10  1  0
 12 13  2  0
 12 16  1  0
 14 20  1  0
 14 15  2  0
 18 17  1  0
 19 18  1  1
 20 19  1  0
 21 19  1  0
 21 22  1  0
 23 21  2  0
M  END
$$$$
