TES.pdb
     RDKit          3D

 23 22  0  0  1  0  0  0  0  0999 V2000
    7.4033  -12.1722   19.0635 C   0  0  0  0  0  0  0  0  0  0  0  0
    8.5192  -13.0882   19.4844 C   0  0  1  0  0  0  0  0  0  0  0  0
    8.0488  -14.0368   20.3796 O   0  0  0  0  0  0  0  0  0  0  0  0
    9.1716  -13.7302   18.2761 C   0  0  2  0  0  0  0  0  0  0  0  0
    8.1391  -14.4684   17.5710 N   0  0  0  0  0  0  0  0  0  0  0  0
   10.3084  -14.5943   18.6694 C   0  0  0  0  0  0  0  0  0  0  0  0
   10.0708  -15.7926   18.9109 O   0  0  0  0  0  0  0  0  0  0  0  0
   11.6250  -14.1395   18.7831 N   0  0  0  0  0  0  0  0  0  0  0  0
   12.7502  -14.8578   19.2756 C   0  0  1  0  0  0  0  0  0  0  0  0
   14.0820  -14.3498   18.8993 C   0  0  0  0  0  0  0  0  0  0  0  0
   15.2387  -15.1141   19.4628 C   0  0  0  0  0  0  0  0  0  0  0  0
   16.5517  -14.5672   19.0336 C   0  0  0  0  0  0  0  0  0  0  0  0
   17.3671  -15.1627   18.3153 O   0  0  0  0  0  0  0  0  0  0  0  0
   12.6715  -14.9440   20.7839 C   0  0  0  0  0  0  0  0  0  0  0  0
   12.7097  -13.8742   21.4051 O   0  0  0  0  0  0  0  0  0  0  0  0
   16.9260  -13.2799   19.4579 O   0  0  0  0  0  0  0  0  0  0  0  0
   10.5189  -17.8192   22.7027 O   0  0  0  0  0  0  0  0  0  0  0  0
   10.9587  -16.6380   23.2554 C   0  0  0  0  0  0  0  0  0  0  0  0
   12.3856  -16.2943   22.8785 C   0  0  2  0  0  0  0  0  0  0  0  0
   12.5587  -16.1946   21.4516 N   0  0  0  0  0  0  0  0  0  0  0  0
   13.3630  -17.1776   23.5326 C   0  0  0  0  0  0  0  0  0  0  0  0
   13.3199  -17.3593   24.8937 O   0  0  0  0  0  0  0  0  0  0  0  0
   14.2284  -17.7607   22.8569 O   0  0  0  0  0  0  0  0  0  0  0  0
  2  1  1  6
  2  4  1  0
  3  2  1  0
  4  6  1  0
  4  5  1  1
  6  7  2  0
  8  6  1  0
  8  9  1  0
  9 14  1  0
  9 10  1  1
 11 12  1  0
 11 10  1  0
 12 13  2  0
 12 16  1  0
 14 20  1  0
 14 15  2  0
 18 17  1  0
 19 18  1  6
 20 19  1  0
 21 19  1  0
 21 22  1  0
 23 21  2  0
M  END
$$$$
