TES.pdb
     RDKit          3D

 23 22  0  0  1  0  0  0  0  0999 V2000
    7.3587  -11.8865   18.8948 C   0  0  0  0  0  0  0  0  0  0  0  0
    8.4833  -12.7498   19.3960 C   0  0  1  0  0  0  0  0  0  0  0  0
    8.1514  -13.3049   20.6225 O   0  0  0  0  0  0  0  0  0  0  0  0
    8.8400  -13.8127   18.3759 C   0  0  2  0  0  0  0  0  0  0  0  0
    7.6442  -14.6019   18.1406 N   0  0  0  0  0  0  0  0  0  0  0  0
    9.9778  -14.6431   18.8339 C   0  0  0  0  0  0  0  0  0  0  0  0
    9.7225  -15.7598   19.3223 O   0  0  0  0  0  0  0  0  0  0  0  0
   11.3140  -14.2427   18.7477 N   0  0  0  0  0  0  0  0  0  0  0  0
   12.4673  -14.9873   19.1220 C   0  0  1  0  0  0  0  0  0  0  0  0
   13.7603  -14.5300   18.5811 C   0  0  0  0  0  0  0  0  0  0  0  0
   14.9497  -15.3316   19.0082 C   0  0  0  0  0  0  0  0  0  0  0  0
   16.2084  -14.8807   18.3606 C   0  0  0  0  0  0  0  0  0  0  0  0
   16.8128  -15.5028   17.4757 O   0  0  0  0  0  0  0  0  0  0  0  0
   12.5638  -15.0414   20.6307 C   0  0  0  0  0  0  0  0  0  0  0  0
   13.0228  -14.0401   21.1952 O   0  0  0  0  0  0  0  0  0  0  0  0
   16.7819  -13.6605   18.7602 O   0  0  0  0  0  0  0  0  0  0  0  0
   10.4444  -17.8888   22.9802 O   0  0  0  0  0  0  0  0  0  0  0  0
   10.8910  -16.6612   23.4133 C   0  0  0  0  0  0  0  0  0  0  0  0
   12.2149  -16.2538   22.7988 C   0  0  2  0  0  0  0  0  0  0  0  0
   12.1461  -16.1879   21.3612 N   0  0  0  0  0  0  0  0  0  0  0  0
   13.3351  -17.0642   23.3008 C   0  0  0  0  0  0  0  0  0  0  0  0
   13.6267  -17.0743   24.6433 O   0  0  0  0  0  0  0  0  0  0  0  0
   14.0190  -17.7406   22.5132 O   0  0  0  0  0  0  0  0  0  0  0  0
  2  1  1  6
  2  4  1  0
  3  2  1  0
  4  6  1  0
  4  5  1  1
  6  7  2  0
  8  6  1  0
  8  9  1  0
  9 14  1  0
  9 10  1  6
 11 12  1  0
 11 10  1  0
 12 13  2  0
 12 16  1  0
 14 20  1  0
 14 15  2  0
 18 17  1  0
 19 18  1  6
 20 19  1  0
 21 19  1  0
 21 22  1  0
 23 21  2  0
M  END
$$$$
