TES.pdb
     RDKit          3D

 23 22  0  0  1  0  0  0  0  0999 V2000
    8.6136  -12.4444   19.5978 C   0  0  0  0  0  0  0  0  0  0  0  0
    7.8980  -13.3966   18.6798 C   0  0  1  0  0  0  0  0  0  0  0  0
    6.8514  -12.7503   18.0400 O   0  0  0  0  0  0  0  0  0  0  0  0
    8.8644  -14.0171   17.6905 C   0  0  2  0  0  0  0  0  0  0  0  0
    8.0877  -14.8654   16.8045 N   0  0  0  0  0  0  0  0  0  0  0  0
    9.9407  -14.7650   18.3807 C   0  0  0  0  0  0  0  0  0  0  0  0
    9.6798  -15.9110   18.7922 O   0  0  0  0  0  0  0  0  0  0  0  0
   11.2249  -14.2564   18.5932 N   0  0  0  0  0  0  0  0  0  0  0  0
   12.3015  -14.8822   19.2816 C   0  0  1  0  0  0  0  0  0  0  0  0
   13.6588  -14.3895   18.9843 C   0  0  0  0  0  0  0  0  0  0  0  0
   14.7704  -15.1491   19.6377 C   0  0  0  0  0  0  0  0  0  0  0  0
   16.1142  -14.6700   19.2230 C   0  0  0  0  0  0  0  0  0  0  0  0
   16.5762  -13.5484   19.4760 O   0  0  0  0  0  0  0  0  0  0  0  0
   12.0670  -14.7896   20.7732 C   0  0  0  0  0  0  0  0  0  0  0  0
   11.4920  -13.7734   21.1840 O   0  0  0  0  0  0  0  0  0  0  0  0
   16.9479  -15.5305   18.4868 O   0  0  0  0  0  0  0  0  0  0  0  0
    9.5547  -17.0039   23.5327 O   0  0  0  0  0  0  0  0  0  0  0  0
   10.2995  -16.5907   22.4517 C   0  0  0  0  0  0  0  0  0  0  0  0
   11.7199  -16.2065   22.8138 C   0  0  2  0  0  0  0  0  0  0  0  0
   12.4874  -15.8215   21.6568 N   0  0  0  0  0  0  0  0  0  0  0  0
   12.3772  -17.2244   23.6477 C   0  0  0  0  0  0  0  0  0  0  0  0
   12.1822  -17.2271   25.0077 O   0  0  0  0  0  0  0  0  0  0  0  0
   13.1090  -18.0828   23.1251 O   0  0  0  0  0  0  0  0  0  0  0  0
  2  1  1  6
  2  4  1  0
  3  2  1  0
  4  6  1  0
  4  5  1  6
  6  7  2  0
  8  6  1  0
  8  9  1  0
  9 14  1  0
  9 10  1  1
 11 12  1  0
 11 10  1  0
 12 13  2  0
 12 16  1  0
 14 20  1  0
 14 15  2  0
 18 17  1  0
 19 18  1  6
 20 19  1  0
 21 19  1  0
 21 22  1  0
 23 21  2  0
M  END
$$$$
