CTP.pdb
     RDKit          3D

 21 21  0  0  1  0  0  0  0  0999 V2000
   12.2447  -16.5937   19.5951 N   0  0  0  0  0  0  0  0  0  0  0  0
   11.4623  -17.0367   20.7171 C   0  0  1  0  0  0  0  0  0  0  0  0
   12.3877  -17.8019   21.6430 C   0  0  0  0  0  0  0  0  0  0  0  0
   11.3548  -18.5203   22.9710 S   0  0  0  0  0  0  0  0  0  0  0  0
   10.8051  -15.9006   21.4214 C   0  0  0  0  0  0  0  0  0  0  0  0
   11.4654  -14.9468   21.8599 O   0  0  0  0  0  0  0  0  0  0  0  0
    7.4456  -14.2282   20.1953 C   0  0  0  0  0  0  0  0  0  0  0  0
    7.3165  -14.8640   21.5594 C   0  0  1  0  0  0  0  0  0  0  0  0
    6.7303  -16.0798   21.4618 O   0  0  0  0  0  0  0  0  0  0  0  0
    8.6697  -14.8497   22.2869 C   0  0  2  0  0  0  0  0  0  0  0  0
    9.4038  -15.9326   21.5805 N   0  0  0  0  0  0  0  0  0  0  0  0
    8.5336  -15.2708   23.6902 C   0  0  0  0  0  0  0  0  0  0  0  0
    9.3042  -16.2478   24.0499 O   0  0  0  0  0  0  0  0  0  0  0  0
    7.6806  -14.7420   24.6649 N   0  0  0  0  0  0  0  0  0  0  0  0
    6.6981  -13.7193   24.4583 C   0  0  0  0  0  0  0  0  0  0  0  0
    6.7416  -12.9495   25.7621 C   0  0  0  0  0  0  0  0  0  0  0  0
    7.6489  -13.7500   26.7045 C   0  0  0  0  0  0  0  0  0  0  0  0
    7.5770  -15.1313   26.0294 C   0  0  1  0  0  0  0  0  0  0  0  0
    6.3054  -15.8057   26.3595 C   0  0  0  0  0  0  0  0  0  0  0  0
    6.1139  -16.3433   27.6120 O   0  0  0  0  0  0  0  0  0  0  0  0
    5.4082  -15.8876   25.5054 O   0  0  0  0  0  0  0  0  0  0  0  0
  2  1  1  6
  3  2  1  0
  4  3  1  0
  5 11  1  0
  5  2  1  0
  6  5  2  0
  8  7  1  6
  8 10  1  0
  9  8  1  0
 10 12  1  0
 10 11  1  6
 12 14  1  0
 13 12  2  0
 14 15  1  0
 14 18  1  0
 15 16  1  0
 16 17  1  0
 18 19  1  6
 18 17  1  0
 19 20  1  0
 21 19  2  0
M  END
$$$$
