CTP.pdb
     RDKit          3D

 21 21  0  0  1  0  0  0  0  0999 V2000
    6.4667  -22.0738   25.1136 N   0  0  0  0  0  0  0  0  0  0  0  0
    6.0469  -20.8237   24.5406 C   0  0  1  0  0  0  0  0  0  0  0  0
    4.6105  -20.9917   24.0850 C   0  0  0  0  0  0  0  0  0  0  0  0
    4.6550  -21.6821   22.3916 S   0  0  0  0  0  0  0  0  0  0  0  0
    6.1842  -19.6954   25.5034 C   0  0  0  0  0  0  0  0  0  0  0  0
    5.5237  -19.6608   26.5525 O   0  0  0  0  0  0  0  0  0  0  0  0
    8.6176  -18.8317   27.6953 C   0  0  0  0  0  0  0  0  0  0  0  0
    8.6649  -17.7307   26.6623 C   0  0  1  0  0  0  0  0  0  0  0  0
    9.6281  -17.9823   25.7457 O   0  0  0  0  0  0  0  0  0  0  0  0
    7.2642  -17.4794   26.0832 C   0  0  2  0  0  0  0  0  0  0  0  0
    7.0889  -18.6582   25.1943 N   0  0  0  0  0  0  0  0  0  0  0  0
    7.2414  -16.2871   25.2211 C   0  0  0  0  0  0  0  0  0  0  0  0
    7.0595  -16.5217   23.9603 O   0  0  0  0  0  0  0  0  0  0  0  0
    7.3897  -14.9497   25.6040 N   0  0  0  0  0  0  0  0  0  0  0  0
    7.5388  -14.4700   26.9461 C   0  0  0  0  0  0  0  0  0  0  0  0
    6.7953  -13.1507   26.9112 C   0  0  0  0  0  0  0  0  0  0  0  0
    6.4349  -12.8985   25.4420 C   0  0  0  0  0  0  0  0  0  0  0  0
    7.4691  -13.8094   24.7568 C   0  0  1  0  0  0  0  0  0  0  0  0
    8.7998  -13.1691   24.7463 C   0  0  0  0  0  0  0  0  0  0  0  0
    9.0622  -12.1367   23.8747 O   0  0  0  0  0  0  0  0  0  0  0  0
    9.6826  -13.5632   25.5251 O   0  0  0  0  0  0  0  0  0  0  0  0
  2  1  1  1
  3  2  1  0
  4  3  1  0
  5 11  1  0
  5  2  1  0
  6  5  2  0
  8  7  1  1
  8 10  1  0
  9  8  1  0
 10 12  1  0
 10 11  1  6
 12 14  1  0
 13 12  2  0
 14 15  1  0
 14 18  1  0
 15 16  1  0
 16 17  1  0
 18 19  1  1
 18 17  1  0
 19 20  1  0
 21 19  2  0
M  END
$$$$
