CTP.pdb
     RDKit          3D

 21 21  0  0  1  0  0  0  0  0999 V2000
   11.1715  -14.8754   19.1044 N   0  0  0  0  0  0  0  0  0  0  0  0
   10.9222  -15.4444   20.4010 C   0  0  1  0  0  0  0  0  0  0  0  0
   12.2615  -15.6005   21.0943 C   0  0  0  0  0  0  0  0  0  0  0  0
   11.9439  -16.3731   22.7218 S   0  0  0  0  0  0  0  0  0  0  0  0
    9.9868  -14.6096   21.2053 C   0  0  0  0  0  0  0  0  0  0  0  0
   10.1983  -13.4014   21.3889 O   0  0  0  0  0  0  0  0  0  0  0  0
    6.3115  -15.3940   20.9297 C   0  0  0  0  0  0  0  0  0  0  0  0
    6.5924  -15.2597   22.4077 C   0  0  1  0  0  0  0  0  0  0  0  0
    6.5263  -16.4676   23.0142 O   0  0  0  0  0  0  0  0  0  0  0  0
    7.9007  -14.4870   22.6360 C   0  0  2  0  0  0  0  0  0  0  0  0
    8.8456  -15.2272   21.7586 N   0  0  0  0  0  0  0  0  0  0  0  0
    8.3873  -14.6431   24.0158 C   0  0  0  0  0  0  0  0  0  0  0  0
    9.4661  -15.3486   24.1435 O   0  0  0  0  0  0  0  0  0  0  0  0
    7.8261  -14.1220   25.1866 N   0  0  0  0  0  0  0  0  0  0  0  0
    6.5574  -13.4639   25.2913 C   0  0  0  0  0  0  0  0  0  0  0  0
    6.8168  -12.4100   26.3480 C   0  0  0  0  0  0  0  0  0  0  0  0
    8.2153  -12.6973   26.9082 C   0  0  0  0  0  0  0  0  0  0  0  0
    8.3632  -14.1747   26.5030 C   0  0  1  0  0  0  0  0  0  0  0  0
    7.6005  -15.0444   27.4211 C   0  0  0  0  0  0  0  0  0  0  0  0
    8.0754  -15.2954   28.6882 O   0  0  0  0  0  0  0  0  0  0  0  0
    6.5293  -15.5494   27.0485 O   0  0  0  0  0  0  0  0  0  0  0  0
  2  1  1  6
  3  2  1  0
  4  3  1  0
  5 11  1  0
  5  2  1  0
  6  5  2  0
  8  7  1  6
  8 10  1  0
  9  8  1  0
 10 12  1  0
 10 11  1  6
 12 14  1  0
 13 12  2  0
 14 15  1  0
 14 18  1  0
 15 16  1  0
 16 17  1  0
 18 19  1  1
 18 17  1  0
 19 20  1  0
 21 19  2  0
M  END
$$$$
