CTP.pdb
     RDKit          3D

 21 21  0  0  1  0  0  0  0  0999 V2000
    8.0918  -15.2818   18.3925 N   0  0  0  0  0  0  0  0  0  0  0  0
    8.7715  -15.0457   19.6372 C   0  0  1  0  0  0  0  0  0  0  0  0
    9.6379  -13.8146   19.4558 C   0  0  0  0  0  0  0  0  0  0  0  0
    8.5220  -12.4166   19.0728 S   0  0  0  0  0  0  0  0  0  0  0  0
    7.8183  -14.8784   20.7696 C   0  0  0  0  0  0  0  0  0  0  0  0
    6.5944  -14.8220   20.5774 O   0  0  0  0  0  0  0  0  0  0  0  0
    6.0378  -16.5408   22.1007 C   0  0  0  0  0  0  0  0  0  0  0  0
    7.0080  -16.3247   23.2380 C   0  0  1  0  0  0  0  0  0  0  0  0
    8.0050  -17.2385   23.1902 O   0  0  0  0  0  0  0  0  0  0  0  0
    7.4687  -14.8595   23.2777 C   0  0  2  0  0  0  0  0  0  0  0  0
    8.3414  -14.7847   22.0763 N   0  0  0  0  0  0  0  0  0  0  0  0
    8.3245  -14.5932   24.4447 C   0  0  0  0  0  0  0  0  0  0  0  0
    9.5934  -14.7636   24.2483 O   0  0  0  0  0  0  0  0  0  0  0  0
    7.9286  -14.1812   25.7217 N   0  0  0  0  0  0  0  0  0  0  0  0
    6.5791  -14.0845   26.1942 C   0  0  0  0  0  0  0  0  0  0  0  0
    6.6329  -12.8760   27.1059 C   0  0  0  0  0  0  0  0  0  0  0  0
    8.1126  -12.4898   27.2218 C   0  0  0  0  0  0  0  0  0  0  0  0
    8.7655  -13.8228   26.8150 C   0  0  1  0  0  0  0  0  0  0  0  0
    8.7244  -14.7850   27.9346 C   0  0  0  0  0  0  0  0  0  0  0  0
    7.9447  -15.9157   27.8448 O   0  0  0  0  0  0  0  0  0  0  0  0
    9.3943  -14.5729   28.9580 O   0  0  0  0  0  0  0  0  0  0  0  0
  2  1  1  6
  3  2  1  0
  4  3  1  0
  5 11  1  0
  5  2  1  0
  6  5  2  0
  8  7  1  6
  8 10  1  0
  9  8  1  0
 10 12  1  0
 10 11  1  6
 12 14  1  0
 13 12  2  0
 14 15  1  0
 14 18  1  0
 15 16  1  0
 16 17  1  0
 18 19  1  1
 18 17  1  0
 19 20  1  0
 21 19  2  0
M  END
$$$$
