CTP.pdb
     RDKit          3D

 21 21  0  0  1  0  0  0  0  0999 V2000
   14.0780  -14.3673   17.7204 N   0  0  0  0  0  0  0  0  0  0  0  0
   12.9616  -15.1706   18.1393 C   0  0  1  0  0  0  0  0  0  0  0  0
   13.5176  -16.4641   18.7021 C   0  0  0  0  0  0  0  0  0  0  0  0
   14.2840  -17.3757   17.3135 S   0  0  0  0  0  0  0  0  0  0  0  0
   12.1102  -14.4644   19.1369 C   0  0  0  0  0  0  0  0  0  0  0  0
   12.6094  -13.7391   20.0103 O   0  0  0  0  0  0  0  0  0  0  0  0
    8.6017  -12.7453   18.2257 C   0  0  0  0  0  0  0  0  0  0  0  0
    8.4982  -13.8808   19.2163 C   0  0  1  0  0  0  0  0  0  0  0  0
    8.1135  -15.0190   18.5937 O   0  0  0  0  0  0  0  0  0  0  0  0
    9.7911  -13.9933   20.0388 C   0  0  2  0  0  0  0  0  0  0  0  0
   10.7122  -14.6393   19.0667 N   0  0  0  0  0  0  0  0  0  0  0  0
    9.6358  -14.9268   21.1655 C   0  0  0  0  0  0  0  0  0  0  0  0
   10.4360  -15.9453   21.1520 O   0  0  0  0  0  0  0  0  0  0  0  0
    8.7368  -14.8388   22.2339 N   0  0  0  0  0  0  0  0  0  0  0  0
    7.7207  -13.8417   22.3988 C   0  0  0  0  0  0  0  0  0  0  0  0
    7.6989  -13.6357   23.8993 C   0  0  0  0  0  0  0  0  0  0  0  0
    8.6114  -14.7148   24.4953 C   0  0  0  0  0  0  0  0  0  0  0  0
    8.6121  -15.7284   23.3371 C   0  0  1  0  0  0  0  0  0  0  0  0
    7.3596  -16.5108   23.3302 C   0  0  0  0  0  0  0  0  0  0  0  0
    6.4448  -16.3404   22.3162 O   0  0  0  0  0  0  0  0  0  0  0  0
    7.1323  -17.3234   24.2409 O   0  0  0  0  0  0  0  0  0  0  0  0
  2  1  1  1
  3  2  1  0
  4  3  1  0
  5 11  1  0
  5  2  1  0
  6  5  2  0
  8  7  1  6
  8 10  1  0
  9  8  1  0
 10 12  1  0
 10 11  1  6
 12 14  1  0
 13 12  2  0
 14 15  1  0
 14 18  1  0
 15 16  1  0
 16 17  1  0
 18 19  1  6
 18 17  1  0
 19 20  1  0
 21 19  2  0
M  END
$$$$
