CTP.pdb
     RDKit          3D

 21 21  0  0  1  0  0  0  0  0999 V2000
   10.8482  -14.6540   18.5193 N   0  0  0  0  0  0  0  0  0  0  0  0
   10.9861  -14.8490   19.9371 C   0  0  1  0  0  0  0  0  0  0  0  0
   12.3705  -14.3710   20.3294 C   0  0  0  0  0  0  0  0  0  0  0  0
   12.5704  -14.6952   22.1186 S   0  0  0  0  0  0  0  0  0  0  0  0
    9.9265  -14.1355   20.7033 C   0  0  0  0  0  0  0  0  0  0  0  0
    9.6994  -12.9305   20.5180 O   0  0  0  0  0  0  0  0  0  0  0  0
    6.3899  -14.6667   20.8862 C   0  0  0  0  0  0  0  0  0  0  0  0
    6.9196  -15.0064   22.2593 C   0  0  1  0  0  0  0  0  0  0  0  0
    7.0358  -16.3469   22.4040 O   0  0  0  0  0  0  0  0  0  0  0  0
    8.1981  -14.2064   22.5529 C   0  0  2  0  0  0  0  0  0  0  0  0
    9.1803  -14.8655   21.6521 N   0  0  0  0  0  0  0  0  0  0  0  0
    8.6681  -14.4244   23.9301 C   0  0  0  0  0  0  0  0  0  0  0  0
    9.7816  -15.0777   24.0358 O   0  0  0  0  0  0  0  0  0  0  0  0
    8.0586  -14.0103   25.1194 N   0  0  0  0  0  0  0  0  0  0  0  0
    6.7755  -13.3823   25.2332 C   0  0  0  0  0  0  0  0  0  0  0  0
    6.9802  -12.4156   26.3813 C   0  0  0  0  0  0  0  0  0  0  0  0
    8.3640  -12.7270   26.9646 C   0  0  0  0  0  0  0  0  0  0  0  0
    8.5520  -14.1635   26.4450 C   0  0  1  0  0  0  0  0  0  0  0  0
    7.7745  -15.1175   27.2613 C   0  0  0  0  0  0  0  0  0  0  0  0
    8.2422  -15.5124   28.4941 O   0  0  0  0  0  0  0  0  0  0  0  0
    6.6975  -15.5635   26.8343 O   0  0  0  0  0  0  0  0  0  0  0  0
  2  1  1  6
  3  2  1  0
  4  3  1  0
  5 11  1  0
  5  2  1  0
  6  5  2  0
  8  7  1  6
  8 10  1  0
  9  8  1  0
 10 12  1  0
 10 11  1  6
 12 14  1  0
 13 12  2  0
 14 15  1  0
 14 18  1  0
 15 16  1  0
 16 17  1  0
 18 19  1  1
 18 17  1  0
 19 20  1  0
 21 19  2  0
M  END
$$$$
