CTP.pdb
     RDKit          3D

 21 21  0  0  1  0  0  0  0  0999 V2000
   10.1847  -15.1646   18.1597 N   0  0  0  0  0  0  0  0  0  0  0  0
   10.6487  -15.1534   19.5205 C   0  0  1  0  0  0  0  0  0  0  0  0
   12.0046  -14.4749   19.5331 C   0  0  0  0  0  0  0  0  0  0  0  0
   12.6781  -14.6383   21.2261 S   0  0  0  0  0  0  0  0  0  0  0  0
    9.6889  -14.4686   20.4308 C   0  0  0  0  0  0  0  0  0  0  0  0
    9.2142  -13.3583   20.1480 O   0  0  0  0  0  0  0  0  0  0  0  0
    6.5148  -15.3810   21.0604 C   0  0  0  0  0  0  0  0  0  0  0  0
    7.1572  -15.5213   22.4202 C   0  0  1  0  0  0  0  0  0  0  0  0
    7.4651  -16.8157   22.6674 O   0  0  0  0  0  0  0  0  0  0  0  0
    8.3263  -14.5347   22.5644 C   0  0  2  0  0  0  0  0  0  0  0  0
    9.3280  -15.1151   21.6316 N   0  0  0  0  0  0  0  0  0  0  0  0
    8.9158  -14.5880   23.9115 C   0  0  0  0  0  0  0  0  0  0  0  0
   10.1289  -15.0386   23.9651 O   0  0  0  0  0  0  0  0  0  0  0  0
    8.3237  -14.2108   25.1217 N   0  0  0  0  0  0  0  0  0  0  0  0
    6.9426  -13.8816   25.3164 C   0  0  0  0  0  0  0  0  0  0  0  0
    7.0067  -12.7884   26.3630 C   0  0  0  0  0  0  0  0  0  0  0  0
    8.4672  -12.7213   26.8263 C   0  0  0  0  0  0  0  0  0  0  0  0
    8.9439  -14.1209   26.3990 C   0  0  1  0  0  0  0  0  0  0  0  0
    8.4795  -15.1435   27.3579 C   0  0  0  0  0  0  0  0  0  0  0  0
    7.5212  -16.0573   26.9824 O   0  0  0  0  0  0  0  0  0  0  0  0
    8.9547  -15.1784   28.5043 O   0  0  0  0  0  0  0  0  0  0  0  0
  2  1  1  6
  3  2  1  0
  4  3  1  0
  5 11  1  0
  5  2  1  0
  6  5  2  0
  8  7  1  6
  8 10  1  0
  9  8  1  0
 10 12  1  0
 10 11  1  6
 12 14  1  0
 13 12  2  0
 14 15  1  0
 14 18  1  0
 15 16  1  0
 16 17  1  0
 18 19  1  1
 18 17  1  0
 19 20  1  0
 21 19  2  0
M  END
$$$$
