CTP.pdb
     RDKit          3D

 21 21  0  0  1  0  0  0  0  0999 V2000
    8.8275  -15.8560   18.7500 N   0  0  0  0  0  0  0  0  0  0  0  0
    8.7783  -14.7127   19.6204 C   0  0  1  0  0  0  0  0  0  0  0  0
    8.3980  -13.5131   18.7746 C   0  0  0  0  0  0  0  0  0  0  0  0
    8.3422  -12.0608   19.8855 S   0  0  0  0  0  0  0  0  0  0  0  0
    7.8228  -14.9101   20.7459 C   0  0  0  0  0  0  0  0  0  0  0  0
    6.6268  -15.1635   20.5377 O   0  0  0  0  0  0  0  0  0  0  0  0
    6.0828  -16.6424   22.0971 C   0  0  0  0  0  0  0  0  0  0  0  0
    6.9993  -16.3364   23.2581 C   0  0  1  0  0  0  0  0  0  0  0  0
    8.0293  -17.2135   23.2925 O   0  0  0  0  0  0  0  0  0  0  0  0
    7.4057  -14.8548   23.2432 C   0  0  2  0  0  0  0  0  0  0  0  0
    8.3110  -14.8017   22.0650 N   0  0  0  0  0  0  0  0  0  0  0  0
    8.2158  -14.5044   24.4206 C   0  0  0  0  0  0  0  0  0  0  0  0
    9.4942  -14.6539   24.2745 O   0  0  0  0  0  0  0  0  0  0  0  0
    7.7682  -14.0337   25.6597 N   0  0  0  0  0  0  0  0  0  0  0  0
    6.4011  -13.9307   26.0770 C   0  0  0  0  0  0  0  0  0  0  0  0
    6.4076  -12.6772   26.9274 C   0  0  0  0  0  0  0  0  0  0  0  0
    7.8777  -12.2665   27.0775 C   0  0  0  0  0  0  0  0  0  0  0  0
    8.5600  -13.6098   26.7631 C   0  0  1  0  0  0  0  0  0  0  0  0
    8.4879  -14.5147   27.9280 C   0  0  0  0  0  0  0  0  0  0  0  0
    9.2859  -14.2904   29.0268 O   0  0  0  0  0  0  0  0  0  0  0  0
    7.7061  -15.4790   27.9154 O   0  0  0  0  0  0  0  0  0  0  0  0
  2  1  1  6
  3  2  1  0
  4  3  1  0
  5 11  1  0
  5  2  1  0
  6  5  2  0
  8  7  1  6
  8 10  1  0
  9  8  1  0
 10 12  1  0
 10 11  1  6
 12 14  1  0
 13 12  2  0
 14 15  1  0
 14 18  1  0
 15 16  1  0
 16 17  1  0
 18 19  1  1
 18 17  1  0
 19 20  1  0
 21 19  2  0
M  END
$$$$
