CTP.pdb
     RDKit          3D

 21 21  0  0  1  0  0  0  0  0999 V2000
    7.9711  -15.1940   18.2861 N   0  0  0  0  0  0  0  0  0  0  0  0
    8.3847  -14.4128   19.4200 C   0  0  1  0  0  0  0  0  0  0  0  0
    8.3223  -12.9533   19.0140 C   0  0  0  0  0  0  0  0  0  0  0  0
    8.8697  -11.9653   20.4529 S   0  0  0  0  0  0  0  0  0  0  0  0
    7.5418  -14.6809   20.6186 C   0  0  0  0  0  0  0  0  0  0  0  0
    6.3387  -14.9616   20.5094 O   0  0  0  0  0  0  0  0  0  0  0  0
    6.8334  -17.0936   24.3146 C   0  0  0  0  0  0  0  0  0  0  0  0
    7.3329  -16.4959   23.0206 C   0  0  1  0  0  0  0  0  0  0  0  0
    6.6114  -16.9608   21.9744 O   0  0  0  0  0  0  0  0  0  0  0  0
    7.4076  -14.9653   23.1314 C   0  0  2  0  0  0  0  0  0  0  0  0
    8.1459  -14.6083   21.8913 N   0  0  0  0  0  0  0  0  0  0  0  0
    8.2473  -14.5455   24.2644 C   0  0  0  0  0  0  0  0  0  0  0  0
    9.5238  -14.6602   24.0769 O   0  0  0  0  0  0  0  0  0  0  0  0
    7.8292  -14.0425   25.5011 N   0  0  0  0  0  0  0  0  0  0  0  0
    6.4708  -13.8543   25.9174 C   0  0  0  0  0  0  0  0  0  0  0  0
    6.5537  -12.5995   26.7619 C   0  0  0  0  0  0  0  0  0  0  0  0
    8.0461  -12.2787   26.9107 C   0  0  0  0  0  0  0  0  0  0  0  0
    8.6452  -13.6626   26.6029 C   0  0  1  0  0  0  0  0  0  0  0  0
    8.5178  -14.5559   27.7719 C   0  0  0  0  0  0  0  0  0  0  0  0
    9.3765  -14.4227   28.8393 O   0  0  0  0  0  0  0  0  0  0  0  0
    7.6346  -15.4281   27.7913 O   0  0  0  0  0  0  0  0  0  0  0  0
  2  1  1  6
  3  2  1  0
  4  3  1  0
  5 11  1  0
  5  2  1  0
  6  5  2  0
  8  7  1  1
  8 10  1  0
  9  8  1  0
 10 12  1  0
 10 11  1  6
 12 14  1  0
 13 12  2  0
 14 15  1  0
 14 18  1  0
 15 16  1  0
 16 17  1  0
 18 19  1  1
 18 17  1  0
 19 20  1  0
 21 19  2  0
M  END
$$$$
