CTP.pdb
     RDKit          3D

 21 21  0  0  1  0  0  0  0  0999 V2000
    5.4167  -12.3927   26.7091 N   0  0  0  0  0  0  0  0  0  0  0  0
    6.4338  -12.2230   25.7072 C   0  0  1  0  0  0  0  0  0  0  0  0
    7.6848  -11.7302   26.4080 C   0  0  0  0  0  0  0  0  0  0  0  0
    8.1205  -12.9720   27.6786 S   0  0  0  0  0  0  0  0  0  0  0  0
    6.6914  -13.4830   24.9557 C   0  0  0  0  0  0  0  0  0  0  0  0
    6.5220  -14.5927   25.4829 O   0  0  0  0  0  0  0  0  0  0  0  0
    8.3290  -12.7393   21.3823 C   0  0  0  0  0  0  0  0  0  0  0  0
    7.5011  -14.0026   21.3873 C   0  0  1  0  0  0  0  0  0  0  0  0
    7.9331  -14.8559   20.4299 O   0  0  0  0  0  0  0  0  0  0  0  0
    7.4340  -14.5932   22.8041 C   0  0  2  0  0  0  0  0  0  0  0  0
    7.1357  -13.3868   23.6203 N   0  0  0  0  0  0  0  0  0  0  0  0
    8.7459  -15.0932   23.2442 C   0  0  0  0  0  0  0  0  0  0  0  0
    9.4480  -14.2586   23.9431 O   0  0  0  0  0  0  0  0  0  0  0  0
    9.3109  -16.3494   22.9986 N   0  0  0  0  0  0  0  0  0  0  0  0
    8.7336  -17.3902   22.2004 C   0  0  0  0  0  0  0  0  0  0  0  0
    9.1645  -18.6455   22.9305 C   0  0  0  0  0  0  0  0  0  0  0  0
   10.1467  -18.1948   24.0188 C   0  0  0  0  0  0  0  0  0  0  0  0
   10.5733  -16.8334   23.4413 C   0  0  1  0  0  0  0  0  0  0  0  0
   11.5546  -17.0149   22.3527 C   0  0  0  0  0  0  0  0  0  0  0  0
   11.1838  -16.7956   21.0455 O   0  0  0  0  0  0  0  0  0  0  0  0
   12.7155  -17.3658   22.6179 O   0  0  0  0  0  0  0  0  0  0  0  0
  2  1  1  1
  3  2  1  0
  4  3  1  0
  5 11  1  0
  5  2  1  0
  6  5  2  0
  8  7  1  1
  8 10  1  0
  9  8  1  0
 10 12  1  0
 10 11  1  1
 12 14  1  0
 13 12  2  0
 14 15  1  0
 14 18  1  0
 15 16  1  0
 16 17  1  0
 18 19  1  6
 18 17  1  0
 19 20  1  0
 21 19  2  0
M  END
$$$$
