CTP.pdb
     RDKit          3D

 21 21  0  0  1  0  0  0  0  0999 V2000
    1.6654  -19.8085   20.8932 N   0  0  0  0  0  0  0  0  0  0  0  0
    2.3026  -19.1672   22.0112 C   0  0  1  0  0  0  0  0  0  0  0  0
    1.6050  -19.6471   23.2690 C   0  0  0  0  0  0  0  0  0  0  0  0
   -0.0656  -18.9018   23.2816 S   0  0  0  0  0  0  0  0  0  0  0  0
    3.7642  -19.4510   22.0574 C   0  0  0  0  0  0  0  0  0  0  0  0
    4.2176  -20.5505   21.7059 O   0  0  0  0  0  0  0  0  0  0  0  0
    6.3118  -17.3774   20.3756 C   0  0  0  0  0  0  0  0  0  0  0  0
    6.5888  -17.3244   21.8595 C   0  0  1  0  0  0  0  0  0  0  0  0
    6.1048  -16.1780   22.3911 O   0  0  0  0  0  0  0  0  0  0  0  0
    6.1048  -18.6136   22.5408 C   0  0  2  0  0  0  0  0  0  0  0  0
    4.6292  -18.4341   22.5132 N   0  0  0  0  0  0  0  0  0  0  0  0
    6.5032  -18.6595   23.9566 C   0  0  0  0  0  0  0  0  0  0  0  0
    5.7069  -18.0460   24.7735 O   0  0  0  0  0  0  0  0  0  0  0  0
    7.6262  -19.2827   24.5112 N   0  0  0  0  0  0  0  0  0  0  0  0
    8.6800  -19.9231   23.7809 C   0  0  0  0  0  0  0  0  0  0  0  0
    9.0526  -21.0811   24.6835 C   0  0  0  0  0  0  0  0  0  0  0  0
    8.2728  -20.8780   25.9884 C   0  0  0  0  0  0  0  0  0  0  0  0
    7.9774  -19.3709   25.8871 C   0  0  1  0  0  0  0  0  0  0  0  0
    9.1726  -18.5815   26.2466 C   0  0  0  0  0  0  0  0  0  0  0  0
    9.5857  -18.5127   27.5577 O   0  0  0  0  0  0  0  0  0  0  0  0
    9.8052  -17.9795   25.3643 O   0  0  0  0  0  0  0  0  0  0  0  0
  2  1  1  6
  3  2  1  0
  4  3  1  0
  5 11  1  0
  5  2  1  0
  6  5  2  0
  8  7  1  6
  8 10  1  0
  9  8  1  0
 10 12  1  0
 10 11  1  1
 12 14  1  0
 13 12  2  0
 14 15  1  0
 14 18  1  0
 15 16  1  0
 16 17  1  0
 18 19  1  6
 18 17  1  0
 19 20  1  0
 21 19  2  0
M  END
$$$$
