CTP.pdb
     RDKit          3D

 21 21  0  0  1  0  0  0  0  0999 V2000
   11.1801  -16.5176   19.4016 N   0  0  0  0  0  0  0  0  0  0  0  0
   10.8638  -16.8050   20.7744 C   0  0  1  0  0  0  0  0  0  0  0  0
   12.1482  -17.2328   21.4572 C   0  0  0  0  0  0  0  0  0  0  0  0
   11.7327  -17.6361   23.1924 S   0  0  0  0  0  0  0  0  0  0  0  0
   10.2460  -15.6359   21.4603 C   0  0  0  0  0  0  0  0  0  0  0  0
   10.7892  -14.5211   21.4468 O   0  0  0  0  0  0  0  0  0  0  0  0
    6.3691  -15.0068   21.2332 C   0  0  0  0  0  0  0  0  0  0  0  0
    6.8389  -15.1452   22.6620 C   0  0  1  0  0  0  0  0  0  0  0  0
    6.5740  -16.3872   23.1296 O   0  0  0  0  0  0  0  0  0  0  0  0
    8.3040  -14.7001   22.7893 C   0  0  2  0  0  0  0  0  0  0  0  0
    9.0196  -15.8250   22.1313 N   0  0  0  0  0  0  0  0  0  0  0  0
    8.7424  -14.6781   24.1938 C   0  0  0  0  0  0  0  0  0  0  0  0
    9.8514  -15.3023   24.4351 O   0  0  0  0  0  0  0  0  0  0  0  0
    8.1074  -14.0670   25.2804 N   0  0  0  0  0  0  0  0  0  0  0  0
    6.8322  -13.4138   25.2515 C   0  0  0  0  0  0  0  0  0  0  0  0
    7.0212  -12.2739   26.2309 C   0  0  0  0  0  0  0  0  0  0  0  0
    8.3833  -12.5012   26.8982 C   0  0  0  0  0  0  0  0  0  0  0  0
    8.5617  -14.0057   26.6272 C   0  0  1  0  0  0  0  0  0  0  0  0
    7.7467  -14.8033   27.5656 C   0  0  0  0  0  0  0  0  0  0  0  0
    6.6392  -15.4832   27.1122 O   0  0  0  0  0  0  0  0  0  0  0  0
    8.0616  -14.8601   28.7651 O   0  0  0  0  0  0  0  0  0  0  0  0
  2  1  1  6
  3  2  1  0
  4  3  1  0
  5 11  1  0
  5  2  1  0
  6  5  2  0
  8  7  1  6
  8 10  1  0
  9  8  1  0
 10 12  1  0
 10 11  1  6
 12 14  1  0
 13 12  2  0
 14 15  1  0
 14 18  1  0
 15 16  1  0
 16 17  1  0
 18 19  1  1
 18 17  1  0
 19 20  1  0
 21 19  2  0
M  END
$$$$
