CTP.pdb
     RDKit          3D

 21 21  0  0  1  0  0  0  0  0999 V2000
    7.8093  -16.3176   19.7027 N   0  0  0  0  0  0  0  0  0  0  0  0
    8.7931  -15.8065   20.6181 C   0  0  1  0  0  0  0  0  0  0  0  0
    9.4372  -14.5987   19.9659 C   0  0  0  0  0  0  0  0  0  0  0  0
    8.0953  -13.4294   19.5432 S   0  0  0  0  0  0  0  0  0  0  0  0
    8.1979  -15.4592   21.9388 C   0  0  0  0  0  0  0  0  0  0  0  0
    7.0560  -14.9832   22.0248 O   0  0  0  0  0  0  0  0  0  0  0  0
    6.2650  -16.5125   23.7173 C   0  0  0  0  0  0  0  0  0  0  0  0
    7.4715  -16.6731   24.6117 C   0  0  1  0  0  0  0  0  0  0  0  0
    8.0495  -17.8808   24.4152 O   0  0  0  0  0  0  0  0  0  0  0  0
    8.4131  -15.4682   24.4621 C   0  0  2  0  0  0  0  0  0  0  0  0
    8.9671  -15.6853   23.0996 N   0  0  0  0  0  0  0  0  0  0  0  0
    9.5439  -15.5458   25.4004 C   0  0  0  0  0  0  0  0  0  0  0  0
   10.6479  -15.9991   24.8971 O   0  0  0  0  0  0  0  0  0  0  0  0
    9.5613  -15.1888   26.7531 N   0  0  0  0  0  0  0  0  0  0  0  0
    8.4435  -14.7105   27.5117 C   0  0  0  0  0  0  0  0  0  0  0  0
    9.0847  -13.7119   28.4530 C   0  0  0  0  0  0  0  0  0  0  0  0
   10.6001  -13.8552   28.2653 C   0  0  0  0  0  0  0  0  0  0  0  0
   10.6579  -15.2673   27.6560 C   0  0  1  0  0  0  0  0  0  0  0  0
   10.4911  -16.2933   28.7050 C   0  0  0  0  0  0  0  0  0  0  0  0
   11.5103  -16.5418   29.5959 O   0  0  0  0  0  0  0  0  0  0  0  0
    9.4295  -16.9323   28.7826 O   0  0  0  0  0  0  0  0  0  0  0  0
  2  1  1  6
  3  2  1  0
  4  3  1  0
  5 11  1  0
  5  2  1  0
  6  5  2  0
  8  7  1  6
  8 10  1  0
  9  8  1  0
 10 12  1  0
 10 11  1  6
 12 14  1  0
 13 12  2  0
 14 15  1  0
 14 18  1  0
 15 16  1  0
 16 17  1  0
 18 19  1  1
 18 17  1  0
 19 20  1  0
 21 19  2  0
M  END
$$$$
