MIR.pdb
     RDKit          3D

 28 27  0  0  1  0  0  0  0  0999 V2000
    6.0845  -20.9342   22.3699 C   0  0  0  0  0  0  0  0  0  0  0  0
    4.6737  -19.8627   22.1400 S   0  0  0  0  0  0  0  0  0  0  0  0
    5.0283  -18.1743   21.6900 C   0  0  0  0  0  0  0  0  0  0  0  0
    5.7294  -17.3679   22.7290 C   0  0  0  0  0  0  0  0  0  0  0  0
    5.9241  -15.9468   22.3088 C   0  0  2  0  0  0  0  0  0  0  0  0
    6.2247  -15.7834   20.9248 N   0  0  0  0  0  0  0  0  0  0  0  0
    7.0158  -15.3099   23.1304 C   0  0  0  0  0  0  0  0  0  0  0  0
    8.1871  -15.3066   22.6535 O   0  0  0  0  0  0  0  0  0  0  0  0
    5.6697  -11.2680   26.4198 C   0  0  0  0  0  0  0  0  0  0  0  0
    6.5451  -12.0521   25.4392 C   0  0  0  0  0  0  0  0  0  0  0  0
    7.2038  -13.1873   26.1378 C   0  0  2  0  0  0  0  0  0  0  0  0
    8.1752  -12.7301   27.2015 C   0  0  0  0  0  0  0  0  0  0  0  0
    7.8382  -14.1852   25.1947 C   0  0  2  0  0  0  0  0  0  0  0  0
    6.7267  -14.7458   24.3779 N   0  0  0  0  0  0  0  0  0  0  0  0
    8.4763  -15.3302   25.8598 C   0  0  0  0  0  0  0  0  0  0  0  0
    7.7732  -16.1120   26.5685 O   0  0  0  0  0  0  0  0  0  0  0  0
   15.3408  -19.9117   26.5321 N   0  0  0  0  0  0  0  0  0  0  0  0
   14.8541  -20.5797   25.3685 C   0  0  0  0  0  0  0  0  0  0  0  0
   15.1710  -21.8047   25.1433 N   0  0  0  0  0  0  0  0  0  0  0  0
   14.0146  -19.9348   24.4216 N   0  0  0  0  0  0  0  0  0  0  0  0
   13.5875  -18.5718   24.5768 C   0  0  0  0  0  0  0  0  0  0  0  0
   12.3939  -18.3809   25.4557 C   0  0  0  0  0  0  0  0  0  0  0  0
   11.6251  -17.1345   25.1800 C   0  0  0  0  0  0  0  0  0  0  0  0
   10.4958  -16.8569   26.0962 C   0  0  2  0  0  0  0  0  0  0  0  0
    9.8765  -15.6024   25.7327 N   0  0  0  0  0  0  0  0  0  0  0  0
   10.8301  -16.8847   27.5413 C   0  0  0  0  0  0  0  0  0  0  0  0
   10.8548  -15.8424   28.2377 O   0  0  0  0  0  0  0  0  0  0  0  0
   11.1328  -18.0673   28.1855 O   0  0  0  0  0  0  0  0  0  0  0  0
  2  1  1  0
  3  2  1  0
  4  3  1  0
  5  4  1  0
  5  6  1  6
  7  5  1  0
  7  8  2  0
 10  9  1  0
 11 10  1  0
 11 13  1  0
 11 12  1  1
 13 15  1  0
 13 14  1  6
 14  7  1  0
 15 16  2  0
 18 17  1  0
 18 20  1  0
 19 18  2  0
 20 21  1  0
 21 22  1  0
 22 23  1  0
 24 23  1  6
 24 26  1  0
 25 24  1  0
 25 15  1  0
 26 27  2  0
 26 28  1  0
M  END
$$$$
