MIR.pdb
     RDKit          3D

 28 27  0  0  1  0  0  0  0  0999 V2000
   11.6736  -17.2477   29.0550 C   0  0  0  0  0  0  0  0  0  0  0  0
   10.7591  -18.7188   29.4917 S   0  0  0  0  0  0  0  0  0  0  0  0
    9.0993  -18.8371   28.8516 C   0  0  0  0  0  0  0  0  0  0  0  0
    8.8058  -17.9785   27.6691 C   0  0  0  0  0  0  0  0  0  0  0  0
    7.3688  -18.0436   27.2631 C   0  0  2  0  0  0  0  0  0  0  0  0
    6.9270  -19.3458   26.8871 N   0  0  0  0  0  0  0  0  0  0  0  0
    7.1087  -17.0864   26.1280 C   0  0  0  0  0  0  0  0  0  0  0  0
    6.6066  -17.5540   25.0657 O   0  0  0  0  0  0  0  0  0  0  0  0
    6.4156  -12.0168   27.5250 C   0  0  0  0  0  0  0  0  0  0  0  0
    6.0637  -13.1367   26.5427 C   0  0  0  0  0  0  0  0  0  0  0  0
    7.2206  -13.4166   25.6517 C   0  0  2  0  0  0  0  0  0  0  0  0
    7.3756  -12.3844   24.5588 C   0  0  0  0  0  0  0  0  0  0  0  0
    7.2225  -14.8231   25.0950 C   0  0  2  0  0  0  0  0  0  0  0  0
    7.4186  -15.7283   26.2608 N   0  0  0  0  0  0  0  0  0  0  0  0
    8.3244  -15.1077   24.1649 C   0  0  0  0  0  0  0  0  0  0  0  0
    9.4296  -15.5337   24.6177 O   0  0  0  0  0  0  0  0  0  0  0  0
    8.0928  -15.4810   17.2585 N   0  0  0  0  0  0  0  0  0  0  0  0
    8.1437  -14.1316   16.7965 C   0  0  0  0  0  0  0  0  0  0  0  0
    8.1981  -13.8784   15.5376 N   0  0  0  0  0  0  0  0  0  0  0  0
    8.1387  -13.0262   17.6881 N   0  0  0  0  0  0  0  0  0  0  0  0
    7.9992  -13.1863   19.1091 C   0  0  0  0  0  0  0  0  0  0  0  0
    9.0593  -14.0167   19.7574 C   0  0  0  0  0  0  0  0  0  0  0  0
    8.5507  -15.2556   20.4108 C   0  0  0  0  0  0  0  0  0  0  0  0
    9.0696  -15.5276   21.7704 C   0  0  2  0  0  0  0  0  0  0  0  0
    8.1947  -14.9248   22.7505 N   0  0  0  0  0  0  0  0  0  0  0  0
   10.4799  -15.1301   22.0022 C   0  0  0  0  0  0  0  0  0  0  0  0
   10.7821  -14.1030   22.6548 O   0  0  0  0  0  0  0  0  0  0  0  0
   11.5277  -15.8778   21.5038 O   0  0  0  0  0  0  0  0  0  0  0  0
  2  1  1  0
  3  2  1  0
  4  3  1  0
  5  4  1  0
  5  6  1  6
  7  5  1  0
  7  8  2  0
 10  9  1  0
 11 10  1  0
 11 13  1  0
 11 12  1  6
 13 15  1  0
 13 14  1  1
 14  7  1  0
 15 16  2  0
 18 17  1  0
 18 20  1  0
 19 18  2  0
 20 21  1  0
 21 22  1  0
 22 23  1  0
 24 23  1  6
 24 26  1  0
 25 24  1  0
 25 15  1  0
 26 27  2  0
 26 28  1  0
M  END
$$$$
