MIR.pdb
     RDKit          3D

 28 27  0  0  1  0  0  0  0  0999 V2000
    8.6835  -22.2158   19.7937 C   0  0  0  0  0  0  0  0  0  0  0  0
    7.7469  -22.1182   18.2757 S   0  0  0  0  0  0  0  0  0  0  0  0
    7.7058  -20.5267   17.4730 C   0  0  0  0  0  0  0  0  0  0  0  0
    8.5401  -19.4672   18.1077 C   0  0  0  0  0  0  0  0  0  0  0  0
    8.3904  -18.1441   17.4286 C   0  0  2  0  0  0  0  0  0  0  0  0
    8.9231  -18.1029   16.1069 N   0  0  0  0  0  0  0  0  0  0  0  0
    9.0366  -17.0624   18.2561 C   0  0  0  0  0  0  0  0  0  0  0  0
   10.2202  -16.7252   17.9651 O   0  0  0  0  0  0  0  0  0  0  0  0
    6.1174  -12.9007   20.2143 C   0  0  0  0  0  0  0  0  0  0  0  0
    7.2790  -13.6976   19.6154 C   0  0  0  0  0  0  0  0  0  0  0  0
    7.9244  -14.5278   20.6665 C   0  0  2  0  0  0  0  0  0  0  0  0
    8.4003  -13.7082   21.8436 C   0  0  0  0  0  0  0  0  0  0  0  0
    9.0183  -15.4264   20.1336 C   0  0  2  0  0  0  0  0  0  0  0  0
    8.3370  -16.4615   19.3084 N   0  0  0  0  0  0  0  0  0  0  0  0
    9.7660  -16.1540   21.1689 C   0  0  0  0  0  0  0  0  0  0  0  0
    9.2320  -17.1526   21.7394 O   0  0  0  0  0  0  0  0  0  0  0  0
   17.9150  -15.6313   23.8254 N   0  0  0  0  0  0  0  0  0  0  0  0
   17.7655  -17.0501   23.8630 C   0  0  0  0  0  0  0  0  0  0  0  0
   18.5816  -17.7707   24.5460 N   0  0  0  0  0  0  0  0  0  0  0  0
   16.7296  -17.7205   23.1597 N   0  0  0  0  0  0  0  0  0  0  0  0
   15.7541  -17.0160   22.3744 C   0  0  0  0  0  0  0  0  0  0  0  0
   14.3426  -17.1613   22.8433 C   0  0  0  0  0  0  0  0  0  0  0  0
   13.3486  -16.4011   22.0340 C   0  0  0  0  0  0  0  0  0  0  0  0
   11.9327  -16.5592   22.4365 C   0  0  2  0  0  0  0  0  0  0  0  0
   11.0913  -15.7770   21.5591 N   0  0  0  0  0  0  0  0  0  0  0  0
   11.6405  -16.2581   23.8594 C   0  0  0  0  0  0  0  0  0  0  0  0
   11.1486  -15.1623   24.2193 O   0  0  0  0  0  0  0  0  0  0  0  0
   11.9016  -17.1768   24.8559 O   0  0  0  0  0  0  0  0  0  0  0  0
  2  1  1  0
  3  2  1  0
  4  3  1  0
  5  4  1  0
  5  6  1  6
  7  5  1  0
  7  8  2  0
 10  9  1  0
 11 10  1  0
 11 13  1  0
 11 12  1  1
 13 15  1  0
 13 14  1  6
 14  7  1  0
 15 16  2  0
 18 17  1  0
 18 20  1  0
 19 18  2  0
 20 21  1  0
 21 22  1  0
 22 23  1  0
 24 23  1  6
 24 26  1  0
 25 24  1  0
 25 15  1  0
 26 27  2  0
 26 28  1  0
M  END
$$$$
