MIR.pdb
     RDKit          3D

 28 27  0  0  1  0  0  0  0  0999 V2000
    5.2285  -19.1046   22.2536 C   0  0  0  0  0  0  0  0  0  0  0  0
    6.6728  -18.7566   21.2617 S   0  0  0  0  0  0  0  0  0  0  0  0
    7.2418  -17.0669   21.2594 C   0  0  0  0  0  0  0  0  0  0  0  0
    6.1763  -16.0317   21.3799 C   0  0  0  0  0  0  0  0  0  0  0  0
    6.7239  -14.6427   21.3098 C   0  0  2  0  0  0  0  0  0  0  0  0
    7.5109  -14.3835   20.1498 N   0  0  0  0  0  0  0  0  0  0  0  0
    7.5441  -14.3480   22.5398 C   0  0  0  0  0  0  0  0  0  0  0  0
    8.8021  -14.4369   22.4449 O   0  0  0  0  0  0  0  0  0  0  0  0
    8.3002  -11.2834   26.9764 C   0  0  0  0  0  0  0  0  0  0  0  0
    7.5594  -12.6077   27.1772 C   0  0  0  0  0  0  0  0  0  0  0  0
    6.8629  -12.9985   25.9231 C   0  0  2  0  0  0  0  0  0  0  0  0
    5.5852  -13.7631   26.1819 C   0  0  0  0  0  0  0  0  0  0  0  0
    7.7570  -13.7223   24.9409 C   0  0  2  0  0  0  0  0  0  0  0  0
    6.9193  -13.9899   23.7395 N   0  0  0  0  0  0  0  0  0  0  0  0
    8.2370  -15.0314   25.4060 C   0  0  0  0  0  0  0  0  0  0  0  0
    7.4347  -16.0125   25.4462 O   0  0  0  0  0  0  0  0  0  0  0  0
   14.7689  -18.7153   22.6260 N   0  0  0  0  0  0  0  0  0  0  0  0
   13.5586  -19.0325   21.9394 C   0  0  0  0  0  0  0  0  0  0  0  0
   13.5762  -19.8186   20.9228 N   0  0  0  0  0  0  0  0  0  0  0  0
   12.3021  -18.5035   22.3376 N   0  0  0  0  0  0  0  0  0  0  0  0
   12.1860  -17.4354   23.2915 C   0  0  0  0  0  0  0  0  0  0  0  0
   11.6009  -17.8276   24.6096 C   0  0  0  0  0  0  0  0  0  0  0  0
   11.4707  -16.7034   25.5791 C   0  0  0  0  0  0  0  0  0  0  0  0
   10.1340  -16.5313   26.1917 C   0  0  2  0  0  0  0  0  0  0  0  0
    9.5926  -15.2448   25.8154 N   0  0  0  0  0  0  0  0  0  0  0  0
   10.0814  -16.7196   27.6623 C   0  0  0  0  0  0  0  0  0  0  0  0
    9.9381  -17.8513   28.1826 O   0  0  0  0  0  0  0  0  0  0  0  0
   10.1863  -15.6490   28.5273 O   0  0  0  0  0  0  0  0  0  0  0  0
  2  1  1  0
  3  2  1  0
  4  3  1  0
  5  4  1  0
  5  6  1  6
  7  5  1  0
  7  8  2  0
 10  9  1  0
 11 10  1  0
 11 13  1  0
 11 12  1  1
 13 15  1  0
 13 14  1  6
 14  7  1  0
 15 16  2  0
 18 17  1  0
 18 20  1  0
 19 18  2  0
 20 21  1  0
 21 22  1  0
 22 23  1  0
 24 23  1  1
 24 26  1  0
 25 24  1  0
 25 15  1  0
 26 27  2  0
 26 28  1  0
M  END
$$$$
