MIR.pdb
     RDKit          3D

 28 27  0  0  1  0  0  0  0  0999 V2000
    7.7528  -11.3449   18.8567 C   0  0  0  0  0  0  0  0  0  0  0  0
    7.0612  -12.8500   18.1876 S   0  0  0  0  0  0  0  0  0  0  0  0
    7.1075  -14.2816   19.2493 C   0  0  0  0  0  0  0  0  0  0  0  0
    7.8263  -14.0976   20.5420 C   0  0  0  0  0  0  0  0  0  0  0  0
    7.8121  -15.3350   21.3803 C   0  0  2  0  0  0  0  0  0  0  0  0
    6.5141  -15.8896   21.5804 N   0  0  0  0  0  0  0  0  0  0  0  0
    8.4436  -15.0583   22.7209 C   0  0  0  0  0  0  0  0  0  0  0  0
    9.7030  -14.9545   22.7693 O   0  0  0  0  0  0  0  0  0  0  0  0
    5.7569  -11.9485   26.0840 C   0  0  0  0  0  0  0  0  0  0  0  0
    6.8482  -12.6449   25.2672 C   0  0  0  0  0  0  0  0  0  0  0  0
    7.3332  -13.8519   25.9872 C   0  0  2  0  0  0  0  0  0  0  0  0
    7.8810  -13.5297   27.3583 C   0  0  0  0  0  0  0  0  0  0  0  0
    8.3054  -14.6822   25.1789 C   0  0  2  0  0  0  0  0  0  0  0  0
    7.6488  -14.9241   23.8647 N   0  0  0  0  0  0  0  0  0  0  0  0
    8.5901  -16.0084   25.7453 C   0  0  0  0  0  0  0  0  0  0  0  0
    7.6929  -16.9040   25.7199 O   0  0  0  0  0  0  0  0  0  0  0  0
   10.4315  -23.3923   24.2396 N   0  0  0  0  0  0  0  0  0  0  0  0
   10.2829  -22.3677   23.2571 C   0  0  0  0  0  0  0  0  0  0  0  0
   10.3883  -22.6473   22.0071 N   0  0  0  0  0  0  0  0  0  0  0  0
   10.0187  -21.0169   23.6069 N   0  0  0  0  0  0  0  0  0  0  0  0
   10.7759  -20.3214   24.6107 C   0  0  0  0  0  0  0  0  0  0  0  0
   11.3614  -19.0190   24.1696 C   0  0  0  0  0  0  0  0  0  0  0  0
   10.5889  -17.8223   24.6073 C   0  0  0  0  0  0  0  0  0  0  0  0
   10.5830  -17.5551   26.0634 C   0  0  2  0  0  0  0  0  0  0  0  0
    9.8579  -16.3327   26.3270 N   0  0  0  0  0  0  0  0  0  0  0  0
   11.9186  -17.5295   26.7088 C   0  0  0  0  0  0  0  0  0  0  0  0
   12.6016  -16.4805   26.7811 O   0  0  0  0  0  0  0  0  0  0  0  0
   12.4719  -18.6680   27.2592 O   0  0  0  0  0  0  0  0  0  0  0  0
  2  1  1  0
  3  2  1  0
  4  3  1  0
  5  4  1  0
  5  6  1  1
  7  5  1  0
  7  8  2  0
 10  9  1  0
 11 10  1  0
 11 13  1  0
 11 12  1  1
 13 15  1  0
 13 14  1  6
 14  7  1  0
 15 16  2  0
 18 17  1  0
 18 20  1  0
 19 18  2  0
 20 21  1  0
 21 22  1  0
 22 23  1  0
 24 23  1  6
 24 26  1  0
 25 24  1  0
 25 15  1  0
 26 27  2  0
 26 28  1  0
M  END
$$$$
