MIR.pdb
     RDKit          3D

 28 27  0  0  1  0  0  0  0  0999 V2000
    7.5120  -12.2303   18.9623 C   0  0  0  0  0  0  0  0  0  0  0  0
    6.1743  -13.3599   19.3168 S   0  0  0  0  0  0  0  0  0  0  0  0
    6.6362  -15.0435   19.6789 C   0  0  0  0  0  0  0  0  0  0  0  0
    7.1370  -15.2873   21.0614 C   0  0  0  0  0  0  0  0  0  0  0  0
    8.4073  -14.5518   21.3429 C   0  0  2  0  0  0  0  0  0  0  0  0
    9.5146  -14.9750   20.5509 N   0  0  0  0  0  0  0  0  0  0  0  0
    8.7657  -14.6789   22.8016 C   0  0  0  0  0  0  0  0  0  0  0  0
    9.9011  -15.1550   23.0906 O   0  0  0  0  0  0  0  0  0  0  0  0
    5.9866  -11.3368   26.1548 C   0  0  0  0  0  0  0  0  0  0  0  0
    7.1184  -12.0609   25.4215 C   0  0  0  0  0  0  0  0  0  0  0  0
    7.2775  -13.4374   25.9604 C   0  0  2  0  0  0  0  0  0  0  0  0
    7.5294  -13.4527   27.4504 C   0  0  0  0  0  0  0  0  0  0  0  0
    8.3037  -14.2594   25.2126 C   0  0  2  0  0  0  0  0  0  0  0  0
    7.8608  -14.2793   23.7913 N   0  0  0  0  0  0  0  0  0  0  0  0
    8.3841  -15.6644   25.6369 C   0  0  0  0  0  0  0  0  0  0  0  0
    7.3221  -16.3515   25.7263 O   0  0  0  0  0  0  0  0  0  0  0  0
   13.2283  -19.5010   22.5996 N   0  0  0  0  0  0  0  0  0  0  0  0
   12.6319  -20.7641   22.8928 C   0  0  0  0  0  0  0  0  0  0  0  0
   12.4491  -21.6278   21.9588 N   0  0  0  0  0  0  0  0  0  0  0  0
   12.2185  -21.1190   24.2043 N   0  0  0  0  0  0  0  0  0  0  0  0
   12.4272  -20.2573   25.3350 C   0  0  0  0  0  0  0  0  0  0  0  0
   11.1792  -19.7211   25.9583 C   0  0  0  0  0  0  0  0  0  0  0  0
   10.8887  -18.2995   25.6189 C   0  0  0  0  0  0  0  0  0  0  0  0
    9.7619  -17.6785   26.3512 C   0  0  2  0  0  0  0  0  0  0  0  0
    9.6304  -16.2955   25.9520 N   0  0  0  0  0  0  0  0  0  0  0  0
    9.8212  -17.8011   27.8285 C   0  0  0  0  0  0  0  0  0  0  0  0
   10.0195  -16.8098   28.5700 O   0  0  0  0  0  0  0  0  0  0  0  0
    9.6620  -19.0210   28.4546 O   0  0  0  0  0  0  0  0  0  0  0  0
  2  1  1  0
  3  2  1  0
  4  3  1  0
  5  4  1  0
  5  6  1  6
  7  5  1  0
  7  8  2  0
 10  9  1  0
 11 10  1  0
 11 13  1  0
 11 12  1  1
 13 15  1  0
 13 14  1  6
 14  7  1  0
 15 16  2  0
 18 17  1  0
 18 20  1  0
 19 18  2  0
 20 21  1  0
 21 22  1  0
 22 23  1  0
 24 23  1  6
 24 26  1  0
 25 24  1  0
 25 15  1  0
 26 27  2  0
 26 28  1  0
M  END
$$$$
