MIR.pdb
     RDKit          3D

 28 27  0  0  1  0  0  0  0  0999 V2000
    5.5477  -16.9303   16.7378 C   0  0  0  0  0  0  0  0  0  0  0  0
    6.3170  -16.8650   18.3487 S   0  0  0  0  0  0  0  0  0  0  0  0
    6.6461  -15.2392   19.0023 C   0  0  0  0  0  0  0  0  0  0  0  0
    7.0082  -15.1907   20.4474 C   0  0  0  0  0  0  0  0  0  0  0  0
    7.1787  -13.7910   20.9430 C   0  0  2  0  0  0  0  0  0  0  0  0
    7.8196  -12.9177   20.0163 N   0  0  0  0  0  0  0  0  0  0  0  0
    7.9515  -13.7917   22.2374 C   0  0  0  0  0  0  0  0  0  0  0  0
    9.2123  -13.7197   22.1714 O   0  0  0  0  0  0  0  0  0  0  0  0
    5.9881  -11.1589   26.4296 C   0  0  0  0  0  0  0  0  0  0  0  0
    6.9415  -11.7717   25.4008 C   0  0  0  0  0  0  0  0  0  0  0  0
    7.2430  -13.1824   25.7607 C   0  0  2  0  0  0  0  0  0  0  0  0
    7.8401  -13.3147   27.1427 C   0  0  0  0  0  0  0  0  0  0  0  0
    8.0751  -13.9017   24.7223 C   0  0  2  0  0  0  0  0  0  0  0  0
    7.2812  -13.8706   23.4632 N   0  0  0  0  0  0  0  0  0  0  0  0
    8.3218  -15.3205   25.0166 C   0  0  0  0  0  0  0  0  0  0  0  0
    7.3504  -16.1356   25.0203 O   0  0  0  0  0  0  0  0  0  0  0  0
   13.3252  -22.5698   22.1651 N   0  0  0  0  0  0  0  0  0  0  0  0
   13.3903  -21.3897   22.9651 C   0  0  0  0  0  0  0  0  0  0  0  0
   14.0217  -21.3985   24.0844 N   0  0  0  0  0  0  0  0  0  0  0  0
   12.7710  -20.1738   22.5711 N   0  0  0  0  0  0  0  0  0  0  0  0
   12.8234  -18.9878   23.3806 C   0  0  0  0  0  0  0  0  0  0  0  0
   11.6784  -18.8181   24.3258 C   0  0  0  0  0  0  0  0  0  0  0  0
   11.0695  -17.4581   24.3102 C   0  0  0  0  0  0  0  0  0  0  0  0
    9.9826  -17.2265   25.2884 C   0  0  2  0  0  0  0  0  0  0  0  0
    9.6325  -15.8240   25.2978 N   0  0  0  0  0  0  0  0  0  0  0  0
   10.2517  -17.7155   26.6629 C   0  0  0  0  0  0  0  0  0  0  0  0
   10.5014  -18.9206   26.9024 O   0  0  0  0  0  0  0  0  0  0  0  0
   10.2362  -16.8592   27.7454 O   0  0  0  0  0  0  0  0  0  0  0  0
  2  1  1  0
  3  2  1  0
  4  3  1  0
  5  4  1  0
  5  6  1  6
  7  5  1  0
  7  8  2  0
 10  9  1  0
 11 10  1  0
 11 13  1  0
 11 12  1  1
 13 15  1  0
 13 14  1  6
 14  7  1  0
 15 16  2  0
 18 17  1  0
 18 20  1  0
 19 18  2  0
 20 21  1  0
 21 22  1  0
 22 23  1  0
 24 23  1  6
 24 26  1  0
 25 24  1  0
 25 15  1  0
 26 27  2  0
 26 28  1  0
M  END
$$$$
