MIR.pdb
     RDKit          3D

 28 27  0  0  1  0  0  0  0  0999 V2000
    7.5624  -18.7161   19.6930 C   0  0  0  0  0  0  0  0  0  0  0  0
    6.4872  -17.7229   18.6689 S   0  0  0  0  0  0  0  0  0  0  0  0
    6.4480  -15.9763   19.0250 C   0  0  0  0  0  0  0  0  0  0  0  0
    7.3565  -15.5243   20.1167 C   0  0  0  0  0  0  0  0  0  0  0  0
    7.1495  -14.0864   20.4685 C   0  0  2  0  0  0  0  0  0  0  0  0
    7.5432  -13.1732   19.4471 N   0  0  0  0  0  0  0  0  0  0  0  0
    7.8876  -13.7541   21.7402 C   0  0  0  0  0  0  0  0  0  0  0  0
    9.0847  -13.3588   21.6410 O   0  0  0  0  0  0  0  0  0  0  0  0
    6.8517  -11.5997   27.2590 C   0  0  0  0  0  0  0  0  0  0  0  0
    7.8075  -12.4407   26.4092 C   0  0  0  0  0  0  0  0  0  0  0  0
    7.1563  -12.8134   25.1256 C   0  0  2  0  0  0  0  0  0  0  0  0
    5.8030  -13.4556   25.3256 C   0  0  0  0  0  0  0  0  0  0  0  0
    8.0408  -13.6451   24.2235 C   0  0  2  0  0  0  0  0  0  0  0  0
    7.2552  -13.8845   22.9816 N   0  0  0  0  0  0  0  0  0  0  0  0
    8.3779  -14.9723   24.7578 C   0  0  0  0  0  0  0  0  0  0  0  0
    7.4795  -15.8645   24.8263 O   0  0  0  0  0  0  0  0  0  0  0  0
   15.3828  -14.4949   22.7508 N   0  0  0  0  0  0  0  0  0  0  0  0
   14.4835  -14.8126   21.6891 C   0  0  0  0  0  0  0  0  0  0  0  0
   14.6180  -14.2587   20.5372 N   0  0  0  0  0  0  0  0  0  0  0  0
   13.4170  -15.7363   21.8520 N   0  0  0  0  0  0  0  0  0  0  0  0
   13.1467  -16.3838   23.1058 C   0  0  0  0  0  0  0  0  0  0  0  0
   11.7351  -16.2697   23.5833 C   0  0  0  0  0  0  0  0  0  0  0  0
   11.4988  -16.8492   24.9357 C   0  0  0  0  0  0  0  0  0  0  0  0
   10.1445  -16.6447   25.4976 C   0  0  2  0  0  0  0  0  0  0  0  0
    9.6980  -15.3014   25.2045 N   0  0  0  0  0  0  0  0  0  0  0  0
   10.0057  -16.9464   26.9434 C   0  0  0  0  0  0  0  0  0  0  0  0
    9.8373  -16.0439   27.7974 O   0  0  0  0  0  0  0  0  0  0  0  0
   10.0587  -18.2428   27.4146 O   0  0  0  0  0  0  0  0  0  0  0  0
  2  1  1  0
  3  2  1  0
  4  3  1  0
  5  4  1  0
  5  6  1  6
  7  5  1  0
  7  8  2  0
 10  9  1  0
 11 10  1  0
 11 13  1  0
 11 12  1  1
 13 15  1  0
 13 14  1  6
 14  7  1  0
 15 16  2  0
 18 17  1  0
 18 20  1  0
 19 18  2  0
 20 21  1  0
 21 22  1  0
 22 23  1  0
 24 23  1  1
 24 26  1  0
 25 24  1  0
 25 15  1  0
 26 27  2  0
 26 28  1  0
M  END
$$$$
