MIR.pdb
     RDKit          3D

 28 27  0  0  1  0  0  0  0  0999 V2000
    5.6432  -21.1520   24.3399 C   0  0  0  0  0  0  0  0  0  0  0  0
    5.0475  -20.7834   22.6966 S   0  0  0  0  0  0  0  0  0  0  0  0
    5.0510  -19.0651   22.2213 C   0  0  0  0  0  0  0  0  0  0  0  0
    6.1064  -18.2264   22.8572 C   0  0  0  0  0  0  0  0  0  0  0  0
    6.0080  -16.7899   22.4562 C   0  0  2  0  0  0  0  0  0  0  0  0
    6.1272  -16.5661   21.0533 N   0  0  0  0  0  0  0  0  0  0  0  0
    7.0550  -15.9794   23.1769 C   0  0  0  0  0  0  0  0  0  0  0  0
    8.1971  -15.8828   22.6425 O   0  0  0  0  0  0  0  0  0  0  0  0
    5.7937  -11.6776   25.9956 C   0  0  0  0  0  0  0  0  0  0  0  0
    6.6484  -12.6186   25.1430 C   0  0  0  0  0  0  0  0  0  0  0  0
    7.2773  -13.6564   26.0020 C   0  0  2  0  0  0  0  0  0  0  0  0
    8.2744  -13.0765   26.9784 C   0  0  0  0  0  0  0  0  0  0  0  0
    7.8687  -14.8066   25.2176 C   0  0  2  0  0  0  0  0  0  0  0  0
    6.7575  -15.3610   24.3963 N   0  0  0  0  0  0  0  0  0  0  0  0
    8.3611  -15.9174   26.0447 C   0  0  0  0  0  0  0  0  0  0  0  0
    7.5564  -16.5325   26.8075 O   0  0  0  0  0  0  0  0  0  0  0  0
   15.0987  -19.9485   23.2681 N   0  0  0  0  0  0  0  0  0  0  0  0
   13.9972  -19.2186   22.7287 C   0  0  0  0  0  0  0  0  0  0  0  0
   13.9194  -19.0018   21.4643 N   0  0  0  0  0  0  0  0  0  0  0  0
   12.9563  -18.7054   23.5473 N   0  0  0  0  0  0  0  0  0  0  0  0
   11.8482  -19.5129   23.9767 C   0  0  0  0  0  0  0  0  0  0  0  0
   10.7930  -18.7808   24.7411 C   0  0  0  0  0  0  0  0  0  0  0  0
   11.2747  -18.1621   26.0083 C   0  0  0  0  0  0  0  0  0  0  0  0
   10.2560  -17.4356   26.7995 C   0  0  2  0  0  0  0  0  0  0  0  0
    9.7293  -16.3394   26.0181 N   0  0  0  0  0  0  0  0  0  0  0  0
   10.7044  -16.9684   28.1343 C   0  0  0  0  0  0  0  0  0  0  0  0
   10.7802  -15.7502   28.4210 O   0  0  0  0  0  0  0  0  0  0  0  0
   11.0624  -17.8611   29.1243 O   0  0  0  0  0  0  0  0  0  0  0  0
  2  1  1  0
  3  2  1  0
  4  3  1  0
  5  4  1  0
  5  6  1  6
  7  5  1  0
  7  8  2  0
 10  9  1  0
 11 10  1  0
 11 13  1  0
 11 12  1  6
 13 15  1  0
 13 14  1  6
 14  7  1  0
 15 16  2  0
 18 17  1  0
 18 20  1  0
 19 18  2  0
 20 21  1  0
 21 22  1  0
 22 23  1  0
 24 23  1  6
 24 26  1  0
 25 24  1  0
 25 15  1  0
 26 27  2  0
 26 28  1  0
M  END
$$$$
