MIR.pdb
     RDKit          3D

 28 27  0  0  1  0  0  0  0  0999 V2000
    4.6655  -20.0866   22.7153 C   0  0  0  0  0  0  0  0  0  0  0  0
    4.0017  -19.2612   21.2768 S   0  0  0  0  0  0  0  0  0  0  0  0
    4.4497  -17.5478   21.0714 C   0  0  0  0  0  0  0  0  0  0  0  0
    5.4159  -17.0136   22.0726 C   0  0  0  0  0  0  0  0  0  0  0  0
    5.6451  -15.5453   21.9130 C   0  0  2  0  0  0  0  0  0  0  0  0
    5.8471  -15.1293   20.5644 N   0  0  0  0  0  0  0  0  0  0  0  0
    6.8248  -15.1128   22.7458 C   0  0  0  0  0  0  0  0  0  0  0  0
    7.9570  -15.0649   22.1844 O   0  0  0  0  0  0  0  0  0  0  0  0
    5.9083  -11.4465   26.5478 C   0  0  0  0  0  0  0  0  0  0  0  0
    6.6541  -12.1774   25.4286 C   0  0  0  0  0  0  0  0  0  0  0  0
    7.2904  -13.4115   25.9602 C   0  0  2  0  0  0  0  0  0  0  0  0
    8.3289  -13.1202   27.0188 C   0  0  0  0  0  0  0  0  0  0  0  0
    7.8348  -14.3190   24.8794 C   0  0  2  0  0  0  0  0  0  0  0  0
    6.6564  -14.7791   24.0942 N   0  0  0  0  0  0  0  0  0  0  0  0
    8.4937  -15.5338   25.3799 C   0  0  0  0  0  0  0  0  0  0  0  0
    7.8531  -16.3257   26.1351 O   0  0  0  0  0  0  0  0  0  0  0  0
   14.1311  -21.2844   25.0748 N   0  0  0  0  0  0  0  0  0  0  0  0
   14.6215  -20.7002   23.8685 C   0  0  0  0  0  0  0  0  0  0  0  0
   15.1956  -21.4307   22.9805 N   0  0  0  0  0  0  0  0  0  0  0  0
   14.5027  -19.3110   23.5981 N   0  0  0  0  0  0  0  0  0  0  0  0
   13.9412  -18.3893   24.5465 C   0  0  0  0  0  0  0  0  0  0  0  0
   12.4726  -18.5398   24.7790 C   0  0  0  0  0  0  0  0  0  0  0  0
   11.6839  -17.3009   24.5268 C   0  0  0  0  0  0  0  0  0  0  0  0
   10.4841  -17.1161   25.3742 C   0  0  2  0  0  0  0  0  0  0  0  0
    9.8451  -15.8633   25.0396 N   0  0  0  0  0  0  0  0  0  0  0  0
   10.7179  -17.2189   26.8355 C   0  0  0  0  0  0  0  0  0  0  0  0
   11.0019  -16.2179   27.5350 O   0  0  0  0  0  0  0  0  0  0  0  0
   10.6347  -18.4300   27.4924 O   0  0  0  0  0  0  0  0  0  0  0  0
  2  1  1  0
  3  2  1  0
  4  3  1  0
  5  4  1  0
  5  6  1  6
  7  5  1  0
  7  8  2  0
 10  9  1  0
 11 10  1  0
 11 13  1  0
 11 12  1  1
 13 15  1  0
 13 14  1  6
 14  7  1  0
 15 16  2  0
 18 17  1  0
 18 20  1  0
 19 18  2  0
 20 21  1  0
 21 22  1  0
 22 23  1  0
 24 23  1  6
 24 26  1  0
 25 24  1  0
 25 15  1  0
 26 27  2  0
 26 28  1  0
M  END
$$$$
