MIR.pdb
     RDKit          3D

 28 27  0  0  1  0  0  0  0  0999 V2000
   10.5599  -18.5370   29.3787 C   0  0  0  0  0  0  0  0  0  0  0  0
    9.7315  -20.0190   28.8232 S   0  0  0  0  0  0  0  0  0  0  0  0
    8.1292  -19.7954   28.0739 C   0  0  0  0  0  0  0  0  0  0  0  0
    8.0448  -18.7130   27.0527 C   0  0  0  0  0  0  0  0  0  0  0  0
    6.6734  -18.5866   26.4717 C   0  0  2  0  0  0  0  0  0  0  0  0
    6.2550  -19.7179   25.7118 N   0  0  0  0  0  0  0  0  0  0  0  0
    6.5892  -17.3531   25.6093 C   0  0  0  0  0  0  0  0  0  0  0  0
    6.1332  -17.4832   24.4370 O   0  0  0  0  0  0  0  0  0  0  0  0
    6.7091  -11.2694   26.0102 C   0  0  0  0  0  0  0  0  0  0  0  0
    6.9110  -12.4990   25.1212 C   0  0  0  0  0  0  0  0  0  0  0  0
    7.0508  -13.7184   25.9603 C   0  0  2  0  0  0  0  0  0  0  0  0
    8.1294  -13.5811   27.0099 C   0  0  0  0  0  0  0  0  0  0  0  0
    7.2164  -14.9865   25.1526 C   0  0  2  0  0  0  0  0  0  0  0  0
    7.0065  -16.1124   26.1040 N   0  0  0  0  0  0  0  0  0  0  0  0
    8.5587  -15.1747   24.5842 C   0  0  0  0  0  0  0  0  0  0  0  0
    9.4796  -15.6638   25.3059 O   0  0  0  0  0  0  0  0  0  0  0  0
    7.0510  -12.9403   18.7460 N   0  0  0  0  0  0  0  0  0  0  0  0
    7.6545  -13.9730   17.9674 C   0  0  0  0  0  0  0  0  0  0  0  0
    7.7850  -13.8350   16.6963 N   0  0  0  0  0  0  0  0  0  0  0  0
    8.1284  -15.1793   18.5481 N   0  0  0  0  0  0  0  0  0  0  0  0
    8.4847  -15.2749   19.9368 C   0  0  0  0  0  0  0  0  0  0  0  0
    9.1738  -14.0722   20.4955 C   0  0  0  0  0  0  0  0  0  0  0  0
   10.3253  -14.3871   21.3874 C   0  0  0  0  0  0  0  0  0  0  0  0
   10.0355  -15.2978   22.5180 C   0  0  2  0  0  0  0  0  0  0  0  0
    8.8687  -14.8274   23.2300 N   0  0  0  0  0  0  0  0  0  0  0  0
   11.1664  -15.5326   23.4490 C   0  0  0  0  0  0  0  0  0  0  0  0
   11.1345  -15.1507   24.6428 O   0  0  0  0  0  0  0  0  0  0  0  0
   12.3116  -16.1842   23.0376 O   0  0  0  0  0  0  0  0  0  0  0  0
  2  1  1  0
  3  2  1  0
  4  3  1  0
  5  4  1  0
  5  6  1  6
  7  5  1  0
  7  8  2  0
 10  9  1  0
 11 10  1  0
 11 13  1  0
 11 12  1  1
 13 15  1  0
 13 14  1  1
 14  7  1  0
 15 16  2  0
 18 17  1  0
 18 20  1  0
 19 18  2  0
 20 21  1  0
 21 22  1  0
 22 23  1  0
 24 23  1  6
 24 26  1  0
 25 24  1  0
 25 15  1  0
 26 27  2  0
 26 28  1  0
M  END
$$$$
