MIR.pdb
     RDKit          3D

 28 27  0  0  1  0  0  0  0  0999 V2000
    8.8685  -21.5232   26.3575 C   0  0  0  0  0  0  0  0  0  0  0  0
    7.1604  -22.0461   26.3567 S   0  0  0  0  0  0  0  0  0  0  0  0
    5.9505  -20.7941   25.9729 C   0  0  0  0  0  0  0  0  0  0  0  0
    6.4752  -19.5910   25.2666 C   0  0  0  0  0  0  0  0  0  0  0  0
    5.4223  -18.5508   25.0585 C   0  0  2  0  0  0  0  0  0  0  0  0
    4.3595  -18.9596   24.2006 N   0  0  0  0  0  0  0  0  0  0  0  0
    6.0421  -17.2902   24.5116 C   0  0  0  0  0  0  0  0  0  0  0  0
    5.9956  -17.1045   23.2615 O   0  0  0  0  0  0  0  0  0  0  0  0
    6.0813  -12.5047   27.1116 C   0  0  0  0  0  0  0  0  0  0  0  0
    6.0559  -13.5484   25.9922 C   0  0  0  0  0  0  0  0  0  0  0  0
    7.4099  -14.1351   25.8102 C   0  0  2  0  0  0  0  0  0  0  0  0
    8.4634  -13.0890   25.5280 C   0  0  0  0  0  0  0  0  0  0  0  0
    7.4472  -15.2532   24.7922 C   0  0  2  0  0  0  0  0  0  0  0  0
    6.6457  -16.3661   25.3717 N   0  0  0  0  0  0  0  0  0  0  0  0
    8.7874  -15.8013   24.5395 C   0  0  0  0  0  0  0  0  0  0  0  0
    9.3888  -16.4307   25.4616 O   0  0  0  0  0  0  0  0  0  0  0  0
    8.6120  -12.2575   18.5171 N   0  0  0  0  0  0  0  0  0  0  0  0
    8.4004  -13.5874   18.0442 C   0  0  0  0  0  0  0  0  0  0  0  0
    7.8321  -13.7897   16.9094 N   0  0  0  0  0  0  0  0  0  0  0  0
    8.7980  -14.7280   18.7911 N   0  0  0  0  0  0  0  0  0  0  0  0
    9.7321  -14.6457   19.8797 C   0  0  0  0  0  0  0  0  0  0  0  0
   10.0637  -15.9515   20.5265 C   0  0  0  0  0  0  0  0  0  0  0  0
   11.1149  -15.8626   21.5791 C   0  0  0  0  0  0  0  0  0  0  0  0
   10.7038  -16.2805   22.9385 C   0  0  2  0  0  0  0  0  0  0  0  0
    9.4455  -15.6542   23.2762 N   0  0  0  0  0  0  0  0  0  0  0  0
   11.7117  -16.0544   24.0033 C   0  0  0  0  0  0  0  0  0  0  0  0
   11.4989  -15.2797   24.9659 O   0  0  0  0  0  0  0  0  0  0  0  0
   12.9368  -16.6898   23.9788 O   0  0  0  0  0  0  0  0  0  0  0  0
  2  1  1  0
  3  2  1  0
  4  3  1  0
  5  4  1  0
  5  6  1  6
  7  5  1  0
  7  8  2  0
 10  9  1  0
 11 10  1  0
 11 13  1  0
 11 12  1  6
 13 15  1  0
 13 14  1  1
 14  7  1  0
 15 16  2  0
 18 17  1  0
 18 20  1  0
 19 18  2  0
 20 21  1  0
 21 22  1  0
 22 23  1  0
 24 23  1  6
 24 26  1  0
 25 24  1  0
 25 15  1  0
 26 27  2  0
 26 28  1  0
M  END
$$$$
