MIR.pdb
     RDKit          3D

 28 27  0  0  1  0  0  0  0  0999 V2000
    5.6623  -19.5986   21.7342 C   0  0  0  0  0  0  0  0  0  0  0  0
    4.9310  -18.5547   20.4826 S   0  0  0  0  0  0  0  0  0  0  0  0
    5.4452  -16.8476   20.4775 C   0  0  0  0  0  0  0  0  0  0  0  0
    6.3204  -16.4386   21.6125 C   0  0  0  0  0  0  0  0  0  0  0  0
    6.6670  -14.9854   21.5669 C   0  0  2  0  0  0  0  0  0  0  0  0
    7.2758  -14.5686   20.3471 N   0  0  0  0  0  0  0  0  0  0  0  0
    7.5751  -14.6344   22.7178 C   0  0  0  0  0  0  0  0  0  0  0  0
    8.8207  -14.6113   22.5004 O   0  0  0  0  0  0  0  0  0  0  0  0
    5.8024  -11.2358   26.5434 C   0  0  0  0  0  0  0  0  0  0  0  0
    6.7561  -11.9224   25.5625 C   0  0  0  0  0  0  0  0  0  0  0  0
    7.1828  -13.2402   26.1028 C   0  0  2  0  0  0  0  0  0  0  0  0
    7.9051  -13.1199   27.4248 C   0  0  0  0  0  0  0  0  0  0  0  0
    7.9685  -14.0691   25.1112 C   0  0  2  0  0  0  0  0  0  0  0  0
    7.0420  -14.3467   23.9792 N   0  0  0  0  0  0  0  0  0  0  0  0
    8.3989  -15.3794   25.6196 C   0  0  0  0  0  0  0  0  0  0  0  0
    7.5281  -16.2590   25.8953 O   0  0  0  0  0  0  0  0  0  0  0  0
   13.2359  -22.7955   23.6080 N   0  0  0  0  0  0  0  0  0  0  0  0
   13.2707  -21.3842   23.8175 C   0  0  0  0  0  0  0  0  0  0  0  0
   14.1027  -20.8725   24.6528 N   0  0  0  0  0  0  0  0  0  0  0  0
   12.4034  -20.4955   23.1281 N   0  0  0  0  0  0  0  0  0  0  0  0
   12.2865  -19.1079   23.4819 C   0  0  0  0  0  0  0  0  0  0  0  0
   11.3912  -18.8267   24.6451 C   0  0  0  0  0  0  0  0  0  0  0  0
   11.2702  -17.3816   24.9878 C   0  0  0  0  0  0  0  0  0  0  0  0
   10.2740  -17.0469   26.0305 C   0  0  2  0  0  0  0  0  0  0  0  0
    9.7797  -15.7060   25.8131 N   0  0  0  0  0  0  0  0  0  0  0  0
   10.7368  -17.2217   27.4291 C   0  0  0  0  0  0  0  0  0  0  0  0
   10.9598  -16.2444   28.1822 O   0  0  0  0  0  0  0  0  0  0  0  0
   10.9456  -18.4766   27.9646 O   0  0  0  0  0  0  0  0  0  0  0  0
  2  1  1  0
  3  2  1  0
  4  3  1  0
  5  4  1  0
  5  6  1  6
  7  5  1  0
  7  8  2  0
 10  9  1  0
 11 10  1  0
 11 13  1  0
 11 12  1  1
 13 15  1  0
 13 14  1  6
 14  7  1  0
 15 16  2  0
 18 17  1  0
 18 20  1  0
 19 18  2  0
 20 21  1  0
 21 22  1  0
 22 23  1  0
 24 23  1  6
 24 26  1  0
 25 24  1  0
 25 15  1  0
 26 27  2  0
 26 28  1  0
M  END
$$$$
