MIR.pdb
     RDKit          3D

 28 27  0  0  1  0  0  0  0  0999 V2000
    7.9273  -11.0898   19.0351 C   0  0  0  0  0  0  0  0  0  0  0  0
    7.5779  -12.6525   18.2432 S   0  0  0  0  0  0  0  0  0  0  0  0
    7.5384  -14.0849   19.3041 C   0  0  0  0  0  0  0  0  0  0  0  0
    8.1708  -13.9090   20.6422 C   0  0  0  0  0  0  0  0  0  0  0  0
    8.0819  -15.1444   21.4788 C   0  0  2  0  0  0  0  0  0  0  0  0
    6.7689  -15.6915   21.5740 N   0  0  0  0  0  0  0  0  0  0  0  0
    8.6040  -14.8680   22.8657 C   0  0  0  0  0  0  0  0  0  0  0  0
    9.8484  -14.6885   23.0023 O   0  0  0  0  0  0  0  0  0  0  0  0
    5.5663  -11.8587   25.9828 C   0  0  0  0  0  0  0  0  0  0  0  0
    6.7595  -12.5079   25.2775 C   0  0  0  0  0  0  0  0  0  0  0  0
    7.1954  -13.7191   26.0215 C   0  0  2  0  0  0  0  0  0  0  0  0
    7.5828  -13.4154   27.4503 C   0  0  0  0  0  0  0  0  0  0  0  0
    8.2710  -14.5071   25.3072 C   0  0  2  0  0  0  0  0  0  0  0  0
    7.7281  -14.8156   23.9556 N   0  0  0  0  0  0  0  0  0  0  0  0
    8.5894  -15.8015   25.9265 C   0  0  0  0  0  0  0  0  0  0  0  0
    7.6705  -16.6609   26.0849 O   0  0  0  0  0  0  0  0  0  0  0  0
   15.0273  -20.3385   22.9771 N   0  0  0  0  0  0  0  0  0  0  0  0
   13.6379  -20.1291   22.7271 C   0  0  0  0  0  0  0  0  0  0  0  0
   13.1618  -20.2802   21.5429 N   0  0  0  0  0  0  0  0  0  0  0  0
   12.7333  -19.7496   23.7541 N   0  0  0  0  0  0  0  0  0  0  0  0
   13.1461  -19.5914   25.1212 C   0  0  0  0  0  0  0  0  0  0  0  0
   12.0560  -19.2085   26.0690 C   0  0  0  0  0  0  0  0  0  0  0  0
   11.4240  -17.8917   25.7737 C   0  0  0  0  0  0  0  0  0  0  0  0
   10.3445  -17.4726   26.6961 C   0  0  2  0  0  0  0  0  0  0  0  0
    9.9134  -16.1348   26.3586 N   0  0  0  0  0  0  0  0  0  0  0  0
   10.6680  -17.5775   28.1401 C   0  0  0  0  0  0  0  0  0  0  0  0
   11.0312  -18.6576   28.6629 O   0  0  0  0  0  0  0  0  0  0  0  0
   10.5802  -16.4831   28.9767 O   0  0  0  0  0  0  0  0  0  0  0  0
  2  1  1  0
  3  2  1  0
  4  3  1  0
  5  4  1  0
  5  6  1  1
  7  5  1  0
  7  8  2  0
 10  9  1  0
 11 10  1  0
 11 13  1  0
 11 12  1  1
 13 15  1  0
 13 14  1  6
 14  7  1  0
 15 16  2  0
 18 17  1  0
 18 20  1  0
 19 18  2  0
 20 21  1  0
 21 22  1  0
 22 23  1  0
 24 23  1  6
 24 26  1  0
 25 24  1  0
 25 15  1  0
 26 27  2  0
 26 28  1  0
M  END
$$$$
