MIR.pdb
     RDKit          3D

 28 27  0  0  1  0  0  0  0  0999 V2000
    7.0932  -20.7707   29.4419 C   0  0  0  0  0  0  0  0  0  0  0  0
    5.4397  -20.5311   28.8096 S   0  0  0  0  0  0  0  0  0  0  0  0
    5.2229  -20.7626   27.0551 C   0  0  0  0  0  0  0  0  0  0  0  0
    5.3711  -19.5346   26.2236 C   0  0  0  0  0  0  0  0  0  0  0  0
    6.7424  -18.9475   26.3177 C   0  0  2  0  0  0  0  0  0  0  0  0
    7.1043  -18.5170   27.6276 N   0  0  0  0  0  0  0  0  0  0  0  0
    6.8753  -17.7891   25.3622 C   0  0  0  0  0  0  0  0  0  0  0  0
    6.4906  -17.9611   24.1699 O   0  0  0  0  0  0  0  0  0  0  0  0
    5.7828  -12.9300   26.8003 C   0  0  0  0  0  0  0  0  0  0  0  0
    5.9796  -13.9625   25.6876 C   0  0  0  0  0  0  0  0  0  0  0  0
    7.4300  -14.1957   25.4581 C   0  0  2  0  0  0  0  0  0  0  0  0
    8.0966  -13.0462   24.7383 C   0  0  0  0  0  0  0  0  0  0  0  0
    7.7261  -15.5197   24.7893 C   0  0  2  0  0  0  0  0  0  0  0  0
    7.4094  -16.5705   25.7954 N   0  0  0  0  0  0  0  0  0  0  0  0
    9.1363  -15.7143   24.4232 C   0  0  0  0  0  0  0  0  0  0  0  0
   10.0192  -15.7449   25.3329 O   0  0  0  0  0  0  0  0  0  0  0  0
   12.3073  -21.4016   19.5309 N   0  0  0  0  0  0  0  0  0  0  0  0
   12.0193  -20.3455   18.6151 C   0  0  0  0  0  0  0  0  0  0  0  0
   11.8350  -20.5996   17.3688 N   0  0  0  0  0  0  0  0  0  0  0  0
   11.9264  -18.9900   19.0287 N   0  0  0  0  0  0  0  0  0  0  0  0
   12.1355  -18.5870   20.3919 C   0  0  0  0  0  0  0  0  0  0  0  0
   12.1318  -17.1102   20.6208 C   0  0  0  0  0  0  0  0  0  0  0  0
   10.8592  -16.5832   21.1895 C   0  0  0  0  0  0  0  0  0  0  0  0
   10.7987  -16.4985   22.6663 C   0  0  2  0  0  0  0  0  0  0  0  0
    9.5555  -15.8771   23.0636 N   0  0  0  0  0  0  0  0  0  0  0  0
   11.9557  -15.8304   23.3111 C   0  0  0  0  0  0  0  0  0  0  0  0
   11.9961  -14.5888   23.4810 O   0  0  0  0  0  0  0  0  0  0  0  0
   13.0465  -16.5518   23.7528 O   0  0  0  0  0  0  0  0  0  0  0  0
  2  1  1  0
  3  2  1  0
  4  3  1  0
  5  4  1  0
  5  6  1  1
  7  5  1  0
  7  8  2  0
 10  9  1  0
 11 10  1  0
 11 13  1  0
 11 12  1  6
 13 15  1  0
 13 14  1  1
 14  7  1  0
 15 16  2  0
 18 17  1  0
 18 20  1  0
 19 18  2  0
 20 21  1  0
 21 22  1  0
 22 23  1  0
 24 23  1  6
 24 26  1  0
 25 24  1  0
 25 15  1  0
 26 27  2  0
 26 28  1  0
M  END
$$$$
