MIR.pdb
     RDKit          3D

 28 27  0  0  1  0  0  0  0  0999 V2000
    5.8632  -19.2716   20.9794 C   0  0  0  0  0  0  0  0  0  0  0  0
    5.9015  -18.1513   19.5885 S   0  0  0  0  0  0  0  0  0  0  0  0
    5.8971  -16.4108   19.9750 C   0  0  0  0  0  0  0  0  0  0  0  0
    6.7479  -16.0089   21.1309 C   0  0  0  0  0  0  0  0  0  0  0  0
    6.7305  -14.5323   21.3621 C   0  0  2  0  0  0  0  0  0  0  0  0
    7.1610  -13.7612   20.2430 N   0  0  0  0  0  0  0  0  0  0  0  0
    7.5812  -14.1863   22.5575 C   0  0  0  0  0  0  0  0  0  0  0  0
    8.8073  -13.9478   22.3596 O   0  0  0  0  0  0  0  0  0  0  0  0
    5.6510  -11.3694   26.7598 C   0  0  0  0  0  0  0  0  0  0  0  0
    6.5844  -11.9287   25.6833 C   0  0  0  0  0  0  0  0  0  0  0  0
    7.0674  -13.2785   26.0774 C   0  0  2  0  0  0  0  0  0  0  0  0
    7.7604  -13.2786   27.4204 C   0  0  0  0  0  0  0  0  0  0  0  0
    7.9103  -13.9479   25.0146 C   0  0  2  0  0  0  0  0  0  0  0  0
    7.0181  -14.1355   23.8375 N   0  0  0  0  0  0  0  0  0  0  0  0
    8.3969  -15.2864   25.3778 C   0  0  0  0  0  0  0  0  0  0  0  0
    7.5625  -16.2036   25.6428 O   0  0  0  0  0  0  0  0  0  0  0  0
   14.0710  -19.2006   20.9628 N   0  0  0  0  0  0  0  0  0  0  0  0
   12.7851  -19.8123   20.8668 C   0  0  0  0  0  0  0  0  0  0  0  0
   12.6153  -20.8542   20.1337 N   0  0  0  0  0  0  0  0  0  0  0  0
   11.6537  -19.3078   21.5614 N   0  0  0  0  0  0  0  0  0  0  0  0
   11.7210  -18.1358   22.3898 C   0  0  0  0  0  0  0  0  0  0  0  0
   11.4034  -18.3638   23.8322 C   0  0  0  0  0  0  0  0  0  0  0  0
   11.4560  -17.1335   24.6714 C   0  0  0  0  0  0  0  0  0  0  0  0
   10.3192  -16.9360   25.5990 C   0  0  2  0  0  0  0  0  0  0  0  0
    9.7931  -15.5991   25.4399 N   0  0  0  0  0  0  0  0  0  0  0  0
   10.6064  -17.2271   27.0250 C   0  0  0  0  0  0  0  0  0  0  0  0
   10.8758  -18.3841   27.4258 O   0  0  0  0  0  0  0  0  0  0  0  0
   10.5870  -16.2299   27.9793 O   0  0  0  0  0  0  0  0  0  0  0  0
  2  1  1  0
  3  2  1  0
  4  3  1  0
  5  4  1  0
  5  6  1  6
  7  5  1  0
  7  8  2  0
 10  9  1  0
 11 10  1  0
 11 13  1  0
 11 12  1  1
 13 15  1  0
 13 14  1  6
 14  7  1  0
 15 16  2  0
 18 17  1  0
 18 20  1  0
 19 18  2  0
 20 21  1  0
 21 22  1  0
 22 23  1  0
 24 23  1  6
 24 26  1  0
 25 24  1  0
 25 15  1  0
 26 27  2  0
 26 28  1  0
M  END
$$$$
