MIR.pdb
     RDKit          3D

 28 27  0  0  1  0  0  0  0  0999 V2000
    8.3629  -18.3641   20.8889 C   0  0  0  0  0  0  0  0  0  0  0  0
    6.6151  -17.9958   20.8649 S   0  0  0  0  0  0  0  0  0  0  0  0
    6.1657  -16.3207   20.4519 C   0  0  0  0  0  0  0  0  0  0  0  0
    7.3065  -15.3904   20.2176 C   0  0  0  0  0  0  0  0  0  0  0  0
    7.1212  -14.0793   20.9111 C   0  0  2  0  0  0  0  0  0  0  0  0
    7.5032  -12.9480   20.1322 N   0  0  0  0  0  0  0  0  0  0  0  0
    7.8884  -14.0681   22.2086 C   0  0  0  0  0  0  0  0  0  0  0  0
    9.1509  -14.1084   22.1476 O   0  0  0  0  0  0  0  0  0  0  0  0
    5.9221  -11.1745   26.2911 C   0  0  0  0  0  0  0  0  0  0  0  0
    6.8639  -11.8359   25.2819 C   0  0  0  0  0  0  0  0  0  0  0  0
    7.1601  -13.2320   25.6988 C   0  0  2  0  0  0  0  0  0  0  0  0
    7.7466  -13.3113   27.0894 C   0  0  0  0  0  0  0  0  0  0  0  0
    7.9986  -13.9925   24.6955 C   0  0  2  0  0  0  0  0  0  0  0  0
    7.2113  -14.0151   23.4321 N   0  0  0  0  0  0  0  0  0  0  0  0
    8.2459  -15.3974   25.0499 C   0  0  0  0  0  0  0  0  0  0  0  0
    7.2643  -16.1611   25.2972 O   0  0  0  0  0  0  0  0  0  0  0  0
   13.6780  -19.0038   21.5117 N   0  0  0  0  0  0  0  0  0  0  0  0
   13.5008  -20.3110   22.0564 C   0  0  0  0  0  0  0  0  0  0  0  0
   13.9007  -21.3447   21.4058 N   0  0  0  0  0  0  0  0  0  0  0  0
   12.8846  -20.5279   23.3176 N   0  0  0  0  0  0  0  0  0  0  0  0
   11.5559  -20.0674   23.6124 C   0  0  0  0  0  0  0  0  0  0  0  0
   11.4468  -19.1812   24.8108 C   0  0  0  0  0  0  0  0  0  0  0  0
   10.9204  -17.8183   24.5170 C   0  0  0  0  0  0  0  0  0  0  0  0
    9.8582  -17.3276   25.4240 C   0  0  2  0  0  0  0  0  0  0  0  0
    9.5675  -15.9440   25.1228 N   0  0  0  0  0  0  0  0  0  0  0  0
   10.1259  -17.5106   26.8716 C   0  0  0  0  0  0  0  0  0  0  0  0
   10.1293  -18.6435   27.4087 O   0  0  0  0  0  0  0  0  0  0  0  0
   10.3823  -16.4335   27.6960 O   0  0  0  0  0  0  0  0  0  0  0  0
  2  1  1  0
  3  2  1  0
  4  3  1  0
  5  4  1  0
  5  6  1  6
  7  5  1  0
  7  8  2  0
 10  9  1  0
 11 10  1  0
 11 13  1  0
 11 12  1  1
 13 15  1  0
 13 14  1  6
 14  7  1  0
 15 16  2  0
 18 17  1  0
 18 20  1  0
 19 18  2  0
 20 21  1  0
 21 22  1  0
 22 23  1  0
 24 23  1  6
 24 26  1  0
 25 24  1  0
 25 15  1  0
 26 27  2  0
 26 28  1  0
M  END
$$$$
