MIR.pdb
     RDKit          3D

 28 27  0  0  1  0  0  0  0  0999 V2000
    8.1798  -10.9362   19.1661 C   0  0  0  0  0  0  0  0  0  0  0  0
    7.1002  -12.2430   18.6024 S   0  0  0  0  0  0  0  0  0  0  0  0
    6.9834  -13.6797   19.6517 C   0  0  0  0  0  0  0  0  0  0  0  0
    8.1777  -13.9519   20.5009 C   0  0  0  0  0  0  0  0  0  0  0  0
    8.0011  -15.1646   21.3566 C   0  0  2  0  0  0  0  0  0  0  0  0
    6.6582  -15.6375   21.4288 N   0  0  0  0  0  0  0  0  0  0  0  0
    8.5046  -14.8911   22.7509 C   0  0  0  0  0  0  0  0  0  0  0  0
    9.7349  -14.6355   22.8940 O   0  0  0  0  0  0  0  0  0  0  0  0
    5.6357  -11.8270   25.8762 C   0  0  0  0  0  0  0  0  0  0  0  0
    6.7635  -12.5718   25.1576 C   0  0  0  0  0  0  0  0  0  0  0  0
    7.1133  -13.8102   25.9023 C   0  0  2  0  0  0  0  0  0  0  0  0
    7.4864  -13.5373   27.3411 C   0  0  0  0  0  0  0  0  0  0  0  0
    8.1573  -14.6544   25.2056 C   0  0  2  0  0  0  0  0  0  0  0  0
    7.6273  -14.9232   23.8405 N   0  0  0  0  0  0  0  0  0  0  0  0
    8.3875  -15.9686   25.8223 C   0  0  0  0  0  0  0  0  0  0  0  0
    7.3955  -16.6924   26.1386 O   0  0  0  0  0  0  0  0  0  0  0  0
   11.6318  -20.6754   22.0496 N   0  0  0  0  0  0  0  0  0  0  0  0
   12.6994  -21.1349   22.8780 C   0  0  0  0  0  0  0  0  0  0  0  0
   13.1714  -22.3211   22.7295 N   0  0  0  0  0  0  0  0  0  0  0  0
   13.2782  -20.3204   23.8872 N   0  0  0  0  0  0  0  0  0  0  0  0
   12.7708  -19.0142   24.2046 C   0  0  0  0  0  0  0  0  0  0  0  0
   12.0295  -18.9228   25.4991 C   0  0  0  0  0  0  0  0  0  0  0  0
   10.5891  -18.5691   25.3548 C   0  0  0  0  0  0  0  0  0  0  0  0
    9.9903  -17.8272   26.4873 C   0  0  2  0  0  0  0  0  0  0  0  0
    9.7040  -16.4706   26.0782 N   0  0  0  0  0  0  0  0  0  0  0  0
   10.7764  -17.8474   27.7452 C   0  0  0  0  0  0  0  0  0  0  0  0
   11.1922  -16.7954   28.2859 O   0  0  0  0  0  0  0  0  0  0  0  0
   11.0883  -19.0339   28.3778 O   0  0  0  0  0  0  0  0  0  0  0  0
  2  1  1  0
  3  2  1  0
  4  3  1  0
  5  4  1  0
  5  6  1  1
  7  5  1  0
  7  8  2  0
 10  9  1  0
 11 10  1  0
 11 13  1  0
 11 12  1  1
 13 15  1  0
 13 14  1  6
 14  7  1  0
 15 16  2  0
 18 17  1  0
 18 20  1  0
 19 18  2  0
 20 21  1  0
 21 22  1  0
 22 23  1  0
 24 23  1  6
 24 26  1  0
 25 24  1  0
 25 15  1  0
 26 27  2  0
 26 28  1  0
M  END
$$$$
