ADM.pdb
     RDKit          3D

 22 21  0  0  1  0  0  0  0  0999 V2000
    7.1879  -12.9437   18.8408 C   0  0  0  0  0  0  0  0  0  0  0  0
    8.3996  -13.0282   19.7633 C   0  0  2  0  0  0  0  0  0  0  0  0
    9.5768  -13.4242   19.0584 N   0  0  0  0  0  0  0  0  0  0  0  0
    8.0357  -14.0219   20.8365 C   0  0  0  0  0  0  0  0  0  0  0  0
    6.8840  -14.5200   20.8755 O   0  0  0  0  0  0  0  0  0  0  0  0
    8.9883  -14.4189   21.8302 N   0  0  0  0  0  0  0  0  0  0  0  0
    9.0953  -15.7178   22.3930 C   0  0  1  0  0  0  0  0  0  0  0  0
    9.0970  -16.8726   21.4739 C   0  0  0  0  0  0  0  0  0  0  0  0
    9.2478  -18.1979   22.0625 C   0  0  0  0  0  0  0  0  0  0  0  0
    8.4627  -18.5389   23.0127 O   0  0  0  0  0  0  0  0  0  0  0  0
   10.1177  -15.8707   23.4689 C   0  0  0  0  0  0  0  0  0  0  0  0
   11.2594  -15.4480   23.1548 O   0  0  0  0  0  0  0  0  0  0  0  0
   10.1766  -19.1387   21.6839 O   0  0  0  0  0  0  0  0  0  0  0  0
    5.8744  -12.2104   26.1829 C   0  0  0  0  0  0  0  0  0  0  0  0
    7.6037  -12.2977   26.7709 S   0  0  0  0  0  0  0  0  0  0  0  0
    8.1151  -13.9872   27.0166 C   0  0  0  0  0  0  0  0  0  0  0  0
    8.5041  -14.7450   25.8033 C   0  0  0  0  0  0  0  0  0  0  0  0
    9.6206  -15.7203   25.9580 C   0  0  2  0  0  0  0  0  0  0  0  0
    9.9167  -16.4216   24.7310 N   0  0  0  0  0  0  0  0  0  0  0  0
    9.5430  -16.5764   27.1597 C   0  0  0  0  0  0  0  0  0  0  0  0
    9.6064  -16.1591   28.3205 O   0  0  0  0  0  0  0  0  0  0  0  0
    9.3854  -17.9351   26.9620 O   0  0  0  0  0  0  0  0  0  0  0  0
  2  1  1  6
  3  2  1  0
  4  6  1  0
  4  2  1  0
  5  4  2  0
  7  6  1  0
  7 11  1  0
  7  8  1  6
  9  8  1  0
 10  9  2  0
 11 19  1  0
 12 11  2  0
 13  9  1  0
 15 14  1  0
 16 15  1  0
 17 16  1  0
 18 20  1  0
 18 17  1  6
 19 18  1  0
 20 22  1  0
 21 20  2  0
M  END
$$$$
