ADM.pdb
     RDKit          3D

 22 21  0  0  1  0  0  0  0  0999 V2000
    8.1521  -12.2608   20.0723 C   0  0  0  0  0  0  0  0  0  0  0  0
    8.1680  -13.6333   19.4073 C   0  0  2  0  0  0  0  0  0  0  0  0
    6.9977  -13.8552   18.6195 N   0  0  0  0  0  0  0  0  0  0  0  0
    8.2802  -14.6358   20.5273 C   0  0  0  0  0  0  0  0  0  0  0  0
    7.2730  -14.9342   21.2146 O   0  0  0  0  0  0  0  0  0  0  0  0
    9.5296  -15.2673   20.8318 N   0  0  0  0  0  0  0  0  0  0  0  0
    9.7226  -16.2768   21.8111 C   0  0  1  0  0  0  0  0  0  0  0  0
   10.7193  -17.3293   21.5335 C   0  0  0  0  0  0  0  0  0  0  0  0
   10.2833  -18.4740   20.7429 C   0  0  0  0  0  0  0  0  0  0  0  0
    9.0345  -18.6142   20.5052 O   0  0  0  0  0  0  0  0  0  0  0  0
    9.8087  -15.7972   23.2213 C   0  0  0  0  0  0  0  0  0  0  0  0
   10.8818  -15.2024   23.4959 O   0  0  0  0  0  0  0  0  0  0  0  0
   11.1072  -19.4406   20.2158 O   0  0  0  0  0  0  0  0  0  0  0  0
    6.3321  -10.9024   26.1514 C   0  0  0  0  0  0  0  0  0  0  0  0
    6.2710  -12.6888   26.5374 S   0  0  0  0  0  0  0  0  0  0  0  0
    7.6987  -13.5361   25.8895 C   0  0  0  0  0  0  0  0  0  0  0  0
    7.8068  -14.9825   26.1960 C   0  0  0  0  0  0  0  0  0  0  0  0
    8.9831  -15.6973   25.6242 C   0  0  2  0  0  0  0  0  0  0  0  0
    8.8417  -15.9525   24.2101 N   0  0  0  0  0  0  0  0  0  0  0  0
    9.4645  -16.8468   26.4179 C   0  0  0  0  0  0  0  0  0  0  0  0
    9.4608  -18.0180   26.0253 O   0  0  0  0  0  0  0  0  0  0  0  0
    9.9536  -16.5840   27.6834 O   0  0  0  0  0  0  0  0  0  0  0  0
  2  1  1  1
  3  2  1  0
  4  6  1  0
  4  2  1  0
  5  4  2  0
  7  6  1  0
  7 11  1  0
  7  8  1  6
  9  8  1  0
 10  9  2  0
 11 19  1  0
 12 11  2  0
 13  9  1  0
 15 14  1  0
 16 15  1  0
 17 16  1  0
 18 20  1  0
 18 17  1  1
 19 18  1  0
 20 22  1  0
 21 20  2  0
M  END
$$$$
