ADM.pdb
     RDKit          3D

 22 21  0  0  1  0  0  0  0  0999 V2000
    7.3794  -13.0813   18.3677 C   0  0  0  0  0  0  0  0  0  0  0  0
    8.6912  -13.3237   19.1071 C   0  0  2  0  0  0  0  0  0  0  0  0
    9.7078  -13.8206   18.2358 N   0  0  0  0  0  0  0  0  0  0  0  0
    8.3733  -14.3066   20.2047 C   0  0  0  0  0  0  0  0  0  0  0  0
    7.4230  -14.0885   20.9956 O   0  0  0  0  0  0  0  0  0  0  0  0
    9.1421  -15.5040   20.3705 N   0  0  0  0  0  0  0  0  0  0  0  0
    8.9756  -16.4489   21.4168 C   0  0  1  0  0  0  0  0  0  0  0  0
    9.6282  -17.7647   21.2719 C   0  0  0  0  0  0  0  0  0  0  0  0
    9.2680  -18.5675   20.1095 C   0  0  0  0  0  0  0  0  0  0  0  0
    8.2299  -19.3113   20.1767 O   0  0  0  0  0  0  0  0  0  0  0  0
    9.1265  -15.9105   22.8001 C   0  0  0  0  0  0  0  0  0  0  0  0
   10.2719  -15.4571   23.0515 O   0  0  0  0  0  0  0  0  0  0  0  0
    9.9554  -18.6017   18.9189 O   0  0  0  0  0  0  0  0  0  0  0  0
    7.5930  -11.0110   27.1960 C   0  0  0  0  0  0  0  0  0  0  0  0
    6.3256  -12.3222   27.0602 S   0  0  0  0  0  0  0  0  0  0  0  0
    7.0777  -13.9256   26.8611 C   0  0  0  0  0  0  0  0  0  0  0  0
    7.0800  -14.4911   25.4908 C   0  0  0  0  0  0  0  0  0  0  0  0
    8.2585  -15.3235   25.1169 C   0  0  2  0  0  0  0  0  0  0  0  0
    8.1464  -15.8759   23.7875 N   0  0  0  0  0  0  0  0  0  0  0  0
    8.7040  -16.2797   26.1514 C   0  0  0  0  0  0  0  0  0  0  0  0
    8.6256  -17.5081   26.0482 O   0  0  0  0  0  0  0  0  0  0  0  0
    9.2472  -15.7551   27.3089 O   0  0  0  0  0  0  0  0  0  0  0  0
  2  1  1  6
  3  2  1  0
  4  6  1  0
  4  2  1  0
  5  4  2  0
  7  6  1  0
  7 11  1  0
  7  8  1  6
  9  8  1  0
 10  9  2  0
 11 19  1  0
 12 11  2  0
 13  9  1  0
 15 14  1  0
 16 15  1  0
 17 16  1  0
 18 20  1  0
 18 17  1  1
 19 18  1  0
 20 22  1  0
 21 20  2  0
M  END
$$$$
