ADM.pdb
     RDKit          3D

 22 21  0  0  1  0  0  0  0  0999 V2000
    7.1775  -12.7849   18.9320 C   0  0  0  0  0  0  0  0  0  0  0  0
    8.5360  -13.0708   19.5638 C   0  0  2  0  0  0  0  0  0  0  0  0
    9.4874  -13.5183   18.5974 N   0  0  0  0  0  0  0  0  0  0  0  0
    8.2897  -14.1142   20.6232 C   0  0  0  0  0  0  0  0  0  0  0  0
    7.4207  -13.9255   21.5093 O   0  0  0  0  0  0  0  0  0  0  0  0
    9.0357  -15.3372   20.6441 N   0  0  0  0  0  0  0  0  0  0  0  0
    8.9043  -16.3631   21.6165 C   0  0  1  0  0  0  0  0  0  0  0  0
    9.3268  -17.7275   21.2449 C   0  0  0  0  0  0  0  0  0  0  0  0
    8.9420  -18.2125   19.9249 C   0  0  0  0  0  0  0  0  0  0  0  0
    7.7243  -18.5499   19.7274 O   0  0  0  0  0  0  0  0  0  0  0  0
    9.3526  -16.0054   22.9938 C   0  0  0  0  0  0  0  0  0  0  0  0
   10.5760  -15.7284   23.0789 O   0  0  0  0  0  0  0  0  0  0  0  0
    9.7846  -18.3450   18.8462 O   0  0  0  0  0  0  0  0  0  0  0  0
    6.2072  -10.9434   25.8627 C   0  0  0  0  0  0  0  0  0  0  0  0
    6.1803  -12.7520   26.1312 S   0  0  0  0  0  0  0  0  0  0  0  0
    7.8008  -13.4596   25.9081 C   0  0  0  0  0  0  0  0  0  0  0  0
    7.9494  -14.8952   26.2465 C   0  0  0  0  0  0  0  0  0  0  0  0
    8.9813  -15.6545   25.4847 C   0  0  2  0  0  0  0  0  0  0  0  0
    8.5610  -15.9602   24.1375 N   0  0  0  0  0  0  0  0  0  0  0  0
    9.5956  -16.7825   26.2149 C   0  0  0  0  0  0  0  0  0  0  0  0
    9.5958  -17.9532   25.8207 O   0  0  0  0  0  0  0  0  0  0  0  0
   10.2127  -16.4988   27.4185 O   0  0  0  0  0  0  0  0  0  0  0  0
  2  1  1  6
  3  2  1  0
  4  6  1  0
  4  2  1  0
  5  4  2  0
  7  6  1  0
  7 11  1  0
  7  8  1  6
  9  8  1  0
 10  9  2  0
 11 19  1  0
 12 11  2  0
 13  9  1  0
 15 14  1  0
 16 15  1  0
 17 16  1  0
 18 20  1  0
 18 17  1  1
 19 18  1  0
 20 22  1  0
 21 20  2  0
M  END
$$$$
