ADM.pdb
     RDKit          3D

 22 21  0  0  1  0  0  0  0  0999 V2000
    6.7767  -17.0324   19.5181 C   0  0  0  0  0  0  0  0  0  0  0  0
    7.6090  -15.8499   20.0030 C   0  0  2  0  0  0  0  0  0  0  0  0
    8.4978  -15.3756   18.9908 N   0  0  0  0  0  0  0  0  0  0  0  0
    8.3601  -16.3401   21.2144 C   0  0  0  0  0  0  0  0  0  0  0  0
    7.7476  -16.8982   22.1574 O   0  0  0  0  0  0  0  0  0  0  0  0
    9.7803  -16.1820   21.3178 N   0  0  0  0  0  0  0  0  0  0  0  0
   10.5700  -16.5623   22.4345 C   0  0  1  0  0  0  0  0  0  0  0  0
   12.0133  -16.7830   22.2189 C   0  0  0  0  0  0  0  0  0  0  0  0
   12.3998  -17.6944   21.1487 C   0  0  0  0  0  0  0  0  0  0  0  0
   11.9911  -18.9052   21.1980 O   0  0  0  0  0  0  0  0  0  0  0  0
   10.3124  -15.8035   23.6931 C   0  0  0  0  0  0  0  0  0  0  0  0
   10.3925  -14.5554   23.5647 O   0  0  0  0  0  0  0  0  0  0  0  0
   13.1811  -17.3678   20.0652 O   0  0  0  0  0  0  0  0  0  0  0  0
    6.2180  -11.7171   25.7982 C   0  0  0  0  0  0  0  0  0  0  0  0
    7.6280  -12.2856   26.8143 S   0  0  0  0  0  0  0  0  0  0  0  0
    7.6888  -14.0651   26.8921 C   0  0  0  0  0  0  0  0  0  0  0  0
    8.3453  -14.7561   25.7567 C   0  0  0  0  0  0  0  0  0  0  0  0
    9.4895  -15.6498   26.0941 C   0  0  2  0  0  0  0  0  0  0  0  0
   10.0087  -16.3438   24.9392 N   0  0  0  0  0  0  0  0  0  0  0  0
    9.2935  -16.4945   27.2903 C   0  0  0  0  0  0  0  0  0  0  0  0
    9.3455  -16.0820   28.4535 O   0  0  0  0  0  0  0  0  0  0  0  0
    9.0314  -17.8357   27.0843 O   0  0  0  0  0  0  0  0  0  0  0  0
  2  1  1  6
  3  2  1  0
  4  6  1  0
  4  2  1  0
  5  4  2  0
  7  6  1  0
  7 11  1  0
  7  8  1  6
  9  8  1  0
 10  9  2  0
 11 19  1  0
 12 11  2  0
 13  9  1  0
 15 14  1  0
 16 15  1  0
 17 16  1  0
 18 20  1  0
 18 17  1  6
 19 18  1  0
 20 22  1  0
 21 20  2  0
M  END
$$$$
