ADM.pdb
     RDKit          3D

 22 21  0  0  1  0  0  0  0  0999 V2000
    7.3643  -12.8922   18.8184 C   0  0  0  0  0  0  0  0  0  0  0  0
    8.7216  -13.0568   19.4944 C   0  0  2  0  0  0  0  0  0  0  0  0
    9.7463  -13.3842   18.5551 N   0  0  0  0  0  0  0  0  0  0  0  0
    8.5441  -14.1447   20.5224 C   0  0  0  0  0  0  0  0  0  0  0  0
    7.6043  -14.0855   21.3526 O   0  0  0  0  0  0  0  0  0  0  0  0
    9.4369  -15.2638   20.5762 N   0  0  0  0  0  0  0  0  0  0  0  0
    9.4014  -16.2969   21.5492 C   0  0  1  0  0  0  0  0  0  0  0  0
   10.0886  -17.5654   21.2378 C   0  0  0  0  0  0  0  0  0  0  0  0
    9.7631  -18.2112   19.9719 C   0  0  0  0  0  0  0  0  0  0  0  0
    8.6073  -18.7411   19.8340 O   0  0  0  0  0  0  0  0  0  0  0  0
    9.6547  -15.8659   22.9550 C   0  0  0  0  0  0  0  0  0  0  0  0
   10.8031  -15.3912   23.1465 O   0  0  0  0  0  0  0  0  0  0  0  0
   10.6012  -18.3069   18.8858 O   0  0  0  0  0  0  0  0  0  0  0  0
    5.7199  -11.7462   26.8950 C   0  0  0  0  0  0  0  0  0  0  0  0
    7.4908  -12.1732   26.7362 S   0  0  0  0  0  0  0  0  0  0  0  0
    7.7391  -13.4426   25.5102 C   0  0  0  0  0  0  0  0  0  0  0  0
    7.9136  -14.8258   26.0142 C   0  0  0  0  0  0  0  0  0  0  0  0
    9.0162  -15.6217   25.4041 C   0  0  2  0  0  0  0  0  0  0  0  0
    8.7631  -15.9478   24.0204 N   0  0  0  0  0  0  0  0  0  0  0  0
    9.5077  -16.7457   26.2274 C   0  0  0  0  0  0  0  0  0  0  0  0
    9.4856  -17.9303   25.8779 O   0  0  0  0  0  0  0  0  0  0  0  0
   10.0289  -16.4415   27.4707 O   0  0  0  0  0  0  0  0  0  0  0  0
  2  1  1  6
  3  2  1  0
  4  6  1  0
  4  2  1  0
  5  4  2  0
  7  6  1  0
  7 11  1  0
  7  8  1  6
  9  8  1  0
 10  9  2  0
 11 19  1  0
 12 11  2  0
 13  9  1  0
 15 14  1  0
 16 15  1  0
 17 16  1  0
 18 20  1  0
 18 17  1  1
 19 18  1  0
 20 22  1  0
 21 20  2  0
M  END
$$$$
