ADM.pdb
     RDKit          3D

 22 21  0  0  1  0  0  0  0  0999 V2000
    7.0136  -13.3773   18.3007 C   0  0  0  0  0  0  0  0  0  0  0  0
    8.0913  -13.0506   19.3293 C   0  0  2  0  0  0  0  0  0  0  0  0
    9.3470  -12.7669   18.7110 N   0  0  0  0  0  0  0  0  0  0  0  0
    8.1787  -14.2523   20.2349 C   0  0  0  0  0  0  0  0  0  0  0  0
    7.1644  -14.6526   20.8570 O   0  0  0  0  0  0  0  0  0  0  0  0
    9.4119  -14.9612   20.4059 N   0  0  0  0  0  0  0  0  0  0  0  0
    9.6188  -16.0462   21.2976 C   0  0  1  0  0  0  0  0  0  0  0  0
   10.3641  -17.2190   20.8001 C   0  0  0  0  0  0  0  0  0  0  0  0
   10.5147  -18.3515   21.7057 C   0  0  0  0  0  0  0  0  0  0  0  0
    9.5827  -18.5899   22.5483 O   0  0  0  0  0  0  0  0  0  0  0  0
   10.0417  -15.6724   22.6788 C   0  0  0  0  0  0  0  0  0  0  0  0
   10.8619  -14.7206   22.7237 O   0  0  0  0  0  0  0  0  0  0  0  0
   11.5898  -19.2082   21.7408 O   0  0  0  0  0  0  0  0  0  0  0  0
    6.4475  -11.5646   27.5171 C   0  0  0  0  0  0  0  0  0  0  0  0
    6.7600  -12.4309   25.9374 S   0  0  0  0  0  0  0  0  0  0  0  0
    7.9486  -13.7422   26.1470 C   0  0  0  0  0  0  0  0  0  0  0  0
    8.3487  -14.4760   24.9226 C   0  0  0  0  0  0  0  0  0  0  0  0
    9.2935  -15.6138   25.1082 C   0  0  2  0  0  0  0  0  0  0  0  0
    9.6219  -16.2689   23.8641 N   0  0  0  0  0  0  0  0  0  0  0  0
    8.9645  -16.5262   26.2228 C   0  0  0  0  0  0  0  0  0  0  0  0
    8.3211  -17.5737   26.1021 O   0  0  0  0  0  0  0  0  0  0  0  0
    9.4142  -16.1777   27.4823 O   0  0  0  0  0  0  0  0  0  0  0  0
  2  1  1  6
  3  2  1  0
  4  6  1  0
  4  2  1  0
  5  4  2  0
  7  6  1  0
  7 11  1  0
  7  8  1  6
  9  8  1  0
 10  9  2  0
 11 19  1  0
 12 11  2  0
 13  9  1  0
 15 14  1  0
 16 15  1  0
 17 16  1  0
 18 20  1  0
 18 17  1  6
 19 18  1  0
 20 22  1  0
 21 20  2  0
M  END
$$$$
