ADM.pdb
     RDKit          3D

 22 21  0  0  1  0  0  0  0  0999 V2000
    7.1048  -12.8237   19.0220 C   0  0  0  0  0  0  0  0  0  0  0  0
    8.5263  -13.1113   19.4942 C   0  0  2  0  0  0  0  0  0  0  0  0
    9.3676  -13.5326   18.4199 N   0  0  0  0  0  0  0  0  0  0  0  0
    8.4042  -14.1770   20.5531 C   0  0  0  0  0  0  0  0  0  0  0  0
    7.6384  -14.0116   21.5340 O   0  0  0  0  0  0  0  0  0  0  0  0
    9.1535  -15.3950   20.4661 N   0  0  0  0  0  0  0  0  0  0  0  0
    9.2087  -16.3988   21.4684 C   0  0  1  0  0  0  0  0  0  0  0  0
    9.9545  -17.6366   21.1683 C   0  0  0  0  0  0  0  0  0  0  0  0
    9.8749  -18.7199   22.1408 C   0  0  0  0  0  0  0  0  0  0  0  0
    8.9651  -18.6716   23.0383 O   0  0  0  0  0  0  0  0  0  0  0  0
    9.4854  -15.9126   22.8515 C   0  0  0  0  0  0  0  0  0  0  0  0
   10.6416  -15.4442   23.0085 O   0  0  0  0  0  0  0  0  0  0  0  0
   10.7053  -19.8151   22.1856 O   0  0  0  0  0  0  0  0  0  0  0  0
    6.9819  -10.6694   26.5148 C   0  0  0  0  0  0  0  0  0  0  0  0
    6.4576  -12.3418   27.0364 S   0  0  0  0  0  0  0  0  0  0  0  0
    7.7427  -13.5405   26.7399 C   0  0  0  0  0  0  0  0  0  0  0  0
    7.6461  -14.3183   25.4816 C   0  0  0  0  0  0  0  0  0  0  0  0
    8.7575  -15.2713   25.2019 C   0  0  2  0  0  0  0  0  0  0  0  0
    8.6070  -15.9392   23.9307 N   0  0  0  0  0  0  0  0  0  0  0  0
    9.1241  -16.1545   26.3282 C   0  0  0  0  0  0  0  0  0  0  0  0
    9.2152  -15.7868   27.5039 O   0  0  0  0  0  0  0  0  0  0  0  0
    9.3775  -17.4816   26.0377 O   0  0  0  0  0  0  0  0  0  0  0  0
  2  1  1  6
  3  2  1  0
  4  6  1  0
  4  2  1  0
  5  4  2  0
  7  6  1  0
  7 11  1  0
  7  8  1  6
  9  8  1  0
 10  9  2  0
 11 19  1  0
 12 11  2  0
 13  9  1  0
 15 14  1  0
 16 15  1  0
 17 16  1  0
 18 20  1  0
 18 17  1  1
 19 18  1  0
 20 22  1  0
 21 20  2  0
M  END
$$$$
