ADM.pdb
     RDKit          3D

 22 21  0  0  1  0  0  0  0  0999 V2000
    8.3989  -12.4763   19.4373 C   0  0  0  0  0  0  0  0  0  0  0  0
    8.4169  -13.8767   18.8333 C   0  0  2  0  0  0  0  0  0  0  0  0
    7.2521  -14.1308   18.0471 N   0  0  0  0  0  0  0  0  0  0  0  0
    8.5187  -14.8293   19.9969 C   0  0  0  0  0  0  0  0  0  0  0  0
    7.5136  -15.0694   20.7096 O   0  0  0  0  0  0  0  0  0  0  0  0
    9.7556  -15.4786   20.3148 N   0  0  0  0  0  0  0  0  0  0  0  0
    9.9631  -16.3608   21.4075 C   0  0  1  0  0  0  0  0  0  0  0  0
   11.0729  -17.3292   21.3145 C   0  0  0  0  0  0  0  0  0  0  0  0
   11.2044  -18.0812   20.0724 C   0  0  0  0  0  0  0  0  0  0  0  0
   10.2480  -18.8536   19.7199 O   0  0  0  0  0  0  0  0  0  0  0  0
    9.8906  -15.7370   22.7609 C   0  0  0  0  0  0  0  0  0  0  0  0
   10.8469  -14.9631   23.0205 O   0  0  0  0  0  0  0  0  0  0  0  0
   12.2854  -18.0377   19.2235 O   0  0  0  0  0  0  0  0  0  0  0  0
    6.6520  -11.2154   27.8975 C   0  0  0  0  0  0  0  0  0  0  0  0
    6.3528  -12.4198   26.5545 S   0  0  0  0  0  0  0  0  0  0  0  0
    7.7693  -13.4728   26.3073 C   0  0  0  0  0  0  0  0  0  0  0  0
    7.6537  -14.5009   25.2457 C   0  0  0  0  0  0  0  0  0  0  0  0
    8.8350  -15.3881   25.0477 C   0  0  2  0  0  0  0  0  0  0  0  0
    8.8966  -15.9380   23.7141 N   0  0  0  0  0  0  0  0  0  0  0  0
    9.0768  -16.3612   26.1328 C   0  0  0  0  0  0  0  0  0  0  0  0
    9.0283  -17.5878   25.9954 O   0  0  0  0  0  0  0  0  0  0  0  0
    9.3804  -15.8558   27.3827 O   0  0  0  0  0  0  0  0  0  0  0  0
  2  1  1  1
  3  2  1  0
  4  6  1  0
  4  2  1  0
  5  4  2  0
  7  6  1  0
  7 11  1  0
  7  8  1  6
  9  8  1  0
 10  9  2  0
 11 19  1  0
 12 11  2  0
 13  9  1  0
 15 14  1  0
 16 15  1  0
 17 16  1  0
 18 20  1  0
 18 17  1  1
 19 18  1  0
 20 22  1  0
 21 20  2  0
M  END
$$$$
