ADM.pdb
     RDKit          3D

 22 21  0  0  1  0  0  0  0  0999 V2000
    7.7455  -12.3056   18.8316 C   0  0  0  0  0  0  0  0  0  0  0  0
    8.6444  -13.5360   18.7651 C   0  0  2  0  0  0  0  0  0  0  0  0
    8.6985  -14.0835   17.4472 N   0  0  0  0  0  0  0  0  0  0  0  0
    8.0723  -14.5217   19.7515 C   0  0  0  0  0  0  0  0  0  0  0  0
    7.1311  -15.2815   19.4153 O   0  0  0  0  0  0  0  0  0  0  0  0
    8.5850  -14.6145   21.0860 N   0  0  0  0  0  0  0  0  0  0  0  0
    8.8462  -15.8230   21.7835 C   0  0  1  0  0  0  0  0  0  0  0  0
    9.4702  -16.9326   21.0366 C   0  0  0  0  0  0  0  0  0  0  0  0
    9.6525  -18.1961   21.7407 C   0  0  0  0  0  0  0  0  0  0  0  0
    8.6443  -18.7223   22.3256 O   0  0  0  0  0  0  0  0  0  0  0  0
    9.4490  -15.6662   23.1392 C   0  0  0  0  0  0  0  0  0  0  0  0
   10.6865  -15.8847   23.1784 O   0  0  0  0  0  0  0  0  0  0  0  0
   10.8343  -18.8925   21.8381 O   0  0  0  0  0  0  0  0  0  0  0  0
    6.3856  -11.3629   26.3125 C   0  0  0  0  0  0  0  0  0  0  0  0
    6.7922  -13.0522   25.7425 S   0  0  0  0  0  0  0  0  0  0  0  0
    7.7862  -13.9148   26.9442 C   0  0  0  0  0  0  0  0  0  0  0  0
    8.0966  -15.3345   26.6514 C   0  0  0  0  0  0  0  0  0  0  0  0
    9.1871  -15.5874   25.6672 C   0  0  2  0  0  0  0  0  0  0  0  0
    8.7798  -15.3173   24.3085 N   0  0  0  0  0  0  0  0  0  0  0  0
    9.9194  -16.8567   25.8556 C   0  0  0  0  0  0  0  0  0  0  0  0
    9.5522  -17.9484   25.4093 O   0  0  0  0  0  0  0  0  0  0  0  0
   11.0960  -16.8094   26.5790 O   0  0  0  0  0  0  0  0  0  0  0  0
  2  1  1  6
  3  2  1  0
  4  6  1  0
  4  2  1  0
  5  4  2  0
  7  6  1  0
  7 11  1  0
  7  8  1  6
  9  8  1  0
 10  9  2  0
 11 19  1  0
 12 11  2  0
 13  9  1  0
 15 14  1  0
 16 15  1  0
 17 16  1  0
 18 20  1  0
 18 17  1  1
 19 18  1  0
 20 22  1  0
 21 20  2  0
M  END
$$$$
