ADM.pdb
     RDKit          3D

 22 21  0  0  1  0  0  0  0  0999 V2000
    6.8896  -13.2497   19.3325 C   0  0  0  0  0  0  0  0  0  0  0  0
    8.3590  -13.3142   19.7362 C   0  0  2  0  0  0  0  0  0  0  0  0
    9.1878  -13.7460   18.6563 N   0  0  0  0  0  0  0  0  0  0  0  0
    8.4276  -14.2666   20.9024 C   0  0  0  0  0  0  0  0  0  0  0  0
    7.6688  -14.1144   21.8909 O   0  0  0  0  0  0  0  0  0  0  0  0
    9.3533  -15.3599   20.9106 N   0  0  0  0  0  0  0  0  0  0  0  0
    9.3978  -16.3913   21.8852 C   0  0  1  0  0  0  0  0  0  0  0  0
   10.1488  -17.6195   21.5598 C   0  0  0  0  0  0  0  0  0  0  0  0
    9.9586  -18.1898   20.2316 C   0  0  0  0  0  0  0  0  0  0  0  0
    8.8104  -18.6634   19.9272 O   0  0  0  0  0  0  0  0  0  0  0  0
    9.6571  -15.9435   23.2846 C   0  0  0  0  0  0  0  0  0  0  0  0
   10.8361  -15.5576   23.4891 O   0  0  0  0  0  0  0  0  0  0  0  0
   10.9200  -18.2687   19.2515 O   0  0  0  0  0  0  0  0  0  0  0  0
    6.5781  -10.6710   26.1534 C   0  0  0  0  0  0  0  0  0  0  0  0
    6.4594  -12.4362   26.6159 S   0  0  0  0  0  0  0  0  0  0  0  0
    7.8540  -13.3582   25.9986 C   0  0  0  0  0  0  0  0  0  0  0  0
    7.8906  -14.8035   26.3262 C   0  0  0  0  0  0  0  0  0  0  0  0
    8.9950  -15.5962   25.7149 C   0  0  2  0  0  0  0  0  0  0  0  0
    8.7408  -15.9241   24.3318 N   0  0  0  0  0  0  0  0  0  0  0  0
    9.4915  -16.7179   26.5382 C   0  0  0  0  0  0  0  0  0  0  0  0
   10.1016  -16.5862   27.6042 O   0  0  0  0  0  0  0  0  0  0  0  0
    9.2495  -17.9986   26.0784 O   0  0  0  0  0  0  0  0  0  0  0  0
  2  1  1  6
  3  2  1  0
  4  6  1  0
  4  2  1  0
  5  4  2  0
  7  6  1  0
  7 11  1  0
  7  8  1  6
  9  8  1  0
 10  9  2  0
 11 19  1  0
 12 11  2  0
 13  9  1  0
 15 14  1  0
 16 15  1  0
 17 16  1  0
 18 20  1  0
 18 17  1  1
 19 18  1  0
 20 22  1  0
 21 20  2  0
M  END
$$$$
