ADM.pdb
     RDKit          3D

 22 21  0  0  1  0  0  0  0  0999 V2000
    7.9402  -12.5039   19.8333 C   0  0  0  0  0  0  0  0  0  0  0  0
    7.7973  -13.9647   19.4188 C   0  0  2  0  0  0  0  0  0  0  0  0
    6.4561  -14.2816   19.0442 N   0  0  0  0  0  0  0  0  0  0  0  0
    8.2485  -14.7786   20.6045 C   0  0  0  0  0  0  0  0  0  0  0  0
    7.4451  -15.0493   21.5304 O   0  0  0  0  0  0  0  0  0  0  0  0
    9.5946  -15.2590   20.7025 N   0  0  0  0  0  0  0  0  0  0  0  0
   10.0940  -16.0994   21.7319 C   0  0  1  0  0  0  0  0  0  0  0  0
   11.3794  -16.7871   21.5018 C   0  0  0  0  0  0  0  0  0  0  0  0
   11.7500  -17.8454   22.4335 C   0  0  0  0  0  0  0  0  0  0  0  0
   12.1360  -17.5195   23.6084 O   0  0  0  0  0  0  0  0  0  0  0  0
   10.0079  -15.5443   23.1141 C   0  0  0  0  0  0  0  0  0  0  0  0
   10.5118  -14.3992   23.2389 O   0  0  0  0  0  0  0  0  0  0  0  0
   11.7233  -19.1933   22.1624 O   0  0  0  0  0  0  0  0  0  0  0  0
    6.9950  -11.1652   26.1647 C   0  0  0  0  0  0  0  0  0  0  0  0
    6.2954  -12.7843   26.6473 S   0  0  0  0  0  0  0  0  0  0  0  0
    7.5639  -14.0332   26.7334 C   0  0  0  0  0  0  0  0  0  0  0  0
    8.0083  -14.6165   25.4451 C   0  0  0  0  0  0  0  0  0  0  0  0
    9.1484  -15.5747   25.5070 C   0  0  2  0  0  0  0  0  0  0  0  0
    9.4438  -16.1669   24.2236 N   0  0  0  0  0  0  0  0  0  0  0  0
    9.1060  -16.5271   26.6357 C   0  0  0  0  0  0  0  0  0  0  0  0
    8.8241  -16.2207   27.7987 O   0  0  0  0  0  0  0  0  0  0  0  0
    9.4002  -17.8494   26.3619 O   0  0  0  0  0  0  0  0  0  0  0  0
  2  1  1  1
  3  2  1  0
  4  6  1  0
  4  2  1  0
  5  4  2  0
  7  6  1  0
  7 11  1  0
  7  8  1  6
  9  8  1  0
 10  9  2  0
 11 19  1  0
 12 11  2  0
 13  9  1  0
 15 14  1  0
 16 15  1  0
 17 16  1  0
 18 20  1  0
 18 17  1  6
 19 18  1  0
 20 22  1  0
 21 20  2  0
M  END
$$$$
