ADM.pdb
     RDKit          3D

 22 21  0  0  1  0  0  0  0  0999 V2000
    9.1982  -21.4055   21.7709 C   0  0  0  0  0  0  0  0  0  0  0  0
    8.7841  -20.3214   22.7606 C   0  0  2  0  0  0  0  0  0  0  0  0
    7.3742  -20.0950   22.7409 N   0  0  0  0  0  0  0  0  0  0  0  0
    9.5495  -19.0845   22.3655 C   0  0  0  0  0  0  0  0  0  0  0  0
   10.8049  -19.0899   22.3612 O   0  0  0  0  0  0  0  0  0  0  0  0
    8.8678  -17.8823   21.9881 N   0  0  0  0  0  0  0  0  0  0  0  0
    9.4905  -16.6360   21.7152 C   0  0  1  0  0  0  0  0  0  0  0  0
    8.8626  -15.7530   20.7131 C   0  0  0  0  0  0  0  0  0  0  0  0
    8.9411  -16.1620   19.3159 C   0  0  0  0  0  0  0  0  0  0  0  0
   10.0208  -16.7038   18.8961 O   0  0  0  0  0  0  0  0  0  0  0  0
    9.9494  -15.8706   22.9109 C   0  0  0  0  0  0  0  0  0  0  0  0
   10.3971  -14.7260   22.6460 O   0  0  0  0  0  0  0  0  0  0  0  0
    7.9402  -16.0168   18.3841 O   0  0  0  0  0  0  0  0  0  0  0  0
    6.9878  -11.0792   26.4382 C   0  0  0  0  0  0  0  0  0  0  0  0
    6.5202  -12.7128   25.7625 S   0  0  0  0  0  0  0  0  0  0  0  0
    7.7049  -13.9623   26.2223 C   0  0  0  0  0  0  0  0  0  0  0  0
    8.1884  -14.8487   25.1369 C   0  0  0  0  0  0  0  0  0  0  0  0
    9.4662  -15.5732   25.3895 C   0  0  2  0  0  0  0  0  0  0  0  0
    9.9252  -16.3054   24.2327 N   0  0  0  0  0  0  0  0  0  0  0  0
    9.5206  -16.3232   26.6613 C   0  0  0  0  0  0  0  0  0  0  0  0
    9.3669  -17.5449   26.7595 O   0  0  0  0  0  0  0  0  0  0  0  0
    9.7637  -15.6010   27.8142 O   0  0  0  0  0  0  0  0  0  0  0  0
  2  1  1  6
  3  2  1  0
  4  6  1  0
  4  2  1  0
  5  4  2  0
  7  6  1  0
  7 11  1  0
  7  8  1  1
  9  8  1  0
 10  9  2  0
 11 19  1  0
 12 11  2  0
 13  9  1  0
 15 14  1  0
 16 15  1  0
 17 16  1  0
 18 20  1  0
 18 17  1  6
 19 18  1  0
 20 22  1  0
 21 20  2  0
M  END
$$$$
