TMM.pdb
     RDKit          3D

 24 23  0  0  1  0  0  0  0  0999 V2000
   29.1966  -20.3911  -16.4158 C   0  0  0  0  0  0  0  0  0  0  0  0
   28.4600  -20.3026  -15.0825 C   0  0  1  0  0  0  0  0  0  0  0  0
   29.1458  -19.2652  -14.3811 O   0  0  0  0  0  0  0  0  0  0  0  0
   27.0543  -19.7979  -15.2277 C   0  0  2  0  0  0  0  0  0  0  0  0
   27.0706  -18.4837  -15.9124 N   0  0  0  0  0  0  0  0  0  0  0  0
   26.2855  -19.6136  -14.0091 C   0  0  0  0  0  0  0  0  0  0  0  0
   26.2375  -18.4319  -13.5059 O   0  0  0  0  0  0  0  0  0  0  0  0
   20.3277  -20.3983  -11.4566 C   0  0  0  0  0  0  0  0  0  0  0  0
   20.8674  -20.2454  -13.1831 S   0  0  0  0  0  0  0  0  0  0  0  0
   22.6464  -19.8532  -13.2587 C   0  0  0  0  0  0  0  0  0  0  0  0
   23.3698  -20.5227  -12.1542 C   0  0  0  0  0  0  0  0  0  0  0  0
   24.8311  -20.2893  -12.0407 C   0  0  2  0  0  0  0  0  0  0  0  0
   25.5572  -20.5708  -13.2710 N   0  0  0  0  0  0  0  0  0  0  0  0
   25.4994  -20.8341  -10.8677 C   0  0  0  0  0  0  0  0  0  0  0  0
   26.0198  -21.9741  -10.7853 O   0  0  0  0  0  0  0  0  0  0  0  0
   29.8333  -19.4778   -5.2846 C   0  0  0  0  0  0  0  0  0  0  0  0
   28.1103  -19.0765   -5.2711 S   0  0  0  0  0  0  0  0  0  0  0  0
   27.0059  -20.1287   -6.1914 C   0  0  0  0  0  0  0  0  0  0  0  0
   26.7117  -19.6798   -7.5671 C   0  0  0  0  0  0  0  0  0  0  0  0
   25.9132  -20.6382   -8.3678 C   0  0  2  0  0  0  0  0  0  0  0  0
   25.5947  -20.0430   -9.6914 N   0  0  0  0  0  0  0  0  0  0  0  0
   24.7156  -21.1921   -7.7504 C   0  0  0  0  0  0  0  0  0  0  0  0
   24.8877  -22.1290   -6.7018 O   0  0  0  0  0  0  0  0  0  0  0  0
   23.5713  -20.8983   -8.0813 O   0  0  0  0  0  0  0  0  0  0  0  0
  2  1  1  6
  2  3  1  0
  4  6  1  0
  4  2  1  0
  4  5  1  1
  6  7  2  0
  8  9  1  0
 10 11  1  0
 10  9  1  0
 12 11  1  6
 12 14  1  0
 13 12  1  0
 13  6  1  0
 14 21  1  0
 14 15  2  0
 16 17  1  0
 17 18  1  0
 18 19  1  0
 20 19  1  1
 20 22  1  0
 21 20  1  0
 22 24  2  0
 22 23  1  0
M  END
$$$$
