TMM.pdb
     RDKit          3D

 24 23  0  0  1  0  0  0  0  0999 V2000
   28.8815  -21.8217  -16.5093 C   0  0  0  0  0  0  0  0  0  0  0  0
   28.0368  -21.6697  -15.2478 C   0  0  1  0  0  0  0  0  0  0  0  0
   28.9933  -21.3781  -14.2288 O   0  0  0  0  0  0  0  0  0  0  0  0
   27.1448  -20.4636  -15.2877 C   0  0  2  0  0  0  0  0  0  0  0  0
   27.9463  -19.2692  -15.6446 N   0  0  0  0  0  0  0  0  0  0  0  0
   26.4295  -20.1257  -14.0694 C   0  0  0  0  0  0  0  0  0  0  0  0
   26.7195  -19.0130  -13.4953 O   0  0  0  0  0  0  0  0  0  0  0  0
   20.4044  -19.8342  -13.1399 C   0  0  0  0  0  0  0  0  0  0  0  0
   20.7274  -20.1868  -11.3886 S   0  0  0  0  0  0  0  0  0  0  0  0
   22.5170  -20.1145  -11.0471 C   0  0  0  0  0  0  0  0  0  0  0  0
   23.2886  -20.4616  -12.2619 C   0  0  0  0  0  0  0  0  0  0  0  0
   24.7699  -20.4359  -12.1731 C   0  0  2  0  0  0  0  0  0  0  0  0
   25.4284  -20.8614  -13.4001 N   0  0  0  0  0  0  0  0  0  0  0  0
   25.3725  -21.0292  -10.9882 C   0  0  0  0  0  0  0  0  0  0  0  0
   25.6297  -22.2483  -10.8302 O   0  0  0  0  0  0  0  0  0  0  0  0
   29.5993  -18.3524   -6.4403 C   0  0  0  0  0  0  0  0  0  0  0  0
   28.3158  -19.1656   -5.5341 S   0  0  0  0  0  0  0  0  0  0  0  0
   27.2278  -20.2541   -6.4314 C   0  0  0  0  0  0  0  0  0  0  0  0
   26.9045  -19.8249   -7.8068 C   0  0  0  0  0  0  0  0  0  0  0  0
   26.0109  -20.7496   -8.5441 C   0  0  2  0  0  0  0  0  0  0  0  0
   25.7159  -20.1949   -9.8907 N   0  0  0  0  0  0  0  0  0  0  0  0
   24.7841  -21.1679   -7.8793 C   0  0  0  0  0  0  0  0  0  0  0  0
   24.8710  -22.2249   -6.9399 O   0  0  0  0  0  0  0  0  0  0  0  0
   23.6843  -20.6633   -8.0818 O   0  0  0  0  0  0  0  0  0  0  0  0
  2  1  1  6
  2  3  1  0
  4  6  1  0
  4  2  1  0
  4  5  1  1
  6  7  2  0
  8  9  1  0
 10 11  1  0
 10  9  1  0
 12 11  1  6
 12 14  1  0
 13 12  1  0
 13  6  1  0
 14 21  1  0
 14 15  2  0
 16 17  1  0
 17 18  1  0
 18 19  1  0
 20 19  1  1
 20 22  1  0
 21 20  1  0
 22 24  2  0
 22 23  1  0
M  END
$$$$
