TMM.pdb
     RDKit          3D

 24 23  0  0  1  0  0  0  0  0999 V2000
   18.5275  -13.2293  -19.3707 C   0  0  0  0  0  0  0  0  0  0  0  0
   19.4142  -12.3895  -18.4560 C   0  0  1  0  0  0  0  0  0  0  0  0
   18.4927  -11.7808  -17.5511 O   0  0  0  0  0  0  0  0  0  0  0  0
   20.3063  -13.2246  -17.5849 C   0  0  2  0  0  0  0  0  0  0  0  0
   19.4780  -14.1391  -16.7640 N   0  0  0  0  0  0  0  0  0  0  0  0
   21.1778  -12.5219  -16.6594 C   0  0  0  0  0  0  0  0  0  0  0  0
   20.7141  -12.2489  -15.4922 O   0  0  0  0  0  0  0  0  0  0  0  0
   27.4497  -12.6340  -14.3743 C   0  0  0  0  0  0  0  0  0  0  0  0
   26.3814  -13.9084  -15.1026 S   0  0  0  0  0  0  0  0  0  0  0  0
   24.6552  -13.3252  -15.1705 C   0  0  0  0  0  0  0  0  0  0  0  0
   24.6054  -11.9086  -15.5970 C   0  0  0  0  0  0  0  0  0  0  0  0
   23.2748  -11.3177  -15.8854 C   0  0  2  0  0  0  0  0  0  0  0  0
   22.5036  -12.0805  -16.8567 N   0  0  0  0  0  0  0  0  0  0  0  0
   23.2283   -9.8859  -16.1447 C   0  0  0  0  0  0  0  0  0  0  0  0
   23.5478   -9.3266  -17.2227 O   0  0  0  0  0  0  0  0  0  0  0  0
   19.5447   -4.2057  -18.5872 C   0  0  0  0  0  0  0  0  0  0  0  0
   20.1070   -5.8391  -18.2055 S   0  0  0  0  0  0  0  0  0  0  0  0
   21.2463   -6.0289  -16.8491 C   0  0  0  0  0  0  0  0  0  0  0  0
   21.6438   -7.4198  -16.5528 C   0  0  0  0  0  0  0  0  0  0  0  0
   22.5306   -7.5668  -15.3742 C   0  0  2  0  0  0  0  0  0  0  0  0
   22.7899   -9.0072  -15.1180 N   0  0  0  0  0  0  0  0  0  0  0  0
   22.1326   -6.8889  -14.1477 C   0  0  0  0  0  0  0  0  0  0  0  0
   22.3098   -5.4848  -14.0834 O   0  0  0  0  0  0  0  0  0  0  0  0
   21.6551   -7.4568  -13.1707 O   0  0  0  0  0  0  0  0  0  0  0  0
  2  1  1  6
  2  3  1  0
  4  6  1  0
  4  2  1  0
  4  5  1  1
  6  7  2  0
  8  9  1  0
 10 11  1  0
 10  9  1  0
 12 11  1  6
 12 14  1  0
 13 12  1  0
 13  6  1  0
 14 21  1  0
 14 15  2  0
 16 17  1  0
 17 18  1  0
 18 19  1  0
 20 19  1  6
 20 22  1  0
 21 20  1  0
 22 24  2  0
 22 23  1  0
M  END
$$$$
