TMM.pdb
     RDKit          3D

 24 23  0  0  1  0  0  0  0  0999 V2000
   25.4822  -18.4382  -14.9935 C   0  0  0  0  0  0  0  0  0  0  0  0
   25.7912  -19.7719  -15.6673 C   0  0  1  0  0  0  0  0  0  0  0  0
   26.7009  -19.4248  -16.7115 O   0  0  0  0  0  0  0  0  0  0  0  0
   26.5662  -20.7040  -14.7827 C   0  0  2  0  0  0  0  0  0  0  0  0
   26.8272  -21.9695  -15.5084 N   0  0  0  0  0  0  0  0  0  0  0  0
   25.9589  -21.0772  -13.5170 C   0  0  0  0  0  0  0  0  0  0  0  0
   25.0965  -22.0301  -13.5261 O   0  0  0  0  0  0  0  0  0  0  0  0
   27.7116  -19.2928   -7.6152 C   0  0  0  0  0  0  0  0  0  0  0  0
   26.2198  -20.1837   -7.0895 S   0  0  0  0  0  0  0  0  0  0  0  0
   25.2341  -20.6809   -8.5406 C   0  0  0  0  0  0  0  0  0  0  0  0
   25.9858  -20.4200   -9.7889 C   0  0  0  0  0  0  0  0  0  0  0  0
   25.3328  -20.7652  -11.0763 C   0  0  2  0  0  0  0  0  0  0  0  0
   26.1834  -20.5321  -12.2349 N   0  0  0  0  0  0  0  0  0  0  0  0
   23.9753  -20.2807  -11.2810 C   0  0  0  0  0  0  0  0  0  0  0  0
   23.6447  -19.3197  -12.0187 O   0  0  0  0  0  0  0  0  0  0  0  0
   21.0337  -19.2173  -14.3047 C   0  0  0  0  0  0  0  0  0  0  0  0
   20.0762  -20.7008  -14.4154 S   0  0  0  0  0  0  0  0  0  0  0  0
   20.4001  -21.9884  -13.2275 C   0  0  0  0  0  0  0  0  0  0  0  0
   21.6663  -21.8497  -12.4807 C   0  0  0  0  0  0  0  0  0  0  0  0
   21.5577  -21.0625  -11.2293 C   0  0  2  0  0  0  0  0  0  0  0  0
   22.8998  -20.9202  -10.6080 N   0  0  0  0  0  0  0  0  0  0  0  0
   20.5781  -21.5017  -10.2446 C   0  0  0  0  0  0  0  0  0  0  0  0
   19.2510  -21.0237  -10.3765 O   0  0  0  0  0  0  0  0  0  0  0  0
   20.8305  -22.2573   -9.3116 O   0  0  0  0  0  0  0  0  0  0  0  0
  2  1  1  1
  2  3  1  0
  4  6  1  0
  4  2  1  0
  4  5  1  6
  6  7  2  0
  8  9  1  0
 10 11  1  0
 10  9  1  0
 12 11  1  1
 12 14  1  0
 13 12  1  0
 13  6  1  0
 14 21  1  0
 14 15  2  0
 16 17  1  0
 17 18  1  0
 18 19  1  0
 20 19  1  6
 20 22  1  0
 21 20  1  0
 22 24  2  0
 22 23  1  0
M  END
$$$$
