TMM.pdb
     RDKit          3D

 24 23  0  0  1  0  0  0  0  0999 V2000
   15.9718  -13.8352  -15.7201 C   0  0  0  0  0  0  0  0  0  0  0  0
   15.8907  -12.3868  -15.2471 C   0  0  1  0  0  0  0  0  0  0  0  0
   14.9317  -12.4254  -14.1901 O   0  0  0  0  0  0  0  0  0  0  0  0
   17.1574  -11.9172  -14.5937 C   0  0  2  0  0  0  0  0  0  0  0  0
   17.5425  -12.8685  -13.5245 N   0  0  0  0  0  0  0  0  0  0  0  0
   17.1402  -10.6002  -13.9814 C   0  0  0  0  0  0  0  0  0  0  0  0
   17.0617   -9.5804  -14.7596 O   0  0  0  0  0  0  0  0  0  0  0  0
   12.4417   -9.6711   -9.3471 C   0  0  0  0  0  0  0  0  0  0  0  0
   14.0991   -8.9305   -9.3352 S   0  0  0  0  0  0  0  0  0  0  0  0
   14.9253   -9.2003  -10.9380 C   0  0  0  0  0  0  0  0  0  0  0  0
   16.3361   -8.7569  -10.8725 C   0  0  0  0  0  0  0  0  0  0  0  0
   17.1657   -8.9013  -12.0947 C   0  0  2  0  0  0  0  0  0  0  0  0
   17.1973  -10.2618  -12.6125 N   0  0  0  0  0  0  0  0  0  0  0  0
   18.4852   -8.2865  -12.0757 C   0  0  0  0  0  0  0  0  0  0  0  0
   19.5374   -8.8247  -11.6508 O   0  0  0  0  0  0  0  0  0  0  0  0
   24.2087   -7.9709  -16.2722 C   0  0  0  0  0  0  0  0  0  0  0  0
   22.6439   -8.3611  -15.5448 S   0  0  0  0  0  0  0  0  0  0  0  0
   21.8829   -7.1320  -14.5036 C   0  0  0  0  0  0  0  0  0  0  0  0
   20.5735   -7.5125  -13.9371 C   0  0  0  0  0  0  0  0  0  0  0  0
   19.9448   -6.4705  -13.0908 C   0  0  2  0  0  0  0  0  0  0  0  0
   18.6435   -6.9643  -12.5707 N   0  0  0  0  0  0  0  0  0  0  0  0
   19.7986   -5.1397  -13.6649 C   0  0  0  0  0  0  0  0  0  0  0  0
   20.8741   -4.2314  -13.5059 O   0  0  0  0  0  0  0  0  0  0  0  0
   18.8051   -4.7582  -14.2754 O   0  0  0  0  0  0  0  0  0  0  0  0
  2  1  1  1
  2  3  1  0
  4  6  1  0
  4  2  1  0
  4  5  1  1
  6  7  2  0
  8  9  1  0
 10 11  1  0
 10  9  1  0
 12 11  1  1
 12 14  1  0
 13 12  1  0
 13  6  1  0
 14 21  1  0
 14 15  2  0
 16 17  1  0
 17 18  1  0
 18 19  1  0
 20 19  1  6
 20 22  1  0
 21 20  1  0
 22 24  2  0
 22 23  1  0
M  END
$$$$
