TMM.pdb
     RDKit          3D

 24 23  0  0  1  0  0  0  0  0999 V2000
   34.8095  -27.3050  -18.8383 C   0  0  0  0  0  0  0  0  0  0  0  0
   36.0785  -27.6601  -19.6075 C   0  0  1  0  0  0  0  0  0  0  0  0
   36.5890  -26.3947  -20.0278 O   0  0  0  0  0  0  0  0  0  0  0  0
   37.1519  -28.2290  -18.7265 C   0  0  2  0  0  0  0  0  0  0  0  0
   38.3269  -28.5925  -19.5532 N   0  0  0  0  0  0  0  0  0  0  0  0
   36.8175  -29.4107  -17.9508 C   0  0  0  0  0  0  0  0  0  0  0  0
   36.6748  -30.5202  -18.5835 O   0  0  0  0  0  0  0  0  0  0  0  0
   36.4595  -33.4855  -11.1158 C   0  0  0  0  0  0  0  0  0  0  0  0
   37.0156  -32.0557  -12.0863 S   0  0  0  0  0  0  0  0  0  0  0  0
   36.2104  -32.0483  -13.7222 C   0  0  0  0  0  0  0  0  0  0  0  0
   36.5902  -30.8340  -14.4788 C   0  0  0  0  0  0  0  0  0  0  0  0
   36.1370  -30.7251  -15.8879 C   0  0  2  0  0  0  0  0  0  0  0  0
   36.6209  -29.5266  -16.5582 N   0  0  0  0  0  0  0  0  0  0  0  0
   34.7270  -30.9741  -16.1510 C   0  0  0  0  0  0  0  0  0  0  0  0
   33.8315  -30.0973  -16.2318 O   0  0  0  0  0  0  0  0  0  0  0  0
   31.5149  -29.8089  -20.5536 C   0  0  0  0  0  0  0  0  0  0  0  0
   31.1250  -31.5241  -20.3645 S   0  0  0  0  0  0  0  0  0  0  0  0
   31.3886  -32.2639  -18.7655 C   0  0  0  0  0  0  0  0  0  0  0  0
   32.6877  -31.9528  -18.1361 C   0  0  0  0  0  0  0  0  0  0  0  0
   32.9123  -32.6184  -16.8308 C   0  0  2  0  0  0  0  0  0  0  0  0
   34.2799  -32.3095  -16.3389 N   0  0  0  0  0  0  0  0  0  0  0  0
   32.6482  -34.0490  -16.7543 C   0  0  0  0  0  0  0  0  0  0  0  0
   31.2966  -34.4724  -16.7874 O   0  0  0  0  0  0  0  0  0  0  0  0
   33.5208  -34.9066  -16.6632 O   0  0  0  0  0  0  0  0  0  0  0  0
  2  1  1  1
  2  3  1  0
  4  6  1  0
  4  2  1  0
  4  5  1  6
  6  7  2  0
  8  9  1  0
 10 11  1  0
 10  9  1  0
 12 11  1  1
 12 14  1  0
 13 12  1  0
 13  6  1  0
 14 21  1  0
 14 15  2  0
 16 17  1  0
 17 18  1  0
 18 19  1  0
 20 19  1  6
 20 22  1  0
 21 20  1  0
 22 24  2  0
 22 23  1  0
M  END
$$$$
