TMM.pdb
     RDKit          3D

 24 23  0  0  1  0  0  0  0  0999 V2000
   28.5245  -18.7290  -16.6056 C   0  0  0  0  0  0  0  0  0  0  0  0
   27.5074  -19.2177  -15.5786 C   0  0  1  0  0  0  0  0  0  0  0  0
   26.3556  -19.5329  -16.3612 O   0  0  0  0  0  0  0  0  0  0  0  0
   27.9024  -20.5185  -14.9432 C   0  0  2  0  0  0  0  0  0  0  0  0
   27.9285  -21.5828  -15.9742 N   0  0  0  0  0  0  0  0  0  0  0  0
   27.0627  -21.0139  -13.8665 C   0  0  0  0  0  0  0  0  0  0  0  0
   26.2042  -21.9274  -14.1502 O   0  0  0  0  0  0  0  0  0  0  0  0
   27.1797  -19.9631   -7.0984 C   0  0  0  0  0  0  0  0  0  0  0  0
   25.8759  -21.1150   -7.6168 S   0  0  0  0  0  0  0  0  0  0  0  0
   25.1470  -20.5766   -9.1990 C   0  0  0  0  0  0  0  0  0  0  0  0
   26.2058  -20.3813  -10.2150 C   0  0  0  0  0  0  0  0  0  0  0  0
   25.9442  -20.8703  -11.5917 C   0  0  2  0  0  0  0  0  0  0  0  0
   27.0494  -20.6299  -12.5086 N   0  0  0  0  0  0  0  0  0  0  0  0
   24.6554  -20.5348  -12.1797 C   0  0  0  0  0  0  0  0  0  0  0  0
   24.3361  -19.4166  -12.6539 O   0  0  0  0  0  0  0  0  0  0  0  0
   21.1242  -24.6311  -16.0195 C   0  0  0  0  0  0  0  0  0  0  0  0
   19.9210  -23.7156  -15.1009 S   0  0  0  0  0  0  0  0  0  0  0  0
   20.4860  -22.3110  -14.1620 C   0  0  0  0  0  0  0  0  0  0  0  0
   21.8513  -22.4312  -13.6125 C   0  0  0  0  0  0  0  0  0  0  0  0
   22.3082  -21.2511  -12.8404 C   0  0  2  0  0  0  0  0  0  0  0  0
   23.6407  -21.5272  -12.2438 N   0  0  0  0  0  0  0  0  0  0  0  0
   21.3974  -20.7120  -11.8395 C   0  0  0  0  0  0  0  0  0  0  0  0
   20.2785  -19.9728  -12.2965 O   0  0  0  0  0  0  0  0  0  0  0  0
   21.5388  -20.8581  -10.6296 O   0  0  0  0  0  0  0  0  0  0  0  0
  2  1  1  6
  2  3  1  0
  4  6  1  0
  4  2  1  0
  4  5  1  6
  6  7  2  0
  8  9  1  0
 10 11  1  0
 10  9  1  0
 12 11  1  1
 12 14  1  0
 13 12  1  0
 13  6  1  0
 14 21  1  0
 14 15  2  0
 16 17  1  0
 17 18  1  0
 18 19  1  0
 20 19  1  1
 20 22  1  0
 21 20  1  0
 22 24  2  0
 22 23  1  0
M  END
$$$$
