TMM.pdb
     RDKit          3D

 24 23  0  0  1  0  0  0  0  0999 V2000
   28.8424  -20.4373  -18.3582 C   0  0  0  0  0  0  0  0  0  0  0  0
   27.5642  -20.3826  -17.5268 C   0  0  1  0  0  0  0  0  0  0  0  0
   28.0322  -20.4044  -16.1782 O   0  0  0  0  0  0  0  0  0  0  0  0
   26.8421  -19.0735  -17.6571 C   0  0  2  0  0  0  0  0  0  0  0  0
   27.7948  -17.9606  -17.4332 N   0  0  0  0  0  0  0  0  0  0  0  0
   25.7236  -18.8397  -16.7603 C   0  0  0  0  0  0  0  0  0  0  0  0
   25.9514  -18.1821  -15.6798 O   0  0  0  0  0  0  0  0  0  0  0  0
   21.4522  -18.3816  -19.6281 C   0  0  0  0  0  0  0  0  0  0  0  0
   21.2672  -16.8902  -18.6098 S   0  0  0  0  0  0  0  0  0  0  0  0
   22.2930  -17.0170  -17.1078 C   0  0  0  0  0  0  0  0  0  0  0  0
   22.1281  -18.3480  -16.4812 C   0  0  0  0  0  0  0  0  0  0  0  0
   23.3345  -19.0025  -15.9163 C   0  0  2  0  0  0  0  0  0  0  0  0
   24.3778  -19.2393  -16.9039 N   0  0  0  0  0  0  0  0  0  0  0  0
   23.1196  -20.1545  -15.0525 C   0  0  0  0  0  0  0  0  0  0  0  0
   23.9237  -21.1047  -14.8862 O   0  0  0  0  0  0  0  0  0  0  0  0
   25.8859  -21.7140   -9.9828 C   0  0  0  0  0  0  0  0  0  0  0  0
   24.9478  -21.0509  -11.3283 S   0  0  0  0  0  0  0  0  0  0  0  0
   23.4162  -20.2255  -10.9451 C   0  0  0  0  0  0  0  0  0  0  0  0
   22.7076  -19.6470  -12.1042 C   0  0  0  0  0  0  0  0  0  0  0  0
   21.8952  -20.6187  -12.8743 C   0  0  2  0  0  0  0  0  0  0  0  0
   21.9095  -20.2544  -14.3147 N   0  0  0  0  0  0  0  0  0  0  0  0
   20.5335  -20.8633  -12.4183 C   0  0  0  0  0  0  0  0  0  0  0  0
   20.2428  -22.1335  -11.8623 O   0  0  0  0  0  0  0  0  0  0  0  0
   19.6261  -20.0403  -12.4858 O   0  0  0  0  0  0  0  0  0  0  0  0
  2  1  1  6
  2  3  1  0
  4  6  1  0
  4  2  1  0
  4  5  1  1
  6  7  2  0
  8  9  1  0
 10 11  1  0
 10  9  1  0
 12 11  1  6
 12 14  1  0
 13 12  1  0
 13  6  1  0
 14 21  1  0
 14 15  2  0
 16 17  1  0
 17 18  1  0
 18 19  1  0
 20 19  1  1
 20 22  1  0
 21 20  1  0
 22 24  2  0
 22 23  1  0
M  END
$$$$
