TMM.pdb
     RDKit          3D

 24 23  0  0  1  0  0  0  0  0999 V2000
   26.9291  -22.8279  -20.0564 C   0  0  0  0  0  0  0  0  0  0  0  0
   27.4216  -22.2116  -18.7503 C   0  0  1  0  0  0  0  0  0  0  0  0
   27.1223  -20.8229  -18.8932 O   0  0  0  0  0  0  0  0  0  0  0  0
   26.6195  -22.6525  -17.5611 C   0  0  2  0  0  0  0  0  0  0  0  0
   25.1796  -22.4206  -17.8241 N   0  0  0  0  0  0  0  0  0  0  0  0
   26.9102  -22.0130  -16.2897 C   0  0  0  0  0  0  0  0  0  0  0  0
   28.0871  -22.1694  -15.7974 O   0  0  0  0  0  0  0  0  0  0  0  0
   25.9731  -16.1533  -15.2251 C   0  0  0  0  0  0  0  0  0  0  0  0
   27.6836  -16.7612  -15.2081 S   0  0  0  0  0  0  0  0  0  0  0  0
   27.7081  -18.5843  -15.1949 C   0  0  0  0  0  0  0  0  0  0  0  0
   26.6109  -19.1091  -14.3510 C   0  0  0  0  0  0  0  0  0  0  0  0
   26.4652  -20.5819  -14.2402 C   0  0  2  0  0  0  0  0  0  0  0  0
   26.0647  -21.2172  -15.4877 N   0  0  0  0  0  0  0  0  0  0  0  0
   25.7195  -21.0893  -13.0975 C   0  0  0  0  0  0  0  0  0  0  0  0
   24.5932  -21.6428  -13.1458 O   0  0  0  0  0  0  0  0  0  0  0  0
   27.3984  -18.7352   -6.9186 C   0  0  0  0  0  0  0  0  0  0  0  0
   26.3397  -20.1338   -6.6884 S   0  0  0  0  0  0  0  0  0  0  0  0
   25.4718  -20.7611   -8.1121 C   0  0  0  0  0  0  0  0  0  0  0  0
   26.2134  -20.6785   -9.3864 C   0  0  0  0  0  0  0  0  0  0  0  0
   25.4521  -21.1423  -10.5707 C   0  0  2  0  0  0  0  0  0  0  0  0
   26.2753  -20.9694  -11.7955 N   0  0  0  0  0  0  0  0  0  0  0  0
   24.1169  -20.5934  -10.7657 C   0  0  0  0  0  0  0  0  0  0  0  0
   23.0314  -21.2670  -10.1532 O   0  0  0  0  0  0  0  0  0  0  0  0
   23.8753  -19.5874  -11.4251 O   0  0  0  0  0  0  0  0  0  0  0  0
  2  1  1  6
  2  3  1  0
  4  6  1  0
  4  2  1  0
  4  5  1  6
  6  7  2  0
  8  9  1  0
 10 11  1  0
 10  9  1  0
 12 11  1  6
 12 14  1  0
 13 12  1  0
 13  6  1  0
 14 21  1  0
 14 15  2  0
 16 17  1  0
 17 18  1  0
 18 19  1  0
 20 19  1  1
 20 22  1  0
 21 20  1  0
 22 24  2  0
 22 23  1  0
M  END
$$$$
