TMM.pdb
     RDKit          3D

 24 23  0  0  1  0  0  0  0  0999 V2000
   27.2367  -18.0673  -15.0364 C   0  0  0  0  0  0  0  0  0  0  0  0
   27.4033  -19.3537  -15.8400 C   0  0  1  0  0  0  0  0  0  0  0  0
   28.5412  -19.0975  -16.6634 O   0  0  0  0  0  0  0  0  0  0  0  0
   27.8057  -20.5223  -14.9889 C   0  0  2  0  0  0  0  0  0  0  0  0
   28.0224  -21.7083  -15.8508 N   0  0  0  0  0  0  0  0  0  0  0  0
   26.8799  -20.9371  -13.9493 C   0  0  0  0  0  0  0  0  0  0  0  0
   25.8880  -21.6783  -14.2935 O   0  0  0  0  0  0  0  0  0  0  0  0
   26.6494  -19.1311   -7.4101 C   0  0  0  0  0  0  0  0  0  0  0  0
   25.8786  -20.7711   -7.5186 S   0  0  0  0  0  0  0  0  0  0  0  0
   25.1896  -21.0385   -9.1854 C   0  0  0  0  0  0  0  0  0  0  0  0
   26.2082  -20.7434  -10.2183 C   0  0  0  0  0  0  0  0  0  0  0  0
   25.8223  -20.9143  -11.6412 C   0  0  2  0  0  0  0  0  0  0  0  0
   26.9089  -20.6386  -12.5704 N   0  0  0  0  0  0  0  0  0  0  0  0
   24.5671  -20.3099  -12.0640 C   0  0  0  0  0  0  0  0  0  0  0  0
   24.4283  -19.1408  -12.5011 O   0  0  0  0  0  0  0  0  0  0  0  0
   23.0718  -19.9699  -17.2397 C   0  0  0  0  0  0  0  0  0  0  0  0
   21.4060  -19.9309  -16.6451 S   0  0  0  0  0  0  0  0  0  0  0  0
   21.1452  -20.1251  -14.8935 C   0  0  0  0  0  0  0  0  0  0  0  0
   22.3368  -20.5325  -14.1225 C   0  0  0  0  0  0  0  0  0  0  0  0
   22.1174  -20.6306  -12.6598 C   0  0  2  0  0  0  0  0  0  0  0  0
   23.3699  -21.0716  -11.9931 N   0  0  0  0  0  0  0  0  0  0  0  0
   20.9843  -21.4247  -12.2043 C   0  0  0  0  0  0  0  0  0  0  0  0
   19.7573  -20.7534  -11.9783 O   0  0  0  0  0  0  0  0  0  0  0  0
   21.0267  -22.6346  -12.0052 O   0  0  0  0  0  0  0  0  0  0  0  0
  2  1  1  1
  2  3  1  0
  4  6  1  0
  4  2  1  0
  4  5  1  6
  6  7  2  0
  8  9  1  0
 10 11  1  0
 10  9  1  0
 12 11  1  1
 12 14  1  0
 13 12  1  0
 13  6  1  0
 14 21  1  0
 14 15  2  0
 16 17  1  0
 17 18  1  0
 18 19  1  0
 20 19  1  6
 20 22  1  0
 21 20  1  0
 22 24  2  0
 22 23  1  0
M  END
$$$$
