TMM.pdb
     RDKit          3D

 24 23  0  0  1  0  0  0  0  0999 V2000
   18.7825   -8.6498  -19.8729 C   0  0  0  0  0  0  0  0  0  0  0  0
   17.9336   -9.5417  -18.9717 C   0  0  1  0  0  0  0  0  0  0  0  0
   17.0693  -10.2230  -19.8812 O   0  0  0  0  0  0  0  0  0  0  0  0
   18.7303  -10.6314  -18.3161 C   0  0  2  0  0  0  0  0  0  0  0  0
   17.8235  -11.4985  -17.5272 N   0  0  0  0  0  0  0  0  0  0  0  0
   19.7941  -10.2258  -17.4141 C   0  0  0  0  0  0  0  0  0  0  0  0
   19.4728   -9.5154  -16.3924 O   0  0  0  0  0  0  0  0  0  0  0  0
   27.3861  -10.6812  -14.9041 C   0  0  0  0  0  0  0  0  0  0  0  0
   26.0116  -11.3147  -15.9067 S   0  0  0  0  0  0  0  0  0  0  0  0
   24.5572  -10.2267  -15.7478 C   0  0  0  0  0  0  0  0  0  0  0  0
   23.4308  -10.7501  -16.5531 C   0  0  0  0  0  0  0  0  0  0  0  0
   22.1858   -9.9441  -16.6099 C   0  0  2  0  0  0  0  0  0  0  0  0
   21.1748  -10.5064  -17.4941 N   0  0  0  0  0  0  0  0  0  0  0  0
   22.3353   -8.5066  -16.7851 C   0  0  0  0  0  0  0  0  0  0  0  0
   22.8189   -7.9387  -17.7955 O   0  0  0  0  0  0  0  0  0  0  0  0
   19.5319   -1.5536  -17.4899 C   0  0  0  0  0  0  0  0  0  0  0  0
   19.5034   -3.3072  -17.2576 S   0  0  0  0  0  0  0  0  0  0  0  0
   20.9274   -4.0680  -16.5045 C   0  0  0  0  0  0  0  0  0  0  0  0
   20.9125   -5.5443  -16.4823 C   0  0  0  0  0  0  0  0  0  0  0  0
   22.0966   -6.1604  -15.8377 C   0  0  2  0  0  0  0  0  0  0  0  0
   21.9108   -7.6319  -15.7491 N   0  0  0  0  0  0  0  0  0  0  0  0
   22.5194   -5.6164  -14.5542 C   0  0  0  0  0  0  0  0  0  0  0  0
   22.2728   -6.3934  -13.3955 O   0  0  0  0  0  0  0  0  0  0  0  0
   23.0738   -4.5308  -14.4152 O   0  0  0  0  0  0  0  0  0  0  0  0
  2  1  1  6
  2  3  1  0
  4  6  1  0
  4  2  1  0
  4  5  1  1
  6  7  2  0
  8  9  1  0
 10 11  1  0
 10  9  1  0
 12 11  1  6
 12 14  1  0
 13 12  1  0
 13  6  1  0
 14 21  1  0
 14 15  2  0
 16 17  1  0
 17 18  1  0
 18 19  1  0
 20 19  1  1
 20 22  1  0
 21 20  1  0
 22 24  2  0
 22 23  1  0
M  END
$$$$
