TMM.pdb
     RDKit          3D

 24 23  0  0  1  0  0  0  0  0999 V2000
   28.6978  -21.1912  -16.9748 C   0  0  0  0  0  0  0  0  0  0  0  0
   27.4912  -20.9949  -16.0616 C   0  0  1  0  0  0  0  0  0  0  0  0
   26.3877  -20.9201  -16.9645 O   0  0  0  0  0  0  0  0  0  0  0  0
   27.2048  -22.1974  -15.2108 C   0  0  2  0  0  0  0  0  0  0  0  0
   26.8066  -23.3314  -16.0779 N   0  0  0  0  0  0  0  0  0  0  0  0
   26.1644  -22.0674  -14.2056 C   0  0  0  0  0  0  0  0  0  0  0  0
   25.1113  -22.7922  -14.3383 O   0  0  0  0  0  0  0  0  0  0  0  0
   25.2340  -19.8391   -7.7562 C   0  0  0  0  0  0  0  0  0  0  0  0
   26.7607  -20.5162   -8.4678 S   0  0  0  0  0  0  0  0  0  0  0  0
   26.4056  -21.3572  -10.0461 C   0  0  0  0  0  0  0  0  0  0  0  0
   25.3858  -20.6066  -10.8128 C   0  0  0  0  0  0  0  0  0  0  0  0
   25.0081  -21.1212  -12.1527 C   0  0  2  0  0  0  0  0  0  0  0  0
   26.1369  -21.2367  -13.0651 N   0  0  0  0  0  0  0  0  0  0  0  0
   23.8433  -20.5219  -12.7879 C   0  0  0  0  0  0  0  0  0  0  0  0
   23.8415  -19.4627  -13.4626 O   0  0  0  0  0  0  0  0  0  0  0  0
   18.5086  -24.3460  -14.1009 C   0  0  0  0  0  0  0  0  0  0  0  0
   18.1662  -22.7715  -14.8313 S   0  0  0  0  0  0  0  0  0  0  0  0
   19.2618  -21.4210  -14.4443 C   0  0  0  0  0  0  0  0  0  0  0  0
   20.4658  -21.7903  -13.6734 C   0  0  0  0  0  0  0  0  0  0  0  0
   21.3741  -20.6578  -13.3739 C   0  0  2  0  0  0  0  0  0  0  0  0
   22.5782  -21.1557  -12.6599 N   0  0  0  0  0  0  0  0  0  0  0  0
   20.8054  -19.5073  -12.6846 C   0  0  0  0  0  0  0  0  0  0  0  0
   20.2441  -18.4756  -13.4768 O   0  0  0  0  0  0  0  0  0  0  0  0
   20.7827  -19.3772  -11.4649 O   0  0  0  0  0  0  0  0  0  0  0  0
  2  1  1  6
  2  3  1  0
  4  6  1  0
  4  2  1  0
  4  5  1  6
  6  7  2  0
  8  9  1  0
 10 11  1  0
 10  9  1  0
 12 11  1  1
 12 14  1  0
 13 12  1  0
 13  6  1  0
 14 21  1  0
 14 15  2  0
 16 17  1  0
 17 18  1  0
 18 19  1  0
 20 19  1  1
 20 22  1  0
 21 20  1  0
 22 24  2  0
 22 23  1  0
M  END
$$$$
