TMM.pdb
     RDKit          3D

 24 23  0  0  1  0  0  0  0  0999 V2000
   23.2955  -25.0811  -17.5867 C   0  0  0  0  0  0  0  0  0  0  0  0
   24.4911  -25.4609  -16.7181 C   0  0  1  0  0  0  0  0  0  0  0  0
   25.4135  -26.0408  -17.6407 O   0  0  0  0  0  0  0  0  0  0  0  0
   25.2094  -24.2656  -16.1636 C   0  0  2  0  0  0  0  0  0  0  0  0
   26.3093  -24.7179  -15.2793 N   0  0  0  0  0  0  0  0  0  0  0  0
   24.4252  -23.3200  -15.3884 C   0  0  0  0  0  0  0  0  0  0  0  0
   24.0919  -23.6577  -14.1940 O   0  0  0  0  0  0  0  0  0  0  0  0
   26.4444  -16.7078  -15.2923 C   0  0  0  0  0  0  0  0  0  0  0  0
   24.7650  -17.3792  -15.4487 S   0  0  0  0  0  0  0  0  0  0  0  0
   24.7706  -19.1772  -15.1464 C   0  0  0  0  0  0  0  0  0  0  0  0
   23.3933  -19.7158  -15.2120 C   0  0  0  0  0  0  0  0  0  0  0  0
   23.1954  -21.1532  -14.8997 C   0  0  2  0  0  0  0  0  0  0  0  0
   23.9603  -22.0415  -15.7634 N   0  0  0  0  0  0  0  0  0  0  0  0
   21.8249  -21.6079  -14.7143 C   0  0  0  0  0  0  0  0  0  0  0  0
   21.0545  -22.0005  -15.6251 O   0  0  0  0  0  0  0  0  0  0  0  0
   19.1274  -25.9111  -10.1142 C   0  0  0  0  0  0  0  0  0  0  0  0
   18.3932  -24.3033  -10.0381 S   0  0  0  0  0  0  0  0  0  0  0  0
   18.4655  -23.2877  -11.5000 C   0  0  0  0  0  0  0  0  0  0  0  0
   19.8140  -22.8115  -11.8677 C   0  0  0  0  0  0  0  0  0  0  0  0
   19.8753  -22.0736  -13.1518 C   0  0  2  0  0  0  0  0  0  0  0  0
   21.2689  -21.6257  -13.4070 N   0  0  0  0  0  0  0  0  0  0  0  0
   18.9385  -20.9736  -13.3376 C   0  0  0  0  0  0  0  0  0  0  0  0
   17.6604  -21.2787  -13.8672 O   0  0  0  0  0  0  0  0  0  0  0  0
   19.1871  -19.8036  -13.0646 O   0  0  0  0  0  0  0  0  0  0  0  0
  2  1  1  6
  2  3  1  0
  4  6  1  0
  4  2  1  0
  4  5  1  1
  6  7  2  0
  8  9  1  0
 10 11  1  0
 10  9  1  0
 12 11  1  6
 12 14  1  0
 13 12  1  0
 13  6  1  0
 14 21  1  0
 14 15  2  0
 16 17  1  0
 17 18  1  0
 18 19  1  0
 20 19  1  1
 20 22  1  0
 21 20  1  0
 22 24  2  0
 22 23  1  0
M  END
$$$$
