KAP.pdb
     RDKit          3D

 22 22  0  0  1  0  0  0  0  0999 V2000
   25.7289  -21.1776   -9.3899 N   0  0  0  0  0  0  0  0  0  0  0  0
   25.0095  -20.7309  -10.5308 C   0  0  1  0  0  0  0  0  0  0  0  0
   23.9441  -19.7345  -10.3696 C   0  0  0  0  0  0  0  0  0  0  0  0
   22.5472  -20.1520  -10.5024 C   0  0  0  0  0  0  0  0  0  0  0  0
   22.0422  -21.1344  -11.4420 C   0  0  0  0  0  0  0  0  0  0  0  0
   20.6126  -21.4669  -11.5631 C   0  0  0  0  0  0  0  0  0  0  0  0
   20.2839  -22.5062  -12.5057 N   0  0  0  0  0  0  0  0  0  0  0  0
   25.9809  -20.3258  -11.6305 C   0  0  0  0  0  0  0  0  0  0  0  0
   26.6014  -19.2506  -11.4663 O   0  0  0  0  0  0  0  0  0  0  0  0
   27.7640  -21.8819  -14.3998 C   0  0  0  0  0  0  0  0  0  0  0  0
   27.0372  -20.6560  -13.8886 C   0  0  2  0  0  0  0  0  0  0  0  0
   26.2036  -21.0811  -12.7824 N   0  0  0  0  0  0  0  0  0  0  0  0
   26.1613  -20.0820  -14.9859 C   0  0  0  0  0  0  0  0  0  0  0  0
   25.0969  -20.7335  -15.2056 O   0  0  0  0  0  0  0  0  0  0  0  0
   26.5563  -18.9240  -15.6609 N   0  0  0  0  0  0  0  0  0  0  0  0
   27.5235  -17.9519  -15.1133 C   0  0  0  0  0  0  0  0  0  0  0  0
   28.4524  -17.8212  -16.2879 C   0  0  0  0  0  0  0  0  0  0  0  0
   27.6511  -18.2086  -17.5122 C   0  0  0  0  0  0  0  0  0  0  0  0
   26.2248  -18.3592  -16.9093 C   0  0  1  0  0  0  0  0  0  0  0  0
   25.3507  -19.0539  -17.8276 C   0  0  0  0  0  0  0  0  0  0  0  0
   24.1934  -18.6558  -18.4378 O   0  0  0  0  0  0  0  0  0  0  0  0
   25.7173  -20.2571  -18.1284 O   0  0  0  0  0  0  0  0  0  0  0  0
  2  1  1  1
  2  3  1  0
  2  8  1  0
  4  3  1  0
  5  4  1  0
  6  5  1  0
  7  6  1  0
  8 12  1  0
  8  9  2  0
 11 10  1  6
 12 11  1  0
 13 11  1  0
 13 14  2  0
 15 13  1  0
 16 15  1  0
 17 18  1  0
 17 16  1  0
 18 19  1  0
 19 15  1  0
 19 20  1  6
 20 21  1  0
 22 20  2  0
M  END
$$$$
