KAP.pdb
     RDKit          3D

 22 22  0  0  1  0  0  0  0  0999 V2000
   20.2438  -12.5923  -19.1405 N   0  0  0  0  0  0  0  0  0  0  0  0
   21.2142  -11.6026  -18.8278 C   0  0  1  0  0  0  0  0  0  0  0  0
   22.3141  -11.3467  -19.7650 C   0  0  0  0  0  0  0  0  0  0  0  0
   23.1057  -12.4724  -20.2644 C   0  0  0  0  0  0  0  0  0  0  0  0
   24.2872  -13.0249  -19.6304 C   0  0  0  0  0  0  0  0  0  0  0  0
   24.9863  -14.2172  -20.1387 C   0  0  0  0  0  0  0  0  0  0  0  0
   26.1563  -14.6247  -19.4025 N   0  0  0  0  0  0  0  0  0  0  0  0
   20.5229  -10.3082  -18.4231 C   0  0  0  0  0  0  0  0  0  0  0  0
   19.8058   -9.7576  -19.2894 O   0  0  0  0  0  0  0  0  0  0  0  0
   18.7626   -8.8268  -16.0124 C   0  0  0  0  0  0  0  0  0  0  0  0
   20.0247   -8.4776  -16.7725 C   0  0  2  0  0  0  0  0  0  0  0  0
   20.6505   -9.7250  -17.1619 N   0  0  0  0  0  0  0  0  0  0  0  0
   20.9686   -7.7013  -15.8740 C   0  0  0  0  0  0  0  0  0  0  0  0
   21.5311   -8.3955  -14.9754 O   0  0  0  0  0  0  0  0  0  0  0  0
   21.1568   -6.3315  -16.0761 N   0  0  0  0  0  0  0  0  0  0  0  0
   20.7905   -5.6347  -17.3253 C   0  0  0  0  0  0  0  0  0  0  0  0
   20.0032   -4.4859  -16.7597 C   0  0  0  0  0  0  0  0  0  0  0  0
   20.4840   -4.2972  -15.3369 C   0  0  0  0  0  0  0  0  0  0  0  0
   21.6810   -5.2897  -15.2843 C   0  0  1  0  0  0  0  0  0  0  0  0
   22.0875   -5.5307  -13.9180 C   0  0  0  0  0  0  0  0  0  0  0  0
   23.1682   -5.0796  -13.2118 O   0  0  0  0  0  0  0  0  0  0  0  0
   21.3019   -6.3037  -13.2412 O   0  0  0  0  0  0  0  0  0  0  0  0
  2  1  1  6
  2  3  1  0
  2  8  1  0
  4  3  1  0
  5  4  1  0
  6  5  1  0
  7  6  1  0
  8 12  1  0
  8  9  2  0
 11 10  1  1
 12 11  1  0
 13 11  1  0
 13 14  2  0
 15 13  1  0
 16 15  1  0
 17 18  1  0
 17 16  1  0
 18 19  1  0
 19 15  1  0
 19 20  1  1
 20 21  1  0
 22 20  2  0
M  END
$$$$
