KAP.pdb
     RDKit          3D

 22 22  0  0  1  0  0  0  0  0999 V2000
   27.5539  -22.2126  -13.4719 N   0  0  0  0  0  0  0  0  0  0  0  0
   26.6621  -21.1829  -13.0677 C   0  0  1  0  0  0  0  0  0  0  0  0
   27.1359  -20.1304  -12.1614 C   0  0  0  0  0  0  0  0  0  0  0  0
   26.5890  -20.0532  -10.8056 C   0  0  0  0  0  0  0  0  0  0  0  0
   25.3942  -20.7267  -10.3343 C   0  0  0  0  0  0  0  0  0  0  0  0
   24.7785  -20.4451   -9.0265 C   0  0  0  0  0  0  0  0  0  0  0  0
   23.5432  -21.1336   -8.7490 N   0  0  0  0  0  0  0  0  0  0  0  0
   25.9685  -20.5898  -14.2860 C   0  0  0  0  0  0  0  0  0  0  0  0
   26.6682  -19.8775  -15.0416 O   0  0  0  0  0  0  0  0  0  0  0  0
   23.4483  -21.8018  -16.4081 C   0  0  0  0  0  0  0  0  0  0  0  0
   24.0192  -20.5058  -15.8724 C   0  0  2  0  0  0  0  0  0  0  0  0
   24.6228  -20.8006  -14.5887 N   0  0  0  0  0  0  0  0  0  0  0  0
   22.9065  -19.4924  -15.6833 C   0  0  0  0  0  0  0  0  0  0  0  0
   22.1353  -19.7325  -14.7069 O   0  0  0  0  0  0  0  0  0  0  0  0
   22.7980  -18.4039  -16.5527 N   0  0  0  0  0  0  0  0  0  0  0  0
   23.9173  -17.9045  -17.3761 C   0  0  0  0  0  0  0  0  0  0  0  0
   23.2426  -17.8389  -18.7178 C   0  0  0  0  0  0  0  0  0  0  0  0
   21.7592  -17.7125  -18.4450 C   0  0  0  0  0  0  0  0  0  0  0  0
   21.7467  -17.5312  -16.8998 C   0  0  1  0  0  0  0  0  0  0  0  0
   20.4156  -17.7285  -16.3712 C   0  0  0  0  0  0  0  0  0  0  0  0
   19.6187  -16.9084  -15.6211 O   0  0  0  0  0  0  0  0  0  0  0  0
   19.8797  -18.8722  -16.6497 O   0  0  0  0  0  0  0  0  0  0  0  0
  2  1  1  6
  2  3  1  0
  2  8  1  0
  4  3  1  0
  5  4  1  0
  6  5  1  0
  7  6  1  0
  8 12  1  0
  8  9  2  0
 11 10  1  1
 12 11  1  0
 13 11  1  0
 13 14  2  0
 15 13  1  0
 16 15  1  0
 17 18  1  0
 17 16  1  0
 18 19  1  0
 19 15  1  0
 19 20  1  1
 20 21  1  0
 22 20  2  0
M  END
$$$$
