KAP.pdb
     RDKit          3D

 22 22  0  0  1  0  0  0  0  0999 V2000
   20.5809  -22.0472  -14.1590 N   0  0  0  0  0  0  0  0  0  0  0  0
   20.7593  -20.8110  -13.4816 C   0  0  1  0  0  0  0  0  0  0  0  0
   19.8787  -20.4679  -12.3589 C   0  0  0  0  0  0  0  0  0  0  0  0
   18.8904  -21.4453  -11.8995 C   0  0  0  0  0  0  0  0  0  0  0  0
   19.1324  -22.5112  -10.9463 C   0  0  0  0  0  0  0  0  0  0  0  0
   18.0846  -23.4495  -10.5101 C   0  0  0  0  0  0  0  0  0  0  0  0
   18.4909  -24.4504   -9.5560 N   0  0  0  0  0  0  0  0  0  0  0  0
   22.2239  -20.6311  -13.1080 C   0  0  0  0  0  0  0  0  0  0  0  0
   22.4986  -19.6729  -12.3501 O   0  0  0  0  0  0  0  0  0  0  0  0
   25.4238  -22.4191  -13.3608 C   0  0  0  0  0  0  0  0  0  0  0  0
   24.6538  -21.1259  -13.5258 C   0  0  2  0  0  0  0  0  0  0  0  0
   23.2459  -21.4659  -13.5615 N   0  0  0  0  0  0  0  0  0  0  0  0
   25.0425  -20.4584  -14.8313 C   0  0  0  0  0  0  0  0  0  0  0  0
   24.3651  -20.8303  -15.8355 O   0  0  0  0  0  0  0  0  0  0  0  0
   26.0748  -19.5168  -14.8540 N   0  0  0  0  0  0  0  0  0  0  0  0
   26.5628  -18.8141  -13.6505 C   0  0  0  0  0  0  0  0  0  0  0  0
   28.0408  -19.0455  -13.7970 C   0  0  0  0  0  0  0  0  0  0  0  0
   28.2915  -19.2909  -15.2694 C   0  0  0  0  0  0  0  0  0  0  0  0
   26.8907  -18.9854  -15.8734 C   0  0  1  0  0  0  0  0  0  0  0  0
   26.7980  -19.4793  -17.2290 C   0  0  0  0  0  0  0  0  0  0  0  0
   26.6817  -18.8150  -18.4187 O   0  0  0  0  0  0  0  0  0  0  0  0
   26.8288  -20.7669  -17.3460 O   0  0  0  0  0  0  0  0  0  0  0  0
  2  1  1  1
  2  3  1  0
  2  8  1  0
  4  3  1  0
  5  4  1  0
  6  5  1  0
  7  6  1  0
  8 12  1  0
  8  9  2  0
 11 10  1  6
 12 11  1  0
 13 11  1  0
 13 14  2  0
 15 13  1  0
 16 15  1  0
 17 18  1  0
 17 16  1  0
 18 19  1  0
 19 15  1  0
 19 20  1  6
 20 21  1  0
 22 20  2  0
M  END
$$$$
