KAP.pdb
     RDKit          3D

 22 22  0  0  1  0  0  0  0  0999 V2000
   25.2687  -22.5663  -13.8628 N   0  0  0  0  0  0  0  0  0  0  0  0
   26.5810  -22.0470  -13.6979 C   0  0  1  0  0  0  0  0  0  0  0  0
   27.2994  -21.5144  -14.8615 C   0  0  0  0  0  0  0  0  0  0  0  0
   26.6023  -21.4033  -16.1441 C   0  0  0  0  0  0  0  0  0  0  0  0
   25.4597  -22.1941  -16.5588 C   0  0  0  0  0  0  0  0  0  0  0  0
   25.1049  -22.4104  -17.9716 C   0  0  0  0  0  0  0  0  0  0  0  0
   25.5672  -21.4089  -18.8991 N   0  0  0  0  0  0  0  0  0  0  0  0
   26.6074  -21.0634  -12.5366 C   0  0  0  0  0  0  0  0  0  0  0  0
   27.6795  -20.4452  -12.3458 O   0  0  0  0  0  0  0  0  0  0  0  0
   24.3248  -19.0333  -10.6726 C   0  0  0  0  0  0  0  0  0  0  0  0
   25.5409  -19.9285  -10.5621 C   0  0  2  0  0  0  0  0  0  0  0  0
   25.5172  -20.8273  -11.6983 N   0  0  0  0  0  0  0  0  0  0  0  0
   25.4702  -20.7370   -9.2806 C   0  0  0  0  0  0  0  0  0  0  0  0
   24.5153  -21.5688   -9.2343 O   0  0  0  0  0  0  0  0  0  0  0  0
   26.4147  -20.5308   -8.2717 N   0  0  0  0  0  0  0  0  0  0  0  0
   27.7560  -19.9635   -8.5153 C   0  0  0  0  0  0  0  0  0  0  0  0
   27.7814  -18.8954   -7.4579 C   0  0  0  0  0  0  0  0  0  0  0  0
   26.7996  -19.3273   -6.3899 C   0  0  0  0  0  0  0  0  0  0  0  0
   26.4229  -20.7550   -6.8799 C   0  0  1  0  0  0  0  0  0  0  0  0
   25.2406  -21.2351   -6.2003 C   0  0  0  0  0  0  0  0  0  0  0  0
   25.1022  -21.9954   -5.0720 O   0  0  0  0  0  0  0  0  0  0  0  0
   24.1188  -20.8926   -6.7451 O   0  0  0  0  0  0  0  0  0  0  0  0
  2  1  1  6
  2  3  1  0
  2  8  1  0
  4  3  1  0
  5  4  1  0
  6  5  1  0
  7  6  1  0
  8 12  1  0
  8  9  2  0
 11 10  1  6
 12 11  1  0
 13 11  1  0
 13 14  2  0
 15 13  1  0
 16 15  1  0
 17 18  1  0
 17 16  1  0
 18 19  1  0
 19 15  1  0
 19 20  1  1
 20 21  1  0
 22 20  2  0
M  END
$$$$
