KAP.pdb
     RDKit          3D

 22 22  0  0  1  0  0  0  0  0999 V2000
   23.9720  -20.9377  -12.1704 N   0  0  0  0  0  0  0  0  0  0  0  0
   25.3232  -21.3072  -11.9326 C   0  0  1  0  0  0  0  0  0  0  0  0
   26.2131  -21.5660  -13.0704 C   0  0  0  0  0  0  0  0  0  0  0  0
   25.7201  -22.3565  -14.1997 C   0  0  0  0  0  0  0  0  0  0  0  0
   25.9302  -23.7781  -14.3948 C   0  0  0  0  0  0  0  0  0  0  0  0
   25.5957  -24.4730  -15.6494 C   0  0  0  0  0  0  0  0  0  0  0  0
   24.5460  -25.4569  -15.5655 N   0  0  0  0  0  0  0  0  0  0  0  0
   25.9592  -20.3393  -10.9447 C   0  0  0  0  0  0  0  0  0  0  0  0
   26.3656  -19.2487  -11.4065 O   0  0  0  0  0  0  0  0  0  0  0  0
   25.2623  -18.6762   -8.4649 C   0  0  0  0  0  0  0  0  0  0  0  0
   26.4454  -19.6133   -8.5867 C   0  0  2  0  0  0  0  0  0  0  0  0
   26.1044  -20.6082   -9.5832 N   0  0  0  0  0  0  0  0  0  0  0  0
   26.6975  -20.2995   -7.2576 C   0  0  0  0  0  0  0  0  0  0  0  0
   25.6792  -20.8592   -6.7520 O   0  0  0  0  0  0  0  0  0  0  0  0
   27.9749  -20.2782   -6.6918 N   0  0  0  0  0  0  0  0  0  0  0  0
   29.2075  -20.0492   -7.4719 C   0  0  0  0  0  0  0  0  0  0  0  0
   29.8463  -18.9744   -6.6374 C   0  0  0  0  0  0  0  0  0  0  0  0
   29.2786  -19.1221   -5.2421 C   0  0  0  0  0  0  0  0  0  0  0  0
   28.4659  -20.4415   -5.3805 C   0  0  1  0  0  0  0  0  0  0  0  0
   27.5601  -20.6051   -4.2657 C   0  0  0  0  0  0  0  0  0  0  0  0
   26.3024  -20.1118   -4.0533 O   0  0  0  0  0  0  0  0  0  0  0  0
   28.0068  -21.3410   -3.3005 O   0  0  0  0  0  0  0  0  0  0  0  0
  2  1  1  6
  2  3  1  0
  2  8  1  0
  4  3  1  0
  5  4  1  0
  6  5  1  0
  7  6  1  0
  8 12  1  0
  8  9  2  0
 11 10  1  1
 12 11  1  0
 13 11  1  0
 13 14  2  0
 15 13  1  0
 16 15  1  0
 17 18  1  0
 17 16  1  0
 18 19  1  0
 19 15  1  0
 19 20  1  1
 20 21  1  0
 22 20  2  0
M  END
$$$$
