KAP.pdb
     RDKit          3D

 22 22  0  0  1  0  0  0  0  0999 V2000
   14.1082  -21.6427    1.7254 N   0  0  0  0  0  0  0  0  0  0  0  0
   14.4440  -20.3145    2.1022 C   0  0  1  0  0  0  0  0  0  0  0  0
   13.5414  -19.5621    2.9813 C   0  0  0  0  0  0  0  0  0  0  0  0
   12.2900  -19.0315    2.4376 C   0  0  0  0  0  0  0  0  0  0  0  0
   12.1620  -17.8568    1.5969 C   0  0  0  0  0  0  0  0  0  0  0  0
   10.8654  -17.3588    1.1074 C   0  0  0  0  0  0  0  0  0  0  0  0
   10.9225  -16.2718    0.1629 N   0  0  0  0  0  0  0  0  0  0  0  0
   15.8770  -20.2671    2.6132 C   0  0  0  0  0  0  0  0  0  0  0  0
   16.3065  -21.2960    3.1832 O   0  0  0  0  0  0  0  0  0  0  0  0
   18.8144  -18.0670    2.1972 C   0  0  0  0  0  0  0  0  0  0  0  0
   18.0425  -19.0613    3.0385 C   0  0  2  0  0  0  0  0  0  0  0  0
   16.7102  -19.1561    2.4769 N   0  0  0  0  0  0  0  0  0  0  0  0
   17.9505  -18.5637    4.4685 C   0  0  0  0  0  0  0  0  0  0  0  0
   17.0833  -17.6592    4.6570 O   0  0  0  0  0  0  0  0  0  0  0  0
   18.7853  -19.1031    5.4507 N   0  0  0  0  0  0  0  0  0  0  0  0
   19.5275  -20.3686    5.2837 C   0  0  0  0  0  0  0  0  0  0  0  0
   20.9011  -19.9198    5.6975 C   0  0  0  0  0  0  0  0  0  0  0  0
   20.7061  -18.7120    6.5887 C   0  0  0  0  0  0  0  0  0  0  0  0
   19.1586  -18.6956    6.7476 C   0  0  1  0  0  0  0  0  0  0  0  0
   18.7115  -17.4294    7.2833 C   0  0  0  0  0  0  0  0  0  0  0  0
   18.3300  -17.0762    8.5482 O   0  0  0  0  0  0  0  0  0  0  0  0
   18.6600  -16.4606    6.4281 O   0  0  0  0  0  0  0  0  0  0  0  0
  2  1  1  1
  2  3  1  0
  2  8  1  0
  4  3  1  0
  5  4  1  0
  6  5  1  0
  7  6  1  0
  8 12  1  0
  8  9  2  0
 11 10  1  6
 12 11  1  0
 13 11  1  0
 13 14  2  0
 15 13  1  0
 16 15  1  0
 17 18  1  0
 17 16  1  0
 18 19  1  0
 19 15  1  0
 19 20  1  6
 20 21  1  0
 22 20  2  0
M  END
$$$$
