KAP.pdb
     RDKit          3D

 22 22  0  0  1  0  0  0  0  0999 V2000
   29.7367  -22.7914  -17.6040 N   0  0  0  0  0  0  0  0  0  0  0  0
   28.4922  -22.1093  -17.5334 C   0  0  1  0  0  0  0  0  0  0  0  0
   27.3037  -22.7072  -18.1529 C   0  0  0  0  0  0  0  0  0  0  0  0
   26.9267  -24.0778  -17.8030 C   0  0  0  0  0  0  0  0  0  0  0  0
   25.9254  -24.4578  -16.8252 C   0  0  0  0  0  0  0  0  0  0  0  0
   25.6222  -25.8598  -16.4918 C   0  0  0  0  0  0  0  0  0  0  0  0
   24.6454  -26.0644  -15.4520 N   0  0  0  0  0  0  0  0  0  0  0  0
   28.2124  -21.6883  -16.0977 C   0  0  0  0  0  0  0  0  0  0  0  0
   28.5323  -22.5003  -15.1997 O   0  0  0  0  0  0  0  0  0  0  0  0
   27.4000  -18.5412  -14.3622 C   0  0  0  0  0  0  0  0  0  0  0  0
   27.3582  -20.0545  -14.3874 C   0  0  2  0  0  0  0  0  0  0  0  0
   27.6306  -20.4690  -15.7488 N   0  0  0  0  0  0  0  0  0  0  0  0
   25.9789  -20.5381  -13.9816 C   0  0  0  0  0  0  0  0  0  0  0  0
   25.1000  -20.4463  -14.8897 O   0  0  0  0  0  0  0  0  0  0  0  0
   25.7638  -21.0338  -12.6930 N   0  0  0  0  0  0  0  0  0  0  0  0
   26.8427  -21.5552  -11.8303 C   0  0  0  0  0  0  0  0  0  0  0  0
   26.5559  -20.7923  -10.5673 C   0  0  0  0  0  0  0  0  0  0  0  0
   25.0911  -20.4146  -10.6190 C   0  0  0  0  0  0  0  0  0  0  0  0
   24.6200  -21.1886  -11.8837 C   0  0  1  0  0  0  0  0  0  0  0  0
   23.3295  -20.7104  -12.3264 C   0  0  0  0  0  0  0  0  0  0  0  0
   22.0661  -21.1553  -12.0504 O   0  0  0  0  0  0  0  0  0  0  0  0
   23.3664  -19.6890  -13.1189 O   0  0  0  0  0  0  0  0  0  0  0  0
  2  1  1  1
  2  3  1  0
  2  8  1  0
  4  3  1  0
  5  4  1  0
  6  5  1  0
  7  6  1  0
  8 12  1  0
  8  9  2  0
 11 10  1  6
 12 11  1  0
 13 11  1  0
 13 14  2  0
 15 13  1  0
 16 15  1  0
 17 18  1  0
 17 16  1  0
 18 19  1  0
 19 15  1  0
 19 20  1  6
 20 21  1  0
 22 20  2  0
M  END
$$$$
