KAP.pdb
     RDKit          3D

 22 22  0  0  1  0  0  0  0  0999 V2000
   18.1864  -28.4758  -12.3856 N   0  0  0  0  0  0  0  0  0  0  0  0
   19.2355  -27.6127  -11.9694 C   0  0  1  0  0  0  0  0  0  0  0  0
   19.9147  -27.8632  -10.6929 C   0  0  0  0  0  0  0  0  0  0  0  0
   19.3133  -27.3694   -9.4529 C   0  0  0  0  0  0  0  0  0  0  0  0
   18.7711  -26.0405   -9.2446 C   0  0  0  0  0  0  0  0  0  0  0  0
   18.2652  -25.5764   -7.9419 C   0  0  0  0  0  0  0  0  0  0  0  0
   17.6620  -24.2675   -7.9288 N   0  0  0  0  0  0  0  0  0  0  0  0
   20.2379  -27.4321  -13.1007 C   0  0  0  0  0  0  0  0  0  0  0  0
   20.6860  -28.4754  -13.6285 O   0  0  0  0  0  0  0  0  0  0  0  0
   20.9165  -26.5170  -15.9120 C   0  0  0  0  0  0  0  0  0  0  0  0
   21.5930  -25.9988  -14.6605 C   0  0  2  0  0  0  0  0  0  0  0  0
   20.6669  -26.1872  -13.5624 N   0  0  0  0  0  0  0  0  0  0  0  0
   21.8963  -24.5205  -14.8139 C   0  0  0  0  0  0  0  0  0  0  0  0
   20.8930  -23.8044  -15.1073 O   0  0  0  0  0  0  0  0  0  0  0  0
   23.2004  -24.0526  -14.6321 N   0  0  0  0  0  0  0  0  0  0  0  0
   24.2701  -24.8482  -13.9973 C   0  0  0  0  0  0  0  0  0  0  0  0
   25.3585  -24.6820  -15.0206 C   0  0  0  0  0  0  0  0  0  0  0  0
   25.0506  -23.4026  -15.7687 C   0  0  0  0  0  0  0  0  0  0  0  0
   23.8571  -22.8442  -14.9415 C   0  0  1  0  0  0  0  0  0  0  0  0
   23.1759  -21.7961  -15.6676 C   0  0  0  0  0  0  0  0  0  0  0  0
   23.2898  -20.4352  -15.5942 O   0  0  0  0  0  0  0  0  0  0  0  0
   22.3093  -22.2056  -16.5360 O   0  0  0  0  0  0  0  0  0  0  0  0
  2  1  1  6
  2  3  1  0
  2  8  1  0
  4  3  1  0
  5  4  1  0
  6  5  1  0
  7  6  1  0
  8 12  1  0
  8  9  2  0
 11 10  1  6
 12 11  1  0
 13 11  1  0
 13 14  2  0
 15 13  1  0
 16 15  1  0
 17 18  1  0
 17 16  1  0
 18 19  1  0
 19 15  1  0
 19 20  1  6
 20 21  1  0
 22 20  2  0
M  END
$$$$
