KAP.pdb
     RDKit          3D

 22 22  0  0  1  0  0  0  0  0999 V2000
   18.5423  -11.8618  -18.6529 N   0  0  0  0  0  0  0  0  0  0  0  0
   19.5491  -11.4892  -17.7221 C   0  0  1  0  0  0  0  0  0  0  0  0
   20.7017  -12.3729  -17.5113 C   0  0  0  0  0  0  0  0  0  0  0  0
   20.6285  -13.7645  -17.9599 C   0  0  0  0  0  0  0  0  0  0  0  0
   20.7308  -14.9352  -17.1101 C   0  0  0  0  0  0  0  0  0  0  0  0
   20.7063  -16.3110  -17.6348 C   0  0  0  0  0  0  0  0  0  0  0  0
   20.7862  -17.3627  -16.6526 N   0  0  0  0  0  0  0  0  0  0  0  0
   19.9935  -10.0572  -17.9844 C   0  0  0  0  0  0  0  0  0  0  0  0
   19.9991   -9.6786  -19.1780 O   0  0  0  0  0  0  0  0  0  0  0  0
   19.3225   -7.1606  -17.6991 C   0  0  0  0  0  0  0  0  0  0  0  0
   20.6149   -7.7563  -17.1821 C   0  0  2  0  0  0  0  0  0  0  0  0
   20.3840   -9.1722  -16.9788 N   0  0  0  0  0  0  0  0  0  0  0  0
   20.9853   -7.1129  -15.8593 C   0  0  0  0  0  0  0  0  0  0  0  0
   20.1540   -7.3141  -14.9243 O   0  0  0  0  0  0  0  0  0  0  0  0
   22.1641   -6.3706  -15.7495 N   0  0  0  0  0  0  0  0  0  0  0  0
   23.1983   -6.3241  -16.8024 C   0  0  0  0  0  0  0  0  0  0  0  0
   23.3846   -4.8369  -16.9168 C   0  0  0  0  0  0  0  0  0  0  0  0
   22.9423   -4.2474  -15.5948 C   0  0  0  0  0  0  0  0  0  0  0  0
   22.7021   -5.5327  -14.7517 C   0  0  1  0  0  0  0  0  0  0  0  0
   21.9494   -5.2282  -13.5556 C   0  0  0  0  0  0  0  0  0  0  0  0
   20.6121   -5.0108  -13.3694 O   0  0  0  0  0  0  0  0  0  0  0  0
   22.6519   -5.1445  -12.4729 O   0  0  0  0  0  0  0  0  0  0  0  0
  2  1  1  6
  2  3  1  0
  2  8  1  0
  4  3  1  0
  5  4  1  0
  6  5  1  0
  7  6  1  0
  8 12  1  0
  8  9  2  0
 11 10  1  1
 12 11  1  0
 13 11  1  0
 13 14  2  0
 15 13  1  0
 16 15  1  0
 17 18  1  0
 17 16  1  0
 18 19  1  0
 19 15  1  0
 19 20  1  1
 20 21  1  0
 22 20  2  0
M  END
$$$$
