KAP.pdb
     RDKit          3D

 22 22  0  0  1  0  0  0  0  0999 V2000
   25.3935  -19.7959  -18.9289 N   0  0  0  0  0  0  0  0  0  0  0  0
   26.0841  -20.8088  -18.2105 C   0  0  1  0  0  0  0  0  0  0  0  0
   27.3610  -21.3173  -18.7247 C   0  0  0  0  0  0  0  0  0  0  0  0
   27.3628  -22.1924  -19.8983 C   0  0  0  0  0  0  0  0  0  0  0  0
   26.1877  -22.7349  -20.5525 C   0  0  0  0  0  0  0  0  0  0  0  0
   26.2603  -23.6018  -21.7408 C   0  0  0  0  0  0  0  0  0  0  0  0
   25.0020  -24.0993  -22.2371 N   0  0  0  0  0  0  0  0  0  0  0  0
   26.1970  -20.4186  -16.7435 C   0  0  0  0  0  0  0  0  0  0  0  0
   27.3496  -20.3905  -16.2549 O   0  0  0  0  0  0  0  0  0  0  0  0
   24.7881  -18.2057  -14.5242 C   0  0  0  0  0  0  0  0  0  0  0  0
   25.1970  -19.6630  -14.5633 C   0  0  2  0  0  0  0  0  0  0  0  0
   25.1007  -20.0991  -15.9416 N   0  0  0  0  0  0  0  0  0  0  0  0
   24.2519  -20.4860  -13.7088 C   0  0  0  0  0  0  0  0  0  0  0  0
   23.1027  -20.6611  -14.2132 O   0  0  0  0  0  0  0  0  0  0  0  0
   24.6787  -20.9813  -12.4739 N   0  0  0  0  0  0  0  0  0  0  0  0
   26.1002  -21.1471  -12.1102 C   0  0  0  0  0  0  0  0  0  0  0  0
   26.1078  -20.4575  -10.7746 C   0  0  0  0  0  0  0  0  0  0  0  0
   24.6869  -20.5133  -10.2562 C   0  0  0  0  0  0  0  0  0  0  0  0
   24.0101  -21.4289  -11.3164 C   0  0  1  0  0  0  0  0  0  0  0  0
   22.5699  -21.3513  -11.2166 C   0  0  0  0  0  0  0  0  0  0  0  0
   21.6690  -22.1738  -10.5985 O   0  0  0  0  0  0  0  0  0  0  0  0
   22.0339  -20.3349  -11.8100 O   0  0  0  0  0  0  0  0  0  0  0  0
  2  1  1  6
  2  3  1  0
  2  8  1  0
  4  3  1  0
  5  4  1  0
  6  5  1  0
  7  6  1  0
  8 12  1  0
  8  9  2  0
 11 10  1  6
 12 11  1  0
 13 11  1  0
 13 14  2  0
 15 13  1  0
 16 15  1  0
 17 18  1  0
 17 16  1  0
 18 19  1  0
 19 15  1  0
 19 20  1  6
 20 21  1  0
 22 20  2  0
M  END
$$$$
