KAP.pdb
     RDKit          3D

 22 22  0  0  1  0  0  0  0  0999 V2000
   20.0405  -15.2640  -17.5192 N   0  0  0  0  0  0  0  0  0  0  0  0
   20.6709  -14.1439  -18.1250 C   0  0  1  0  0  0  0  0  0  0  0  0
   20.0519  -13.5112  -19.2956 C   0  0  0  0  0  0  0  0  0  0  0  0
   18.7358  -13.9689  -19.7446 C   0  0  0  0  0  0  0  0  0  0  0  0
   17.4600  -13.4190  -19.3284 C   0  0  0  0  0  0  0  0  0  0  0  0
   16.1737  -13.8641  -19.8904 C   0  0  0  0  0  0  0  0  0  0  0  0
   14.9932  -13.2808  -19.3045 N   0  0  0  0  0  0  0  0  0  0  0  0
   21.0253  -13.1117  -17.0638 C   0  0  0  0  0  0  0  0  0  0  0  0
   20.1303  -12.8235  -16.2368 O   0  0  0  0  0  0  0  0  0  0  0  0
   24.1569  -11.6012  -15.8150 C   0  0  0  0  0  0  0  0  0  0  0  0
   22.6477  -11.5612  -15.9290 C   0  0  2  0  0  0  0  0  0  0  0  0
   22.2713  -12.4899  -16.9755 N   0  0  0  0  0  0  0  0  0  0  0  0
   22.1972  -10.1642  -16.3114 C   0  0  0  0  0  0  0  0  0  0  0  0
   22.4200   -9.8506  -17.5188 O   0  0  0  0  0  0  0  0  0  0  0  0
   21.5914   -9.3405  -15.3590 N   0  0  0  0  0  0  0  0  0  0  0  0
   21.0695   -9.8343  -14.0690 C   0  0  0  0  0  0  0  0  0  0  0  0
   21.7141   -8.8489  -13.1346 C   0  0  0  0  0  0  0  0  0  0  0  0
   22.0074   -7.6108  -13.9545 C   0  0  0  0  0  0  0  0  0  0  0  0
   21.3070   -7.9611  -15.2988 C   0  0  1  0  0  0  0  0  0  0  0  0
   21.7409   -7.0692  -16.3506 C   0  0  0  0  0  0  0  0  0  0  0  0
   22.9813   -6.8461  -16.8815 O   0  0  0  0  0  0  0  0  0  0  0  0
   20.8034   -6.3569  -16.8859 O   0  0  0  0  0  0  0  0  0  0  0  0
  2  1  1  1
  2  3  1  0
  2  8  1  0
  4  3  1  0
  5  4  1  0
  6  5  1  0
  7  6  1  0
  8 12  1  0
  8  9  2  0
 11 10  1  6
 12 11  1  0
 13 11  1  0
 13 14  2  0
 15 13  1  0
 16 15  1  0
 17 18  1  0
 17 16  1  0
 18 19  1  0
 19 15  1  0
 19 20  1  6
 20 21  1  0
 22 20  2  0
M  END
$$$$
