KAP.pdb
     RDKit          3D

 22 22  0  0  1  0  0  0  0  0999 V2000
   23.0188  -21.3706  -16.8913 N   0  0  0  0  0  0  0  0  0  0  0  0
   23.1157  -20.5698  -15.7215 C   0  0  1  0  0  0  0  0  0  0  0  0
   22.1172  -20.7213  -14.6567 C   0  0  0  0  0  0  0  0  0  0  0  0
   20.7812  -20.1522  -14.8418 C   0  0  0  0  0  0  0  0  0  0  0  0
   20.2906  -19.5169  -16.0496 C   0  0  0  0  0  0  0  0  0  0  0  0
   18.9462  -18.9251  -16.1547 C   0  0  0  0  0  0  0  0  0  0  0  0
   18.6794  -18.1733  -17.3549 N   0  0  0  0  0  0  0  0  0  0  0  0
   24.5304  -20.6359  -15.1637 C   0  0  0  0  0  0  0  0  0  0  0  0
   25.0384  -21.7746  -15.0491 O   0  0  0  0  0  0  0  0  0  0  0  0
   27.0252  -18.1470  -13.9289 C   0  0  0  0  0  0  0  0  0  0  0  0
   26.4848  -19.5594  -14.0037 C   0  0  2  0  0  0  0  0  0  0  0  0
   25.2656  -19.5120  -14.7851 N   0  0  0  0  0  0  0  0  0  0  0  0
   26.1680  -20.0639  -12.6087 C   0  0  0  0  0  0  0  0  0  0  0  0
   25.0992  -19.5998  -12.1106 O   0  0  0  0  0  0  0  0  0  0  0  0
   27.0289  -20.9677  -11.9806 N   0  0  0  0  0  0  0  0  0  0  0  0
   28.0565  -21.7475  -12.6991 C   0  0  0  0  0  0  0  0  0  0  0  0
   29.2520  -21.4587  -11.8350 C   0  0  0  0  0  0  0  0  0  0  0  0
   28.7137  -21.0900  -10.4692 C   0  0  0  0  0  0  0  0  0  0  0  0
   27.1976  -21.3909  -10.6466 C   0  0  1  0  0  0  0  0  0  0  0  0
   26.4281  -20.7947   -9.5777 C   0  0  0  0  0  0  0  0  0  0  0  0
   25.9890  -19.5122   -9.3972 O   0  0  0  0  0  0  0  0  0  0  0  0
   26.0942  -21.6042   -8.6259 O   0  0  0  0  0  0  0  0  0  0  0  0
  2  1  1  6
  2  3  1  0
  2  8  1  0
  4  3  1  0
  5  4  1  0
  6  5  1  0
  7  6  1  0
  8 12  1  0
  8  9  2  0
 11 10  1  1
 12 11  1  0
 13 11  1  0
 13 14  2  0
 15 13  1  0
 16 15  1  0
 17 18  1  0
 17 16  1  0
 18 19  1  0
 19 15  1  0
 19 20  1  1
 20 21  1  0
 22 20  2  0
M  END
$$$$
