KAP.pdb
     RDKit          3D

 22 22  0  0  1  0  0  0  0  0999 V2000
   20.2457  -22.5294  -14.0614 N   0  0  0  0  0  0  0  0  0  0  0  0
   20.8602  -21.2527  -13.9541 C   0  0  1  0  0  0  0  0  0  0  0  0
   20.6546  -20.4509  -12.7423 C   0  0  0  0  0  0  0  0  0  0  0  0
   19.2975  -20.0418  -12.3761 C   0  0  0  0  0  0  0  0  0  0  0  0
   18.1194  -20.8868  -12.4105 C   0  0  0  0  0  0  0  0  0  0  0  0
   16.7598  -20.3768  -12.1652 C   0  0  0  0  0  0  0  0  0  0  0  0
   15.6906  -21.3311  -12.3176 N   0  0  0  0  0  0  0  0  0  0  0  0
   22.3386  -21.3580  -14.3008 C   0  0  0  0  0  0  0  0  0  0  0  0
   23.0671  -21.9666  -13.4842 O   0  0  0  0  0  0  0  0  0  0  0  0
   24.3011  -21.7236  -17.1667 C   0  0  0  0  0  0  0  0  0  0  0  0
   24.2882  -20.9852  -15.8449 C   0  0  2  0  0  0  0  0  0  0  0  0
   22.9015  -20.8201  -15.4587 N   0  0  0  0  0  0  0  0  0  0  0  0
   24.9291  -19.6205  -16.0113 C   0  0  0  0  0  0  0  0  0  0  0  0
   24.1669  -18.7371  -16.5056 O   0  0  0  0  0  0  0  0  0  0  0  0
   26.2585  -19.4220  -15.6296 N   0  0  0  0  0  0  0  0  0  0  0  0
   26.9313  -20.2133  -14.5801 C   0  0  0  0  0  0  0  0  0  0  0  0
   28.1856  -20.6009  -15.3121 C   0  0  0  0  0  0  0  0  0  0  0  0
   28.3875  -19.5625  -16.3946 C   0  0  0  0  0  0  0  0  0  0  0  0
   27.2726  -18.5352  -16.0448 C   0  0  1  0  0  0  0  0  0  0  0  0
   27.0534  -17.6222  -17.1441 C   0  0  0  0  0  0  0  0  0  0  0  0
   27.1950  -16.2643  -17.2230 O   0  0  0  0  0  0  0  0  0  0  0  0
   26.6551  -18.1746  -18.2436 O   0  0  0  0  0  0  0  0  0  0  0  0
  2  1  1  1
  2  3  1  0
  2  8  1  0
  4  3  1  0
  5  4  1  0
  6  5  1  0
  7  6  1  0
  8 12  1  0
  8  9  2  0
 11 10  1  6
 12 11  1  0
 13 11  1  0
 13 14  2  0
 15 13  1  0
 16 15  1  0
 17 18  1  0
 17 16  1  0
 18 19  1  0
 19 15  1  0
 19 20  1  6
 20 21  1  0
 22 20  2  0
M  END
$$$$
