FAD.pdb
     RDKit          3D

 25 25  0  0  1  0  0  0  0  0999 V2000
    6.4628  -16.1703   25.7992 N   0  0  0  0  0  0  0  0  0  0  0  0
    6.9917  -15.2865   24.8082 C   0  0  1  0  0  0  0  0  0  0  0  0
    8.1216  -14.4223   25.3454 C   0  0  0  0  0  0  0  0  0  0  0  0
    7.6213  -13.3297   26.2087 C   0  0  0  0  0  0  0  0  0  0  0  0
    8.0932  -13.2387   27.5013 C   0  0  0  0  0  0  0  0  0  0  0  0
    7.6563  -12.2324   28.3528 C   0  0  0  0  0  0  0  0  0  0  0  0
    6.7373  -11.2996   27.9207 C   0  0  0  0  0  0  0  0  0  0  0  0
    6.2684  -11.3940   26.6291 C   0  0  0  0  0  0  0  0  0  0  0  0
    6.7039  -12.3989   25.7766 C   0  0  0  0  0  0  0  0  0  0  0  0
    7.4401  -15.9558   23.5845 C   0  0  0  0  0  0  0  0  0  0  0  0
    7.6709  -17.1953   23.6459 O   0  0  0  0  0  0  0  0  0  0  0  0
    8.0499  -15.1910   19.9270 C   0  0  0  0  0  0  0  0  0  0  0  0
    8.1392  -16.0093   21.1741 C   0  0  2  0  0  0  0  0  0  0  0  0
    7.6385  -15.3300   22.3311 N   0  0  0  0  0  0  0  0  0  0  0  0
    9.5047  -16.5304   21.3352 C   0  0  0  0  0  0  0  0  0  0  0  0
    9.9554  -17.3174   20.4635 O   0  0  0  0  0  0  0  0  0  0  0  0
   10.3662  -16.2059   22.4197 N   0  0  0  0  0  0  0  0  0  0  0  0
   11.7212  -16.7457   22.5159 C   0  0  1  0  0  0  0  0  0  0  0  0
   12.6465  -15.6311   22.0760 C   0  0  0  0  0  0  0  0  0  0  0  0
   14.0215  -16.0970   21.8142 C   0  0  0  0  0  0  0  0  0  0  0  0
   14.3104  -17.3051   21.9339 O   0  0  0  0  0  0  0  0  0  0  0  0
   12.0014  -17.2376   23.8836 C   0  0  0  0  0  0  0  0  0  0  0  0
   11.4162  -16.7759   24.8928 O   0  0  0  0  0  0  0  0  0  0  0  0
   14.9881  -15.1814   21.4345 O   0  0  0  0  0  0  0  0  0  0  0  0
   12.9365  -18.2420   24.0930 O   0  0  0  0  0  0  0  0  0  0  0  0
  2  1  1  1
  2  3  1  0
  4  5  2  0
  4  3  1  0
  6  5  1  0
  7  6  2  0
  8  7  1  0
  8  9  2  0
  9  4  1  0
 10  2  1  0
 11 10  2  0
 13 12  1  6
 13 14  1  0
 14 10  1  0
 15 16  2  0
 15 13  1  0
 17 15  1  0
 18 17  1  0
 18 19  1  1
 20 21  2  0
 20 19  1  0
 22 25  1  0
 22 18  1  0
 23 22  2  0
 24 20  1  0
M  END
$$$$
