FAD.pdb
     RDKit          3D

 25 25  0  0  1  0  0  0  0  0999 V2000
    9.1850  -16.5437   20.0674 N   0  0  0  0  0  0  0  0  0  0  0  0
    8.7342  -16.5198   21.4236 C   0  0  1  0  0  0  0  0  0  0  0  0
    7.4070  -15.7944   21.5811 C   0  0  0  0  0  0  0  0  0  0  0  0
    7.4432  -14.4382   20.9904 C   0  0  0  0  0  0  0  0  0  0  0  0
    7.8076  -13.3768   21.7919 C   0  0  0  0  0  0  0  0  0  0  0  0
    7.8578  -12.0840   21.2871 C   0  0  0  0  0  0  0  0  0  0  0  0
    7.5427  -11.8347   19.9681 C   0  0  0  0  0  0  0  0  0  0  0  0
    7.1792  -12.8975   19.1709 C   0  0  0  0  0  0  0  0  0  0  0  0
    7.1286  -14.1901   19.6735 C   0  0  0  0  0  0  0  0  0  0  0  0
    8.6349  -17.8419   22.0468 C   0  0  0  0  0  0  0  0  0  0  0  0
    8.1076  -17.9117   23.1916 O   0  0  0  0  0  0  0  0  0  0  0  0
    9.1876  -21.4907   21.3016 C   0  0  0  0  0  0  0  0  0  0  0  0
    9.1629  -20.2918   22.1931 C   0  0  2  0  0  0  0  0  0  0  0  0
    9.0815  -19.0561   21.4737 N   0  0  0  0  0  0  0  0  0  0  0  0
   10.2810  -20.3522   23.1461 C   0  0  0  0  0  0  0  0  0  0  0  0
   10.4137  -21.3837   23.8537 O   0  0  0  0  0  0  0  0  0  0  0  0
   11.2376  -19.3156   23.3297 N   0  0  0  0  0  0  0  0  0  0  0  0
   12.3394  -19.4432   24.2819 C   0  0  1  0  0  0  0  0  0  0  0  0
   13.4402  -18.5389   23.7697 C   0  0  0  0  0  0  0  0  0  0  0  0
   13.7306  -18.7433   22.3378 C   0  0  0  0  0  0  0  0  0  0  0  0
   14.2086  -19.8255   21.9406 O   0  0  0  0  0  0  0  0  0  0  0  0
   11.8965  -19.1115   25.6547 C   0  0  0  0  0  0  0  0  0  0  0  0
   10.8002  -18.5464   25.8851 O   0  0  0  0  0  0  0  0  0  0  0  0
   13.4678  -17.7235   21.4392 O   0  0  0  0  0  0  0  0  0  0  0  0
   12.6955  -19.4215   26.7468 O   0  0  0  0  0  0  0  0  0  0  0  0
  2  1  1  6
  2  3  1  0
  4  5  2  0
  4  3  1  0
  6  5  1  0
  7  6  2  0
  8  7  1  0
  8  9  2  0
  9  4  1  0
 10  2  1  0
 11 10  2  0
 13 12  1  6
 13 14  1  0
 14 10  1  0
 15 16  2  0
 15 13  1  0
 17 15  1  0
 18 17  1  0
 18 19  1  6
 20 21  2  0
 20 19  1  0
 22 25  1  0
 22 18  1  0
 23 22  2  0
 24 20  1  0
M  END
$$$$
