FAD.pdb
     RDKit          3D

 25 25  0  0  1  0  0  0  0  0999 V2000
    6.0582  -16.4624   25.1935 N   0  0  0  0  0  0  0  0  0  0  0  0
    7.1190  -15.6245   24.7291 C   0  0  1  0  0  0  0  0  0  0  0  0
    7.6905  -14.7474   25.8320 C   0  0  0  0  0  0  0  0  0  0  0  0
    6.9493  -13.4739   25.9673 C   0  0  0  0  0  0  0  0  0  0  0  0
    7.3976  -12.3702   25.2725 C   0  0  0  0  0  0  0  0  0  0  0  0
    6.7384  -11.1513   25.3644 C   0  0  0  0  0  0  0  0  0  0  0  0
    5.6172  -11.0197   26.1561 C   0  0  0  0  0  0  0  0  0  0  0  0
    5.1727  -12.1244   26.8483 C   0  0  0  0  0  0  0  0  0  0  0  0
    5.8300  -13.3433   26.7578 C   0  0  0  0  0  0  0  0  0  0  0  0
    8.2132  -16.3474   24.0760 C   0  0  0  0  0  0  0  0  0  0  0  0
    8.6501  -17.3864   24.6442 O   0  0  0  0  0  0  0  0  0  0  0  0
   10.2830  -16.2084   20.9067 C   0  0  0  0  0  0  0  0  0  0  0  0
    9.9353  -16.6823   22.2804 C   0  0  2  0  0  0  0  0  0  0  0  0
    8.8273  -15.9803   22.8553 N   0  0  0  0  0  0  0  0  0  0  0  0
   11.1374  -16.6909   23.1271 C   0  0  0  0  0  0  0  0  0  0  0  0
   11.5605  -15.5976   23.5831 O   0  0  0  0  0  0  0  0  0  0  0  0
   11.8679  -17.8613   23.4739 N   0  0  0  0  0  0  0  0  0  0  0  0
   13.1560  -17.7905   24.1615 C   0  0  1  0  0  0  0  0  0  0  0  0
   13.2598  -19.0572   24.9841 C   0  0  0  0  0  0  0  0  0  0  0  0
   12.3260  -19.0775   26.1260 C   0  0  0  0  0  0  0  0  0  0  0  0
   12.2046  -18.0741   26.8580 O   0  0  0  0  0  0  0  0  0  0  0  0
   14.2654  -17.6233   23.1960 C   0  0  0  0  0  0  0  0  0  0  0  0
   15.4267  -17.3171   23.5588 O   0  0  0  0  0  0  0  0  0  0  0  0
   11.5858  -20.2201   26.3778 O   0  0  0  0  0  0  0  0  0  0  0  0
   14.0491  -17.8038   21.8367 O   0  0  0  0  0  0  0  0  0  0  0  0
  2  1  1  1
  2  3  1  0
  4  5  2  0
  4  3  1  0
  6  5  1  0
  7  6  2  0
  8  7  1  0
  8  9  2  0
  9  4  1  0
 10  2  1  0
 11 10  2  0
 13 12  1  6
 13 14  1  0
 14 10  1  0
 15 16  2  0
 15 13  1  0
 17 15  1  0
 18 17  1  0
 18 19  1  6
 20 21  2  0
 20 19  1  0
 22 25  1  0
 22 18  1  0
 23 22  2  0
 24 20  1  0
M  END
$$$$
