FAD.pdb
     RDKit          3D

 25 25  0  0  1  0  0  0  0  0999 V2000
    5.9447  -16.7224   25.5546 N   0  0  0  0  0  0  0  0  0  0  0  0
    6.8238  -15.8296   24.8667 C   0  0  1  0  0  0  0  0  0  0  0  0
    7.7913  -15.1287   25.8074 C   0  0  0  0  0  0  0  0  0  0  0  0
    7.3627  -13.7459   26.1136 C   0  0  0  0  0  0  0  0  0  0  0  0
    8.0247  -12.6985   25.5081 C   0  0  0  0  0  0  0  0  0  0  0  0
    7.6621  -11.3820   25.7608 C   0  0  0  0  0  0  0  0  0  0  0  0
    6.6281  -11.0943   26.6264 C   0  0  0  0  0  0  0  0  0  0  0  0
    5.9696  -12.1432   27.2292 C   0  0  0  0  0  0  0  0  0  0  0  0
    6.3303  -13.4596   26.9779 C   0  0  0  0  0  0  0  0  0  0  0  0
    7.5804  -16.4523   23.7776 C   0  0  0  0  0  0  0  0  0  0  0  0
    7.8834  -17.6718   23.8975 O   0  0  0  0  0  0  0  0  0  0  0  0
    8.7752  -15.6924   20.2791 C   0  0  0  0  0  0  0  0  0  0  0  0
    8.7853  -16.4356   21.5753 C   0  0  2  0  0  0  0  0  0  0  0  0
    8.0041  -15.8018   22.5946 N   0  0  0  0  0  0  0  0  0  0  0  0
   10.1701  -16.7211   21.9790 C   0  0  0  0  0  0  0  0  0  0  0  0
   10.8783  -17.4435   21.2313 O   0  0  0  0  0  0  0  0  0  0  0  0
   10.7770  -16.2339   23.1697 N   0  0  0  0  0  0  0  0  0  0  0  0
   12.1027  -16.6778   23.5965 C   0  0  1  0  0  0  0  0  0  0  0  0
   12.9969  -15.4587   23.5157 C   0  0  0  0  0  0  0  0  0  0  0  0
   13.7757  -15.4009   22.2642 C   0  0  0  0  0  0  0  0  0  0  0  0
   13.6624  -16.3034   21.4098 O   0  0  0  0  0  0  0  0  0  0  0  0
   12.0517  -17.2815   24.9470 C   0  0  0  0  0  0  0  0  0  0  0  0
   13.0464  -17.8430   25.4661 O   0  0  0  0  0  0  0  0  0  0  0  0
   14.6334  -14.3360   22.0466 O   0  0  0  0  0  0  0  0  0  0  0  0
   10.8808  -17.2434   25.6917 O   0  0  0  0  0  0  0  0  0  0  0  0
  2  1  1  1
  2  3  1  0
  4  5  2  0
  4  3  1  0
  6  5  1  0
  7  6  2  0
  8  7  1  0
  8  9  2  0
  9  4  1  0
 10  2  1  0
 11 10  2  0
 13 12  1  6
 13 14  1  0
 14 10  1  0
 15 16  2  0
 15 13  1  0
 17 15  1  0
 18 17  1  0
 18 19  1  1
 20 21  2  0
 20 19  1  0
 22 25  1  0
 22 18  1  0
 23 22  2  0
 24 20  1  0
M  END
$$$$
