FAD.pdb
     RDKit          3D

 25 25  0  0  1  0  0  0  0  0999 V2000
    6.1802  -16.4941   25.3999 N   0  0  0  0  0  0  0  0  0  0  0  0
    7.1099  -15.7087   24.6502 C   0  0  1  0  0  0  0  0  0  0  0  0
    7.9349  -14.7862   25.5338 C   0  0  0  0  0  0  0  0  0  0  0  0
    7.2209  -13.5266   25.8392 C   0  0  0  0  0  0  0  0  0  0  0  0
    6.4566  -13.4603   26.9851 C   0  0  0  0  0  0  0  0  0  0  0  0
    5.7666  -12.3020   27.3182 C   0  0  0  0  0  0  0  0  0  0  0  0
    5.8323  -11.1898   26.5057 C   0  0  0  0  0  0  0  0  0  0  0  0
    6.5967  -11.2602   25.3622 C   0  0  0  0  0  0  0  0  0  0  0  0
    7.2870  -12.4168   25.0276 C   0  0  0  0  0  0  0  0  0  0  0  0
    8.0111  -16.4923   23.8018 C   0  0  0  0  0  0  0  0  0  0  0  0
    8.3017  -17.6614   24.1790 O   0  0  0  0  0  0  0  0  0  0  0  0
    9.4797  -16.3281   20.3303 C   0  0  0  0  0  0  0  0  0  0  0  0
    9.3236  -16.9015   21.7013 C   0  0  2  0  0  0  0  0  0  0  0  0
    8.5885  -16.0504   22.5879 N   0  0  0  0  0  0  0  0  0  0  0  0
   10.6342  -17.3146   22.2243 C   0  0  0  0  0  0  0  0  0  0  0  0
   11.2876  -18.1843   21.5926 O   0  0  0  0  0  0  0  0  0  0  0  0
   11.2266  -16.7961   23.4092 N   0  0  0  0  0  0  0  0  0  0  0  0
   12.4081  -17.4099   24.0126 C   0  0  1  0  0  0  0  0  0  0  0  0
   13.3927  -16.2829   24.2416 C   0  0  0  0  0  0  0  0  0  0  0  0
   14.1695  -15.9458   23.0337 C   0  0  0  0  0  0  0  0  0  0  0  0
   13.9733  -16.5623   21.9665 O   0  0  0  0  0  0  0  0  0  0  0  0
   12.0537  -18.1420   25.2492 C   0  0  0  0  0  0  0  0  0  0  0  0
   12.7008  -19.1425   25.6424 O   0  0  0  0  0  0  0  0  0  0  0  0
   15.1182  -14.9393   23.0951 O   0  0  0  0  0  0  0  0  0  0  0  0
   10.9758  -17.7357   26.0238 O   0  0  0  0  0  0  0  0  0  0  0  0
  2  1  1  1
  2  3  1  0
  4  5  2  0
  4  3  1  0
  6  5  1  0
  7  6  2  0
  8  7  1  0
  8  9  2  0
  9  4  1  0
 10  2  1  0
 11 10  2  0
 13 12  1  6
 13 14  1  0
 14 10  1  0
 15 16  2  0
 15 13  1  0
 17 15  1  0
 18 17  1  0
 18 19  1  1
 20 21  2  0
 20 19  1  0
 22 25  1  0
 22 18  1  0
 23 22  2  0
 24 20  1  0
M  END
$$$$
