FAD.pdb
     RDKit          3D

 25 25  0  0  1  0  0  0  0  0999 V2000
    6.0400  -17.7637   25.6616 N   0  0  0  0  0  0  0  0  0  0  0  0
    6.5554  -16.5083   25.2126 C   0  0  1  0  0  0  0  0  0  0  0  0
    7.5662  -15.9162   26.1821 C   0  0  0  0  0  0  0  0  0  0  0  0
    7.3660  -14.4625   26.3722 C   0  0  0  0  0  0  0  0  0  0  0  0
    8.4734  -13.6417   26.4125 C   0  0  0  0  0  0  0  0  0  0  0  0
    8.3410  -12.2705   26.5885 C   0  0  0  0  0  0  0  0  0  0  0  0
    7.0935  -11.6997   26.7272 C   0  0  0  0  0  0  0  0  0  0  0  0
    5.9900  -12.5229   26.6864 C   0  0  0  0  0  0  0  0  0  0  0  0
    6.1203  -13.8934   26.5105 C   0  0  0  0  0  0  0  0  0  0  0  0
    7.1426  -16.5454   23.8710 C   0  0  0  0  0  0  0  0  0  0  0  0
    7.7387  -17.6018   23.5216 O   0  0  0  0  0  0  0  0  0  0  0  0
    7.4513  -14.3494   20.7960 C   0  0  0  0  0  0  0  0  0  0  0  0
    7.6911  -15.5701   21.6238 C   0  0  2  0  0  0  0  0  0  0  0  0
    7.0996  -15.4933   22.9258 N   0  0  0  0  0  0  0  0  0  0  0  0
    9.1259  -15.8907   21.6407 C   0  0  0  0  0  0  0  0  0  0  0  0
    9.6994  -16.1423   20.5498 O   0  0  0  0  0  0  0  0  0  0  0  0
    9.9252  -15.9382   22.8165 N   0  0  0  0  0  0  0  0  0  0  0  0
   11.2984  -16.4391   22.7954 C   0  0  1  0  0  0  0  0  0  0  0  0
   12.1890  -15.2148   22.7981 C   0  0  0  0  0  0  0  0  0  0  0  0
   13.6221  -15.5480   22.6910 C   0  0  0  0  0  0  0  0  0  0  0  0
   13.9948  -16.5045   21.9813 O   0  0  0  0  0  0  0  0  0  0  0  0
   11.5488  -17.3513   23.9338 C   0  0  0  0  0  0  0  0  0  0  0  0
   12.3986  -18.2727   23.8776 O   0  0  0  0  0  0  0  0  0  0  0  0
   14.5494  -14.7898   23.3852 O   0  0  0  0  0  0  0  0  0  0  0  0
   10.8378  -17.2115   25.1179 O   0  0  0  0  0  0  0  0  0  0  0  0
  2  1  1  1
  2  3  1  0
  4  5  2  0
  4  3  1  0
  6  5  1  0
  7  6  2  0
  8  7  1  0
  8  9  2  0
  9  4  1  0
 10  2  1  0
 11 10  2  0
 13 12  1  1
 13 14  1  0
 14 10  1  0
 15 16  2  0
 15 13  1  0
 17 15  1  0
 18 17  1  0
 18 19  1  1
 20 21  2  0
 20 19  1  0
 22 25  1  0
 22 18  1  0
 23 22  2  0
 24 20  1  0
M  END
$$$$
