FAD.pdb
     RDKit          3D

 25 25  0  0  1  0  0  0  0  0999 V2000
    7.5401  -15.8606   25.8827 N   0  0  0  0  0  0  0  0  0  0  0  0
    7.2668  -15.3489   24.5764 C   0  0  1  0  0  0  0  0  0  0  0  0
    7.5808  -13.8658   24.4570 C   0  0  0  0  0  0  0  0  0  0  0  0
    7.0353  -13.0906   25.5932 C   0  0  0  0  0  0  0  0  0  0  0  0
    7.9086  -12.3794   26.3890 C   0  0  0  0  0  0  0  0  0  0  0  0
    7.4486  -11.6354   27.4677 C   0  0  0  0  0  0  0  0  0  0  0  0
    6.1031  -11.5930   27.7660 C   0  0  0  0  0  0  0  0  0  0  0  0
    5.2342  -12.3047   26.9688 C   0  0  0  0  0  0  0  0  0  0  0  0
    5.6920  -13.0487   25.8903 C   0  0  0  0  0  0  0  0  0  0  0  0
    7.9424  -16.0706   23.4952 C   0  0  0  0  0  0  0  0  0  0  0  0
    7.2209  -16.6124   22.6124 O   0  0  0  0  0  0  0  0  0  0  0  0
    9.6593  -15.5214   21.0318 C   0  0  0  0  0  0  0  0  0  0  0  0
    9.9896  -16.5035   22.1083 C   0  0  2  0  0  0  0  0  0  0  0  0
    9.3428  -16.2145   23.3529 N   0  0  0  0  0  0  0  0  0  0  0  0
   11.4479  -16.6563   22.2177 C   0  0  0  0  0  0  0  0  0  0  0  0
   12.0926  -17.0233   21.2018 O   0  0  0  0  0  0  0  0  0  0  0  0
   12.1945  -16.4162   23.4045 N   0  0  0  0  0  0  0  0  0  0  0  0
   13.0484  -17.4431   23.9990 C   0  0  1  0  0  0  0  0  0  0  0  0
   14.2924  -16.7252   24.4778 C   0  0  0  0  0  0  0  0  0  0  0  0
   15.0436  -16.0859   23.3808 C   0  0  0  0  0  0  0  0  0  0  0  0
   15.0905  -14.8420   23.2911 O   0  0  0  0  0  0  0  0  0  0  0  0
   12.3367  -18.1684   25.0752 C   0  0  0  0  0  0  0  0  0  0  0  0
   12.8158  -19.1909   25.6220 O   0  0  0  0  0  0  0  0  0  0  0  0
   15.6958  -16.8788   22.4520 O   0  0  0  0  0  0  0  0  0  0  0  0
   11.0962  -17.7305   25.5186 O   0  0  0  0  0  0  0  0  0  0  0  0
  2  1  1  1
  2  3  1  0
  4  5  2  0
  4  3  1  0
  6  5  1  0
  7  6  2  0
  8  7  1  0
  8  9  2  0
  9  4  1  0
 10  2  1  0
 11 10  2  0
 13 12  1  6
 13 14  1  0
 14 10  1  0
 15 16  2  0
 15 13  1  0
 17 15  1  0
 18 17  1  0
 18 19  1  1
 20 21  2  0
 20 19  1  0
 22 25  1  0
 22 18  1  0
 23 22  2  0
 24 20  1  0
M  END
$$$$
