FAD.pdb
     RDKit          3D

 25 25  0  0  1  0  0  0  0  0999 V2000
    8.6922  -16.1295   25.9613 N   0  0  0  0  0  0  0  0  0  0  0  0
    7.3558  -16.3641   25.5117 C   0  0  1  0  0  0  0  0  0  0  0  0
    6.3404  -15.4885   26.2290 C   0  0  0  0  0  0  0  0  0  0  0  0
    6.8625  -14.1270   26.4810 C   0  0  0  0  0  0  0  0  0  0  0  0
    6.5260  -13.1166   25.6048 C   0  0  0  0  0  0  0  0  0  0  0  0
    6.9892  -11.8213   25.7955 C   0  0  0  0  0  0  0  0  0  0  0  0
    7.7986  -11.5183   26.8698 C   0  0  0  0  0  0  0  0  0  0  0  0
    8.1323  -12.5303   27.7425 C   0  0  0  0  0  0  0  0  0  0  0  0
    7.6705  -13.8253   27.5537 C   0  0  0  0  0  0  0  0  0  0  0  0
    7.1751  -16.2212   24.0650 C   0  0  0  0  0  0  0  0  0  0  0  0
    5.9953  -16.1080   23.6304 O   0  0  0  0  0  0  0  0  0  0  0  0
    7.3478  -14.4346   21.6545 C   0  0  0  0  0  0  0  0  0  0  0  0
    8.0401  -15.7549   21.7549 C   0  0  2  0  0  0  0  0  0  0  0  0
    8.2146  -16.1987   23.1053 N   0  0  0  0  0  0  0  0  0  0  0  0
    9.2844  -15.7295   20.9720 C   0  0  0  0  0  0  0  0  0  0  0  0
    9.2079  -15.5897   19.7242 O   0  0  0  0  0  0  0  0  0  0  0  0
   10.5874  -15.8532   21.5293 N   0  0  0  0  0  0  0  0  0  0  0  0
   11.4638  -16.9756   21.1988 C   0  0  1  0  0  0  0  0  0  0  0  0
   12.8641  -16.4046   21.1282 C   0  0  0  0  0  0  0  0  0  0  0  0
   13.0070  -15.3624   20.0939 C   0  0  0  0  0  0  0  0  0  0  0  0
   12.4878  -15.5159   18.9695 O   0  0  0  0  0  0  0  0  0  0  0  0
   11.3231  -18.0686   22.1870 C   0  0  0  0  0  0  0  0  0  0  0  0
   10.6579  -17.9340   23.2422 O   0  0  0  0  0  0  0  0  0  0  0  0
   13.7225  -14.2128   20.3824 O   0  0  0  0  0  0  0  0  0  0  0  0
   11.9341  -19.2962   21.9710 O   0  0  0  0  0  0  0  0  0  0  0  0
  2  1  1  6
  2  3  1  0
  4  5  2  0
  4  3  1  0
  6  5  1  0
  7  6  2  0
  8  7  1  0
  8  9  2  0
  9  4  1  0
 10  2  1  0
 11 10  2  0
 13 12  1  1
 13 14  1  0
 14 10  1  0
 15 16  2  0
 15 13  1  0
 17 15  1  0
 18 17  1  0
 18 19  1  1
 20 21  2  0
 20 19  1  0
 22 25  1  0
 22 18  1  0
 23 22  2  0
 24 20  1  0
M  END
$$$$
