FAD.pdb
     RDKit          3D

 25 25  0  0  1  0  0  0  0  0999 V2000
    7.4273  -14.1628   22.9818 N   0  0  0  0  0  0  0  0  0  0  0  0
    8.0600  -14.8562   24.0598 C   0  0  1  0  0  0  0  0  0  0  0  0
    7.1661  -14.9621   25.2854 C   0  0  0  0  0  0  0  0  0  0  0  0
    6.7412  -13.6330   25.7778 C   0  0  0  0  0  0  0  0  0  0  0  0
    5.4578  -13.4854   26.2604 C   0  0  0  0  0  0  0  0  0  0  0  0
    5.0088  -12.2597   26.7345 C   0  0  0  0  0  0  0  0  0  0  0  0
    5.8414  -11.1605   26.7320 C   0  0  0  0  0  0  0  0  0  0  0  0
    7.1224  -11.3122   26.2492 C   0  0  0  0  0  0  0  0  0  0  0  0
    7.5729  -12.5362   25.7751 C   0  0  0  0  0  0  0  0  0  0  0  0
    8.5524  -16.1906   23.7087 C   0  0  0  0  0  0  0  0  0  0  0  0
    8.1742  -17.1608   24.4221 O   0  0  0  0  0  0  0  0  0  0  0  0
   10.2455  -18.0183   20.9149 C   0  0  0  0  0  0  0  0  0  0  0  0
    9.9247  -17.8013   22.3580 C   0  0  2  0  0  0  0  0  0  0  0  0
    9.4209  -16.4891   22.6323 N   0  0  0  0  0  0  0  0  0  0  0  0
   11.0753  -18.1823   23.1904 C   0  0  0  0  0  0  0  0  0  0  0  0
   11.4548  -19.3816   23.1802 O   0  0  0  0  0  0  0  0  0  0  0  0
   11.8017  -17.2820   24.0183 N   0  0  0  0  0  0  0  0  0  0  0  0
   12.8973  -17.7346   24.8736 C   0  0  1  0  0  0  0  0  0  0  0  0
   13.9366  -16.6343   24.8375 C   0  0  0  0  0  0  0  0  0  0  0  0
   14.6592  -16.5700   23.5530 C   0  0  0  0  0  0  0  0  0  0  0  0
   14.3915  -17.3764   22.6390 O   0  0  0  0  0  0  0  0  0  0  0  0
   12.4137  -18.0427   26.2383 C   0  0  0  0  0  0  0  0  0  0  0  0
   11.2879  -17.6704   26.6482 O   0  0  0  0  0  0  0  0  0  0  0  0
   15.6371  -15.6069   23.3713 O   0  0  0  0  0  0  0  0  0  0  0  0
   13.2061  -18.7653   27.1198 O   0  0  0  0  0  0  0  0  0  0  0  0
  2  1  1  6
  2  3  1  0
  4  5  2  0
  4  3  1  0
  6  5  1  0
  7  6  2  0
  8  7  1  0
  8  9  2  0
  9  4  1  0
 10  2  1  0
 11 10  2  0
 13 12  1  6
 13 14  1  0
 14 10  1  0
 15 16  2  0
 15 13  1  0
 17 15  1  0
 18 17  1  0
 18 19  1  1
 20 21  2  0
 20 19  1  0
 22 25  1  0
 22 18  1  0
 23 22  2  0
 24 20  1  0
M  END
$$$$
