FAD.pdb
     RDKit          3D

 25 25  0  0  1  0  0  0  0  0999 V2000
    6.8163  -15.3731   23.7964 N   0  0  0  0  0  0  0  0  0  0  0  0
    8.1612  -15.0210   24.1284 C   0  0  1  0  0  0  0  0  0  0  0  0
    8.3052  -14.5830   25.5775 C   0  0  0  0  0  0  0  0  0  0  0  0
    7.4545  -13.4133   25.8901 C   0  0  0  0  0  0  0  0  0  0  0  0
    7.8920  -12.1590   25.5198 C   0  0  0  0  0  0  0  0  0  0  0  0
    7.1319  -11.0284   25.7892 C   0  0  0  0  0  0  0  0  0  0  0  0
    5.9188  -11.1379   26.4355 C   0  0  0  0  0  0  0  0  0  0  0  0
    5.4855  -12.3924   26.8036 C   0  0  0  0  0  0  0  0  0  0  0  0
    6.2436  -13.5235   26.5352 C   0  0  0  0  0  0  0  0  0  0  0  0
    9.1440  -16.0697   23.8446 C   0  0  0  0  0  0  0  0  0  0  0  0
   10.3660  -15.7710   23.9493 O   0  0  0  0  0  0  0  0  0  0  0  0
    9.5746  -17.6851   21.1482 C   0  0  0  0  0  0  0  0  0  0  0  0
    9.6460  -18.1676   22.5606 C   0  0  2  0  0  0  0  0  0  0  0  0
    8.8412  -17.3975   23.4607 N   0  0  0  0  0  0  0  0  0  0  0  0
   11.0504  -18.2928   22.9775 C   0  0  0  0  0  0  0  0  0  0  0  0
   11.7930  -19.0968   22.3575 O   0  0  0  0  0  0  0  0  0  0  0  0
   11.6401  -17.5612   24.0455 N   0  0  0  0  0  0  0  0  0  0  0  0
   12.9770  -17.8733   24.5478 C   0  0  1  0  0  0  0  0  0  0  0  0
   13.7598  -16.5791   24.4824 C   0  0  0  0  0  0  0  0  0  0  0  0
   14.2737  -16.2875   23.1307 C   0  0  0  0  0  0  0  0  0  0  0  0
   14.4183  -17.2076   22.3000 O   0  0  0  0  0  0  0  0  0  0  0  0
   12.9116  -18.4532   25.9081 C   0  0  0  0  0  0  0  0  0  0  0  0
   13.9279  -18.8968   26.4951 O   0  0  0  0  0  0  0  0  0  0  0  0
   14.5940  -14.9837   22.7925 O   0  0  0  0  0  0  0  0  0  0  0  0
   11.7022  -18.5245   26.5859 O   0  0  0  0  0  0  0  0  0  0  0  0
  2  1  1  1
  2  3  1  0
  4  5  2  0
  4  3  1  0
  6  5  1  0
  7  6  2  0
  8  7  1  0
  8  9  2  0
  9  4  1  0
 10  2  1  0
 11 10  2  0
 13 12  1  6
 13 14  1  0
 14 10  1  0
 15 16  2  0
 15 13  1  0
 17 15  1  0
 18 17  1  0
 18 19  1  1
 20 21  2  0
 20 19  1  0
 22 25  1  0
 22 18  1  0
 23 22  2  0
 24 20  1  0
M  END
$$$$
