FAD.pdb
     RDKit          3D

 25 25  0  0  1  0  0  0  0  0999 V2000
    8.6072  -16.3292   22.2087 N   0  0  0  0  0  0  0  0  0  0  0  0
    8.1119  -15.4780   23.2446 C   0  0  1  0  0  0  0  0  0  0  0  0
    6.9387  -14.6269   22.7846 C   0  0  0  0  0  0  0  0  0  0  0  0
    7.2029  -13.9767   21.4819 C   0  0  0  0  0  0  0  0  0  0  0  0
    8.0085  -12.8578   21.4520 C   0  0  0  0  0  0  0  0  0  0  0  0
    8.2881  -12.2099   20.2559 C   0  0  0  0  0  0  0  0  0  0  0  0
    7.7633  -12.6747   19.0686 C   0  0  0  0  0  0  0  0  0  0  0  0
    6.9592  -13.7925   19.1027 C   0  0  0  0  0  0  0  0  0  0  0  0
    6.6786  -14.4413   20.2970 C   0  0  0  0  0  0  0  0  0  0  0  0
    7.7402  -16.1823   24.4743 C   0  0  0  0  0  0  0  0  0  0  0  0
    6.6796  -15.8233   25.0571 O   0  0  0  0  0  0  0  0  0  0  0  0
    6.6751  -18.8905   25.1618 C   0  0  0  0  0  0  0  0  0  0  0  0
    7.8693  -18.2909   25.8304 C   0  0  2  0  0  0  0  0  0  0  0  0
    8.4713  -17.2372   25.0700 N   0  0  0  0  0  0  0  0  0  0  0  0
    8.8087  -19.3513   26.2242 C   0  0  0  0  0  0  0  0  0  0  0  0
    8.3891  -20.2873   26.9523 O   0  0  0  0  0  0  0  0  0  0  0  0
   10.1768  -19.3977   25.8371 N   0  0  0  0  0  0  0  0  0  0  0  0
   11.2568  -19.1596   26.7930 C   0  0  1  0  0  0  0  0  0  0  0  0
   12.0624  -18.0064   26.2334 C   0  0  0  0  0  0  0  0  0  0  0  0
   12.7542  -18.3472   24.9758 C   0  0  0  0  0  0  0  0  0  0  0  0
   13.4799  -17.5053   24.4082 O   0  0  0  0  0  0  0  0  0  0  0  0
   10.7199  -18.8996   28.1476 C   0  0  0  0  0  0  0  0  0  0  0  0
    9.7150  -18.1735   28.3402 O   0  0  0  0  0  0  0  0  0  0  0  0
   12.5908  -19.6095   24.4312 O   0  0  0  0  0  0  0  0  0  0  0  0
   11.3234  -19.4616   29.2642 O   0  0  0  0  0  0  0  0  0  0  0  0
  2  1  1  6
  2  3  1  0
  4  5  2  0
  4  3  1  0
  6  5  1  0
  7  6  2  0
  8  7  1  0
  8  9  2  0
  9  4  1  0
 10  2  1  0
 11 10  2  0
 13 12  1  6
 13 14  1  0
 14 10  1  0
 15 16  2  0
 15 13  1  0
 17 15  1  0
 18 17  1  0
 18 19  1  6
 20 21  2  0
 20 19  1  0
 22 25  1  0
 22 18  1  0
 23 22  2  0
 24 20  1  0
M  END
$$$$
