FAD.pdb
     RDKit          3D

 25 25  0  0  1  0  0  0  0  0999 V2000
    6.3465  -16.4617   25.3197 N   0  0  0  0  0  0  0  0  0  0  0  0
    7.3468  -15.6134   24.7516 C   0  0  1  0  0  0  0  0  0  0  0  0
    7.9476  -14.6605   25.7730 C   0  0  0  0  0  0  0  0  0  0  0  0
    7.0840  -13.4818   26.0062 C   0  0  0  0  0  0  0  0  0  0  0  0
    6.3251  -13.4347   27.1567 C   0  0  0  0  0  0  0  0  0  0  0  0
    5.4981  -12.3514   27.4238 C   0  0  0  0  0  0  0  0  0  0  0  0
    5.4191  -11.2962   26.5397 C   0  0  0  0  0  0  0  0  0  0  0  0
    6.1787  -11.3471   25.3919 C   0  0  0  0  0  0  0  0  0  0  0  0
    7.0057  -12.4287   25.1232 C   0  0  0  0  0  0  0  0  0  0  0  0
    8.4279  -16.3315   24.0719 C   0  0  0  0  0  0  0  0  0  0  0  0
    8.8622  -17.3855   24.6139 O   0  0  0  0  0  0  0  0  0  0  0  0
   10.4524  -16.1615   20.8767 C   0  0  0  0  0  0  0  0  0  0  0  0
   10.1371  -16.6348   22.2584 C   0  0  2  0  0  0  0  0  0  0  0  0
    9.0320  -15.9443   22.8524 N   0  0  0  0  0  0  0  0  0  0  0  0
   11.3553  -16.6262   23.0817 C   0  0  0  0  0  0  0  0  0  0  0  0
   11.6150  -15.6003   23.7618 O   0  0  0  0  0  0  0  0  0  0  0  0
   12.2753  -17.7078   23.1673 N   0  0  0  0  0  0  0  0  0  0  0  0
   13.5074  -17.6118   23.9482 C   0  0  1  0  0  0  0  0  0  0  0  0
   13.7372  -18.9881   24.5356 C   0  0  0  0  0  0  0  0  0  0  0  0
   14.9764  -19.0722   25.3316 C   0  0  0  0  0  0  0  0  0  0  0  0
   15.6607  -18.0498   25.5411 O   0  0  0  0  0  0  0  0  0  0  0  0
   14.6310  -17.1341   23.1114 C   0  0  0  0  0  0  0  0  0  0  0  0
   14.7682  -17.4833   21.9141 O   0  0  0  0  0  0  0  0  0  0  0  0
   15.3728  -20.2957   25.8439 O   0  0  0  0  0  0  0  0  0  0  0  0
   15.5825  -16.2703   23.6364 O   0  0  0  0  0  0  0  0  0  0  0  0
  2  1  1  1
  2  3  1  0
  4  5  2  0
  4  3  1  0
  6  5  1  0
  7  6  2  0
  8  7  1  0
  8  9  2  0
  9  4  1  0
 10  2  1  0
 11 10  2  0
 13 12  1  6
 13 14  1  0
 14 10  1  0
 15 16  2  0
 15 13  1  0
 17 15  1  0
 18 17  1  0
 18 19  1  6
 20 21  2  0
 20 19  1  0
 22 25  1  0
 22 18  1  0
 23 22  2  0
 24 20  1  0
M  END
$$$$
