LWD.pdb
     RDKit          3D

 31 32  0  0  1  0  0  0  0  0999 V2000
   28.7464  -22.5827  -18.1812 C   0  0  0  0  0  0  0  0  0  0  0  0
   29.4088  -22.3082  -16.8617 C   0  0  2  0  0  0  0  0  0  0  0  0
   30.5929  -23.2805  -16.7679 C   0  0  0  0  0  0  0  0  0  0  0  0
   28.5516  -22.5668  -15.6744 C   0  0  0  0  0  0  0  0  0  0  0  0
   27.3079  -21.7175  -15.5941 C   0  0  2  0  0  0  0  0  0  0  0  0
   27.5631  -20.3255  -15.7881 N   0  0  0  0  0  0  0  0  0  0  0  0
   26.5455  -21.9812  -14.3358 C   0  0  0  0  0  0  0  0  0  0  0  0
   26.2942  -23.1517  -13.9365 O   0  0  0  0  0  0  0  0  0  0  0  0
   26.0709  -20.8903  -13.5335 N   0  0  0  0  0  0  0  0  0  0  0  0
   25.3332  -21.0858  -12.3167 C   0  0  1  0  0  0  0  0  0  0  0  0
   25.7087  -20.1314  -11.2033 C   0  0  0  0  0  0  0  0  0  0  0  0
   26.9251  -20.5191  -10.4670 C   0  0  0  0  0  0  0  0  0  0  0  0
   28.0320  -21.1456  -10.9978 C   0  0  0  0  0  0  0  0  0  0  0  0
   28.9247  -21.2862  -10.0061 N   0  0  0  0  0  0  0  0  0  0  0  0
   28.4307  -20.7742   -8.8610 C   0  0  0  0  0  0  0  0  0  0  0  0
   28.8941  -20.6562   -7.5729 C   0  0  0  0  0  0  0  0  0  0  0  0
   28.1727  -20.0855   -6.5581 C   0  0  0  0  0  0  0  0  0  0  0  0
   26.9308  -19.6092   -6.8362 C   0  0  0  0  0  0  0  0  0  0  0  0
   26.4222  -19.7041   -8.1127 C   0  0  0  0  0  0  0  0  0  0  0  0
   27.1635  -20.2851   -9.1391 C   0  0  0  0  0  0  0  0  0  0  0  0
   23.8903  -20.8730  -12.5705 C   0  0  0  0  0  0  0  0  0  0  0  0
   23.5609  -19.9490  -13.3541 O   0  0  0  0  0  0  0  0  0  0  0  0
   22.8757  -21.6403  -11.9887 N   0  0  0  0  0  0  0  0  0  0  0  0
   21.4382  -21.4191  -12.1988 C   0  0  1  0  0  0  0  0  0  0  0  0
   20.6310  -22.4746  -11.5358 C   0  0  0  0  0  0  0  0  0  0  0  0
   19.1870  -22.2421  -11.7082 C   0  0  0  0  0  0  0  0  0  0  0  0
   18.7042  -21.3091  -12.3958 O   0  0  0  0  0  0  0  0  0  0  0  0
   21.1566  -20.0765  -11.5736 C   0  0  0  0  0  0  0  0  0  0  0  0
   21.9228  -19.6183  -10.4791 O   0  0  0  0  0  0  0  0  0  0  0  0
   18.2440  -23.0858  -11.0884 O   0  0  0  0  0  0  0  0  0  0  0  0
   20.2556  -19.3296  -11.9861 O   0  0  0  0  0  0  0  0  0  0  0  0
  2  3  1  1
  2  1  1  0
  4  2  1  0
  5  4  1  0
  5  6  1  1
  7  5  1  0
  7  8  2  0
  9  7  1  0
 10  9  1  0
 10 11  1  1
 12 11  1  0
 13 12  2  0
 14 13  1  0
 15 14  1  0
 15 20  2  0
 16 15  1  0
 17 16  2  0
 17 18  1  0
 18 19  2  0
 19 20  1  0
 20 12  1  0
 21 10  1  0
 21 23  1  0
 22 21  2  0
 24 23  1  0
 24 28  1  0
 25 26  1  0
 24 25  1  1
 26 30  1  0
 27 26  2  0
 28 31  2  0
 28 29  1  0
M  END
$$$$
