LWD.pdb
     RDKit          3D

 31 32  0  0  1  0  0  0  0  0999 V2000
   28.9504  -20.7400  -17.3254 C   0  0  0  0  0  0  0  0  0  0  0  0
   29.1988  -21.6180  -16.1326 C   0  0  2  0  0  0  0  0  0  0  0  0
   29.8047  -22.9185  -16.6784 C   0  0  0  0  0  0  0  0  0  0  0  0
   27.9737  -22.0023  -15.3825 C   0  0  0  0  0  0  0  0  0  0  0  0
   27.2467  -20.8551  -14.7267 C   0  0  2  0  0  0  0  0  0  0  0  0
   28.1243  -19.8479  -14.2209 N   0  0  0  0  0  0  0  0  0  0  0  0
   26.2851  -21.3381  -13.6892 C   0  0  0  0  0  0  0  0  0  0  0  0
   25.6048  -22.3899  -13.8430 O   0  0  0  0  0  0  0  0  0  0  0  0
   26.1071  -20.6054  -12.4684 N   0  0  0  0  0  0  0  0  0  0  0  0
   25.1063  -20.9481  -11.4969 C   0  0  1  0  0  0  0  0  0  0  0  0
   25.4067  -20.4572  -10.0968 C   0  0  0  0  0  0  0  0  0  0  0  0
   26.7448  -20.8314   -9.6052 C   0  0  0  0  0  0  0  0  0  0  0  0
   27.6590  -21.6270  -10.2615 C   0  0  0  0  0  0  0  0  0  0  0  0
   28.7570  -21.6902   -9.4929 N   0  0  0  0  0  0  0  0  0  0  0  0
   28.5795  -20.9659   -8.3698 C   0  0  0  0  0  0  0  0  0  0  0  0
   29.3455  -20.6912   -7.2627 C   0  0  0  0  0  0  0  0  0  0  0  0
   28.9191  -19.9095   -6.2221 C   0  0  0  0  0  0  0  0  0  0  0  0
   27.6714  -19.3750   -6.2840 C   0  0  0  0  0  0  0  0  0  0  0  0
   26.8655  -19.6212   -7.3735 C   0  0  0  0  0  0  0  0  0  0  0  0
   27.3079  -20.4167   -8.4281 C   0  0  0  0  0  0  0  0  0  0  0  0
   23.8133  -20.3357  -11.8779 C   0  0  0  0  0  0  0  0  0  0  0  0
   23.8396  -19.2934  -12.5773 O   0  0  0  0  0  0  0  0  0  0  0  0
   22.5676  -20.8505  -11.5042 N   0  0  0  0  0  0  0  0  0  0  0  0
   21.3518  -20.7709  -12.3258 C   0  0  1  0  0  0  0  0  0  0  0  0
   21.4533  -21.6480  -13.5197 C   0  0  0  0  0  0  0  0  0  0  0  0
   21.1099  -20.9243  -14.7555 C   0  0  0  0  0  0  0  0  0  0  0  0
   20.7162  -19.7325  -14.7837 O   0  0  0  0  0  0  0  0  0  0  0  0
   20.2414  -21.2446  -11.4227 C   0  0  0  0  0  0  0  0  0  0  0  0
   20.4155  -22.3839  -10.6062 O   0  0  0  0  0  0  0  0  0  0  0  0
   21.2107  -21.5568  -16.0105 O   0  0  0  0  0  0  0  0  0  0  0  0
   19.1462  -20.6648  -11.3593 O   0  0  0  0  0  0  0  0  0  0  0  0
  2  3  1  6
  2  1  1  0
  4  2  1  0
  5  4  1  0
  5  6  1  1
  7  5  1  0
  7  8  2  0
  9  7  1  0
 10  9  1  0
 10 11  1  1
 12 11  1  0
 13 12  2  0
 14 13  1  0
 15 14  1  0
 15 20  2  0
 16 15  1  0
 17 16  2  0
 17 18  1  0
 18 19  2  0
 19 20  1  0
 20 12  1  0
 21 10  1  0
 21 23  1  0
 22 21  2  0
 24 23  1  0
 24 28  1  0
 25 26  1  0
 24 25  1  6
 26 30  1  0
 27 26  2  0
 28 31  2  0
 28 29  1  0
M  END
$$$$
