LWD.pdb
     RDKit          3D

 31 32  0  0  1  0  0  0  0  0999 V2000
   28.0770  -17.7766  -17.3747 C   0  0  0  0  0  0  0  0  0  0  0  0
   28.7363  -18.9749  -16.7545 C   0  0  2  0  0  0  0  0  0  0  0  0
   29.2438  -19.8344  -17.9207 C   0  0  0  0  0  0  0  0  0  0  0  0
   27.8251  -19.8374  -15.9563 C   0  0  0  0  0  0  0  0  0  0  0  0
   27.1752  -19.1536  -14.7796 C   0  0  2  0  0  0  0  0  0  0  0  0
   28.0987  -18.4192  -13.9746 N   0  0  0  0  0  0  0  0  0  0  0  0
   26.3602  -20.1114  -13.9717 C   0  0  0  0  0  0  0  0  0  0  0  0
   25.9408  -21.2025  -14.4473 O   0  0  0  0  0  0  0  0  0  0  0  0
   26.0277  -19.8104  -12.6087 N   0  0  0  0  0  0  0  0  0  0  0  0
   25.1428  -20.6284  -11.8272 C   0  0  1  0  0  0  0  0  0  0  0  0
   25.3748  -20.5423  -10.3338 C   0  0  0  0  0  0  0  0  0  0  0  0
   26.7680  -20.8009   -9.9284 C   0  0  0  0  0  0  0  0  0  0  0  0
   27.7407  -21.4018  -10.6979 C   0  0  0  0  0  0  0  0  0  0  0  0
   28.8708  -21.4133   -9.9749 N   0  0  0  0  0  0  0  0  0  0  0  0
   28.6578  -20.8434   -8.7719 C   0  0  0  0  0  0  0  0  0  0  0  0
   29.4333  -20.5994   -7.6642 C   0  0  0  0  0  0  0  0  0  0  0  0
   28.9629  -19.9943   -6.5290 C   0  0  0  0  0  0  0  0  0  0  0  0
   27.6590  -19.6135   -6.4923 C   0  0  0  0  0  0  0  0  0  0  0  0
   26.8414  -19.8362   -7.5781 C   0  0  0  0  0  0  0  0  0  0  0  0
   27.3286  -20.4514   -8.7291 C   0  0  0  0  0  0  0  0  0  0  0  0
   23.7432  -20.2004  -12.0504 C   0  0  0  0  0  0  0  0  0  0  0  0
   23.5398  -19.0100  -12.3936 O   0  0  0  0  0  0  0  0  0  0  0  0
   22.6375  -21.0441  -11.9011 N   0  0  0  0  0  0  0  0  0  0  0  0
   21.3883  -20.9250  -12.6658 C   0  0  1  0  0  0  0  0  0  0  0  0
   21.6325  -21.0921  -14.1209 C   0  0  0  0  0  0  0  0  0  0  0  0
   20.3752  -21.0758  -14.8876 C   0  0  0  0  0  0  0  0  0  0  0  0
   19.2385  -20.9567  -14.3679 O   0  0  0  0  0  0  0  0  0  0  0  0
   20.5112  -22.0385  -12.1522 C   0  0  0  0  0  0  0  0  0  0  0  0
   19.2532  -21.7550  -11.5760 O   0  0  0  0  0  0  0  0  0  0  0  0
   20.3876  -21.1967  -16.2914 O   0  0  0  0  0  0  0  0  0  0  0  0
   20.8508  -23.2305  -12.2121 O   0  0  0  0  0  0  0  0  0  0  0  0
  2  3  1  6
  2  1  1  0
  4  2  1  0
  5  4  1  0
  5  6  1  1
  7  5  1  0
  7  8  2  0
  9  7  1  0
 10  9  1  0
 10 11  1  1
 12 11  1  0
 13 12  2  0
 14 13  1  0
 15 14  1  0
 15 20  2  0
 16 15  1  0
 17 16  2  0
 17 18  1  0
 18 19  2  0
 19 20  1  0
 20 12  1  0
 21 10  1  0
 21 23  1  0
 22 21  2  0
 24 23  1  0
 24 28  1  0
 25 26  1  0
 24 25  1  6
 26 30  1  0
 27 26  2  0
 28 31  2  0
 28 29  1  0
M  END
$$$$
