LWD.pdb
     RDKit          3D

 31 32  0  0  1  0  0  0  0  0999 V2000
   29.1650  -21.2986  -16.6261 C   0  0  0  0  0  0  0  0  0  0  0  0
   28.5868  -22.2681  -15.6355 C   0  0  2  0  0  0  0  0  0  0  0  0
   28.7546  -23.6625  -16.2549 C   0  0  0  0  0  0  0  0  0  0  0  0
   27.1336  -22.0914  -15.3741 C   0  0  0  0  0  0  0  0  0  0  0  0
   26.7810  -20.8767  -14.5527 C   0  0  2  0  0  0  0  0  0  0  0  0
   27.8060  -19.8819  -14.5500 N   0  0  0  0  0  0  0  0  0  0  0  0
   26.3585  -21.2551  -13.1697 C   0  0  0  0  0  0  0  0  0  0  0  0
   25.4897  -22.1445  -12.9535 O   0  0  0  0  0  0  0  0  0  0  0  0
   26.9407  -20.6055  -12.0305 N   0  0  0  0  0  0  0  0  0  0  0  0
   26.3904  -20.7172  -10.7085 C   0  0  1  0  0  0  0  0  0  0  0  0
   27.2038  -20.0230   -9.6370 C   0  0  0  0  0  0  0  0  0  0  0  0
   26.7661  -20.3258   -8.2626 C   0  0  0  0  0  0  0  0  0  0  0  0
   25.6269  -21.0140   -7.9050 C   0  0  0  0  0  0  0  0  0  0  0  0
   25.6184  -21.1032   -6.5663 N   0  0  0  0  0  0  0  0  0  0  0  0
   26.7085  -20.4977   -6.0540 C   0  0  0  0  0  0  0  0  0  0  0  0
   27.1935  -20.2861   -4.7860 C   0  0  0  0  0  0  0  0  0  0  0  0
   28.3571  -19.6131   -4.5231 C   0  0  0  0  0  0  0  0  0  0  0  0
   29.0733  -19.1264   -5.5703 C   0  0  0  0  0  0  0  0  0  0  0  0
   28.6284  -19.3132   -6.8604 C   0  0  0  0  0  0  0  0  0  0  0  0
   27.4443  -20.0000   -7.1186 C   0  0  0  0  0  0  0  0  0  0  0  0
   25.0485  -20.0927  -10.6743 C   0  0  0  0  0  0  0  0  0  0  0  0
   24.9762  -18.8463  -10.8067 O   0  0  0  0  0  0  0  0  0  0  0  0
   23.8598  -20.8099  -10.5031 N   0  0  0  0  0  0  0  0  0  0  0  0
   22.5231  -20.3016  -10.8411 C   0  0  1  0  0  0  0  0  0  0  0  0
   22.1440  -20.6718  -12.2283 C   0  0  0  0  0  0  0  0  0  0  0  0
   21.5545  -19.5327  -12.9521 C   0  0  0  0  0  0  0  0  0  0  0  0
   21.4313  -18.3815  -12.4666 O   0  0  0  0  0  0  0  0  0  0  0  0
   21.5955  -20.9614   -9.8526 C   0  0  0  0  0  0  0  0  0  0  0  0
   20.5748  -20.2190   -9.2186 O   0  0  0  0  0  0  0  0  0  0  0  0
   21.0841  -19.6851  -14.2715 O   0  0  0  0  0  0  0  0  0  0  0  0
   21.6875  -22.1634   -9.5583 O   0  0  0  0  0  0  0  0  0  0  0  0
  2  3  1  6
  2  1  1  0
  4  2  1  0
  5  4  1  0
  5  6  1  1
  7  5  1  0
  7  8  2  0
  9  7  1  0
 10  9  1  0
 10 11  1  1
 12 11  1  0
 13 12  2  0
 14 13  1  0
 15 14  1  0
 15 20  2  0
 16 15  1  0
 17 16  2  0
 17 18  1  0
 18 19  2  0
 19 20  1  0
 20 12  1  0
 21 10  1  0
 21 23  1  0
 22 21  2  0
 24 23  1  0
 24 28  1  0
 25 26  1  0
 24 25  1  6
 26 30  1  0
 27 26  2  0
 28 31  2  0
 28 29  1  0
M  END
$$$$
