LWD.pdb
     RDKit          3D

 31 32  0  0  1  0  0  0  0  0999 V2000
   21.4551   -9.3364  -23.0825 C   0  0  0  0  0  0  0  0  0  0  0  0
   20.1934   -8.5250  -23.1536 C   0  0  2  0  0  0  0  0  0  0  0  0
   20.5485   -7.2508  -23.9323 C   0  0  0  0  0  0  0  0  0  0  0  0
   19.6674   -8.0840  -21.8345 C   0  0  0  0  0  0  0  0  0  0  0  0
   19.3767   -9.2005  -20.8631 C   0  0  2  0  0  0  0  0  0  0  0  0
   18.2336   -9.9773  -21.2239 N   0  0  0  0  0  0  0  0  0  0  0  0
   19.2956   -8.6964  -19.4583 C   0  0  0  0  0  0  0  0  0  0  0  0
   18.6259   -7.6720  -19.1508 O   0  0  0  0  0  0  0  0  0  0  0  0
   19.9895   -9.3769  -18.4026 N   0  0  0  0  0  0  0  0  0  0  0  0
   19.9248   -8.9523  -17.0320 C   0  0  1  0  0  0  0  0  0  0  0  0
   20.3546  -10.0069  -16.0348 C   0  0  0  0  0  0  0  0  0  0  0  0
   20.1956   -9.6002  -14.6271 C   0  0  0  0  0  0  0  0  0  0  0  0
   19.0462   -9.1072  -14.0481 C   0  0  0  0  0  0  0  0  0  0  0  0
   19.3125   -8.8956  -12.7502 N   0  0  0  0  0  0  0  0  0  0  0  0
   20.5887   -9.2338  -12.4772 C   0  0  0  0  0  0  0  0  0  0  0  0
   21.3758   -9.2176  -11.3512 C   0  0  0  0  0  0  0  0  0  0  0  0
   22.6858   -9.6173  -11.3374 C   0  0  0  0  0  0  0  0  0  0  0  0
   23.2408  -10.0538  -12.4984 C   0  0  0  0  0  0  0  0  0  0  0  0
   22.4921  -10.0888  -13.6540 C   0  0  0  0  0  0  0  0  0  0  0  0
   21.1600   -9.6814  -13.6585 C   0  0  0  0  0  0  0  0  0  0  0  0
   20.8300   -7.7991  -16.8256 C   0  0  0  0  0  0  0  0  0  0  0  0
   21.9888   -7.8680  -17.3037 O   0  0  0  0  0  0  0  0  0  0  0  0
   20.4690   -6.6404  -16.1300 N   0  0  0  0  0  0  0  0  0  0  0  0
   21.3522   -5.4850  -15.9191 C   0  0  1  0  0  0  0  0  0  0  0  0
   20.7524   -4.2440  -16.4716 C   0  0  0  0  0  0  0  0  0  0  0  0
   21.6654   -3.0957  -16.3419 C   0  0  0  0  0  0  0  0  0  0  0  0
   22.8886   -3.1374  -16.6218 O   0  0  0  0  0  0  0  0  0  0  0  0
   21.4957   -5.3742  -14.4225 C   0  0  0  0  0  0  0  0  0  0  0  0
   20.5380   -5.9571  -13.5635 O   0  0  0  0  0  0  0  0  0  0  0  0
   21.1933   -1.8505  -15.8818 O   0  0  0  0  0  0  0  0  0  0  0  0
   22.4440   -4.7764  -13.8904 O   0  0  0  0  0  0  0  0  0  0  0  0
  2  3  1  6
  2  1  1  0
  4  2  1  0
  5  4  1  0
  5  6  1  6
  7  5  1  0
  7  8  2  0
  9  7  1  0
 10  9  1  0
 10 11  1  1
 12 11  1  0
 13 12  2  0
 14 13  1  0
 15 14  1  0
 15 20  2  0
 16 15  1  0
 17 16  2  0
 17 18  1  0
 18 19  2  0
 19 20  1  0
 20 12  1  0
 21 10  1  0
 21 23  1  0
 22 21  2  0
 24 23  1  0
 24 28  1  0
 25 26  1  0
 24 25  1  1
 26 30  1  0
 27 26  2  0
 28 31  2  0
 28 29  1  0
M  END
$$$$
