LWD.pdb
     RDKit          3D

 31 32  0  0  1  0  0  0  0  0999 V2000
   39.6947  -26.6585    1.3933 C   0  0  0  0  0  0  0  0  0  0  0  0
   39.7467  -27.4653    2.6589 C   0  0  2  0  0  0  0  0  0  0  0  0
   39.1613  -28.8413    2.3124 C   0  0  0  0  0  0  0  0  0  0  0  0
   38.9241  -26.9218    3.7721 C   0  0  0  0  0  0  0  0  0  0  0  0
   39.3178  -25.5415    4.2351 C   0  0  2  0  0  0  0  0  0  0  0  0
   40.6654  -25.4677    4.7031 N   0  0  0  0  0  0  0  0  0  0  0  0
   38.3442  -25.0002    5.2318 C   0  0  0  0  0  0  0  0  0  0  0  0
   38.4308  -25.2600    6.4636 O   0  0  0  0  0  0  0  0  0  0  0  0
   37.2658  -24.1547    4.8063 N   0  0  0  0  0  0  0  0  0  0  0  0
   36.2292  -23.7123    5.6967 C   0  0  1  0  0  0  0  0  0  0  0  0
   35.2773  -22.7044    5.0888 C   0  0  0  0  0  0  0  0  0  0  0  0
   34.2514  -22.2098    6.0242 C   0  0  0  0  0  0  0  0  0  0  0  0
   34.3071  -22.2729    7.3999 C   0  0  0  0  0  0  0  0  0  0  0  0
   33.1979  -21.6834    7.8714 N   0  0  0  0  0  0  0  0  0  0  0  0
   32.4346  -21.2463    6.8498 C   0  0  0  0  0  0  0  0  0  0  0  0
   31.2273  -20.5978    6.7506 C   0  0  0  0  0  0  0  0  0  0  0  0
   30.6438  -20.2627    5.5576 C   0  0  0  0  0  0  0  0  0  0  0  0
   31.2906  -20.5877    4.4076 C   0  0  0  0  0  0  0  0  0  0  0  0
   32.5039  -21.2382    4.4552 C   0  0  0  0  0  0  0  0  0  0  0  0
   33.0905  -21.5742    5.6732 C   0  0  0  0  0  0  0  0  0  0  0  0
   35.3981  -24.8675    6.1050 C   0  0  0  0  0  0  0  0  0  0  0  0
   34.8925  -25.5770    5.2010 O   0  0  0  0  0  0  0  0  0  0  0  0
   35.1444  -25.2126    7.4366 N   0  0  0  0  0  0  0  0  0  0  0  0
   34.3950  -26.4031    7.8614 C   0  0  1  0  0  0  0  0  0  0  0  0
   35.3025  -27.5582    8.0790 C   0  0  0  0  0  0  0  0  0  0  0  0
   34.5598  -28.7621    8.4889 C   0  0  0  0  0  0  0  0  0  0  0  0
   33.3106  -28.8095    8.6052 O   0  0  0  0  0  0  0  0  0  0  0  0
   33.7364  -26.0050    9.1577 C   0  0  0  0  0  0  0  0  0  0  0  0
   32.4623  -26.5088    9.5010 O   0  0  0  0  0  0  0  0  0  0  0  0
   35.2393  -29.9615    8.7802 O   0  0  0  0  0  0  0  0  0  0  0  0
   34.2753  -25.2312    9.9643 O   0  0  0  0  0  0  0  0  0  0  0  0
  2  3  1  6
  2  1  1  0
  4  2  1  0
  5  4  1  0
  5  6  1  1
  7  5  1  0
  7  8  2  0
  9  7  1  0
 10  9  1  0
 10 11  1  6
 12 11  1  0
 13 12  2  0
 14 13  1  0
 15 14  1  0
 15 20  2  0
 16 15  1  0
 17 16  2  0
 17 18  1  0
 18 19  2  0
 19 20  1  0
 20 12  1  0
 21 10  1  0
 21 23  1  0
 22 21  2  0
 24 23  1  0
 24 28  1  0
 25 26  1  0
 24 25  1  1
 26 30  1  0
 27 26  2  0
 28 31  2  0
 28 29  1  0
M  END
$$$$
