LWD.pdb
     RDKit          3D

 31 32  0  0  1  0  0  0  0  0999 V2000
   28.7908  -21.6784  -17.5260 C   0  0  0  0  0  0  0  0  0  0  0  0
   29.2221  -22.0267  -16.1303 C   0  0  2  0  0  0  0  0  0  0  0  0
   30.0824  -23.2921  -16.2525 C   0  0  0  0  0  0  0  0  0  0  0  0
   28.1073  -22.3587  -15.2039 C   0  0  0  0  0  0  0  0  0  0  0  0
   27.1636  -21.2185  -14.9143 C   0  0  2  0  0  0  0  0  0  0  0  0
   27.8305  -19.9690  -14.7287 N   0  0  0  0  0  0  0  0  0  0  0  0
   26.2460  -21.5422  -13.7796 C   0  0  0  0  0  0  0  0  0  0  0  0
   25.5652  -22.6043  -13.7496 O   0  0  0  0  0  0  0  0  0  0  0  0
   26.1132  -20.6375  -12.6738 N   0  0  0  0  0  0  0  0  0  0  0  0
   25.2088  -20.8730  -11.5832 C   0  0  1  0  0  0  0  0  0  0  0  0
   25.6264  -20.2260  -10.2799 C   0  0  0  0  0  0  0  0  0  0  0  0
   26.9568  -20.6442   -9.8030 C   0  0  0  0  0  0  0  0  0  0  0  0
   27.8609  -21.4217  -10.4940 C   0  0  0  0  0  0  0  0  0  0  0  0
   28.9550  -21.5388   -9.7263 N   0  0  0  0  0  0  0  0  0  0  0  0
   28.7848  -20.8664   -8.5703 C   0  0  0  0  0  0  0  0  0  0  0  0
   29.5510  -20.6571   -7.4491 C   0  0  0  0  0  0  0  0  0  0  0  0
   29.1330  -19.9194   -6.3734 C   0  0  0  0  0  0  0  0  0  0  0  0
   27.8939  -19.3631   -6.4132 C   0  0  0  0  0  0  0  0  0  0  0  0
   27.0882  -19.5442   -7.5156 C   0  0  0  0  0  0  0  0  0  0  0  0
   27.5220  -20.2952   -8.6057 C   0  0  0  0  0  0  0  0  0  0  0  0
   23.8780  -20.3134  -11.9112 C   0  0  0  0  0  0  0  0  0  0  0  0
   23.8340  -19.1919  -12.4738 O   0  0  0  0  0  0  0  0  0  0  0  0
   22.6702  -20.9609  -11.6309 N   0  0  0  0  0  0  0  0  0  0  0  0
   21.4087  -20.7184  -12.3446 C   0  0  1  0  0  0  0  0  0  0  0  0
   21.5463  -21.0169  -13.7927 C   0  0  0  0  0  0  0  0  0  0  0  0
   20.2617  -20.8788  -14.4997 C   0  0  0  0  0  0  0  0  0  0  0  0
   19.2896  -20.2142  -14.0642 O   0  0  0  0  0  0  0  0  0  0  0  0
   20.4164  -21.6591  -11.7095 C   0  0  0  0  0  0  0  0  0  0  0  0
   19.2588  -21.1599  -11.0726 O   0  0  0  0  0  0  0  0  0  0  0  0
   20.0544  -21.5077  -15.7434 O   0  0  0  0  0  0  0  0  0  0  0  0
   20.5714  -22.8902  -11.7183 O   0  0  0  0  0  0  0  0  0  0  0  0
  2  3  1  6
  2  1  1  0
  4  2  1  0
  5  4  1  0
  5  6  1  1
  7  5  1  0
  7  8  2  0
  9  7  1  0
 10  9  1  0
 10 11  1  1
 12 11  1  0
 13 12  2  0
 14 13  1  0
 15 14  1  0
 15 20  2  0
 16 15  1  0
 17 16  2  0
 17 18  1  0
 18 19  2  0
 19 20  1  0
 20 12  1  0
 21 10  1  0
 21 23  1  0
 22 21  2  0
 24 23  1  0
 24 28  1  0
 25 26  1  0
 24 25  1  6
 26 30  1  0
 27 26  2  0
 28 31  2  0
 28 29  1  0
M  END
$$$$
