LWD.pdb
     RDKit          3D

 31 32  0  0  1  0  0  0  0  0999 V2000
   29.3551  -19.8795  -16.7311 C   0  0  0  0  0  0  0  0  0  0  0  0
   27.9442  -20.3145  -17.0060 C   0  0  2  0  0  0  0  0  0  0  0  0
   27.2878  -19.1668  -17.7859 C   0  0  0  0  0  0  0  0  0  0  0  0
   27.1161  -20.5298  -15.7898 C   0  0  0  0  0  0  0  0  0  0  0  0
   27.6868  -21.5157  -14.8014 C   0  0  2  0  0  0  0  0  0  0  0  0
   27.8200  -22.8343  -15.3344 N   0  0  0  0  0  0  0  0  0  0  0  0
   26.9275  -21.5018  -13.5139 C   0  0  0  0  0  0  0  0  0  0  0  0
   25.7265  -21.8820  -13.4394 O   0  0  0  0  0  0  0  0  0  0  0  0
   27.5558  -21.0479  -12.3065 N   0  0  0  0  0  0  0  0  0  0  0  0
   26.8691  -20.9980  -11.0460 C   0  0  1  0  0  0  0  0  0  0  0  0
   27.7166  -20.4949   -9.8970 C   0  0  0  0  0  0  0  0  0  0  0  0
   26.9977  -20.4146   -8.6129 C   0  0  0  0  0  0  0  0  0  0  0  0
   25.6809  -20.7586   -8.3953 C   0  0  0  0  0  0  0  0  0  0  0  0
   25.4305  -20.5724   -7.0904 N   0  0  0  0  0  0  0  0  0  0  0  0
   26.5366  -20.1217   -6.4653 C   0  0  0  0  0  0  0  0  0  0  0  0
   26.8433  -19.7670   -5.1738 C   0  0  0  0  0  0  0  0  0  0  0  0
   28.0773  -19.3176   -4.7848 C   0  0  0  0  0  0  0  0  0  0  0  0
   29.0537  -19.2153   -5.7242 C   0  0  0  0  0  0  0  0  0  0  0  0
   28.7951  -19.5594   -7.0326 C   0  0  0  0  0  0  0  0  0  0  0  0
   27.5373  -20.0166   -7.4191 C   0  0  0  0  0  0  0  0  0  0  0  0
   25.7181  -20.0719  -11.1432 C   0  0  0  0  0  0  0  0  0  0  0  0
   25.9331  -18.9086  -11.5635 O   0  0  0  0  0  0  0  0  0  0  0  0
   24.4084  -20.4180  -10.7944 N   0  0  0  0  0  0  0  0  0  0  0  0
   23.2032  -19.8758  -11.4371 C   0  0  1  0  0  0  0  0  0  0  0  0
   23.1914  -20.1740  -12.8918 C   0  0  0  0  0  0  0  0  0  0  0  0
   21.9300  -19.7495  -13.5225 C   0  0  0  0  0  0  0  0  0  0  0  0
   20.8318  -20.3353  -13.3575 O   0  0  0  0  0  0  0  0  0  0  0  0
   22.0529  -20.5693  -10.7525 C   0  0  0  0  0  0  0  0  0  0  0  0
   22.0798  -21.9651  -10.5383 O   0  0  0  0  0  0  0  0  0  0  0  0
   21.8933  -18.6253  -14.3710 O   0  0  0  0  0  0  0  0  0  0  0  0
   21.0507  -19.9547  -10.3553 O   0  0  0  0  0  0  0  0  0  0  0  0
  2  3  1  6
  2  1  1  0
  4  2  1  0
  5  4  1  0
  5  6  1  6
  7  5  1  0
  7  8  2  0
  9  7  1  0
 10  9  1  0
 10 11  1  1
 12 11  1  0
 13 12  2  0
 14 13  1  0
 15 14  1  0
 15 20  2  0
 16 15  1  0
 17 16  2  0
 17 18  1  0
 18 19  2  0
 19 20  1  0
 20 12  1  0
 21 10  1  0
 21 23  1  0
 22 21  2  0
 24 23  1  0
 24 28  1  0
 25 26  1  0
 24 25  1  6
 26 30  1  0
 27 26  2  0
 28 31  2  0
 28 29  1  0
M  END
$$$$
