LWD.pdb
     RDKit          3D

 31 32  0  0  1  0  0  0  0  0999 V2000
   25.4123  -22.9243  -20.8681 C   0  0  0  0  0  0  0  0  0  0  0  0
   26.3619  -22.1485  -20.0010 C   0  0  2  0  0  0  0  0  0  0  0  0
   27.7324  -22.8213  -20.1604 C   0  0  0  0  0  0  0  0  0  0  0  0
   26.0394  -22.1799  -18.5497 C   0  0  0  0  0  0  0  0  0  0  0  0
   24.6974  -21.5955  -18.1864 C   0  0  2  0  0  0  0  0  0  0  0  0
   24.5393  -20.2410  -18.6116 N   0  0  0  0  0  0  0  0  0  0  0  0
   24.4010  -21.7682  -16.7315 C   0  0  0  0  0  0  0  0  0  0  0  0
   24.5632  -22.8712  -16.1403 O   0  0  0  0  0  0  0  0  0  0  0  0
   23.9161  -20.6638  -15.9543 N   0  0  0  0  0  0  0  0  0  0  0  0
   23.6412  -20.7661  -14.5483 C   0  0  1  0  0  0  0  0  0  0  0  0
   24.3260  -19.7129  -13.7038 C   0  0  0  0  0  0  0  0  0  0  0  0
   25.5051  -20.2068  -12.9704 C   0  0  0  0  0  0  0  0  0  0  0  0
   26.7539  -20.4435  -13.5034 C   0  0  0  0  0  0  0  0  0  0  0  0
   27.5460  -20.8484  -12.4991 N   0  0  0  0  0  0  0  0  0  0  0  0
   26.8513  -20.8804  -11.3442 C   0  0  0  0  0  0  0  0  0  0  0  0
   27.1468  -21.2142  -10.0445 C   0  0  0  0  0  0  0  0  0  0  0  0
   26.2333  -21.1694   -9.0250 C   0  0  0  0  0  0  0  0  0  0  0  0
   24.9649  -20.7742   -9.3103 C   0  0  0  0  0  0  0  0  0  0  0  0
   24.6200  -20.4291  -10.5984 C   0  0  0  0  0  0  0  0  0  0  0  0
   25.5559  -20.4766  -11.6290 C   0  0  0  0  0  0  0  0  0  0  0  0
   22.1890  -20.6010  -14.3123 C   0  0  0  0  0  0  0  0  0  0  0  0
   21.5328  -19.9195  -15.1376 O   0  0  0  0  0  0  0  0  0  0  0  0
   21.5082  -21.1593  -13.2254 N   0  0  0  0  0  0  0  0  0  0  0  0
   20.0635  -21.0286  -12.9900 C   0  0  1  0  0  0  0  0  0  0  0  0
   19.6120  -21.9410  -11.9088 C   0  0  0  0  0  0  0  0  0  0  0  0
   19.1285  -23.2235  -12.4477 C   0  0  0  0  0  0  0  0  0  0  0  0
   18.9649  -23.4529  -13.6712 O   0  0  0  0  0  0  0  0  0  0  0  0
   19.8658  -19.5921  -12.5775 C   0  0  0  0  0  0  0  0  0  0  0  0
   18.8219  -18.8213  -13.1352 O   0  0  0  0  0  0  0  0  0  0  0  0
   18.8157  -24.2932  -11.5857 O   0  0  0  0  0  0  0  0  0  0  0  0
   20.5988  -19.0349  -11.7456 O   0  0  0  0  0  0  0  0  0  0  0  0
  2  3  1  1
  2  1  1  0
  4  2  1  0
  5  4  1  0
  5  6  1  1
  7  5  1  0
  7  8  2  0
  9  7  1  0
 10  9  1  0
 10 11  1  1
 12 11  1  0
 13 12  2  0
 14 13  1  0
 15 14  1  0
 15 20  2  0
 16 15  1  0
 17 16  2  0
 17 18  1  0
 18 19  2  0
 19 20  1  0
 20 12  1  0
 21 10  1  0
 21 23  1  0
 22 21  2  0
 24 23  1  0
 24 28  1  0
 25 26  1  0
 24 25  1  1
 26 30  1  0
 27 26  2  0
 28 31  2  0
 28 29  1  0
M  END
$$$$
