LWD.pdb
     RDKit          3D

 31 32  0  0  1  0  0  0  0  0999 V2000
   28.3395  -21.2695  -17.4166 C   0  0  0  0  0  0  0  0  0  0  0  0
   28.8450  -21.9150  -16.1583 C   0  0  2  0  0  0  0  0  0  0  0  0
   29.4133  -23.2782  -16.5763 C   0  0  0  0  0  0  0  0  0  0  0  0
   27.7969  -22.1862  -15.1389 C   0  0  0  0  0  0  0  0  0  0  0  0
   27.1810  -20.9559  -14.5210 C   0  0  2  0  0  0  0  0  0  0  0  0
   28.0660  -19.8349  -14.4965 N   0  0  0  0  0  0  0  0  0  0  0  0
   26.6057  -21.2500  -13.1731 C   0  0  0  0  0  0  0  0  0  0  0  0
   25.8642  -22.2495  -12.9638 O   0  0  0  0  0  0  0  0  0  0  0  0
   26.8870  -20.3881  -12.0610 N   0  0  0  0  0  0  0  0  0  0  0  0
   26.3742  -20.6317  -10.7417 C   0  0  1  0  0  0  0  0  0  0  0  0
   27.2871  -20.1699   -9.6260 C   0  0  0  0  0  0  0  0  0  0  0  0
   26.7797  -20.4683   -8.2748 C   0  0  0  0  0  0  0  0  0  0  0  0
   25.6508  -21.1990   -7.9731 C   0  0  0  0  0  0  0  0  0  0  0  0
   25.5645  -21.2661   -6.6359 N   0  0  0  0  0  0  0  0  0  0  0  0
   26.5949  -20.6055   -6.0707 C   0  0  0  0  0  0  0  0  0  0  0  0
   26.9924  -20.3519   -4.7802 C   0  0  0  0  0  0  0  0  0  0  0  0
   28.1084  -19.6249   -4.4608 C   0  0  0  0  0  0  0  0  0  0  0  0
   28.8659  -19.1253   -5.4722 C   0  0  0  0  0  0  0  0  0  0  0  0
   28.5087  -19.3528   -6.7829 C   0  0  0  0  0  0  0  0  0  0  0  0
   27.3725  -20.0943   -7.0985 C   0  0  0  0  0  0  0  0  0  0  0  0
   25.1008  -19.8986  -10.5600 C   0  0  0  0  0  0  0  0  0  0  0  0
   25.0972  -18.6625  -10.7800 O   0  0  0  0  0  0  0  0  0  0  0  0
   23.9048  -20.5026  -10.1583 N   0  0  0  0  0  0  0  0  0  0  0  0
   22.6076  -20.3056  -10.8202 C   0  0  1  0  0  0  0  0  0  0  0  0
   22.6393  -20.8008  -12.2197 C   0  0  0  0  0  0  0  0  0  0  0  0
   21.7303  -20.0332  -13.0877 C   0  0  0  0  0  0  0  0  0  0  0  0
   20.6176  -19.5858  -12.7163 O   0  0  0  0  0  0  0  0  0  0  0  0
   21.6290  -21.1106  -10.0034 C   0  0  0  0  0  0  0  0  0  0  0  0
   20.5608  -20.4763   -9.3314 O   0  0  0  0  0  0  0  0  0  0  0  0
   22.0781  -19.7533  -14.4241 O   0  0  0  0  0  0  0  0  0  0  0  0
   21.7184  -22.3429   -9.8881 O   0  0  0  0  0  0  0  0  0  0  0  0
  2  3  1  6
  2  1  1  0
  4  2  1  0
  5  4  1  0
  5  6  1  1
  7  5  1  0
  7  8  2  0
  9  7  1  0
 10  9  1  0
 10 11  1  1
 12 11  1  0
 13 12  2  0
 14 13  1  0
 15 14  1  0
 15 20  2  0
 16 15  1  0
 17 16  2  0
 17 18  1  0
 18 19  2  0
 19 20  1  0
 20 12  1  0
 21 10  1  0
 21 23  1  0
 22 21  2  0
 24 23  1  0
 24 28  1  0
 25 26  1  0
 24 25  1  6
 26 30  1  0
 27 26  2  0
 28 31  2  0
 28 29  1  0
M  END
$$$$
