LWD.pdb
     RDKit          3D

 31 32  0  0  1  0  0  0  0  0999 V2000
   15.3539  -28.5021   -4.2016 C   0  0  0  0  0  0  0  0  0  0  0  0
   16.6196  -28.0339   -3.5427 C   0  0  2  0  0  0  0  0  0  0  0  0
   16.9201  -29.0455   -2.4279 C   0  0  0  0  0  0  0  0  0  0  0  0
   16.5203  -26.7009   -2.8912 C   0  0  0  0  0  0  0  0  0  0  0  0
   16.1656  -25.5669   -3.8200 C   0  0  2  0  0  0  0  0  0  0  0  0
   17.1006  -25.3995   -4.8869 N   0  0  0  0  0  0  0  0  0  0  0  0
   15.9341  -24.2958   -3.0683 C   0  0  0  0  0  0  0  0  0  0  0  0
   16.8779  -23.5158   -2.7627 O   0  0  0  0  0  0  0  0  0  0  0  0
   14.6081  -23.9218   -2.6675 N   0  0  0  0  0  0  0  0  0  0  0  0
   14.3283  -22.7129   -1.9442 C   0  0  1  0  0  0  0  0  0  0  0  0
   12.9404  -22.1560   -2.1793 C   0  0  0  0  0  0  0  0  0  0  0  0
   12.7981  -21.4182   -3.4472 C   0  0  0  0  0  0  0  0  0  0  0  0
   13.5777  -21.5772   -4.5725 C   0  0  0  0  0  0  0  0  0  0  0  0
   13.0979  -20.7469   -5.5108 N   0  0  0  0  0  0  0  0  0  0  0  0
   12.0416  -20.0623   -5.0283 C   0  0  0  0  0  0  0  0  0  0  0  0
   11.1950  -19.1047   -5.5326 C   0  0  0  0  0  0  0  0  0  0  0  0
   10.1724  -18.5442   -4.8143 C   0  0  0  0  0  0  0  0  0  0  0  0
    9.9817  -18.9543   -3.5330 C   0  0  0  0  0  0  0  0  0  0  0  0
   10.8042  -19.9122   -2.9825 C   0  0  0  0  0  0  0  0  0  0  0  0
   11.8412  -20.4778   -3.7208 C   0  0  0  0  0  0  0  0  0  0  0  0
   14.4263  -22.9700   -0.4895 C   0  0  0  0  0  0  0  0  0  0  0  0
   14.2995  -24.1540   -0.0916 O   0  0  0  0  0  0  0  0  0  0  0  0
   14.6512  -21.9719    0.4644 N   0  0  0  0  0  0  0  0  0  0  0  0
   14.8356  -22.2180    1.9014 C   0  0  1  0  0  0  0  0  0  0  0  0
   16.2728  -22.1753    2.2724 C   0  0  0  0  0  0  0  0  0  0  0  0
   16.4805  -22.5464    3.6825 C   0  0  0  0  0  0  0  0  0  0  0  0
   15.5660  -22.9455    4.4444 O   0  0  0  0  0  0  0  0  0  0  0  0
   14.0863  -21.1029    2.5854 C   0  0  0  0  0  0  0  0  0  0  0  0
   13.7456  -21.1988    3.9527 O   0  0  0  0  0  0  0  0  0  0  0  0
   17.7611  -22.4694    4.2649 O   0  0  0  0  0  0  0  0  0  0  0  0
   13.7424  -20.0715    1.9873 O   0  0  0  0  0  0  0  0  0  0  0  0
  2  3  1  1
  2  1  1  0
  4  2  1  0
  5  4  1  0
  5  6  1  6
  7  5  1  0
  7  8  2  0
  9  7  1  0
 10  9  1  0
 10 11  1  1
 12 11  1  0
 13 12  2  0
 14 13  1  0
 15 14  1  0
 15 20  2  0
 16 15  1  0
 17 16  2  0
 17 18  1  0
 18 19  2  0
 19 20  1  0
 20 12  1  0
 21 10  1  0
 21 23  1  0
 22 21  2  0
 24 23  1  0
 24 28  1  0
 25 26  1  0
 24 25  1  6
 26 30  1  0
 27 26  2  0
 28 31  2  0
 28 29  1  0
M  END
$$$$
