LWD.pdb
     RDKit          3D

 31 32  0  0  1  0  0  0  0  0999 V2000
   26.7025  -20.2712  -19.7820 C   0  0  0  0  0  0  0  0  0  0  0  0
   26.6844  -21.5009  -18.9202 C   0  0  2  0  0  0  0  0  0  0  0  0
   26.3951  -22.6781  -19.8619 C   0  0  0  0  0  0  0  0  0  0  0  0
   25.6177  -21.5136  -17.8842 C   0  0  0  0  0  0  0  0  0  0  0  0
   25.7384  -20.4344  -16.8376 C   0  0  2  0  0  0  0  0  0  0  0  0
   27.0541  -19.8862  -16.7432 N   0  0  0  0  0  0  0  0  0  0  0  0
   25.2237  -20.8969  -15.5127 C   0  0  0  0  0  0  0  0  0  0  0  0
   24.1899  -21.6130  -15.4075 O   0  0  0  0  0  0  0  0  0  0  0  0
   25.9043  -20.5327  -14.3032 N   0  0  0  0  0  0  0  0  0  0  0  0
   25.3892  -20.8444  -12.9991 C   0  0  1  0  0  0  0  0  0  0  0  0
   26.4309  -20.8305  -11.9008 C   0  0  0  0  0  0  0  0  0  0  0  0
   25.8772  -21.0186  -10.5480 C   0  0  0  0  0  0  0  0  0  0  0  0
   24.9197  -21.9400  -10.1821 C   0  0  0  0  0  0  0  0  0  0  0  0
   24.7231  -21.8079   -8.8615 N   0  0  0  0  0  0  0  0  0  0  0  0
   25.5178  -20.8367   -8.3689 C   0  0  0  0  0  0  0  0  0  0  0  0
   25.7218  -20.2892   -7.1253 C   0  0  0  0  0  0  0  0  0  0  0  0
   26.6080  -19.2738   -6.8812 C   0  0  0  0  0  0  0  0  0  0  0  0
   27.3259  -18.7779   -7.9229 C   0  0  0  0  0  0  0  0  0  0  0  0
   27.1570  -19.2940   -9.1888 C   0  0  0  0  0  0  0  0  0  0  0  0
   26.2541  -20.3276   -9.4276 C   0  0  0  0  0  0  0  0  0  0  0  0
   24.3723  -19.8400  -12.6131 C   0  0  0  0  0  0  0  0  0  0  0  0
   24.5128  -18.6673  -13.0388 O   0  0  0  0  0  0  0  0  0  0  0  0
   23.2671  -20.1222  -11.8034 N   0  0  0  0  0  0  0  0  0  0  0  0
   21.8980  -19.6598  -12.0704 C   0  0  1  0  0  0  0  0  0  0  0  0
   21.4432  -20.0820  -13.4194 C   0  0  0  0  0  0  0  0  0  0  0  0
   21.0417  -18.9286  -14.2425 C   0  0  0  0  0  0  0  0  0  0  0  0
   21.7038  -17.8654  -14.3299 O   0  0  0  0  0  0  0  0  0  0  0  0
   21.0533  -20.3132  -11.0062 C   0  0  0  0  0  0  0  0  0  0  0  0
   20.2910  -19.5296  -10.1119 O   0  0  0  0  0  0  0  0  0  0  0  0
   19.8535  -18.9639  -14.9988 O   0  0  0  0  0  0  0  0  0  0  0  0
   20.9928  -21.5453  -10.8723 O   0  0  0  0  0  0  0  0  0  0  0  0
  2  3  1  6
  2  1  1  0
  4  2  1  0
  5  4  1  0
  5  6  1  1
  7  5  1  0
  7  8  2  0
  9  7  1  0
 10  9  1  0
 10 11  1  1
 12 11  1  0
 13 12  2  0
 14 13  1  0
 15 14  1  0
 15 20  2  0
 16 15  1  0
 17 16  2  0
 17 18  1  0
 18 19  2  0
 19 20  1  0
 20 12  1  0
 21 10  1  0
 21 23  1  0
 22 21  2  0
 24 23  1  0
 24 28  1  0
 25 26  1  0
 24 25  1  6
 26 30  1  0
 27 26  2  0
 28 31  2  0
 28 29  1  0
M  END
$$$$
