LWD.pdb
     RDKit          3D

 31 32  0  0  1  0  0  0  0  0999 V2000
   28.2237  -22.1191  -17.9554 C   0  0  0  0  0  0  0  0  0  0  0  0
   26.9727  -22.8444  -18.3608 C   0  0  2  0  0  0  0  0  0  0  0  0
   26.4024  -22.0746  -19.5601 C   0  0  0  0  0  0  0  0  0  0  0  0
   25.9071  -22.8654  -17.3238 C   0  0  0  0  0  0  0  0  0  0  0  0
   26.3148  -23.4821  -16.0093 C   0  0  2  0  0  0  0  0  0  0  0  0
   26.7530  -24.8359  -16.1342 N   0  0  0  0  0  0  0  0  0  0  0  0
   25.2443  -23.3286  -14.9774 C   0  0  0  0  0  0  0  0  0  0  0  0
   24.3548  -24.2057  -14.7981 O   0  0  0  0  0  0  0  0  0  0  0  0
   25.1993  -22.1587  -14.1478 N   0  0  0  0  0  0  0  0  0  0  0  0
   24.1596  -21.9311  -13.1834 C   0  0  1  0  0  0  0  0  0  0  0  0
   24.5108  -20.9116  -12.1211 C   0  0  0  0  0  0  0  0  0  0  0  0
   23.4684  -20.7329  -11.0946 C   0  0  0  0  0  0  0  0  0  0  0  0
   23.4092  -21.3736   -9.8757 C   0  0  0  0  0  0  0  0  0  0  0  0
   22.3301  -20.9048   -9.2308 N   0  0  0  0  0  0  0  0  0  0  0  0
   21.6965  -19.9893   -9.9909 C   0  0  0  0  0  0  0  0  0  0  0  0
   20.5708  -19.2160   -9.8400 C   0  0  0  0  0  0  0  0  0  0  0  0
   20.1190  -18.3425  -10.7933 C   0  0  0  0  0  0  0  0  0  0  0  0
   20.8190  -18.2320  -11.9527 C   0  0  0  0  0  0  0  0  0  0  0  0
   21.9545  -18.9861  -12.1510 C   0  0  0  0  0  0  0  0  0  0  0  0
   22.4074  -19.8713  -11.1754 C   0  0  0  0  0  0  0  0  0  0  0  0
   22.9526  -21.4129  -13.8665 C   0  0  0  0  0  0  0  0  0  0  0  0
   23.0830  -20.4105  -14.6112 O   0  0  0  0  0  0  0  0  0  0  0  0
   21.6788  -21.9745  -13.7300 N   0  0  0  0  0  0  0  0  0  0  0  0
   20.4538  -21.4162  -14.3190 C   0  0  1  0  0  0  0  0  0  0  0  0
   20.0791  -22.1382  -15.5614 C   0  0  0  0  0  0  0  0  0  0  0  0
   20.3204  -23.5860  -15.4414 C   0  0  0  0  0  0  0  0  0  0  0  0
   20.1070  -24.4112  -16.3632 O   0  0  0  0  0  0  0  0  0  0  0  0
   19.3938  -21.6074  -13.2641 C   0  0  0  0  0  0  0  0  0  0  0  0
   19.6955  -22.2703  -12.0539 O   0  0  0  0  0  0  0  0  0  0  0  0
   20.8208  -24.1346  -14.2439 O   0  0  0  0  0  0  0  0  0  0  0  0
   18.2316  -21.1984  -13.4111 O   0  0  0  0  0  0  0  0  0  0  0  0
  2  3  1  6
  2  1  1  0
  4  2  1  0
  5  4  1  0
  5  6  1  6
  7  5  1  0
  7  8  2  0
  9  7  1  0
 10  9  1  0
 10 11  1  1
 12 11  1  0
 13 12  2  0
 14 13  1  0
 15 14  1  0
 15 20  2  0
 16 15  1  0
 17 16  2  0
 17 18  1  0
 18 19  2  0
 19 20  1  0
 20 12  1  0
 21 10  1  0
 21 23  1  0
 22 21  2  0
 24 23  1  0
 24 28  1  0
 25 26  1  0
 24 25  1  6
 26 30  1  0
 27 26  2  0
 28 31  2  0
 28 29  1  0
M  END
$$$$
