LWD.pdb
     RDKit          3D

 31 32  0  0  1  0  0  0  0  0999 V2000
   28.9138  -22.4000  -18.4983 C   0  0  0  0  0  0  0  0  0  0  0  0
   28.7996  -23.1899  -17.2261 C   0  0  2  0  0  0  0  0  0  0  0  0
   28.8953  -24.6674  -17.6309 C   0  0  0  0  0  0  0  0  0  0  0  0
   27.5051  -23.0279  -16.5125 C   0  0  0  0  0  0  0  0  0  0  0  0
   27.2854  -21.6672  -15.9002 C   0  0  2  0  0  0  0  0  0  0  0  0
   28.4583  -20.8520  -15.9041 N   0  0  0  0  0  0  0  0  0  0  0  0
   26.6753  -21.7713  -14.5396 C   0  0  0  0  0  0  0  0  0  0  0  0
   25.6600  -22.4857  -14.3126 O   0  0  0  0  0  0  0  0  0  0  0  0
   27.2386  -21.0490  -13.4352 N   0  0  0  0  0  0  0  0  0  0  0  0
   26.6553  -21.0599  -12.1227 C   0  0  1  0  0  0  0  0  0  0  0  0
   27.5666  -20.5343  -11.0343 C   0  0  0  0  0  0  0  0  0  0  0  0
   26.9467  -20.5030   -9.6975 C   0  0  0  0  0  0  0  0  0  0  0  0
   25.6314  -20.7917   -9.4042 C   0  0  0  0  0  0  0  0  0  0  0  0
   25.4854  -20.6807   -8.0751 N   0  0  0  0  0  0  0  0  0  0  0  0
   26.6571  -20.3312   -7.5072 C   0  0  0  0  0  0  0  0  0  0  0  0
   27.0746  -20.0804   -6.2225 C   0  0  0  0  0  0  0  0  0  0  0  0
   28.3567  -19.7230   -5.8992 C   0  0  0  0  0  0  0  0  0  0  0  0
   29.2681  -19.6090   -6.9006 C   0  0  0  0  0  0  0  0  0  0  0  0
   28.8978  -19.8505   -8.2052 C   0  0  0  0  0  0  0  0  0  0  0  0
   27.5917  -20.2146   -8.5247 C   0  0  0  0  0  0  0  0  0  0  0  0
   25.4540  -20.1947  -12.1054 C   0  0  0  0  0  0  0  0  0  0  0  0
   25.5648  -19.0256  -12.5492 O   0  0  0  0  0  0  0  0  0  0  0  0
   24.2061  -20.6044  -11.6241 N   0  0  0  0  0  0  0  0  0  0  0  0
   22.9160  -20.1924  -12.1945 C   0  0  1  0  0  0  0  0  0  0  0  0
   22.8411  -20.5186  -13.6413 C   0  0  0  0  0  0  0  0  0  0  0  0
   22.4686  -19.3416  -14.4444 C   0  0  0  0  0  0  0  0  0  0  0  0
   22.1742  -18.2235  -13.9549 O   0  0  0  0  0  0  0  0  0  0  0  0
   21.8836  -20.9791  -11.4276 C   0  0  0  0  0  0  0  0  0  0  0  0
   22.0921  -22.3451  -11.1352 O   0  0  0  0  0  0  0  0  0  0  0  0
   22.4235  -19.4159  -15.8506 O   0  0  0  0  0  0  0  0  0  0  0  0
   20.8251  -20.4697  -11.0279 O   0  0  0  0  0  0  0  0  0  0  0  0
  2  3  1  6
  2  1  1  0
  4  2  1  0
  5  4  1  0
  5  6  1  1
  7  5  1  0
  7  8  2  0
  9  7  1  0
 10  9  1  0
 10 11  1  1
 12 11  1  0
 13 12  2  0
 14 13  1  0
 15 14  1  0
 15 20  2  0
 16 15  1  0
 17 16  2  0
 17 18  1  0
 18 19  2  0
 19 20  1  0
 20 12  1  0
 21 10  1  0
 21 23  1  0
 22 21  2  0
 24 23  1  0
 24 28  1  0
 25 26  1  0
 24 25  1  6
 26 30  1  0
 27 26  2  0
 28 31  2  0
 28 29  1  0
M  END
$$$$
