LWD.pdb
     RDKit          3D

 31 32  0  0  1  0  0  0  0  0999 V2000
   14.8658  -21.5985    2.7389 C   0  0  0  0  0  0  0  0  0  0  0  0
   15.1287  -20.1717    2.3509 C   0  0  2  0  0  0  0  0  0  0  0  0
   15.4514  -20.1898    0.8503 C   0  0  0  0  0  0  0  0  0  0  0  0
   16.2980  -19.5524    3.0295 C   0  0  0  0  0  0  0  0  0  0  0  0
   16.2382  -19.5699    4.5364 C   0  0  2  0  0  0  0  0  0  0  0  0
   15.0333  -19.0080    5.0587 N   0  0  0  0  0  0  0  0  0  0  0  0
   17.4574  -18.9502    5.1397 C   0  0  0  0  0  0  0  0  0  0  0  0
   18.6210  -19.2359    4.7436 O   0  0  0  0  0  0  0  0  0  0  0  0
   17.3345  -17.9961    6.2043 N   0  0  0  0  0  0  0  0  0  0  0  0
   18.4720  -17.3894    6.8373 C   0  0  1  0  0  0  0  0  0  0  0  0
   18.2933  -15.9211    7.1593 C   0  0  0  0  0  0  0  0  0  0  0  0
   18.2877  -15.0446    5.9745 C   0  0  0  0  0  0  0  0  0  0  0  0
   17.5026  -15.1991    4.8524 C   0  0  0  0  0  0  0  0  0  0  0  0
   17.7765  -14.1750    4.0298 N   0  0  0  0  0  0  0  0  0  0  0  0
   18.7074  -13.3718    4.5828 C   0  0  0  0  0  0  0  0  0  0  0  0
   19.3464  -12.2190    4.1951 C   0  0  0  0  0  0  0  0  0  0  0  0
   20.2889  -11.5824    4.9583 C   0  0  0  0  0  0  0  0  0  0  0  0
   20.6125  -12.1171    6.1649 C   0  0  0  0  0  0  0  0  0  0  0  0
   19.9990  -13.2718    6.5980 C   0  0  0  0  0  0  0  0  0  0  0  0
   19.0406  -13.9120    5.8155 C   0  0  0  0  0  0  0  0  0  0  0  0
   18.7407  -18.0629    8.1282 C   0  0  0  0  0  0  0  0  0  0  0  0
   17.7592  -18.4911    8.7836 O   0  0  0  0  0  0  0  0  0  0  0  0
   20.0219  -18.2487    8.6578 N   0  0  0  0  0  0  0  0  0  0  0  0
   20.3057  -18.8927    9.9479 C   0  0  1  0  0  0  0  0  0  0  0  0
   21.4827  -19.7927    9.8502 C   0  0  0  0  0  0  0  0  0  0  0  0
   21.1221  -21.0966    9.2682 C   0  0  0  0  0  0  0  0  0  0  0  0
   19.9440  -21.4505    9.0170 O   0  0  0  0  0  0  0  0  0  0  0  0
   20.5951  -17.7553   10.8941 C   0  0  0  0  0  0  0  0  0  0  0  0
   20.2010  -17.8290   12.2485 O   0  0  0  0  0  0  0  0  0  0  0  0
   22.1171  -22.0432    8.9533 O   0  0  0  0  0  0  0  0  0  0  0  0
   21.1810  -16.7237   10.5303 O   0  0  0  0  0  0  0  0  0  0  0  0
  2  3  1  6
  2  1  1  0
  4  2  1  0
  5  4  1  0
  5  6  1  6
  7  5  1  0
  7  8  2  0
  9  7  1  0
 10  9  1  0
 10 11  1  1
 12 11  1  0
 13 12  2  0
 14 13  1  0
 15 14  1  0
 15 20  2  0
 16 15  1  0
 17 16  2  0
 17 18  1  0
 18 19  2  0
 19 20  1  0
 20 12  1  0
 21 10  1  0
 21 23  1  0
 22 21  2  0
 24 23  1  0
 24 28  1  0
 25 26  1  0
 24 25  1  6
 26 30  1  0
 27 26  2  0
 28 31  2  0
 28 29  1  0
M  END
$$$$
