SIF.pdb
     RDKit          3D

 26 26  0  0  1  0  0  0  0  0999 V2000
   17.3419  -19.4084  -12.7307 O   0  0  0  0  0  0  0  0  0  0  0  0
   16.5581  -19.9439  -13.7615 C   0  0  0  0  0  0  0  0  0  0  0  0
   15.9653  -18.7488  -14.4824 C   0  0  2  0  0  0  0  0  0  0  0  0
   17.0552  -17.9072  -14.8779 N   0  0  0  0  0  0  0  0  0  0  0  0
   15.0805  -18.0180  -13.5236 C   0  0  0  0  0  0  0  0  0  0  0  0
   15.4963  -16.9800  -12.9588 O   0  0  0  0  0  0  0  0  0  0  0  0
    9.6861  -15.7997  -13.2914 C   0  0  0  0  0  0  0  0  0  0  0  0
   10.7082  -16.3898  -12.2979 C   0  0  0  0  0  0  0  0  0  0  0  0
   11.6789  -17.1472  -13.1404 C   0  0  2  0  0  0  0  0  0  0  0  0
   10.8944  -18.1828  -13.9593 C   0  0  0  0  0  0  0  0  0  0  0  0
   12.8150  -17.7991  -12.4147 C   0  0  2  0  0  0  0  0  0  0  0  0
   13.7642  -18.4781  -13.2318 N   0  0  0  0  0  0  0  0  0  0  0  0
   12.4278  -18.4342  -11.1484 C   0  0  0  0  0  0  0  0  0  0  0  0
   12.1734  -19.7026  -11.1251 O   0  0  0  0  0  0  0  0  0  0  0  0
   12.2844  -17.8019   -9.8846 N   0  0  0  0  0  0  0  0  0  0  0  0
   11.8888  -18.5819   -8.7111 C   0  0  1  0  0  0  0  0  0  0  0  0
   12.6636  -18.3326   -7.4808 C   0  0  0  0  0  0  0  0  0  0  0  0
   12.2315  -19.0963   -6.2944 C   0  0  0  0  0  0  0  0  0  0  0  0
   12.7387  -20.3453   -5.9816 C   0  0  0  0  0  0  0  0  0  0  0  0
   12.3116  -21.0000   -4.8502 C   0  0  0  0  0  0  0  0  0  0  0  0
   11.3932  -20.4569   -4.0112 C   0  0  0  0  0  0  0  0  0  0  0  0
   10.8792  -19.2192   -4.3049 C   0  0  0  0  0  0  0  0  0  0  0  0
   11.3052  -18.5680   -5.4328 C   0  0  0  0  0  0  0  0  0  0  0  0
   10.4419  -18.2946   -8.4342 C   0  0  0  0  0  0  0  0  0  0  0  0
    9.6642  -19.2953   -7.8808 O   0  0  0  0  0  0  0  0  0  0  0  0
    9.9000  -17.1919   -8.6791 O   0  0  0  0  0  0  0  0  0  0  0  0
  2  3  1  0
  2  1  1  0
  3  4  1  1
  5  3  1  0
  5  6  2  0
  8  9  1  0
  8  7  1  0
  9 11  1  0
  9 10  1  1
 11 13  1  0
 11 12  1  6
 12  5  1  0
 13 15  1  0
 14 13  2  0
 15 16  1  0
 16 24  1  0
 16 17  1  1
 18 17  1  0
 19 18  2  0
 20 19  1  0
 21 22  1  0
 21 20  2  0
 22 23  2  0
 23 18  1  0
 24 26  2  0
 24 25  1  0
M  END
$$$$
