SIF.pdb
     RDKit          3D

 26 26  0  0  1  0  0  0  0  0999 V2000
   15.3125  -11.6778  -14.2748 O   0  0  0  0  0  0  0  0  0  0  0  0
   16.3221  -10.7156  -14.4099 C   0  0  0  0  0  0  0  0  0  0  0  0
   17.1482  -11.1595  -15.6014 C   0  0  2  0  0  0  0  0  0  0  0  0
   17.7984  -12.3827  -15.2360 N   0  0  0  0  0  0  0  0  0  0  0  0
   18.1701  -10.1037  -15.8795 C   0  0  0  0  0  0  0  0  0  0  0  0
   19.2895  -10.1569  -15.3197 O   0  0  0  0  0  0  0  0  0  0  0  0
   16.8753   -7.6289  -20.1417 C   0  0  0  0  0  0  0  0  0  0  0  0
   18.2521   -8.0858  -19.6164 C   0  0  0  0  0  0  0  0  0  0  0  0
   18.4989   -7.2599  -18.3988 C   0  0  2  0  0  0  0  0  0  0  0  0
   19.6044   -6.2453  -18.7257 C   0  0  0  0  0  0  0  0  0  0  0  0
   18.8265   -8.0120  -17.1460 C   0  0  2  0  0  0  0  0  0  0  0  0
   17.8993   -9.0271  -16.7722 N   0  0  0  0  0  0  0  0  0  0  0  0
   19.3884   -7.1753  -16.0779 C   0  0  0  0  0  0  0  0  0  0  0  0
   18.6001   -6.4297  -15.3732 O   0  0  0  0  0  0  0  0  0  0  0  0
   20.7549   -7.0707  -15.7046 N   0  0  0  0  0  0  0  0  0  0  0  0
   21.1510   -6.2043  -14.5935 C   0  0  1  0  0  0  0  0  0  0  0  0
   22.0762   -6.7994  -13.6107 C   0  0  0  0  0  0  0  0  0  0  0  0
   23.0740   -7.7344  -14.1654 C   0  0  0  0  0  0  0  0  0  0  0  0
   24.0768   -7.3335  -15.0308 C   0  0  0  0  0  0  0  0  0  0  0  0
   24.9907   -8.2482  -15.4989 C   0  0  0  0  0  0  0  0  0  0  0  0
   24.9464   -9.5556  -15.1371 C   0  0  0  0  0  0  0  0  0  0  0  0
   23.9594   -9.9715  -14.2797 C   0  0  0  0  0  0  0  0  0  0  0  0
   23.0489   -9.0593  -13.8143 C   0  0  0  0  0  0  0  0  0  0  0  0
   21.7903   -4.9763  -15.1731 C   0  0  0  0  0  0  0  0  0  0  0  0
   22.0502   -4.9455  -16.5311 O   0  0  0  0  0  0  0  0  0  0  0  0
   22.1021   -3.9743  -14.4887 O   0  0  0  0  0  0  0  0  0  0  0  0
  2  3  1  0
  2  1  1  0
  3  4  1  1
  5  3  1  0
  5  6  2  0
  8  9  1  0
  8  7  1  0
  9 11  1  0
  9 10  1  6
 11 13  1  0
 11 12  1  1
 12  5  1  0
 13 15  1  0
 14 13  2  0
 15 16  1  0
 16 24  1  0
 16 17  1  1
 18 17  1  0
 19 18  2  0
 20 19  1  0
 21 22  1  0
 21 20  2  0
 22 23  2  0
 23 18  1  0
 24 26  2  0
 24 25  1  0
M  END
$$$$
