SIF.pdb
     RDKit          3D

 26 26  0  0  1  0  0  0  0  0999 V2000
   22.1015  -20.7007   -9.8772 O   0  0  0  0  0  0  0  0  0  0  0  0
   22.9685  -21.8006   -9.8318 C   0  0  0  0  0  0  0  0  0  0  0  0
   24.2975  -21.2496   -9.3529 C   0  0  2  0  0  0  0  0  0  0  0  0
   24.0291  -20.4208   -8.2155 N   0  0  0  0  0  0  0  0  0  0  0  0
   24.8851  -20.4265  -10.4546 C   0  0  0  0  0  0  0  0  0  0  0  0
   24.7521  -19.1810  -10.4410 O   0  0  0  0  0  0  0  0  0  0  0  0
   29.8117  -21.3388  -12.5706 C   0  0  0  0  0  0  0  0  0  0  0  0
   28.5226  -20.7880  -11.9263 C   0  0  0  0  0  0  0  0  0  0  0  0
   27.5333  -20.7076  -13.0400 C   0  0  2  0  0  0  0  0  0  0  0  0
   28.0794  -19.7343  -14.0949 C   0  0  0  0  0  0  0  0  0  0  0  0
   26.1341  -20.3380  -12.6550 C   0  0  2  0  0  0  0  0  0  0  0  0
   25.5976  -21.0294  -11.5308 N   0  0  0  0  0  0  0  0  0  0  0  0
   25.2436  -20.1019  -13.7986 C   0  0  0  0  0  0  0  0  0  0  0  0
   24.5436  -21.0816  -14.2722 O   0  0  0  0  0  0  0  0  0  0  0  0
   25.0467  -18.8762  -14.4889 N   0  0  0  0  0  0  0  0  0  0  0  0
   23.8929  -18.7055  -15.3730 C   0  0  1  0  0  0  0  0  0  0  0  0
   22.7979  -17.8675  -14.8486 C   0  0  0  0  0  0  0  0  0  0  0  0
   21.6399  -17.7026  -15.7482 C   0  0  0  0  0  0  0  0  0  0  0  0
   20.5541  -18.5606  -15.7370 C   0  0  0  0  0  0  0  0  0  0  0  0
   19.4942  -18.3435  -16.5858 C   0  0  0  0  0  0  0  0  0  0  0  0
   19.4716  -17.2985  -17.4517 C   0  0  0  0  0  0  0  0  0  0  0  0
   20.5391  -16.4371  -17.4770 C   0  0  0  0  0  0  0  0  0  0  0  0
   21.5949  -16.6547  -16.6310 C   0  0  0  0  0  0  0  0  0  0  0  0
   24.3831  -18.1062  -16.6587 C   0  0  0  0  0  0  0  0  0  0  0  0
   23.7024  -18.4002  -17.8261 O   0  0  0  0  0  0  0  0  0  0  0  0
   25.3802  -17.3509  -16.7299 O   0  0  0  0  0  0  0  0  0  0  0  0
  2  3  1  0
  2  1  1  0
  3  4  1  1
  5  3  1  0
  5  6  2  0
  8  9  1  0
  8  7  1  0
  9 11  1  0
  9 10  1  6
 11 13  1  0
 11 12  1  6
 12  5  1  0
 13 15  1  0
 14 13  2  0
 15 16  1  0
 16 24  1  0
 16 17  1  1
 18 17  1  0
 19 18  2  0
 20 19  1  0
 21 22  1  0
 21 20  2  0
 22 23  2  0
 23 18  1  0
 24 26  2  0
 24 25  1  0
M  END
$$$$
