SIF.pdb
     RDKit          3D

 26 26  0  0  1  0  0  0  0  0999 V2000
   26.4583  -22.6851   12.7731 O   0  0  0  0  0  0  0  0  0  0  0  0
   26.7605  -21.6070   13.6157 C   0  0  0  0  0  0  0  0  0  0  0  0
   26.8452  -20.3950   12.7085 C   0  0  2  0  0  0  0  0  0  0  0  0
   25.7716  -20.4941   11.7651 N   0  0  0  0  0  0  0  0  0  0  0  0
   28.1572  -20.4397   11.9923 C   0  0  0  0  0  0  0  0  0  0  0  0
   28.2149  -20.8893   10.8245 O   0  0  0  0  0  0  0  0  0  0  0  0
   32.1918  -16.6762   13.3314 C   0  0  0  0  0  0  0  0  0  0  0  0
   31.0066  -17.5131   12.8071 C   0  0  0  0  0  0  0  0  0  0  0  0
   31.5684  -18.8726   12.5590 C   0  0  2  0  0  0  0  0  0  0  0  0
   32.8143  -18.7206   11.6740 C   0  0  0  0  0  0  0  0  0  0  0  0
   30.6263  -19.8800   11.9756 C   0  0  2  0  0  0  0  0  0  0  0  0
   29.3554  -19.9810   12.6115 N   0  0  0  0  0  0  0  0  0  0  0  0
   31.2756  -21.1260   11.5480 C   0  0  0  0  0  0  0  0  0  0  0  0
   31.1589  -22.1869   12.2793 O   0  0  0  0  0  0  0  0  0  0  0  0
   32.0584  -21.3236   10.3794 N   0  0  0  0  0  0  0  0  0  0  0  0
   32.6053  -22.6463   10.0739 C   0  0  1  0  0  0  0  0  0  0  0  0
   31.9930  -23.3480    8.9298 C   0  0  0  0  0  0  0  0  0  0  0  0
   31.9329  -22.5775    7.6727 C   0  0  0  0  0  0  0  0  0  0  0  0
   30.8709  -21.7508    7.3506 C   0  0  0  0  0  0  0  0  0  0  0  0
   30.8811  -21.0416    6.1725 C   0  0  0  0  0  0  0  0  0  0  0  0
   31.9140  -21.1227    5.2958 C   0  0  0  0  0  0  0  0  0  0  0  0
   32.9759  -21.9371    5.5981 C   0  0  0  0  0  0  0  0  0  0  0  0
   32.9644  -22.6437    6.7722 C   0  0  0  0  0  0  0  0  0  0  0  0
   34.0742  -22.4870    9.8097 C   0  0  0  0  0  0  0  0  0  0  0  0
   34.5962  -21.2088    9.7317 O   0  0  0  0  0  0  0  0  0  0  0  0
   34.8547  -23.4548    9.6556 O   0  0  0  0  0  0  0  0  0  0  0  0
  2  3  1  0
  2  1  1  0
  3  4  1  6
  5  3  1  0
  5  6  2  0
  8  9  1  0
  8  7  1  0
  9 11  1  0
  9 10  1  6
 11 13  1  0
 11 12  1  1
 12  5  1  0
 13 15  1  0
 14 13  2  0
 15 16  1  0
 16 24  1  0
 16 17  1  6
 18 17  1  0
 19 18  2  0
 20 19  1  0
 21 22  1  0
 21 20  2  0
 22 23  2  0
 23 18  1  0
 24 26  2  0
 24 25  1  0
M  END
$$$$
