SIF.pdb
     RDKit          3D

 26 26  0  0  1  0  0  0  0  0999 V2000
   20.7414  -20.4115  -12.0370 O   0  0  0  0  0  0  0  0  0  0  0  0
   21.4836  -19.7148  -13.0000 C   0  0  0  0  0  0  0  0  0  0  0  0
   22.2098  -20.7789  -13.7997 C   0  0  2  0  0  0  0  0  0  0  0  0
   21.2825  -21.8471  -14.0266 N   0  0  0  0  0  0  0  0  0  0  0  0
   23.3620  -21.2705  -12.9830 C   0  0  0  0  0  0  0  0  0  0  0  0
   23.2747  -22.3629  -12.3762 O   0  0  0  0  0  0  0  0  0  0  0  0
   29.4078  -21.0571  -12.9518 C   0  0  0  0  0  0  0  0  0  0  0  0
   28.1728  -21.4332  -12.1070 C   0  0  0  0  0  0  0  0  0  0  0  0
   27.0323  -20.7083  -12.7389 C   0  0  2  0  0  0  0  0  0  0  0  0
   27.4031  -19.2207  -12.8296 C   0  0  0  0  0  0  0  0  0  0  0  0
   25.6965  -20.8803  -12.0842 C   0  0  2  0  0  0  0  0  0  0  0  0
   24.5677  -20.5195  -12.8751 N   0  0  0  0  0  0  0  0  0  0  0  0
   25.6777  -20.5138  -10.6622 C   0  0  0  0  0  0  0  0  0  0  0  0
   25.1711  -19.3781  -10.3051 O   0  0  0  0  0  0  0  0  0  0  0  0
   26.1741  -21.2822   -9.5756 N   0  0  0  0  0  0  0  0  0  0  0  0
   26.3848  -20.6592   -8.2681 C   0  0  1  0  0  0  0  0  0  0  0  0
   27.0615  -21.4947   -7.2581 C   0  0  0  0  0  0  0  0  0  0  0  0
   27.6220  -20.7647   -6.1047 C   0  0  0  0  0  0  0  0  0  0  0  0
   27.0036  -20.7304   -4.8671 C   0  0  0  0  0  0  0  0  0  0  0  0
   27.5853  -20.0495   -3.8236 C   0  0  0  0  0  0  0  0  0  0  0  0
   28.7670  -19.3967   -3.9635 C   0  0  0  0  0  0  0  0  0  0  0  0
   29.3950  -19.4197   -5.1831 C   0  0  0  0  0  0  0  0  0  0  0  0
   28.8142  -20.0982   -6.2224 C   0  0  0  0  0  0  0  0  0  0  0  0
   27.1914  -19.4110   -8.4779 C   0  0  0  0  0  0  0  0  0  0  0  0
   26.7823  -18.2475   -7.8522 O   0  0  0  0  0  0  0  0  0  0  0  0
   28.2194  -19.3679   -9.1926 O   0  0  0  0  0  0  0  0  0  0  0  0
  2  3  1  0
  2  1  1  0
  3  4  1  1
  5  3  1  0
  5  6  2  0
  8  9  1  0
  8  7  1  0
  9 11  1  0
  9 10  1  1
 11 13  1  0
 11 12  1  6
 12  5  1  0
 13 15  1  0
 14 13  2  0
 15 16  1  0
 16 24  1  0
 16 17  1  1
 18 17  1  0
 19 18  2  0
 20 19  1  0
 21 22  1  0
 21 20  2  0
 22 23  2  0
 23 18  1  0
 24 26  2  0
 24 25  1  0
M  END
$$$$
