SIF.pdb
     RDKit          3D

 26 26  0  0  1  0  0  0  0  0999 V2000
   28.2391  -19.3433  -16.5091 O   0  0  0  0  0  0  0  0  0  0  0  0
   27.3041  -19.6355  -15.5070 C   0  0  0  0  0  0  0  0  0  0  0  0
   27.8592  -20.8412  -14.7740 C   0  0  2  0  0  0  0  0  0  0  0  0
   28.1432  -21.8432  -15.7578 N   0  0  0  0  0  0  0  0  0  0  0  0
   26.8098  -21.3372  -13.8311 C   0  0  0  0  0  0  0  0  0  0  0  0
   26.0464  -22.2667  -14.1811 O   0  0  0  0  0  0  0  0  0  0  0  0
   27.0090  -20.4319   -8.2613 C   0  0  0  0  0  0  0  0  0  0  0  0
   26.9207  -21.1199   -9.6393 C   0  0  0  0  0  0  0  0  0  0  0  0
   25.6782  -20.5815  -10.2654 C   0  0  2  0  0  0  0  0  0  0  0  0
   24.4769  -21.0801   -9.4487 C   0  0  0  0  0  0  0  0  0  0  0  0
   25.4884  -20.8814  -11.7202 C   0  0  2  0  0  0  0  0  0  0  0  0
   26.6537  -20.7725  -12.5326 N   0  0  0  0  0  0  0  0  0  0  0  0
   24.2233  -20.3799  -12.2723 C   0  0  0  0  0  0  0  0  0  0  0  0
   24.0979  -19.1182  -12.5298 O   0  0  0  0  0  0  0  0  0  0  0  0
   23.0604  -21.1395  -12.5693 N   0  0  0  0  0  0  0  0  0  0  0  0
   22.0566  -20.6176  -13.4977 C   0  0  1  0  0  0  0  0  0  0  0  0
   22.5035  -20.4301  -14.8911 C   0  0  0  0  0  0  0  0  0  0  0  0
   21.4690  -19.9537  -15.8294 C   0  0  0  0  0  0  0  0  0  0  0  0
   20.6372  -20.8123  -16.5267 C   0  0  0  0  0  0  0  0  0  0  0  0
   19.6775  -20.3078  -17.3725 C   0  0  0  0  0  0  0  0  0  0  0  0
   19.5110  -18.9729  -17.5530 C   0  0  0  0  0  0  0  0  0  0  0  0
   20.3262  -18.1063  -16.8700 C   0  0  0  0  0  0  0  0  0  0  0  0
   21.2826  -18.6102  -16.0278 C   0  0  0  0  0  0  0  0  0  0  0  0
   20.8888  -21.5604  -13.4904 C   0  0  0  0  0  0  0  0  0  0  0  0
   21.1329  -22.9150  -13.6244 O   0  0  0  0  0  0  0  0  0  0  0  0
   19.7004  -21.1830  -13.3689 O   0  0  0  0  0  0  0  0  0  0  0  0
  2  3  1  0
  2  1  1  0
  3  4  1  6
  5  3  1  0
  5  6  2  0
  8  9  1  0
  8  7  1  0
  9 11  1  0
  9 10  1  1
 11 13  1  0
 11 12  1  6
 12  5  1  0
 13 15  1  0
 14 13  2  0
 15 16  1  0
 16 24  1  0
 16 17  1  6
 18 17  1  0
 19 18  2  0
 20 19  1  0
 21 22  1  0
 21 20  2  0
 22 23  2  0
 23 18  1  0
 24 26  2  0
 24 25  1  0
M  END
$$$$
