SIF.pdb
     RDKit          3D

 26 26  0  0  1  0  0  0  0  0999 V2000
   18.0662  -19.9243    0.8842 O   0  0  0  0  0  0  0  0  0  0  0  0
   17.9948  -19.2447    2.1075 C   0  0  0  0  0  0  0  0  0  0  0  0
   16.5858  -19.4763    2.6180 C   0  0  2  0  0  0  0  0  0  0  0  0
   15.6908  -18.8342    1.7020 N   0  0  0  0  0  0  0  0  0  0  0  0
   16.4700  -18.8453    3.9689 C   0  0  0  0  0  0  0  0  0  0  0  0
   16.1444  -17.6397    4.0678 O   0  0  0  0  0  0  0  0  0  0  0  0
   15.1057  -21.6891    8.6800 C   0  0  0  0  0  0  0  0  0  0  0  0
   15.1466  -20.7445    7.4609 C   0  0  0  0  0  0  0  0  0  0  0  0
   16.4389  -20.0088    7.5804 C   0  0  2  0  0  0  0  0  0  0  0  0
   16.4587  -19.2957    8.9404 C   0  0  0  0  0  0  0  0  0  0  0  0
   16.7565  -19.0484    6.4762 C   0  0  2  0  0  0  0  0  0  0  0  0
   16.7250  -19.5875    5.1578 N   0  0  0  0  0  0  0  0  0  0  0  0
   17.8317  -18.1020    6.8000 C   0  0  0  0  0  0  0  0  0  0  0  0
   19.0577  -18.5151    6.8198 O   0  0  0  0  0  0  0  0  0  0  0  0
   17.6904  -16.7242    7.1152 N   0  0  0  0  0  0  0  0  0  0  0  0
   18.8733  -15.9033    7.3778 C   0  0  1  0  0  0  0  0  0  0  0  0
   19.6664  -15.5191    6.1948 C   0  0  0  0  0  0  0  0  0  0  0  0
   18.9782  -14.6412    5.2288 C   0  0  0  0  0  0  0  0  0  0  0  0
   18.8567  -13.2749    5.4123 C   0  0  0  0  0  0  0  0  0  0  0  0
   18.2216  -12.5053    4.4661 C   0  0  0  0  0  0  0  0  0  0  0  0
   17.6990  -13.0452    3.3358 C   0  0  0  0  0  0  0  0  0  0  0  0
   17.8100  -14.3981    3.1364 C   0  0  0  0  0  0  0  0  0  0  0  0
   18.4427  -15.1641    4.0802 C   0  0  0  0  0  0  0  0  0  0  0  0
   18.4211  -14.6558    8.0790 C   0  0  0  0  0  0  0  0  0  0  0  0
   17.0638  -14.4409    8.2349 O   0  0  0  0  0  0  0  0  0  0  0  0
   19.2116  -13.7959    8.5321 O   0  0  0  0  0  0  0  0  0  0  0  0
  2  3  1  0
  2  1  1  0
  3  4  1  6
  5  3  1  0
  5  6  2  0
  8  9  1  0
  8  7  1  0
  9 11  1  0
  9 10  1  1
 11 13  1  0
 11 12  1  6
 12  5  1  0
 13 15  1  0
 14 13  2  0
 15 16  1  0
 16 24  1  0
 16 17  1  6
 18 17  1  0
 19 18  2  0
 20 19  1  0
 21 22  1  0
 21 20  2  0
 22 23  2  0
 23 18  1  0
 24 26  2  0
 24 25  1  0
M  END
$$$$
