SIF.pdb
     RDKit          3D

 26 26  0  0  1  0  0  0  0  0999 V2000
   20.3812  -18.9636  -16.0615 O   0  0  0  0  0  0  0  0  0  0  0  0
   20.5411  -17.7847  -16.8018 C   0  0  0  0  0  0  0  0  0  0  0  0
   21.4703  -18.1464  -17.9442 C   0  0  2  0  0  0  0  0  0  0  0  0
   20.9360  -19.3180  -18.5721 N   0  0  0  0  0  0  0  0  0  0  0  0
   22.8186  -18.4466  -17.3710 C   0  0  0  0  0  0  0  0  0  0  0  0
   23.3246  -19.5816  -17.5295 O   0  0  0  0  0  0  0  0  0  0  0  0
   26.5596  -14.2911  -16.4074 C   0  0  0  0  0  0  0  0  0  0  0  0
   25.8035  -15.5167  -16.9608 C   0  0  0  0  0  0  0  0  0  0  0  0
   25.6305  -16.4286  -15.7928 C   0  0  2  0  0  0  0  0  0  0  0  0
   27.0240  -16.7885  -15.2570 C   0  0  0  0  0  0  0  0  0  0  0  0
   24.8224  -17.6659  -16.0350 C   0  0  2  0  0  0  0  0  0  0  0  0
   23.5484  -17.4654  -16.6404 N   0  0  0  0  0  0  0  0  0  0  0  0
   24.9165  -18.6598  -14.9580 C   0  0  0  0  0  0  0  0  0  0  0  0
   26.0817  -19.0505  -14.5535 O   0  0  0  0  0  0  0  0  0  0  0  0
   23.8386  -19.2819  -14.2734 N   0  0  0  0  0  0  0  0  0  0  0  0
   24.0977  -20.1416  -13.1177 C   0  0  1  0  0  0  0  0  0  0  0  0
   24.7316  -19.4873  -11.9574 C   0  0  0  0  0  0  0  0  0  0  0  0
   24.9388  -20.3504  -10.7785 C   0  0  0  0  0  0  0  0  0  0  0  0
   26.0392  -21.1781  -10.6399 C   0  0  0  0  0  0  0  0  0  0  0  0
   26.1878  -21.9448   -9.5081 C   0  0  0  0  0  0  0  0  0  0  0  0
   25.2783  -21.9200   -8.5009 C   0  0  0  0  0  0  0  0  0  0  0  0
   24.1809  -21.1053   -8.6204 C   0  0  0  0  0  0  0  0  0  0  0  0
   24.0336  -20.3421   -9.7490 C   0  0  0  0  0  0  0  0  0  0  0  0
   22.7888  -20.7319  -12.6806 C   0  0  0  0  0  0  0  0  0  0  0  0
   22.7955  -21.9712  -12.0670 O   0  0  0  0  0  0  0  0  0  0  0  0
   21.6868  -20.1587  -12.8433 O   0  0  0  0  0  0  0  0  0  0  0  0
  2  3  1  0
  2  1  1  0
  3  4  1  1
  5  3  1  0
  5  6  2  0
  8  9  1  0
  8  7  1  0
  9 11  1  0
  9 10  1  6
 11 13  1  0
 11 12  1  1
 12  5  1  0
 13 15  1  0
 14 13  2  0
 15 16  1  0
 16 24  1  0
 16 17  1  1
 18 17  1  0
 19 18  2  0
 20 19  1  0
 21 22  1  0
 21 20  2  0
 22 23  2  0
 23 18  1  0
 24 26  2  0
 24 25  1  0
M  END
$$$$
