SIF.pdb
     RDKit          3D

 26 26  0  0  1  0  0  0  0  0999 V2000
   26.2565  -19.7008  -16.5728 O   0  0  0  0  0  0  0  0  0  0  0  0
   27.5967  -19.6112  -16.1737 C   0  0  0  0  0  0  0  0  0  0  0  0
   27.9919  -21.0162  -15.7625 C   0  0  2  0  0  0  0  0  0  0  0  0
   27.6576  -21.8872  -16.8497 N   0  0  0  0  0  0  0  0  0  0  0  0
   27.1983  -21.3878  -14.5507 C   0  0  0  0  0  0  0  0  0  0  0  0
   26.2934  -22.2496  -14.6384 O   0  0  0  0  0  0  0  0  0  0  0  0
   29.3121  -20.8584   -9.4285 C   0  0  0  0  0  0  0  0  0  0  0  0
   28.6634  -21.4558  -10.6944 C   0  0  0  0  0  0  0  0  0  0  0  0
   27.3412  -20.7751  -10.8136 C   0  0  2  0  0  0  0  0  0  0  0  0
   26.4499  -21.2570   -9.6596 C   0  0  0  0  0  0  0  0  0  0  0  0
   26.6353  -20.9287  -12.1254 C   0  0  2  0  0  0  0  0  0  0  0  0
   27.4465  -20.7789  -13.2870 N   0  0  0  0  0  0  0  0  0  0  0  0
   25.2910  -20.3380  -12.1519 C   0  0  0  0  0  0  0  0  0  0  0  0
   25.1555  -19.0779  -12.4124 O   0  0  0  0  0  0  0  0  0  0  0  0
   24.0603  -21.0048  -11.9109 N   0  0  0  0  0  0  0  0  0  0  0  0
   22.8106  -20.4602  -12.4436 C   0  0  1  0  0  0  0  0  0  0  0  0
   22.7156  -20.3853  -13.9138 C   0  0  0  0  0  0  0  0  0  0  0  0
   21.4571  -19.8217  -14.4393 C   0  0  0  0  0  0  0  0  0  0  0  0
   21.2408  -18.4607  -14.5661 C   0  0  0  0  0  0  0  0  0  0  0  0
   20.0540  -17.9957  -15.0821 C   0  0  0  0  0  0  0  0  0  0  0  0
   19.0666  -18.8375  -15.4803 C   0  0  0  0  0  0  0  0  0  0  0  0
   19.2630  -20.1902  -15.3625 C   0  0  0  0  0  0  0  0  0  0  0  0
   20.4459  -20.6524  -14.8476 C   0  0  0  0  0  0  0  0  0  0  0  0
   21.6837  -21.3093  -11.9319 C   0  0  0  0  0  0  0  0  0  0  0  0
   20.5092  -20.6873  -11.5496 O   0  0  0  0  0  0  0  0  0  0  0  0
   21.7517  -22.5563  -11.8327 O   0  0  0  0  0  0  0  0  0  0  0  0
  2  3  1  0
  2  1  1  0
  3  4  1  6
  5  3  1  0
  5  6  2  0
  8  9  1  0
  8  7  1  0
  9 11  1  0
  9 10  1  1
 11 13  1  0
 11 12  1  6
 12  5  1  0
 13 15  1  0
 14 13  2  0
 15 16  1  0
 16 24  1  0
 16 17  1  6
 18 17  1  0
 19 18  2  0
 20 19  1  0
 21 22  1  0
 21 20  2  0
 22 23  2  0
 23 18  1  0
 24 26  2  0
 24 25  1  0
M  END
$$$$
