SIF.pdb
     RDKit          3D

 26 26  0  0  1  0  0  0  0  0999 V2000
   21.7772  -23.9469  -14.3927 O   0  0  0  0  0  0  0  0  0  0  0  0
   22.8707  -23.6407  -13.5717 C   0  0  0  0  0  0  0  0  0  0  0  0
   23.9889  -23.2459  -14.5167 C   0  0  2  0  0  0  0  0  0  0  0  0
   24.4708  -24.4472  -15.1307 N   0  0  0  0  0  0  0  0  0  0  0  0
   25.0788  -22.6141  -13.7110 C   0  0  0  0  0  0  0  0  0  0  0  0
   25.9534  -23.3324  -13.1740 O   0  0  0  0  0  0  0  0  0  0  0  0
   27.0025  -17.4904  -14.9033 C   0  0  0  0  0  0  0  0  0  0  0  0
   26.8661  -19.0072  -14.6564 C   0  0  0  0  0  0  0  0  0  0  0  0
   26.4739  -19.1355  -13.2228 C   0  0  2  0  0  0  0  0  0  0  0  0
   27.6020  -18.5453  -12.3641 C   0  0  0  0  0  0  0  0  0  0  0  0
   26.1209  -20.5138  -12.7556 C   0  0  2  0  0  0  0  0  0  0  0  0
   25.1472  -21.2021  -13.5352 N   0  0  0  0  0  0  0  0  0  0  0  0
   26.0426  -20.6465  -11.2951 C   0  0  0  0  0  0  0  0  0  0  0  0
   24.8908  -20.5699  -10.7107 O   0  0  0  0  0  0  0  0  0  0  0  0
   27.1236  -20.8530  -10.3972 N   0  0  0  0  0  0  0  0  0  0  0  0
   26.8656  -21.1013   -8.9781 C   0  0  1  0  0  0  0  0  0  0  0  0
   28.0577  -21.2916   -8.1303 C   0  0  0  0  0  0  0  0  0  0  0  0
   28.0305  -20.5901   -6.8323 C   0  0  0  0  0  0  0  0  0  0  0  0
   27.7605  -21.2345   -5.6378 C   0  0  0  0  0  0  0  0  0  0  0  0
   27.7695  -20.5305   -4.4565 C   0  0  0  0  0  0  0  0  0  0  0  0
   28.0388  -19.2008   -4.4164 C   0  0  0  0  0  0  0  0  0  0  0  0
   28.3090  -18.5449   -5.5907 C   0  0  0  0  0  0  0  0  0  0  0  0
   28.2993  -19.2474   -6.7673 C   0  0  0  0  0  0  0  0  0  0  0  0
   26.0764  -19.9416   -8.4442 C   0  0  0  0  0  0  0  0  0  0  0  0
   25.0907  -20.1895   -7.5065 O   0  0  0  0  0  0  0  0  0  0  0  0
   26.2647  -18.7567   -8.8049 O   0  0  0  0  0  0  0  0  0  0  0  0
  2  3  1  0
  2  1  1  0
  3  4  1  1
  5  3  1  0
  5  6  2  0
  8  9  1  0
  8  7  1  0
  9 11  1  0
  9 10  1  1
 11 13  1  0
 11 12  1  6
 12  5  1  0
 13 15  1  0
 14 13  2  0
 15 16  1  0
 16 24  1  0
 16 17  1  1
 18 17  1  0
 19 18  2  0
 20 19  1  0
 21 22  1  0
 21 20  2  0
 22 23  2  0
 23 18  1  0
 24 26  2  0
 24 25  1  0
M  END
$$$$
