SIF.pdb
     RDKit          3D

 26 26  0  0  1  0  0  0  0  0999 V2000
   18.3385  -23.3173   -9.2865 O   0  0  0  0  0  0  0  0  0  0  0  0
   19.1304  -23.8716   -8.2720 C   0  0  0  0  0  0  0  0  0  0  0  0
   18.8379  -25.3592   -8.2967 C   0  0  2  0  0  0  0  0  0  0  0  0
   18.3233  -25.6698   -9.5972 N   0  0  0  0  0  0  0  0  0  0  0  0
   17.8018  -25.6478   -7.2577 C   0  0  0  0  0  0  0  0  0  0  0  0
   16.5899  -25.6667   -7.5743 O   0  0  0  0  0  0  0  0  0  0  0  0
   17.4984  -27.7630   -1.4400 C   0  0  0  0  0  0  0  0  0  0  0  0
   16.7254  -27.0187   -2.5485 C   0  0  0  0  0  0  0  0  0  0  0  0
   17.7155  -26.8159   -3.6459 C   0  0  2  0  0  0  0  0  0  0  0  0
   18.9890  -26.2129   -3.0350 C   0  0  0  0  0  0  0  0  0  0  0  0
   17.2511  -25.9985   -4.8115 C   0  0  2  0  0  0  0  0  0  0  0  0
   18.1616  -25.9023   -5.9030 N   0  0  0  0  0  0  0  0  0  0  0  0
   16.5097  -24.7884   -4.4337 C   0  0  0  0  0  0  0  0  0  0  0  0
   17.1496  -23.6757   -4.2708 O   0  0  0  0  0  0  0  0  0  0  0  0
   15.1117  -24.6790   -4.2077 N   0  0  0  0  0  0  0  0  0  0  0  0
   14.5254  -23.3936   -3.8257 C   0  0  1  0  0  0  0  0  0  0  0  0
   13.6918  -22.7360   -4.8498 C   0  0  0  0  0  0  0  0  0  0  0  0
   12.6083  -23.5649   -5.4125 C   0  0  0  0  0  0  0  0  0  0  0  0
   12.7760  -24.3558   -6.5356 C   0  0  0  0  0  0  0  0  0  0  0  0
   11.7340  -25.1228   -7.0014 C   0  0  0  0  0  0  0  0  0  0  0  0
   10.5227  -25.1344   -6.3891 C   0  0  0  0  0  0  0  0  0  0  0  0
   10.3377  -24.3568   -5.2740 C   0  0  0  0  0  0  0  0  0  0  0  0
   11.3766  -23.5924   -4.8111 C   0  0  0  0  0  0  0  0  0  0  0  0
   13.6918  -23.6150   -2.5973 C   0  0  0  0  0  0  0  0  0  0  0  0
   13.1401  -22.5149   -1.9666 O   0  0  0  0  0  0  0  0  0  0  0  0
   13.4691  -24.7483   -2.1118 O   0  0  0  0  0  0  0  0  0  0  0  0
  2  3  1  0
  2  1  1  0
  3  4  1  6
  5  3  1  0
  5  6  2  0
  8  9  1  0
  8  7  1  0
  9 11  1  0
  9 10  1  1
 11 13  1  0
 11 12  1  1
 12  5  1  0
 13 15  1  0
 14 13  2  0
 15 16  1  0
 16 24  1  0
 16 17  1  6
 18 17  1  0
 19 18  2  0
 20 19  1  0
 21 22  1  0
 21 20  2  0
 22 23  2  0
 23 18  1  0
 24 26  2  0
 24 25  1  0
M  END
$$$$
