SIF.pdb
     RDKit          3D

 26 26  0  0  1  0  0  0  0  0999 V2000
   28.0024  -25.7782  -17.3594 O   0  0  0  0  0  0  0  0  0  0  0  0
   27.6597  -24.7051  -16.5261 C   0  0  0  0  0  0  0  0  0  0  0  0
   28.4076  -23.5075  -17.0791 C   0  0  2  0  0  0  0  0  0  0  0  0
   29.8064  -23.8063  -17.0001 N   0  0  0  0  0  0  0  0  0  0  0  0
   28.0912  -22.3238  -16.2218 C   0  0  0  0  0  0  0  0  0  0  0  0
   28.9968  -21.7847  -15.5447 O   0  0  0  0  0  0  0  0  0  0  0  0
   27.1051  -17.1269  -15.8893 C   0  0  0  0  0  0  0  0  0  0  0  0
   25.9703  -18.1096  -15.5336 C   0  0  0  0  0  0  0  0  0  0  0  0
   26.2937  -19.3638  -16.2739 C   0  0  2  0  0  0  0  0  0  0  0  0
   25.2569  -19.5387  -17.3933 C   0  0  0  0  0  0  0  0  0  0  0  0
   26.3955  -20.6098  -15.4494 C   0  0  2  0  0  0  0  0  0  0  0  0
   26.7724  -21.7896  -16.1534 N   0  0  0  0  0  0  0  0  0  0  0  0
   25.3525  -20.7324  -14.4228 C   0  0  0  0  0  0  0  0  0  0  0  0
   24.2728  -21.3936  -14.6893 O   0  0  0  0  0  0  0  0  0  0  0  0
   25.3763  -20.1863  -13.1118 N   0  0  0  0  0  0  0  0  0  0  0  0
   24.2482  -20.3999  -12.2041 C   0  0  1  0  0  0  0  0  0  0  0  0
   24.3793  -19.8020  -10.8618 C   0  0  0  0  0  0  0  0  0  0  0  0
   23.2028  -19.9521   -9.9839 C   0  0  0  0  0  0  0  0  0  0  0  0
   23.1541  -20.8662   -8.9460 C   0  0  0  0  0  0  0  0  0  0  0  0
   22.0367  -20.9457   -8.1484 C   0  0  0  0  0  0  0  0  0  0  0  0
   20.9580  -20.1455   -8.3437 C   0  0  0  0  0  0  0  0  0  0  0  0
   20.9881  -19.2329   -9.3678 C   0  0  0  0  0  0  0  0  0  0  0  0
   22.1019  -19.1550  -10.1623 C   0  0  0  0  0  0  0  0  0  0  0  0
   23.0183  -19.8434  -12.8599 C   0  0  0  0  0  0  0  0  0  0  0  0
   23.1216  -18.6513  -13.5533 O   0  0  0  0  0  0  0  0  0  0  0  0
   21.8990  -20.4042  -12.8118 O   0  0  0  0  0  0  0  0  0  0  0  0
  2  3  1  0
  2  1  1  0
  3  4  1  1
  5  3  1  0
  5  6  2  0
  8  9  1  0
  8  7  1  0
  9 11  1  0
  9 10  1  6
 11 13  1  0
 11 12  1  6
 12  5  1  0
 13 15  1  0
 14 13  2  0
 15 16  1  0
 16 24  1  0
 16 17  1  1
 18 17  1  0
 19 18  2  0
 20 19  1  0
 21 22  1  0
 21 20  2  0
 22 23  2  0
 23 18  1  0
 24 26  2  0
 24 25  1  0
M  END
$$$$
