SIF.pdb
     RDKit          3D

 26 26  0  0  1  0  0  0  0  0999 V2000
   21.9531  -20.3602  -17.5161 O   0  0  0  0  0  0  0  0  0  0  0  0
   22.2565  -19.4183  -18.5082 C   0  0  0  0  0  0  0  0  0  0  0  0
   23.7218  -19.6314  -18.8348 C   0  0  2  0  0  0  0  0  0  0  0  0
   23.8388  -20.9245  -19.4403 N   0  0  0  0  0  0  0  0  0  0  0  0
   24.4943  -19.5975  -17.5547 C   0  0  0  0  0  0  0  0  0  0  0  0
   24.8613  -20.6691  -17.0197 O   0  0  0  0  0  0  0  0  0  0  0  0
   26.4679  -15.1130  -17.1238 C   0  0  0  0  0  0  0  0  0  0  0  0
   27.1262  -16.4119  -16.6145 C   0  0  0  0  0  0  0  0  0  0  0  0
   26.2383  -16.8954  -15.5175 C   0  0  2  0  0  0  0  0  0  0  0  0
   27.0446  -16.8849  -14.2105 C   0  0  0  0  0  0  0  0  0  0  0  0
   25.5938  -18.2304  -15.7294 C   0  0  2  0  0  0  0  0  0  0  0  0
   24.8249  -18.3652  -16.9211 N   0  0  0  0  0  0  0  0  0  0  0  0
   25.0616  -18.8371  -14.5024 C   0  0  0  0  0  0  0  0  0  0  0  0
   23.9601  -18.3852  -13.9960 O   0  0  0  0  0  0  0  0  0  0  0  0
   25.6324  -19.9057  -13.7610 N   0  0  0  0  0  0  0  0  0  0  0  0
   24.9428  -20.4373  -12.5846 C   0  0  1  0  0  0  0  0  0  0  0  0
   23.8562  -21.3979  -12.8543 C   0  0  0  0  0  0  0  0  0  0  0  0
   24.2211  -22.5432  -13.7101 C   0  0  0  0  0  0  0  0  0  0  0  0
   24.3341  -22.4447  -15.0858 C   0  0  0  0  0  0  0  0  0  0  0  0
   24.6979  -23.5432  -15.8288 C   0  0  0  0  0  0  0  0  0  0  0  0
   24.9559  -24.7448  -15.2528 C   0  0  0  0  0  0  0  0  0  0  0  0
   24.8493  -24.8616  -13.8900 C   0  0  0  0  0  0  0  0  0  0  0  0
   24.4862  -23.7664  -13.1507 C   0  0  0  0  0  0  0  0  0  0  0  0
   25.9670  -21.1028  -11.7125 C   0  0  0  0  0  0  0  0  0  0  0  0
   25.5677  -21.5970  -10.4842 O   0  0  0  0  0  0  0  0  0  0  0  0
   27.1690  -21.2345  -12.0403 O   0  0  0  0  0  0  0  0  0  0  0  0
  2  3  1  0
  2  1  1  0
  3  4  1  1
  5  3  1  0
  5  6  2  0
  8  9  1  0
  8  7  1  0
  9 11  1  0
  9 10  1  1
 11 13  1  0
 11 12  1  6
 12  5  1  0
 13 15  1  0
 14 13  2  0
 15 16  1  0
 16 24  1  0
 16 17  1  6
 18 17  1  0
 19 18  2  0
 20 19  1  0
 21 22  1  0
 21 20  2  0
 22 23  2  0
 23 18  1  0
 24 26  2  0
 24 25  1  0
M  END
$$$$
