SIF.pdb
     RDKit          3D

 26 26  0  0  1  0  0  0  0  0999 V2000
   28.4589  -22.5838  -16.0160 O   0  0  0  0  0  0  0  0  0  0  0  0
   27.3534  -22.4227  -16.8618 C   0  0  0  0  0  0  0  0  0  0  0  0
   27.1572  -20.9247  -16.9915 C   0  0  2  0  0  0  0  0  0  0  0  0
   28.4493  -20.3436  -17.2041 N   0  0  0  0  0  0  0  0  0  0  0  0
   26.5764  -20.4181  -15.7099 C   0  0  0  0  0  0  0  0  0  0  0  0
   27.2517  -19.6597  -14.9764 O   0  0  0  0  0  0  0  0  0  0  0  0
   22.8762  -19.1840  -16.5744 C   0  0  0  0  0  0  0  0  0  0  0  0
   22.9367  -18.6818  -15.1169 C   0  0  0  0  0  0  0  0  0  0  0  0
   23.1771  -19.9022  -14.2933 C   0  0  2  0  0  0  0  0  0  0  0  0
   22.5059  -19.6967  -12.9274 C   0  0  0  0  0  0  0  0  0  0  0  0
   24.6073  -20.3122  -14.1222 C   0  0  2  0  0  0  0  0  0  0  0  0
   25.2623  -20.7813  -15.2972 N   0  0  0  0  0  0  0  0  0  0  0  0
   24.8789  -21.0172  -12.8628 C   0  0  0  0  0  0  0  0  0  0  0  0
   24.8670  -22.3108  -12.8431 O   0  0  0  0  0  0  0  0  0  0  0  0
   25.1617  -20.4315  -11.6001 N   0  0  0  0  0  0  0  0  0  0  0  0
   25.4991  -21.2775  -10.4545 C   0  0  1  0  0  0  0  0  0  0  0  0
   26.8553  -21.1017   -9.9012 C   0  0  0  0  0  0  0  0  0  0  0  0
   26.9601  -20.1629   -8.7675 C   0  0  0  0  0  0  0  0  0  0  0  0
   26.6796  -20.5292   -7.4628 C   0  0  0  0  0  0  0  0  0  0  0  0
   26.8153  -19.6147   -6.4449 C   0  0  0  0  0  0  0  0  0  0  0  0
   27.2225  -18.3406   -6.6753 C   0  0  0  0  0  0  0  0  0  0  0  0
   27.5054  -17.9592   -7.9625 C   0  0  0  0  0  0  0  0  0  0  0  0
   27.3693  -18.8712   -8.9761 C   0  0  0  0  0  0  0  0  0  0  0  0
   24.4985  -21.0037   -9.3698 C   0  0  0  0  0  0  0  0  0  0  0  0
   24.4193  -21.8847   -8.3068 O   0  0  0  0  0  0  0  0  0  0  0  0
   23.7285  -20.0154   -9.3772 O   0  0  0  0  0  0  0  0  0  0  0  0
  2  3  1  0
  2  1  1  0
  3  4  1  1
  5  3  1  0
  5  6  2  0
  8  9  1  0
  8  7  1  0
  9 11  1  0
  9 10  1  1
 11 13  1  0
 11 12  1  6
 12  5  1  0
 13 15  1  0
 14 13  2  0
 15 16  1  0
 16 24  1  0
 16 17  1  1
 18 17  1  0
 19 18  2  0
 20 19  1  0
 21 22  1  0
 21 20  2  0
 22 23  2  0
 23 18  1  0
 24 26  2  0
 24 25  1  0
M  END
$$$$
