SIF.pdb
     RDKit          3D

 26 26  0  0  1  0  0  0  0  0999 V2000
   23.4564  -16.1558  -13.3710 O   0  0  0  0  0  0  0  0  0  0  0  0
   24.7873  -15.9159  -13.7379 C   0  0  0  0  0  0  0  0  0  0  0  0
   25.1352  -17.0043  -14.7348 C   0  0  2  0  0  0  0  0  0  0  0  0
   24.0531  -17.0857  -15.6702 N   0  0  0  0  0  0  0  0  0  0  0  0
   25.2621  -18.2950  -13.9904 C   0  0  0  0  0  0  0  0  0  0  0  0
   24.2566  -19.0254  -13.8333 O   0  0  0  0  0  0  0  0  0  0  0  0
   28.5825  -21.9103  -15.5609 C   0  0  0  0  0  0  0  0  0  0  0  0
   27.4189  -21.0456  -15.0330 C   0  0  0  0  0  0  0  0  0  0  0  0
   27.6736  -20.8996  -13.5704 C   0  0  2  0  0  0  0  0  0  0  0  0
   27.6584  -22.3001  -12.9406 C   0  0  0  0  0  0  0  0  0  0  0  0
   26.7555  -19.9775  -12.8291 C   0  0  2  0  0  0  0  0  0  0  0  0
   26.5096  -18.7182  -13.4482 N   0  0  0  0  0  0  0  0  0  0  0  0
   26.9402  -19.9964  -11.3723 C   0  0  0  0  0  0  0  0  0  0  0  0
   27.9607  -19.3939  -10.8530 O   0  0  0  0  0  0  0  0  0  0  0  0
   26.1035  -20.6273  -10.4135 N   0  0  0  0  0  0  0  0  0  0  0  0
   26.4796  -20.6355   -8.9991 C   0  0  1  0  0  0  0  0  0  0  0  0
   26.6841  -19.3126   -8.3792 C   0  0  0  0  0  0  0  0  0  0  0  0
   27.2398  -19.3326   -7.0123 C   0  0  0  0  0  0  0  0  0  0  0  0
   26.4471  -19.2646   -5.8801 C   0  0  0  0  0  0  0  0  0  0  0  0
   27.0218  -19.3083   -4.6316 C   0  0  0  0  0  0  0  0  0  0  0  0
   28.3642  -19.4182   -4.4638 C   0  0  0  0  0  0  0  0  0  0  0  0
   29.1663  -19.4871   -5.5747 C   0  0  0  0  0  0  0  0  0  0  0  0
   28.5924  -19.4430   -6.8183 C   0  0  0  0  0  0  0  0  0  0  0  0
   25.4054  -21.3601   -8.2416 C   0  0  0  0  0  0  0  0  0  0  0  0
   25.7734  -22.1531   -7.1700 O   0  0  0  0  0  0  0  0  0  0  0  0
   24.1887  -21.2839   -8.5304 O   0  0  0  0  0  0  0  0  0  0  0  0
  2  3  1  0
  2  1  1  0
  3  4  1  6
  5  3  1  0
  5  6  2  0
  8  9  1  0
  8  7  1  0
  9 11  1  0
  9 10  1  1
 11 13  1  0
 11 12  1  6
 12  5  1  0
 13 15  1  0
 14 13  2  0
 15 16  1  0
 16 24  1  0
 16 17  1  1
 18 17  1  0
 19 18  2  0
 20 19  1  0
 21 22  1  0
 21 20  2  0
 22 23  2  0
 23 18  1  0
 24 26  2  0
 24 25  1  0
M  END
$$$$
