SIF.pdb
     RDKit          3D

 26 26  0  0  1  0  0  0  0  0999 V2000
   25.0883  -22.6521  -12.0317 O   0  0  0  0  0  0  0  0  0  0  0  0
   26.3958  -22.4421  -12.4897 C   0  0  0  0  0  0  0  0  0  0  0  0
   26.7783  -21.0579  -12.0030 C   0  0  2  0  0  0  0  0  0  0  0  0
   26.5636  -21.0308  -10.5868 N   0  0  0  0  0  0  0  0  0  0  0  0
   25.8827  -20.0646  -12.6722 C   0  0  0  0  0  0  0  0  0  0  0  0
   25.0110  -19.4621  -12.0041 O   0  0  0  0  0  0  0  0  0  0  0  0
   27.5430  -17.4534  -17.3671 C   0  0  0  0  0  0  0  0  0  0  0  0
   27.0955  -17.7550  -15.9218 C   0  0  0  0  0  0  0  0  0  0  0  0
   25.7253  -18.3310  -16.0496 C   0  0  2  0  0  0  0  0  0  0  0  0
   24.8020  -17.2451  -16.6213 C   0  0  0  0  0  0  0  0  0  0  0  0
   25.1383  -18.9212  -14.8048 C   0  0  2  0  0  0  0  0  0  0  0  0
   25.9959  -19.7849  -14.0644 N   0  0  0  0  0  0  0  0  0  0  0  0
   23.7282  -19.3100  -14.9368 C   0  0  0  0  0  0  0  0  0  0  0  0
   23.4306  -20.5395  -15.2083 O   0  0  0  0  0  0  0  0  0  0  0  0
   22.5936  -18.4661  -14.8032 N   0  0  0  0  0  0  0  0  0  0  0  0
   21.2952  -19.0304  -14.4321 C   0  0  1  0  0  0  0  0  0  0  0  0
   21.1229  -19.3672  -13.0063 C   0  0  0  0  0  0  0  0  0  0  0  0
   19.8091  -19.9325  -12.6431 C   0  0  0  0  0  0  0  0  0  0  0  0
   19.4018  -21.1950  -13.0371 C   0  0  0  0  0  0  0  0  0  0  0  0
   18.1729  -21.6757  -12.6502 C   0  0  0  0  0  0  0  0  0  0  0  0
   17.3270  -20.9446  -11.8806 C   0  0  0  0  0  0  0  0  0  0  0  0
   17.7137  -19.6907  -11.4801 C   0  0  0  0  0  0  0  0  0  0  0  0
   18.9383  -19.2125  -11.8668 C   0  0  0  0  0  0  0  0  0  0  0  0
   20.2353  -18.0426  -14.8240 C   0  0  0  0  0  0  0  0  0  0  0  0
   19.0945  -18.5115  -15.4496 O   0  0  0  0  0  0  0  0  0  0  0  0
   20.3303  -16.8113  -14.6132 O   0  0  0  0  0  0  0  0  0  0  0  0
  2  3  1  0
  2  1  1  0
  3  4  1  1
  5  3  1  0
  5  6  2  0
  8  9  1  0
  8  7  1  0
  9 11  1  0
  9 10  1  1
 11 13  1  0
 11 12  1  6
 12  5  1  0
 13 15  1  0
 14 13  2  0
 15 16  1  0
 16 24  1  0
 16 17  1  1
 18 17  1  0
 19 18  2  0
 20 19  1  0
 21 22  1  0
 21 20  2  0
 22 23  2  0
 23 18  1  0
 24 26  2  0
 24 25  1  0
M  END
$$$$
