SIF.pdb
     RDKit          3D

 26 26  0  0  1  0  0  0  0  0999 V2000
   32.0680  -22.8810  -12.5476 O   0  0  0  0  0  0  0  0  0  0  0  0
   31.0381  -21.9516  -12.3500 C   0  0  0  0  0  0  0  0  0  0  0  0
   30.5357  -21.6024  -13.7374 C   0  0  2  0  0  0  0  0  0  0  0  0
   31.5387  -20.7915  -14.3611 N   0  0  0  0  0  0  0  0  0  0  0  0
   29.2688  -20.8214  -13.5914 C   0  0  0  0  0  0  0  0  0  0  0  0
   29.3136  -19.5733  -13.4948 O   0  0  0  0  0  0  0  0  0  0  0  0
   27.2201  -21.1003  -16.7177 C   0  0  0  0  0  0  0  0  0  0  0  0
   26.6547  -19.9703  -15.8324 C   0  0  0  0  0  0  0  0  0  0  0  0
   25.9608  -20.6647  -14.7091 C   0  0  2  0  0  0  0  0  0  0  0  0
   24.6321  -19.9405  -14.4476 C   0  0  0  0  0  0  0  0  0  0  0  0
   26.7416  -20.8097  -13.4394 C   0  0  2  0  0  0  0  0  0  0  0  0
   27.9997  -21.4677  -13.5573 N   0  0  0  0  0  0  0  0  0  0  0  0
   25.9171  -21.1207  -12.2646 C   0  0  0  0  0  0  0  0  0  0  0  0
   25.4581  -22.3204  -12.1097 O   0  0  0  0  0  0  0  0  0  0  0  0
   25.5358  -20.2274  -11.2282 N   0  0  0  0  0  0  0  0  0  0  0  0
   24.6793  -20.6895  -10.1351 C   0  0  1  0  0  0  0  0  0  0  0  0
   24.7774  -19.9297   -8.8745 C   0  0  0  0  0  0  0  0  0  0  0  0
   26.0672  -20.0414   -8.1663 C   0  0  0  0  0  0  0  0  0  0  0  0
   26.6292  -21.2577   -7.8201 C   0  0  0  0  0  0  0  0  0  0  0  0
   27.8447  -21.2986   -7.1784 C   0  0  0  0  0  0  0  0  0  0  0  0
   28.5287  -20.1688   -6.8655 C   0  0  0  0  0  0  0  0  0  0  0  0
   27.9874  -18.9536   -7.2011 C   0  0  0  0  0  0  0  0  0  0  0  0
   26.7758  -18.9140   -7.8401 C   0  0  0  0  0  0  0  0  0  0  0  0
   23.2576  -20.6444  -10.6139 C   0  0  0  0  0  0  0  0  0  0  0  0
   22.2846  -21.2671   -9.8536 O   0  0  0  0  0  0  0  0  0  0  0  0
   22.9050  -20.0701  -11.6701 O   0  0  0  0  0  0  0  0  0  0  0  0
  2  3  1  0
  2  1  1  0
  3  4  1  1
  5  3  1  0
  5  6  2  0
  8  9  1  0
  8  7  1  0
  9 11  1  0
  9 10  1  1
 11 13  1  0
 11 12  1  6
 12  5  1  0
 13 15  1  0
 14 13  2  0
 15 16  1  0
 16 24  1  0
 16 17  1  1
 18 17  1  0
 19 18  2  0
 20 19  1  0
 21 22  1  0
 21 20  2  0
 22 23  2  0
 23 18  1  0
 24 26  2  0
 24 25  1  0
M  END
$$$$
