DYH.pdb
     RDKit          3D

 31 32  0  0  1  0  0  0  0  0999 V2000
    9.9130  -18.4375   17.6297 N   0  0  0  0  0  0  0  0  0  0  0  0
   11.1787  -17.7700   17.8209 C   0  0  1  0  0  0  0  0  0  0  0  0
   11.4526  -16.7394   16.7372 C   0  0  0  0  0  0  0  0  0  0  0  0
   11.8951  -17.3927   15.4962 C   0  0  0  0  0  0  0  0  0  0  0  0
   11.8589  -18.6340   15.3989 O   0  0  0  0  0  0  0  0  0  0  0  0
   11.2030  -16.9966   19.1066 C   0  0  0  0  0  0  0  0  0  0  0  0
   12.1986  -16.3619   19.5208 O   0  0  0  0  0  0  0  0  0  0  0  0
   12.3550  -16.6581   14.4243 O   0  0  0  0  0  0  0  0  0  0  0  0
    7.3331  -11.7309   17.7601 O   0  0  0  0  0  0  0  0  0  0  0  0
    7.7058  -12.6904   18.7199 C   0  0  0  0  0  0  0  0  0  0  0  0
    7.0989  -13.9126   18.7331 C   0  0  0  0  0  0  0  0  0  0  0  0
    7.4984  -14.8320   19.6988 C   0  0  0  0  0  0  0  0  0  0  0  0
    8.4693  -14.5571   20.6274 C   0  0  0  0  0  0  0  0  0  0  0  0
    8.8332  -15.5745   21.6138 C   0  0  0  0  0  0  0  0  0  0  0  0
   10.1086  -16.3318   21.2864 C   0  0  2  0  0  0  0  0  0  0  0  0
   10.0433  -16.9319   19.9734 N   0  0  0  0  0  0  0  0  0  0  0  0
   10.5243  -17.2518   22.3525 C   0  0  0  0  0  0  0  0  0  0  0  0
    9.9575  -18.3663   22.4431 O   0  0  0  0  0  0  0  0  0  0  0  0
    9.0698  -13.3211   20.5984 C   0  0  0  0  0  0  0  0  0  0  0  0
    8.6814  -12.4094   19.6497 C   0  0  0  0  0  0  0  0  0  0  0  0
   11.5365  -16.9837   23.3134 N   0  0  0  0  0  0  0  0  0  0  0  0
   11.9108  -17.9989   24.3145 C   0  0  1  0  0  0  0  0  0  0  0  0
   13.4103  -18.0425   24.4726 C   0  0  0  0  0  0  0  0  0  0  0  0
   13.7690  -18.9879   25.5609 C   0  0  0  0  0  0  0  0  0  0  0  0
   13.3570  -18.9814   26.8759 C   0  0  0  0  0  0  0  0  0  0  0  0
   13.9471  -20.0190   27.4941 N   0  0  0  0  0  0  0  0  0  0  0  0
   14.7169  -20.6812   26.6195 C   0  0  0  0  0  0  0  0  0  0  0  0
   14.6126  -20.0605   25.4470 N   0  0  0  0  0  0  0  0  0  0  0  0
   11.2013  -17.7871   25.5762 C   0  0  0  0  0  0  0  0  0  0  0  0
   10.9152  -16.4477   25.9187 O   0  0  0  0  0  0  0  0  0  0  0  0
   10.8157  -18.6494   26.3882 O   0  0  0  0  0  0  0  0  0  0  0  0
  2  1  1  6
  3  2  1  0
  3  4  1  0
  4  5  2  0
  6  2  1  0
  6  7  2  0
  8  4  1  0
  9 10  1  0
 10 20  2  0
 10 11  1  0
 11 12  2  0
 12 13  1  0
 13 14  1  0
 15 14  1  1
 15 16  1  0
 16  6  1  0
 17 15  1  0
 18 17  2  0
 19 13  2  0
 20 19  1  0
 21 17  1  0
 22 21  1  0
 22 29  1  0
 22 23  1  1
 24 23  1  0
 24 25  2  0
 26 25  1  0
 27 26  1  0
 28 27  2  0
 28 24  1  0
 29 30  1  0
 31 29  2  0
M  END
$$$$
