DYH.pdb
     RDKit          3D

 31 32  0  0  1  0  0  0  0  0999 V2000
   11.1847  -16.8834   18.6468 N   0  0  0  0  0  0  0  0  0  0  0  0
   10.2694  -17.4150   19.6286 C   0  0  1  0  0  0  0  0  0  0  0  0
   10.7560  -18.7321   20.2118 C   0  0  0  0  0  0  0  0  0  0  0  0
   11.0284  -19.7061   19.1441 C   0  0  0  0  0  0  0  0  0  0  0  0
   10.1721  -19.9232   18.2659 O   0  0  0  0  0  0  0  0  0  0  0  0
   10.1332  -16.4959   20.8069 C   0  0  0  0  0  0  0  0  0  0  0  0
   11.0974  -15.9180   21.3565 O   0  0  0  0  0  0  0  0  0  0  0  0
   12.2217  -20.3939   19.0891 O   0  0  0  0  0  0  0  0  0  0  0  0
    6.5006  -11.6185   27.2750 O   0  0  0  0  0  0  0  0  0  0  0  0
    6.6886  -12.4676   26.1686 C   0  0  0  0  0  0  0  0  0  0  0  0
    7.2854  -11.9914   25.0376 C   0  0  0  0  0  0  0  0  0  0  0  0
    7.4524  -12.8655   23.9672 C   0  0  0  0  0  0  0  0  0  0  0  0
    7.0435  -14.1738   24.0077 C   0  0  0  0  0  0  0  0  0  0  0  0
    7.2509  -15.0312   22.8405 C   0  0  0  0  0  0  0  0  0  0  0  0
    8.7080  -15.3479   22.5511 C   0  0  2  0  0  0  0  0  0  0  0  0
    8.8416  -16.2096   21.3986 N   0  0  0  0  0  0  0  0  0  0  0  0
    9.4470  -15.8023   23.7357 C   0  0  0  0  0  0  0  0  0  0  0  0
   10.5966  -15.3467   23.9415 O   0  0  0  0  0  0  0  0  0  0  0  0
    6.4449  -14.6359   25.1555 C   0  0  0  0  0  0  0  0  0  0  0  0
    6.2765  -13.7804   26.2147 C   0  0  0  0  0  0  0  0  0  0  0  0
    8.9623  -16.7352   24.6919 N   0  0  0  0  0  0  0  0  0  0  0  0
    9.5733  -16.8263   26.0303 C   0  0  1  0  0  0  0  0  0  0  0  0
    9.5196  -15.4842   26.7169 C   0  0  0  0  0  0  0  0  0  0  0  0
   10.1066  -15.5968   28.0770 C   0  0  0  0  0  0  0  0  0  0  0  0
    9.7579  -16.4573   29.0952 C   0  0  0  0  0  0  0  0  0  0  0  0
   10.5512  -16.1889   30.1467 N   0  0  0  0  0  0  0  0  0  0  0  0
   11.3881  -15.1908   29.8316 C   0  0  0  0  0  0  0  0  0  0  0  0
   11.1227  -14.8284   28.5790 N   0  0  0  0  0  0  0  0  0  0  0  0
    8.9717  -17.9034   26.8164 C   0  0  0  0  0  0  0  0  0  0  0  0
    9.8601  -18.7096   27.5605 O   0  0  0  0  0  0  0  0  0  0  0  0
    7.7645  -18.1960   26.9107 O   0  0  0  0  0  0  0  0  0  0  0  0
  2  1  1  6
  3  2  1  0
  3  4  1  0
  4  5  2  0
  6  2  1  0
  6  7  2  0
  8  4  1  0
  9 10  1  0
 10 20  2  0
 10 11  1  0
 11 12  2  0
 12 13  1  0
 13 14  1  0
 15 14  1  1
 15 16  1  0
 16  6  1  0
 17 15  1  0
 18 17  2  0
 19 13  2  0
 20 19  1  0
 21 17  1  0
 22 21  1  0
 22 29  1  0
 22 23  1  1
 24 23  1  0
 24 25  2  0
 26 25  1  0
 27 26  1  0
 28 27  2  0
 28 24  1  0
 29 30  1  0
 31 29  2  0
M  END
$$$$
