DYH.pdb
     RDKit          3D

 31 32  0  0  1  0  0  0  0  0999 V2000
    9.5089  -18.0782   19.5879 N   0  0  0  0  0  0  0  0  0  0  0  0
   10.7999  -17.5459   19.9545 C   0  0  1  0  0  0  0  0  0  0  0  0
   11.4444  -16.7710   18.8162 C   0  0  0  0  0  0  0  0  0  0  0  0
   11.8879  -17.6822   17.7504 C   0  0  0  0  0  0  0  0  0  0  0  0
   11.5991  -18.8926   17.8059 O   0  0  0  0  0  0  0  0  0  0  0  0
   10.6879  -16.5602   21.0802 C   0  0  0  0  0  0  0  0  0  0  0  0
   11.6622  -15.9471   21.5707 O   0  0  0  0  0  0  0  0  0  0  0  0
   12.6243  -17.2261   16.6781 O   0  0  0  0  0  0  0  0  0  0  0  0
    7.5603  -12.6024   17.1953 O   0  0  0  0  0  0  0  0  0  0  0  0
    7.7023  -13.0343   18.5271 C   0  0  0  0  0  0  0  0  0  0  0  0
    8.5319  -12.3618   19.3768 C   0  0  0  0  0  0  0  0  0  0  0  0
    8.6421  -12.8224   20.6857 C   0  0  0  0  0  0  0  0  0  0  0  0
    7.9548  -13.9155   21.1474 C   0  0  0  0  0  0  0  0  0  0  0  0
    8.1253  -14.3412   22.5367 C   0  0  0  0  0  0  0  0  0  0  0  0
    9.2944  -15.2848   22.7604 C   0  0  2  0  0  0  0  0  0  0  0  0
    9.4099  -16.2452   21.6866 N   0  0  0  0  0  0  0  0  0  0  0  0
    9.3119  -15.8748   24.1047 C   0  0  0  0  0  0  0  0  0  0  0  0
    8.2483  -15.8976   24.7679 O   0  0  0  0  0  0  0  0  0  0  0  0
    7.1235  -14.5798   20.2773 C   0  0  0  0  0  0  0  0  0  0  0  0
    7.0097  -14.1321   18.9856 C   0  0  0  0  0  0  0  0  0  0  0  0
   10.4555  -16.4356   24.7353 N   0  0  0  0  0  0  0  0  0  0  0  0
   10.3472  -17.0721   26.0604 C   0  0  1  0  0  0  0  0  0  0  0  0
    9.4120  -18.2537   25.9929 C   0  0  0  0  0  0  0  0  0  0  0  0
   10.0499  -19.3501   25.2197 C   0  0  0  0  0  0  0  0  0  0  0  0
   11.2450  -19.3359   24.5338 C   0  0  0  0  0  0  0  0  0  0  0  0
   11.4097  -20.5473   23.9747 N   0  0  0  0  0  0  0  0  0  0  0  0
   10.3635  -21.3268   24.2813 C   0  0  0  0  0  0  0  0  0  0  0  0
    9.5368  -20.6062   25.0351 N   0  0  0  0  0  0  0  0  0  0  0  0
   11.6660  -17.4073   26.5977 C   0  0  0  0  0  0  0  0  0  0  0  0
   12.7706  -17.1494   25.7573 O   0  0  0  0  0  0  0  0  0  0  0  0
   11.9340  -17.8934   27.7128 O   0  0  0  0  0  0  0  0  0  0  0  0
  2  1  1  6
  3  2  1  0
  3  4  1  0
  4  5  2  0
  6  2  1  0
  6  7  2  0
  8  4  1  0
  9 10  1  0
 10 20  2  0
 10 11  1  0
 11 12  2  0
 12 13  1  0
 13 14  1  0
 15 14  1  6
 15 16  1  0
 16  6  1  0
 17 15  1  0
 18 17  2  0
 19 13  2  0
 20 19  1  0
 21 17  1  0
 22 21  1  0
 22 29  1  0
 22 23  1  6
 24 23  1  0
 24 25  2  0
 26 25  1  0
 27 26  1  0
 28 27  2  0
 28 24  1  0
 29 30  1  0
 31 29  2  0
M  END
$$$$
