DYH.pdb
     RDKit          3D

 31 32  0  0  1  0  0  0  0  0999 V2000
    8.8869  -16.9258   18.6988 N   0  0  0  0  0  0  0  0  0  0  0  0
    8.5792  -17.5033   19.9857 C   0  0  1  0  0  0  0  0  0  0  0  0
    9.4523  -18.7086   20.2965 C   0  0  0  0  0  0  0  0  0  0  0  0
    9.3224  -19.7309   19.2473 C   0  0  0  0  0  0  0  0  0  0  0  0
    8.1929  -20.0894   18.8637 O   0  0  0  0  0  0  0  0  0  0  0  0
    8.8448  -16.5343   21.1002 C   0  0  0  0  0  0  0  0  0  0  0  0
    9.8419  -15.7797   21.1463 O   0  0  0  0  0  0  0  0  0  0  0  0
   10.4321  -20.3103   18.6702 O   0  0  0  0  0  0  0  0  0  0  0  0
    7.1565  -11.2169   28.0327 O   0  0  0  0  0  0  0  0  0  0  0  0
    7.0618  -12.1372   26.9723 C   0  0  0  0  0  0  0  0  0  0  0  0
    6.5465  -13.3813   27.1936 C   0  0  0  0  0  0  0  0  0  0  0  0
    6.4704  -14.2599   26.1166 C   0  0  0  0  0  0  0  0  0  0  0  0
    6.8899  -13.9242   24.8549 C   0  0  0  0  0  0  0  0  0  0  0  0
    6.7805  -14.9037   23.7736 C   0  0  0  0  0  0  0  0  0  0  0  0
    8.1153  -15.3825   23.2292 C   0  0  2  0  0  0  0  0  0  0  0  0
    7.9385  -16.4054   22.2238 N   0  0  0  0  0  0  0  0  0  0  0  0
    9.0783  -15.7286   24.2821 C   0  0  0  0  0  0  0  0  0  0  0  0
    9.4007  -14.8512   25.1174 O   0  0  0  0  0  0  0  0  0  0  0  0
    7.4055  -12.6666   24.6509 C   0  0  0  0  0  0  0  0  0  0  0  0
    7.4841  -11.7950   25.7074 C   0  0  0  0  0  0  0  0  0  0  0  0
    9.6917  -17.0006   24.4413 N   0  0  0  0  0  0  0  0  0  0  0  0
   10.7475  -17.2056   25.4494 C   0  0  1  0  0  0  0  0  0  0  0  0
   11.8062  -16.1396   25.3149 C   0  0  0  0  0  0  0  0  0  0  0  0
   12.5570  -16.3403   24.0488 C   0  0  0  0  0  0  0  0  0  0  0  0
   12.1522  -16.9904   22.9032 C   0  0  0  0  0  0  0  0  0  0  0  0
   13.1656  -16.9343   22.0218 N   0  0  0  0  0  0  0  0  0  0  0  0
   14.1959  -16.2733   22.5672 C   0  0  0  0  0  0  0  0  0  0  0  0
   13.8324  -15.9116   23.7951 N   0  0  0  0  0  0  0  0  0  0  0  0
   10.1846  -17.2961   26.7967 C   0  0  0  0  0  0  0  0  0  0  0  0
   11.1085  -17.4325   27.8554 O   0  0  0  0  0  0  0  0  0  0  0  0
    8.9834  -17.2657   27.1249 O   0  0  0  0  0  0  0  0  0  0  0  0
  2  1  1  6
  3  2  1  0
  3  4  1  0
  4  5  2  0
  6  2  1  0
  6  7  2  0
  8  4  1  0
  9 10  1  0
 10 20  2  0
 10 11  1  0
 11 12  2  0
 12 13  1  0
 13 14  1  0
 15 14  1  1
 15 16  1  0
 16  6  1  0
 17 15  1  0
 18 17  2  0
 19 13  2  0
 20 19  1  0
 21 17  1  0
 22 21  1  0
 22 29  1  0
 22 23  1  1
 24 23  1  0
 24 25  2  0
 26 25  1  0
 27 26  1  0
 28 27  2  0
 28 24  1  0
 29 30  1  0
 31 29  2  0
M  END
$$$$
