DYH.pdb
     RDKit          3D

 31 32  0  0  1  0  0  0  0  0999 V2000
   11.1111  -17.4748   19.5444 N   0  0  0  0  0  0  0  0  0  0  0  0
    9.8650  -17.5997   20.2626 C   0  0  1  0  0  0  0  0  0  0  0  0
    9.6415  -19.0113   20.7813 C   0  0  0  0  0  0  0  0  0  0  0  0
    9.6172  -19.9767   19.6721 C   0  0  0  0  0  0  0  0  0  0  0  0
    9.8519  -19.5955   18.5097 O   0  0  0  0  0  0  0  0  0  0  0  0
    9.8461  -16.7298   21.4851 C   0  0  0  0  0  0  0  0  0  0  0  0
   10.8661  -16.4323   22.1460 O   0  0  0  0  0  0  0  0  0  0  0  0
    9.3376  -21.3091   19.8879 O   0  0  0  0  0  0  0  0  0  0  0  0
    7.0223  -11.1657   27.8042 O   0  0  0  0  0  0  0  0  0  0  0  0
    7.1084  -11.9840   26.6625 C   0  0  0  0  0  0  0  0  0  0  0  0
    6.2822  -13.0623   26.5330 C   0  0  0  0  0  0  0  0  0  0  0  0
    6.4004  -13.8443   25.3875 C   0  0  0  0  0  0  0  0  0  0  0  0
    7.3071  -13.5732   24.3951 C   0  0  0  0  0  0  0  0  0  0  0  0
    7.3740  -14.4439   23.2212 C   0  0  0  0  0  0  0  0  0  0  0  0
    8.5814  -15.3652   23.1967 C   0  0  2  0  0  0  0  0  0  0  0  0
    8.6127  -16.1617   21.9913 N   0  0  0  0  0  0  0  0  0  0  0  0
    8.7458  -16.1355   24.4358 C   0  0  0  0  0  0  0  0  0  0  0  0
    7.8043  -16.8685   24.8203 O   0  0  0  0  0  0  0  0  0  0  0  0
    8.1305  -12.4825   24.5426 C   0  0  0  0  0  0  0  0  0  0  0  0
    8.0203  -11.7071   25.6689 C   0  0  0  0  0  0  0  0  0  0  0  0
    9.9056  -16.1230   25.2570 N   0  0  0  0  0  0  0  0  0  0  0  0
    9.9729  -16.9494   26.4759 C   0  0  1  0  0  0  0  0  0  0  0  0
   11.2329  -17.7787   26.4707 C   0  0  0  0  0  0  0  0  0  0  0  0
   11.1199  -18.8498   25.4474 C   0  0  0  0  0  0  0  0  0  0  0  0
   10.0371  -19.1754   24.6598 C   0  0  0  0  0  0  0  0  0  0  0  0
   10.3901  -20.2207   23.8918 N   0  0  0  0  0  0  0  0  0  0  0  0
   11.6553  -20.5683   24.1645 C   0  0  0  0  0  0  0  0  0  0  0  0
   12.1018  -19.7411   25.1064 N   0  0  0  0  0  0  0  0  0  0  0  0
    9.8222  -16.1325   27.6801 C   0  0  0  0  0  0  0  0  0  0  0  0
    9.8087  -16.8243   28.9106 O   0  0  0  0  0  0  0  0  0  0  0  0
    9.7054  -14.8944   27.7520 O   0  0  0  0  0  0  0  0  0  0  0  0
  2  1  1  1
  3  2  1  0
  3  4  1  0
  4  5  2  0
  6  2  1  0
  6  7  2  0
  8  4  1  0
  9 10  1  0
 10 20  2  0
 10 11  1  0
 11 12  2  0
 12 13  1  0
 13 14  1  0
 15 14  1  1
 15 16  1  0
 16  6  1  0
 17 15  1  0
 18 17  2  0
 19 13  2  0
 20 19  1  0
 21 17  1  0
 22 21  1  0
 22 29  1  0
 22 23  1  1
 24 23  1  0
 24 25  2  0
 26 25  1  0
 27 26  1  0
 28 27  2  0
 28 24  1  0
 29 30  1  0
 31 29  2  0
M  END
$$$$
