DYH.pdb
     RDKit          3D

 31 32  0  0  1  0  0  0  0  0999 V2000
    9.9637  -16.2215   18.1736 N   0  0  0  0  0  0  0  0  0  0  0  0
    9.3555  -16.9717   19.2468 C   0  0  1  0  0  0  0  0  0  0  0  0
   10.0333  -18.3155   19.4624 C   0  0  0  0  0  0  0  0  0  0  0  0
    9.0557  -19.3315   19.8806 C   0  0  0  0  0  0  0  0  0  0  0  0
    8.7626  -20.2671   19.1122 O   0  0  0  0  0  0  0  0  0  0  0  0
    9.4859  -16.2565   20.5595 C   0  0  0  0  0  0  0  0  0  0  0  0
   10.5806  -15.9424   21.0776 O   0  0  0  0  0  0  0  0  0  0  0  0
    8.4474  -19.2747   21.1162 O   0  0  0  0  0  0  0  0  0  0  0  0
    7.2176  -11.9612   28.0166 O   0  0  0  0  0  0  0  0  0  0  0  0
    7.2112  -12.5656   26.7457 C   0  0  0  0  0  0  0  0  0  0  0  0
    6.5018  -13.7131   26.5403 C   0  0  0  0  0  0  0  0  0  0  0  0
    6.5221  -14.2769   25.2678 C   0  0  0  0  0  0  0  0  0  0  0  0
    7.2217  -13.7271   24.2244 C   0  0  0  0  0  0  0  0  0  0  0  0
    7.1972  -14.3802   22.9154 C   0  0  0  0  0  0  0  0  0  0  0  0
    8.4412  -15.1933   22.6014 C   0  0  2  0  0  0  0  0  0  0  0  0
    8.3210  -15.8718   21.3311 N   0  0  0  0  0  0  0  0  0  0  0  0
    8.8627  -16.0569   23.7115 C   0  0  0  0  0  0  0  0  0  0  0  0
    8.1786  -17.0727   23.9794 O   0  0  0  0  0  0  0  0  0  0  0  0
    7.9299  -12.5709   24.4500 C   0  0  0  0  0  0  0  0  0  0  0  0
    7.9150  -12.0092   25.7015 C   0  0  0  0  0  0  0  0  0  0  0  0
   10.0047  -15.8374   24.5284 N   0  0  0  0  0  0  0  0  0  0  0  0
   10.2902  -16.7193   25.6745 C   0  0  1  0  0  0  0  0  0  0  0  0
   11.7202  -17.1962   25.6177 C   0  0  0  0  0  0  0  0  0  0  0  0
   11.9083  -18.0657   24.4278 C   0  0  0  0  0  0  0  0  0  0  0  0
   12.0508  -17.6971   23.1077 C   0  0  0  0  0  0  0  0  0  0  0  0
   12.1809  -18.8209   22.3815 N   0  0  0  0  0  0  0  0  0  0  0  0
   12.1257  -19.8860   23.1929 C   0  0  0  0  0  0  0  0  0  0  0  0
   11.9604  -19.4340   24.4335 N   0  0  0  0  0  0  0  0  0  0  0  0
    9.9452  -16.0730   26.9407 C   0  0  0  0  0  0  0  0  0  0  0  0
   10.1383  -16.8396   28.1103 O   0  0  0  0  0  0  0  0  0  0  0  0
    9.5010  -14.9220   27.1131 O   0  0  0  0  0  0  0  0  0  0  0  0
  2  1  1  6
  3  2  1  0
  3  4  1  0
  4  5  2  0
  6  2  1  0
  6  7  2  0
  8  4  1  0
  9 10  1  0
 10 20  2  0
 10 11  1  0
 11 12  2  0
 12 13  1  0
 13 14  1  0
 15 14  1  1
 15 16  1  0
 16  6  1  0
 17 15  1  0
 18 17  2  0
 19 13  2  0
 20 19  1  0
 21 17  1  0
 22 21  1  0
 22 29  1  0
 22 23  1  1
 24 23  1  0
 24 25  2  0
 26 25  1  0
 27 26  1  0
 28 27  2  0
 28 24  1  0
 29 30  1  0
 31 29  2  0
M  END
$$$$
