DYH.pdb
     RDKit          3D

 31 32  0  0  1  0  0  0  0  0999 V2000
   10.0987  -17.0321   19.8224 N   0  0  0  0  0  0  0  0  0  0  0  0
   11.2199  -17.0921   20.7299 C   0  0  1  0  0  0  0  0  0  0  0  0
   12.4200  -16.3165   20.2102 C   0  0  0  0  0  0  0  0  0  0  0  0
   13.1630  -17.1084   19.2186 C   0  0  0  0  0  0  0  0  0  0  0  0
   12.5480  -17.8286   18.4094 O   0  0  0  0  0  0  0  0  0  0  0  0
   10.8919  -16.4598   22.0506 C   0  0  0  0  0  0  0  0  0  0  0  0
   11.7231  -16.2949   22.9712 O   0  0  0  0  0  0  0  0  0  0  0  0
   14.5398  -17.0744   19.1604 O   0  0  0  0  0  0  0  0  0  0  0  0
    6.5794  -11.8862   28.3070 O   0  0  0  0  0  0  0  0  0  0  0  0
    6.9094  -12.5743   27.1246 C   0  0  0  0  0  0  0  0  0  0  0  0
    7.8100  -12.0363   26.2517 C   0  0  0  0  0  0  0  0  0  0  0  0
    8.1082  -12.7507   25.0949 C   0  0  0  0  0  0  0  0  0  0  0  0
    7.5360  -13.9625   24.8037 C   0  0  0  0  0  0  0  0  0  0  0  0
    7.8980  -14.6524   23.5653 C   0  0  0  0  0  0  0  0  0  0  0  0
    9.2370  -15.3677   23.6190 C   0  0  2  0  0  0  0  0  0  0  0  0
    9.5561  -15.9854   22.3521 N   0  0  0  0  0  0  0  0  0  0  0  0
    9.3698  -16.2595   24.7778 C   0  0  0  0  0  0  0  0  0  0  0  0
    8.4746  -17.1111   24.9898 O   0  0  0  0  0  0  0  0  0  0  0  0
    6.6317  -14.4890   25.6949 C   0  0  0  0  0  0  0  0  0  0  0  0
    6.3324  -13.7908   26.8372 C   0  0  0  0  0  0  0  0  0  0  0  0
   10.4492  -16.2418   25.7020 N   0  0  0  0  0  0  0  0  0  0  0  0
   10.4197  -17.0875   26.9090 C   0  0  1  0  0  0  0  0  0  0  0  0
   11.6712  -17.9261   26.9849 C   0  0  0  0  0  0  0  0  0  0  0  0
   11.6082  -19.0077   25.9684 C   0  0  0  0  0  0  0  0  0  0  0  0
   10.6062  -19.2782   25.0619 C   0  0  0  0  0  0  0  0  0  0  0  0
   10.9768  -20.3591   24.3537 N   0  0  0  0  0  0  0  0  0  0  0  0
   12.1753  -20.7822   24.7786 C   0  0  0  0  0  0  0  0  0  0  0  0
   12.5620  -19.9671   25.7568 N   0  0  0  0  0  0  0  0  0  0  0  0
   10.1843  -16.2883   28.1115 C   0  0  0  0  0  0  0  0  0  0  0  0
   10.1926  -14.8863   27.9455 O   0  0  0  0  0  0  0  0  0  0  0  0
    9.9748  -16.6966   29.2696 O   0  0  0  0  0  0  0  0  0  0  0  0
  2  1  1  6
  3  2  1  0
  3  4  1  0
  4  5  2  0
  6  2  1  0
  6  7  2  0
  8  4  1  0
  9 10  1  0
 10 20  2  0
 10 11  1  0
 11 12  2  0
 12 13  1  0
 13 14  1  0
 15 14  1  6
 15 16  1  0
 16  6  1  0
 17 15  1  0
 18 17  2  0
 19 13  2  0
 20 19  1  0
 21 17  1  0
 22 21  1  0
 22 29  1  0
 22 23  1  1
 24 23  1  0
 24 25  2  0
 26 25  1  0
 27 26  1  0
 28 27  2  0
 28 24  1  0
 29 30  1  0
 31 29  2  0
M  END
$$$$
