DYH.pdb
     RDKit          3D

 31 32  0  0  1  0  0  0  0  0999 V2000
   12.4212  -15.5162   18.6245 N   0  0  0  0  0  0  0  0  0  0  0  0
   11.6844  -16.5066   19.3732 C   0  0  1  0  0  0  0  0  0  0  0  0
   12.5508  -17.6950   19.7589 C   0  0  0  0  0  0  0  0  0  0  0  0
   12.9565  -18.4535   18.5660 C   0  0  0  0  0  0  0  0  0  0  0  0
   13.0251  -17.8846   17.4600 O   0  0  0  0  0  0  0  0  0  0  0  0
   11.1853  -15.9518   20.6750 C   0  0  0  0  0  0  0  0  0  0  0  0
   11.7930  -15.0862   21.3437 O   0  0  0  0  0  0  0  0  0  0  0  0
   13.2667  -19.7944   18.6408 O   0  0  0  0  0  0  0  0  0  0  0  0
    7.8115  -11.7517   17.9355 O   0  0  0  0  0  0  0  0  0  0  0  0
    7.8966  -12.6035   19.0525 C   0  0  0  0  0  0  0  0  0  0  0  0
    8.3432  -12.1182   20.2472 C   0  0  0  0  0  0  0  0  0  0  0  0
    8.4108  -12.9949   21.3263 C   0  0  0  0  0  0  0  0  0  0  0  0
    8.0487  -14.3142   21.2334 C   0  0  0  0  0  0  0  0  0  0  0  0
    8.1504  -15.1752   22.4119 C   0  0  0  0  0  0  0  0  0  0  0  0
    9.4763  -15.9057   22.5374 C   0  0  2  0  0  0  0  0  0  0  0  0
    9.9332  -16.3933   21.2560 N   0  0  0  0  0  0  0  0  0  0  0  0
    9.4823  -16.9130   23.6056 C   0  0  0  0  0  0  0  0  0  0  0  0
    9.1633  -18.0924   23.3249 O   0  0  0  0  0  0  0  0  0  0  0  0
    7.6006  -14.7850   20.0222 C   0  0  0  0  0  0  0  0  0  0  0  0
    7.5314  -13.9272   18.9539 C   0  0  0  0  0  0  0  0  0  0  0  0
    9.8261  -16.6627   24.9616 N   0  0  0  0  0  0  0  0  0  0  0  0
   10.5047  -17.6935   25.7679 C   0  0  1  0  0  0  0  0  0  0  0  0
   11.7469  -18.1717   25.0584 C   0  0  0  0  0  0  0  0  0  0  0  0
   11.4305  -19.3869   24.2647 C   0  0  0  0  0  0  0  0  0  0  0  0
   10.2363  -20.0689   24.1760 C   0  0  0  0  0  0  0  0  0  0  0  0
   10.4228  -21.1137   23.3508 N   0  0  0  0  0  0  0  0  0  0  0  0
   11.6899  -21.1179   22.9147 C   0  0  0  0  0  0  0  0  0  0  0  0
   12.3046  -20.0741   23.4656 N   0  0  0  0  0  0  0  0  0  0  0  0
   10.7606  -17.2201   27.1282 C   0  0  0  0  0  0  0  0  0  0  0  0
   10.7268  -18.1946   28.1492 O   0  0  0  0  0  0  0  0  0  0  0  0
   11.0076  -16.0561   27.4968 O   0  0  0  0  0  0  0  0  0  0  0  0
  2  1  1  1
  3  2  1  0
  3  4  1  0
  4  5  2  0
  6  2  1  0
  6  7  2  0
  8  4  1  0
  9 10  1  0
 10 20  2  0
 10 11  1  0
 11 12  2  0
 12 13  1  0
 13 14  1  0
 15 14  1  6
 15 16  1  0
 16  6  1  0
 17 15  1  0
 18 17  2  0
 19 13  2  0
 20 19  1  0
 21 17  1  0
 22 21  1  0
 22 29  1  0
 22 23  1  6
 24 23  1  0
 24 25  2  0
 26 25  1  0
 27 26  1  0
 28 27  2  0
 28 24  1  0
 29 30  1  0
 31 29  2  0
M  END
$$$$
