DYH.pdb
     RDKit          3D

 31 32  0  0  1  0  0  0  0  0999 V2000
    8.6927  -18.7904   20.5567 N   0  0  0  0  0  0  0  0  0  0  0  0
    9.6823  -17.7948   20.2191 C   0  0  1  0  0  0  0  0  0  0  0  0
    9.4820  -17.2399   18.8178 C   0  0  0  0  0  0  0  0  0  0  0  0
    9.4295  -18.3272   17.8290 C   0  0  0  0  0  0  0  0  0  0  0  0
   10.4752  -18.7161   17.2750 O   0  0  0  0  0  0  0  0  0  0  0  0
    9.5926  -16.6020   21.1251 C   0  0  0  0  0  0  0  0  0  0  0  0
   10.3986  -15.6452   21.1013 O   0  0  0  0  0  0  0  0  0  0  0  0
    8.2382  -18.9349   17.4948 O   0  0  0  0  0  0  0  0  0  0  0  0
    6.5205  -10.7906   27.0812 O   0  0  0  0  0  0  0  0  0  0  0  0
    6.6487  -11.8560   26.1707 C   0  0  0  0  0  0  0  0  0  0  0  0
    6.9418  -11.6027   24.8622 C   0  0  0  0  0  0  0  0  0  0  0  0
    7.0604  -12.6858   23.9959 C   0  0  0  0  0  0  0  0  0  0  0  0
    6.8951  -13.9841   24.4053 C   0  0  0  0  0  0  0  0  0  0  0  0
    7.0326  -15.0699   23.4344 C   0  0  0  0  0  0  0  0  0  0  0  0
    8.4636  -15.3450   23.0057 C   0  0  2  0  0  0  0  0  0  0  0  0
    8.5376  -16.4775   22.1108 N   0  0  0  0  0  0  0  0  0  0  0  0
    9.4038  -15.4011   24.1320 C   0  0  0  0  0  0  0  0  0  0  0  0
    9.7460  -14.3302   24.6865 O   0  0  0  0  0  0  0  0  0  0  0  0
    6.6009  -14.2199   25.7271 C   0  0  0  0  0  0  0  0  0  0  0  0
    6.4822  -13.1577   26.5870 C   0  0  0  0  0  0  0  0  0  0  0  0
    9.9734  -16.5906   24.6614 N   0  0  0  0  0  0  0  0  0  0  0  0
   11.0421  -16.5263   25.6747 C   0  0  1  0  0  0  0  0  0  0  0  0
   10.5620  -17.1258   26.9729 C   0  0  0  0  0  0  0  0  0  0  0  0
   10.5307  -16.0768   28.0244 C   0  0  0  0  0  0  0  0  0  0  0  0
   10.7644  -14.7247   27.8970 C   0  0  0  0  0  0  0  0  0  0  0  0
   10.6395  -14.1718   29.1159 N   0  0  0  0  0  0  0  0  0  0  0  0
   10.3358  -15.1235   30.0092 C   0  0  0  0  0  0  0  0  0  0  0  0
   10.2690  -16.2793   29.3531 N   0  0  0  0  0  0  0  0  0  0  0  0
   12.2794  -17.1304   25.1804 C   0  0  0  0  0  0  0  0  0  0  0  0
   12.1385  -18.1432   24.2070 O   0  0  0  0  0  0  0  0  0  0  0  0
   13.4479  -16.8572   25.5145 O   0  0  0  0  0  0  0  0  0  0  0  0
  2  1  1  1
  3  2  1  0
  3  4  1  0
  4  5  2  0
  6  2  1  0
  6  7  2  0
  8  4  1  0
  9 10  1  0
 10 20  2  0
 10 11  1  0
 11 12  2  0
 12 13  1  0
 13 14  1  0
 15 14  1  1
 15 16  1  0
 16  6  1  0
 17 15  1  0
 18 17  2  0
 19 13  2  0
 20 19  1  0
 21 17  1  0
 22 21  1  0
 22 29  1  0
 22 23  1  1
 24 23  1  0
 24 25  2  0
 26 25  1  0
 27 26  1  0
 28 27  2  0
 28 24  1  0
 29 30  1  0
 31 29  2  0
M  END
$$$$
