DYH.pdb
     RDKit          3D

 31 32  0  0  1  0  0  0  0  0999 V2000
   10.6002  -16.7259   18.3099 N   0  0  0  0  0  0  0  0  0  0  0  0
    9.6515  -17.3133   19.2260 C   0  0  1  0  0  0  0  0  0  0  0  0
    9.9727  -18.7682   19.5287 C   0  0  0  0  0  0  0  0  0  0  0  0
    9.8177  -19.5980   18.3244 C   0  0  0  0  0  0  0  0  0  0  0  0
    8.6795  -19.9056   17.9225 O   0  0  0  0  0  0  0  0  0  0  0  0
    9.6768  -16.6250   20.5591 C   0  0  0  0  0  0  0  0  0  0  0  0
   10.7179  -16.4340   21.2264 O   0  0  0  0  0  0  0  0  0  0  0  0
   10.9128  -20.0501   17.6200 O   0  0  0  0  0  0  0  0  0  0  0  0
    6.9558  -12.1065   27.7202 O   0  0  0  0  0  0  0  0  0  0  0  0
    7.0143  -12.7540   26.4720 C   0  0  0  0  0  0  0  0  0  0  0  0
    6.3810  -13.9496   26.2942 C   0  0  0  0  0  0  0  0  0  0  0  0
    6.4637  -14.5551   25.0435 C   0  0  0  0  0  0  0  0  0  0  0  0
    7.1509  -13.9996   23.9949 C   0  0  0  0  0  0  0  0  0  0  0  0
    7.1951  -14.6981   22.7101 C   0  0  0  0  0  0  0  0  0  0  0  0
    8.4830  -15.4640   22.4613 C   0  0  2  0  0  0  0  0  0  0  0  0
    8.4650  -16.1223   21.1749 N   0  0  0  0  0  0  0  0  0  0  0  0
    8.8637  -16.3340   23.5812 C   0  0  0  0  0  0  0  0  0  0  0  0
    8.7842  -17.5764   23.4344 O   0  0  0  0  0  0  0  0  0  0  0  0
    7.7820  -12.7946   24.1926 C   0  0  0  0  0  0  0  0  0  0  0  0
    7.7053  -12.1917   25.4224 C   0  0  0  0  0  0  0  0  0  0  0  0
    9.3250  -15.8808   24.8466 N   0  0  0  0  0  0  0  0  0  0  0  0
   10.0490  -16.7904   25.7530 C   0  0  1  0  0  0  0  0  0  0  0  0
   11.2851  -17.3238   25.0729 C   0  0  0  0  0  0  0  0  0  0  0  0
   10.9919  -18.6531   24.4779 C   0  0  0  0  0  0  0  0  0  0  0  0
   10.5942  -18.9507   23.1925 C   0  0  0  0  0  0  0  0  0  0  0  0
   10.4343  -20.2831   23.1124 N   0  0  0  0  0  0  0  0  0  0  0  0
   10.7158  -20.8389   24.2988 C   0  0  0  0  0  0  0  0  0  0  0  0
   11.0539  -19.8558   25.1295 N   0  0  0  0  0  0  0  0  0  0  0  0
   10.3261  -16.1493   27.0384 C   0  0  0  0  0  0  0  0  0  0  0  0
   10.9378  -16.9551   28.0231 O   0  0  0  0  0  0  0  0  0  0  0  0
   10.0882  -14.9726   27.3707 O   0  0  0  0  0  0  0  0  0  0  0  0
  2  1  1  6
  3  2  1  0
  3  4  1  0
  4  5  2  0
  6  2  1  0
  6  7  2  0
  8  4  1  0
  9 10  1  0
 10 20  2  0
 10 11  1  0
 11 12  2  0
 12 13  1  0
 13 14  1  0
 15 14  1  1
 15 16  1  0
 16  6  1  0
 17 15  1  0
 18 17  2  0
 19 13  2  0
 20 19  1  0
 21 17  1  0
 22 21  1  0
 22 29  1  0
 22 23  1  6
 24 23  1  0
 24 25  2  0
 26 25  1  0
 27 26  1  0
 28 27  2  0
 28 24  1  0
 29 30  1  0
 31 29  2  0
M  END
$$$$
