DYH.pdb
     RDKit          3D

 31 32  0  0  1  0  0  0  0  0999 V2000
   11.0477  -17.3591   19.0439 N   0  0  0  0  0  0  0  0  0  0  0  0
   10.3443  -17.7520   20.2418 C   0  0  1  0  0  0  0  0  0  0  0  0
   11.0961  -18.8168   21.0246 C   0  0  0  0  0  0  0  0  0  0  0  0
   11.0541  -20.1078   20.3216 C   0  0  0  0  0  0  0  0  0  0  0  0
   10.5549  -20.1807   19.1827 O   0  0  0  0  0  0  0  0  0  0  0  0
   10.1969  -16.6020   21.1943 C   0  0  0  0  0  0  0  0  0  0  0  0
   11.1217  -15.8087   21.4794 O   0  0  0  0  0  0  0  0  0  0  0  0
   11.5590  -21.2539   20.8974 O   0  0  0  0  0  0  0  0  0  0  0  0
    8.0585  -12.5690   16.9093 O   0  0  0  0  0  0  0  0  0  0  0  0
    7.9517  -12.9990   18.2450 C   0  0  0  0  0  0  0  0  0  0  0  0
    8.5040  -12.2548   19.2467 C   0  0  0  0  0  0  0  0  0  0  0  0
    8.3742  -12.7163   20.5535 C   0  0  0  0  0  0  0  0  0  0  0  0
    7.7185  -13.8791   20.8674 C   0  0  0  0  0  0  0  0  0  0  0  0
    7.6261  -14.3007   22.2654 C   0  0  0  0  0  0  0  0  0  0  0  0
    8.7733  -15.1826   22.7274 C   0  0  2  0  0  0  0  0  0  0  0  0
    8.9400  -16.3277   21.8616 N   0  0  0  0  0  0  0  0  0  0  0  0
    8.7118  -15.5089   24.1576 C   0  0  0  0  0  0  0  0  0  0  0  0
    7.8463  -16.3247   24.5539 O   0  0  0  0  0  0  0  0  0  0  0  0
    7.1681  -14.6151   19.8454 C   0  0  0  0  0  0  0  0  0  0  0  0
    7.2920  -14.1670   18.5548 C   0  0  0  0  0  0  0  0  0  0  0  0
    9.5670  -14.9686   25.1557 N   0  0  0  0  0  0  0  0  0  0  0  0
    9.4121  -15.3568   26.5693 C   0  0  1  0  0  0  0  0  0  0  0  0
    7.9537  -15.3411   26.9542 C   0  0  0  0  0  0  0  0  0  0  0  0
    7.4580  -13.9407   26.9707 C   0  0  0  0  0  0  0  0  0  0  0  0
    8.1688  -12.7750   26.7843 C   0  0  0  0  0  0  0  0  0  0  0  0
    7.3081  -11.7488   26.8993 N   0  0  0  0  0  0  0  0  0  0  0  0
    6.0799  -12.2220   27.1516 C   0  0  0  0  0  0  0  0  0  0  0  0
    6.1654  -13.5492   27.1961 N   0  0  0  0  0  0  0  0  0  0  0  0
   10.0699  -16.6342   26.8442 C   0  0  0  0  0  0  0  0  0  0  0  0
   10.0086  -17.0984   28.1761 O   0  0  0  0  0  0  0  0  0  0  0  0
   10.6792  -17.3664   26.0416 O   0  0  0  0  0  0  0  0  0  0  0  0
  2  1  1  6
  3  2  1  0
  3  4  1  0
  4  5  2  0
  6  2  1  0
  6  7  2  0
  8  4  1  0
  9 10  1  0
 10 20  2  0
 10 11  1  0
 11 12  2  0
 12 13  1  0
 13 14  1  0
 15 14  1  6
 15 16  1  0
 16  6  1  0
 17 15  1  0
 18 17  2  0
 19 13  2  0
 20 19  1  0
 21 17  1  0
 22 21  1  0
 22 29  1  0
 22 23  1  6
 24 23  1  0
 24 25  2  0
 26 25  1  0
 27 26  1  0
 28 27  2  0
 28 24  1  0
 29 30  1  0
 31 29  2  0
M  END
$$$$
