DYH.pdb
     RDKit          3D

 31 32  0  0  1  0  0  0  0  0999 V2000
   11.3347  -17.2502   19.2893 N   0  0  0  0  0  0  0  0  0  0  0  0
   10.3036  -17.6430   20.2203 C   0  0  1  0  0  0  0  0  0  0  0  0
   10.6381  -18.9454   20.9299 C   0  0  0  0  0  0  0  0  0  0  0  0
   11.0589  -19.9720   19.9645 C   0  0  0  0  0  0  0  0  0  0  0  0
   10.5931  -19.9685   18.8092 O   0  0  0  0  0  0  0  0  0  0  0  0
   10.1418  -16.6335   21.3186 C   0  0  0  0  0  0  0  0  0  0  0  0
   11.0735  -15.9212   21.7549 O   0  0  0  0  0  0  0  0  0  0  0  0
   11.9666  -20.9505   20.3090 O   0  0  0  0  0  0  0  0  0  0  0  0
    6.3041  -11.1865   27.1799 O   0  0  0  0  0  0  0  0  0  0  0  0
    6.5333  -12.1519   26.1820 C   0  0  0  0  0  0  0  0  0  0  0  0
    7.1860  -11.8046   25.0349 C   0  0  0  0  0  0  0  0  0  0  0  0
    7.3924  -12.7908   24.0744 C   0  0  0  0  0  0  0  0  0  0  0  0
    6.9682  -14.0846   24.2374 C   0  0  0  0  0  0  0  0  0  0  0  0
    7.2196  -15.0649   23.1807 C   0  0  0  0  0  0  0  0  0  0  0  0
    8.6871  -15.4009   22.9787 C   0  0  2  0  0  0  0  0  0  0  0  0
    8.8615  -16.4113   21.9604 N   0  0  0  0  0  0  0  0  0  0  0  0
    9.3946  -15.6790   24.2349 C   0  0  0  0  0  0  0  0  0  0  0  0
    9.4371  -14.7864   25.1141 O   0  0  0  0  0  0  0  0  0  0  0  0
    6.3132  -14.4160   25.3994 C   0  0  0  0  0  0  0  0  0  0  0  0
    6.1058  -13.4496   26.3507 C   0  0  0  0  0  0  0  0  0  0  0  0
   10.0508  -16.8998   24.5491 N   0  0  0  0  0  0  0  0  0  0  0  0
   10.7298  -17.0765   25.8456 C   0  0  1  0  0  0  0  0  0  0  0  0
    9.7629  -16.8243   26.9755 C   0  0  0  0  0  0  0  0  0  0  0  0
   10.2062  -15.6401   27.7554 C   0  0  0  0  0  0  0  0  0  0  0  0
   11.2631  -14.7922   27.5047 C   0  0  0  0  0  0  0  0  0  0  0  0
   11.2899  -13.8719   28.4842 N   0  0  0  0  0  0  0  0  0  0  0  0
   10.2898  -14.1063   29.3449 C   0  0  0  0  0  0  0  0  0  0  0  0
    9.6305  -15.1765   28.9081 N   0  0  0  0  0  0  0  0  0  0  0  0
   11.3880  -18.3804   25.9267 C   0  0  0  0  0  0  0  0  0  0  0  0
   11.0822  -19.3031   24.9029 O   0  0  0  0  0  0  0  0  0  0  0  0
   12.1908  -18.7767   26.7928 O   0  0  0  0  0  0  0  0  0  0  0  0
  2  1  1  6
  3  2  1  0
  3  4  1  0
  4  5  2  0
  6  2  1  0
  6  7  2  0
  8  4  1  0
  9 10  1  0
 10 20  2  0
 10 11  1  0
 11 12  2  0
 12 13  1  0
 13 14  1  0
 15 14  1  1
 15 16  1  0
 16  6  1  0
 17 15  1  0
 18 17  2  0
 19 13  2  0
 20 19  1  0
 21 17  1  0
 22 21  1  0
 22 29  1  0
 22 23  1  1
 24 23  1  0
 24 25  2  0
 26 25  1  0
 27 26  1  0
 28 27  2  0
 28 24  1  0
 29 30  1  0
 31 29  2  0
M  END
$$$$
