DYH.pdb
     RDKit          3D

 31 32  0  0  1  0  0  0  0  0999 V2000
    9.6487  -18.4894   19.9819 N   0  0  0  0  0  0  0  0  0  0  0  0
   10.8772  -17.8519   20.3927 C   0  0  1  0  0  0  0  0  0  0  0  0
   11.5764  -17.1561   19.2357 C   0  0  0  0  0  0  0  0  0  0  0  0
   11.8551  -18.1057   18.1478 C   0  0  0  0  0  0  0  0  0  0  0  0
   11.0690  -19.0461   17.9257 O   0  0  0  0  0  0  0  0  0  0  0  0
   10.6238  -16.7692   21.4003 C   0  0  0  0  0  0  0  0  0  0  0  0
   11.5164  -16.0260   21.8657 O   0  0  0  0  0  0  0  0  0  0  0  0
   12.9776  -17.9808   17.3577 O   0  0  0  0  0  0  0  0  0  0  0  0
    6.3214  -11.4331   27.0887 O   0  0  0  0  0  0  0  0  0  0  0  0
    6.6324  -12.3927   26.1075 C   0  0  0  0  0  0  0  0  0  0  0  0
    6.1171  -13.6530   26.1993 C   0  0  0  0  0  0  0  0  0  0  0  0
    6.4496  -14.5706   25.2067 C   0  0  0  0  0  0  0  0  0  0  0  0
    7.2673  -14.2574   24.1514 C   0  0  0  0  0  0  0  0  0  0  0  0
    7.5738  -15.2775   23.1484 C   0  0  0  0  0  0  0  0  0  0  0  0
    9.0582  -15.5349   22.9549 C   0  0  2  0  0  0  0  0  0  0  0  0
    9.2933  -16.5067   21.9113 N   0  0  0  0  0  0  0  0  0  0  0  0
    9.7652  -15.8130   24.2114 C   0  0  0  0  0  0  0  0  0  0  0  0
   10.0780  -14.8522   24.9534 O   0  0  0  0  0  0  0  0  0  0  0  0
    7.7764  -12.9829   24.0753 C   0  0  0  0  0  0  0  0  0  0  0  0
    7.4536  -12.0730   25.0497 C   0  0  0  0  0  0  0  0  0  0  0  0
   10.1349  -17.1059   24.6711 N   0  0  0  0  0  0  0  0  0  0  0  0
   10.4943  -17.3274   26.0835 C   0  0  1  0  0  0  0  0  0  0  0  0
    9.3477  -16.9285   26.9787 C   0  0  0  0  0  0  0  0  0  0  0  0
    9.7178  -15.7146   27.7511 C   0  0  0  0  0  0  0  0  0  0  0  0
   10.8731  -14.9672   27.6762 C   0  0  0  0  0  0  0  0  0  0  0  0
   10.7729  -13.9693   28.5713 N   0  0  0  0  0  0  0  0  0  0  0  0
    9.5977  -14.0578   29.2093 C   0  0  0  0  0  0  0  0  0  0  0  0
    8.9550  -15.1135   28.7163 N   0  0  0  0  0  0  0  0  0  0  0  0
   10.9526  -18.6987   26.3058 C   0  0  0  0  0  0  0  0  0  0  0  0
   11.7029  -18.9277   27.4797 O   0  0  0  0  0  0  0  0  0  0  0  0
   10.7590  -19.6942   25.5825 O   0  0  0  0  0  0  0  0  0  0  0  0
  2  1  1  6
  3  2  1  0
  3  4  1  0
  4  5  2  0
  6  2  1  0
  6  7  2  0
  8  4  1  0
  9 10  1  0
 10 20  2  0
 10 11  1  0
 11 12  2  0
 12 13  1  0
 13 14  1  0
 15 14  1  1
 15 16  1  0
 16  6  1  0
 17 15  1  0
 18 17  2  0
 19 13  2  0
 20 19  1  0
 21 17  1  0
 22 21  1  0
 22 29  1  0
 22 23  1  1
 24 23  1  0
 24 25  2  0
 26 25  1  0
 27 26  1  0
 28 27  2  0
 28 24  1  0
 29 30  1  0
 31 29  2  0
M  END
$$$$
