ENR.pdb
     RDKit          3D

 29 28  0  0  1  0  0  0  0  0999 V2000
   10.4046  -15.6883   13.3257 N   0  0  0  0  0  0  0  0  0  0  0  0
    9.8155  -16.3448   14.4759 C   0  0  1  0  0  0  0  0  0  0  0  0
   10.4198  -17.6977   14.7301 C   0  0  0  0  0  0  0  0  0  0  0  0
   11.9011  -17.6591   14.9098 C   0  0  0  0  0  0  0  0  0  0  0  0
   12.5250  -18.9638   15.1437 C   0  0  0  0  0  0  0  0  0  0  0  0
   11.7851  -19.9834   15.0237 O   0  0  0  0  0  0  0  0  0  0  0  0
   10.1302  -15.4935   15.6784 C   0  0  0  0  0  0  0  0  0  0  0  0
   11.0659  -14.6910   15.6027 O   0  0  0  0  0  0  0  0  0  0  0  0
   13.8409  -19.1965   15.4830 O   0  0  0  0  0  0  0  0  0  0  0  0
    6.4362  -13.1021   19.9288 N   0  0  0  0  0  0  0  0  0  0  0  0
    7.2455  -13.1081   18.7782 C   0  0  0  0  0  0  0  0  0  0  0  0
    7.7017  -11.9817   18.4047 O   0  0  0  0  0  0  0  0  0  0  0  0
    7.6020  -14.2966   17.9826 C   0  0  0  0  0  0  0  0  0  0  0  0
    9.0616  -14.4694   17.7208 C   0  0  2  0  0  0  0  0  0  0  0  0
    9.3834  -15.5970   16.8717 N   0  0  0  0  0  0  0  0  0  0  0  0
    9.8325  -14.5897   18.9803 C   0  0  0  0  0  0  0  0  0  0  0  0
    9.6997  -13.7405   19.9136 O   0  0  0  0  0  0  0  0  0  0  0  0
   16.2796  -13.4769   16.5490 N   0  0  0  0  0  0  0  0  0  0  0  0
   16.4422  -13.8132   17.9412 C   0  0  0  0  0  0  0  0  0  0  0  0
   17.3334  -13.1614   18.5909 N   0  0  0  0  0  0  0  0  0  0  0  0
   15.6513  -14.8172   18.5537 N   0  0  0  0  0  0  0  0  0  0  0  0
   14.2244  -14.6817   18.7056 C   0  0  0  0  0  0  0  0  0  0  0  0
   13.8368  -14.2629   20.1009 C   0  0  0  0  0  0  0  0  0  0  0  0
   12.3534  -14.2734   20.3445 C   0  0  0  0  0  0  0  0  0  0  0  0
   11.7276  -15.6247   20.2890 C   0  0  2  0  0  0  0  0  0  0  0  0
   10.7550  -15.6440   19.2203 N   0  0  0  0  0  0  0  0  0  0  0  0
   11.1113  -16.0843   21.5206 C   0  0  0  0  0  0  0  0  0  0  0  0
   11.8087  -16.9589   22.3405 O   0  0  0  0  0  0  0  0  0  0  0  0
    9.9670  -15.7558   21.9313 O   0  0  0  0  0  0  0  0  0  0  0  0
  2  1  1  6
  3  2  1  0
  4  3  1  0
  5  4  1  0
  5  6  2  0
  7  8  2  0
  7  2  1  0
  9  5  1  0
 11 10  1  0
 12 11  2  0
 14 13  1  1
 13 11  1  0
 14 15  1  0
 15  7  1  0
 16 26  1  0
 16 14  1  0
 17 16  2  0
 19 18  1  0
 19 21  1  0
 20 19  2  0
 22 21  1  0
 23 22  1  0
 24 23  1  0
 25 24  1  1
 25 26  1  0
 27 28  1  0
 27 25  1  0
 29 27  2  0
M  END
$$$$
