ENR.pdb
     RDKit          3D

 29 28  0  0  1  0  0  0  0  0999 V2000
   10.4026  -19.7109   15.5304 N   0  0  0  0  0  0  0  0  0  0  0  0
   11.4841  -20.0330   16.4401 C   0  0  1  0  0  0  0  0  0  0  0  0
   12.6749  -19.1357   16.2485 C   0  0  0  0  0  0  0  0  0  0  0  0
   12.3796  -17.9306   15.4187 C   0  0  0  0  0  0  0  0  0  0  0  0
   13.5364  -17.0734   15.1482 C   0  0  0  0  0  0  0  0  0  0  0  0
   14.2093  -16.6856   16.1473 O   0  0  0  0  0  0  0  0  0  0  0  0
   10.9734  -19.7881   17.8361 C   0  0  0  0  0  0  0  0  0  0  0  0
   10.0900  -18.9406   17.9994 O   0  0  0  0  0  0  0  0  0  0  0  0
   13.9694  -16.6433   13.9119 O   0  0  0  0  0  0  0  0  0  0  0  0
    9.2936  -21.4227   23.0058 N   0  0  0  0  0  0  0  0  0  0  0  0
   10.6159  -21.4065   22.5257 C   0  0  0  0  0  0  0  0  0  0  0  0
   11.5280  -21.2294   23.3935 O   0  0  0  0  0  0  0  0  0  0  0  0
   11.0231  -21.5759   21.1192 C   0  0  0  0  0  0  0  0  0  0  0  0
   11.0052  -20.3281   20.2997 C   0  0  2  0  0  0  0  0  0  0  0  0
   11.4809  -20.5014   18.9433 N   0  0  0  0  0  0  0  0  0  0  0  0
   11.7841  -19.2425   20.9397 C   0  0  0  0  0  0  0  0  0  0  0  0
   13.0228  -19.0988   20.7054 O   0  0  0  0  0  0  0  0  0  0  0  0
    8.6779  -12.0945   19.4865 N   0  0  0  0  0  0  0  0  0  0  0  0
    8.1216  -13.4071   19.2735 C   0  0  0  0  0  0  0  0  0  0  0  0
    7.1627  -13.4962   18.4286 N   0  0  0  0  0  0  0  0  0  0  0  0
    8.6167  -14.5386   19.9687 N   0  0  0  0  0  0  0  0  0  0  0  0
    9.9214  -14.5510   20.5811 C   0  0  0  0  0  0  0  0  0  0  0  0
   10.2811  -15.9085   21.1290 C   0  0  0  0  0  0  0  0  0  0  0  0
   11.6475  -15.9652   21.7534 C   0  0  0  0  0  0  0  0  0  0  0  0
   11.9485  -17.2384   22.4668 C   0  0  2  0  0  0  0  0  0  0  0  0
   11.2057  -18.3091   21.8422 N   0  0  0  0  0  0  0  0  0  0  0  0
   11.6943  -17.2346   23.8962 C   0  0  0  0  0  0  0  0  0  0  0  0
   12.5157  -16.4876   24.7273 O   0  0  0  0  0  0  0  0  0  0  0  0
   10.7698  -17.8642   24.4751 O   0  0  0  0  0  0  0  0  0  0  0  0
  2  1  1  6
  3  2  1  0
  4  3  1  0
  5  4  1  0
  5  6  2  0
  7  8  2  0
  7  2  1  0
  9  5  1  0
 11 10  1  0
 12 11  2  0
 14 13  1  1
 13 11  1  0
 14 15  1  0
 15  7  1  0
 16 26  1  0
 16 14  1  0
 17 16  2  0
 19 18  1  0
 19 21  1  0
 20 19  2  0
 22 21  1  0
 23 22  1  0
 24 23  1  0
 25 24  1  6
 25 26  1  0
 27 28  1  0
 27 25  1  0
 29 27  2  0
M  END
$$$$
