ENR.pdb
     RDKit          3D

 29 28  0  0  1  0  0  0  0  0999 V2000
    8.3718  -14.0736   17.0562 N   0  0  0  0  0  0  0  0  0  0  0  0
    9.2026  -13.3989   18.0337 C   0  0  1  0  0  0  0  0  0  0  0  0
    8.4878  -13.1883   19.3394 C   0  0  0  0  0  0  0  0  0  0  0  0
    7.7688  -14.4039   19.8224 C   0  0  0  0  0  0  0  0  0  0  0  0
    7.0171  -14.2184   21.0661 C   0  0  0  0  0  0  0  0  0  0  0  0
    6.8412  -13.0281   21.4582 O   0  0  0  0  0  0  0  0  0  0  0  0
   10.3726  -14.3045   18.3179 C   0  0  0  0  0  0  0  0  0  0  0  0
   10.2287  -15.5203   18.1557 O   0  0  0  0  0  0  0  0  0  0  0  0
    6.4792  -15.2113   21.8571 O   0  0  0  0  0  0  0  0  0  0  0  0
   15.5084  -15.8428   18.1126 N   0  0  0  0  0  0  0  0  0  0  0  0
   15.2813  -14.7200   18.9293 C   0  0  0  0  0  0  0  0  0  0  0  0
   16.2071  -14.4230   19.7485 O   0  0  0  0  0  0  0  0  0  0  0  0
   14.0751  -13.8729   18.9121 C   0  0  0  0  0  0  0  0  0  0  0  0
   12.7808  -14.6116   19.0019 C   0  0  2  0  0  0  0  0  0  0  0  0
   11.6116  -13.7928   18.7598 N   0  0  0  0  0  0  0  0  0  0  0  0
   12.6249  -15.2840   20.3128 C   0  0  0  0  0  0  0  0  0  0  0  0
   11.6495  -16.0637   20.5375 O   0  0  0  0  0  0  0  0  0  0  0  0
    7.0849  -16.6045   22.6638 N   0  0  0  0  0  0  0  0  0  0  0  0
    7.8802  -15.5208   23.1842 C   0  0  0  0  0  0  0  0  0  0  0  0
    7.3025  -14.3823   23.2919 N   0  0  0  0  0  0  0  0  0  0  0  0
    9.2342  -15.7133   23.5561 N   0  0  0  0  0  0  0  0  0  0  0  0
    9.9661  -16.9014   23.1958 C   0  0  0  0  0  0  0  0  0  0  0  0
   11.4029  -16.8452   23.6481 C   0  0  0  0  0  0  0  0  0  0  0  0
   12.3934  -16.8627   22.5173 C   0  0  0  0  0  0  0  0  0  0  0  0
   13.4725  -15.8406   22.6252 C   0  0  2  0  0  0  0  0  0  0  0  0
   13.5401  -15.1019   21.3850 N   0  0  0  0  0  0  0  0  0  0  0  0
   14.7894  -16.3487   22.9652 C   0  0  0  0  0  0  0  0  0  0  0  0
   15.8202  -16.2249   22.0456 O   0  0  0  0  0  0  0  0  0  0  0  0
   15.0978  -16.9098   24.0496 O   0  0  0  0  0  0  0  0  0  0  0  0
  2  1  1  6
  3  2  1  0
  4  3  1  0
  5  4  1  0
  5  6  2  0
  7  8  2  0
  7  2  1  0
  9  5  1  0
 11 10  1  0
 12 11  2  0
 14 13  1  1
 13 11  1  0
 14 15  1  0
 15  7  1  0
 16 26  1  0
 16 14  1  0
 17 16  2  0
 19 18  1  0
 19 21  1  0
 20 19  2  0
 22 21  1  0
 23 22  1  0
 24 23  1  0
 25 24  1  6
 25 26  1  0
 27 28  1  0
 27 25  1  0
 29 27  2  0
M  END
$$$$
