ENR.pdb
     RDKit          3D

 29 28  0  0  1  0  0  0  0  0999 V2000
   13.2829  -14.5680   17.2483 N   0  0  0  0  0  0  0  0  0  0  0  0
   12.5471  -15.8008   17.0488 C   0  0  1  0  0  0  0  0  0  0  0  0
   13.1390  -16.6460   15.9555 C   0  0  0  0  0  0  0  0  0  0  0  0
   13.1964  -15.9505   14.6361 C   0  0  0  0  0  0  0  0  0  0  0  0
   13.7496  -16.7536   13.5427 C   0  0  0  0  0  0  0  0  0  0  0  0
   14.7399  -17.4920   13.8174 O   0  0  0  0  0  0  0  0  0  0  0  0
   12.6621  -16.5941   18.3244 C   0  0  0  0  0  0  0  0  0  0  0  0
   12.0990  -17.6915   18.3877 O   0  0  0  0  0  0  0  0  0  0  0  0
   13.3008  -16.7877   12.2396 O   0  0  0  0  0  0  0  0  0  0  0  0
   15.3811  -18.4138   19.0718 N   0  0  0  0  0  0  0  0  0  0  0  0
   15.7867  -17.7868   20.2641 C   0  0  0  0  0  0  0  0  0  0  0  0
   17.0086  -17.9262   20.5862 O   0  0  0  0  0  0  0  0  0  0  0  0
   14.9226  -16.9932   21.1564 C   0  0  0  0  0  0  0  0  0  0  0  0
   13.5161  -16.8199   20.6869 C   0  0  2  0  0  0  0  0  0  0  0  0
   13.3922  -16.1101   19.4311 N   0  0  0  0  0  0  0  0  0  0  0  0
   12.6812  -16.1359   21.7019 C   0  0  0  0  0  0  0  0  0  0  0  0
   12.9767  -14.9745   22.1188 O   0  0  0  0  0  0  0  0  0  0  0  0
    7.7571  -12.0149   20.7182 N   0  0  0  0  0  0  0  0  0  0  0  0
    8.0777  -12.9122   19.6367 C   0  0  0  0  0  0  0  0  0  0  0  0
    8.6932  -12.4076   18.6327 N   0  0  0  0  0  0  0  0  0  0  0  0
    7.7258  -14.2841   19.6889 N   0  0  0  0  0  0  0  0  0  0  0  0
    7.7906  -15.0455   20.9109 C   0  0  0  0  0  0  0  0  0  0  0  0
    9.1958  -15.1439   21.4476 C   0  0  0  0  0  0  0  0  0  0  0  0
    9.3045  -15.9497   22.7121 C   0  0  0  0  0  0  0  0  0  0  0  0
   10.6886  -16.0698   23.2512 C   0  0  2  0  0  0  0  0  0  0  0  0
   11.5172  -16.7255   22.2653 N   0  0  0  0  0  0  0  0  0  0  0  0
   10.8106  -16.7532   24.5264 C   0  0  0  0  0  0  0  0  0  0  0  0
   10.2523  -16.1779   25.6581 O   0  0  0  0  0  0  0  0  0  0  0  0
   11.3934  -17.8541   24.7119 O   0  0  0  0  0  0  0  0  0  0  0  0
  2  1  1  1
  3  2  1  0
  4  3  1  0
  5  4  1  0
  5  6  2  0
  7  8  2  0
  7  2  1  0
  9  5  1  0
 11 10  1  0
 12 11  2  0
 14 13  1  1
 13 11  1  0
 14 15  1  0
 15  7  1  0
 16 26  1  0
 16 14  1  0
 17 16  2  0
 19 18  1  0
 19 21  1  0
 20 19  2  0
 22 21  1  0
 23 22  1  0
 24 23  1  0
 25 24  1  6
 25 26  1  0
 27 28  1  0
 27 25  1  0
 29 27  2  0
M  END
$$$$
