ENR.pdb
     RDKit          3D

 29 28  0  0  1  0  0  0  0  0999 V2000
    8.0326  -13.4397   16.6104 N   0  0  0  0  0  0  0  0  0  0  0  0
    7.8449  -14.6840   17.3299 C   0  0  1  0  0  0  0  0  0  0  0  0
    8.8505  -15.7283   16.9322 C   0  0  0  0  0  0  0  0  0  0  0  0
   10.2395  -15.1955   16.8107 C   0  0  0  0  0  0  0  0  0  0  0  0
   11.2567  -16.2007   16.4928 C   0  0  0  0  0  0  0  0  0  0  0  0
   10.8840  -17.1975   15.8080 O   0  0  0  0  0  0  0  0  0  0  0  0
    8.0764  -14.3886   18.7889 C   0  0  0  0  0  0  0  0  0  0  0  0
    7.8463  -13.2477   19.2021 O   0  0  0  0  0  0  0  0  0  0  0  0
   12.5840  -16.1729   16.8646 O   0  0  0  0  0  0  0  0  0  0  0  0
    5.6036  -16.4055   22.7063 N   0  0  0  0  0  0  0  0  0  0  0  0
    6.1952  -15.7236   21.6273 C   0  0  0  0  0  0  0  0  0  0  0  0
    5.7172  -15.9700   20.4753 O   0  0  0  0  0  0  0  0  0  0  0  0
    7.3075  -14.7610   21.7230 C   0  0  0  0  0  0  0  0  0  0  0  0
    8.5929  -15.2158   21.1150 C   0  0  2  0  0  0  0  0  0  0  0  0
    8.5447  -15.3803   19.6774 N   0  0  0  0  0  0  0  0  0  0  0  0
    9.0665  -16.4821   21.7210 C   0  0  0  0  0  0  0  0  0  0  0  0
    8.5432  -16.9358   22.7841 O   0  0  0  0  0  0  0  0  0  0  0  0
   15.3335  -13.0446   17.5731 N   0  0  0  0  0  0  0  0  0  0  0  0
   15.8966  -14.3423   17.8497 C   0  0  0  0  0  0  0  0  0  0  0  0
   17.0437  -14.5936   17.3375 N   0  0  0  0  0  0  0  0  0  0  0  0
   15.2086  -15.2885   18.6498 N   0  0  0  0  0  0  0  0  0  0  0  0
   13.8951  -15.0294   19.1836 C   0  0  0  0  0  0  0  0  0  0  0  0
   13.4184  -16.1374   20.0877 C   0  0  0  0  0  0  0  0  0  0  0  0
   12.0265  -15.9291   20.6163 C   0  0  0  0  0  0  0  0  0  0  0  0
   11.5155  -17.0414   21.4663 C   0  0  2  0  0  0  0  0  0  0  0  0
   10.1192  -17.2564   21.1620 N   0  0  0  0  0  0  0  0  0  0  0  0
   11.6840  -16.8684   22.8979 C   0  0  0  0  0  0  0  0  0  0  0  0
   12.3822  -17.8266   23.6174 O   0  0  0  0  0  0  0  0  0  0  0  0
   11.2434  -15.9010   23.5733 O   0  0  0  0  0  0  0  0  0  0  0  0
  2  1  1  6
  3  2  1  0
  4  3  1  0
  5  4  1  0
  5  6  2  0
  7  8  2  0
  7  2  1  0
  9  5  1  0
 11 10  1  0
 12 11  2  0
 14 13  1  1
 13 11  1  0
 14 15  1  0
 15  7  1  0
 16 26  1  0
 16 14  1  0
 17 16  2  0
 19 18  1  0
 19 21  1  0
 20 19  2  0
 22 21  1  0
 23 22  1  0
 24 23  1  0
 25 24  1  6
 25 26  1  0
 27 28  1  0
 27 25  1  0
 29 27  2  0
M  END
$$$$
