ENR.pdb
     RDKit          3D

 29 28  0  0  1  0  0  0  0  0999 V2000
   13.6767  -15.7964   16.3646 N   0  0  0  0  0  0  0  0  0  0  0  0
   12.2537  -16.0663   16.3098 C   0  0  1  0  0  0  0  0  0  0  0  0
   11.9475  -17.5327   16.4363 C   0  0  0  0  0  0  0  0  0  0  0  0
   12.7066  -18.2026   17.5332 C   0  0  0  0  0  0  0  0  0  0  0  0
   12.5327  -19.6557   17.6012 C   0  0  0  0  0  0  0  0  0  0  0  0
   12.4898  -20.1750   18.7543 O   0  0  0  0  0  0  0  0  0  0  0  0
   11.6299  -15.3861   17.5005 C   0  0  0  0  0  0  0  0  0  0  0  0
   12.3653  -15.0283   18.4259 O   0  0  0  0  0  0  0  0  0  0  0  0
   12.4107  -20.5195   16.5337 O   0  0  0  0  0  0  0  0  0  0  0  0
    8.1637  -12.7710   20.6058 N   0  0  0  0  0  0  0  0  0  0  0  0
    7.6122  -13.0662   19.3457 C   0  0  0  0  0  0  0  0  0  0  0  0
    6.4562  -12.5918   19.1118 O   0  0  0  0  0  0  0  0  0  0  0  0
    8.2566  -13.8690   18.2907 C   0  0  0  0  0  0  0  0  0  0  0  0
    9.6013  -14.4145   18.6418 C   0  0  2  0  0  0  0  0  0  0  0  0
   10.2394  -15.1547   17.5736 N   0  0  0  0  0  0  0  0  0  0  0  0
    9.5445  -15.2753   19.8462 C   0  0  0  0  0  0  0  0  0  0  0  0
    9.7803  -16.5199   19.7739 O   0  0  0  0  0  0  0  0  0  0  0  0
   15.6339  -18.5998   22.1295 N   0  0  0  0  0  0  0  0  0  0  0  0
   14.4799  -19.3596   21.7191 C   0  0  0  0  0  0  0  0  0  0  0  0
   14.7039  -20.4884   21.1560 N   0  0  0  0  0  0  0  0  0  0  0  0
   13.1651  -18.8747   21.9314 N   0  0  0  0  0  0  0  0  0  0  0  0
   12.8899  -17.4765   22.1472 C   0  0  0  0  0  0  0  0  0  0  0  0
   11.4113  -17.1891   22.2068 C   0  0  0  0  0  0  0  0  0  0  0  0
   11.0837  -15.7246   22.2963 C   0  0  0  0  0  0  0  0  0  0  0  0
    9.6265  -15.4205   22.3657 C   0  0  2  0  0  0  0  0  0  0  0  0
    9.2268  -14.7727   21.1372 N   0  0  0  0  0  0  0  0  0  0  0  0
    9.2035  -14.6209   23.5013 C   0  0  0  0  0  0  0  0  0  0  0  0
    9.2727  -15.1652   24.7750 O   0  0  0  0  0  0  0  0  0  0  0  0
    8.7650  -13.4418   23.4412 O   0  0  0  0  0  0  0  0  0  0  0  0
  2  1  1  1
  3  2  1  0
  4  3  1  0
  5  4  1  0
  5  6  2  0
  7  8  2  0
  7  2  1  0
  9  5  1  0
 11 10  1  0
 12 11  2  0
 14 13  1  6
 13 11  1  0
 14 15  1  0
 15  7  1  0
 16 26  1  0
 16 14  1  0
 17 16  2  0
 19 18  1  0
 19 21  1  0
 20 19  2  0
 22 21  1  0
 23 22  1  0
 24 23  1  0
 25 24  1  6
 25 26  1  0
 27 28  1  0
 27 25  1  0
 29 27  2  0
M  END
$$$$
