ENR.pdb
     RDKit          3D

 29 28  0  0  1  0  0  0  0  0999 V2000
    8.5837  -12.4822   19.5984 N   0  0  0  0  0  0  0  0  0  0  0  0
    8.3966  -13.8936   19.8704 C   0  0  1  0  0  0  0  0  0  0  0  0
    9.4806  -14.7389   19.2617 C   0  0  0  0  0  0  0  0  0  0  0  0
   10.7717  -14.0100   19.0889 C   0  0  0  0  0  0  0  0  0  0  0  0
   11.7951  -14.7439   18.3403 C   0  0  0  0  0  0  0  0  0  0  0  0
   12.8940  -14.1500   18.1375 O   0  0  0  0  0  0  0  0  0  0  0  0
    8.4916  -14.0710   21.3634 C   0  0  0  0  0  0  0  0  0  0  0  0
    9.2008  -13.2896   22.0050 O   0  0  0  0  0  0  0  0  0  0  0  0
   11.6840  -16.0205   17.8316 O   0  0  0  0  0  0  0  0  0  0  0  0
    6.5678  -14.7858   26.5381 N   0  0  0  0  0  0  0  0  0  0  0  0
    6.3759  -15.7102   25.4951 C   0  0  0  0  0  0  0  0  0  0  0  0
    6.1540  -16.9129   25.8423 O   0  0  0  0  0  0  0  0  0  0  0  0
    6.4106  -15.4017   24.0541 C   0  0  0  0  0  0  0  0  0  0  0  0
    7.7769  -15.2620   23.4688 C   0  0  2  0  0  0  0  0  0  0  0  0
    7.7932  -15.1006   22.0301 N   0  0  0  0  0  0  0  0  0  0  0  0
    8.6448  -16.4082   23.8266 C   0  0  0  0  0  0  0  0  0  0  0  0
    8.7754  -17.4000   23.0461 O   0  0  0  0  0  0  0  0  0  0  0  0
   13.9152  -20.3928   31.1098 N   0  0  0  0  0  0  0  0  0  0  0  0
   12.6655  -20.0251   30.4928 C   0  0  0  0  0  0  0  0  0  0  0  0
   11.6205  -20.0778   31.2321 N   0  0  0  0  0  0  0  0  0  0  0  0
   12.6041  -19.6261   29.1342 N   0  0  0  0  0  0  0  0  0  0  0  0
   11.7468  -18.5569   28.6878 C   0  0  0  0  0  0  0  0  0  0  0  0
   11.8140  -18.3577   27.1951 C   0  0  0  0  0  0  0  0  0  0  0  0
   10.9085  -17.2693   26.6896 C   0  0  0  0  0  0  0  0  0  0  0  0
   10.1737  -17.6083   25.4382 C   0  0  2  0  0  0  0  0  0  0  0  0
    9.3731  -16.4712   25.0455 N   0  0  0  0  0  0  0  0  0  0  0  0
    9.3410  -18.7961   25.4991 C   0  0  0  0  0  0  0  0  0  0  0  0
    9.8679  -20.0131   25.0930 O   0  0  0  0  0  0  0  0  0  0  0  0
    8.1470  -18.8310   25.8980 O   0  0  0  0  0  0  0  0  0  0  0  0
  2  1  1  1
  3  2  1  0
  4  3  1  0
  5  4  1  0
  5  6  2  0
  7  8  2  0
  7  2  1  0
  9  5  1  0
 11 10  1  0
 12 11  2  0
 14 13  1  6
 13 11  1  0
 14 15  1  0
 15  7  1  0
 16 26  1  0
 16 14  1  0
 17 16  2  0
 19 18  1  0
 19 21  1  0
 20 19  2  0
 22 21  1  0
 23 22  1  0
 24 23  1  0
 25 24  1  1
 25 26  1  0
 27 28  1  0
 27 25  1  0
 29 27  2  0
M  END
$$$$
