ENR.pdb
     RDKit          3D

 29 28  0  0  1  0  0  0  0  0999 V2000
   15.7198  -21.2802   24.2731 N   0  0  0  0  0  0  0  0  0  0  0  0
   15.5252  -20.2955   25.3189 C   0  0  1  0  0  0  0  0  0  0  0  0
   15.1839  -18.9395   24.7669 C   0  0  0  0  0  0  0  0  0  0  0  0
   16.2987  -18.3189   23.9923 C   0  0  0  0  0  0  0  0  0  0  0  0
   16.0051  -16.9886   23.4533 C   0  0  0  0  0  0  0  0  0  0  0  0
   15.2974  -16.9374   22.4056 O   0  0  0  0  0  0  0  0  0  0  0  0
   14.3406  -20.7459   26.1334 C   0  0  0  0  0  0  0  0  0  0  0  0
   13.4555  -21.4001   25.5730 O   0  0  0  0  0  0  0  0  0  0  0  0
   16.4225  -15.7813   23.9721 O   0  0  0  0  0  0  0  0  0  0  0  0
   12.0389  -20.7155   32.0075 N   0  0  0  0  0  0  0  0  0  0  0  0
   12.2410  -21.1031   30.6703 C   0  0  0  0  0  0  0  0  0  0  0  0
   11.3886  -21.9108   30.1832 O   0  0  0  0  0  0  0  0  0  0  0  0
   13.3443  -20.6553   29.8015 C   0  0  0  0  0  0  0  0  0  0  0  0
   13.1235  -20.8620   28.3396 C   0  0  2  0  0  0  0  0  0  0  0  0
   14.2283  -20.4367   27.5060 N   0  0  0  0  0  0  0  0  0  0  0  0
   11.8903  -20.1869   27.8721 C   0  0  0  0  0  0  0  0  0  0  0  0
   11.8523  -18.9288   27.7122 O   0  0  0  0  0  0  0  0  0  0  0  0
    3.5280  -23.4385   24.7968 N   0  0  0  0  0  0  0  0  0  0  0  0
    4.8084  -22.9654   24.3339 C   0  0  0  0  0  0  0  0  0  0  0  0
    5.2241  -23.4302   23.2148 N   0  0  0  0  0  0  0  0  0  0  0  0
    5.5644  -22.0318   25.0859 N   0  0  0  0  0  0  0  0  0  0  0  0
    6.8282  -21.5179   24.6210 C   0  0  0  0  0  0  0  0  0  0  0  0
    7.4844  -20.6156   25.6347 C   0  0  0  0  0  0  0  0  0  0  0  0
    8.7703  -21.1634   26.1883 C   0  0  0  0  0  0  0  0  0  0  0  0
    9.4786  -20.2480   27.1270 C   0  0  2  0  0  0  0  0  0  0  0  0
   10.6912  -20.8914   27.5789 N   0  0  0  0  0  0  0  0  0  0  0  0
    8.7064  -19.7991   28.2716 C   0  0  0  0  0  0  0  0  0  0  0  0
    7.8474  -18.7199   28.1267 O   0  0  0  0  0  0  0  0  0  0  0  0
    8.7411  -20.3107   29.4218 O   0  0  0  0  0  0  0  0  0  0  0  0
  2  1  1  6
  3  2  1  0
  4  3  1  0
  5  4  1  0
  5  6  2  0
  7  8  2  0
  7  2  1  0
  9  5  1  0
 11 10  1  0
 12 11  2  0
 14 13  1  1
 13 11  1  0
 14 15  1  0
 15  7  1  0
 16 26  1  0
 16 14  1  0
 17 16  2  0
 19 18  1  0
 19 21  1  0
 20 19  2  0
 22 21  1  0
 23 22  1  0
 24 23  1  0
 25 24  1  1
 25 26  1  0
 27 28  1  0
 27 25  1  0
 29 27  2  0
M  END
$$$$
