ENR.pdb
     RDKit          3D

 29 28  0  0  1  0  0  0  0  0999 V2000
   10.7868  -14.5793   17.9304 N   0  0  0  0  0  0  0  0  0  0  0  0
   11.2499  -15.9514   17.8677 C   0  0  1  0  0  0  0  0  0  0  0  0
   11.0197  -16.5683   16.5162 C   0  0  0  0  0  0  0  0  0  0  0  0
   11.4934  -15.7136   15.3879 C   0  0  0  0  0  0  0  0  0  0  0  0
   11.2812  -16.2838   14.0551 C   0  0  0  0  0  0  0  0  0  0  0  0
   10.2545  -15.8990   13.4233 O   0  0  0  0  0  0  0  0  0  0  0  0
   12.7402  -15.9241   18.0866 C   0  0  0  0  0  0  0  0  0  0  0  0
   13.3558  -16.9947   18.0799 O   0  0  0  0  0  0  0  0  0  0  0  0
   12.0881  -17.2006   13.4156 O   0  0  0  0  0  0  0  0  0  0  0  0
   17.7860  -14.3876   18.4948 N   0  0  0  0  0  0  0  0  0  0  0  0
   16.9522  -13.3216   18.1104 C   0  0  0  0  0  0  0  0  0  0  0  0
   17.5365  -12.2537   17.7435 O   0  0  0  0  0  0  0  0  0  0  0  0
   15.4784  -13.3424   18.0988 C   0  0  0  0  0  0  0  0  0  0  0  0
   14.8595  -14.6305   18.5307 C   0  0  2  0  0  0  0  0  0  0  0  0
   13.4332  -14.7123   18.2960 N   0  0  0  0  0  0  0  0  0  0  0  0
   15.1207  -14.9098   19.9620 C   0  0  0  0  0  0  0  0  0  0  0  0
   14.4631  -14.3231   20.8748 O   0  0  0  0  0  0  0  0  0  0  0  0
   12.4247  -20.6846   24.4199 N   0  0  0  0  0  0  0  0  0  0  0  0
   12.4679  -20.1366   23.0875 C   0  0  0  0  0  0  0  0  0  0  0  0
   12.1699  -20.9314   22.1278 N   0  0  0  0  0  0  0  0  0  0  0  0
   12.8237  -18.7840   22.8585 N   0  0  0  0  0  0  0  0  0  0  0  0
   14.1638  -18.2979   23.0710 C   0  0  0  0  0  0  0  0  0  0  0  0
   14.9648  -18.2577   21.7947 C   0  0  0  0  0  0  0  0  0  0  0  0
   16.3230  -17.6328   21.9533 C   0  0  0  0  0  0  0  0  0  0  0  0
   16.3448  -16.1519   21.7879 C   0  0  2  0  0  0  0  0  0  0  0  0
   16.1077  -15.8349   20.3981 N   0  0  0  0  0  0  0  0  0  0  0  0
   17.5514  -15.4852   22.2436 C   0  0  0  0  0  0  0  0  0  0  0  0
   17.4776  -14.6152   23.3212 O   0  0  0  0  0  0  0  0  0  0  0  0
   18.6970  -15.6239   21.7393 O   0  0  0  0  0  0  0  0  0  0  0  0
  2  1  1  6
  3  2  1  0
  4  3  1  0
  5  4  1  0
  5  6  2  0
  7  8  2  0
  7  2  1  0
  9  5  1  0
 11 10  1  0
 12 11  2  0
 14 13  1  1
 13 11  1  0
 14 15  1  0
 15  7  1  0
 16 26  1  0
 16 14  1  0
 17 16  2  0
 19 18  1  0
 19 21  1  0
 20 19  2  0
 22 21  1  0
 23 22  1  0
 24 23  1  0
 25 24  1  6
 25 26  1  0
 27 28  1  0
 27 25  1  0
 29 27  2  0
M  END
$$$$
