ENR.pdb
     RDKit          3D

 29 28  0  0  1  0  0  0  0  0999 V2000
   11.4570  -16.2901   18.9090 N   0  0  0  0  0  0  0  0  0  0  0  0
   10.3460  -16.9362   19.5792 C   0  0  1  0  0  0  0  0  0  0  0  0
   10.4846  -18.4330   19.5963 C   0  0  0  0  0  0  0  0  0  0  0  0
   10.4210  -19.0481   18.2378 C   0  0  0  0  0  0  0  0  0  0  0  0
   10.3761  -20.5124   18.2287 C   0  0  0  0  0  0  0  0  0  0  0  0
   10.2442  -21.0754   17.1031 O   0  0  0  0  0  0  0  0  0  0  0  0
   10.3711  -16.4792   21.0145 C   0  0  0  0  0  0  0  0  0  0  0  0
   11.4506  -16.4830   21.6145 O   0  0  0  0  0  0  0  0  0  0  0  0
   10.4629  -21.3440   19.3248 O   0  0  0  0  0  0  0  0  0  0  0  0
    8.8864  -14.5777   25.7871 N   0  0  0  0  0  0  0  0  0  0  0  0
    8.0271  -14.1661   24.7520 C   0  0  0  0  0  0  0  0  0  0  0  0
    7.1266  -13.3261   25.0682 O   0  0  0  0  0  0  0  0  0  0  0  0
    8.0854  -14.6231   23.3518 C   0  0  0  0  0  0  0  0  0  0  0  0
    9.1648  -15.6100   23.0519 C   0  0  2  0  0  0  0  0  0  0  0  0
    9.1981  -16.0533   21.6741 N   0  0  0  0  0  0  0  0  0  0  0  0
    9.0771  -16.7999   23.9303 C   0  0  0  0  0  0  0  0  0  0  0  0
    8.2353  -17.7216   23.7029 O   0  0  0  0  0  0  0  0  0  0  0  0
   12.9925  -21.4759   31.7387 N   0  0  0  0  0  0  0  0  0  0  0  0
   12.9771  -20.3345   30.8585 C   0  0  0  0  0  0  0  0  0  0  0  0
   13.6743  -19.3212   31.2170 N   0  0  0  0  0  0  0  0  0  0  0  0
   12.2250  -20.3407   29.6573 N   0  0  0  0  0  0  0  0  0  0  0  0
   12.1755  -19.1994   28.7785 C   0  0  0  0  0  0  0  0  0  0  0  0
   11.2059  -19.3970   27.6414 C   0  0  0  0  0  0  0  0  0  0  0  0
   11.1236  -18.2225   26.7066 C   0  0  0  0  0  0  0  0  0  0  0  0
    9.8655  -18.1529   25.9108 C   0  0  2  0  0  0  0  0  0  0  0  0
    9.9137  -16.9825   25.0647 N   0  0  0  0  0  0  0  0  0  0  0  0
    8.6337  -18.1517   26.6793 C   0  0  0  0  0  0  0  0  0  0  0  0
    8.1311  -19.3542   27.1535 O   0  0  0  0  0  0  0  0  0  0  0  0
    7.9539  -17.1314   26.9672 O   0  0  0  0  0  0  0  0  0  0  0  0
  2  1  1  6
  3  2  1  0
  4  3  1  0
  5  4  1  0
  5  6  2  0
  7  8  2  0
  7  2  1  0
  9  5  1  0
 11 10  1  0
 12 11  2  0
 14 13  1  6
 13 11  1  0
 14 15  1  0
 15  7  1  0
 16 26  1  0
 16 14  1  0
 17 16  2  0
 19 18  1  0
 19 21  1  0
 20 19  2  0
 22 21  1  0
 23 22  1  0
 24 23  1  0
 25 24  1  1
 25 26  1  0
 27 28  1  0
 27 25  1  0
 29 27  2  0
M  END
$$$$
