ENR.pdb
     RDKit          3D

 29 28  0  0  1  0  0  0  0  0999 V2000
    5.9889  -18.7429   17.9762 N   0  0  0  0  0  0  0  0  0  0  0  0
    7.3906  -18.5484   18.2899 C   0  0  1  0  0  0  0  0  0  0  0  0
    7.9063  -17.2261   17.7943 C   0  0  0  0  0  0  0  0  0  0  0  0
    7.7564  -17.0482   16.3199 C   0  0  0  0  0  0  0  0  0  0  0  0
    8.1766  -15.7391   15.8139 C   0  0  0  0  0  0  0  0  0  0  0  0
    8.7126  -14.9483   16.6438 O   0  0  0  0  0  0  0  0  0  0  0  0
    7.5071  -18.5269   19.7918 C   0  0  0  0  0  0  0  0  0  0  0  0
    6.6197  -17.9670   20.4430 O   0  0  0  0  0  0  0  0  0  0  0  0
    8.0477  -15.2777   14.5212 O   0  0  0  0  0  0  0  0  0  0  0  0
    9.2866  -22.6491   21.2483 N   0  0  0  0  0  0  0  0  0  0  0  0
    8.7387  -21.6391   22.0600 C   0  0  0  0  0  0  0  0  0  0  0  0
    7.5672  -21.8492   22.5067 O   0  0  0  0  0  0  0  0  0  0  0  0
    9.4032  -20.3761   22.4288 C   0  0  0  0  0  0  0  0  0  0  0  0
    8.7569  -19.1407   21.8949 C   0  0  2  0  0  0  0  0  0  0  0  0
    8.5980  -19.1279   20.4559 N   0  0  0  0  0  0  0  0  0  0  0  0
    9.4917  -17.9200   22.3012 C   0  0  0  0  0  0  0  0  0  0  0  0
   10.6080  -17.6221   21.7767 O   0  0  0  0  0  0  0  0  0  0  0  0
    6.2812  -10.4154   25.6008 N   0  0  0  0  0  0  0  0  0  0  0  0
    6.0539  -11.5788   26.4209 C   0  0  0  0  0  0  0  0  0  0  0  0
    5.3414  -11.4120   27.4725 N   0  0  0  0  0  0  0  0  0  0  0  0
    6.5958  -12.8416   26.0741 N   0  0  0  0  0  0  0  0  0  0  0  0
    7.5330  -13.0017   24.9909 C   0  0  0  0  0  0  0  0  0  0  0  0
    7.9016  -14.4458   24.7646 C   0  0  0  0  0  0  0  0  0  0  0  0
    8.8076  -14.6602   23.5842 C   0  0  0  0  0  0  0  0  0  0  0  0
    9.7158  -15.8352   23.7078 C   0  0  2  0  0  0  0  0  0  0  0  0
    9.0038  -17.0204   23.2875 N   0  0  0  0  0  0  0  0  0  0  0  0
   10.2919  -16.0502   25.0230 C   0  0  0  0  0  0  0  0  0  0  0  0
    9.9409  -17.1858   25.7377 O   0  0  0  0  0  0  0  0  0  0  0  0
   11.1065  -15.2809   25.5979 O   0  0  0  0  0  0  0  0  0  0  0  0
  2  1  1  1
  3  2  1  0
  4  3  1  0
  5  4  1  0
  5  6  2  0
  7  8  2  0
  7  2  1  0
  9  5  1  0
 11 10  1  0
 12 11  2  0
 14 13  1  6
 13 11  1  0
 14 15  1  0
 15  7  1  0
 16 26  1  0
 16 14  1  0
 17 16  2  0
 19 18  1  0
 19 21  1  0
 20 19  2  0
 22 21  1  0
 23 22  1  0
 24 23  1  0
 25 24  1  1
 25 26  1  0
 27 28  1  0
 27 25  1  0
 29 27  2  0
M  END
$$$$
