ENR.pdb
     RDKit          3D

 29 28  0  0  1  0  0  0  0  0999 V2000
   14.1190  -20.8310   13.8531 N   0  0  0  0  0  0  0  0  0  0  0  0
   15.2120  -20.4932   14.7433 C   0  0  1  0  0  0  0  0  0  0  0  0
   16.1091  -19.4339   14.1661 C   0  0  0  0  0  0  0  0  0  0  0  0
   15.7150  -19.0111   12.7899 C   0  0  0  0  0  0  0  0  0  0  0  0
   16.5471  -17.9534   12.2110 C   0  0  0  0  0  0  0  0  0  0  0  0
   17.7940  -18.0290   12.4133 O   0  0  0  0  0  0  0  0  0  0  0  0
   14.6002  -19.9138   15.9921 C   0  0  0  0  0  0  0  0  0  0  0  0
   15.3529  -19.5343   16.8947 O   0  0  0  0  0  0  0  0  0  0  0  0
   16.1100  -16.8792   11.4656 O   0  0  0  0  0  0  0  0  0  0  0  0
   10.4871  -20.0681   15.1666 N   0  0  0  0  0  0  0  0  0  0  0  0
   10.2681  -19.2878   16.3166 C   0  0  0  0  0  0  0  0  0  0  0  0
    9.0765  -19.2587   16.7589 O   0  0  0  0  0  0  0  0  0  0  0  0
   11.2930  -18.5131   17.0392 C   0  0  0  0  0  0  0  0  0  0  0  0
   12.5618  -19.2481   17.3201 C   0  0  2  0  0  0  0  0  0  0  0  0
   13.2016  -19.7995   16.1442 N   0  0  0  0  0  0  0  0  0  0  0  0
   12.3562  -20.3380   18.3024 C   0  0  0  0  0  0  0  0  0  0  0  0
   12.3230  -21.5524   17.9364 O   0  0  0  0  0  0  0  0  0  0  0  0
   12.1323  -20.9947   27.0514 N   0  0  0  0  0  0  0  0  0  0  0  0
   12.9548  -22.1148   26.6687 C   0  0  0  0  0  0  0  0  0  0  0  0
   13.4177  -22.8404   27.6178 N   0  0  0  0  0  0  0  0  0  0  0  0
   13.2333  -22.3930   25.3072 N   0  0  0  0  0  0  0  0  0  0  0  0
   13.2630  -21.3582   24.3044 C   0  0  0  0  0  0  0  0  0  0  0  0
   12.5624  -21.7733   23.0359 C   0  0  0  0  0  0  0  0  0  0  0  0
   12.5806  -20.7200   21.9633 C   0  0  0  0  0  0  0  0  0  0  0  0
   11.9892  -21.1501   20.6648 C   0  0  2  0  0  0  0  0  0  0  0  0
   12.1848  -20.0987   19.6929 N   0  0  0  0  0  0  0  0  0  0  0  0
   10.5872  -21.5254   20.7051 C   0  0  0  0  0  0  0  0  0  0  0  0
   10.2468  -22.8399   20.9876 O   0  0  0  0  0  0  0  0  0  0  0  0
    9.6172  -20.7484   20.5018 O   0  0  0  0  0  0  0  0  0  0  0  0
  2  1  1  6
  3  2  1  0
  4  3  1  0
  5  4  1  0
  5  6  2  0
  7  8  2  0
  7  2  1  0
  9  5  1  0
 11 10  1  0
 12 11  2  0
 14 13  1  6
 13 11  1  0
 14 15  1  0
 15  7  1  0
 16 26  1  0
 16 14  1  0
 17 16  2  0
 19 18  1  0
 19 21  1  0
 20 19  2  0
 22 21  1  0
 23 22  1  0
 24 23  1  0
 25 24  1  1
 25 26  1  0
 27 28  1  0
 27 25  1  0
 29 27  2  0
M  END
$$$$
