ENR.pdb
     RDKit          3D

 29 28  0  0  1  0  0  0  0  0999 V2000
   10.0558  -16.3822   14.2934 N   0  0  0  0  0  0  0  0  0  0  0  0
   11.0425  -16.5624   15.3397 C   0  0  1  0  0  0  0  0  0  0  0  0
   12.4373  -16.2657   14.8636 C   0  0  0  0  0  0  0  0  0  0  0  0
   12.8221  -17.0360   13.6444 C   0  0  0  0  0  0  0  0  0  0  0  0
   14.1800  -17.5855   13.6691 C   0  0  0  0  0  0  0  0  0  0  0  0
   15.0786  -16.9214   13.0750 O   0  0  0  0  0  0  0  0  0  0  0  0
   10.7277  -15.5603   16.4197 C   0  0  0  0  0  0  0  0  0  0  0  0
   11.4408  -14.5568   16.5174 O   0  0  0  0  0  0  0  0  0  0  0  0
   14.5816  -18.7569   14.2752 O   0  0  0  0  0  0  0  0  0  0  0  0
    8.1970  -12.8990   20.3008 N   0  0  0  0  0  0  0  0  0  0  0  0
    7.7077  -12.9486   18.9827 C   0  0  0  0  0  0  0  0  0  0  0  0
    6.7929  -12.1156   18.6899 O   0  0  0  0  0  0  0  0  0  0  0  0
    8.1631  -13.8740   17.9297 C   0  0  0  0  0  0  0  0  0  0  0  0
    9.2691  -14.7937   18.3293 C   0  0  2  0  0  0  0  0  0  0  0  0
    9.6468  -15.7477   17.3078 N   0  0  0  0  0  0  0  0  0  0  0  0
    8.9434  -15.5334   19.5710 C   0  0  0  0  0  0  0  0  0  0  0  0
    7.8117  -15.4078   20.1308 O   0  0  0  0  0  0  0  0  0  0  0  0
   16.8113  -14.8591   17.6030 N   0  0  0  0  0  0  0  0  0  0  0  0
   15.7922  -14.3225   18.4696 C   0  0  0  0  0  0  0  0  0  0  0  0
   15.8135  -13.0572   18.6693 N   0  0  0  0  0  0  0  0  0  0  0  0
   14.8181  -15.1603   19.0679 N   0  0  0  0  0  0  0  0  0  0  0  0
   13.8328  -14.6526   19.9891 C   0  0  0  0  0  0  0  0  0  0  0  0
   12.7260  -15.6438   20.2437 C   0  0  0  0  0  0  0  0  0  0  0  0
   11.6352  -15.1162   21.1336 C   0  0  0  0  0  0  0  0  0  0  0  0
   10.5534  -16.0964   21.4327 C   0  0  2  0  0  0  0  0  0  0  0  0
    9.8607  -16.4147   20.2050 N   0  0  0  0  0  0  0  0  0  0  0  0
    9.5952  -15.6877   22.4440 C   0  0  0  0  0  0  0  0  0  0  0  0
    9.7250  -16.1763   23.7355 O   0  0  0  0  0  0  0  0  0  0  0  0
    8.6251  -14.9066   22.2573 O   0  0  0  0  0  0  0  0  0  0  0  0
  2  1  1  6
  3  2  1  0
  4  3  1  0
  5  4  1  0
  5  6  2  0
  7  8  2  0
  7  2  1  0
  9  5  1  0
 11 10  1  0
 12 11  2  0
 14 13  1  6
 13 11  1  0
 14 15  1  0
 15  7  1  0
 16 26  1  0
 16 14  1  0
 17 16  2  0
 19 18  1  0
 19 21  1  0
 20 19  2  0
 22 21  1  0
 23 22  1  0
 24 23  1  0
 25 24  1  6
 25 26  1  0
 27 28  1  0
 27 25  1  0
 29 27  2  0
M  END
$$$$
