WFC.pdb
     RDKit          3D

 32 34  0  0  1  0  0  0  0  0999 V2000
    6.2886  -20.3979   21.5578 N   0  0  0  0  0  0  0  0  0  0  0  0
    6.3026  -20.0298   22.9577 C   0  0  1  0  0  0  0  0  0  0  0  0
    7.1903  -21.0130   23.6853 C   0  0  0  0  0  0  0  0  0  0  0  0
    6.6236  -22.3959   23.6392 C   0  0  0  0  0  0  0  0  0  0  0  0
    7.1824  -23.5211   23.1064 C   0  0  0  0  0  0  0  0  0  0  0  0
    6.3168  -24.5310   23.2923 N   0  0  0  0  0  0  0  0  0  0  0  0
    5.2095  -24.0969   23.9310 C   0  0  0  0  0  0  0  0  0  0  0  0
    4.0521  -24.7566   24.3393 C   0  0  0  0  0  0  0  0  0  0  0  0
    3.0506  -24.0669   24.9852 C   0  0  0  0  0  0  0  0  0  0  0  0
    3.2340  -22.7190   25.2092 C   0  0  0  0  0  0  0  0  0  0  0  0
    4.3868  -22.0677   24.8012 C   0  0  0  0  0  0  0  0  0  0  0  0
    5.4006  -22.7503   24.1509 C   0  0  0  0  0  0  0  0  0  0  0  0
    6.8735  -18.6808   23.1130 C   0  0  0  0  0  0  0  0  0  0  0  0
    7.6161  -18.1753   22.2272 O   0  0  0  0  0  0  0  0  0  0  0  0
    6.6122  -17.8968   24.2625 N   0  0  0  0  0  0  0  0  0  0  0  0
    7.1835  -16.5729   24.4453 C   0  0  1  0  0  0  0  0  0  0  0  0
    6.3872  -15.8778   25.5184 C   0  0  0  0  0  0  0  0  0  0  0  0
    6.8681  -14.5368   25.8606 C   0  0  0  0  0  0  0  0  0  0  0  0
    6.8287  -13.4374   25.0294 C   0  0  0  0  0  0  0  0  0  0  0  0
    7.3142  -12.2020   25.4496 C   0  0  0  0  0  0  0  0  0  0  0  0
    7.8467  -12.0540   26.7123 C   0  0  0  0  0  0  0  0  0  0  0  0
    7.8944  -13.1437   27.5583 C   0  0  0  0  0  0  0  0  0  0  0  0
    7.4087  -14.3454   27.1154 C   0  0  0  0  0  0  0  0  0  0  0  0
    8.5724  -16.7711   24.9652 C   0  0  0  0  0  0  0  0  0  0  0  0
    8.8119  -17.4689   25.9788 O   0  0  0  0  0  0  0  0  0  0  0  0
    9.6944  -16.1545   24.3038 N   0  0  0  0  0  0  0  0  0  0  0  0
   11.0546  -16.5061   24.5694 C   0  0  1  0  0  0  0  0  0  0  0  0
   11.8231  -16.4569   23.2742 C   0  0  0  0  0  0  0  0  0  0  0  0
   11.6779  -14.8310   22.4887 S   0  0  0  0  0  0  0  0  0  0  0  0
   11.6608  -15.6182   25.5988 C   0  0  0  0  0  0  0  0  0  0  0  0
   12.9058  -15.8844   26.0930 O   0  0  0  0  0  0  0  0  0  0  0  0
   11.0115  -14.6373   25.9938 O   0  0  0  0  0  0  0  0  0  0  0  0
  2  1  1  6
  3  2  1  0
  4  3  1  0
  4  5  2  0
  6  5  1  0
  7  6  1  0
  8  7  2  0
  9  8  1  0
 10  9  2  0
 10 11  1  0
 11 12  2  0
 12  7  1  0
 12  4  1  0
 13  2  1  0
 13 14  2  0
 15 16  1  0
 15 13  1  0
 16 17  1  1
 18 17  1  0
 19 18  2  0
 20 19  1  0
 21 20  2  0
 21 22  1  0
 22 23  2  0
 23 18  1  0
 24 16  1  0
 25 24  2  0
 26 24  1  0
 27 26  1  0
 27 30  1  0
 27 28  1  6
 29 28  1  0
 30 31  1  0
 32 30  2  0
M  END
$$$$
