WFC.pdb
     RDKit          3D

 32 34  0  0  1  0  0  0  0  0999 V2000
    7.0331  -19.0759   25.3489 N   0  0  0  0  0  0  0  0  0  0  0  0
    6.8636  -17.6583   25.1099 C   0  0  1  0  0  0  0  0  0  0  0  0
    7.5491  -16.9149   26.2332 C   0  0  0  0  0  0  0  0  0  0  0  0
    6.8990  -15.5928   26.4877 C   0  0  0  0  0  0  0  0  0  0  0  0
    5.5667  -15.3041   26.5510 C   0  0  0  0  0  0  0  0  0  0  0  0
    5.4478  -13.9899   26.8009 N   0  0  0  0  0  0  0  0  0  0  0  0
    6.6641  -13.4131   26.9023 C   0  0  0  0  0  0  0  0  0  0  0  0
    7.0524  -12.0976   27.1483 C   0  0  0  0  0  0  0  0  0  0  0  0
    8.3877  -11.7660   27.2018 C   0  0  0  0  0  0  0  0  0  0  0  0
    9.3118  -12.7700   27.0056 C   0  0  0  0  0  0  0  0  0  0  0  0
    8.9206  -14.0764   26.7612 C   0  0  0  0  0  0  0  0  0  0  0  0
    7.5813  -14.4221   26.7051 C   0  0  0  0  0  0  0  0  0  0  0  0
    7.5101  -17.2859   23.8398 C   0  0  0  0  0  0  0  0  0  0  0  0
    8.4859  -17.9415   23.3819 O   0  0  0  0  0  0  0  0  0  0  0  0
    7.0629  -16.1772   23.0815 N   0  0  0  0  0  0  0  0  0  0  0  0
    7.7034  -15.7773   21.8396 C   0  0  1  0  0  0  0  0  0  0  0  0
    7.0312  -14.5149   21.3668 C   0  0  0  0  0  0  0  0  0  0  0  0
    7.4843  -14.0381   20.0577 C   0  0  0  0  0  0  0  0  0  0  0  0
    7.2629  -14.6746   18.8548 C   0  0  0  0  0  0  0  0  0  0  0  0
    7.7377  -14.1385   17.6607 C   0  0  0  0  0  0  0  0  0  0  0  0
    8.4424  -12.9539   17.6589 C   0  0  0  0  0  0  0  0  0  0  0  0
    8.6736  -12.3025   18.8536 C   0  0  0  0  0  0  0  0  0  0  0  0
    8.1935  -12.8555   20.0112 C   0  0  0  0  0  0  0  0  0  0  0  0
    9.1217  -15.4395   22.1757 C   0  0  0  0  0  0  0  0  0  0  0  0
    9.4622  -15.0510   23.3179 O   0  0  0  0  0  0  0  0  0  0  0  0
   10.1552  -15.5532   21.1779 N   0  0  0  0  0  0  0  0  0  0  0  0
   11.5436  -15.6814   21.4946 C   0  0  1  0  0  0  0  0  0  0  0  0
   11.7148  -16.8492   22.4314 C   0  0  0  0  0  0  0  0  0  0  0  0
   13.4664  -17.2440   22.6713 S   0  0  0  0  0  0  0  0  0  0  0  0
   12.3746  -15.8370   20.2696 C   0  0  0  0  0  0  0  0  0  0  0  0
   13.6850  -15.4525   20.2713 O   0  0  0  0  0  0  0  0  0  0  0  0
   11.8507  -16.3211   19.2541 O   0  0  0  0  0  0  0  0  0  0  0  0
  2  1  1  1
  3  2  1  0
  4  3  1  0
  4  5  2  0
  6  5  1  0
  7  6  1  0
  8  7  2  0
  9  8  1  0
 10  9  2  0
 10 11  1  0
 11 12  2  0
 12  7  1  0
 12  4  1  0
 13  2  1  0
 13 14  2  0
 15 16  1  0
 15 13  1  0
 16 17  1  1
 18 17  1  0
 19 18  2  0
 20 19  1  0
 21 20  2  0
 21 22  1  0
 22 23  2  0
 23 18  1  0
 24 16  1  0
 25 24  2  0
 26 24  1  0
 27 26  1  0
 27 30  1  0
 27 28  1  1
 29 28  1  0
 30 31  1  0
 32 30  2  0
M  END
$$$$
