WFC.pdb
     RDKit          3D

 32 34  0  0  1  0  0  0  0  0999 V2000
    6.7776  -19.3252   21.8709 N   0  0  0  0  0  0  0  0  0  0  0  0
    7.2753  -17.9869   21.6334 C   0  0  1  0  0  0  0  0  0  0  0  0
    6.6096  -17.4614   20.3824 C   0  0  0  0  0  0  0  0  0  0  0  0
    7.4160  -16.3707   19.7534 C   0  0  0  0  0  0  0  0  0  0  0  0
    8.3292  -16.4690   18.7440 C   0  0  0  0  0  0  0  0  0  0  0  0
    8.8041  -15.2357   18.5050 N   0  0  0  0  0  0  0  0  0  0  0  0
    8.2271  -14.3358   19.3294 C   0  0  0  0  0  0  0  0  0  0  0  0
    8.3887  -12.9582   19.4623 C   0  0  0  0  0  0  0  0  0  0  0  0
    7.6636  -12.2613   20.4027 C   0  0  0  0  0  0  0  0  0  0  0  0
    6.7848  -12.9678   21.1957 C   0  0  0  0  0  0  0  0  0  0  0  0
    6.6277  -14.3376   21.0597 C   0  0  0  0  0  0  0  0  0  0  0  0
    7.3510  -15.0493   20.1179 C   0  0  0  0  0  0  0  0  0  0  0  0
    6.9098  -17.1115   22.7603 C   0  0  0  0  0  0  0  0  0  0  0  0
    5.7729  -16.5691   22.8295 O   0  0  0  0  0  0  0  0  0  0  0  0
    7.8195  -16.8433   23.8115 N   0  0  0  0  0  0  0  0  0  0  0  0
    8.0746  -15.4955   24.2919 C   0  0  1  0  0  0  0  0  0  0  0  0
    6.9842  -15.1474   25.2711 C   0  0  0  0  0  0  0  0  0  0  0  0
    7.1394  -13.8405   25.9150 C   0  0  0  0  0  0  0  0  0  0  0  0
    8.2568  -13.4156   26.6020 C   0  0  0  0  0  0  0  0  0  0  0  0
    8.3054  -12.1506   27.1815 C   0  0  0  0  0  0  0  0  0  0  0  0
    7.2305  -11.2939   27.0787 C   0  0  0  0  0  0  0  0  0  0  0  0
    6.1032  -11.7021   26.3947 C   0  0  0  0  0  0  0  0  0  0  0  0
    6.0863  -12.9526   25.8358 C   0  0  0  0  0  0  0  0  0  0  0  0
    9.3656  -15.5444   25.0467 C   0  0  0  0  0  0  0  0  0  0  0  0
    9.9854  -14.5057   25.3763 O   0  0  0  0  0  0  0  0  0  0  0  0
    9.9437  -16.8097   25.4229 N   0  0  0  0  0  0  0  0  0  0  0  0
   11.1779  -16.9301   26.1346 C   0  0  1  0  0  0  0  0  0  0  0  0
   11.0360  -16.2283   27.4606 C   0  0  0  0  0  0  0  0  0  0  0  0
    9.7305  -16.9835   28.4640 S   0  0  0  0  0  0  0  0  0  0  0  0
   11.5748  -18.3539   26.3095 C   0  0  0  0  0  0  0  0  0  0  0  0
   12.7783  -18.6707   26.8720 O   0  0  0  0  0  0  0  0  0  0  0  0
   10.7907  -19.2394   25.9342 O   0  0  0  0  0  0  0  0  0  0  0  0
  2  1  1  1
  3  2  1  0
  4  3  1  0
  4  5  2  0
  6  5  1  0
  7  6  1  0
  8  7  2  0
  9  8  1  0
 10  9  2  0
 10 11  1  0
 11 12  2  0
 12  7  1  0
 12  4  1  0
 13  2  1  0
 13 14  2  0
 15 16  1  0
 15 13  1  0
 16 17  1  1
 18 17  1  0
 19 18  2  0
 20 19  1  0
 21 20  2  0
 21 22  1  0
 22 23  2  0
 23 18  1  0
 24 16  1  0
 25 24  2  0
 26 24  1  0
 27 26  1  0
 27 30  1  0
 27 28  1  1
 29 28  1  0
 30 31  1  0
 32 30  2  0
M  END
$$$$
