WFC.pdb
     RDKit          3D

 32 34  0  0  1  0  0  0  0  0999 V2000
    7.3085  -19.7022   26.8717 N   0  0  0  0  0  0  0  0  0  0  0  0
    7.8863  -18.3854   26.7060 C   0  0  1  0  0  0  0  0  0  0  0  0
    9.3366  -18.4610   27.1245 C   0  0  0  0  0  0  0  0  0  0  0  0
    9.6462  -17.4672   28.1978 C   0  0  0  0  0  0  0  0  0  0  0  0
    9.8028  -17.6885   29.5353 C   0  0  0  0  0  0  0  0  0  0  0  0
   10.0714  -16.5065   30.1134 N   0  0  0  0  0  0  0  0  0  0  0  0
   10.0945  -15.5205   29.1917 C   0  0  0  0  0  0  0  0  0  0  0  0
   10.3247  -14.1505   29.3002 C   0  0  0  0  0  0  0  0  0  0  0  0
   10.2897  -13.3494   28.1809 C   0  0  0  0  0  0  0  0  0  0  0  0
   10.0223  -13.9455   26.9670 C   0  0  0  0  0  0  0  0  0  0  0  0
    9.7941  -15.3082   26.8643 C   0  0  0  0  0  0  0  0  0  0  0  0
    9.8266  -16.1239   27.9824 C   0  0  0  0  0  0  0  0  0  0  0  0
    7.8289  -17.9904   25.2881 C   0  0  0  0  0  0  0  0  0  0  0  0
    8.1310  -18.7988   24.3677 O   0  0  0  0  0  0  0  0  0  0  0  0
    7.4325  -16.6877   24.9004 N   0  0  0  0  0  0  0  0  0  0  0  0
    7.5861  -16.2027   23.5390 C   0  0  1  0  0  0  0  0  0  0  0  0
    6.8882  -14.8709   23.4489 C   0  0  0  0  0  0  0  0  0  0  0  0
    7.0286  -14.1967   22.1557 C   0  0  0  0  0  0  0  0  0  0  0  0
    6.8073  -14.7760   20.9242 C   0  0  0  0  0  0  0  0  0  0  0  0
    6.9699  -14.0479   19.7486 C   0  0  0  0  0  0  0  0  0  0  0  0
    7.3576  -12.7259   19.7944 C   0  0  0  0  0  0  0  0  0  0  0  0
    7.5836  -12.1291   21.0183 C   0  0  0  0  0  0  0  0  0  0  0  0
    7.4151  -12.8723   22.1566 C   0  0  0  0  0  0  0  0  0  0  0  0
    9.0483  -15.9656   23.3285 C   0  0  0  0  0  0  0  0  0  0  0  0
    9.7651  -15.4090   24.1935 O   0  0  0  0  0  0  0  0  0  0  0  0
    9.6858  -16.3776   22.1036 N   0  0  0  0  0  0  0  0  0  0  0  0
   11.0980  -16.3101   21.8903 C   0  0  1  0  0  0  0  0  0  0  0  0
   11.7820  -17.1334   22.9510 C   0  0  0  0  0  0  0  0  0  0  0  0
   13.5502  -17.3127   22.6009 S   0  0  0  0  0  0  0  0  0  0  0  0
   11.4695  -16.7635   20.5222 C   0  0  0  0  0  0  0  0  0  0  0  0
   12.7176  -16.5135   20.0276 O   0  0  0  0  0  0  0  0  0  0  0  0
   10.6230  -17.3699   19.8473 O   0  0  0  0  0  0  0  0  0  0  0  0
  2  1  1  6
  3  2  1  0
  4  3  1  0
  4  5  2  0
  6  5  1  0
  7  6  1  0
  8  7  2  0
  9  8  1  0
 10  9  2  0
 10 11  1  0
 11 12  2  0
 12  7  1  0
 12  4  1  0
 13  2  1  0
 13 14  2  0
 15 16  1  0
 15 13  1  0
 16 17  1  1
 18 17  1  0
 19 18  2  0
 20 19  1  0
 21 20  2  0
 21 22  1  0
 22 23  2  0
 23 18  1  0
 24 16  1  0
 25 24  2  0
 26 24  1  0
 27 26  1  0
 27 30  1  0
 27 28  1  1
 29 28  1  0
 30 31  1  0
 32 30  2  0
M  END
$$$$
