WFC.pdb
     RDKit          3D

 32 34  0  0  1  0  0  0  0  0999 V2000
    4.6969  -20.4367   23.4342 N   0  0  0  0  0  0  0  0  0  0  0  0
    5.6334  -19.9127   24.4056 C   0  0  1  0  0  0  0  0  0  0  0  0
    6.9550  -20.6167   24.2002 C   0  0  0  0  0  0  0  0  0  0  0  0
    6.9882  -21.9311   24.9119 C   0  0  0  0  0  0  0  0  0  0  0  0
    6.8873  -23.1836   24.3795 C   0  0  0  0  0  0  0  0  0  0  0  0
    6.9685  -24.0625   25.3917 N   0  0  0  0  0  0  0  0  0  0  0  0
    7.1194  -23.4195   26.5690 C   0  0  0  0  0  0  0  0  0  0  0  0
    7.2461  -23.8876   27.8753 C   0  0  0  0  0  0  0  0  0  0  0  0
    7.3900  -23.0020   28.9197 C   0  0  0  0  0  0  0  0  0  0  0  0
    7.4037  -21.6547   28.6280 C   0  0  0  0  0  0  0  0  0  0  0  0
    7.2774  -21.1942   27.3274 C   0  0  0  0  0  0  0  0  0  0  0  0
    7.1321  -22.0748   26.2691 C   0  0  0  0  0  0  0  0  0  0  0  0
    5.8318  -18.4706   24.1798 C   0  0  0  0  0  0  0  0  0  0  0  0
    5.5784  -17.9391   23.0640 O   0  0  0  0  0  0  0  0  0  0  0  0
    6.3149  -17.6227   25.2053 N   0  0  0  0  0  0  0  0  0  0  0  0
    6.6050  -16.2168   24.9776 C   0  0  1  0  0  0  0  0  0  0  0  0
    6.6975  -15.5473   26.3237 C   0  0  0  0  0  0  0  0  0  0  0  0
    6.9237  -14.1008   26.2695 C   0  0  0  0  0  0  0  0  0  0  0  0
    8.1560  -13.4867   26.1969 C   0  0  0  0  0  0  0  0  0  0  0  0
    8.2653  -12.0994   26.1510 C   0  0  0  0  0  0  0  0  0  0  0  0
    7.1363  -11.3091   26.1773 C   0  0  0  0  0  0  0  0  0  0  0  0
    5.8940  -11.9063   26.2498 C   0  0  0  0  0  0  0  0  0  0  0  0
    5.8199  -13.2733   26.2936 C   0  0  0  0  0  0  0  0  0  0  0  0
    7.9588  -16.1535   24.3436 C   0  0  0  0  0  0  0  0  0  0  0  0
    8.9109  -16.8713   24.7308 O   0  0  0  0  0  0  0  0  0  0  0  0
    8.2113  -15.2493   23.2503 N   0  0  0  0  0  0  0  0  0  0  0  0
    9.3167  -15.3880   22.3541 C   0  0  1  0  0  0  0  0  0  0  0  0
    9.1247  -14.4310   21.2060 C   0  0  0  0  0  0  0  0  0  0  0  0
    7.4205  -13.8204   21.1413 S   0  0  0  0  0  0  0  0  0  0  0  0
   10.6156  -15.1603   23.0441 C   0  0  0  0  0  0  0  0  0  0  0  0
   10.6540  -14.9616   24.3947 O   0  0  0  0  0  0  0  0  0  0  0  0
   11.6552  -15.1554   22.3665 O   0  0  0  0  0  0  0  0  0  0  0  0
  2  1  1  6
  3  2  1  0
  4  3  1  0
  4  5  2  0
  6  5  1  0
  7  6  1  0
  8  7  2  0
  9  8  1  0
 10  9  2  0
 10 11  1  0
 11 12  2  0
 12  7  1  0
 12  4  1  0
 13  2  1  0
 13 14  2  0
 15 16  1  0
 15 13  1  0
 16 17  1  1
 18 17  1  0
 19 18  2  0
 20 19  1  0
 21 20  2  0
 21 22  1  0
 22 23  2  0
 23 18  1  0
 24 16  1  0
 25 24  2  0
 26 24  1  0
 27 26  1  0
 27 30  1  0
 27 28  1  6
 29 28  1  0
 30 31  1  0
 32 30  2  0
M  END
$$$$
