WFC.pdb
     RDKit          3D

 32 34  0  0  1  0  0  0  0  0999 V2000
   10.5479  -15.2390   21.3820 N   0  0  0  0  0  0  0  0  0  0  0  0
    9.3082  -15.3717   22.1175 C   0  0  1  0  0  0  0  0  0  0  0  0
    8.4688  -16.4193   21.4231 C   0  0  0  0  0  0  0  0  0  0  0  0
    7.8179  -15.8691   20.1946 C   0  0  0  0  0  0  0  0  0  0  0  0
    7.0481  -16.5263   19.2793 C   0  0  0  0  0  0  0  0  0  0  0  0
    6.6789  -15.6349   18.3450 N   0  0  0  0  0  0  0  0  0  0  0  0
    7.1857  -14.4154   18.6245 C   0  0  0  0  0  0  0  0  0  0  0  0
    7.0844  -13.1922   17.9648 C   0  0  0  0  0  0  0  0  0  0  0  0
    7.7117  -12.0759   18.4711 C   0  0  0  0  0  0  0  0  0  0  0  0
    8.4331  -12.2126   19.6379 C   0  0  0  0  0  0  0  0  0  0  0  0
    8.5308  -13.4311   20.2900 C   0  0  0  0  0  0  0  0  0  0  0  0
    7.9046  -14.5604   19.7908 C   0  0  0  0  0  0  0  0  0  0  0  0
    9.5885  -15.8307   23.4888 C   0  0  0  0  0  0  0  0  0  0  0  0
   10.7544  -16.1506   23.8495 O   0  0  0  0  0  0  0  0  0  0  0  0
    8.5611  -15.9318   24.4576 N   0  0  0  0  0  0  0  0  0  0  0  0
    8.8435  -16.0812   25.8755 C   0  0  1  0  0  0  0  0  0  0  0  0
    7.6145  -15.6500   26.6321 C   0  0  0  0  0  0  0  0  0  0  0  0
    7.4537  -14.1990   26.7552 C   0  0  0  0  0  0  0  0  0  0  0  0
    8.4222  -13.3220   27.1958 C   0  0  0  0  0  0  0  0  0  0  0  0
    8.1694  -11.9554   27.2783 C   0  0  0  0  0  0  0  0  0  0  0  0
    6.9384  -11.4503   26.9187 C   0  0  0  0  0  0  0  0  0  0  0  0
    5.9564  -12.3131   26.4752 C   0  0  0  0  0  0  0  0  0  0  0  0
    6.2362  -13.6522   26.4054 C   0  0  0  0  0  0  0  0  0  0  0  0
    9.0413  -17.5433   26.1236 C   0  0  0  0  0  0  0  0  0  0  0  0
    8.6500  -18.4163   25.3134 O   0  0  0  0  0  0  0  0  0  0  0  0
    9.6989  -17.9979   27.3226 N   0  0  0  0  0  0  0  0  0  0  0  0
   10.3434  -19.2695   27.4325 C   0  0  1  0  0  0  0  0  0  0  0  0
   11.4485  -19.3357   26.4102 C   0  0  0  0  0  0  0  0  0  0  0  0
   10.7825  -19.5604   24.7406 S   0  0  0  0  0  0  0  0  0  0  0  0
   10.8571  -19.5081   28.8089 C   0  0  0  0  0  0  0  0  0  0  0  0
   11.5157  -20.6663   29.1085 O   0  0  0  0  0  0  0  0  0  0  0  0
   10.6733  -18.6347   29.6711 O   0  0  0  0  0  0  0  0  0  0  0  0
  2  1  1  6
  3  2  1  0
  4  3  1  0
  4  5  2  0
  6  5  1  0
  7  6  1  0
  8  7  2  0
  9  8  1  0
 10  9  2  0
 10 11  1  0
 11 12  2  0
 12  7  1  0
 12  4  1  0
 13  2  1  0
 13 14  2  0
 15 16  1  0
 15 13  1  0
 16 17  1  1
 18 17  1  0
 19 18  2  0
 20 19  1  0
 21 20  2  0
 21 22  1  0
 22 23  2  0
 23 18  1  0
 24 16  1  0
 25 24  2  0
 26 24  1  0
 27 26  1  0
 27 30  1  0
 27 28  1  6
 29 28  1  0
 30 31  1  0
 32 30  2  0
M  END
$$$$
