WFC.pdb
     RDKit          3D

 32 34  0  0  1  0  0  0  0  0999 V2000
    8.2634  -19.3348   21.1061 N   0  0  0  0  0  0  0  0  0  0  0  0
    7.8641  -19.0741   22.4728 C   0  0  1  0  0  0  0  0  0  0  0  0
    8.6792  -19.9744   23.3723 C   0  0  0  0  0  0  0  0  0  0  0  0
    8.1907  -21.3865   23.3165 C   0  0  0  0  0  0  0  0  0  0  0  0
    8.8085  -22.4737   22.7701 C   0  0  0  0  0  0  0  0  0  0  0  0
    8.0021  -23.5323   22.9516 N   0  0  0  0  0  0  0  0  0  0  0  0
    6.8762  -23.1669   23.6006 C   0  0  0  0  0  0  0  0  0  0  0  0
    5.7602  -23.8942   24.0093 C   0  0  0  0  0  0  0  0  0  0  0  0
    4.7256  -23.2677   24.6673 C   0  0  0  0  0  0  0  0  0  0  0  0
    4.8345  -21.9137   24.9027 C   0  0  0  0  0  0  0  0  0  0  0  0
    5.9463  -21.1950   24.4943 C   0  0  0  0  0  0  0  0  0  0  0  0
    6.9927  -21.8137   23.8320 C   0  0  0  0  0  0  0  0  0  0  0  0
    8.1604  -17.6737   22.8204 C   0  0  0  0  0  0  0  0  0  0  0  0
    9.0632  -17.0251   22.2237 O   0  0  0  0  0  0  0  0  0  0  0  0
    7.4444  -16.9986   23.8382 N   0  0  0  0  0  0  0  0  0  0  0  0
    7.6691  -15.5959   24.1455 C   0  0  1  0  0  0  0  0  0  0  0  0
    6.6522  -15.1879   25.1791 C   0  0  0  0  0  0  0  0  0  0  0  0
    6.7409  -13.7874   25.6000 C   0  0  0  0  0  0  0  0  0  0  0  0
    7.3015  -12.7654   24.8634 C   0  0  0  0  0  0  0  0  0  0  0  0
    7.3382  -11.4630   25.3544 C   0  0  0  0  0  0  0  0  0  0  0  0
    6.8114  -11.1692   26.5938 C   0  0  0  0  0  0  0  0  0  0  0  0
    6.2461  -12.1795   27.3454 C   0  0  0  0  0  0  0  0  0  0  0  0
    6.2253  -13.4503   26.8346 C   0  0  0  0  0  0  0  0  0  0  0  0
    9.0223  -15.5048   24.7774 C   0  0  0  0  0  0  0  0  0  0  0  0
    9.8032  -14.5515   24.5471 O   0  0  0  0  0  0  0  0  0  0  0  0
    9.4745  -16.5286   25.6851 N   0  0  0  0  0  0  0  0  0  0  0  0
   10.7441  -16.4930   26.3418 C   0  0  1  0  0  0  0  0  0  0  0  0
   10.6071  -15.6815   27.6042 C   0  0  0  0  0  0  0  0  0  0  0  0
    9.8487  -16.6563   28.9293 S   0  0  0  0  0  0  0  0  0  0  0  0
   11.2551  -17.8619   26.6247 C   0  0  0  0  0  0  0  0  0  0  0  0
   10.5058  -18.9580   26.3048 O   0  0  0  0  0  0  0  0  0  0  0  0
   12.3707  -17.9816   27.1548 O   0  0  0  0  0  0  0  0  0  0  0  0
  2  1  1  6
  3  2  1  0
  4  3  1  0
  4  5  2  0
  6  5  1  0
  7  6  1  0
  8  7  2  0
  9  8  1  0
 10  9  2  0
 10 11  1  0
 11 12  2  0
 12  7  1  0
 12  4  1  0
 13  2  1  0
 13 14  2  0
 15 16  1  0
 15 13  1  0
 16 17  1  1
 18 17  1  0
 19 18  2  0
 20 19  1  0
 21 20  2  0
 21 22  1  0
 22 23  2  0
 23 18  1  0
 24 16  1  0
 25 24  2  0
 26 24  1  0
 27 26  1  0
 27 30  1  0
 27 28  1  1
 29 28  1  0
 30 31  1  0
 32 30  2  0
M  END
$$$$
