WFC.pdb
     RDKit          3D

 32 34  0  0  1  0  0  0  0  0999 V2000
    6.7955  -19.2489   26.4932 N   0  0  0  0  0  0  0  0  0  0  0  0
    7.5878  -18.0579   26.2716 C   0  0  1  0  0  0  0  0  0  0  0  0
    9.0382  -18.4195   26.4944 C   0  0  0  0  0  0  0  0  0  0  0  0
    9.5704  -17.7923   27.7429 C   0  0  0  0  0  0  0  0  0  0  0  0
    9.7770  -18.3745   28.9597 C   0  0  0  0  0  0  0  0  0  0  0  0
   10.2661  -17.4324   29.7825 N   0  0  0  0  0  0  0  0  0  0  0  0
   10.3845  -16.2525   29.1374 C   0  0  0  0  0  0  0  0  0  0  0  0
   10.8349  -15.0029   29.5585 C   0  0  0  0  0  0  0  0  0  0  0  0
   10.8540  -13.9402   28.6833 C   0  0  0  0  0  0  0  0  0  0  0  0
   10.4171  -14.1564   27.3937 C   0  0  0  0  0  0  0  0  0  0  0  0
    9.9702  -15.4008   26.9799 C   0  0  0  0  0  0  0  0  0  0  0  0
    9.9463  -16.4768   27.8506 C   0  0  0  0  0  0  0  0  0  0  0  0
    7.4275  -17.6041   24.8795 C   0  0  0  0  0  0  0  0  0  0  0  0
    7.4076  -18.4224   23.9195 O   0  0  0  0  0  0  0  0  0  0  0  0
    7.2895  -16.2313   24.5621 N   0  0  0  0  0  0  0  0  0  0  0  0
    7.2663  -15.7503   23.1908 C   0  0  1  0  0  0  0  0  0  0  0  0
    6.4284  -14.4989   23.1615 C   0  0  0  0  0  0  0  0  0  0  0  0
    6.5922  -13.6297   24.3295 C   0  0  0  0  0  0  0  0  0  0  0  0
    6.0250  -13.8406   25.5685 C   0  0  0  0  0  0  0  0  0  0  0  0
    6.2413  -12.9514   26.6178 C   0  0  0  0  0  0  0  0  0  0  0  0
    7.0314  -11.8366   26.4365 C   0  0  0  0  0  0  0  0  0  0  0  0
    7.6076  -11.6092   25.2029 C   0  0  0  0  0  0  0  0  0  0  0  0
    7.3757  -12.5026   24.1908 C   0  0  0  0  0  0  0  0  0  0  0  0
    8.6705  -15.3662   22.8452 C   0  0  0  0  0  0  0  0  0  0  0  0
    8.9719  -14.2093   22.4678 O   0  0  0  0  0  0  0  0  0  0  0  0
    9.7355  -16.3324   22.9381 N   0  0  0  0  0  0  0  0  0  0  0  0
   11.1211  -15.9825   22.8954 C   0  0  1  0  0  0  0  0  0  0  0  0
   11.4004  -14.9981   24.0016 C   0  0  0  0  0  0  0  0  0  0  0  0
   13.1813  -14.7559   24.2277 S   0  0  0  0  0  0  0  0  0  0  0  0
   11.9946  -17.1832   22.9988 C   0  0  0  0  0  0  0  0  0  0  0  0
   11.8789  -18.0310   24.0632 O   0  0  0  0  0  0  0  0  0  0  0  0
   12.8246  -17.3930   22.1005 O   0  0  0  0  0  0  0  0  0  0  0  0
  2  1  1  6
  3  2  1  0
  4  3  1  0
  4  5  2  0
  6  5  1  0
  7  6  1  0
  8  7  2  0
  9  8  1  0
 10  9  2  0
 10 11  1  0
 11 12  2  0
 12  7  1  0
 12  4  1  0
 13  2  1  0
 13 14  2  0
 15 16  1  0
 15 13  1  0
 16 17  1  1
 18 17  1  0
 19 18  2  0
 20 19  1  0
 21 20  2  0
 21 22  1  0
 22 23  2  0
 23 18  1  0
 24 16  1  0
 25 24  2  0
 26 24  1  0
 27 26  1  0
 27 30  1  0
 27 28  1  1
 29 28  1  0
 30 31  1  0
 32 30  2  0
M  END
$$$$
