WFC.pdb
     RDKit          3D

 32 34  0  0  1  0  0  0  0  0999 V2000
    7.3538  -19.1845   21.7031 N   0  0  0  0  0  0  0  0  0  0  0  0
    7.8174  -17.8544   21.3696 C   0  0  1  0  0  0  0  0  0  0  0  0
    7.2483  -17.4921   20.0171 C   0  0  0  0  0  0  0  0  0  0  0  0
    7.9274  -16.2892   19.4450 C   0  0  0  0  0  0  0  0  0  0  0  0
    8.8680  -16.2392   18.4574 C   0  0  0  0  0  0  0  0  0  0  0  0
    9.1919  -14.9492   18.2707 N   0  0  0  0  0  0  0  0  0  0  0  0
    8.4899  -14.1565   19.1079 C   0  0  0  0  0  0  0  0  0  0  0  0
    8.4769  -12.7750   19.2891 C   0  0  0  0  0  0  0  0  0  0  0  0
    7.6504  -12.2058   20.2319 C   0  0  0  0  0  0  0  0  0  0  0  0
    6.8483  -13.0423   20.9784 C   0  0  0  0  0  0  0  0  0  0  0  0
    6.8648  -14.4154   20.7944 C   0  0  0  0  0  0  0  0  0  0  0  0
    7.6914  -14.9993   19.8498 C   0  0  0  0  0  0  0  0  0  0  0  0
    7.3161  -16.8880   22.3619 C   0  0  0  0  0  0  0  0  0  0  0  0
    6.3892  -16.0792   22.0818 O   0  0  0  0  0  0  0  0  0  0  0  0
    7.8540  -16.8275   23.6701 N   0  0  0  0  0  0  0  0  0  0  0  0
    8.1351  -15.5665   24.3360 C   0  0  1  0  0  0  0  0  0  0  0  0
    7.2006  -15.4548   25.5120 C   0  0  0  0  0  0  0  0  0  0  0  0
    7.1979  -14.1429   26.1643 C   0  0  0  0  0  0  0  0  0  0  0  0
    6.2249  -13.1775   26.0139 C   0  0  0  0  0  0  0  0  0  0  0  0
    6.3150  -11.9576   26.6789 C   0  0  0  0  0  0  0  0  0  0  0  0
    7.3854  -11.6905   27.5053 C   0  0  0  0  0  0  0  0  0  0  0  0
    8.3691  -12.6450   27.6681 C   0  0  0  0  0  0  0  0  0  0  0  0
    8.2515  -13.8351   27.0002 C   0  0  0  0  0  0  0  0  0  0  0  0
    9.5295  -15.6628   24.8699 C   0  0  0  0  0  0  0  0  0  0  0  0
   10.3921  -14.7813   24.6454 O   0  0  0  0  0  0  0  0  0  0  0  0
    9.9276  -16.7919   25.6720 N   0  0  0  0  0  0  0  0  0  0  0  0
   11.2421  -16.9485   26.2124 C   0  0  1  0  0  0  0  0  0  0  0  0
   11.3146  -16.2005   27.5186 C   0  0  0  0  0  0  0  0  0  0  0  0
    9.9214  -16.6271   28.5949 S   0  0  0  0  0  0  0  0  0  0  0  0
   11.5985  -18.3834   26.3837 C   0  0  0  0  0  0  0  0  0  0  0  0
   10.6986  -19.3605   26.0664 O   0  0  0  0  0  0  0  0  0  0  0  0
   12.7253  -18.6676   26.8188 O   0  0  0  0  0  0  0  0  0  0  0  0
  2  1  1  1
  3  2  1  0
  4  3  1  0
  4  5  2  0
  6  5  1  0
  7  6  1  0
  8  7  2  0
  9  8  1  0
 10  9  2  0
 10 11  1  0
 11 12  2  0
 12  7  1  0
 12  4  1  0
 13  2  1  0
 13 14  2  0
 15 16  1  0
 15 13  1  0
 16 17  1  1
 18 17  1  0
 19 18  2  0
 20 19  1  0
 21 20  2  0
 21 22  1  0
 22 23  2  0
 23 18  1  0
 24 16  1  0
 25 24  2  0
 26 24  1  0
 27 26  1  0
 27 30  1  0
 27 28  1  1
 29 28  1  0
 30 31  1  0
 32 30  2  0
M  END
$$$$
