WFC.pdb
     RDKit          3D

 32 34  0  0  1  0  0  0  0  0999 V2000
    5.5724  -19.2224   21.4699 N   0  0  0  0  0  0  0  0  0  0  0  0
    6.7830  -19.1073   22.2550 C   0  0  1  0  0  0  0  0  0  0  0  0
    7.9308  -19.6121   21.4113 C   0  0  0  0  0  0  0  0  0  0  0  0
    7.7671  -21.0609   21.0799 C   0  0  0  0  0  0  0  0  0  0  0  0
    7.3355  -21.6172   19.9109 C   0  0  0  0  0  0  0  0  0  0  0  0
    7.3484  -22.9510   20.0673 N   0  0  0  0  0  0  0  0  0  0  0  0
    7.7759  -23.2807   21.3046 C   0  0  0  0  0  0  0  0  0  0  0  0
    7.9568  -24.5134   21.9287 C   0  0  0  0  0  0  0  0  0  0  0  0
    8.4135  -24.5745   23.2262 C   0  0  0  0  0  0  0  0  0  0  0  0
    8.6809  -23.3876   23.8745 C   0  0  0  0  0  0  0  0  0  0  0  0
    8.4993  -22.1645   23.2495 C   0  0  0  0  0  0  0  0  0  0  0  0
    8.0407  -22.0902   21.9454 C   0  0  0  0  0  0  0  0  0  0  0  0
    7.0314  -17.6932   22.5843 C   0  0  0  0  0  0  0  0  0  0  0  0
    7.1723  -16.8230   21.6817 O   0  0  0  0  0  0  0  0  0  0  0  0
    7.1223  -17.2530   23.9268 N   0  0  0  0  0  0  0  0  0  0  0  0
    7.3088  -15.8541   24.2740 C   0  0  1  0  0  0  0  0  0  0  0  0
    6.5890  -15.6079   25.5741 C   0  0  0  0  0  0  0  0  0  0  0  0
    6.7951  -14.2724   26.1401 C   0  0  0  0  0  0  0  0  0  0  0  0
    7.9709  -13.8117   26.6936 C   0  0  0  0  0  0  0  0  0  0  0  0
    8.0650  -12.5213   27.2080 C   0  0  0  0  0  0  0  0  0  0  0  0
    6.9776  -11.6750   27.1733 C   0  0  0  0  0  0  0  0  0  0  0  0
    5.7922  -12.1189   26.6229 C   0  0  0  0  0  0  0  0  0  0  0  0
    5.7316  -13.3936   26.1253 C   0  0  0  0  0  0  0  0  0  0  0  0
    8.7721  -15.6628   24.5204 C   0  0  0  0  0  0  0  0  0  0  0  0
    9.2472  -14.5657   24.8976 O   0  0  0  0  0  0  0  0  0  0  0  0
    9.6935  -16.7539   24.3279 N   0  0  0  0  0  0  0  0  0  0  0  0
   11.0996  -16.6473   24.5646 C   0  0  1  0  0  0  0  0  0  0  0  0
   11.3166  -16.3278   26.0211 C   0  0  0  0  0  0  0  0  0  0  0  0
   10.4963  -17.5417   27.0864 S   0  0  0  0  0  0  0  0  0  0  0  0
   11.8199  -17.8865   24.1636 C   0  0  0  0  0  0  0  0  0  0  0  0
   13.1843  -17.9337   24.1989 O   0  0  0  0  0  0  0  0  0  0  0  0
   11.1546  -18.8686   23.7990 O   0  0  0  0  0  0  0  0  0  0  0  0
  2  1  1  6
  3  2  1  0
  4  3  1  0
  4  5  2  0
  6  5  1  0
  7  6  1  0
  8  7  2  0
  9  8  1  0
 10  9  2  0
 10 11  1  0
 11 12  2  0
 12  7  1  0
 12  4  1  0
 13  2  1  0
 13 14  2  0
 15 16  1  0
 15 13  1  0
 16 17  1  1
 18 17  1  0
 19 18  2  0
 20 19  1  0
 21 20  2  0
 21 22  1  0
 22 23  2  0
 23 18  1  0
 24 16  1  0
 25 24  2  0
 26 24  1  0
 27 26  1  0
 27 30  1  0
 27 28  1  1
 29 28  1  0
 30 31  1  0
 32 30  2  0
M  END
$$$$
