WFC.pdb
     RDKit          3D

 32 34  0  0  1  0  0  0  0  0999 V2000
    6.2083  -18.1730   20.5965 N   0  0  0  0  0  0  0  0  0  0  0  0
    5.8420  -18.0309   21.9897 C   0  0  1  0  0  0  0  0  0  0  0  0
    5.8589  -19.4069   22.6147 C   0  0  0  0  0  0  0  0  0  0  0  0
    4.7017  -20.2310   22.1487 C   0  0  0  0  0  0  0  0  0  0  0  0
    4.7253  -21.3986   21.4426 C   0  0  0  0  0  0  0  0  0  0  0  0
    3.4526  -21.7804   21.2473 N   0  0  0  0  0  0  0  0  0  0  0  0
    2.5996  -20.8956   21.8056 C   0  0  0  0  0  0  0  0  0  0  0  0
    1.2080  -20.8564   21.8671 C   0  0  0  0  0  0  0  0  0  0  0  0
    0.5701  -19.8196   22.5105 C   0  0  0  0  0  0  0  0  0  0  0  0
    1.3489  -18.8366   23.0828 C   0  0  0  0  0  0  0  0  0  0  0  0
    2.7322  -18.8801   23.0189 C   0  0  0  0  0  0  0  0  0  0  0  0
    3.3850  -19.9172   22.3749 C   0  0  0  0  0  0  0  0  0  0  0  0
    6.8332  -17.1903   22.6828 C   0  0  0  0  0  0  0  0  0  0  0  0
    7.9486  -16.9210   22.1582 O   0  0  0  0  0  0  0  0  0  0  0  0
    6.5748  -16.6505   23.9659 N   0  0  0  0  0  0  0  0  0  0  0  0
    7.5342  -15.8088   24.6613 C   0  0  1  0  0  0  0  0  0  0  0  0
    6.8240  -15.1807   25.8317 C   0  0  0  0  0  0  0  0  0  0  0  0
    7.6874  -14.3947   26.7167 C   0  0  0  0  0  0  0  0  0  0  0  0
    8.0738  -13.0885   26.5028 C   0  0  0  0  0  0  0  0  0  0  0  0
    8.9011  -12.4273   27.4067 C   0  0  0  0  0  0  0  0  0  0  0  0
    9.3521  -13.0702   28.5394 C   0  0  0  0  0  0  0  0  0  0  0  0
    8.9756  -14.3780   28.7702 C   0  0  0  0  0  0  0  0  0  0  0  0
    8.1610  -15.0008   27.8621 C   0  0  0  0  0  0  0  0  0  0  0  0
    8.5908  -16.7181   25.2046 C   0  0  0  0  0  0  0  0  0  0  0  0
    8.3105  -17.7741   25.8194 O   0  0  0  0  0  0  0  0  0  0  0  0
    9.9859  -16.4003   25.0334 N   0  0  0  0  0  0  0  0  0  0  0  0
   11.0466  -17.2446   25.4877 C   0  0  1  0  0  0  0  0  0  0  0  0
   12.0229  -17.4373   24.3561 C   0  0  0  0  0  0  0  0  0  0  0  0
   11.1752  -17.9584   22.8424 S   0  0  0  0  0  0  0  0  0  0  0  0
   11.7135  -16.6873   26.6960 C   0  0  0  0  0  0  0  0  0  0  0  0
   12.6586  -17.4157   27.3603 O   0  0  0  0  0  0  0  0  0  0  0  0
   11.3917  -15.5527   27.0819 O   0  0  0  0  0  0  0  0  0  0  0  0
  2  1  1  6
  3  2  1  0
  4  3  1  0
  4  5  2  0
  6  5  1  0
  7  6  1  0
  8  7  2  0
  9  8  1  0
 10  9  2  0
 10 11  1  0
 11 12  2  0
 12  7  1  0
 12  4  1  0
 13  2  1  0
 13 14  2  0
 15 16  1  0
 15 13  1  0
 16 17  1  1
 18 17  1  0
 19 18  2  0
 20 19  1  0
 21 20  2  0
 21 22  1  0
 22 23  2  0
 23 18  1  0
 24 16  1  0
 25 24  2  0
 26 24  1  0
 27 26  1  0
 27 30  1  0
 27 28  1  6
 29 28  1  0
 30 31  1  0
 32 30  2  0
M  END
$$$$
