WFC.pdb
     RDKit          3D

 32 34  0  0  1  0  0  0  0  0999 V2000
    9.0894  -20.3509   22.9429 N   0  0  0  0  0  0  0  0  0  0  0  0
    8.2417  -19.7090   23.9250 C   0  0  1  0  0  0  0  0  0  0  0  0
    8.6395  -20.2267   25.2880 C   0  0  0  0  0  0  0  0  0  0  0  0
    8.1776  -21.6340   25.4922 C   0  0  0  0  0  0  0  0  0  0  0  0
    8.8730  -22.6843   26.0171 C   0  0  0  0  0  0  0  0  0  0  0  0
    8.0610  -23.7539   26.0075 N   0  0  0  0  0  0  0  0  0  0  0  0
    6.8560  -23.4316   25.4913 C   0  0  0  0  0  0  0  0  0  0  0  0
    5.7041  -24.1857   25.2762 C   0  0  0  0  0  0  0  0  0  0  0  0
    4.5861  -23.6034   24.7222 C   0  0  0  0  0  0  0  0  0  0  0  0
    4.6490  -22.2661   24.3934 C   0  0  0  0  0  0  0  0  0  0  0  0
    5.7967  -21.5207   24.6092 C   0  0  0  0  0  0  0  0  0  0  0  0
    6.9269  -22.0949   25.1655 C   0  0  0  0  0  0  0  0  0  0  0  0
    8.4597  -18.2524   23.8961 C   0  0  0  0  0  0  0  0  0  0  0  0
    9.4967  -17.7530   23.3796 O   0  0  0  0  0  0  0  0  0  0  0  0
    7.5145  -17.3538   24.4470 N   0  0  0  0  0  0  0  0  0  0  0  0
    7.6685  -15.9116   24.3532 C   0  0  1  0  0  0  0  0  0  0  0  0
    6.4625  -15.2821   24.9998 C   0  0  0  0  0  0  0  0  0  0  0  0
    6.6122  -13.8581   25.3098 C   0  0  0  0  0  0  0  0  0  0  0  0
    6.3459  -13.2734   26.5298 C   0  0  0  0  0  0  0  0  0  0  0  0
    6.5195  -11.9056   26.7237 C   0  0  0  0  0  0  0  0  0  0  0  0
    6.9636  -11.1054   25.6930 C   0  0  0  0  0  0  0  0  0  0  0  0
    7.2354  -11.6732   24.4645 C   0  0  0  0  0  0  0  0  0  0  0  0
    7.0546  -13.0216   24.3057 C   0  0  0  0  0  0  0  0  0  0  0  0
    8.8657  -15.5518   25.1753 C   0  0  0  0  0  0  0  0  0  0  0  0
    9.4855  -14.4740   25.0150 O   0  0  0  0  0  0  0  0  0  0  0  0
    9.3490  -16.4502   26.1931 N   0  0  0  0  0  0  0  0  0  0  0  0
   10.2876  -16.0655   27.2007 C   0  0  1  0  0  0  0  0  0  0  0  0
    9.6857  -14.9489   28.0141 C   0  0  0  0  0  0  0  0  0  0  0  0
   10.7888  -14.4540   29.3630 S   0  0  0  0  0  0  0  0  0  0  0  0
   10.6766  -17.2181   28.0583 C   0  0  0  0  0  0  0  0  0  0  0  0
   10.0829  -18.4362   27.8881 O   0  0  0  0  0  0  0  0  0  0  0  0
   11.5473  -17.0460   28.9256 O   0  0  0  0  0  0  0  0  0  0  0  0
  2  1  1  6
  3  2  1  0
  4  3  1  0
  4  5  2  0
  6  5  1  0
  7  6  1  0
  8  7  2  0
  9  8  1  0
 10  9  2  0
 10 11  1  0
 11 12  2  0
 12  7  1  0
 12  4  1  0
 13  2  1  0
 13 14  2  0
 15 16  1  0
 15 13  1  0
 16 17  1  1
 18 17  1  0
 19 18  2  0
 20 19  1  0
 21 20  2  0
 21 22  1  0
 22 23  2  0
 23 18  1  0
 24 16  1  0
 25 24  2  0
 26 24  1  0
 27 26  1  0
 27 30  1  0
 27 28  1  1
 29 28  1  0
 30 31  1  0
 32 30  2  0
M  END
$$$$
