WFC.pdb
     RDKit          3D

 32 34  0  0  1  0  0  0  0  0999 V2000
    6.6428  -18.8064   25.9476 N   0  0  0  0  0  0  0  0  0  0  0  0
    7.5670  -17.6941   26.0097 C   0  0  1  0  0  0  0  0  0  0  0  0
    8.9491  -18.2546   26.2539 C   0  0  0  0  0  0  0  0  0  0  0  0
    9.5119  -17.7700   27.5516 C   0  0  0  0  0  0  0  0  0  0  0  0
    9.5902  -18.4358   28.7403 C   0  0  0  0  0  0  0  0  0  0  0  0
   10.1695  -17.6124   29.6291 N   0  0  0  0  0  0  0  0  0  0  0  0
   10.4713  -16.4287   29.0545 C   0  0  0  0  0  0  0  0  0  0  0  0
   11.0694  -15.2755   29.5584 C   0  0  0  0  0  0  0  0  0  0  0  0
   11.2661  -14.1825   28.7444 C   0  0  0  0  0  0  0  0  0  0  0  0
   10.8548  -14.2714   27.4316 C   0  0  0  0  0  0  0  0  0  0  0  0
   10.2604  -15.4203   26.9354 C   0  0  0  0  0  0  0  0  0  0  0  0
   10.0574  -16.5256   27.7440 C   0  0  0  0  0  0  0  0  0  0  0  0
    7.5734  -16.9785   24.7222 C   0  0  0  0  0  0  0  0  0  0  0  0
    7.0855  -17.4959   23.6801 O   0  0  0  0  0  0  0  0  0  0  0  0
    8.1274  -15.6812   24.6018 N   0  0  0  0  0  0  0  0  0  0  0  0
    8.1422  -14.9576   23.3414 C   0  0  1  0  0  0  0  0  0  0  0  0
    8.2961  -13.4932   23.6592 C   0  0  0  0  0  0  0  0  0  0  0  0
    7.3689  -12.9907   24.6762 C   0  0  0  0  0  0  0  0  0  0  0  0
    7.6245  -12.9281   26.0297 C   0  0  0  0  0  0  0  0  0  0  0  0
    6.6733  -12.4331   26.9178 C   0  0  0  0  0  0  0  0  0  0  0  0
    5.4506  -11.9937   26.4576 C   0  0  0  0  0  0  0  0  0  0  0  0
    5.1769  -12.0487   25.1058 C   0  0  0  0  0  0  0  0  0  0  0  0
    6.1335  -12.5409   24.2578 C   0  0  0  0  0  0  0  0  0  0  0  0
    9.3702  -15.3957   22.6075 C   0  0  0  0  0  0  0  0  0  0  0  0
    9.5684  -15.1032   21.4047 O   0  0  0  0  0  0  0  0  0  0  0  0
   10.3781  -16.1805   23.2744 N   0  0  0  0  0  0  0  0  0  0  0  0
   11.5972  -16.5902   22.6497 C   0  0  1  0  0  0  0  0  0  0  0  0
   12.7518  -16.0573   23.4581 C   0  0  0  0  0  0  0  0  0  0  0  0
   12.7367  -16.7277   25.1409 S   0  0  0  0  0  0  0  0  0  0  0  0
   11.6693  -18.0696   22.5031 C   0  0  0  0  0  0  0  0  0  0  0  0
   12.7377  -18.6501   21.8812 O   0  0  0  0  0  0  0  0  0  0  0  0
   10.7413  -18.7573   22.9566 O   0  0  0  0  0  0  0  0  0  0  0  0
  2  1  1  6
  3  2  1  0
  4  3  1  0
  4  5  2  0
  6  5  1  0
  7  6  1  0
  8  7  2  0
  9  8  1  0
 10  9  2  0
 10 11  1  0
 11 12  2  0
 12  7  1  0
 12  4  1  0
 13  2  1  0
 13 14  2  0
 15 16  1  0
 15 13  1  0
 16 17  1  1
 18 17  1  0
 19 18  2  0
 20 19  1  0
 21 20  2  0
 21 22  1  0
 22 23  2  0
 23 18  1  0
 24 16  1  0
 25 24  2  0
 26 24  1  0
 27 26  1  0
 27 30  1  0
 27 28  1  1
 29 28  1  0
 30 31  1  0
 32 30  2  0
M  END
$$$$
