WFC.pdb
     RDKit          3D

 32 34  0  0  1  0  0  0  0  0999 V2000
    8.7395  -16.4790   21.9398 N   0  0  0  0  0  0  0  0  0  0  0  0
    9.0014  -15.9936   23.2782 C   0  0  1  0  0  0  0  0  0  0  0  0
    8.0913  -16.7396   24.2267 C   0  0  0  0  0  0  0  0  0  0  0  0
    7.1104  -15.8181   24.8780 C   0  0  0  0  0  0  0  0  0  0  0  0
    5.8196  -16.0753   25.2386 C   0  0  0  0  0  0  0  0  0  0  0  0
    5.3217  -14.9563   25.7895 N   0  0  0  0  0  0  0  0  0  0  0  0
    6.2504  -13.9767   25.7988 C   0  0  0  0  0  0  0  0  0  0  0  0
    6.2107  -12.6612   26.2566 C   0  0  0  0  0  0  0  0  0  0  0  0
    7.3197  -11.8530   26.1446 C   0  0  0  0  0  0  0  0  0  0  0  0
    8.4539  -12.3869   25.5709 C   0  0  0  0  0  0  0  0  0  0  0  0
    8.4883  -13.6955   25.1173 C   0  0  0  0  0  0  0  0  0  0  0  0
    7.3797  -14.5178   25.2243 C   0  0  0  0  0  0  0  0  0  0  0  0
   10.3981  -16.2799   23.6481 C   0  0  0  0  0  0  0  0  0  0  0  0
   11.3056  -16.3624   22.7755 O   0  0  0  0  0  0  0  0  0  0  0  0
   10.7790  -16.4743   24.9978 N   0  0  0  0  0  0  0  0  0  0  0  0
   12.1603  -16.7001   25.3895 C   0  0  1  0  0  0  0  0  0  0  0  0
   12.2326  -16.5843   26.8896 C   0  0  0  0  0  0  0  0  0  0  0  0
   11.3802  -15.5385   27.4608 C   0  0  0  0  0  0  0  0  0  0  0  0
   10.6199  -14.6438   26.7380 C   0  0  0  0  0  0  0  0  0  0  0  0
    9.8413  -13.6827   27.3773 C   0  0  0  0  0  0  0  0  0  0  0  0
    9.8159  -13.6073   28.7534 C   0  0  0  0  0  0  0  0  0  0  0  0
   10.5707  -14.4949   29.4936 C   0  0  0  0  0  0  0  0  0  0  0  0
   11.3262  -15.4286   28.8351 C   0  0  0  0  0  0  0  0  0  0  0  0
   12.4855  -18.1145   25.0258 C   0  0  0  0  0  0  0  0  0  0  0  0
   13.5544  -18.6655   25.3802 O   0  0  0  0  0  0  0  0  0  0  0  0
   11.5628  -18.8977   24.2437 N   0  0  0  0  0  0  0  0  0  0  0  0
   11.7952  -20.2627   23.8869 C   0  0  1  0  0  0  0  0  0  0  0  0
   10.4721  -20.9835   23.8653 C   0  0  0  0  0  0  0  0  0  0  0  0
    9.1847  -19.9650   23.0994 S   0  0  0  0  0  0  0  0  0  0  0  0
   12.5013  -20.3769   22.5816 C   0  0  0  0  0  0  0  0  0  0  0  0
   12.8776  -21.6002   22.1054 O   0  0  0  0  0  0  0  0  0  0  0  0
   12.7377  -19.3403   21.9416 O   0  0  0  0  0  0  0  0  0  0  0  0
  2  1  1  6
  3  2  1  0
  4  3  1  0
  4  5  2  0
  6  5  1  0
  7  6  1  0
  8  7  2  0
  9  8  1  0
 10  9  2  0
 10 11  1  0
 11 12  2  0
 12  7  1  0
 12  4  1  0
 13  2  1  0
 13 14  2  0
 15 16  1  0
 15 13  1  0
 16 17  1  1
 18 17  1  0
 19 18  2  0
 20 19  1  0
 21 20  2  0
 21 22  1  0
 22 23  2  0
 23 18  1  0
 24 16  1  0
 25 24  2  0
 26 24  1  0
 27 26  1  0
 27 30  1  0
 27 28  1  6
 29 28  1  0
 30 31  1  0
 32 30  2  0
M  END
$$$$
