WFC.pdb
     RDKit          3D

 32 34  0  0  1  0  0  0  0  0999 V2000
    9.4822  -19.9172   25.5445 N   0  0  0  0  0  0  0  0  0  0  0  0
    9.0775  -18.7369   26.2783 C   0  0  1  0  0  0  0  0  0  0  0  0
   10.2140  -17.7424   26.2175 C   0  0  0  0  0  0  0  0  0  0  0  0
   10.4743  -17.1303   27.5565 C   0  0  0  0  0  0  0  0  0  0  0  0
   10.7999  -17.7577   28.7239 C   0  0  0  0  0  0  0  0  0  0  0  0
   10.9399  -16.8120   29.6673 N   0  0  0  0  0  0  0  0  0  0  0  0
   10.7149  -15.5861   29.1489 C   0  0  0  0  0  0  0  0  0  0  0  0
   10.7398  -14.3154   29.7203 C   0  0  0  0  0  0  0  0  0  0  0  0
   10.4662  -13.2041   28.9548 C   0  0  0  0  0  0  0  0  0  0  0  0
   10.1712  -13.3937   27.6216 C   0  0  0  0  0  0  0  0  0  0  0  0
   10.1477  -14.6593   27.0582 C   0  0  0  0  0  0  0  0  0  0  0  0
   10.4210  -15.7841   27.8175 C   0  0  0  0  0  0  0  0  0  0  0  0
    7.8943  -18.1343   25.6405 C   0  0  0  0  0  0  0  0  0  0  0  0
    6.7289  -18.3677   26.0638 O   0  0  0  0  0  0  0  0  0  0  0  0
    8.0167  -17.2691   24.5266 N   0  0  0  0  0  0  0  0  0  0  0  0
    7.0980  -17.3178   23.4014 C   0  0  1  0  0  0  0  0  0  0  0  0
    6.0952  -16.2089   23.5845 C   0  0  0  0  0  0  0  0  0  0  0  0
    6.6168  -15.0241   24.2706 C   0  0  0  0  0  0  0  0  0  0  0  0
    7.4337  -14.0680   23.7052 C   0  0  0  0  0  0  0  0  0  0  0  0
    7.8786  -12.9754   24.4447 C   0  0  0  0  0  0  0  0  0  0  0  0
    7.5083  -12.8283   25.7643 C   0  0  0  0  0  0  0  0  0  0  0  0
    6.6909  -13.7756   26.3472 C   0  0  0  0  0  0  0  0  0  0  0  0
    6.2701  -14.8388   25.5931 C   0  0  0  0  0  0  0  0  0  0  0  0
    7.9000  -17.0088   22.1768 C   0  0  0  0  0  0  0  0  0  0  0  0
    7.3619  -16.7619   21.0717 O   0  0  0  0  0  0  0  0  0  0  0  0
    9.3398  -16.9859   22.2336 N   0  0  0  0  0  0  0  0  0  0  0  0
   10.1710  -16.8668   21.0763 C   0  0  1  0  0  0  0  0  0  0  0  0
    9.8421  -15.5701   20.3825 C   0  0  0  0  0  0  0  0  0  0  0  0
   10.5842  -14.1603   21.2446 S   0  0  0  0  0  0  0  0  0  0  0  0
   11.6153  -16.9483   21.4264 C   0  0  0  0  0  0  0  0  0  0  0  0
   12.5654  -16.9248   20.4456 O   0  0  0  0  0  0  0  0  0  0  0  0
   11.9324  -17.0376   22.6228 O   0  0  0  0  0  0  0  0  0  0  0  0
  2  1  1  6
  3  2  1  0
  4  3  1  0
  4  5  2  0
  6  5  1  0
  7  6  1  0
  8  7  2  0
  9  8  1  0
 10  9  2  0
 10 11  1  0
 11 12  2  0
 12  7  1  0
 12  4  1  0
 13  2  1  0
 13 14  2  0
 15 16  1  0
 15 13  1  0
 16 17  1  1
 18 17  1  0
 19 18  2  0
 20 19  1  0
 21 20  2  0
 21 22  1  0
 22 23  2  0
 23 18  1  0
 24 16  1  0
 25 24  2  0
 26 24  1  0
 27 26  1  0
 27 30  1  0
 27 28  1  1
 29 28  1  0
 30 31  1  0
 32 30  2  0
M  END
$$$$
