WFC.pdb
     RDKit          3D

 32 34  0  0  1  0  0  0  0  0999 V2000
    7.1121  -18.4181   26.3196 N   0  0  0  0  0  0  0  0  0  0  0  0
    7.2458  -17.0931   25.7521 C   0  0  1  0  0  0  0  0  0  0  0  0
    8.6110  -16.5649   26.1283 C   0  0  0  0  0  0  0  0  0  0  0  0
    8.5092  -15.4476   27.1167 C   0  0  0  0  0  0  0  0  0  0  0  0
    8.9996  -15.3974   28.3892 C   0  0  0  0  0  0  0  0  0  0  0  0
    8.6716  -14.2009   28.9035 N   0  0  0  0  0  0  0  0  0  0  0  0
    7.9814  -13.4693   28.0031 C   0  0  0  0  0  0  0  0  0  0  0  0
    7.4340  -12.1894   28.0677 C   0  0  0  0  0  0  0  0  0  0  0  0
    6.7628  -11.6657   26.9856 C   0  0  0  0  0  0  0  0  0  0  0  0
    6.6546  -12.4440   25.8529 C   0  0  0  0  0  0  0  0  0  0  0  0
    7.2006  -13.7160   25.7938 C   0  0  0  0  0  0  0  0  0  0  0  0
    7.8776  -14.2535   26.8751 C   0  0  0  0  0  0  0  0  0  0  0  0
    7.1622  -17.1688   24.2835 C   0  0  0  0  0  0  0  0  0  0  0  0
    7.4526  -18.2278   23.6622 O   0  0  0  0  0  0  0  0  0  0  0  0
    6.7527  -16.0564   23.5094 N   0  0  0  0  0  0  0  0  0  0  0  0
    7.3209  -15.7687   22.2029 C   0  0  1  0  0  0  0  0  0  0  0  0
    6.7704  -14.4419   21.7495 C   0  0  0  0  0  0  0  0  0  0  0  0
    7.2594  -13.9951   20.4427 C   0  0  0  0  0  0  0  0  0  0  0  0
    7.1934  -14.7225   19.2732 C   0  0  0  0  0  0  0  0  0  0  0  0
    7.6895  -14.2075   18.0785 C   0  0  0  0  0  0  0  0  0  0  0  0
    8.2593  -12.9530   18.0423 C   0  0  0  0  0  0  0  0  0  0  0  0
    8.3340  -12.2102   19.2033 C   0  0  0  0  0  0  0  0  0  0  0  0
    7.8371  -12.7447   20.3625 C   0  0  0  0  0  0  0  0  0  0  0  0
    8.7951  -15.6063   22.4007 C   0  0  0  0  0  0  0  0  0  0  0  0
    9.2713  -14.9341   23.3458 O   0  0  0  0  0  0  0  0  0  0  0  0
    9.7262  -16.2291   21.4942 N   0  0  0  0  0  0  0  0  0  0  0  0
   11.1445  -16.1836   21.6692 C   0  0  1  0  0  0  0  0  0  0  0  0
   11.4819  -16.7976   23.0033 C   0  0  0  0  0  0  0  0  0  0  0  0
   13.2660  -17.0645   23.1682 S   0  0  0  0  0  0  0  0  0  0  0  0
   11.8578  -16.8681   20.5565 C   0  0  0  0  0  0  0  0  0  0  0  0
   11.1562  -17.5450   19.6001 O   0  0  0  0  0  0  0  0  0  0  0  0
   13.0967  -16.8088   20.5198 O   0  0  0  0  0  0  0  0  0  0  0  0
  2  1  1  1
  3  2  1  0
  4  3  1  0
  4  5  2  0
  6  5  1  0
  7  6  1  0
  8  7  2  0
  9  8  1  0
 10  9  2  0
 10 11  1  0
 11 12  2  0
 12  7  1  0
 12  4  1  0
 13  2  1  0
 13 14  2  0
 15 16  1  0
 15 13  1  0
 16 17  1  1
 18 17  1  0
 19 18  2  0
 20 19  1  0
 21 20  2  0
 21 22  1  0
 22 23  2  0
 23 18  1  0
 24 16  1  0
 25 24  2  0
 26 24  1  0
 27 26  1  0
 27 30  1  0
 27 28  1  1
 29 28  1  0
 30 31  1  0
 32 30  2  0
M  END
$$$$
