WFC.pdb
     RDKit          3D

 32 34  0  0  1  0  0  0  0  0999 V2000
    8.5245  -17.0757   22.2850 N   0  0  0  0  0  0  0  0  0  0  0  0
    8.9217  -15.7034   22.5182 C   0  0  1  0  0  0  0  0  0  0  0  0
    7.7043  -14.8298   22.3205 C   0  0  0  0  0  0  0  0  0  0  0  0
    7.3227  -14.7460   20.8773 C   0  0  0  0  0  0  0  0  0  0  0  0
    6.3736  -15.4651   20.2107 C   0  0  0  0  0  0  0  0  0  0  0  0
    6.3776  -15.0549   18.9319 N   0  0  0  0  0  0  0  0  0  0  0  0
    7.3020  -14.0891   18.7451 C   0  0  0  0  0  0  0  0  0  0  0  0
    7.6756  -13.3647   17.6149 C   0  0  0  0  0  0  0  0  0  0  0  0
    8.6701  -12.4159   17.6953 C   0  0  0  0  0  0  0  0  0  0  0  0
    9.2731  -12.2129   18.9183 C   0  0  0  0  0  0  0  0  0  0  0  0
    8.8980  -12.9358   20.0392 C   0  0  0  0  0  0  0  0  0  0  0  0
    7.8996  -13.8923   19.9708 C   0  0  0  0  0  0  0  0  0  0  0  0
    9.3881  -15.5482   23.9068 C   0  0  0  0  0  0  0  0  0  0  0  0
   10.2200  -14.6547   24.2248 O   0  0  0  0  0  0  0  0  0  0  0  0
    8.9219  -16.3954   24.9408 N   0  0  0  0  0  0  0  0  0  0  0  0
    9.2187  -16.1460   26.3416 C   0  0  1  0  0  0  0  0  0  0  0  0
    7.9134  -15.8714   27.0414 C   0  0  0  0  0  0  0  0  0  0  0  0
    7.4601  -14.4806   26.9595 C   0  0  0  0  0  0  0  0  0  0  0  0
    8.1952  -13.3767   27.3367 C   0  0  0  0  0  0  0  0  0  0  0  0
    7.6720  -12.0917   27.2204 C   0  0  0  0  0  0  0  0  0  0  0  0
    6.4013  -11.8979   26.7226 C   0  0  0  0  0  0  0  0  0  0  0  0
    5.6506  -12.9911   26.3398 C   0  0  0  0  0  0  0  0  0  0  0  0
    6.1936  -14.2423   26.4667 C   0  0  0  0  0  0  0  0  0  0  0  0
    9.7743  -17.4191   26.8975 C   0  0  0  0  0  0  0  0  0  0  0  0
    9.6272  -17.7422   28.0998 O   0  0  0  0  0  0  0  0  0  0  0  0
   10.5076  -18.3263   26.0515 N   0  0  0  0  0  0  0  0  0  0  0  0
   11.1703  -19.4955   26.5397 C   0  0  1  0  0  0  0  0  0  0  0  0
   11.8046  -20.2081   25.3733 C   0  0  0  0  0  0  0  0  0  0  0  0
   10.6748  -20.2825   23.9592 S   0  0  0  0  0  0  0  0  0  0  0  0
   12.1734  -19.1616   27.5873 C   0  0  0  0  0  0  0  0  0  0  0  0
   12.9499  -20.1416   28.1366 O   0  0  0  0  0  0  0  0  0  0  0  0
   12.2858  -17.9791   27.9466 O   0  0  0  0  0  0  0  0  0  0  0  0
  2  1  1  1
  3  2  1  0
  4  3  1  0
  4  5  2  0
  6  5  1  0
  7  6  1  0
  8  7  2  0
  9  8  1  0
 10  9  2  0
 10 11  1  0
 11 12  2  0
 12  7  1  0
 12  4  1  0
 13  2  1  0
 13 14  2  0
 15 16  1  0
 15 13  1  0
 16 17  1  1
 18 17  1  0
 19 18  2  0
 20 19  1  0
 21 20  2  0
 21 22  1  0
 22 23  2  0
 23 18  1  0
 24 16  1  0
 25 24  2  0
 26 24  1  0
 27 26  1  0
 27 30  1  0
 27 28  1  6
 29 28  1  0
 30 31  1  0
 32 30  2  0
M  END
$$$$
