WFC.pdb
     RDKit          3D

 32 34  0  0  1  0  0  0  0  0999 V2000
   10.6761  -16.7158   21.7427 N   0  0  0  0  0  0  0  0  0  0  0  0
    9.7553  -15.9362   22.5426 C   0  0  1  0  0  0  0  0  0  0  0  0
    8.3906  -16.5761   22.4318 C   0  0  0  0  0  0  0  0  0  0  0  0
    7.4543  -15.7271   21.6329 C   0  0  0  0  0  0  0  0  0  0  0  0
    6.1777  -16.0122   21.2440 C   0  0  0  0  0  0  0  0  0  0  0  0
    5.7219  -14.9598   20.5452 N   0  0  0  0  0  0  0  0  0  0  0  0
    6.6645  -13.9965   20.4671 C   0  0  0  0  0  0  0  0  0  0  0  0
    6.6655  -12.7430   19.8585 C   0  0  0  0  0  0  0  0  0  0  0  0
    7.7806  -11.9382   19.9278 C   0  0  0  0  0  0  0  0  0  0  0  0
    8.8793  -12.4128   20.6119 C   0  0  0  0  0  0  0  0  0  0  0  0
    8.8733  -13.6599   21.2153 C   0  0  0  0  0  0  0  0  0  0  0  0
    7.7583  -14.4781   21.1525 C   0  0  0  0  0  0  0  0  0  0  0  0
   10.1726  -15.9665   23.9550 C   0  0  0  0  0  0  0  0  0  0  0  0
   11.3882  -16.0611   24.2794 O   0  0  0  0  0  0  0  0  0  0  0  0
    9.2268  -15.8908   25.0057 N   0  0  0  0  0  0  0  0  0  0  0  0
    9.6225  -15.7638   26.3984 C   0  0  1  0  0  0  0  0  0  0  0  0
    8.3986  -15.3749   27.1856 C   0  0  0  0  0  0  0  0  0  0  0  0
    7.9298  -14.0077   26.9454 C   0  0  0  0  0  0  0  0  0  0  0  0
    8.7008  -12.8691   27.0468 C   0  0  0  0  0  0  0  0  0  0  0  0
    8.1590  -11.6108   26.7985 C   0  0  0  0  0  0  0  0  0  0  0  0
    6.8335  -11.4790   26.4443 C   0  0  0  0  0  0  0  0  0  0  0  0
    6.0463  -12.6079   26.3377 C   0  0  0  0  0  0  0  0  0  0  0  0
    6.6088  -13.8314   26.5884 C   0  0  0  0  0  0  0  0  0  0  0  0
   10.0422  -17.1262   26.8529 C   0  0  0  0  0  0  0  0  0  0  0  0
   10.2544  -17.3908   28.0598 O   0  0  0  0  0  0  0  0  0  0  0  0
   10.2174  -18.1920   25.8991 N   0  0  0  0  0  0  0  0  0  0  0  0
   10.5975  -19.5209   26.2653 C   0  0  1  0  0  0  0  0  0  0  0  0
   10.6100  -20.3744   25.0235 C   0  0  0  0  0  0  0  0  0  0  0  0
   12.3041  -20.7054   24.4742 S   0  0  0  0  0  0  0  0  0  0  0  0
   11.9147  -19.5445   26.9580 C   0  0  0  0  0  0  0  0  0  0  0  0
   12.8057  -18.5248   26.7812 O   0  0  0  0  0  0  0  0  0  0  0  0
   12.1810  -20.5069   27.6948 O   0  0  0  0  0  0  0  0  0  0  0  0
  2  1  1  6
  3  2  1  0
  4  3  1  0
  4  5  2  0
  6  5  1  0
  7  6  1  0
  8  7  2  0
  9  8  1  0
 10  9  2  0
 10 11  1  0
 11 12  2  0
 12  7  1  0
 12  4  1  0
 13  2  1  0
 13 14  2  0
 15 16  1  0
 15 13  1  0
 16 17  1  1
 18 17  1  0
 19 18  2  0
 20 19  1  0
 21 20  2  0
 21 22  1  0
 22 23  2  0
 23 18  1  0
 24 16  1  0
 25 24  2  0
 26 24  1  0
 27 26  1  0
 27 30  1  0
 27 28  1  6
 29 28  1  0
 30 31  1  0
 32 30  2  0
M  END
$$$$
