ICK.pdb
     RDKit          3D

 24 23  0  0  1  0  0  0  0  0999 V2000
   25.9229  -21.1530   -9.8878 C   0  0  0  0  0  0  0  0  0  0  0  0
   26.8166  -20.3564  -10.7989 C   0  0  0  0  0  0  0  0  0  0  0  0
   26.1486  -19.9760  -12.0842 C   0  0  2  0  0  0  0  0  0  0  0  0
   25.5433  -21.1919  -12.7094 C   0  0  0  0  0  0  0  0  0  0  0  0
   27.0604  -19.2118  -13.0130 C   0  0  2  0  0  0  0  0  0  0  0  0
   27.5766  -18.0733  -12.2791 N   0  0  0  0  0  0  0  0  0  0  0  0
   26.2013  -18.6783  -14.1243 C   0  0  0  0  0  0  0  0  0  0  0  0
   25.2321  -17.9082  -13.8952 O   0  0  0  0  0  0  0  0  0  0  0  0
   26.4466  -19.0209  -15.4834 N   0  0  0  0  0  0  0  0  0  0  0  0
   25.6717  -18.4211  -16.5768 C   0  0  1  0  0  0  0  0  0  0  0  0
   26.6202  -18.3357  -17.7654 C   0  0  0  0  0  0  0  0  0  0  0  0
   27.9705  -17.2076  -17.3611 S   0  0  0  0  0  0  0  0  0  0  0  0
   24.5598  -19.3112  -16.9295 C   0  0  0  0  0  0  0  0  0  0  0  0
   24.8105  -20.5393  -17.1264 O   0  0  0  0  0  0  0  0  0  0  0  0
   23.2262  -18.8726  -17.0611 N   0  0  0  0  0  0  0  0  0  0  0  0
   22.1144  -19.7782  -17.2897 C   0  0  1  0  0  0  0  0  0  0  0  0
   21.4394  -20.1365  -15.9945 C   0  0  0  0  0  0  0  0  0  0  0  0
   20.2287  -20.9823  -16.1591 C   0  0  0  0  0  0  0  0  0  0  0  0
   19.5186  -21.2657  -14.8697 C   0  0  0  0  0  0  0  0  0  0  0  0
   18.8593  -22.6120  -14.9116 C   0  0  0  0  0  0  0  0  0  0  0  0
   18.2199  -22.9755  -13.6790 N   0  0  0  0  0  0  0  0  0  0  0  0
   21.1949  -19.0971  -18.2337 C   0  0  0  0  0  0  0  0  0  0  0  0
   20.6039  -17.8588  -17.9516 O   0  0  0  0  0  0  0  0  0  0  0  0
   20.8793  -19.5878  -19.3619 O   0  0  0  0  0  0  0  0  0  0  0  0
  2  1  1  0
  3  2  1  0
  3  4  1  6
  5  6  1  1
  5  7  1  0
  5  3  1  0
  7  9  1  0
  8  7  2  0
  9 10  1  0
 10 11  1  6
 11 12  1  0
 13 15  1  0
 13 10  1  0
 14 13  2  0
 16 22  1  0
 16 15  1  0
 16 17  1  1
 18 17  1  0
 19 18  1  0
 20 19  1  0
 21 20  1  0
 22 23  1  0
 24 22  2  0
M  END
$$$$
