ICK.pdb
     RDKit          3D

 24 23  0  0  1  0  0  0  0  0999 V2000
   19.6482  -10.6406  -22.4879 C   0  0  0  0  0  0  0  0  0  0  0  0
   20.5480  -10.9420  -21.3205 C   0  0  0  0  0  0  0  0  0  0  0  0
   20.2148  -10.1345  -20.1039 C   0  0  2  0  0  0  0  0  0  0  0  0
   20.2337   -8.6803  -20.4513 C   0  0  0  0  0  0  0  0  0  0  0  0
   21.0804  -10.4814  -18.9170 C   0  0  2  0  0  0  0  0  0  0  0  0
   20.8794  -11.8872  -18.6261 N   0  0  0  0  0  0  0  0  0  0  0  0
   20.5495   -9.7001  -17.7485 C   0  0  0  0  0  0  0  0  0  0  0  0
   19.4410   -9.9775  -17.2203 O   0  0  0  0  0  0  0  0  0  0  0  0
   21.2775   -8.6131  -17.1889 N   0  0  0  0  0  0  0  0  0  0  0  0
   20.7015   -7.7653  -16.1377 C   0  0  1  0  0  0  0  0  0  0  0  0
   21.8185   -7.5299  -15.1294 C   0  0  0  0  0  0  0  0  0  0  0  0
   21.2265   -6.4056  -13.8468 S   0  0  0  0  0  0  0  0  0  0  0  0
   20.3126   -6.4732  -16.7142 C   0  0  0  0  0  0  0  0  0  0  0  0
   21.1060   -5.9155  -17.5323 O   0  0  0  0  0  0  0  0  0  0  0  0
   19.1024   -5.8186  -16.4063 N   0  0  0  0  0  0  0  0  0  0  0  0
   18.7072   -4.5598  -17.0127 C   0  0  1  0  0  0  0  0  0  0  0  0
   17.6584   -4.7787  -18.0680 C   0  0  0  0  0  0  0  0  0  0  0  0
   17.1960   -3.5297  -18.7271 C   0  0  0  0  0  0  0  0  0  0  0  0
   16.1298   -3.7570  -19.7560 C   0  0  0  0  0  0  0  0  0  0  0  0
   15.7660   -2.4711  -20.4365 C   0  0  0  0  0  0  0  0  0  0  0  0
   14.6120   -2.5776  -21.2834 N   0  0  0  0  0  0  0  0  0  0  0  0
   18.2258   -3.6878  -15.9135 C   0  0  0  0  0  0  0  0  0  0  0  0
   18.4282   -2.3017  -15.9049 O   0  0  0  0  0  0  0  0  0  0  0  0
   17.5973   -4.1356  -14.9046 O   0  0  0  0  0  0  0  0  0  0  0  0
  2  1  1  0
  3  2  1  0
  3  4  1  6
  5  6  1  1
  5  7  1  0
  5  3  1  0
  7  9  1  0
  8  7  2  0
  9 10  1  0
 10 11  1  1
 11 12  1  0
 13 15  1  0
 13 10  1  0
 14 13  2  0
 16 22  1  0
 16 15  1  0
 16 17  1  6
 18 17  1  0
 19 18  1  0
 20 19  1  0
 21 20  1  0
 22 23  1  0
 24 22  2  0
M  END
$$$$
