ICK.pdb
     RDKit          3D

 24 23  0  0  1  0  0  0  0  0999 V2000
   21.0424  -18.5390  -16.8999 C   0  0  0  0  0  0  0  0  0  0  0  0
   21.8335  -17.3206  -17.2913 C   0  0  0  0  0  0  0  0  0  0  0  0
   21.5114  -16.1221  -16.4531 C   0  0  2  0  0  0  0  0  0  0  0  0
   20.0309  -15.9141  -16.4303 C   0  0  0  0  0  0  0  0  0  0  0  0
   22.2858  -14.8943  -16.8665 C   0  0  2  0  0  0  0  0  0  0  0  0
   23.6867  -15.2617  -16.9275 N   0  0  0  0  0  0  0  0  0  0  0  0
   22.1322  -13.8900  -15.7595 C   0  0  0  0  0  0  0  0  0  0  0  0
   21.0658  -13.7990  -15.0967 O   0  0  0  0  0  0  0  0  0  0  0  0
   23.1859  -12.9988  -15.4131 N   0  0  0  0  0  0  0  0  0  0  0  0
   22.9864  -11.9174  -14.4401 C   0  0  1  0  0  0  0  0  0  0  0  0
   24.3793  -11.4306  -14.0625 C   0  0  0  0  0  0  0  0  0  0  0  0
   25.2566  -10.9370  -15.5613 S   0  0  0  0  0  0  0  0  0  0  0  0
   22.2637  -10.8135  -15.0820 C   0  0  0  0  0  0  0  0  0  0  0  0
   22.4146  -10.6396  -16.3297 O   0  0  0  0  0  0  0  0  0  0  0  0
   21.4096   -9.9353  -14.3840 N   0  0  0  0  0  0  0  0  0  0  0  0
   20.6848   -8.8559  -15.0307 C   0  0  1  0  0  0  0  0  0  0  0  0
   19.2064   -8.9794  -14.7843 C   0  0  0  0  0  0  0  0  0  0  0  0
   18.5432  -10.0251  -15.6060 C   0  0  0  0  0  0  0  0  0  0  0  0
   17.0579  -10.0837  -15.4123 C   0  0  0  0  0  0  0  0  0  0  0  0
   16.4633  -11.2091  -16.2053 C   0  0  0  0  0  0  0  0  0  0  0  0
   15.0285  -11.2357  -16.1750 N   0  0  0  0  0  0  0  0  0  0  0  0
   21.2400   -7.5879  -14.4975 C   0  0  0  0  0  0  0  0  0  0  0  0
   21.0846   -6.3601  -15.1538 O   0  0  0  0  0  0  0  0  0  0  0  0
   21.8941   -7.5263  -13.4104 O   0  0  0  0  0  0  0  0  0  0  0  0
  2  1  1  0
  3  2  1  0
  3  4  1  6
  5  6  1  1
  5  7  1  0
  5  3  1  0
  7  9  1  0
  8  7  2  0
  9 10  1  0
 10 11  1  6
 11 12  1  0
 13 15  1  0
 13 10  1  0
 14 13  2  0
 16 22  1  0
 16 15  1  0
 16 17  1  1
 18 17  1  0
 19 18  1  0
 20 19  1  0
 21 20  1  0
 22 23  1  0
 24 22  2  0
M  END
$$$$
