ICK.pdb
     RDKit          3D

 24 23  0  0  1  0  0  0  0  0999 V2000
   26.4611  -20.8828   -7.7320 C   0  0  0  0  0  0  0  0  0  0  0  0
   25.9878  -21.4933   -9.0230 C   0  0  0  0  0  0  0  0  0  0  0  0
   25.5963  -20.4693  -10.0432 C   0  0  2  0  0  0  0  0  0  0  0  0
   24.5276  -19.5885   -9.4796 C   0  0  0  0  0  0  0  0  0  0  0  0
   25.2332  -21.0800  -11.3749 C   0  0  2  0  0  0  0  0  0  0  0  0
   26.2146  -22.1061  -11.6668 N   0  0  0  0  0  0  0  0  0  0  0  0
   25.3920  -19.9994  -12.4068 C   0  0  0  0  0  0  0  0  0  0  0  0
   24.5457  -19.0752  -12.5276 O   0  0  0  0  0  0  0  0  0  0  0  0
   26.5061  -19.9745  -13.2915 N   0  0  0  0  0  0  0  0  0  0  0  0
   26.5946  -18.9991  -14.3853 C   0  0  1  0  0  0  0  0  0  0  0  0
   27.9873  -19.1609  -14.9802 C   0  0  0  0  0  0  0  0  0  0  0  0
   28.3578  -20.9206  -15.1409 S   0  0  0  0  0  0  0  0  0  0  0  0
   25.6048  -19.3332  -15.4156 C   0  0  0  0  0  0  0  0  0  0  0  0
   25.2743  -20.5496  -15.5614 O   0  0  0  0  0  0  0  0  0  0  0  0
   25.0013  -18.3725  -16.2528 N   0  0  0  0  0  0  0  0  0  0  0  0
   23.9663  -18.7015  -17.2167 C   0  0  1  0  0  0  0  0  0  0  0  0
   22.8108  -17.7448  -17.1105 C   0  0  0  0  0  0  0  0  0  0  0  0
   21.5607  -18.2360  -17.7464 C   0  0  0  0  0  0  0  0  0  0  0  0
   20.4600  -17.2185  -17.7635 C   0  0  0  0  0  0  0  0  0  0  0  0
   19.2320  -17.7760  -18.4194 C   0  0  0  0  0  0  0  0  0  0  0  0
   18.1079  -17.8836  -17.5334 N   0  0  0  0  0  0  0  0  0  0  0  0
   24.6029  -18.6682  -18.5562 C   0  0  0  0  0  0  0  0  0  0  0  0
   24.0837  -19.3620  -19.6568 O   0  0  0  0  0  0  0  0  0  0  0  0
   25.6615  -18.0095  -18.7990 O   0  0  0  0  0  0  0  0  0  0  0  0
  2  1  1  0
  3  2  1  0
  3  4  1  1
  5  6  1  6
  5  7  1  0
  5  3  1  0
  7  9  1  0
  8  7  2  0
  9 10  1  0
 10 11  1  6
 11 12  1  0
 13 15  1  0
 13 10  1  0
 14 13  2  0
 16 22  1  0
 16 15  1  0
 16 17  1  6
 18 17  1  0
 19 18  1  0
 20 19  1  0
 21 20  1  0
 22 23  1  0
 24 22  2  0
M  END
$$$$
