ICK.pdb
     RDKit          3D

 24 23  0  0  1  0  0  0  0  0999 V2000
   25.4013  -20.6891   -8.3736 C   0  0  0  0  0  0  0  0  0  0  0  0
   26.4318  -20.9774   -9.4312 C   0  0  0  0  0  0  0  0  0  0  0  0
   26.0222  -20.4994  -10.7901 C   0  0  2  0  0  0  0  0  0  0  0  0
   25.4702  -19.1138  -10.6848 C   0  0  0  0  0  0  0  0  0  0  0  0
   25.0992  -21.4633  -11.4952 C   0  0  2  0  0  0  0  0  0  0  0  0
   25.7658  -22.7496  -11.5438 N   0  0  0  0  0  0  0  0  0  0  0  0
   24.9594  -20.9758  -12.9096 C   0  0  0  0  0  0  0  0  0  0  0  0
   24.3281  -19.9214  -13.1829 O   0  0  0  0  0  0  0  0  0  0  0  0
   25.5346  -21.6852  -14.0006 N   0  0  0  0  0  0  0  0  0  0  0  0
   25.5030  -21.1475  -15.3665 C   0  0  1  0  0  0  0  0  0  0  0  0
   26.4915  -21.9831  -16.1693 C   0  0  0  0  0  0  0  0  0  0  0  0
   28.1515  -21.7294  -15.5060 S   0  0  0  0  0  0  0  0  0  0  0  0
   24.1628  -21.3377  -15.9327 C   0  0  0  0  0  0  0  0  0  0  0  0
   23.5906  -22.4574  -15.7631 O   0  0  0  0  0  0  0  0  0  0  0  0
   23.4770  -20.3403  -16.6558 N   0  0  0  0  0  0  0  0  0  0  0  0
   22.0726  -20.4441  -17.0098 C   0  0  1  0  0  0  0  0  0  0  0  0
   21.3175  -19.2190  -16.5733 C   0  0  0  0  0  0  0  0  0  0  0  0
   19.8936  -19.2046  -16.9987 C   0  0  0  0  0  0  0  0  0  0  0  0
   19.2022  -17.9029  -16.7259 C   0  0  0  0  0  0  0  0  0  0  0  0
   17.7977  -17.9276  -17.2511 C   0  0  0  0  0  0  0  0  0  0  0  0
   17.1242  -16.6645  -17.1454 N   0  0  0  0  0  0  0  0  0  0  0  0
   22.0153  -20.6468  -18.4782 C   0  0  0  0  0  0  0  0  0  0  0  0
   20.9538  -21.3089  -19.1085 O   0  0  0  0  0  0  0  0  0  0  0  0
   22.9228  -20.2352  -19.2658 O   0  0  0  0  0  0  0  0  0  0  0  0
  2  1  1  0
  3  2  1  0
  3  4  1  1
  5  6  1  6
  5  7  1  0
  5  3  1  0
  7  9  1  0
  8  7  2  0
  9 10  1  0
 10 11  1  6
 11 12  1  0
 13 15  1  0
 13 10  1  0
 14 13  2  0
 16 22  1  0
 16 15  1  0
 16 17  1  6
 18 17  1  0
 19 18  1  0
 20 19  1  0
 21 20  1  0
 22 23  1  0
 24 22  2  0
M  END
$$$$
