ICK.pdb
     RDKit          3D

 24 23  0  0  1  0  0  0  0  0999 V2000
   12.1448  -12.5711  -14.3594 C   0  0  0  0  0  0  0  0  0  0  0  0
   13.4579  -12.1742  -14.9771 C   0  0  0  0  0  0  0  0  0  0  0  0
   14.3465  -11.4290  -14.0295 C   0  0  2  0  0  0  0  0  0  0  0  0
   13.6057  -10.2567  -13.4702 C   0  0  0  0  0  0  0  0  0  0  0  0
   15.6776  -11.0644  -14.6405 C   0  0  2  0  0  0  0  0  0  0  0  0
   16.4069  -12.2967  -14.8654 N   0  0  0  0  0  0  0  0  0  0  0  0
   16.4310  -10.2788  -13.6047 C   0  0  0  0  0  0  0  0  0  0  0  0
   16.9805  -10.8423  -12.6222 O   0  0  0  0  0  0  0  0  0  0  0  0
   16.5556   -8.8639  -13.6902 N   0  0  0  0  0  0  0  0  0  0  0  0
   17.3634   -8.1060  -12.7265 C   0  0  1  0  0  0  0  0  0  0  0  0
   18.3668   -7.3122  -13.5527 C   0  0  0  0  0  0  0  0  0  0  0  0
   19.3094   -6.2321  -12.4552 S   0  0  0  0  0  0  0  0  0  0  0  0
   16.5013   -7.1624  -12.0058 C   0  0  0  0  0  0  0  0  0  0  0  0
   15.8170   -6.3348  -12.6815 O   0  0  0  0  0  0  0  0  0  0  0  0
   16.3936   -7.1274  -10.6004 N   0  0  0  0  0  0  0  0  0  0  0  0
   15.6522   -6.1013   -9.8890 C   0  0  1  0  0  0  0  0  0  0  0  0
   14.2197   -6.5143   -9.6913 C   0  0  0  0  0  0  0  0  0  0  0  0
   14.0483   -7.6877   -8.7958 C   0  0  0  0  0  0  0  0  0  0  0  0
   12.6142   -8.0571   -8.5636 C   0  0  0  0  0  0  0  0  0  0  0  0
   12.5110   -9.2146   -7.6156 C   0  0  0  0  0  0  0  0  0  0  0  0
   11.1709   -9.4740   -7.1719 N   0  0  0  0  0  0  0  0  0  0  0  0
   16.3563   -5.8791   -8.6024 C   0  0  0  0  0  0  0  0  0  0  0  0
   17.4610   -6.6427   -8.2040 O   0  0  0  0  0  0  0  0  0  0  0  0
   16.0077   -4.9824   -7.7730 O   0  0  0  0  0  0  0  0  0  0  0  0
  2  1  1  0
  3  2  1  0
  3  4  1  6
  5  6  1  1
  5  7  1  0
  5  3  1  0
  7  9  1  0
  8  7  2  0
  9 10  1  0
 10 11  1  6
 11 12  1  0
 13 15  1  0
 13 10  1  0
 14 13  2  0
 16 22  1  0
 16 15  1  0
 16 17  1  1
 18 17  1  0
 19 18  1  0
 20 19  1  0
 21 20  1  0
 22 23  1  0
 24 22  2  0
M  END
$$$$
