ICK.pdb
     RDKit          3D

 24 23  0  0  1  0  0  0  0  0999 V2000
   18.6021  -20.8256  -14.2368 C   0  0  0  0  0  0  0  0  0  0  0  0
   19.2952  -21.2644  -12.9757 C   0  0  0  0  0  0  0  0  0  0  0  0
   20.6688  -20.6850  -12.8333 C   0  0  2  0  0  0  0  0  0  0  0  0
   21.4646  -20.9829  -14.0637 C   0  0  0  0  0  0  0  0  0  0  0  0
   21.3528  -21.1090  -11.5564 C   0  0  2  0  0  0  0  0  0  0  0  0
   20.5901  -20.5639  -10.4508 N   0  0  0  0  0  0  0  0  0  0  0  0
   22.7005  -20.4449  -11.5436 C   0  0  0  0  0  0  0  0  0  0  0  0
   22.8192  -19.1995  -11.4028 O   0  0  0  0  0  0  0  0  0  0  0  0
   23.9004  -21.1955  -11.6901 N   0  0  0  0  0  0  0  0  0  0  0  0
   25.2183  -20.5494  -11.6507 C   0  0  1  0  0  0  0  0  0  0  0  0
   26.0806  -21.4107  -10.7373 C   0  0  0  0  0  0  0  0  0  0  0  0
   25.7062  -21.0038   -9.0186 S   0  0  0  0  0  0  0  0  0  0  0  0
   25.8056  -20.5612  -12.9953 C   0  0  0  0  0  0  0  0  0  0  0  0
   25.6675  -21.6046  -13.7038 O   0  0  0  0  0  0  0  0  0  0  0  0
   26.5160  -19.4726  -13.5415 N   0  0  0  0  0  0  0  0  0  0  0  0
   27.0565  -19.4768  -14.8892 C   0  0  1  0  0  0  0  0  0  0  0  0
   27.7084  -18.1600  -15.2097 C   0  0  0  0  0  0  0  0  0  0  0  0
   28.3366  -18.1097  -16.5555 C   0  0  0  0  0  0  0  0  0  0  0  0
   27.6460  -17.1749  -17.5022 C   0  0  0  0  0  0  0  0  0  0  0  0
   28.3398  -17.1575  -18.8316 C   0  0  0  0  0  0  0  0  0  0  0  0
   27.6652  -16.3642  -19.8195 N   0  0  0  0  0  0  0  0  0  0  0  0
   28.0109  -20.6099  -14.9639 C   0  0  0  0  0  0  0  0  0  0  0  0
   28.2737  -21.2990  -16.1549 O   0  0  0  0  0  0  0  0  0  0  0  0
   28.6559  -21.0343  -13.9552 O   0  0  0  0  0  0  0  0  0  0  0  0
  2  1  1  0
  3  2  1  0
  3  4  1  6
  5  6  1  1
  5  7  1  0
  5  3  1  0
  7  9  1  0
  8  7  2  0
  9 10  1  0
 10 11  1  1
 11 12  1  0
 13 15  1  0
 13 10  1  0
 14 13  2  0
 16 22  1  0
 16 15  1  0
 16 17  1  1
 18 17  1  0
 19 18  1  0
 20 19  1  0
 21 20  1  0
 22 23  1  0
 24 22  2  0
M  END
$$$$
