ICK.pdb
     RDKit          3D

 24 23  0  0  1  0  0  0  0  0999 V2000
   18.2407  -14.9996  -16.2005 C   0  0  0  0  0  0  0  0  0  0  0  0
   18.1912  -13.6995  -16.9560 C   0  0  0  0  0  0  0  0  0  0  0  0
   18.1731  -12.5025  -16.0562 C   0  0  2  0  0  0  0  0  0  0  0  0
   17.0411  -12.6255  -15.0871 C   0  0  0  0  0  0  0  0  0  0  0  0
   18.1755  -11.1990  -16.8171 C   0  0  2  0  0  0  0  0  0  0  0  0
   19.3466  -11.1943  -17.6714 N   0  0  0  0  0  0  0  0  0  0  0  0
   18.3539  -10.1041  -15.8037 C   0  0  0  0  0  0  0  0  0  0  0  0
   17.5186   -9.9198  -14.8800 O   0  0  0  0  0  0  0  0  0  0  0  0
   19.4748   -9.2287  -15.8449 N   0  0  0  0  0  0  0  0  0  0  0  0
   19.5788   -8.0738  -14.9443 C   0  0  1  0  0  0  0  0  0  0  0  0
   21.0669   -7.7768  -14.8129 C   0  0  0  0  0  0  0  0  0  0  0  0
   21.2882   -6.3411  -13.7408 S   0  0  0  0  0  0  0  0  0  0  0  0
   18.9240   -6.9152  -15.5623 C   0  0  0  0  0  0  0  0  0  0  0  0
   19.1447   -6.6825  -16.7899 O   0  0  0  0  0  0  0  0  0  0  0  0
   18.0618   -6.0463  -14.8626 N   0  0  0  0  0  0  0  0  0  0  0  0
   17.4057   -4.9111  -15.4866 C   0  0  1  0  0  0  0  0  0  0  0  0
   16.1137   -4.5878  -14.7881 C   0  0  0  0  0  0  0  0  0  0  0  0
   15.0341   -5.5808  -15.0267 C   0  0  0  0  0  0  0  0  0  0  0  0
   13.7785   -5.2934  -14.2600 C   0  0  0  0  0  0  0  0  0  0  0  0
   12.7445   -6.3479  -14.5204 C   0  0  0  0  0  0  0  0  0  0  0  0
   11.4859   -6.0861  -13.8819 N   0  0  0  0  0  0  0  0  0  0  0  0
   18.3675   -3.7827  -15.4408 C   0  0  0  0  0  0  0  0  0  0  0  0
   18.2045   -2.6197  -16.2044 O   0  0  0  0  0  0  0  0  0  0  0  0
   19.4046   -3.7917  -14.7075 O   0  0  0  0  0  0  0  0  0  0  0  0
  2  1  1  0
  3  2  1  0
  3  4  1  6
  5  6  1  6
  5  7  1  0
  5  3  1  0
  7  9  1  0
  8  7  2  0
  9 10  1  0
 10 11  1  6
 11 12  1  0
 13 15  1  0
 13 10  1  0
 14 13  2  0
 16 22  1  0
 16 15  1  0
 16 17  1  1
 18 17  1  0
 19 18  1  0
 20 19  1  0
 21 20  1  0
 22 23  1  0
 24 22  2  0
M  END
$$$$
