ICK.pdb
     RDKit          3D

 24 23  0  0  1  0  0  0  0  0999 V2000
   21.6357  -14.6387  -22.0223 C   0  0  0  0  0  0  0  0  0  0  0  0
   22.9819  -14.5835  -21.3529 C   0  0  0  0  0  0  0  0  0  0  0  0
   22.9812  -13.7483  -20.1098 C   0  0  2  0  0  0  0  0  0  0  0  0
   22.4759  -12.3782  -20.4310 C   0  0  0  0  0  0  0  0  0  0  0  0
   24.3158  -13.7480  -19.4049 C   0  0  2  0  0  0  0  0  0  0  0  0
   24.5901  -15.1092  -18.9888 N   0  0  0  0  0  0  0  0  0  0  0  0
   24.1503  -12.9223  -18.1605 C   0  0  0  0  0  0  0  0  0  0  0  0
   23.4751  -13.3353  -17.1816 O   0  0  0  0  0  0  0  0  0  0  0  0
   24.7499  -11.6379  -18.0356 N   0  0  0  0  0  0  0  0  0  0  0  0
   24.5500  -10.8120  -16.8382 C   0  0  1  0  0  0  0  0  0  0  0  0
   25.9138  -10.2226  -16.5027 C   0  0  0  0  0  0  0  0  0  0  0  0
   26.9470  -11.5093  -15.7702 S   0  0  0  0  0  0  0  0  0  0  0  0
   23.6309   -9.7127  -17.1541 C   0  0  0  0  0  0  0  0  0  0  0  0
   23.7104   -9.1712  -18.2989 O   0  0  0  0  0  0  0  0  0  0  0  0
   22.6634   -9.2263  -16.2513 N   0  0  0  0  0  0  0  0  0  0  0  0
   21.7277   -8.1683  -16.5885 C   0  0  1  0  0  0  0  0  0  0  0  0
   20.3146   -8.6832  -16.5926 C   0  0  0  0  0  0  0  0  0  0  0  0
   19.2994   -7.6560  -16.9427 C   0  0  0  0  0  0  0  0  0  0  0  0
   17.9105   -8.2065  -17.0644 C   0  0  0  0  0  0  0  0  0  0  0  0
   16.9461   -7.1302  -17.4650 C   0  0  0  0  0  0  0  0  0  0  0  0
   15.6627   -7.6316  -17.8671 N   0  0  0  0  0  0  0  0  0  0  0  0
   21.9291   -7.0860  -15.5944 C   0  0  0  0  0  0  0  0  0  0  0  0
   21.7718   -5.7305  -15.9111 O   0  0  0  0  0  0  0  0  0  0  0  0
   22.2577   -7.3116  -14.3883 O   0  0  0  0  0  0  0  0  0  0  0  0
  2  1  1  0
  3  2  1  0
  3  4  1  6
  5  6  1  1
  5  7  1  0
  5  3  1  0
  7  9  1  0
  8  7  2  0
  9 10  1  0
 10 11  1  6
 11 12  1  0
 13 15  1  0
 13 10  1  0
 14 13  2  0
 16 22  1  0
 16 15  1  0
 16 17  1  1
 18 17  1  0
 19 18  1  0
 20 19  1  0
 21 20  1  0
 22 23  1  0
 24 22  2  0
M  END
$$$$
