ICK.pdb
     RDKit          3D

 24 23  0  0  1  0  0  0  0  0999 V2000
   18.2720  -15.9224  -16.2366 C   0  0  0  0  0  0  0  0  0  0  0  0
   18.6619  -14.7463  -17.0899 C   0  0  0  0  0  0  0  0  0  0  0  0
   18.9813  -13.5234  -16.2864 C   0  0  2  0  0  0  0  0  0  0  0  0
   17.8462  -13.2265  -15.3595 C   0  0  0  0  0  0  0  0  0  0  0  0
   19.3812  -12.3480  -17.1447 C   0  0  2  0  0  0  0  0  0  0  0  0
   20.5529  -12.7397  -17.9029 N   0  0  0  0  0  0  0  0  0  0  0  0
   19.7978  -11.2483  -16.2094 C   0  0  0  0  0  0  0  0  0  0  0  0
   19.0091  -10.7866  -15.3437 O   0  0  0  0  0  0  0  0  0  0  0  0
   21.1019  -10.6817  -16.2625 N   0  0  0  0  0  0  0  0  0  0  0  0
   21.4440   -9.4730  -15.5024 C   0  0  1  0  0  0  0  0  0  0  0  0
   22.9639   -9.3786  -15.5262 C   0  0  0  0  0  0  0  0  0  0  0  0
   23.6438  -10.5204  -14.3040 S   0  0  0  0  0  0  0  0  0  0  0  0
   20.8921   -8.2973  -16.1851 C   0  0  0  0  0  0  0  0  0  0  0  0
   20.9479   -8.2550  -17.4520 O   0  0  0  0  0  0  0  0  0  0  0  0
   20.3026   -7.2112  -15.5062 N   0  0  0  0  0  0  0  0  0  0  0  0
   19.7201   -6.0716  -16.1921 C   0  0  1  0  0  0  0  0  0  0  0  0
   18.2250   -6.0552  -16.0306 C   0  0  0  0  0  0  0  0  0  0  0  0
   17.5580   -4.9105  -16.7039 C   0  0  0  0  0  0  0  0  0  0  0  0
   16.0618   -4.9629  -16.6285 C   0  0  0  0  0  0  0  0  0  0  0  0
   15.4503   -3.8688  -17.4519 C   0  0  0  0  0  0  0  0  0  0  0  0
   14.0150   -3.8829  -17.4480 N   0  0  0  0  0  0  0  0  0  0  0  0
   20.3603   -4.8588  -15.6267 C   0  0  0  0  0  0  0  0  0  0  0  0
   20.6313   -3.7195  -16.3954 O   0  0  0  0  0  0  0  0  0  0  0  0
   20.7071   -4.7681  -14.4082 O   0  0  0  0  0  0  0  0  0  0  0  0
  2  1  1  0
  3  2  1  0
  3  4  1  6
  5  6  1  6
  5  7  1  0
  5  3  1  0
  7  9  1  0
  8  7  2  0
  9 10  1  0
 10 11  1  6
 11 12  1  0
 13 15  1  0
 13 10  1  0
 14 13  2  0
 16 22  1  0
 16 15  1  0
 16 17  1  1
 18 17  1  0
 19 18  1  0
 20 19  1  0
 21 20  1  0
 22 23  1  0
 24 22  2  0
M  END
$$$$
