ICK.pdb
     RDKit          3D

 24 23  0  0  1  0  0  0  0  0999 V2000
   22.6887  -19.9942  -14.6213 C   0  0  0  0  0  0  0  0  0  0  0  0
   21.7716  -21.1755  -14.4577 C   0  0  0  0  0  0  0  0  0  0  0  0
   21.0515  -21.1772  -13.1446 C   0  0  2  0  0  0  0  0  0  0  0  0
   22.0413  -21.0269  -12.0340 C   0  0  0  0  0  0  0  0  0  0  0  0
   20.1381  -22.3676  -12.9802 C   0  0  2  0  0  0  0  0  0  0  0  0
   19.1993  -22.3533  -14.0846 N   0  0  0  0  0  0  0  0  0  0  0  0
   19.3525  -22.1422  -11.7194 C   0  0  0  0  0  0  0  0  0  0  0  0
   19.0228  -20.9857  -11.3473 O   0  0  0  0  0  0  0  0  0  0  0  0
   18.9478  -23.2268  -10.8921 N   0  0  0  0  0  0  0  0  0  0  0  0
   18.0404  -23.0265   -9.7553 C   0  0  1  0  0  0  0  0  0  0  0  0
   16.6850  -22.6783  -10.3566 C   0  0  0  0  0  0  0  0  0  0  0  0
   15.4868  -22.4650   -9.0230 S   0  0  0  0  0  0  0  0  0  0  0  0
   17.9115  -24.2833   -9.0091 C   0  0  0  0  0  0  0  0  0  0  0  0
   17.8286  -25.3668   -9.6641 O   0  0  0  0  0  0  0  0  0  0  0  0
   17.8749  -24.3498   -7.6012 N   0  0  0  0  0  0  0  0  0  0  0  0
   17.6900  -25.5920   -6.8724 C   0  0  1  0  0  0  0  0  0  0  0  0
   17.8244  -25.3699   -5.3911 C   0  0  0  0  0  0  0  0  0  0  0  0
   17.4887  -26.5618   -4.5695 C   0  0  0  0  0  0  0  0  0  0  0  0
   18.5463  -26.9129   -3.5668 C   0  0  0  0  0  0  0  0  0  0  0  0
   18.1405  -28.1140   -2.7658 C   0  0  0  0  0  0  0  0  0  0  0  0
   19.0213  -28.3947   -1.6678 N   0  0  0  0  0  0  0  0  0  0  0  0
   16.3510  -26.1110   -7.2441 C   0  0  0  0  0  0  0  0  0  0  0  0
   16.0625  -27.4803   -7.3081 O   0  0  0  0  0  0  0  0  0  0  0  0
   15.3736  -25.3518   -7.5301 O   0  0  0  0  0  0  0  0  0  0  0  0
  2  1  1  0
  3  2  1  0
  3  4  1  1
  5  6  1  6
  5  7  1  0
  5  3  1  0
  7  9  1  0
  8  7  2  0
  9 10  1  0
 10 11  1  6
 11 12  1  0
 13 15  1  0
 13 10  1  0
 14 13  2  0
 16 22  1  0
 16 15  1  0
 16 17  1  1
 18 17  1  0
 19 18  1  0
 20 19  1  0
 21 20  1  0
 22 23  1  0
 24 22  2  0
M  END
$$$$
