IVN.pdb
     RDKit          3D

 24 23  0  0  1  0  0  0  0  0999 V2000
   17.0205  -13.4445  -20.9866 C   0  0  0  0  0  0  0  0  0  0  0  0
   18.1921  -13.8201  -20.1052 C   0  0  0  0  0  0  0  0  0  0  0  0
   18.3979  -12.8278  -18.9800 C   0  0  2  0  0  0  0  0  0  0  0  0
   18.8359  -11.5225  -19.6161 C   0  0  0  0  0  0  0  0  0  0  0  0
   19.5047  -13.3831  -18.1044 C   0  0  2  0  0  0  0  0  0  0  0  0
   19.1841  -14.7180  -17.6348 N   0  0  0  0  0  0  0  0  0  0  0  0
   19.7472  -12.5396  -16.9176 C   0  0  0  0  0  0  0  0  0  0  0  0
   18.9127  -12.4870  -15.9483 O   0  0  0  0  0  0  0  0  0  0  0  0
   23.4672  -11.0645  -16.3673 C   0  0  0  0  0  0  0  0  0  0  0  0
   22.5659  -11.1441  -15.1834 C   0  0  1  0  0  0  0  0  0  0  0  0
   23.0237  -10.3479  -14.0005 C   0  0  0  0  0  0  0  0  0  0  0  0
   21.1050  -10.8745  -15.5618 C   0  0  2  0  0  0  0  0  0  0  0  0
   20.8982  -11.7290  -16.7450 N   0  0  0  0  0  0  0  0  0  0  0  0
   20.8734   -9.4521  -15.9173 C   0  0  0  0  0  0  0  0  0  0  0  0
   21.3326   -9.0188  -17.0317 O   0  0  0  0  0  0  0  0  0  0  0  0
   18.9631   -4.6022  -16.1834 N   0  0  0  0  0  0  0  0  0  0  0  0
   17.9761   -5.6179  -16.0317 C   0  0  0  0  0  0  0  0  0  0  0  0
   16.7922   -5.3038  -16.2064 O   0  0  0  0  0  0  0  0  0  0  0  0
   18.4007   -6.9586  -15.6830 C   0  0  0  0  0  0  0  0  0  0  0  0
   19.8888   -7.1338  -15.5691 C   0  0  2  0  0  0  0  0  0  0  0  0
   20.1750   -8.5251  -15.1117 N   0  0  0  0  0  0  0  0  0  0  0  0
   20.5771   -6.1955  -14.6848 C   0  0  0  0  0  0  0  0  0  0  0  0
   20.9659   -4.9380  -15.0490 O   0  0  0  0  0  0  0  0  0  0  0  0
   20.8596   -6.5233  -13.4785 O   0  0  0  0  0  0  0  0  0  0  0  0
  1  2  1  0
  2  3  1  0
  3  5  1  0
  3  4  1  6
  5  6  1  1
  7  8  2  0
  7  5  1  0
 10 11  1  1
 10  9  1  0
 12 10  1  0
 12 13  1  6
 13  7  1  0
 14 12  1  0
 15 14  2  0
 17 16  1  0
 18 17  2  0
 20 19  1  1
 19 17  1  0
 20 21  1  0
 21 14  1  0
 22 20  1  0
 22 23  1  0
 24 22  2  0
M  END
$$$$
