IVN.pdb
     RDKit          3D

 24 23  0  0  1  0  0  0  0  0999 V2000
   21.7230  -20.5856   -8.6315 C   0  0  0  0  0  0  0  0  0  0  0  0
   23.1358  -20.9757   -9.0086 C   0  0  0  0  0  0  0  0  0  0  0  0
   23.6195  -20.2390  -10.2399 C   0  0  2  0  0  0  0  0  0  0  0  0
   22.6858  -20.6139  -11.3748 C   0  0  0  0  0  0  0  0  0  0  0  0
   25.0222  -20.7398  -10.5263 C   0  0  2  0  0  0  0  0  0  0  0  0
   25.8806  -20.5916   -9.3659 N   0  0  0  0  0  0  0  0  0  0  0  0
   25.6531  -20.0098  -11.6433 C   0  0  0  0  0  0  0  0  0  0  0  0
   26.0668  -18.8056  -11.5111 O   0  0  0  0  0  0  0  0  0  0  0  0
   28.7271  -20.1520  -13.2742 C   0  0  0  0  0  0  0  0  0  0  0  0
   27.7366  -20.4360  -14.3505 C   0  0  1  0  0  0  0  0  0  0  0  0
   27.6199  -21.8825  -14.7204 C   0  0  0  0  0  0  0  0  0  0  0  0
   26.3824  -19.7762  -14.0657 C   0  0  2  0  0  0  0  0  0  0  0  0
   25.8545  -20.5605  -12.9348 N   0  0  0  0  0  0  0  0  0  0  0  0
   25.4593  -19.8730  -15.2241 C   0  0  0  0  0  0  0  0  0  0  0  0
   24.9799  -21.0210  -15.5284 O   0  0  0  0  0  0  0  0  0  0  0  0
   21.5248  -17.7309  -14.9114 N   0  0  0  0  0  0  0  0  0  0  0  0
   22.0267  -18.6302  -15.8953 C   0  0  0  0  0  0  0  0  0  0  0  0
   21.6900  -19.8182  -15.8177 O   0  0  0  0  0  0  0  0  0  0  0  0
   22.9000  -18.1164  -16.9311 C   0  0  0  0  0  0  0  0  0  0  0  0
   24.1282  -18.9451  -17.1817 C   0  0  2  0  0  0  0  0  0  0  0  0
   25.0613  -18.7819  -16.0286 N   0  0  0  0  0  0  0  0  0  0  0  0
   24.8519  -18.6577  -18.4185 C   0  0  0  0  0  0  0  0  0  0  0  0
   24.4519  -19.0683  -19.6581 O   0  0  0  0  0  0  0  0  0  0  0  0
   25.9396  -17.9803  -18.3956 O   0  0  0  0  0  0  0  0  0  0  0  0
  1  2  1  0
  2  3  1  0
  3  5  1  0
  3  4  1  6
  5  6  1  1
  7  8  2  0
  7  5  1  0
 10 11  1  1
 10  9  1  0
 12 10  1  0
 12 13  1  1
 13  7  1  0
 14 12  1  0
 15 14  2  0
 17 16  1  0
 18 17  2  0
 20 19  1  1
 19 17  1  0
 20 21  1  0
 21 14  1  0
 22 20  1  0
 22 23  1  0
 24 22  2  0
M  END
$$$$
