IVN.pdb
     RDKit          3D

 24 23  0  0  1  0  0  0  0  0999 V2000
   29.2147  -12.9197  -16.2738 C   0  0  0  0  0  0  0  0  0  0  0  0
   27.7634  -13.2955  -16.0671 C   0  0  0  0  0  0  0  0  0  0  0  0
   26.8231  -12.1878  -16.4938 C   0  0  2  0  0  0  0  0  0  0  0  0
   26.9766  -11.0648  -15.4860 C   0  0  0  0  0  0  0  0  0  0  0  0
   25.4193  -12.7588  -16.4345 C   0  0  2  0  0  0  0  0  0  0  0  0
   25.3050  -13.9583  -17.2430 N   0  0  0  0  0  0  0  0  0  0  0  0
   24.4099  -11.7971  -16.9189 C   0  0  0  0  0  0  0  0  0  0  0  0
   24.2945  -11.5122  -18.1616 O   0  0  0  0  0  0  0  0  0  0  0  0
   21.1214  -11.8528  -17.5780 C   0  0  0  0  0  0  0  0  0  0  0  0
   21.2093  -10.7847  -16.5428 C   0  0  1  0  0  0  0  0  0  0  0  0
   20.7937  -11.2154  -15.1700 C   0  0  0  0  0  0  0  0  0  0  0  0
   22.5706  -10.0803  -16.5666 C   0  0  2  0  0  0  0  0  0  0  0  0
   23.4967  -11.1159  -16.0740 N   0  0  0  0  0  0  0  0  0  0  0  0
   22.6048   -8.9004  -15.6665 C   0  0  0  0  0  0  0  0  0  0  0  0
   22.8717   -9.0854  -14.4275 O   0  0  0  0  0  0  0  0  0  0  0  0
   22.3053   -4.0877  -13.6456 N   0  0  0  0  0  0  0  0  0  0  0  0
   22.6037   -3.9643  -15.0329 C   0  0  0  0  0  0  0  0  0  0  0  0
   22.8430   -2.8335  -15.4741 O   0  0  0  0  0  0  0  0  0  0  0  0
   22.6126   -5.1577  -15.8547 C   0  0  0  0  0  0  0  0  0  0  0  0
   22.3441   -6.4336  -15.1078 C   0  0  2  0  0  0  0  0  0  0  0  0
   22.3637   -7.5697  -16.0753 N   0  0  0  0  0  0  0  0  0  0  0  0
   21.0949   -6.4804  -14.3506 C   0  0  0  0  0  0  0  0  0  0  0  0
   20.9958   -6.2279  -13.0122 O   0  0  0  0  0  0  0  0  0  0  0  0
   19.9905   -6.7731  -14.9313 O   0  0  0  0  0  0  0  0  0  0  0  0
  1  2  1  0
  2  3  1  0
  3  5  1  0
  3  4  1  1
  5  6  1  6
  7  8  2  0
  7  5  1  0
 10 11  1  1
 10  9  1  0
 12 10  1  0
 12 13  1  1
 13  7  1  0
 14 12  1  0
 15 14  2  0
 17 16  1  0
 18 17  2  0
 20 19  1  6
 19 17  1  0
 20 21  1  0
 21 14  1  0
 22 20  1  0
 22 23  1  0
 24 22  2  0
M  END
$$$$
