IVN.pdb
     RDKit          3D

 24 23  0  0  1  0  0  0  0  0999 V2000
   18.8068  -27.6330   -8.0799 C   0  0  0  0  0  0  0  0  0  0  0  0
   17.7197  -26.7582   -7.4939 C   0  0  0  0  0  0  0  0  0  0  0  0
   17.6799  -25.3902   -8.1418 C   0  0  2  0  0  0  0  0  0  0  0  0
   18.0508  -25.5806   -9.6001 C   0  0  0  0  0  0  0  0  0  0  0  0
   18.7245  -24.5435   -7.4402 C   0  0  2  0  0  0  0  0  0  0  0  0
   18.4204  -24.3956   -6.0292 N   0  0  0  0  0  0  0  0  0  0  0  0
   18.8198  -23.1894   -8.0198 C   0  0  0  0  0  0  0  0  0  0  0  0
   17.8153  -22.3962   -8.0437 O   0  0  0  0  0  0  0  0  0  0  0  0
   22.4588  -21.9789   -9.3790 C   0  0  0  0  0  0  0  0  0  0  0  0
   21.4678  -20.8912   -9.1446 C   0  0  1  0  0  0  0  0  0  0  0  0
   21.7572  -19.6191   -9.8800 C   0  0  0  0  0  0  0  0  0  0  0  0
   20.0282  -21.3827   -9.3349 C   0  0  2  0  0  0  0  0  0  0  0  0
   20.0031  -22.6545   -8.5901 N   0  0  0  0  0  0  0  0  0  0  0  0
   19.7052  -21.6255  -10.7632 C   0  0  0  0  0  0  0  0  0  0  0  0
   20.0184  -22.7565  -11.2762 O   0  0  0  0  0  0  0  0  0  0  0  0
   15.4336  -21.6393  -11.6356 N   0  0  0  0  0  0  0  0  0  0  0  0
   16.4790  -21.9863  -12.5386 C   0  0  0  0  0  0  0  0  0  0  0  0
   16.7031  -23.1881  -12.7289 O   0  0  0  0  0  0  0  0  0  0  0  0
   17.2243  -20.9255  -13.1858 C   0  0  0  0  0  0  0  0  0  0  0  0
   18.7154  -21.0210  -13.0260 C   0  0  2  0  0  0  0  0  0  0  0  0
   19.0690  -20.6937  -11.6136 N   0  0  0  0  0  0  0  0  0  0  0  0
   19.5092  -20.1787  -13.9183 C   0  0  0  0  0  0  0  0  0  0  0  0
   19.7885  -20.4844  -15.2197 O   0  0  0  0  0  0  0  0  0  0  0  0
   20.0003  -19.0700  -13.5035 O   0  0  0  0  0  0  0  0  0  0  0  0
  1  2  1  0
  2  3  1  0
  3  5  1  0
  3  4  1  6
  5  6  1  1
  7  8  2  0
  7  5  1  0
 10 11  1  6
 10  9  1  0
 12 10  1  0
 12 13  1  1
 13  7  1  0
 14 12  1  0
 15 14  2  0
 17 16  1  0
 18 17  2  0
 20 19  1  1
 19 17  1  0
 20 21  1  0
 21 14  1  0
 22 20  1  0
 22 23  1  0
 24 22  2  0
M  END
$$$$
