IVN.pdb
     RDKit          3D

 24 23  0  0  1  0  0  0  0  0999 V2000
   19.2739  -11.2405  -21.0972 C   0  0  0  0  0  0  0  0  0  0  0  0
   20.4881  -11.8207  -20.4048 C   0  0  0  0  0  0  0  0  0  0  0  0
   20.7898  -11.1145  -19.0997 C   0  0  2  0  0  0  0  0  0  0  0  0
   21.1608   -9.6852  -19.4458 C   0  0  0  0  0  0  0  0  0  0  0  0
   21.9749  -11.8295  -18.4795 C   0  0  2  0  0  0  0  0  0  0  0  0
   21.7081  -13.2464  -18.3172 N   0  0  0  0  0  0  0  0  0  0  0  0
   22.3159  -11.2852  -17.1506 C   0  0  0  0  0  0  0  0  0  0  0  0
   21.5585  -11.4676  -16.1348 O   0  0  0  0  0  0  0  0  0  0  0  0
   25.4025  -11.8346  -15.2090 C   0  0  0  0  0  0  0  0  0  0  0  0
   25.2434  -10.3572  -15.3197 C   0  0  1  0  0  0  0  0  0  0  0  0
   26.1931   -9.7006  -16.2735 C   0  0  0  0  0  0  0  0  0  0  0  0
   23.7820   -9.9587  -15.5551 C   0  0  2  0  0  0  0  0  0  0  0  0
   23.4849  -10.5282  -16.8819 N   0  0  0  0  0  0  0  0  0  0  0  0
   23.6026   -8.4854  -15.5845 C   0  0  0  0  0  0  0  0  0  0  0  0
   24.1609   -7.8212  -16.5265 O   0  0  0  0  0  0  0  0  0  0  0  0
   22.0233   -3.6161  -15.1611 N   0  0  0  0  0  0  0  0  0  0  0  0
   21.3305   -4.5713  -15.9588 C   0  0  0  0  0  0  0  0  0  0  0  0
   20.4895   -4.1513  -16.7632 O   0  0  0  0  0  0  0  0  0  0  0  0
   21.6401   -5.9770  -15.7923 C   0  0  0  0  0  0  0  0  0  0  0  0
   22.6795   -6.2691  -14.7472 C   0  0  2  0  0  0  0  0  0  0  0  0
   22.8523   -7.7476  -14.6417 N   0  0  0  0  0  0  0  0  0  0  0  0
   22.4162   -5.7288  -13.4150 C   0  0  0  0  0  0  0  0  0  0  0  0
   22.4209   -4.3978  -13.1091 O   0  0  0  0  0  0  0  0  0  0  0  0
   22.1590   -6.5109  -12.4329 O   0  0  0  0  0  0  0  0  0  0  0  0
  1  2  1  0
  2  3  1  0
  3  5  1  0
  3  4  1  6
  5  6  1  1
  7  8  2  0
  7  5  1  0
 10 11  1  6
 10  9  1  0
 12 10  1  0
 12 13  1  6
 13  7  1  0
 14 12  1  0
 15 14  2  0
 17 16  1  0
 18 17  2  0
 20 19  1  6
 19 17  1  0
 20 21  1  0
 21 14  1  0
 22 20  1  0
 22 23  1  0
 24 22  2  0
M  END
$$$$
