IVN.pdb
     RDKit          3D

 24 23  0  0  1  0  0  0  0  0999 V2000
   14.7638  -11.3349  -19.0232 C   0  0  0  0  0  0  0  0  0  0  0  0
   16.2205  -11.6045  -18.7136 C   0  0  0  0  0  0  0  0  0  0  0  0
   16.6078  -11.1169  -17.3333 C   0  0  2  0  0  0  0  0  0  0  0  0
   16.4341   -9.6102  -17.3316 C   0  0  0  0  0  0  0  0  0  0  0  0
   18.0676  -11.4778  -17.1358 C   0  0  2  0  0  0  0  0  0  0  0  0
   18.2719  -12.9114  -17.2272 N   0  0  0  0  0  0  0  0  0  0  0  0
   18.5732  -11.0387  -15.8204 C   0  0  0  0  0  0  0  0  0  0  0  0
   18.2681  -11.6576  -14.7422 O   0  0  0  0  0  0  0  0  0  0  0  0
   21.7313   -8.5785  -15.6970 C   0  0  0  0  0  0  0  0  0  0  0  0
   21.3626   -9.2973  -14.4449 C   0  0  1  0  0  0  0  0  0  0  0  0
   22.0208   -8.7673  -13.2085 C   0  0  0  0  0  0  0  0  0  0  0  0
   19.8437   -9.4472  -14.3015 C   0  0  2  0  0  0  0  0  0  0  0  0
   19.4224   -9.9182  -15.6332 N   0  0  0  0  0  0  0  0  0  0  0  0
   19.1821   -8.1558  -13.9881 C   0  0  0  0  0  0  0  0  0  0  0  0
   19.0962   -7.2738  -14.9128 O   0  0  0  0  0  0  0  0  0  0  0  0
   16.8712   -4.9517   -9.3812 N   0  0  0  0  0  0  0  0  0  0  0  0
   16.6738   -5.2996  -10.7482 C   0  0  0  0  0  0  0  0  0  0  0  0
   16.0731   -4.4929  -11.4688 O   0  0  0  0  0  0  0  0  0  0  0  0
   17.1805   -6.5700  -11.2263 C   0  0  0  0  0  0  0  0  0  0  0  0
   18.0302   -6.4794  -12.4624 C   0  0  2  0  0  0  0  0  0  0  0  0
   18.6307   -7.8188  -12.7318 N   0  0  0  0  0  0  0  0  0  0  0  0
   19.0974   -5.4813  -12.4328 C   0  0  0  0  0  0  0  0  0  0  0  0
   20.3275   -5.6854  -11.8758 O   0  0  0  0  0  0  0  0  0  0  0  0
   18.9204   -4.3215  -12.9486 O   0  0  0  0  0  0  0  0  0  0  0  0
  1  2  1  0
  2  3  1  0
  3  5  1  0
  3  4  1  6
  5  6  1  1
  7  8  2  0
  7  5  1  0
 10 11  1  1
 10  9  1  0
 12 10  1  0
 12 13  1  6
 13  7  1  0
 14 12  1  0
 15 14  2  0
 17 16  1  0
 18 17  2  0
 20 19  1  1
 19 17  1  0
 20 21  1  0
 21 14  1  0
 22 20  1  0
 22 23  1  0
 24 22  2  0
M  END
$$$$
