IVN.pdb
     RDKit          3D

 24 23  0  0  1  0  0  0  0  0999 V2000
   16.5985  -11.0131  -19.2652 C   0  0  0  0  0  0  0  0  0  0  0  0
   16.3117  -11.3791  -17.8250 C   0  0  0  0  0  0  0  0  0  0  0  0
   17.0987  -10.5245  -16.8538 C   0  0  2  0  0  0  0  0  0  0  0  0
   17.3095   -9.1782  -17.5197 C   0  0  0  0  0  0  0  0  0  0  0  0
   18.4298  -11.2190  -16.6395 C   0  0  2  0  0  0  0  0  0  0  0  0
   18.2434  -12.6014  -16.2401 N   0  0  0  0  0  0  0  0  0  0  0  0
   19.2368  -10.5583  -15.5950 C   0  0  0  0  0  0  0  0  0  0  0  0
   18.8440  -10.5005  -14.3781 O   0  0  0  0  0  0  0  0  0  0  0  0
   22.7870  -11.1356  -14.4280 C   0  0  0  0  0  0  0  0  0  0  0  0
   22.6639   -9.7422  -14.9414 C   0  0  1  0  0  0  0  0  0  0  0  0
   23.2349   -9.5326  -16.3099 C   0  0  0  0  0  0  0  0  0  0  0  0
   21.2346   -9.2071  -14.7968 C   0  0  2  0  0  0  0  0  0  0  0  0
   20.4910   -9.9414  -15.8363 N   0  0  0  0  0  0  0  0  0  0  0  0
   21.1562   -7.7472  -15.0537 C   0  0  0  0  0  0  0  0  0  0  0  0
   20.5608   -7.3450  -16.1139 O   0  0  0  0  0  0  0  0  0  0  0  0
   20.5435   -2.6811  -14.5251 N   0  0  0  0  0  0  0  0  0  0  0  0
   19.5361   -3.6848  -14.4456 C   0  0  0  0  0  0  0  0  0  0  0  0
   18.3551   -3.3172  -14.4159 O   0  0  0  0  0  0  0  0  0  0  0  0
   19.9377   -5.0763  -14.4034 C   0  0  0  0  0  0  0  0  0  0  0  0
   21.4236   -5.2994  -14.4195 C   0  0  2  0  0  0  0  0  0  0  0  0
   21.6937   -6.7517  -14.2074 N   0  0  0  0  0  0  0  0  0  0  0  0
   22.1964   -4.5290  -13.4471 C   0  0  0  0  0  0  0  0  0  0  0  0
   22.6433   -3.2552  -13.6540 O   0  0  0  0  0  0  0  0  0  0  0  0
   22.5031   -5.0342  -12.3099 O   0  0  0  0  0  0  0  0  0  0  0  0
  1  2  1  0
  2  3  1  0
  3  5  1  0
  3  4  1  6
  5  6  1  1
  7  8  2  0
  7  5  1  0
 10 11  1  6
 10  9  1  0
 12 10  1  0
 12 13  1  6
 13  7  1  0
 14 12  1  0
 15 14  2  0
 17 16  1  0
 18 17  2  0
 20 19  1  1
 19 17  1  0
 20 21  1  0
 21 14  1  0
 22 20  1  0
 22 23  1  0
 24 22  2  0
M  END
$$$$
