IVN.pdb
     RDKit          3D

 24 23  0  0  1  0  0  0  0  0999 V2000
   15.2843  -15.4024  -15.5607 C   0  0  0  0  0  0  0  0  0  0  0  0
   16.1394  -14.2907  -16.1293 C   0  0  0  0  0  0  0  0  0  0  0  0
   16.7248  -13.4120  -15.0439 C   0  0  2  0  0  0  0  0  0  0  0  0
   15.5579  -12.7843  -14.3058 C   0  0  0  0  0  0  0  0  0  0  0  0
   17.5424  -12.3417  -15.7412 C   0  0  2  0  0  0  0  0  0  0  0  0
   18.6112  -12.9265  -16.5293 N   0  0  0  0  0  0  0  0  0  0  0  0
   18.1578  -11.4031  -14.7826 C   0  0  0  0  0  0  0  0  0  0  0  0
   19.1207  -11.7586  -14.0176 O   0  0  0  0  0  0  0  0  0  0  0  0
   20.3339   -8.7659  -15.2133 C   0  0  0  0  0  0  0  0  0  0  0  0
   19.1336   -8.1446  -14.5860 C   0  0  1  0  0  0  0  0  0  0  0  0
   18.2268   -7.4390  -15.5464 C   0  0  0  0  0  0  0  0  0  0  0  0
   18.3946   -9.1300  -13.6732 C   0  0  2  0  0  0  0  0  0  0  0  0
   17.7499  -10.0541  -14.6236 N   0  0  0  0  0  0  0  0  0  0  0  0
   17.3644   -8.4571  -12.8429 C   0  0  0  0  0  0  0  0  0  0  0  0
   16.1870   -8.3159  -13.3267 O   0  0  0  0  0  0  0  0  0  0  0  0
   14.7973   -7.7692   -7.7882 N   0  0  0  0  0  0  0  0  0  0  0  0
   15.8424   -6.9843   -8.3543 C   0  0  0  0  0  0  0  0  0  0  0  0
   15.9078   -5.7912   -8.0333 O   0  0  0  0  0  0  0  0  0  0  0  0
   16.7712   -7.6139   -9.2710 C   0  0  0  0  0  0  0  0  0  0  0  0
   16.4846   -7.3606  -10.7242 C   0  0  2  0  0  0  0  0  0  0  0  0
   17.5836   -7.9537  -11.5411 N   0  0  0  0  0  0  0  0  0  0  0  0
   16.3146   -5.9605  -11.1077 C   0  0  0  0  0  0  0  0  0  0  0  0
   15.1130   -5.3126  -11.1445 O   0  0  0  0  0  0  0  0  0  0  0  0
   17.3263   -5.2481  -11.4413 O   0  0  0  0  0  0  0  0  0  0  0  0
  1  2  1  0
  2  3  1  0
  3  5  1  0
  3  4  1  6
  5  6  1  1
  7  8  2  0
  7  5  1  0
 10 11  1  6
 10  9  1  0
 12 10  1  0
 12 13  1  6
 13  7  1  0
 14 12  1  0
 15 14  2  0
 17 16  1  0
 18 17  2  0
 20 19  1  1
 19 17  1  0
 20 21  1  0
 21 14  1  0
 22 20  1  0
 22 23  1  0
 24 22  2  0
M  END
$$$$
