IVN.pdb
     RDKit          3D

 24 23  0  0  1  0  0  0  0  0999 V2000
   18.7547  -15.5965  -17.6064 C   0  0  0  0  0  0  0  0  0  0  0  0
   19.0730  -14.4880  -16.6264 C   0  0  0  0  0  0  0  0  0  0  0  0
   18.9020  -13.1163  -17.2446 C   0  0  2  0  0  0  0  0  0  0  0  0
   19.8812  -13.0264  -18.3992 C   0  0  0  0  0  0  0  0  0  0  0  0
   19.2600  -12.1056  -16.1720 C   0  0  2  0  0  0  0  0  0  0  0  0
   18.4164  -12.2597  -15.0016 N   0  0  0  0  0  0  0  0  0  0  0  0
   19.1112  -10.7166  -16.6488 C   0  0  0  0  0  0  0  0  0  0  0  0
   19.8117  -10.2598  -17.6180 O   0  0  0  0  0  0  0  0  0  0  0  0
   16.1738   -8.8813  -18.0425 C   0  0  0  0  0  0  0  0  0  0  0  0
   16.6167   -8.1861  -16.8012 C   0  0  1  0  0  0  0  0  0  0  0  0
   15.7714   -8.4672  -15.5974 C   0  0  0  0  0  0  0  0  0  0  0  0
   18.1153   -8.3818  -16.5438 C   0  0  2  0  0  0  0  0  0  0  0  0
   18.2014   -9.7821  -16.0915 N   0  0  0  0  0  0  0  0  0  0  0  0
   18.6229   -7.4750  -15.4839 C   0  0  0  0  0  0  0  0  0  0  0  0
   19.0287   -7.9891  -14.3833 O   0  0  0  0  0  0  0  0  0  0  0  0
   23.1179   -4.7977  -14.2826 N   0  0  0  0  0  0  0  0  0  0  0  0
   21.8458   -5.1589  -13.7536 C   0  0  0  0  0  0  0  0  0  0  0  0
   21.5978   -4.8483  -12.5819 O   0  0  0  0  0  0  0  0  0  0  0  0
   20.9105   -5.8668  -14.6043 C   0  0  0  0  0  0  0  0  0  0  0  0
   19.5460   -5.2432  -14.6885 C   0  0  2  0  0  0  0  0  0  0  0  0
   18.6959   -6.0684  -15.5959 N   0  0  0  0  0  0  0  0  0  0  0  0
   19.5049   -3.8532  -15.1384 C   0  0  0  0  0  0  0  0  0  0  0  0
   19.6950   -3.4563  -16.4312 O   0  0  0  0  0  0  0  0  0  0  0  0
   19.2802   -2.9046  -14.3065 O   0  0  0  0  0  0  0  0  0  0  0  0
  1  2  1  0
  2  3  1  0
  3  5  1  0
  3  4  1  6
  5  6  1  1
  7  8  2  0
  7  5  1  0
 10 11  1  1
 10  9  1  0
 12 10  1  0
 12 13  1  1
 13  7  1  0
 14 12  1  0
 15 14  2  0
 17 16  1  0
 18 17  2  0
 20 19  1  6
 19 17  1  0
 20 21  1  0
 21 14  1  0
 22 20  1  0
 22 23  1  0
 24 22  2  0
M  END
$$$$
