IVN.pdb
     RDKit          3D

 24 23  0  0  1  0  0  0  0  0999 V2000
   32.3523  -33.3492  -19.4453 C   0  0  0  0  0  0  0  0  0  0  0  0
   33.2143  -32.1839  -19.0098 C   0  0  0  0  0  0  0  0  0  0  0  0
   32.4291  -30.8910  -18.9401 C   0  0  2  0  0  0  0  0  0  0  0  0
   31.0269  -31.2490  -18.4862 C   0  0  0  0  0  0  0  0  0  0  0  0
   32.3973  -30.3224  -20.3458 C   0  0  2  0  0  0  0  0  0  0  0  0
   33.7277  -29.9575  -20.7957 N   0  0  0  0  0  0  0  0  0  0  0  0
   31.5502  -29.1171  -20.4362 C   0  0  0  0  0  0  0  0  0  0  0  0
   31.9667  -27.9717  -20.0445 O   0  0  0  0  0  0  0  0  0  0  0  0
   28.4013  -29.2509  -22.8223 C   0  0  0  0  0  0  0  0  0  0  0  0
   28.7754  -27.8892  -22.3468 C   0  0  1  0  0  0  0  0  0  0  0  0
   27.7031  -26.8572  -22.5141 C   0  0  0  0  0  0  0  0  0  0  0  0
   29.3633  -27.9227  -20.9314 C   0  0  2  0  0  0  0  0  0  0  0  0
   30.2291  -29.1155  -20.9522 N   0  0  0  0  0  0  0  0  0  0  0  0
   28.3130  -28.0770  -19.8939 C   0  0  0  0  0  0  0  0  0  0  0  0
   27.7241  -29.2091  -19.7849 O   0  0  0  0  0  0  0  0  0  0  0  0
   29.7608  -26.3948  -15.7073 N   0  0  0  0  0  0  0  0  0  0  0  0
   28.6254  -27.2018  -16.0047 C   0  0  0  0  0  0  0  0  0  0  0  0
   28.6696  -28.3984  -15.6936 O   0  0  0  0  0  0  0  0  0  0  0  0
   27.4828  -26.5893  -16.6517 C   0  0  0  0  0  0  0  0  0  0  0  0
   26.9814  -27.3240  -17.8628 C   0  0  2  0  0  0  0  0  0  0  0  0
   27.9067  -27.0584  -19.0031 N   0  0  0  0  0  0  0  0  0  0  0  0
   25.6162  -27.0114  -18.2805 C   0  0  0  0  0  0  0  0  0  0  0  0
   24.4953  -27.5419  -17.7084 O   0  0  0  0  0  0  0  0  0  0  0  0
   25.3995  -26.1926  -19.2423 O   0  0  0  0  0  0  0  0  0  0  0  0
  1  2  1  0
  2  3  1  0
  3  5  1  0
  3  4  1  6
  5  6  1  1
  7  8  2  0
  7  5  1  0
 10 11  1  1
 10  9  1  0
 12 10  1  0
 12 13  1  6
 13  7  1  0
 14 12  1  0
 15 14  2  0
 17 16  1  0
 18 17  2  0
 20 19  1  1
 19 17  1  0
 20 21  1  0
 21 14  1  0
 22 20  1  0
 22 23  1  0
 24 22  2  0
M  END
$$$$
