IVN.pdb
     RDKit          3D

 24 23  0  0  1  0  0  0  0  0999 V2000
   23.6829  -20.2459   -7.8978 C   0  0  0  0  0  0  0  0  0  0  0  0
   24.6219  -20.9146   -8.8784 C   0  0  0  0  0  0  0  0  0  0  0  0
   24.4471  -20.3830  -10.2854 C   0  0  2  0  0  0  0  0  0  0  0  0
   23.0081  -20.6499  -10.6834 C   0  0  0  0  0  0  0  0  0  0  0  0
   25.3922  -21.1717  -11.1714 C   0  0  2  0  0  0  0  0  0  0  0  0
   26.7615  -21.0687  -10.7025 N   0  0  0  0  0  0  0  0  0  0  0  0
   25.3633  -20.6998  -12.5696 C   0  0  0  0  0  0  0  0  0  0  0  0
   25.8966  -19.5885  -12.9153 O   0  0  0  0  0  0  0  0  0  0  0  0
   26.8683  -21.9358  -15.5873 C   0  0  0  0  0  0  0  0  0  0  0  0
   25.3998  -21.9475  -15.8396 C   0  0  1  0  0  0  0  0  0  0  0  0
   24.7660  -23.3015  -15.7516 C   0  0  0  0  0  0  0  0  0  0  0  0
   24.6712  -20.8864  -15.0069 C   0  0  2  0  0  0  0  0  0  0  0  0
   24.7572  -21.4153  -13.6337 N   0  0  0  0  0  0  0  0  0  0  0  0
   23.2488  -20.7428  -15.4063 C   0  0  0  0  0  0  0  0  0  0  0  0
   22.3797  -21.5044  -14.8541 O   0  0  0  0  0  0  0  0  0  0  0  0
   20.5338  -16.1564  -15.7924 N   0  0  0  0  0  0  0  0  0  0  0  0
   20.2906  -17.5480  -15.9740 C   0  0  0  0  0  0  0  0  0  0  0  0
   19.4617  -18.0913  -15.2333 O   0  0  0  0  0  0  0  0  0  0  0  0
   21.0186  -18.2557  -17.0078 C   0  0  0  0  0  0  0  0  0  0  0  0
   21.3204  -19.6926  -16.6885 C   0  0  2  0  0  0  0  0  0  0  0  0
   22.7710  -19.8175  -16.3611 N   0  0  0  0  0  0  0  0  0  0  0  0
   20.9866  -20.6627  -17.7295 C   0  0  0  0  0  0  0  0  0  0  0  0
   19.8548  -21.4270  -17.7355 O   0  0  0  0  0  0  0  0  0  0  0  0
   21.7728  -20.8485  -18.7244 O   0  0  0  0  0  0  0  0  0  0  0  0
  1  2  1  0
  2  3  1  0
  3  5  1  0
  3  4  1  6
  5  6  1  1
  7  8  2  0
  7  5  1  0
 10 11  1  1
 10  9  1  0
 12 10  1  0
 12 13  1  1
 13  7  1  0
 14 12  1  0
 15 14  2  0
 17 16  1  0
 18 17  2  0
 20 19  1  6
 19 17  1  0
 20 21  1  0
 21 14  1  0
 22 20  1  0
 22 23  1  0
 24 22  2  0
M  END
$$$$
