IVN.pdb
     RDKit          3D

 24 23  0  0  1  0  0  0  0  0999 V2000
   26.6066  -14.4652  -15.1857 C   0  0  0  0  0  0  0  0  0  0  0  0
   25.1744  -14.5458  -15.6681 C   0  0  0  0  0  0  0  0  0  0  0  0
   24.6458  -13.1964  -16.1072 C   0  0  2  0  0  0  0  0  0  0  0  0
   24.5809  -12.3227  -14.8692 C   0  0  0  0  0  0  0  0  0  0  0  0
   23.2525  -13.4309  -16.6585 C   0  0  2  0  0  0  0  0  0  0  0  0
   23.2642  -14.4319  -17.7088 N   0  0  0  0  0  0  0  0  0  0  0  0
   22.6663  -12.1995  -17.2230 C   0  0  0  0  0  0  0  0  0  0  0  0
   23.0464  -11.7301  -18.3517 O   0  0  0  0  0  0  0  0  0  0  0  0
   20.0977  -11.5335  -19.0712 C   0  0  0  0  0  0  0  0  0  0  0  0
   19.7951  -10.7322  -17.8520 C   0  0  1  0  0  0  0  0  0  0  0  0
   18.8461  -11.3890  -16.8977 C   0  0  0  0  0  0  0  0  0  0  0  0
   21.0725  -10.2217  -17.1754 C   0  0  2  0  0  0  0  0  0  0  0  0
   21.6528  -11.4407  -16.5837 N   0  0  0  0  0  0  0  0  0  0  0  0
   20.7819   -9.2300  -16.1098 C   0  0  0  0  0  0  0  0  0  0  0  0
   20.4036   -9.6586  -14.9637 O   0  0  0  0  0  0  0  0  0  0  0  0
   22.5046   -6.5591  -13.2181 N   0  0  0  0  0  0  0  0  0  0  0  0
   22.4348   -5.5483  -14.2191 C   0  0  0  0  0  0  0  0  0  0  0  0
   23.2266   -4.6008  -14.1397 O   0  0  0  0  0  0  0  0  0  0  0  0
   21.4491   -5.6755  -15.2733 C   0  0  0  0  0  0  0  0  0  0  0  0
   20.5617   -6.8826  -15.1577 C   0  0  2  0  0  0  0  0  0  0  0  0
   20.8928   -7.8298  -16.2623 N   0  0  0  0  0  0  0  0  0  0  0  0
   19.1235   -6.6228  -15.1743 C   0  0  0  0  0  0  0  0  0  0  0  0
   18.3523   -6.4882  -14.0553 O   0  0  0  0  0  0  0  0  0  0  0  0
   18.4946   -6.5054  -16.2848 O   0  0  0  0  0  0  0  0  0  0  0  0
  1  2  1  0
  2  3  1  0
  3  5  1  0
  3  4  1  1
  5  6  1  6
  7  8  2  0
  7  5  1  0
 10 11  1  1
 10  9  1  0
 12 10  1  0
 12 13  1  1
 13  7  1  0
 14 12  1  0
 15 14  2  0
 17 16  1  0
 18 17  2  0
 20 19  1  6
 19 17  1  0
 20 21  1  0
 21 14  1  0
 22 20  1  0
 22 23  1  0
 24 22  2  0
M  END
$$$$
