IVN.pdb
     RDKit          3D

 24 23  0  0  1  0  0  0  0  0999 V2000
   24.4093  -19.2712  -16.3641 C   0  0  0  0  0  0  0  0  0  0  0  0
   23.5362  -18.1338  -15.8801 C   0  0  0  0  0  0  0  0  0  0  0  0
   24.0754  -16.7835  -16.3033 C   0  0  2  0  0  0  0  0  0  0  0  0
   25.3882  -16.5823  -15.5709 C   0  0  0  0  0  0  0  0  0  0  0  0
   23.0608  -15.7482  -15.8572 C   0  0  2  0  0  0  0  0  0  0  0  0
   21.7180  -16.1189  -16.2631 N   0  0  0  0  0  0  0  0  0  0  0  0
   23.3453  -14.4150  -16.4231 C   0  0  0  0  0  0  0  0  0  0  0  0
   24.4380  -13.7972  -16.1718 O   0  0  0  0  0  0  0  0  0  0  0  0
   22.3404  -11.2579  -20.0313 C   0  0  0  0  0  0  0  0  0  0  0  0
   22.5046  -12.5661  -19.3371 C   0  0  1  0  0  0  0  0  0  0  0  0
   23.4711  -13.5011  -19.9962 C   0  0  0  0  0  0  0  0  0  0  0  0
   22.7691  -12.3852  -17.8380 C   0  0  2  0  0  0  0  0  0  0  0  0
   22.4569  -13.7118  -17.2763 N   0  0  0  0  0  0  0  0  0  0  0  0
   21.8832  -11.3583  -17.2345 C   0  0  0  0  0  0  0  0  0  0  0  0
   20.8877  -11.7488  -16.5297 O   0  0  0  0  0  0  0  0  0  0  0  0
   19.8675   -8.6201  -13.4874 N   0  0  0  0  0  0  0  0  0  0  0  0
   21.0996   -8.3193  -14.1355 C   0  0  0  0  0  0  0  0  0  0  0  0
   21.6507   -7.2464  -13.8599 O   0  0  0  0  0  0  0  0  0  0  0  0
   21.6447   -9.2748  -15.0785 C   0  0  0  0  0  0  0  0  0  0  0  0
   21.3300   -8.9820  -16.5184 C   0  0  2  0  0  0  0  0  0  0  0  0
   22.0551   -9.9633  -17.3777 N   0  0  0  0  0  0  0  0  0  0  0  0
   21.6421   -7.6305  -16.9790 C   0  0  0  0  0  0  0  0  0  0  0  0
   20.8213   -6.5517  -16.8132 O   0  0  0  0  0  0  0  0  0  0  0  0
   22.7448   -7.3862  -17.5847 O   0  0  0  0  0  0  0  0  0  0  0  0
  1  2  1  0
  2  3  1  0
  3  5  1  0
  3  4  1  1
  5  6  1  6
  7  8  2  0
  7  5  1  0
 10 11  1  6
 10  9  1  0
 12 10  1  0
 12 13  1  1
 13  7  1  0
 14 12  1  0
 15 14  2  0
 17 16  1  0
 18 17  2  0
 20 19  1  1
 19 17  1  0
 20 21  1  0
 21 14  1  0
 22 20  1  0
 22 23  1  0
 24 22  2  0
M  END
$$$$
