IVN.pdb
     RDKit          3D

 24 23  0  0  1  0  0  0  0  0999 V2000
   15.7723  -13.7940  -14.7567 C   0  0  0  0  0  0  0  0  0  0  0  0
   16.8069  -13.3271  -15.7577 C   0  0  0  0  0  0  0  0  0  0  0  0
   17.7010  -12.2456  -15.1885 C   0  0  2  0  0  0  0  0  0  0  0  0
   16.8136  -11.0548  -14.8808 C   0  0  0  0  0  0  0  0  0  0  0  0
   18.7009  -11.8898  -16.2719 C   0  0  2  0  0  0  0  0  0  0  0  0
   19.3723  -13.0728  -16.7770 N   0  0  0  0  0  0  0  0  0  0  0  0
   19.7399  -10.9623  -15.7830 C   0  0  0  0  0  0  0  0  0  0  0  0
   20.7004  -11.3617  -15.0369 O   0  0  0  0  0  0  0  0  0  0  0  0
   22.0227   -8.8366  -17.8284 C   0  0  0  0  0  0  0  0  0  0  0  0
   21.2651   -7.9467  -16.9042 C   0  0  1  0  0  0  0  0  0  0  0  0
   20.1403   -7.1965  -17.5483 C   0  0  0  0  0  0  0  0  0  0  0  0
   20.8451   -8.6803  -15.6253 C   0  0  2  0  0  0  0  0  0  0  0  0
   19.7701   -9.5772  -16.0865 N   0  0  0  0  0  0  0  0  0  0  0  0
   20.3210   -7.7498  -14.5942 C   0  0  0  0  0  0  0  0  0  0  0  0
   19.0773   -7.8088  -14.2942 O   0  0  0  0  0  0  0  0  0  0  0  0
   19.5189   -4.7408  -10.5366 N   0  0  0  0  0  0  0  0  0  0  0  0
   19.5577   -6.1646  -10.5372 C   0  0  0  0  0  0  0  0  0  0  0  0
   19.2070   -6.7526   -9.5067 O   0  0  0  0  0  0  0  0  0  0  0  0
   20.0022   -6.8511  -11.7332 C   0  0  0  0  0  0  0  0  0  0  0  0
   20.5333   -5.9493  -12.8114 C   0  0  2  0  0  0  0  0  0  0  0  0
   21.0982   -6.7909  -13.9066 N   0  0  0  0  0  0  0  0  0  0  0  0
   21.5433   -4.9791  -12.3934 C   0  0  0  0  0  0  0  0  0  0  0  0
   22.8170   -4.9335  -12.8840 O   0  0  0  0  0  0  0  0  0  0  0  0
   21.2691   -4.0911  -11.5109 O   0  0  0  0  0  0  0  0  0  0  0  0
  1  2  1  0
  2  3  1  0
  3  5  1  0
  3  4  1  6
  5  6  1  1
  7  8  2  0
  7  5  1  0
 10 11  1  6
 10  9  1  0
 12 10  1  0
 12 13  1  6
 13  7  1  0
 14 12  1  0
 15 14  2  0
 17 16  1  0
 18 17  2  0
 20 19  1  1
 19 17  1  0
 20 21  1  0
 21 14  1  0
 22 20  1  0
 22 23  1  0
 24 22  2  0
M  END
$$$$
