IVN.pdb
     RDKit          3D

 24 23  0  0  1  0  0  0  0  0999 V2000
   23.4976  -12.7359  -21.7696 C   0  0  0  0  0  0  0  0  0  0  0  0
   24.0160  -11.8655  -20.6453 C   0  0  0  0  0  0  0  0  0  0  0  0
   22.8944  -11.3110  -19.7923 C   0  0  2  0  0  0  0  0  0  0  0  0
   22.0176  -10.4743  -20.7040 C   0  0  0  0  0  0  0  0  0  0  0  0
   23.5404  -10.4353  -18.7358 C   0  0  2  0  0  0  0  0  0  0  0  0
   24.4968  -11.1859  -17.9436 N   0  0  0  0  0  0  0  0  0  0  0  0
   22.5457   -9.8623  -17.8081 C   0  0  0  0  0  0  0  0  0  0  0  0
   21.5787   -9.1343  -18.2250 O   0  0  0  0  0  0  0  0  0  0  0  0
   23.0721  -10.5211  -13.7992 C   0  0  0  0  0  0  0  0  0  0  0  0
   21.6595  -10.3754  -14.2504 C   0  0  1  0  0  0  0  0  0  0  0  0
   20.6999   -9.9847  -13.1690 C   0  0  0  0  0  0  0  0  0  0  0  0
   21.5497   -9.4944  -15.5001 C   0  0  2  0  0  0  0  0  0  0  0  0
   22.5679  -10.0596  -16.4037 N   0  0  0  0  0  0  0  0  0  0  0  0
   21.8626   -8.0726  -15.2104 C   0  0  0  0  0  0  0  0  0  0  0  0
   23.0720   -7.7588  -14.9288 O   0  0  0  0  0  0  0  0  0  0  0  0
   21.9840   -2.9616  -14.5760 N   0  0  0  0  0  0  0  0  0  0  0  0
   21.9663   -3.4767  -15.9038 C   0  0  0  0  0  0  0  0  0  0  0  0
   22.2161   -2.6955  -16.8301 O   0  0  0  0  0  0  0  0  0  0  0  0
   21.6592   -4.8783  -16.1057 C   0  0  0  0  0  0  0  0  0  0  0  0
   21.2821   -5.6225  -14.8559 C   0  0  2  0  0  0  0  0  0  0  0  0
   20.9174   -7.0225  -15.2220 N   0  0  0  0  0  0  0  0  0  0  0  0
   20.1954   -5.0422  -14.0696 C   0  0  0  0  0  0  0  0  0  0  0  0
   19.0488   -5.7041  -13.7344 O   0  0  0  0  0  0  0  0  0  0  0  0
   20.2713   -3.8365  -13.6418 O   0  0  0  0  0  0  0  0  0  0  0  0
  1  2  1  0
  2  3  1  0
  3  5  1  0
  3  4  1  6
  5  6  1  1
  7  8  2  0
  7  5  1  0
 10 11  1  1
 10  9  1  0
 12 10  1  0
 12 13  1  6
 13  7  1  0
 14 12  1  0
 15 14  2  0
 17 16  1  0
 18 17  2  0
 20 19  1  6
 19 17  1  0
 20 21  1  0
 21 14  1  0
 22 20  1  0
 22 23  1  0
 24 22  2  0
M  END
$$$$
