IVN.pdb
     RDKit          3D

 24 23  0  0  1  0  0  0  0  0999 V2000
   24.5472  -38.2547  -13.7795 C   0  0  0  0  0  0  0  0  0  0  0  0
   24.3589  -36.7539  -13.7302 C   0  0  0  0  0  0  0  0  0  0  0  0
   25.1910  -36.1121  -12.6399 C   0  0  2  0  0  0  0  0  0  0  0  0
   24.6799  -36.6521  -11.3179 C   0  0  0  0  0  0  0  0  0  0  0  0
   24.9476  -34.6177  -12.7265 C   0  0  2  0  0  0  0  0  0  0  0  0
   25.4505  -34.0744  -13.9744 N   0  0  0  0  0  0  0  0  0  0  0  0
   25.6034  -33.8855  -11.6254 C   0  0  0  0  0  0  0  0  0  0  0  0
   26.8588  -33.6352  -11.6383 O   0  0  0  0  0  0  0  0  0  0  0  0
   23.1502  -32.1025   -9.3809 C   0  0  0  0  0  0  0  0  0  0  0  0
   24.5038  -31.6856   -8.9181 C   0  0  1  0  0  0  0  0  0  0  0  0
   24.5948  -31.3902   -7.4527 C   0  0  0  0  0  0  0  0  0  0  0  0
   25.5932  -32.6468   -9.4073 C   0  0  2  0  0  0  0  0  0  0  0  0
   24.9212  -33.4033  -10.4792 N   0  0  0  0  0  0  0  0  0  0  0  0
   26.0418  -33.5735   -8.3379 C   0  0  0  0  0  0  0  0  0  0  0  0
   25.3508  -34.6285   -8.1149 O   0  0  0  0  0  0  0  0  0  0  0  0
   30.9356  -35.1578   -4.9121 N   0  0  0  0  0  0  0  0  0  0  0  0
   29.5386  -35.1443   -5.1894 C   0  0  0  0  0  0  0  0  0  0  0  0
   28.8162  -35.9237   -4.5558 O   0  0  0  0  0  0  0  0  0  0  0  0
   29.0337  -34.2274   -6.1912 C   0  0  0  0  0  0  0  0  0  0  0  0
   27.5538  -34.3197   -6.4347 C   0  0  2  0  0  0  0  0  0  0  0  0
   27.1887  -33.3808   -7.5357 N   0  0  0  0  0  0  0  0  0  0  0  0
   26.6980  -34.0496   -5.2811 C   0  0  0  0  0  0  0  0  0  0  0  0
   26.1764  -35.0138   -4.4667 O   0  0  0  0  0  0  0  0  0  0  0  0
   26.3845  -32.8469   -4.9688 O   0  0  0  0  0  0  0  0  0  0  0  0
  1  2  1  0
  2  3  1  0
  3  5  1  0
  3  4  1  1
  5  6  1  6
  7  8  2  0
  7  5  1  0
 10 11  1  1
 10  9  1  0
 12 10  1  0
 12 13  1  6
 13  7  1  0
 14 12  1  0
 15 14  2  0
 17 16  1  0
 18 17  2  0
 20 19  1  1
 19 17  1  0
 20 21  1  0
 21 14  1  0
 22 20  1  0
 22 23  1  0
 24 22  2  0
M  END
$$$$
