IVN.pdb
     RDKit          3D

 24 23  0  0  1  0  0  0  0  0999 V2000
   27.2406  -16.3457  -17.7513 C   0  0  0  0  0  0  0  0  0  0  0  0
   27.7823  -17.3661  -16.7736 C   0  0  0  0  0  0  0  0  0  0  0  0
   26.6791  -18.1858  -16.1380 C   0  0  2  0  0  0  0  0  0  0  0  0
   25.8065  -17.2223  -15.3566 C   0  0  0  0  0  0  0  0  0  0  0  0
   27.3506  -19.1677  -15.1972 C   0  0  2  0  0  0  0  0  0  0  0  0
   28.3376  -19.9719  -15.8933 N   0  0  0  0  0  0  0  0  0  0  0  0
   26.3807  -20.0913  -14.5768 C   0  0  0  0  0  0  0  0  0  0  0  0
   25.8765  -21.0725  -15.2262 O   0  0  0  0  0  0  0  0  0  0  0  0
   26.9494  -21.7413  -11.2923 C   0  0  0  0  0  0  0  0  0  0  0  0
   25.5761  -21.1665  -11.2294 C   0  0  1  0  0  0  0  0  0  0  0  0
   25.4438  -19.9723  -10.3355 C   0  0  0  0  0  0  0  0  0  0  0  0
   24.9898  -20.9400  -12.6276 C   0  0  2  0  0  0  0  0  0  0  0  0
   25.9281  -19.9804  -13.2372 N   0  0  0  0  0  0  0  0  0  0  0  0
   23.6278  -20.3521  -12.5736 C   0  0  0  0  0  0  0  0  0  0  0  0
   23.5082  -19.1167  -12.2579 O   0  0  0  0  0  0  0  0  0  0  0  0
   19.4179  -18.9465  -15.5899 N   0  0  0  0  0  0  0  0  0  0  0  0
   20.1087  -18.5517  -14.4085 C   0  0  0  0  0  0  0  0  0  0  0  0
   19.6340  -17.6215  -13.7451 O   0  0  0  0  0  0  0  0  0  0  0  0
   21.3236  -19.2513  -14.0425 C   0  0  0  0  0  0  0  0  0  0  0  0
   21.1304  -20.3639  -13.0511 C   0  0  2  0  0  0  0  0  0  0  0  0
   22.4355  -21.0586  -12.8482 N   0  0  0  0  0  0  0  0  0  0  0  0
   20.1155  -21.3577  -13.3952 C   0  0  0  0  0  0  0  0  0  0  0  0
   20.3915  -22.6374  -13.7841 O   0  0  0  0  0  0  0  0  0  0  0  0
   18.8695  -21.0616  -13.3464 O   0  0  0  0  0  0  0  0  0  0  0  0
  1  2  1  0
  2  3  1  0
  3  5  1  0
  3  4  1  1
  5  6  1  6
  7  8  2  0
  7  5  1  0
 10 11  1  6
 10  9  1  0
 12 10  1  0
 12 13  1  6
 13  7  1  0
 14 12  1  0
 15 14  2  0
 17 16  1  0
 18 17  2  0
 20 19  1  6
 19 17  1  0
 20 21  1  0
 21 14  1  0
 22 20  1  0
 22 23  1  0
 24 22  2  0
M  END
$$$$
