LWC.pdb
     RDKit          3D

 29 30  0  0  1  0  0  0  0  0999 V2000
   21.8107  -19.1617  -15.7581 C   0  0  0  0  0  0  0  0  0  0  0  0
   22.8249  -20.2661  -15.7930 C   0  0  2  0  0  0  0  0  0  0  0  0
   22.3203  -21.3117  -16.7582 C   0  0  0  0  0  0  0  0  0  0  0  0
   23.1568  -20.8358  -14.4484 C   0  0  0  0  0  0  0  0  0  0  0  0
   23.6061  -19.7525  -13.4957 C   0  0  2  0  0  0  0  0  0  0  0  0
   24.7241  -19.0698  -14.0801 N   0  0  0  0  0  0  0  0  0  0  0  0
   24.0261  -20.3093  -12.1938 C   0  0  0  0  0  0  0  0  0  0  0  0
   23.6562  -21.4659  -11.8224 O   0  0  0  0  0  0  0  0  0  0  0  0
   24.8626  -19.6108  -11.2667 N   0  0  0  0  0  0  0  0  0  0  0  0
   25.2758  -20.1584  -10.0125 C   0  0  1  0  0  0  0  0  0  0  0  0
   26.3357  -19.3569   -9.3187 C   0  0  0  0  0  0  0  0  0  0  0  0
   26.9792  -20.0740   -8.1931 C   0  0  0  0  0  0  0  0  0  0  0  0
   27.1699  -21.4590   -8.1115 C   0  0  0  0  0  0  0  0  0  0  0  0
   27.8029  -21.7448   -6.9706 N   0  0  0  0  0  0  0  0  0  0  0  0
   28.0572  -20.6115   -6.2597 C   0  0  0  0  0  0  0  0  0  0  0  0
   28.6711  -20.3994   -5.0422 C   0  0  0  0  0  0  0  0  0  0  0  0
   28.7904  -19.1272   -4.5441 C   0  0  0  0  0  0  0  0  0  0  0  0
   28.2772  -18.1013   -5.3056 C   0  0  0  0  0  0  0  0  0  0  0  0
   27.6635  -18.3119   -6.5228 C   0  0  0  0  0  0  0  0  0  0  0  0
   27.5374  -19.5830   -7.0355 C   0  0  0  0  0  0  0  0  0  0  0  0
   24.1401  -20.3227   -9.0640 C   0  0  0  0  0  0  0  0  0  0  0  0
   23.3874  -19.3542   -8.8348 O   0  0  0  0  0  0  0  0  0  0  0  0
   23.9164  -21.5722   -8.4266 N   0  0  0  0  0  0  0  0  0  0  0  0
   22.9003  -21.7814   -7.4318 C   0  0  1  0  0  0  0  0  0  0  0  0
   22.6795  -23.2495   -7.1357 C   0  0  0  0  0  0  0  0  0  0  0  0
   23.0084  -23.5774   -5.3663 S   0  0  0  0  0  0  0  0  0  0  0  0
   23.1261  -21.0455   -6.1788 C   0  0  0  0  0  0  0  0  0  0  0  0
   22.0698  -20.8383   -5.3159 O   0  0  0  0  0  0  0  0  0  0  0  0
   24.2545  -20.6043   -5.8802 O   0  0  0  0  0  0  0  0  0  0  0  0
  2  3  1  6
  2  1  1  0
  4  2  1  0
  5  4  1  0
  5  6  1  6
  7  8  2  0
  7  5  1  0
  9  7  1  0
 10  9  1  0
 10 11  1  1
 11 12  1  0
 12 13  2  0
 12 20  1  0
 13 14  1  0
 14 15  1  0
 15 16  2  0
 17 16  1  0
 18 17  2  0
 19 20  2  0
 19 18  1  0
 20 15  1  0
 21 22  2  0
 21 10  1  0
 23 21  1  0
 24 25  1  1
 24 23  1  0
 26 25  1  0
 27 24  1  0
 28 27  1  0
 29 27  2  0
M  END
$$$$
