LWC.pdb
     RDKit          3D

 29 30  0  0  1  0  0  0  0  0999 V2000
   26.2289  -36.2092   -5.0254 C   0  0  0  0  0  0  0  0  0  0  0  0
   27.6316  -36.6441   -4.7212 C   0  0  2  0  0  0  0  0  0  0  0  0
   27.7037  -38.1334   -4.9583 C   0  0  0  0  0  0  0  0  0  0  0  0
   28.1118  -36.2542   -3.3574 C   0  0  0  0  0  0  0  0  0  0  0  0
   28.0627  -34.7553   -3.1725 C   0  0  2  0  0  0  0  0  0  0  0  0
   29.0812  -34.1638   -3.9912 N   0  0  0  0  0  0  0  0  0  0  0  0
   28.3083  -34.3695   -1.7681 C   0  0  0  0  0  0  0  0  0  0  0  0
   29.4277  -34.5906   -1.2109 O   0  0  0  0  0  0  0  0  0  0  0  0
   27.3315  -33.7314   -0.9400 N   0  0  0  0  0  0  0  0  0  0  0  0
   27.5957  -33.2962    0.3958 C   0  0  1  0  0  0  0  0  0  0  0  0
   26.7793  -32.1137    0.8228 C   0  0  0  0  0  0  0  0  0  0  0  0
   27.0902  -31.6425    2.1927 C   0  0  0  0  0  0  0  0  0  0  0  0
   28.3061  -31.8283    2.8623 C   0  0  0  0  0  0  0  0  0  0  0  0
   28.2338  -31.2506    4.0644 N   0  0  0  0  0  0  0  0  0  0  0  0
   27.0151  -30.6728    4.2525 C   0  0  0  0  0  0  0  0  0  0  0  0
   26.4735  -29.9765    5.3137 C   0  0  0  0  0  0  0  0  0  0  0  0
   25.1897  -29.4998    5.2404 C   0  0  0  0  0  0  0  0  0  0  0  0
   24.4903  -29.7480    4.0808 C   0  0  0  0  0  0  0  0  0  0  0  0
   25.0305  -30.4437    3.0192 C   0  0  0  0  0  0  0  0  0  0  0  0
   26.3178  -30.9272    3.0783 C   0  0  0  0  0  0  0  0  0  0  0  0
   27.3827  -34.3775    1.3968 C   0  0  0  0  0  0  0  0  0  0  0  0
   26.2815  -34.9626    1.4425 O   0  0  0  0  0  0  0  0  0  0  0  0
   28.4253  -34.7390    2.2912 N   0  0  0  0  0  0  0  0  0  0  0  0
   28.3400  -35.8526    3.1959 C   0  0  1  0  0  0  0  0  0  0  0  0
   29.4112  -36.8896    2.9332 C   0  0  0  0  0  0  0  0  0  0  0  0
   29.1556  -37.6349    1.2824 S   0  0  0  0  0  0  0  0  0  0  0  0
   28.3463  -35.4739    4.6168 C   0  0  0  0  0  0  0  0  0  0  0  0
   27.6899  -36.2703    5.5323 O   0  0  0  0  0  0  0  0  0  0  0  0
   28.9336  -34.4460    5.0114 O   0  0  0  0  0  0  0  0  0  0  0  0
  2  3  1  1
  2  1  1  0
  4  2  1  0
  5  4  1  0
  5  6  1  6
  7  8  2  0
  7  5  1  0
  9  7  1  0
 10  9  1  0
 10 11  1  1
 11 12  1  0
 12 13  2  0
 12 20  1  0
 13 14  1  0
 14 15  1  0
 15 16  2  0
 17 16  1  0
 18 17  2  0
 19 20  2  0
 19 18  1  0
 20 15  1  0
 21 22  2  0
 21 10  1  0
 23 21  1  0
 24 25  1  1
 24 23  1  0
 26 25  1  0
 27 24  1  0
 28 27  1  0
 29 27  2  0
M  END
$$$$
