LWC.pdb
     RDKit          3D

 29 30  0  0  1  0  0  0  0  0999 V2000
   24.6005  -19.1849  -16.7238 C   0  0  0  0  0  0  0  0  0  0  0  0
   24.3291  -20.6317  -16.4365 C   0  0  2  0  0  0  0  0  0  0  0  0
   23.1750  -21.0568  -17.3122 C   0  0  0  0  0  0  0  0  0  0  0  0
   24.0958  -20.9356  -14.9888 C   0  0  0  0  0  0  0  0  0  0  0  0
   25.2436  -20.4423  -14.1387 C   0  0  2  0  0  0  0  0  0  0  0  0
   26.4468  -21.0826  -14.5857 N   0  0  0  0  0  0  0  0  0  0  0  0
   25.0444  -20.7645  -12.7112 C   0  0  0  0  0  0  0  0  0  0  0  0
   24.0691  -21.4819  -12.3282 O   0  0  0  0  0  0  0  0  0  0  0  0
   25.9105  -20.3075  -11.6681 N   0  0  0  0  0  0  0  0  0  0  0  0
   25.6994  -20.6009  -10.2850 C   0  0  1  0  0  0  0  0  0  0  0  0
   26.7557  -20.0458   -9.3775 C   0  0  0  0  0  0  0  0  0  0  0  0
   26.5741  -20.4234   -7.9564 C   0  0  0  0  0  0  0  0  0  0  0  0
   25.6044  -21.3063   -7.4649 C   0  0  0  0  0  0  0  0  0  0  0  0
   25.7545  -21.4259   -6.1431 N   0  0  0  0  0  0  0  0  0  0  0  0
   26.7899  -20.6599   -5.7010 C   0  0  0  0  0  0  0  0  0  0  0  0
   27.3174  -20.4516   -4.4430 C   0  0  0  0  0  0  0  0  0  0  0  0
   28.3815  -19.6028   -4.2751 C   0  0  0  0  0  0  0  0  0  0  0  0
   28.8803  -18.9867   -5.4007 C   0  0  0  0  0  0  0  0  0  0  0  0
   28.3540  -19.1941   -6.6588 C   0  0  0  0  0  0  0  0  0  0  0  0
   27.2869  -20.0437   -6.8426 C   0  0  0  0  0  0  0  0  0  0  0  0
   24.3811  -20.1112   -9.7965 C   0  0  0  0  0  0  0  0  0  0  0  0
   23.9634  -18.9968  -10.1717 O   0  0  0  0  0  0  0  0  0  0  0  0
   23.6064  -20.9072   -8.9111 N   0  0  0  0  0  0  0  0  0  0  0  0
   22.1691  -20.9106   -8.9036 C   0  0  1  0  0  0  0  0  0  0  0  0
   21.5881  -21.2503  -10.2596 C   0  0  0  0  0  0  0  0  0  0  0  0
   19.7623  -21.2905  -10.1550 S   0  0  0  0  0  0  0  0  0  0  0  0
   21.5760  -21.7757   -7.8728 C   0  0  0  0  0  0  0  0  0  0  0  0
   20.3879  -21.4034   -7.2787 O   0  0  0  0  0  0  0  0  0  0  0  0
   22.1260  -22.8402   -7.5246 O   0  0  0  0  0  0  0  0  0  0  0  0
  2  3  1  6
  2  1  1  0
  4  2  1  0
  5  4  1  0
  5  6  1  6
  7  8  2  0
  7  5  1  0
  9  7  1  0
 10  9  1  0
 10 11  1  1
 11 12  1  0
 12 13  2  0
 12 20  1  0
 13 14  1  0
 14 15  1  0
 15 16  2  0
 17 16  1  0
 18 17  2  0
 19 20  2  0
 19 18  1  0
 20 15  1  0
 21 22  2  0
 21 10  1  0
 23 21  1  0
 24 25  1  6
 24 23  1  0
 26 25  1  0
 27 24  1  0
 28 27  1  0
 29 27  2  0
M  END
$$$$
