LWC.pdb
     RDKit          3D

 29 30  0  0  1  0  0  0  0  0999 V2000
   26.7442  -11.2385  -14.9483 C   0  0  0  0  0  0  0  0  0  0  0  0
   26.6114  -11.2107  -16.4419 C   0  0  2  0  0  0  0  0  0  0  0  0
   27.9833  -10.9419  -17.0120 C   0  0  0  0  0  0  0  0  0  0  0  0
   25.5794  -10.2503  -16.9475 C   0  0  0  0  0  0  0  0  0  0  0  0
   24.2615  -10.4445  -16.2342 C   0  0  2  0  0  0  0  0  0  0  0  0
   23.6207  -11.6085  -16.7745 N   0  0  0  0  0  0  0  0  0  0  0  0
   23.3635   -9.2868  -16.4205 C   0  0  0  0  0  0  0  0  0  0  0  0
   22.9156   -8.9792  -17.5682 O   0  0  0  0  0  0  0  0  0  0  0  0
   22.9347   -8.4375  -15.3519 N   0  0  0  0  0  0  0  0  0  0  0  0
   22.0534   -7.3268  -15.5348 C   0  0  1  0  0  0  0  0  0  0  0  0
   20.7695   -7.4367  -14.7688 C   0  0  0  0  0  0  0  0  0  0  0  0
   19.8048   -8.3914  -15.3631 C   0  0  0  0  0  0  0  0  0  0  0  0
   19.7778   -9.7726  -15.1328 C   0  0  0  0  0  0  0  0  0  0  0  0
   18.7603  -10.3075  -15.8130 N   0  0  0  0  0  0  0  0  0  0  0  0
   18.0828   -9.3503  -16.5052 C   0  0  0  0  0  0  0  0  0  0  0  0
   16.9856   -9.4120  -17.3398 C   0  0  0  0  0  0  0  0  0  0  0  0
   16.5021   -8.2704  -17.9261 C   0  0  0  0  0  0  0  0  0  0  0  0
   17.1546   -7.0915  -17.6436 C   0  0  0  0  0  0  0  0  0  0  0  0
   18.2514   -7.0284  -16.8094 C   0  0  0  0  0  0  0  0  0  0  0  0
   18.7472   -8.1656  -16.2134 C   0  0  0  0  0  0  0  0  0  0  0  0
   22.6895   -6.0320  -15.1670 C   0  0  0  0  0  0  0  0  0  0  0  0
   23.2688   -5.9238  -14.0670 O   0  0  0  0  0  0  0  0  0  0  0  0
   22.6370   -4.9302  -16.0619 N   0  0  0  0  0  0  0  0  0  0  0  0
   23.1986   -3.6414  -15.7628 C   0  0  1  0  0  0  0  0  0  0  0  0
   24.1485   -3.1643  -16.8406 C   0  0  0  0  0  0  0  0  0  0  0  0
   23.2346   -2.9304  -18.4079 S   0  0  0  0  0  0  0  0  0  0  0  0
   22.1981   -2.6014  -15.4798 C   0  0  0  0  0  0  0  0  0  0  0  0
   22.6114   -1.3813  -14.9862 O   0  0  0  0  0  0  0  0  0  0  0  0
   20.9822   -2.8004  -15.6772 O   0  0  0  0  0  0  0  0  0  0  0  0
  2  3  1  6
  2  1  1  0
  4  2  1  0
  5  4  1  0
  5  6  1  6
  7  8  2  0
  7  5  1  0
  9  7  1  0
 10  9  1  0
 10 11  1  1
 11 12  1  0
 12 13  2  0
 12 20  1  0
 13 14  1  0
 14 15  1  0
 15 16  2  0
 17 16  1  0
 18 17  2  0
 19 20  2  0
 19 18  1  0
 20 15  1  0
 21 22  2  0
 21 10  1  0
 23 21  1  0
 24 25  1  6
 24 23  1  0
 26 25  1  0
 27 24  1  0
 28 27  1  0
 29 27  2  0
M  END
$$$$
