LWC.pdb
     RDKit          3D

 29 30  0  0  1  0  0  0  0  0999 V2000
   29.5221  -22.7174  -20.2925 C   0  0  0  0  0  0  0  0  0  0  0  0
   30.3792  -22.4411  -19.0932 C   0  0  2  0  0  0  0  0  0  0  0  0
   31.6580  -23.2257  -19.2621 C   0  0  0  0  0  0  0  0  0  0  0  0
   29.7059  -22.7125  -17.7833 C   0  0  0  0  0  0  0  0  0  0  0  0
   28.4111  -21.9420  -17.6686 C   0  0  2  0  0  0  0  0  0  0  0  0
   28.6744  -20.5651  -17.9723 N   0  0  0  0  0  0  0  0  0  0  0  0
   27.8468  -22.0213  -16.3060 C   0  0  0  0  0  0  0  0  0  0  0  0
   27.6017  -23.1408  -15.7591 O   0  0  0  0  0  0  0  0  0  0  0  0
   27.5373  -20.8739  -15.5093 N   0  0  0  0  0  0  0  0  0  0  0  0
   26.9635  -20.9548  -14.2024 C   0  0  1  0  0  0  0  0  0  0  0  0
   27.3838  -19.8470  -13.2841 C   0  0  0  0  0  0  0  0  0  0  0  0
   27.0449  -20.0945  -11.8632 C   0  0  0  0  0  0  0  0  0  0  0  0
   25.7849  -19.9076  -11.2811 C   0  0  0  0  0  0  0  0  0  0  0  0
   25.8451  -20.2533   -9.9924 N   0  0  0  0  0  0  0  0  0  0  0  0
   27.0976  -20.6717   -9.6602 C   0  0  0  0  0  0  0  0  0  0  0  0
   27.6421  -21.1145   -8.4721 C   0  0  0  0  0  0  0  0  0  0  0  0
   28.9642  -21.4742   -8.4129 C   0  0  0  0  0  0  0  0  0  0  0  0
   29.6981  -21.3713   -9.5732 C   0  0  0  0  0  0  0  0  0  0  0  0
   29.1551  -20.9290  -10.7616 C   0  0  0  0  0  0  0  0  0  0  0  0
   27.8297  -20.5655  -10.8361 C   0  0  0  0  0  0  0  0  0  0  0  0
   25.4752  -20.9730  -14.2370 C   0  0  0  0  0  0  0  0  0  0  0  0
   24.8594  -19.9750  -14.6636 O   0  0  0  0  0  0  0  0  0  0  0  0
   24.7639  -22.1175  -13.7881 N   0  0  0  0  0  0  0  0  0  0  0  0
   23.3385  -22.2593  -13.9070 C   0  0  1  0  0  0  0  0  0  0  0  0
   22.9086  -23.7093  -13.9713 C   0  0  0  0  0  0  0  0  0  0  0  0
   24.3420  -24.7927  -13.6280 S   0  0  0  0  0  0  0  0  0  0  0  0
   22.5760  -21.5558  -12.8648 C   0  0  0  0  0  0  0  0  0  0  0  0
   21.2102  -21.4186  -13.0019 O   0  0  0  0  0  0  0  0  0  0  0  0
   23.1399  -21.0801  -11.8584 O   0  0  0  0  0  0  0  0  0  0  0  0
  2  3  1  6
  2  1  1  0
  4  2  1  0
  5  4  1  0
  5  6  1  1
  7  8  2  0
  7  5  1  0
  9  7  1  0
 10  9  1  0
 10 11  1  1
 11 12  1  0
 12 13  2  0
 12 20  1  0
 13 14  1  0
 14 15  1  0
 15 16  2  0
 17 16  1  0
 18 17  2  0
 19 20  2  0
 19 18  1  0
 20 15  1  0
 21 22  2  0
 21 10  1  0
 23 21  1  0
 24 25  1  1
 24 23  1  0
 26 25  1  0
 27 24  1  0
 28 27  1  0
 29 27  2  0
M  END
$$$$
