LWC.pdb
     RDKit          3D

 29 30  0  0  1  0  0  0  0  0999 V2000
   28.8509  -22.2334   -8.8597 C   0  0  0  0  0  0  0  0  0  0  0  0
   28.2454  -20.8697   -8.7074 C   0  0  2  0  0  0  0  0  0  0  0  0
   28.1292  -20.5902   -7.2283 C   0  0  0  0  0  0  0  0  0  0  0  0
   26.9463  -20.6919   -9.4309 C   0  0  0  0  0  0  0  0  0  0  0  0
   27.1082  -20.9550  -10.9100 C   0  0  2  0  0  0  0  0  0  0  0  0
   28.2682  -20.2489  -11.3719 N   0  0  0  0  0  0  0  0  0  0  0  0
   25.9379  -20.4868  -11.6798 C   0  0  0  0  0  0  0  0  0  0  0  0
   25.3154  -19.4293  -11.3530 O   0  0  0  0  0  0  0  0  0  0  0  0
   25.4213  -21.1673  -12.8274 N   0  0  0  0  0  0  0  0  0  0  0  0
   24.2904  -20.7081  -13.5717 C   0  0  1  0  0  0  0  0  0  0  0  0
   24.4716  -20.7781  -15.0581 C   0  0  0  0  0  0  0  0  0  0  0  0
   23.3568  -20.1686  -15.8203 C   0  0  0  0  0  0  0  0  0  0  0  0
   23.0484  -18.8032  -15.8619 C   0  0  0  0  0  0  0  0  0  0  0  0
   21.9985  -18.6183  -16.6667 N   0  0  0  0  0  0  0  0  0  0  0  0
   21.5685  -19.8027  -17.1830 C   0  0  0  0  0  0  0  0  0  0  0  0
   20.5353  -20.1188  -18.0414 C   0  0  0  0  0  0  0  0  0  0  0  0
   20.3143  -21.4237  -18.4009 C   0  0  0  0  0  0  0  0  0  0  0  0
   21.1575  -22.3749  -17.8720 C   0  0  0  0  0  0  0  0  0  0  0  0
   22.1907  -22.0602  -17.0139 C   0  0  0  0  0  0  0  0  0  0  0  0
   22.4249  -20.7551  -16.6451 C   0  0  0  0  0  0  0  0  0  0  0  0
   23.0477  -21.4543  -13.2324 C   0  0  0  0  0  0  0  0  0  0  0  0
   23.1071  -22.6839  -13.0276 O   0  0  0  0  0  0  0  0  0  0  0  0
   21.8057  -20.7709  -13.1425 N   0  0  0  0  0  0  0  0  0  0  0  0
   20.5538  -21.4347  -12.9018 C   0  0  1  0  0  0  0  0  0  0  0  0
   20.1699  -21.4238  -11.4375 C   0  0  0  0  0  0  0  0  0  0  0  0
   18.5514  -22.2478  -11.2188 S   0  0  0  0  0  0  0  0  0  0  0  0
   19.4391  -20.9280  -13.7163 C   0  0  0  0  0  0  0  0  0  0  0  0
   18.3724  -21.7576  -13.9941 O   0  0  0  0  0  0  0  0  0  0  0  0
   19.4387  -19.7623  -14.1615 O   0  0  0  0  0  0  0  0  0  0  0  0
  2  3  1  1
  2  1  1  0
  4  2  1  0
  5  4  1  0
  5  6  1  6
  7  8  2  0
  7  5  1  0
  9  7  1  0
 10  9  1  0
 10 11  1  6
 11 12  1  0
 12 13  2  0
 12 20  1  0
 13 14  1  0
 14 15  1  0
 15 16  2  0
 17 16  1  0
 18 17  2  0
 19 20  2  0
 19 18  1  0
 20 15  1  0
 21 22  2  0
 21 10  1  0
 23 21  1  0
 24 25  1  1
 24 23  1  0
 26 25  1  0
 27 24  1  0
 28 27  1  0
 29 27  2  0
M  END
$$$$
