LWC.pdb
     RDKit          3D

 29 30  0  0  1  0  0  0  0  0999 V2000
   27.5002  -19.6915  -16.2852 C   0  0  0  0  0  0  0  0  0  0  0  0
   28.2630  -19.2556  -15.0697 C   0  0  2  0  0  0  0  0  0  0  0  0
   29.6499  -18.8672  -15.5226 C   0  0  0  0  0  0  0  0  0  0  0  0
   28.2801  -20.2642  -13.9628 C   0  0  0  0  0  0  0  0  0  0  0  0
   26.8794  -20.5713  -13.4866 C   0  0  2  0  0  0  0  0  0  0  0  0
   26.0408  -19.4478  -13.7898 N   0  0  0  0  0  0  0  0  0  0  0  0
   26.8370  -20.8073  -12.0292 C   0  0  0  0  0  0  0  0  0  0  0  0
   27.4187  -21.8082  -11.5073 O   0  0  0  0  0  0  0  0  0  0  0  0
   26.1551  -19.9508  -11.1081 N   0  0  0  0  0  0  0  0  0  0  0  0
   25.9938  -20.2566   -9.7209 C   0  0  1  0  0  0  0  0  0  0  0  0
   26.1559  -19.0736   -8.8146 C   0  0  0  0  0  0  0  0  0  0  0  0
   26.3144  -19.4380   -7.3873 C   0  0  0  0  0  0  0  0  0  0  0  0
   25.2716  -19.6002   -6.4667 C   0  0  0  0  0  0  0  0  0  0  0  0
   25.7849  -19.9523   -5.2849 N   0  0  0  0  0  0  0  0  0  0  0  0
   27.1422  -20.0395   -5.3521 C   0  0  0  0  0  0  0  0  0  0  0  0
   28.0982  -20.3568   -4.4089 C   0  0  0  0  0  0  0  0  0  0  0  0
   29.4265  -20.3620   -4.7503 C   0  0  0  0  0  0  0  0  0  0  0  0
   29.7443  -20.0415   -6.0510 C   0  0  0  0  0  0  0  0  0  0  0  0
   28.7897  -19.7243   -6.9948 C   0  0  0  0  0  0  0  0  0  0  0  0
   27.4530  -19.7158   -6.6668 C   0  0  0  0  0  0  0  0  0  0  0  0
   24.6712  -20.8735   -9.4265 C   0  0  0  0  0  0  0  0  0  0  0  0
   23.7008  -20.6288  -10.1720 O   0  0  0  0  0  0  0  0  0  0  0  0
   24.5170  -21.7332   -8.3064 N   0  0  0  0  0  0  0  0  0  0  0  0
   23.2705  -22.3557   -7.9534 C   0  0  1  0  0  0  0  0  0  0  0  0
   23.3585  -23.1190   -6.6491 C   0  0  0  0  0  0  0  0  0  0  0  0
   23.2434  -21.9532   -5.2441 S   0  0  0  0  0  0  0  0  0  0  0  0
   22.1268  -21.4320   -7.9179 C   0  0  0  0  0  0  0  0  0  0  0  0
   20.8462  -21.9368   -8.0100 O   0  0  0  0  0  0  0  0  0  0  0  0
   22.2914  -20.2002   -7.8061 O   0  0  0  0  0  0  0  0  0  0  0  0
  2  3  1  6
  2  1  1  0
  4  2  1  0
  5  4  1  0
  5  6  1  1
  7  8  2  0
  7  5  1  0
  9  7  1  0
 10  9  1  0
 10 11  1  1
 11 12  1  0
 12 13  2  0
 12 20  1  0
 13 14  1  0
 14 15  1  0
 15 16  2  0
 17 16  1  0
 18 17  2  0
 19 20  2  0
 19 18  1  0
 20 15  1  0
 21 22  2  0
 21 10  1  0
 23 21  1  0
 24 25  1  1
 24 23  1  0
 26 25  1  0
 27 24  1  0
 28 27  1  0
 29 27  2  0
M  END
$$$$
