LWC.pdb
     RDKit          3D

 29 30  0  0  1  0  0  0  0  0999 V2000
   19.1589  -30.7743  -10.9458 C   0  0  0  0  0  0  0  0  0  0  0  0
   20.4531  -30.0503  -11.1702 C   0  0  2  0  0  0  0  0  0  0  0  0
   21.5705  -31.0125  -10.8465 C   0  0  0  0  0  0  0  0  0  0  0  0
   20.5703  -28.7586  -10.4214 C   0  0  0  0  0  0  0  0  0  0  0  0
   19.3736  -27.8723  -10.6772 C   0  0  2  0  0  0  0  0  0  0  0  0
   19.6439  -27.0681  -11.8338 N   0  0  0  0  0  0  0  0  0  0  0  0
   19.1042  -26.9748   -9.5356 C   0  0  0  0  0  0  0  0  0  0  0  0
   20.0146  -26.2328   -9.0525 O   0  0  0  0  0  0  0  0  0  0  0  0
   17.8291  -26.8690   -8.8953 N   0  0  0  0  0  0  0  0  0  0  0  0
   17.5638  -25.9732   -7.8133 C   0  0  1  0  0  0  0  0  0  0  0  0
   16.6287  -24.8554   -8.1647 C   0  0  0  0  0  0  0  0  0  0  0  0
   17.1453  -23.9630   -9.2286 C   0  0  0  0  0  0  0  0  0  0  0  0
   18.2594  -23.1219   -9.1173 C   0  0  0  0  0  0  0  0  0  0  0  0
   18.4430  -22.4867  -10.2779 N   0  0  0  0  0  0  0  0  0  0  0  0
   17.4990  -22.8554  -11.1874 C   0  0  0  0  0  0  0  0  0  0  0  0
   17.2740  -22.4761  -12.4950 C   0  0  0  0  0  0  0  0  0  0  0  0
   16.2222  -23.0097  -13.1948 C   0  0  0  0  0  0  0  0  0  0  0  0
   15.4248  -23.9199  -12.5381 C   0  0  0  0  0  0  0  0  0  0  0  0
   15.6488  -24.3000  -11.2311 C   0  0  0  0  0  0  0  0  0  0  0  0
   16.7008  -23.7735  -10.5167 C   0  0  0  0  0  0  0  0  0  0  0  0
   17.0058  -26.6717   -6.6229 C   0  0  0  0  0  0  0  0  0  0  0  0
   16.0559  -27.4678   -6.7683 O   0  0  0  0  0  0  0  0  0  0  0  0
   17.5515  -26.4333   -5.3333 N   0  0  0  0  0  0  0  0  0  0  0  0
   17.0069  -26.9962   -4.1281 C   0  0  1  0  0  0  0  0  0  0  0  0
   18.0305  -27.0710   -3.0153 C   0  0  0  0  0  0  0  0  0  0  0  0
   19.5307  -26.1403   -3.4944 S   0  0  0  0  0  0  0  0  0  0  0  0
   15.7912  -26.3231   -3.6469 C   0  0  0  0  0  0  0  0  0  0  0  0
   14.8409  -27.0513   -2.9614 O   0  0  0  0  0  0  0  0  0  0  0  0
   15.6016  -25.1060   -3.8463 O   0  0  0  0  0  0  0  0  0  0  0  0
  2  3  1  1
  2  1  1  0
  4  2  1  0
  5  4  1  0
  5  6  1  6
  7  8  2  0
  7  5  1  0
  9  7  1  0
 10  9  1  0
 10 11  1  6
 11 12  1  0
 12 13  2  0
 12 20  1  0
 13 14  1  0
 14 15  1  0
 15 16  2  0
 17 16  1  0
 18 17  2  0
 19 20  2  0
 19 18  1  0
 20 15  1  0
 21 22  2  0
 21 10  1  0
 23 21  1  0
 24 25  1  1
 24 23  1  0
 26 25  1  0
 27 24  1  0
 28 27  1  0
 29 27  2  0
M  END
$$$$
