LWC.pdb
     RDKit          3D

 29 30  0  0  1  0  0  0  0  0999 V2000
   29.0153  -18.0875  -17.6371 C   0  0  0  0  0  0  0  0  0  0  0  0
   28.0024  -19.1087  -18.0620 C   0  0  2  0  0  0  0  0  0  0  0  0
   27.1027  -18.4543  -19.0826 C   0  0  0  0  0  0  0  0  0  0  0  0
   27.2380  -19.7216  -16.9294 C   0  0  0  0  0  0  0  0  0  0  0  0
   28.1735  -20.3005  -15.8935 C   0  0  2  0  0  0  0  0  0  0  0  0
   28.8083  -21.4589  -16.4527 N   0  0  0  0  0  0  0  0  0  0  0  0
   27.4513  -20.7068  -14.6710 C   0  0  0  0  0  0  0  0  0  0  0  0
   26.9008  -21.8475  -14.5801 O   0  0  0  0  0  0  0  0  0  0  0  0
   27.3149  -19.8713  -13.5175 N   0  0  0  0  0  0  0  0  0  0  0  0
   26.5645  -20.2451  -12.3595 C   0  0  1  0  0  0  0  0  0  0  0  0
   26.7492  -19.3234  -11.1917 C   0  0  0  0  0  0  0  0  0  0  0  0
   26.1826  -19.8483   -9.9273 C   0  0  0  0  0  0  0  0  0  0  0  0
   24.8530  -20.2422   -9.7314 C   0  0  0  0  0  0  0  0  0  0  0  0
   24.7099  -20.6839   -8.4790 N   0  0  0  0  0  0  0  0  0  0  0  0
   25.8885  -20.6105   -7.8009 C   0  0  0  0  0  0  0  0  0  0  0  0
   26.2346  -20.9383   -6.5059 C   0  0  0  0  0  0  0  0  0  0  0  0
   27.5213  -20.7521   -6.0695 C   0  0  0  0  0  0  0  0  0  0  0  0
   28.4240  -20.2339   -6.9708 C   0  0  0  0  0  0  0  0  0  0  0  0
   28.0794  -19.9061   -8.2656 C   0  0  0  0  0  0  0  0  0  0  0  0
   26.7923  -20.0882   -8.7176 C   0  0  0  0  0  0  0  0  0  0  0  0
   25.1045  -20.3375  -12.6357 C   0  0  0  0  0  0  0  0  0  0  0  0
   24.5077  -19.3527  -13.1166 O   0  0  0  0  0  0  0  0  0  0  0  0
   24.3984  -21.5374  -12.3540 N   0  0  0  0  0  0  0  0  0  0  0  0
   23.0112  -21.7324  -12.6760 C   0  0  1  0  0  0  0  0  0  0  0  0
   22.5768  -23.1716  -12.4980 C   0  0  0  0  0  0  0  0  0  0  0  0
   20.7806  -23.3164  -12.8123 S   0  0  0  0  0  0  0  0  0  0  0  0
   22.0952  -20.8388  -11.9516 C   0  0  0  0  0  0  0  0  0  0  0  0
   22.2592  -20.6579  -10.5938 O   0  0  0  0  0  0  0  0  0  0  0  0
   21.1721  -20.2405  -12.5405 O   0  0  0  0  0  0  0  0  0  0  0  0
  2  3  1  6
  2  1  1  0
  4  2  1  0
  5  4  1  0
  5  6  1  6
  7  8  2  0
  7  5  1  0
  9  7  1  0
 10  9  1  0
 10 11  1  1
 11 12  1  0
 12 13  2  0
 12 20  1  0
 13 14  1  0
 14 15  1  0
 15 16  2  0
 17 16  1  0
 18 17  2  0
 19 20  2  0
 19 18  1  0
 20 15  1  0
 21 22  2  0
 21 10  1  0
 23 21  1  0
 24 25  1  1
 24 23  1  0
 26 25  1  0
 27 24  1  0
 28 27  1  0
 29 27  2  0
M  END
$$$$
