LWC.pdb
     RDKit          3D

 29 30  0  0  1  0  0  0  0  0999 V2000
   29.0281  -20.3457  -15.7222 C   0  0  0  0  0  0  0  0  0  0  0  0
   28.8794  -19.7803  -14.3410 C   0  0  2  0  0  0  0  0  0  0  0  0
   30.2624  -19.6775  -13.7442 C   0  0  0  0  0  0  0  0  0  0  0  0
   27.9300  -20.5402  -13.4670 C   0  0  0  0  0  0  0  0  0  0  0  0
   26.5782  -20.6809  -14.1274 C   0  0  2  0  0  0  0  0  0  0  0  0
   26.1465  -19.3825  -14.5579 N   0  0  0  0  0  0  0  0  0  0  0  0
   25.5690  -21.2248  -13.1962 C   0  0  0  0  0  0  0  0  0  0  0  0
   25.7122  -22.3696  -12.6656 O   0  0  0  0  0  0  0  0  0  0  0  0
   24.3772  -20.5261  -12.8241 N   0  0  0  0  0  0  0  0  0  0  0  0
   23.3976  -21.0613  -11.9309 C   0  0  1  0  0  0  0  0  0  0  0  0
   23.0736  -20.1635  -10.7750 C   0  0  0  0  0  0  0  0  0  0  0  0
   24.2715  -19.6269  -10.0876 C   0  0  0  0  0  0  0  0  0  0  0  0
   24.9550  -18.4553  -10.4360 C   0  0  0  0  0  0  0  0  0  0  0  0
   25.9667  -18.2717   -9.5836 N   0  0  0  0  0  0  0  0  0  0  0  0
   26.0100  -19.2708   -8.6594 C   0  0  0  0  0  0  0  0  0  0  0  0
   26.8594  -19.5172   -7.6001 C   0  0  0  0  0  0  0  0  0  0  0  0
   26.6770  -20.6273   -6.8158 C   0  0  0  0  0  0  0  0  0  0  0  0
   25.6280  -21.4598   -7.1355 C   0  0  0  0  0  0  0  0  0  0  0  0
   24.7782  -21.2146   -8.1940 C   0  0  0  0  0  0  0  0  0  0  0  0
   24.9485  -20.1041   -8.9891 C   0  0  0  0  0  0  0  0  0  0  0  0
   22.1197  -21.3882  -12.6212 C   0  0  0  0  0  0  0  0  0  0  0  0
   21.8044  -20.7651  -13.6554 O   0  0  0  0  0  0  0  0  0  0  0  0
   21.2678  -22.4013  -12.1058 N   0  0  0  0  0  0  0  0  0  0  0  0
   20.0067  -22.7514  -12.6999 C   0  0  1  0  0  0  0  0  0  0  0  0
   19.3137  -23.8740  -11.9575 C   0  0  0  0  0  0  0  0  0  0  0  0
   19.0709  -23.3979  -10.2080 S   0  0  0  0  0  0  0  0  0  0  0  0
   19.0860  -21.6170  -12.8669 C   0  0  0  0  0  0  0  0  0  0  0  0
   18.1579  -21.6433  -13.8873 O   0  0  0  0  0  0  0  0  0  0  0  0
   19.1272  -20.6306  -12.1037 O   0  0  0  0  0  0  0  0  0  0  0  0
  2  3  1  1
  2  1  1  0
  4  2  1  0
  5  4  1  0
  5  6  1  1
  7  8  2  0
  7  5  1  0
  9  7  1  0
 10  9  1  0
 10 11  1  1
 11 12  1  0
 12 13  2  0
 12 20  1  0
 13 14  1  0
 14 15  1  0
 15 16  2  0
 17 16  1  0
 18 17  2  0
 19 20  2  0
 19 18  1  0
 20 15  1  0
 21 22  2  0
 21 10  1  0
 23 21  1  0
 24 25  1  1
 24 23  1  0
 26 25  1  0
 27 24  1  0
 28 27  1  0
 29 27  2  0
M  END
$$$$
