LWC.pdb
     RDKit          3D

 29 30  0  0  1  0  0  0  0  0999 V2000
   19.1372  -22.0219  -13.1478 C   0  0  0  0  0  0  0  0  0  0  0  0
   19.7234  -22.1096  -11.7701 C   0  0  2  0  0  0  0  0  0  0  0  0
   18.6338  -21.7421  -10.7918 C   0  0  0  0  0  0  0  0  0  0  0  0
   20.9662  -21.2960  -11.5801 C   0  0  0  0  0  0  0  0  0  0  0  0
   21.9331  -21.5071  -12.7220 C   0  0  2  0  0  0  0  0  0  0  0  0
   22.1933  -22.9126  -12.8418 N   0  0  0  0  0  0  0  0  0  0  0  0
   23.2151  -20.8120  -12.4883 C   0  0  0  0  0  0  0  0  0  0  0  0
   23.2582  -19.5573  -12.2968 O   0  0  0  0  0  0  0  0  0  0  0  0
   24.4820  -21.4762  -12.4588 N   0  0  0  0  0  0  0  0  0  0  0  0
   25.7256  -20.7917  -12.2892 C   0  0  1  0  0  0  0  0  0  0  0  0
   26.6506  -21.4457  -11.3075 C   0  0  0  0  0  0  0  0  0  0  0  0
   26.6249  -20.8226   -9.9634 C   0  0  0  0  0  0  0  0  0  0  0  0
   25.5389  -20.1390   -9.4025 C   0  0  0  0  0  0  0  0  0  0  0  0
   25.8666  -19.7364   -8.1718 N   0  0  0  0  0  0  0  0  0  0  0  0
   27.1370  -20.1145   -7.8598 C   0  0  0  0  0  0  0  0  0  0  0  0
   27.9083  -19.9288   -6.7307 C   0  0  0  0  0  0  0  0  0  0  0  0
   29.1886  -20.4182   -6.6838 C   0  0  0  0  0  0  0  0  0  0  0  0
   29.6491  -21.0867   -7.7959 C   0  0  0  0  0  0  0  0  0  0  0  0
   28.8792  -21.2731   -8.9252 C   0  0  0  0  0  0  0  0  0  0  0  0
   27.5925  -20.7883   -8.9861 C   0  0  0  0  0  0  0  0  0  0  0  0
   26.4655  -20.6345  -13.5715 C   0  0  0  0  0  0  0  0  0  0  0  0
   26.6498  -21.6312  -14.2995 O   0  0  0  0  0  0  0  0  0  0  0  0
   26.9564  -19.3600  -13.9617 N   0  0  0  0  0  0  0  0  0  0  0  0
   27.5678  -19.1050  -15.2374 C   0  0  1  0  0  0  0  0  0  0  0  0
   28.2132  -17.7373  -15.3021 C   0  0  0  0  0  0  0  0  0  0  0  0
   28.9243  -17.4698  -16.9662 S   0  0  0  0  0  0  0  0  0  0  0  0
   28.5300  -20.1342  -15.6585 C   0  0  0  0  0  0  0  0  0  0  0  0
   28.4331  -20.6736  -16.9246 O   0  0  0  0  0  0  0  0  0  0  0  0
   29.4329  -20.5298  -14.8934 O   0  0  0  0  0  0  0  0  0  0  0  0
  2  3  1  1
  2  1  1  0
  4  2  1  0
  5  4  1  0
  5  6  1  1
  7  8  2  0
  7  5  1  0
  9  7  1  0
 10  9  1  0
 10 11  1  1
 11 12  1  0
 12 13  2  0
 12 20  1  0
 13 14  1  0
 14 15  1  0
 15 16  2  0
 17 16  1  0
 18 17  2  0
 19 20  2  0
 19 18  1  0
 20 15  1  0
 21 22  2  0
 21 10  1  0
 23 21  1  0
 24 25  1  1
 24 23  1  0
 26 25  1  0
 27 24  1  0
 28 27  1  0
 29 27  2  0
M  END
$$$$
