LWC.pdb
     RDKit          3D

 29 30  0  0  1  0  0  0  0  0999 V2000
   21.2524  -10.8833    6.5063 C   0  0  0  0  0  0  0  0  0  0  0  0
   20.6558  -11.1359    7.8589 C   0  0  2  0  0  0  0  0  0  0  0  0
   21.7979  -11.2866    8.8348 C   0  0  0  0  0  0  0  0  0  0  0  0
   19.7045  -12.2916    7.9029 C   0  0  0  0  0  0  0  0  0  0  0  0
   18.5782  -12.1056    6.9129 C   0  0  2  0  0  0  0  0  0  0  0  0
   17.6081  -11.2210    7.4908 N   0  0  0  0  0  0  0  0  0  0  0  0
   17.9135  -13.3855    6.5944 C   0  0  0  0  0  0  0  0  0  0  0  0
   17.2554  -14.0222    7.4742 O   0  0  0  0  0  0  0  0  0  0  0  0
   17.9543  -13.9988    5.3024 N   0  0  0  0  0  0  0  0  0  0  0  0
   17.4688  -15.3179    5.0418 C   0  0  1  0  0  0  0  0  0  0  0  0
   17.1032  -15.5590    3.6081 C   0  0  0  0  0  0  0  0  0  0  0  0
   16.4769  -16.8806    3.3706 C   0  0  0  0  0  0  0  0  0  0  0  0
   15.3479  -17.3786    4.0329 C   0  0  0  0  0  0  0  0  0  0  0  0
   15.0544  -18.5867    3.5447 N   0  0  0  0  0  0  0  0  0  0  0  0
   15.9366  -18.9440    2.5709 C   0  0  0  0  0  0  0  0  0  0  0  0
   16.0473  -20.0770    1.7910 C   0  0  0  0  0  0  0  0  0  0  0  0
   17.0585  -20.1827    0.8707 C   0  0  0  0  0  0  0  0  0  0  0  0
   17.9335  -19.1244    0.7711 C   0  0  0  0  0  0  0  0  0  0  0  0
   17.8240  -17.9912    1.5499 C   0  0  0  0  0  0  0  0  0  0  0  0
   16.8138  -17.8709    2.4769 C   0  0  0  0  0  0  0  0  0  0  0  0
   18.4429  -16.3699    5.4428 C   0  0  0  0  0  0  0  0  0  0  0  0
   19.6351  -16.2692    5.0880 O   0  0  0  0  0  0  0  0  0  0  0  0
   18.0173  -17.4780    6.2228 N   0  0  0  0  0  0  0  0  0  0  0  0
   18.9116  -18.4935    6.7076 C   0  0  1  0  0  0  0  0  0  0  0  0
   20.0972  -17.9101    7.4462 C   0  0  0  0  0  0  0  0  0  0  0  0
   21.3705  -19.2016    7.6850 S   0  0  0  0  0  0  0  0  0  0  0  0
   18.2615  -19.5211    7.5347 C   0  0  0  0  0  0  0  0  0  0  0  0
   16.9155  -19.4113    7.8162 O   0  0  0  0  0  0  0  0  0  0  0  0
   18.9033  -20.4908    7.9873 O   0  0  0  0  0  0  0  0  0  0  0  0
  2  3  1  1
  2  1  1  0
  4  2  1  0
  5  4  1  0
  5  6  1  1
  7  8  2  0
  7  5  1  0
  9  7  1  0
 10  9  1  0
 10 11  1  6
 11 12  1  0
 12 13  2  0
 12 20  1  0
 13 14  1  0
 14 15  1  0
 15 16  2  0
 17 16  1  0
 18 17  2  0
 19 20  2  0
 19 18  1  0
 20 15  1  0
 21 22  2  0
 21 10  1  0
 23 21  1  0
 24 25  1  1
 24 23  1  0
 26 25  1  0
 27 24  1  0
 28 27  1  0
 29 27  2  0
M  END
$$$$
