LWC.pdb
     RDKit          3D

 29 30  0  0  1  0  0  0  0  0999 V2000
   33.8688  -29.3153  -22.1278 C   0  0  0  0  0  0  0  0  0  0  0  0
   34.1038  -30.1670  -20.9158 C   0  0  2  0  0  0  0  0  0  0  0  0
   34.3707  -31.5729  -21.3970 C   0  0  0  0  0  0  0  0  0  0  0  0
   33.0044  -30.1047  -19.9008 C   0  0  0  0  0  0  0  0  0  0  0  0
   32.8059  -28.6925  -19.4014 C   0  0  2  0  0  0  0  0  0  0  0  0
   33.9065  -28.3554  -18.5454 N   0  0  0  0  0  0  0  0  0  0  0  0
   31.5540  -28.5565  -18.6297 C   0  0  0  0  0  0  0  0  0  0  0  0
   31.5078  -28.8454  -17.3939 O   0  0  0  0  0  0  0  0  0  0  0  0
   30.3213  -28.1001  -19.1947 N   0  0  0  0  0  0  0  0  0  0  0  0
   29.1319  -27.8968  -18.4281 C   0  0  1  0  0  0  0  0  0  0  0  0
   28.2087  -26.8637  -19.0005 C   0  0  0  0  0  0  0  0  0  0  0  0
   27.1481  -26.4310  -18.0607 C   0  0  0  0  0  0  0  0  0  0  0  0
   27.3316  -26.1371  -16.7038 C   0  0  0  0  0  0  0  0  0  0  0  0
   26.1635  -25.7578  -16.1787 N   0  0  0  0  0  0  0  0  0  0  0  0
   25.1791  -25.7782  -17.1195 C   0  0  0  0  0  0  0  0  0  0  0  0
   23.8330  -25.4809  -17.0588 C   0  0  0  0  0  0  0  0  0  0  0  0
   23.0516  -25.5964  -18.1799 C   0  0  0  0  0  0  0  0  0  0  0  0
   23.6682  -26.0145  -19.3378 C   0  0  0  0  0  0  0  0  0  0  0  0
   25.0138  -26.3118  -19.3998 C   0  0  0  0  0  0  0  0  0  0  0  0
   25.8103  -26.1997  -18.2830 C   0  0  0  0  0  0  0  0  0  0  0  0
   28.3509  -29.1518  -18.2501 C   0  0  0  0  0  0  0  0  0  0  0  0
   28.1555  -29.8970  -19.2318 O   0  0  0  0  0  0  0  0  0  0  0  0
   27.8336  -29.4966  -16.9730 N   0  0  0  0  0  0  0  0  0  0  0  0
   27.0869  -30.6986  -16.7208 C   0  0  1  0  0  0  0  0  0  0  0  0
   27.5597  -31.4183  -15.4758 C   0  0  0  0  0  0  0  0  0  0  0  0
   29.1514  -32.2539  -15.8142 S   0  0  0  0  0  0  0  0  0  0  0  0
   25.6309  -30.5000  -16.6629 C   0  0  0  0  0  0  0  0  0  0  0  0
   24.8011  -31.5988  -16.5771 O   0  0  0  0  0  0  0  0  0  0  0  0
   25.1307  -29.3572  -16.6900 O   0  0  0  0  0  0  0  0  0  0  0  0
  2  3  1  6
  2  1  1  0
  4  2  1  0
  5  4  1  0
  5  6  1  1
  7  8  2  0
  7  5  1  0
  9  7  1  0
 10  9  1  0
 10 11  1  6
 11 12  1  0
 12 13  2  0
 12 20  1  0
 13 14  1  0
 14 15  1  0
 15 16  2  0
 17 16  1  0
 18 17  2  0
 19 20  2  0
 19 18  1  0
 20 15  1  0
 21 22  2  0
 21 10  1  0
 23 21  1  0
 24 25  1  1
 24 23  1  0
 26 25  1  0
 27 24  1  0
 28 27  1  0
 29 27  2  0
M  END
$$$$
