LWC.pdb
     RDKit          3D

 29 30  0  0  1  0  0  0  0  0999 V2000
   27.5579  -19.1292  -16.6981 C   0  0  0  0  0  0  0  0  0  0  0  0
   28.4084  -18.8434  -15.4962 C   0  0  2  0  0  0  0  0  0  0  0  0
   29.8106  -18.5775  -15.9886 C   0  0  0  0  0  0  0  0  0  0  0  0
   28.3597  -19.9081  -14.4441 C   0  0  0  0  0  0  0  0  0  0  0  0
   26.9505  -20.1042  -13.9350 C   0  0  2  0  0  0  0  0  0  0  0  0
   26.2342  -18.8720  -14.0973 N   0  0  0  0  0  0  0  0  0  0  0  0
   26.9323  -20.4713  -12.5046 C   0  0  0  0  0  0  0  0  0  0  0  0
   27.4963  -21.5308  -12.0897 O   0  0  0  0  0  0  0  0  0  0  0  0
   26.2947  -19.6851  -11.4934 N   0  0  0  0  0  0  0  0  0  0  0  0
   26.2223  -20.0773  -10.1206 C   0  0  1  0  0  0  0  0  0  0  0  0
   26.4287  -18.9499   -9.1544 C   0  0  0  0  0  0  0  0  0  0  0  0
   26.4439  -19.3799   -7.7366 C   0  0  0  0  0  0  0  0  0  0  0  0
   25.3206  -19.4990   -6.9088 C   0  0  0  0  0  0  0  0  0  0  0  0
   25.7094  -19.9338   -5.7072 N   0  0  0  0  0  0  0  0  0  0  0  0
   27.0579  -20.1198   -5.6715 C   0  0  0  0  0  0  0  0  0  0  0  0
   27.9088  -20.5440   -4.6713 C   0  0  0  0  0  0  0  0  0  0  0  0
   29.2566  -20.6355   -4.9075 C   0  0  0  0  0  0  0  0  0  0  0  0
   29.7015  -20.2899   -6.1637 C   0  0  0  0  0  0  0  0  0  0  0  0
   28.8520  -19.8658   -7.1645 C   0  0  0  0  0  0  0  0  0  0  0  0
   27.4972  -19.7699   -6.9422 C   0  0  0  0  0  0  0  0  0  0  0  0
   24.9264  -20.7287   -9.7849 C   0  0  0  0  0  0  0  0  0  0  0  0
   23.9069  -20.4426  -10.4453 O   0  0  0  0  0  0  0  0  0  0  0  0
   24.8528  -21.6678   -8.7218 N   0  0  0  0  0  0  0  0  0  0  0  0
   23.6320  -22.3094   -8.3169 C   0  0  1  0  0  0  0  0  0  0  0  0
   23.7926  -23.0905   -7.0302 C   0  0  0  0  0  0  0  0  0  0  0  0
   23.0943  -22.1328   -5.6368 S   0  0  0  0  0  0  0  0  0  0  0  0
   22.4818  -21.3993   -8.2109 C   0  0  0  0  0  0  0  0  0  0  0  0
   21.2053  -21.9021   -8.3559 O   0  0  0  0  0  0  0  0  0  0  0  0
   22.6371  -20.1806   -7.9923 O   0  0  0  0  0  0  0  0  0  0  0  0
  2  3  1  6
  2  1  1  0
  4  2  1  0
  5  4  1  0
  5  6  1  1
  7  8  2  0
  7  5  1  0
  9  7  1  0
 10  9  1  0
 10 11  1  1
 11 12  1  0
 12 13  2  0
 12 20  1  0
 13 14  1  0
 14 15  1  0
 15 16  2  0
 17 16  1  0
 18 17  2  0
 19 20  2  0
 19 18  1  0
 20 15  1  0
 21 22  2  0
 21 10  1  0
 23 21  1  0
 24 25  1  1
 24 23  1  0
 26 25  1  0
 27 24  1  0
 28 27  1  0
 29 27  2  0
M  END
$$$$
