EQH.pdb
     RDKit          3D

 29 29  0  0  1  0  0  0  0  0999 V2000
   16.5202  -12.6793  -12.8895 N   0  0  0  0  0  0  0  0  0  0  0  0
   15.7055  -12.2057  -13.9658 C   0  0  1  0  0  0  0  0  0  0  0  0
   14.4231  -12.9892  -14.1439 C   0  0  0  0  0  0  0  0  0  0  0  0
   14.6496  -14.4266  -14.5024 C   0  0  0  0  0  0  0  0  0  0  0  0
   13.2948  -15.0588  -14.6129 C   0  0  0  0  0  0  0  0  0  0  0  0
   12.8234  -15.8238  -13.7456 O   0  0  0  0  0  0  0  0  0  0  0  0
   15.4037  -10.7766  -13.7737 C   0  0  0  0  0  0  0  0  0  0  0  0
   14.7066  -10.1129  -14.5611 O   0  0  0  0  0  0  0  0  0  0  0  0
   12.5499  -14.7602  -15.7475 O   0  0  0  0  0  0  0  0  0  0  0  0
   15.6343   -7.7003   -8.1680 N   0  0  0  0  0  0  0  0  0  0  0  0
   14.4396   -8.1310   -8.7924 C   0  0  0  0  0  0  0  0  0  0  0  0
   13.4043   -8.2339   -8.0934 O   0  0  0  0  0  0  0  0  0  0  0  0
   14.3688   -8.4634  -10.2360 C   0  0  0  0  0  0  0  0  0  0  0  0
   15.7196   -8.3551  -10.9022 C   0  0  0  0  0  0  0  0  0  0  0  0
   15.5979   -8.7451  -12.3154 C   0  0  2  0  0  0  0  0  0  0  0  0
   15.9199  -10.0990  -12.6451 N   0  0  0  0  0  0  0  0  0  0  0  0
   16.3512   -7.8311  -13.2459 C   0  0  0  0  0  0  0  0  0  0  0  0
   17.6033   -7.9140  -13.3243 O   0  0  0  0  0  0  0  0  0  0  0  0
   15.7125   -6.8661  -14.0517 N   0  0  0  0  0  0  0  0  0  0  0  0
   16.4180   -5.9570  -14.9430 C   0  0  1  0  0  0  0  0  0  0  0  0
   15.4951   -5.2148  -15.8442 C   0  0  0  0  0  0  0  0  0  0  0  0
   16.2766   -4.4908  -16.8725 C   0  0  0  0  0  0  0  0  0  0  0  0
   17.4469   -4.9179  -17.5080 C   0  0  0  0  0  0  0  0  0  0  0  0
   17.8716   -3.9978  -18.3824 N   0  0  0  0  0  0  0  0  0  0  0  0
   16.9930   -2.9785  -18.3237 C   0  0  0  0  0  0  0  0  0  0  0  0
   16.0479   -3.2784  -17.4244 N   0  0  0  0  0  0  0  0  0  0  0  0
   17.2958   -5.0951  -14.1254 C   0  0  0  0  0  0  0  0  0  0  0  0
   16.8373   -4.3934  -13.1959 O   0  0  0  0  0  0  0  0  0  0  0  0
   18.6507   -5.0492  -14.3757 O   0  0  0  0  0  0  0  0  0  0  0  0
  2  1  1  1
  2  3  1  0
  4  3  1  0
  4  5  1  0
  5  9  1  0
  5  6  2  0
  7  2  1  0
  8  7  2  0
 11 12  2  0
 11 10  1  0
 13 11  1  0
 14 13  1  0
 15 14  1  1
 15 16  1  0
 16  7  1  0
 17 15  1  0
 18 17  2  0
 19 17  1  0
 20 19  1  0
 20 21  1  1
 22 21  1  0
 22 23  2  0
 24 23  1  0
 25 24  1  0
 26 25  2  0
 26 22  1  0
 27 20  1  0
 27 29  1  0
 28 27  2  0
M  END
$$$$
