EQH.pdb
     RDKit          3D

 29 29  0  0  1  0  0  0  0  0999 V2000
   16.4366  -12.0731  -14.1836 N   0  0  0  0  0  0  0  0  0  0  0  0
   17.4293  -11.3817  -14.9471 C   0  0  1  0  0  0  0  0  0  0  0  0
   17.3530  -11.6604  -16.4325 C   0  0  0  0  0  0  0  0  0  0  0  0
   18.4371  -10.9889  -17.2197 C   0  0  0  0  0  0  0  0  0  0  0  0
   18.2092  -11.3503  -18.6567 C   0  0  0  0  0  0  0  0  0  0  0  0
   17.1453  -11.1066  -19.2637 O   0  0  0  0  0  0  0  0  0  0  0  0
   17.3330   -9.9329  -14.6977 C   0  0  0  0  0  0  0  0  0  0  0  0
   16.2600   -9.3047  -14.7217 O   0  0  0  0  0  0  0  0  0  0  0  0
   19.2513  -11.9871  -19.3199 O   0  0  0  0  0  0  0  0  0  0  0  0
   16.3608   -6.4980  -10.6727 N   0  0  0  0  0  0  0  0  0  0  0  0
   17.3769   -7.4770  -10.5642 C   0  0  0  0  0  0  0  0  0  0  0  0
   17.6494   -7.9311   -9.4282 O   0  0  0  0  0  0  0  0  0  0  0  0
   18.1268   -7.9823  -11.7397 C   0  0  0  0  0  0  0  0  0  0  0  0
   17.6652   -7.3297  -13.0209 C   0  0  0  0  0  0  0  0  0  0  0  0
   18.5097   -7.7908  -14.1336 C   0  0  2  0  0  0  0  0  0  0  0  0
   18.5043   -9.1932  -14.4145 N   0  0  0  0  0  0  0  0  0  0  0  0
   19.9386   -7.3285  -14.0198 C   0  0  0  0  0  0  0  0  0  0  0  0
   20.8095   -8.1023  -13.5468 O   0  0  0  0  0  0  0  0  0  0  0  0
   20.3609   -6.0454  -14.4246 N   0  0  0  0  0  0  0  0  0  0  0  0
   21.7536   -5.6238  -14.4638 C   0  0  1  0  0  0  0  0  0  0  0  0
   21.9575   -4.4145  -15.3068 C   0  0  0  0  0  0  0  0  0  0  0  0
   21.6547   -4.7346  -16.7204 C   0  0  0  0  0  0  0  0  0  0  0  0
   21.3047   -5.9790  -17.2542 C   0  0  0  0  0  0  0  0  0  0  0  0
   21.1036   -5.8864  -18.5743 N   0  0  0  0  0  0  0  0  0  0  0  0
   21.3184   -4.5986  -18.9055 C   0  0  0  0  0  0  0  0  0  0  0  0
   21.6454   -3.9200  -17.7989 N   0  0  0  0  0  0  0  0  0  0  0  0
   22.2351   -5.4864  -13.0741 C   0  0  0  0  0  0  0  0  0  0  0  0
   21.4475   -5.5435  -12.1030 O   0  0  0  0  0  0  0  0  0  0  0  0
   23.5761   -5.2909  -12.8211 O   0  0  0  0  0  0  0  0  0  0  0  0
  2  1  1  1
  2  3  1  0
  4  3  1  0
  4  5  1  0
  5  9  1  0
  5  6  2  0
  7  2  1  0
  8  7  2  0
 11 12  2  0
 11 10  1  0
 13 11  1  0
 14 13  1  0
 15 14  1  1
 15 16  1  0
 16  7  1  0
 17 15  1  0
 18 17  2  0
 19 17  1  0
 20 19  1  0
 20 21  1  1
 22 21  1  0
 22 23  2  0
 24 23  1  0
 25 24  1  0
 26 25  2  0
 26 22  1  0
 27 20  1  0
 27 29  1  0
 28 27  2  0
M  END
$$$$
