EQH.pdb
     RDKit          3D

 29 29  0  0  1  0  0  0  0  0999 V2000
   19.3609  -14.3632  -15.2861 N   0  0  0  0  0  0  0  0  0  0  0  0
   18.8975  -13.1783  -15.9403 C   0  0  1  0  0  0  0  0  0  0  0  0
   17.4332  -13.2295  -16.3186 C   0  0  0  0  0  0  0  0  0  0  0  0
   16.5973  -14.0154  -15.3545 C   0  0  0  0  0  0  0  0  0  0  0  0
   15.1985  -14.0053  -15.8937 C   0  0  0  0  0  0  0  0  0  0  0  0
   14.9171  -14.3036  -17.0733 O   0  0  0  0  0  0  0  0  0  0  0  0
   19.1610  -12.0029  -15.0921 C   0  0  0  0  0  0  0  0  0  0  0  0
   19.1104  -12.0308  -13.8499 O   0  0  0  0  0  0  0  0  0  0  0  0
   14.1859  -13.6419  -15.0139 O   0  0  0  0  0  0  0  0  0  0  0  0
   22.2057   -6.5156  -16.8027 N   0  0  0  0  0  0  0  0  0  0  0  0
   21.8526   -6.4324  -15.4349 C   0  0  0  0  0  0  0  0  0  0  0  0
   22.2263   -5.4298  -14.7819 O   0  0  0  0  0  0  0  0  0  0  0  0
   21.0608   -7.4827  -14.7497 C   0  0  0  0  0  0  0  0  0  0  0  0
   20.6363   -8.5745  -15.7026 C   0  0  0  0  0  0  0  0  0  0  0  0
   19.9018   -9.6102  -14.9598 C   0  0  2  0  0  0  0  0  0  0  0  0
   19.4903  -10.7666  -15.6940 N   0  0  0  0  0  0  0  0  0  0  0  0
   18.7128   -9.0673  -14.2114 C   0  0  0  0  0  0  0  0  0  0  0  0
   17.5872   -9.0295  -14.7704 O   0  0  0  0  0  0  0  0  0  0  0  0
   18.7969   -8.5884  -12.8878 N   0  0  0  0  0  0  0  0  0  0  0  0
   17.6487   -8.1481  -12.1091 C   0  0  1  0  0  0  0  0  0  0  0  0
   17.6752   -8.6672  -10.7146 C   0  0  0  0  0  0  0  0  0  0  0  0
   16.5615   -8.0738   -9.9400 C   0  0  0  0  0  0  0  0  0  0  0  0
   15.3025   -7.6940  -10.4158 C   0  0  0  0  0  0  0  0  0  0  0  0
   14.5545   -7.1945   -9.4246 N   0  0  0  0  0  0  0  0  0  0  0  0
   15.3106   -7.2444   -8.3110 C   0  0  0  0  0  0  0  0  0  0  0  0
   16.5020   -7.7681   -8.6247 N   0  0  0  0  0  0  0  0  0  0  0  0
   17.5570   -6.6773  -12.2105 C   0  0  0  0  0  0  0  0  0  0  0  0
   18.5831   -5.9633  -12.2727 O   0  0  0  0  0  0  0  0  0  0  0  0
   16.3247   -6.0597  -12.2387 O   0  0  0  0  0  0  0  0  0  0  0  0
  2  1  1  1
  2  3  1  0
  4  3  1  0
  4  5  1  0
  5  9  1  0
  5  6  2  0
  7  2  1  0
  8  7  2  0
 11 12  2  0
 11 10  1  0
 13 11  1  0
 14 13  1  0
 15 14  1  6
 15 16  1  0
 16  7  1  0
 17 15  1  0
 18 17  2  0
 19 17  1  0
 20 19  1  0
 20 21  1  1
 22 21  1  0
 22 23  2  0
 24 23  1  0
 25 24  1  0
 26 25  2  0
 26 22  1  0
 27 20  1  0
 27 29  1  0
 28 27  2  0
M  END
$$$$
