EQH.pdb
     RDKit          3D

 29 29  0  0  1  0  0  0  0  0999 V2000
   29.5273  -19.4356  -17.7737 N   0  0  0  0  0  0  0  0  0  0  0  0
   28.4628  -20.0984  -17.0852 C   0  0  1  0  0  0  0  0  0  0  0  0
   28.9310  -21.2211  -16.1850 C   0  0  0  0  0  0  0  0  0  0  0  0
   29.3734  -22.4401  -16.9363 C   0  0  0  0  0  0  0  0  0  0  0  0
   28.1276  -23.1696  -17.3402 C   0  0  0  0  0  0  0  0  0  0  0  0
   26.9787  -22.7768  -17.0477 O   0  0  0  0  0  0  0  0  0  0  0  0
   27.6823  -19.1189  -16.3094 C   0  0  0  0  0  0  0  0  0  0  0  0
   28.1655  -18.4310  -15.3930 O   0  0  0  0  0  0  0  0  0  0  0  0
   28.2907  -24.3374  -18.0757 O   0  0  0  0  0  0  0  0  0  0  0  0
   26.8819  -14.1402  -16.4900 N   0  0  0  0  0  0  0  0  0  0  0  0
   27.1812  -15.1315  -17.4546 C   0  0  0  0  0  0  0  0  0  0  0  0
   28.0343  -14.8695  -18.3348 O   0  0  0  0  0  0  0  0  0  0  0  0
   26.5256  -16.4617  -17.4618 C   0  0  0  0  0  0  0  0  0  0  0  0
   25.5267  -16.5994  -16.3376 C   0  0  0  0  0  0  0  0  0  0  0  0
   25.4722  -18.0041  -15.9044 C   0  0  2  0  0  0  0  0  0  0  0  0
   26.3113  -18.9306  -16.5995 N   0  0  0  0  0  0  0  0  0  0  0  0
   24.0713  -18.5562  -15.8699 C   0  0  0  0  0  0  0  0  0  0  0  0
   23.6099  -19.1520  -16.8764 O   0  0  0  0  0  0  0  0  0  0  0  0
   23.2310  -18.4377  -14.7437 N   0  0  0  0  0  0  0  0  0  0  0  0
   21.8599  -18.9243  -14.6988 C   0  0  1  0  0  0  0  0  0  0  0  0
   21.5185  -19.5409  -13.3881 C   0  0  0  0  0  0  0  0  0  0  0  0
   22.4884  -20.6146  -13.0739 C   0  0  0  0  0  0  0  0  0  0  0  0
   23.5492  -21.0613  -13.8683 C   0  0  0  0  0  0  0  0  0  0  0  0
   24.2131  -22.0495  -13.2566 N   0  0  0  0  0  0  0  0  0  0  0  0
   23.5980  -22.2511  -12.0753 C   0  0  0  0  0  0  0  0  0  0  0  0
   22.5740  -21.3949  -11.9735 N   0  0  0  0  0  0  0  0  0  0  0  0
   20.9640  -17.8227  -15.1061 C   0  0  0  0  0  0  0  0  0  0  0  0
   21.3954  -16.6594  -15.2717 O   0  0  0  0  0  0  0  0  0  0  0  0
   19.6220  -18.0608  -15.3130 O   0  0  0  0  0  0  0  0  0  0  0  0
  2  1  1  1
  2  3  1  0
  4  3  1  0
  4  5  1  0
  5  9  1  0
  5  6  2  0
  7  2  1  0
  8  7  2  0
 11 12  2  0
 11 10  1  0
 13 11  1  0
 14 13  1  0
 15 14  1  6
 15 16  1  0
 16  7  1  0
 17 15  1  0
 18 17  2  0
 19 17  1  0
 20 19  1  0
 20 21  1  1
 22 21  1  0
 22 23  2  0
 24 23  1  0
 25 24  1  0
 26 25  2  0
 26 22  1  0
 27 20  1  0
 27 29  1  0
 28 27  2  0
M  END
$$$$
