EQH.pdb
     RDKit          3D

 29 29  0  0  1  0  0  0  0  0999 V2000
   23.7246  -18.5147  -18.0210 N   0  0  0  0  0  0  0  0  0  0  0  0
   22.7565  -18.0384  -17.0815 C   0  0  1  0  0  0  0  0  0  0  0  0
   21.6756  -17.1839  -17.7072 C   0  0  0  0  0  0  0  0  0  0  0  0
   22.0647  -15.7437  -17.8499 C   0  0  0  0  0  0  0  0  0  0  0  0
   21.5578  -15.0402  -16.6271 C   0  0  0  0  0  0  0  0  0  0  0  0
   21.9436  -15.3125  -15.4709 O   0  0  0  0  0  0  0  0  0  0  0  0
   22.1525  -19.1756  -16.3655 C   0  0  0  0  0  0  0  0  0  0  0  0
   21.8822  -20.2606  -16.9096 O   0  0  0  0  0  0  0  0  0  0  0  0
   20.6124  -14.0401  -16.8210 O   0  0  0  0  0  0  0  0  0  0  0  0
   21.8803  -21.1057  -10.1754 N   0  0  0  0  0  0  0  0  0  0  0  0
   21.4463  -19.8033  -10.5187 C   0  0  0  0  0  0  0  0  0  0  0  0
   21.0344  -19.0511   -9.6045 O   0  0  0  0  0  0  0  0  0  0  0  0
   21.4610  -19.2988  -11.9132 C   0  0  0  0  0  0  0  0  0  0  0  0
   21.9256  -20.3563  -12.8860 C   0  0  0  0  0  0  0  0  0  0  0  0
   21.3073  -20.1151  -14.1989 C   0  0  2  0  0  0  0  0  0  0  0  0
   21.8539  -19.0553  -14.9887 N   0  0  0  0  0  0  0  0  0  0  0  0
   19.8136  -19.9375  -14.1232 C   0  0  0  0  0  0  0  0  0  0  0  0
   19.3267  -18.7833  -14.0153 O   0  0  0  0  0  0  0  0  0  0  0  0
   18.9123  -21.0210  -14.1679 N   0  0  0  0  0  0  0  0  0  0  0  0
   17.4743  -20.8891  -13.9847 C   0  0  1  0  0  0  0  0  0  0  0  0
   16.7640  -20.5947  -15.2589 C   0  0  0  0  0  0  0  0  0  0  0  0
   17.0152  -21.6813  -16.2329 C   0  0  0  0  0  0  0  0  0  0  0  0
   18.1819  -22.4382  -16.3800 C   0  0  0  0  0  0  0  0  0  0  0  0
   18.0429  -23.3324  -17.3663 N   0  0  0  0  0  0  0  0  0  0  0  0
   16.8015  -23.1666  -17.8621 C   0  0  0  0  0  0  0  0  0  0  0  0
   16.1966  -22.1838  -17.1838 N   0  0  0  0  0  0  0  0  0  0  0  0
   16.9854  -22.0904  -13.2776 C   0  0  0  0  0  0  0  0  0  0  0  0
   15.7837  -22.2087  -12.9484 O   0  0  0  0  0  0  0  0  0  0  0  0
   17.8555  -23.1132  -12.9652 O   0  0  0  0  0  0  0  0  0  0  0  0
  2  1  1  6
  2  3  1  0
  4  3  1  0
  4  5  1  0
  5  9  1  0
  5  6  2  0
  7  2  1  0
  8  7  2  0
 11 12  2  0
 11 10  1  0
 13 11  1  0
 14 13  1  0
 15 14  1  1
 15 16  1  0
 16  7  1  0
 17 15  1  0
 18 17  2  0
 19 17  1  0
 20 19  1  0
 20 21  1  6
 22 21  1  0
 22 23  2  0
 24 23  1  0
 25 24  1  0
 26 25  2  0
 26 22  1  0
 27 20  1  0
 27 29  1  0
 28 27  2  0
M  END
$$$$
