EQH.pdb
     RDKit          3D

 29 29  0  0  1  0  0  0  0  0999 V2000
   13.6447  -11.6424  -15.5209 N   0  0  0  0  0  0  0  0  0  0  0  0
   14.7291  -11.5548  -14.5921 C   0  0  1  0  0  0  0  0  0  0  0  0
   16.0895  -11.5054  -15.2531 C   0  0  0  0  0  0  0  0  0  0  0  0
   16.4689  -12.7882  -15.9287 C   0  0  0  0  0  0  0  0  0  0  0  0
   17.0873  -13.6593  -14.8771 C   0  0  0  0  0  0  0  0  0  0  0  0
   17.2297  -13.3022  -13.6888 O   0  0  0  0  0  0  0  0  0  0  0  0
   14.5470  -10.3820  -13.7193 C   0  0  0  0  0  0  0  0  0  0  0  0
   14.3421   -9.2337  -14.1507 O   0  0  0  0  0  0  0  0  0  0  0  0
   17.5137  -14.9212  -15.2737 O   0  0  0  0  0  0  0  0  0  0  0  0
   11.6913   -9.9219   -8.0901 N   0  0  0  0  0  0  0  0  0  0  0  0
   12.3134   -8.6774   -8.3488 C   0  0  0  0  0  0  0  0  0  0  0  0
   12.0745   -7.7188   -7.5773 O   0  0  0  0  0  0  0  0  0  0  0  0
   13.2329   -8.4675   -9.4934 C   0  0  0  0  0  0  0  0  0  0  0  0
   13.4254   -9.7322  -10.2958 C   0  0  0  0  0  0  0  0  0  0  0  0
   14.3788   -9.4761  -11.3864 C   0  0  2  0  0  0  0  0  0  0  0  0
   14.6032  -10.5402  -12.3154 N   0  0  0  0  0  0  0  0  0  0  0  0
   15.7124   -8.9749  -10.8977 C   0  0  0  0  0  0  0  0  0  0  0  0
   16.5147   -9.7707  -10.3465 O   0  0  0  0  0  0  0  0  0  0  0  0
   16.1179   -7.6307  -11.0286 N   0  0  0  0  0  0  0  0  0  0  0  0
   17.4561   -7.1521  -10.7141 C   0  0  1  0  0  0  0  0  0  0  0  0
   18.2833   -6.9367  -11.9323 C   0  0  0  0  0  0  0  0  0  0  0  0
   19.6300   -6.4600  -11.5433 C   0  0  0  0  0  0  0  0  0  0  0  0
   20.7439   -7.2374  -11.2105 C   0  0  0  0  0  0  0  0  0  0  0  0
   21.7908   -6.4585  -10.9123 N   0  0  0  0  0  0  0  0  0  0  0  0
   21.3721   -5.1853  -11.0467 C   0  0  0  0  0  0  0  0  0  0  0  0
   20.0872   -5.1938  -11.4219 N   0  0  0  0  0  0  0  0  0  0  0  0
   17.3306   -5.9645   -9.8446 C   0  0  0  0  0  0  0  0  0  0  0  0
   16.2910   -5.2674   -9.8398 O   0  0  0  0  0  0  0  0  0  0  0  0
   18.3691   -5.6002   -9.0143 O   0  0  0  0  0  0  0  0  0  0  0  0
  2  1  1  6
  2  3  1  0
  4  3  1  0
  4  5  1  0
  5  9  1  0
  5  6  2  0
  7  2  1  0
  8  7  2  0
 11 12  2  0
 11 10  1  0
 13 11  1  0
 14 13  1  0
 15 14  1  1
 15 16  1  0
 16  7  1  0
 17 15  1  0
 18 17  2  0
 19 17  1  0
 20 19  1  0
 20 21  1  6
 22 21  1  0
 22 23  2  0
 24 23  1  0
 25 24  1  0
 26 25  2  0
 26 22  1  0
 27 20  1  0
 27 29  1  0
 28 27  2  0
M  END
$$$$
