EQH.pdb
     RDKit          3D

 29 29  0  0  1  0  0  0  0  0999 V2000
   27.1069   -7.9382  -19.8608 N   0  0  0  0  0  0  0  0  0  0  0  0
   25.8671   -8.3175  -19.2564 C   0  0  1  0  0  0  0  0  0  0  0  0
   25.7510   -9.8035  -18.9947 C   0  0  0  0  0  0  0  0  0  0  0  0
   25.8698  -10.6364  -20.2349 C   0  0  0  0  0  0  0  0  0  0  0  0
   25.7404  -12.0664  -19.8041 C   0  0  0  0  0  0  0  0  0  0  0  0
   25.4268  -12.4065  -18.6441 O   0  0  0  0  0  0  0  0  0  0  0  0
   25.6699   -7.5657  -18.0048 C   0  0  0  0  0  0  0  0  0  0  0  0
   26.5593   -6.8784  -17.4726 O   0  0  0  0  0  0  0  0  0  0  0  0
   25.9876  -13.0396  -20.7650 O   0  0  0  0  0  0  0  0  0  0  0  0
   23.2387   -3.2789  -19.9141 N   0  0  0  0  0  0  0  0  0  0  0  0
   22.6038   -3.1963  -18.6521 C   0  0  0  0  0  0  0  0  0  0  0  0
   21.9306   -2.1724  -18.3885 O   0  0  0  0  0  0  0  0  0  0  0  0
   22.7055   -4.2715  -17.6357 C   0  0  0  0  0  0  0  0  0  0  0  0
   23.5400   -5.4298  -18.1280 C   0  0  0  0  0  0  0  0  0  0  0  0
   23.6253   -6.4512  -17.0728 C   0  0  2  0  0  0  0  0  0  0  0  0
   24.4158   -7.6097  -17.3534 N   0  0  0  0  0  0  0  0  0  0  0  0
   22.2759   -6.8986  -16.5752 C   0  0  0  0  0  0  0  0  0  0  0  0
   21.4501   -6.0468  -16.1589 O   0  0  0  0  0  0  0  0  0  0  0  0
   21.8808   -8.2520  -16.5510 N   0  0  0  0  0  0  0  0  0  0  0  0
   20.5726   -8.7081  -16.1048 C   0  0  1  0  0  0  0  0  0  0  0  0
   20.4727  -10.1923  -16.0614 C   0  0  0  0  0  0  0  0  0  0  0  0
   19.1276  -10.5883  -15.5860 C   0  0  0  0  0  0  0  0  0  0  0  0
   18.0798   -9.7459  -15.2011 C   0  0  0  0  0  0  0  0  0  0  0  0
   17.0115  -10.4614  -14.8289 N   0  0  0  0  0  0  0  0  0  0  0  0
   17.3512  -11.7576  -14.9667 C   0  0  0  0  0  0  0  0  0  0  0  0
   18.6100  -11.8255  -15.4170 N   0  0  0  0  0  0  0  0  0  0  0  0
   20.2602   -8.0384  -14.8258 C   0  0  0  0  0  0  0  0  0  0  0  0
   21.1289   -7.8950  -13.9363 O   0  0  0  0  0  0  0  0  0  0  0  0
   18.9912   -7.5547  -14.5882 O   0  0  0  0  0  0  0  0  0  0  0  0
  2  1  1  1
  2  3  1  0
  4  3  1  0
  4  5  1  0
  5  9  1  0
  5  6  2  0
  7  2  1  0
  8  7  2  0
 11 12  2  0
 11 10  1  0
 13 11  1  0
 14 13  1  0
 15 14  1  6
 15 16  1  0
 16  7  1  0
 17 15  1  0
 18 17  2  0
 19 17  1  0
 20 19  1  0
 20 21  1  1
 22 21  1  0
 22 23  2  0
 24 23  1  0
 25 24  1  0
 26 25  2  0
 26 22  1  0
 27 20  1  0
 27 29  1  0
 28 27  2  0
M  END
$$$$
