EQH.pdb
     RDKit          3D

 29 29  0  0  1  0  0  0  0  0999 V2000
   15.6488  -12.4330  -10.4255 N   0  0  0  0  0  0  0  0  0  0  0  0
   15.2590  -11.1315  -10.8736 C   0  0  1  0  0  0  0  0  0  0  0  0
   13.8810  -10.7177  -10.4047 C   0  0  0  0  0  0  0  0  0  0  0  0
   12.7973  -11.6549  -10.8441 C   0  0  0  0  0  0  0  0  0  0  0  0
   11.5149  -11.1208  -10.2806 C   0  0  0  0  0  0  0  0  0  0  0  0
   10.9016  -11.6650   -9.3387 O   0  0  0  0  0  0  0  0  0  0  0  0
   16.2588  -10.1360  -10.4495 C   0  0  0  0  0  0  0  0  0  0  0  0
   16.8058  -10.1491   -9.3328 O   0  0  0  0  0  0  0  0  0  0  0  0
   11.0080   -9.9613  -10.8552 O   0  0  0  0  0  0  0  0  0  0  0  0
   21.1696   -7.7470  -13.4146 N   0  0  0  0  0  0  0  0  0  0  0  0
   20.9722   -6.9229  -12.2813 C   0  0  0  0  0  0  0  0  0  0  0  0
   21.8694   -6.1024  -11.9763 O   0  0  0  0  0  0  0  0  0  0  0  0
   19.7490   -6.9945  -11.4458 C   0  0  0  0  0  0  0  0  0  0  0  0
   18.8207   -8.0931  -11.9057 C   0  0  0  0  0  0  0  0  0  0  0  0
   17.6333   -8.1221  -11.0378 C   0  0  2  0  0  0  0  0  0  0  0  0
   16.6346   -9.1013  -11.3368 N   0  0  0  0  0  0  0  0  0  0  0  0
   16.9656   -6.7783  -10.9076 C   0  0  0  0  0  0  0  0  0  0  0  0
   16.2928   -6.3199  -11.8657 O   0  0  0  0  0  0  0  0  0  0  0  0
   17.0572   -5.9895   -9.7423 N   0  0  0  0  0  0  0  0  0  0  0  0
   16.4284   -4.6853   -9.5931 C   0  0  1  0  0  0  0  0  0  0  0  0
   16.0338   -4.4023   -8.1864 C   0  0  0  0  0  0  0  0  0  0  0  0
   14.7219   -5.0265   -7.9008 C   0  0  0  0  0  0  0  0  0  0  0  0
   13.9255   -5.7705   -8.7772 C   0  0  0  0  0  0  0  0  0  0  0  0
   12.8054   -6.1767   -8.1673 N   0  0  0  0  0  0  0  0  0  0  0  0
   12.8632   -5.7066   -6.9064 C   0  0  0  0  0  0  0  0  0  0  0  0
   14.0048   -5.0242   -6.7550 N   0  0  0  0  0  0  0  0  0  0  0  0
   17.3191   -3.6706  -10.1923 C   0  0  0  0  0  0  0  0  0  0  0  0
   18.4597   -3.9708  -10.6112 O   0  0  0  0  0  0  0  0  0  0  0  0
   16.9035   -2.3606  -10.3013 O   0  0  0  0  0  0  0  0  0  0  0  0
  2  1  1  1
  2  3  1  0
  4  3  1  0
  4  5  1  0
  5  9  1  0
  5  6  2  0
  7  2  1  0
  8  7  2  0
 11 12  2  0
 11 10  1  0
 13 11  1  0
 14 13  1  0
 15 14  1  6
 15 16  1  0
 16  7  1  0
 17 15  1  0
 18 17  2  0
 19 17  1  0
 20 19  1  0
 20 21  1  1
 22 21  1  0
 22 23  2  0
 24 23  1  0
 25 24  1  0
 26 25  2  0
 26 22  1  0
 27 20  1  0
 27 29  1  0
 28 27  2  0
M  END
$$$$
