EQH.pdb
     RDKit          3D

 29 29  0  0  1  0  0  0  0  0999 V2000
   13.3818  -12.0935  -11.9051 N   0  0  0  0  0  0  0  0  0  0  0  0
   14.7301  -11.6157  -11.8922 C   0  0  1  0  0  0  0  0  0  0  0  0
   15.4842  -11.8975  -13.1736 C   0  0  0  0  0  0  0  0  0  0  0  0
   15.6542  -13.3599  -13.4539 C   0  0  0  0  0  0  0  0  0  0  0  0
   16.4567  -13.4634  -14.7159 C   0  0  0  0  0  0  0  0  0  0  0  0
   16.0181  -13.9774  -15.7661 O   0  0  0  0  0  0  0  0  0  0  0  0
   14.7465  -10.1715  -11.6018 C   0  0  0  0  0  0  0  0  0  0  0  0
   13.9210   -9.3697  -12.0732 O   0  0  0  0  0  0  0  0  0  0  0  0
   17.7492  -12.9535  -14.6851 O   0  0  0  0  0  0  0  0  0  0  0  0
   14.0083   -7.0324   -7.8506 N   0  0  0  0  0  0  0  0  0  0  0  0
   15.0182   -6.0868   -8.1481 C   0  0  0  0  0  0  0  0  0  0  0  0
   14.8281   -4.8899   -7.8280 O   0  0  0  0  0  0  0  0  0  0  0  0
   16.2862   -6.4586   -8.8214 C   0  0  0  0  0  0  0  0  0  0  0  0
   16.3769   -7.9467   -9.0616 C   0  0  0  0  0  0  0  0  0  0  0  0
   15.8266   -8.2597  -10.3894 C   0  0  2  0  0  0  0  0  0  0  0  0
   15.7404   -9.6419  -10.7468 N   0  0  0  0  0  0  0  0  0  0  0  0
   16.5165   -7.5169  -11.5033 C   0  0  0  0  0  0  0  0  0  0  0  0
   17.4889   -8.0467  -12.0986 O   0  0  0  0  0  0  0  0  0  0  0  0
   16.1208   -6.2302  -11.9233 N   0  0  0  0  0  0  0  0  0  0  0  0
   16.6901   -5.5401  -13.0715 C   0  0  1  0  0  0  0  0  0  0  0  0
   15.9703   -5.8520  -14.3361 C   0  0  0  0  0  0  0  0  0  0  0  0
   16.6827   -6.9268  -15.0638 C   0  0  0  0  0  0  0  0  0  0  0  0
   17.8695   -7.5649  -14.6895 C   0  0  0  0  0  0  0  0  0  0  0  0
   18.2148   -8.4880  -15.5951 N   0  0  0  0  0  0  0  0  0  0  0  0
   17.2682   -8.4584  -16.5530 C   0  0  0  0  0  0  0  0  0  0  0  0
   16.3610   -7.5283  -16.2307 N   0  0  0  0  0  0  0  0  0  0  0  0
   16.7683   -4.0996  -12.7538 C   0  0  0  0  0  0  0  0  0  0  0  0
   16.0362   -3.5846  -11.8790 O   0  0  0  0  0  0  0  0  0  0  0  0
   17.6599   -3.2892  -13.4239 O   0  0  0  0  0  0  0  0  0  0  0  0
  2  1  1  6
  2  3  1  0
  4  3  1  0
  4  5  1  0
  5  9  1  0
  5  6  2  0
  7  2  1  0
  8  7  2  0
 11 12  2  0
 11 10  1  0
 13 11  1  0
 14 13  1  0
 15 14  1  1
 15 16  1  0
 16  7  1  0
 17 15  1  0
 18 17  2  0
 19 17  1  0
 20 19  1  0
 20 21  1  6
 22 21  1  0
 22 23  2  0
 24 23  1  0
 25 24  1  0
 26 25  2  0
 26 22  1  0
 27 20  1  0
 27 29  1  0
 28 27  2  0
M  END
$$$$
