EQH.pdb
     RDKit          3D

 29 29  0  0  1  0  0  0  0  0999 V2000
   17.2323  -10.4699  -16.0932 N   0  0  0  0  0  0  0  0  0  0  0  0
   16.9138  -11.2224  -14.9190 C   0  0  1  0  0  0  0  0  0  0  0  0
   17.4919  -12.6209  -14.9213 C   0  0  0  0  0  0  0  0  0  0  0  0
   17.2182  -13.3750  -16.1872 C   0  0  0  0  0  0  0  0  0  0  0  0
   17.8380  -14.7298  -16.0208 C   0  0  0  0  0  0  0  0  0  0  0  0
   18.4884  -15.0658  -15.0090 O   0  0  0  0  0  0  0  0  0  0  0  0
   17.3600  -10.4916  -13.7201 C   0  0  0  0  0  0  0  0  0  0  0  0
   17.3046  -10.9641  -12.5711 O   0  0  0  0  0  0  0  0  0  0  0  0
   17.6633  -15.6355  -17.0604 O   0  0  0  0  0  0  0  0  0  0  0  0
   21.5003   -5.6560  -13.5558 N   0  0  0  0  0  0  0  0  0  0  0  0
   21.6447   -7.0362  -13.8333 C   0  0  0  0  0  0  0  0  0  0  0  0
   22.7273   -7.4368  -14.3217 O   0  0  0  0  0  0  0  0  0  0  0  0
   20.5673   -8.0204  -13.5686 C   0  0  0  0  0  0  0  0  0  0  0  0
   19.3268   -7.3578  -13.0186 C   0  0  0  0  0  0  0  0  0  0  0  0
   18.3073   -8.3829  -12.7469 C   0  0  2  0  0  0  0  0  0  0  0  0
   17.8821   -9.1843  -13.8526 N   0  0  0  0  0  0  0  0  0  0  0  0
   17.0881   -7.8325  -12.0547 C   0  0  0  0  0  0  0  0  0  0  0  0
   16.1541   -7.3369  -12.7351 O   0  0  0  0  0  0  0  0  0  0  0  0
   16.9351   -7.8439  -10.6529 N   0  0  0  0  0  0  0  0  0  0  0  0
   15.8106   -7.2393   -9.9539 C   0  0  1  0  0  0  0  0  0  0  0  0
   15.5133   -7.9172   -8.6629 C   0  0  0  0  0  0  0  0  0  0  0  0
   14.3343   -7.2857   -8.0276 C   0  0  0  0  0  0  0  0  0  0  0  0
   12.9866   -7.5887   -8.2458 C   0  0  0  0  0  0  0  0  0  0  0  0
   12.2001   -6.8106   -7.4925 N   0  0  0  0  0  0  0  0  0  0  0  0
   13.0187   -6.0059   -6.7877 C   0  0  0  0  0  0  0  0  0  0  0  0
   14.2855   -6.2938   -7.1107 N   0  0  0  0  0  0  0  0  0  0  0  0
   16.0641   -5.7887   -9.8366 C   0  0  0  0  0  0  0  0  0  0  0  0
   17.2261   -5.3373   -9.7249 O   0  0  0  0  0  0  0  0  0  0  0  0
   15.0120   -4.8978   -9.8485 O   0  0  0  0  0  0  0  0  0  0  0  0
  2  1  1  6
  2  3  1  0
  4  3  1  0
  4  5  1  0
  5  9  1  0
  5  6  2  0
  7  2  1  0
  8  7  2  0
 11 12  2  0
 11 10  1  0
 13 11  1  0
 14 13  1  0
 15 14  1  6
 15 16  1  0
 16  7  1  0
 17 15  1  0
 18 17  2  0
 19 17  1  0
 20 19  1  0
 20 21  1  1
 22 21  1  0
 22 23  2  0
 24 23  1  0
 25 24  1  0
 26 25  2  0
 26 22  1  0
 27 20  1  0
 27 29  1  0
 28 27  2  0
M  END
$$$$
