EQH.pdb
     RDKit          3D

 29 29  0  0  1  0  0  0  0  0999 V2000
   28.2829  -21.4485  -15.7084 N   0  0  0  0  0  0  0  0  0  0  0  0
   27.5044  -20.3558  -15.2120 C   0  0  1  0  0  0  0  0  0  0  0  0
   27.2288  -19.2889  -16.2492 C   0  0  0  0  0  0  0  0  0  0  0  0
   27.9653  -19.5067  -17.5361 C   0  0  0  0  0  0  0  0  0  0  0  0
   27.2252  -18.7371  -18.5884 C   0  0  0  0  0  0  0  0  0  0  0  0
   26.7441  -19.2658  -19.6124 O   0  0  0  0  0  0  0  0  0  0  0  0
   26.2374  -20.8577  -14.6524 C   0  0  0  0  0  0  0  0  0  0  0  0
   25.4188  -21.5279  -15.3061 O   0  0  0  0  0  0  0  0  0  0  0  0
   27.0834  -17.3693  -18.3870 O   0  0  0  0  0  0  0  0  0  0  0  0
   24.9286  -20.8775   -8.4301 N   0  0  0  0  0  0  0  0  0  0  0  0
   26.0879  -21.0729   -9.2179 C   0  0  0  0  0  0  0  0  0  0  0  0
   27.1954  -21.1635   -8.6379 O   0  0  0  0  0  0  0  0  0  0  0  0
   26.0401  -21.1737  -10.6967 C   0  0  0  0  0  0  0  0  0  0  0  0
   24.6371  -20.9923  -11.2250 C   0  0  0  0  0  0  0  0  0  0  0  0
   24.6717  -20.9551  -12.6952 C   0  0  2  0  0  0  0  0  0  0  0  0
   25.9089  -20.5780  -13.3058 N   0  0  0  0  0  0  0  0  0  0  0  0
   23.5678  -20.1205  -13.2897 C   0  0  0  0  0  0  0  0  0  0  0  0
   23.8153  -18.9578  -13.6990 O   0  0  0  0  0  0  0  0  0  0  0  0
   22.2420  -20.5843  -13.4143 N   0  0  0  0  0  0  0  0  0  0  0  0
   21.1908  -19.8601  -14.1136 C   0  0  1  0  0  0  0  0  0  0  0  0
   21.4440  -19.7638  -15.5770 C   0  0  0  0  0  0  0  0  0  0  0  0
   20.3370  -19.0266  -16.2276 C   0  0  0  0  0  0  0  0  0  0  0  0
   19.5866  -17.9743  -15.6934 C   0  0  0  0  0  0  0  0  0  0  0  0
   18.6688  -17.5553  -16.5730 N   0  0  0  0  0  0  0  0  0  0  0  0
   18.8126  -18.3213  -17.6716 C   0  0  0  0  0  0  0  0  0  0  0  0
   19.8057  -19.1934  -17.4592 N   0  0  0  0  0  0  0  0  0  0  0  0
   19.8931  -20.4699  -13.7584 C   0  0  0  0  0  0  0  0  0  0  0  0
   18.8518  -19.7811  -13.6707 O   0  0  0  0  0  0  0  0  0  0  0  0
   19.8069  -21.8241  -13.5147 O   0  0  0  0  0  0  0  0  0  0  0  0
  2  1  1  6
  2  3  1  0
  4  3  1  0
  4  5  1  0
  5  9  1  0
  5  6  2  0
  7  2  1  0
  8  7  2  0
 11 12  2  0
 11 10  1  0
 13 11  1  0
 14 13  1  0
 15 14  1  1
 15 16  1  0
 16  7  1  0
 17 15  1  0
 18 17  2  0
 19 17  1  0
 20 19  1  0
 20 21  1  6
 22 21  1  0
 22 23  2  0
 24 23  1  0
 25 24  1  0
 26 25  2  0
 26 22  1  0
 27 20  1  0
 27 29  1  0
 28 27  2  0
M  END
$$$$
