EQH.pdb
     RDKit          3D

 29 29  0  0  1  0  0  0  0  0999 V2000
   25.9565  -21.2447  -11.7468 N   0  0  0  0  0  0  0  0  0  0  0  0
   25.3451  -21.5490  -13.0039 C   0  0  1  0  0  0  0  0  0  0  0  0
   23.9603  -22.1452  -12.8745 C   0  0  0  0  0  0  0  0  0  0  0  0
   23.0726  -21.3881  -11.9339 C   0  0  0  0  0  0  0  0  0  0  0  0
   21.6793  -21.5018  -12.4753 C   0  0  0  0  0  0  0  0  0  0  0  0
   20.6909  -20.9549  -11.9427 O   0  0  0  0  0  0  0  0  0  0  0  0
   25.2996  -20.3395  -13.8439 C   0  0  0  0  0  0  0  0  0  0  0  0
   25.3095  -19.1851  -13.3818 O   0  0  0  0  0  0  0  0  0  0  0  0
   21.5102  -22.2597  -13.6279 O   0  0  0  0  0  0  0  0  0  0  0  0
   27.1468  -16.9044  -17.2644 N   0  0  0  0  0  0  0  0  0  0  0  0
   27.9534  -18.0392  -17.0110 C   0  0  0  0  0  0  0  0  0  0  0  0
   29.1644  -17.8624  -16.7403 O   0  0  0  0  0  0  0  0  0  0  0  0
   27.4205  -19.4226  -17.0538 C   0  0  0  0  0  0  0  0  0  0  0  0
   25.9483  -19.4451  -17.3892 C   0  0  0  0  0  0  0  0  0  0  0  0
   25.1649  -19.3560  -16.1474 C   0  0  2  0  0  0  0  0  0  0  0  0
   25.2411  -20.4678  -15.2508 N   0  0  0  0  0  0  0  0  0  0  0  0
   23.7141  -19.0306  -16.3879 C   0  0  0  0  0  0  0  0  0  0  0  0
   22.8291  -19.8783  -16.1071 O   0  0  0  0  0  0  0  0  0  0  0  0
   23.2862  -17.7982  -16.9233 N   0  0  0  0  0  0  0  0  0  0  0  0
   21.9123  -17.3211  -16.8657 C   0  0  1  0  0  0  0  0  0  0  0  0
   21.4088  -17.2060  -15.4700 C   0  0  0  0  0  0  0  0  0  0  0  0
   20.0166  -16.7022  -15.4816 C   0  0  0  0  0  0  0  0  0  0  0  0
   18.8462  -17.4422  -15.6773 C   0  0  0  0  0  0  0  0  0  0  0  0
   17.7706  -16.6476  -15.6210 N   0  0  0  0  0  0  0  0  0  0  0  0
   18.2263  -15.4010  -15.3914 C   0  0  0  0  0  0  0  0  0  0  0  0
   19.5619  -15.4410  -15.3097 N   0  0  0  0  0  0  0  0  0  0  0  0
   21.8220  -16.0734  -17.6512 C   0  0  0  0  0  0  0  0  0  0  0  0
   20.7537  -15.7271  -18.2037 O   0  0  0  0  0  0  0  0  0  0  0  0
   22.9265  -15.2600  -17.7901 O   0  0  0  0  0  0  0  0  0  0  0  0
  2  1  1  1
  2  3  1  0
  4  3  1  0
  4  5  1  0
  5  9  1  0
  5  6  2  0
  7  2  1  0
  8  7  2  0
 11 12  2  0
 11 10  1  0
 13 11  1  0
 14 13  1  0
 15 14  1  6
 15 16  1  0
 16  7  1  0
 17 15  1  0
 18 17  2  0
 19 17  1  0
 20 19  1  0
 20 21  1  1
 22 21  1  0
 22 23  2  0
 24 23  1  0
 25 24  1  0
 26 25  2  0
 26 22  1  0
 27 20  1  0
 27 29  1  0
 28 27  2  0
M  END
$$$$
