EQH.pdb
     RDKit          3D

 29 29  0  0  1  0  0  0  0  0999 V2000
   26.8177  -23.4256  -16.9273 N   0  0  0  0  0  0  0  0  0  0  0  0
   26.6318  -22.0967  -16.4314 C   0  0  1  0  0  0  0  0  0  0  0  0
   26.2021  -21.1089  -17.4942 C   0  0  0  0  0  0  0  0  0  0  0  0
   27.2836  -20.7900  -18.4814 C   0  0  0  0  0  0  0  0  0  0  0  0
   28.1966  -19.8065  -17.8132 C   0  0  0  0  0  0  0  0  0  0  0  0
   29.1719  -20.1455  -17.1106 O   0  0  0  0  0  0  0  0  0  0  0  0
   25.6584  -22.1068  -15.3257 C   0  0  0  0  0  0  0  0  0  0  0  0
   24.5719  -22.7097  -15.3765 O   0  0  0  0  0  0  0  0  0  0  0  0
   27.9191  -18.4581  -18.0032 O   0  0  0  0  0  0  0  0  0  0  0  0
   26.4783  -20.4148   -9.0855 N   0  0  0  0  0  0  0  0  0  0  0  0
   25.1244  -20.7661   -9.2998 C   0  0  0  0  0  0  0  0  0  0  0  0
   24.3633  -20.8431   -8.3069 O   0  0  0  0  0  0  0  0  0  0  0  0
   24.5763  -21.0450  -10.6494 C   0  0  0  0  0  0  0  0  0  0  0  0
   25.6565  -21.0377  -11.7046 C   0  0  0  0  0  0  0  0  0  0  0  0
   25.0588  -21.3370  -13.0150 C   0  0  2  0  0  0  0  0  0  0  0  0
   25.9475  -21.4035  -14.1336 N   0  0  0  0  0  0  0  0  0  0  0  0
   23.9144  -20.4220  -13.3635 C   0  0  0  0  0  0  0  0  0  0  0  0
   24.1493  -19.2733  -13.8176 O   0  0  0  0  0  0  0  0  0  0  0  0
   22.5635  -20.7935  -13.2041 N   0  0  0  0  0  0  0  0  0  0  0  0
   21.4526  -20.1161  -13.8565 C   0  0  1  0  0  0  0  0  0  0  0  0
   21.5551  -20.1568  -15.3407 C   0  0  0  0  0  0  0  0  0  0  0  0
   20.4359  -19.3943  -15.9393 C   0  0  0  0  0  0  0  0  0  0  0  0
   19.8654  -18.2087  -15.4653 C   0  0  0  0  0  0  0  0  0  0  0  0
   18.8720  -17.8091  -16.2686 N   0  0  0  0  0  0  0  0  0  0  0  0
   18.7894  -18.7192  -17.2581 C   0  0  0  0  0  0  0  0  0  0  0  0
   19.7217  -19.6583  -17.0560 N   0  0  0  0  0  0  0  0  0  0  0  0
   20.1928  -20.6674  -13.3171 C   0  0  0  0  0  0  0  0  0  0  0  0
   20.1919  -21.6390  -12.5280 O   0  0  0  0  0  0  0  0  0  0  0  0
   18.9829  -20.1139  -13.6783 O   0  0  0  0  0  0  0  0  0  0  0  0
  2  1  1  6
  2  3  1  0
  4  3  1  0
  4  5  1  0
  5  9  1  0
  5  6  2  0
  7  2  1  0
  8  7  2  0
 11 12  2  0
 11 10  1  0
 13 11  1  0
 14 13  1  0
 15 14  1  1
 15 16  1  0
 16  7  1  0
 17 15  1  0
 18 17  2  0
 19 17  1  0
 20 19  1  0
 20 21  1  6
 22 21  1  0
 22 23  2  0
 24 23  1  0
 25 24  1  0
 26 25  2  0
 26 22  1  0
 27 20  1  0
 27 29  1  0
 28 27  2  0
M  END
$$$$
