TNA.pdb
     RDKit          3D

 21 20  0  0  1  0  0  0  0  0999 V2000
   23.3002  -10.2368  -16.7730 C   0  0  0  0  0  0  0  0  0  0  0  0
   22.7254  -10.2097  -15.3742 C   0  0  1  0  0  0  0  0  0  0  0  0
   23.5492  -10.9294  -14.5100 O   0  0  0  0  0  0  0  0  0  0  0  0
   22.6315   -8.7528  -14.9595 C   0  0  2  0  0  0  0  0  0  0  0  0
   22.1528   -8.7581  -13.5926 N   0  0  0  0  0  0  0  0  0  0  0  0
   21.6079   -8.0276  -15.7921 C   0  0  0  0  0  0  0  0  0  0  0  0
   21.8707   -7.8309  -16.9864 O   0  0  0  0  0  0  0  0  0  0  0  0
   17.8583   -9.3726  -17.0393 N   0  0  0  0  0  0  0  0  0  0  0  0
   17.6614   -8.8298  -15.7416 C   0  0  0  0  0  0  0  0  0  0  0  0
   17.2718   -9.6626  -14.8585 O   0  0  0  0  0  0  0  0  0  0  0  0
   17.9107   -7.4222  -15.5367 C   0  0  0  0  0  0  0  0  0  0  0  0
   19.2948   -6.9022  -15.7784 C   0  0  2  0  0  0  0  0  0  0  0  0
   20.3959   -7.5898  -15.2384 N   0  0  0  0  0  0  0  0  0  0  0  0
   19.2701   -5.4412  -15.6204 C   0  0  0  0  0  0  0  0  0  0  0  0
   19.2750   -4.8827  -14.4804 O   0  0  0  0  0  0  0  0  0  0  0  0
   19.2421   -2.3753  -17.8625 C   0  0  0  0  0  0  0  0  0  0  0  0
   19.1908   -3.0830  -16.5114 C   0  0  2  0  0  0  0  0  0  0  0  0
   19.2407   -4.5232  -16.7274 N   0  0  0  0  0  0  0  0  0  0  0  0
   17.9918   -2.7031  -15.7304 C   0  0  0  0  0  0  0  0  0  0  0  0
   18.0164   -1.6691  -15.0199 O   0  0  0  0  0  0  0  0  0  0  0  0
   16.8097   -3.4300  -15.7273 O   0  0  0  0  0  0  0  0  0  0  0  0
  2  1  1  6
  2  3  1  0
  2  4  1  0
  4  5  1  1
  6  4  1  0
  6 13  1  0
  7  6  2  0
  8  9  1  0
  9 10  2  0
 12 11  1  1
 11  9  1  0
 12 13  1  0
 12 14  1  0
 14 18  1  0
 15 14  2  0
 17 19  1  0
 17 16  1  6
 18 17  1  0
 19 21  1  0
 20 19  2  0
M  END
$$$$
