TNA.pdb
     RDKit          3D

 21 20  0  0  1  0  0  0  0  0999 V2000
   21.6696  -19.4357  -17.1266 C   0  0  0  0  0  0  0  0  0  0  0  0
   20.5669  -19.6342  -16.1105 C   0  0  1  0  0  0  0  0  0  0  0  0
   19.4193  -20.1084  -16.7440 O   0  0  0  0  0  0  0  0  0  0  0  0
   21.0803  -20.6283  -15.0849 C   0  0  2  0  0  0  0  0  0  0  0  0
   20.0020  -20.8136  -14.1358 N   0  0  0  0  0  0  0  0  0  0  0  0
   22.2511  -20.0572  -14.3301 C   0  0  0  0  0  0  0  0  0  0  0  0
   22.1850  -18.8729  -13.9734 O   0  0  0  0  0  0  0  0  0  0  0  0
   26.9095  -21.8885  -10.7036 N   0  0  0  0  0  0  0  0  0  0  0  0
   26.2207  -20.9635  -11.5327 C   0  0  0  0  0  0  0  0  0  0  0  0
   26.6109  -19.7536  -11.4365 O   0  0  0  0  0  0  0  0  0  0  0  0
   25.1672  -21.4553  -12.3893 C   0  0  0  0  0  0  0  0  0  0  0  0
   24.6151  -20.5375  -13.4368 C   0  0  2  0  0  0  0  0  0  0  0  0
   23.3794  -20.8371  -14.0368 N   0  0  0  0  0  0  0  0  0  0  0  0
   25.7164  -20.1405  -14.3255 C   0  0  0  0  0  0  0  0  0  0  0  0
   26.3268  -20.9746  -15.0625 O   0  0  0  0  0  0  0  0  0  0  0  0
   28.5127  -19.3014  -14.9607 C   0  0  0  0  0  0  0  0  0  0  0  0
   27.2989  -18.4542  -15.3321 C   0  0  2  0  0  0  0  0  0  0  0  0
   26.1954  -18.7891  -14.4415 N   0  0  0  0  0  0  0  0  0  0  0  0
   26.9111  -18.6306  -16.7500 C   0  0  0  0  0  0  0  0  0  0  0  0
   26.4565  -19.7347  -17.1359 O   0  0  0  0  0  0  0  0  0  0  0  0
   27.0183  -17.6342  -17.7099 O   0  0  0  0  0  0  0  0  0  0  0  0
  2  1  1  6
  2  3  1  0
  2  4  1  0
  4  5  1  1
  6  4  1  0
  6 13  1  0
  7  6  2  0
  8  9  1  0
  9 10  2  0
 12 11  1  6
 11  9  1  0
 12 13  1  0
 12 14  1  0
 14 18  1  0
 15 14  2  0
 17 19  1  0
 17 16  1  1
 18 17  1  0
 19 21  1  0
 20 19  2  0
M  END
$$$$
