TNA.pdb
     RDKit          3D

 21 20  0  0  1  0  0  0  0  0999 V2000
   16.1473   -6.3750  -17.9252 C   0  0  0  0  0  0  0  0  0  0  0  0
   15.7517   -7.6526  -17.2189 C   0  0  1  0  0  0  0  0  0  0  0  0
   15.0398   -8.4746  -18.0912 O   0  0  0  0  0  0  0  0  0  0  0  0
   17.0334   -8.3206  -16.7557 C   0  0  2  0  0  0  0  0  0  0  0  0
   16.6314   -9.5660  -16.1352 N   0  0  0  0  0  0  0  0  0  0  0  0
   17.7143   -7.4908  -15.7000 C   0  0  0  0  0  0  0  0  0  0  0  0
   17.0998   -7.2830  -14.6448 O   0  0  0  0  0  0  0  0  0  0  0  0
   21.4823   -4.3622  -13.6544 N   0  0  0  0  0  0  0  0  0  0  0  0
   22.1078   -5.4653  -14.2941 C   0  0  0  0  0  0  0  0  0  0  0  0
   23.3632   -5.5666  -14.0966 O   0  0  0  0  0  0  0  0  0  0  0  0
   21.2946   -6.3534  -15.0913 C   0  0  0  0  0  0  0  0  0  0  0  0
   19.8153   -6.1198  -15.1314 C   0  0  2  0  0  0  0  0  0  0  0  0
   19.0015   -6.9708  -15.8997 N   0  0  0  0  0  0  0  0  0  0  0  0
   19.5823   -4.6738  -15.2543 C   0  0  0  0  0  0  0  0  0  0  0  0
   20.0846   -3.8352  -14.4444 O   0  0  0  0  0  0  0  0  0  0  0  0
   18.5531   -2.1385  -17.7272 C   0  0  0  0  0  0  0  0  0  0  0  0
   18.4793   -2.6581  -16.2942 C   0  0  2  0  0  0  0  0  0  0  0  0
   18.7768   -4.0845  -16.2902 N   0  0  0  0  0  0  0  0  0  0  0  0
   17.1634   -2.3870  -15.6721 C   0  0  0  0  0  0  0  0  0  0  0  0
   16.3326   -3.3191  -15.5471 O   0  0  0  0  0  0  0  0  0  0  0  0
   16.7720   -1.1403  -15.2050 O   0  0  0  0  0  0  0  0  0  0  0  0
  2  1  1  6
  2  3  1  0
  2  4  1  0
  4  5  1  1
  6  4  1  0
  6 13  1  0
  7  6  2  0
  8  9  1  0
  9 10  2  0
 12 11  1  6
 11  9  1  0
 12 13  1  0
 12 14  1  0
 14 18  1  0
 15 14  2  0
 17 19  1  0
 17 16  1  6
 18 17  1  0
 19 21  1  0
 20 19  2  0
M  END
$$$$
