TNA.pdb
     RDKit          3D

 21 20  0  0  1  0  0  0  0  0999 V2000
   25.5464  -11.3962  -15.7995 C   0  0  0  0  0  0  0  0  0  0  0  0
   25.0644  -12.1595  -17.0131 C   0  0  1  0  0  0  0  0  0  0  0  0
   25.7465  -13.3712  -17.1117 O   0  0  0  0  0  0  0  0  0  0  0  0
   23.5731  -12.3799  -16.8371 C   0  0  2  0  0  0  0  0  0  0  0  0
   23.1489  -13.1629  -17.9794 N   0  0  0  0  0  0  0  0  0  0  0  0
   22.8319  -11.0705  -16.8886 C   0  0  0  0  0  0  0  0  0  0  0  0
   22.9419  -10.3857  -17.9148 O   0  0  0  0  0  0  0  0  0  0  0  0
   19.2440  -11.0570  -16.8227 N   0  0  0  0  0  0  0  0  0  0  0  0
   18.9287  -10.4437  -15.5810 C   0  0  0  0  0  0  0  0  0  0  0  0
   17.7642  -10.6995  -15.1296 O   0  0  0  0  0  0  0  0  0  0  0  0
   19.9231   -9.6061  -14.9523 C   0  0  0  0  0  0  0  0  0  0  0  0
   21.2660   -9.4837  -15.6050 C   0  0  2  0  0  0  0  0  0  0  0  0
   22.0410  -10.6381  -15.8140 N   0  0  0  0  0  0  0  0  0  0  0  0
   21.9458   -8.3098  -15.0394 C   0  0  0  0  0  0  0  0  0  0  0  0
   22.5668   -8.3539  -13.9331 O   0  0  0  0  0  0  0  0  0  0  0  0
   22.8495   -4.8085  -16.1601 C   0  0  0  0  0  0  0  0  0  0  0  0
   22.7310   -5.9142  -15.1151 C   0  0  2  0  0  0  0  0  0  0  0  0
   21.9711   -7.0219  -15.6796 N   0  0  0  0  0  0  0  0  0  0  0  0
   22.1125   -5.4289  -13.8605 C   0  0  0  0  0  0  0  0  0  0  0  0
   20.8826   -5.5911  -13.6722 O   0  0  0  0  0  0  0  0  0  0  0  0
   22.8158   -4.7886  -12.8500 O   0  0  0  0  0  0  0  0  0  0  0  0
  2  1  1  1
  2  3  1  0
  2  4  1  0
  4  5  1  6
  6  4  1  0
  6 13  1  0
  7  6  2  0
  8  9  1  0
  9 10  2  0
 12 11  1  1
 11  9  1  0
 12 13  1  0
 12 14  1  0
 14 18  1  0
 15 14  2  0
 17 19  1  0
 17 16  1  6
 18 17  1  0
 19 21  1  0
 20 19  2  0
M  END
$$$$
