TNA.pdb
     RDKit          3D

 21 20  0  0  1  0  0  0  0  0999 V2000
   25.1058  -11.4571  -16.0670 C   0  0  0  0  0  0  0  0  0  0  0  0
   24.7378  -12.8842  -15.7265 C   0  0  1  0  0  0  0  0  0  0  0  0
   23.4148  -12.9406  -15.2909 O   0  0  0  0  0  0  0  0  0  0  0  0
   24.9388  -13.7083  -16.9850 C   0  0  2  0  0  0  0  0  0  0  0  0
   24.5435  -15.0591  -16.6435 N   0  0  0  0  0  0  0  0  0  0  0  0
   26.3942  -13.7483  -17.3680 C   0  0  0  0  0  0  0  0  0  0  0  0
   26.9417  -14.8571  -17.4380 O   0  0  0  0  0  0  0  0  0  0  0  0
   30.6084  -12.0286  -19.9728 N   0  0  0  0  0  0  0  0  0  0  0  0
   29.5523  -12.7898  -20.5410 C   0  0  0  0  0  0  0  0  0  0  0  0
   29.8200  -13.3386  -21.6600 O   0  0  0  0  0  0  0  0  0  0  0  0
   28.3007  -12.8757  -19.8257 C   0  0  0  0  0  0  0  0  0  0  0  0
   28.2305  -12.3028  -18.4431 C   0  0  2  0  0  0  0  0  0  0  0  0
   27.1090  -12.5724  -17.6392 N   0  0  0  0  0  0  0  0  0  0  0  0
   28.7002  -10.9113  -18.4987 C   0  0  0  0  0  0  0  0  0  0  0  0
   28.0724  -10.0089  -19.1337 O   0  0  0  0  0  0  0  0  0  0  0  0
   31.4390   -8.8247  -16.9081 C   0  0  0  0  0  0  0  0  0  0  0  0
   30.2716   -9.0425  -17.8665 C   0  0  2  0  0  0  0  0  0  0  0  0
   29.8963  -10.4503  -17.8460 N   0  0  0  0  0  0  0  0  0  0  0  0
   30.5912   -8.5967  -19.2417 C   0  0  0  0  0  0  0  0  0  0  0  0
   31.0468   -9.4210  -20.0708 O   0  0  0  0  0  0  0  0  0  0  0  0
   30.4187   -7.2952  -19.6914 O   0  0  0  0  0  0  0  0  0  0  0  0
  2  1  1  6
  2  3  1  0
  2  4  1  0
  4  5  1  1
  6  4  1  0
  6 13  1  0
  7  6  2  0
  8  9  1  0
  9 10  2  0
 12 11  1  6
 11  9  1  0
 12 13  1  0
 12 14  1  0
 14 18  1  0
 15 14  2  0
 17 19  1  0
 17 16  1  1
 18 17  1  0
 19 21  1  0
 20 19  2  0
M  END
$$$$
