TNA.pdb
     RDKit          3D

 21 20  0  0  1  0  0  0  0  0999 V2000
   16.8044   -6.8787  -18.7146 C   0  0  0  0  0  0  0  0  0  0  0  0
   16.7706   -8.2629  -18.1057 C   0  0  1  0  0  0  0  0  0  0  0  0
   16.1137   -9.1421  -18.9651 O   0  0  0  0  0  0  0  0  0  0  0  0
   18.2108   -8.6857  -17.8809 C   0  0  2  0  0  0  0  0  0  0  0  0
   18.1566  -10.0631  -17.4366 N   0  0  0  0  0  0  0  0  0  0  0  0
   18.8353   -7.8797  -16.7733 C   0  0  0  0  0  0  0  0  0  0  0  0
   18.0781   -7.2639  -16.0107 O   0  0  0  0  0  0  0  0  0  0  0  0
   20.7628   -9.6939  -14.3749 N   0  0  0  0  0  0  0  0  0  0  0  0
   22.0796   -9.1761  -14.4992 C   0  0  0  0  0  0  0  0  0  0  0  0
   23.0010   -9.9158  -14.0205 O   0  0  0  0  0  0  0  0  0  0  0  0
   22.2599   -7.8934  -15.1376 C   0  0  0  0  0  0  0  0  0  0  0  0
   21.0497   -7.1843  -15.6641 C   0  0  2  0  0  0  0  0  0  0  0  0
   20.2269   -7.8270  -16.6057 N   0  0  0  0  0  0  0  0  0  0  0  0
   21.4177   -5.7872  -15.9339 C   0  0  0  0  0  0  0  0  0  0  0  0
   21.9604   -5.0477  -15.0563 O   0  0  0  0  0  0  0  0  0  0  0  0
   21.7359   -3.5236  -18.9336 C   0  0  0  0  0  0  0  0  0  0  0  0
   21.6405   -3.7692  -17.4305 C   0  0  2  0  0  0  0  0  0  0  0  0
   21.2015   -5.1394  -17.2000 N   0  0  0  0  0  0  0  0  0  0  0  0
   20.7378   -2.8022  -16.7657 C   0  0  0  0  0  0  0  0  0  0  0  0
   21.0571   -1.5897  -16.7146 O   0  0  0  0  0  0  0  0  0  0  0  0
   19.5301   -3.1510  -16.1779 O   0  0  0  0  0  0  0  0  0  0  0  0
  2  1  1  6
  2  3  1  0
  2  4  1  0
  4  5  1  1
  6  4  1  0
  6 13  1  0
  7  6  2  0
  8  9  1  0
  9 10  2  0
 12 11  1  6
 11  9  1  0
 12 13  1  0
 12 14  1  0
 14 18  1  0
 15 14  2  0
 17 19  1  0
 17 16  1  6
 18 17  1  0
 19 21  1  0
 20 19  2  0
M  END
$$$$
