TNA.pdb
     RDKit          3D

 21 20  0  0  1  0  0  0  0  0999 V2000
   15.0996   -7.4484  -15.1537 C   0  0  0  0  0  0  0  0  0  0  0  0
   14.8626   -8.7470  -14.4154 C   0  0  1  0  0  0  0  0  0  0  0  0
   13.5264   -9.1246  -14.5390 O   0  0  0  0  0  0  0  0  0  0  0  0
   15.7865   -9.7831  -15.0290 C   0  0  2  0  0  0  0  0  0  0  0  0
   15.5504  -11.0103  -14.2970 N   0  0  0  0  0  0  0  0  0  0  0  0
   17.2277   -9.4028  -14.8171 C   0  0  0  0  0  0  0  0  0  0  0  0
   17.7228   -9.6175  -13.7022 O   0  0  0  0  0  0  0  0  0  0  0  0
   22.0943   -7.6447  -18.2796 N   0  0  0  0  0  0  0  0  0  0  0  0
   21.5098   -8.3429  -17.1895 C   0  0  0  0  0  0  0  0  0  0  0  0
   22.3251   -8.7117  -16.2815 O   0  0  0  0  0  0  0  0  0  0  0  0
   20.0837   -8.5705  -17.2002 C   0  0  0  0  0  0  0  0  0  0  0  0
   19.3269   -8.4034  -15.9181 C   0  0  2  0  0  0  0  0  0  0  0  0
   17.9881   -8.8266  -15.8453 N   0  0  0  0  0  0  0  0  0  0  0  0
   19.6452   -7.0787  -15.3667 C   0  0  0  0  0  0  0  0  0  0  0  0
   19.0386   -6.0269  -15.7372 O   0  0  0  0  0  0  0  0  0  0  0  0
   21.9147   -5.6282  -12.6919 C   0  0  0  0  0  0  0  0  0  0  0  0
   20.9104   -5.5238  -13.8361 C   0  0  2  0  0  0  0  0  0  0  0  0
   20.6575   -6.8561  -14.3693 N   0  0  0  0  0  0  0  0  0  0  0  0
   21.3735   -4.6039  -14.8997 C   0  0  0  0  0  0  0  0  0  0  0  0
   21.1531   -3.3731  -14.7945 O   0  0  0  0  0  0  0  0  0  0  0  0
   22.0524   -5.0176  -16.0371 O   0  0  0  0  0  0  0  0  0  0  0  0
  2  1  1  6
  2  3  1  0
  2  4  1  0
  4  5  1  1
  6  4  1  0
  6 13  1  0
  7  6  2  0
  8  9  1  0
  9 10  2  0
 12 11  1  6
 11  9  1  0
 12 13  1  0
 12 14  1  0
 14 18  1  0
 15 14  2  0
 17 19  1  0
 17 16  1  1
 18 17  1  0
 19 21  1  0
 20 19  2  0
M  END
$$$$
