TNA.pdb
     RDKit          3D

 21 20  0  0  1  0  0  0  0  0999 V2000
   23.1557  -11.2652  -15.1509 C   0  0  0  0  0  0  0  0  0  0  0  0
   22.8914  -11.8737  -16.5102 C   0  0  1  0  0  0  0  0  0  0  0  0
   23.2223  -13.2278  -16.4949 O   0  0  0  0  0  0  0  0  0  0  0  0
   21.4176  -11.6704  -16.8101 C   0  0  2  0  0  0  0  0  0  0  0  0
   21.2018  -12.2167  -18.1340 N   0  0  0  0  0  0  0  0  0  0  0  0
   21.0839  -10.2035  -16.8686 C   0  0  0  0  0  0  0  0  0  0  0  0
   21.5049   -9.5545  -17.8359 O   0  0  0  0  0  0  0  0  0  0  0  0
   17.7550   -9.1688  -17.2423 N   0  0  0  0  0  0  0  0  0  0  0  0
   17.4351   -8.4980  -16.0319 C   0  0  0  0  0  0  0  0  0  0  0  0
   16.1908   -8.4249  -15.7645 O   0  0  0  0  0  0  0  0  0  0  0  0
   18.5133   -7.9698  -15.2294 C   0  0  0  0  0  0  0  0  0  0  0  0
   19.9216   -8.2581  -15.6513 C   0  0  2  0  0  0  0  0  0  0  0  0
   20.3207   -9.5892  -15.8649 N   0  0  0  0  0  0  0  0  0  0  0  0
   20.8208   -7.4039  -14.8626 C   0  0  0  0  0  0  0  0  0  0  0  0
   21.1411   -7.6803  -13.6657 O   0  0  0  0  0  0  0  0  0  0  0  0
   23.4964   -4.9459  -15.4338 C   0  0  0  0  0  0  0  0  0  0  0  0
   22.3370   -5.4117  -14.5575 C   0  0  2  0  0  0  0  0  0  0  0  0
   21.4136   -6.1947  -15.3681 N   0  0  0  0  0  0  0  0  0  0  0  0
   21.6432   -4.2780  -13.9054 C   0  0  0  0  0  0  0  0  0  0  0  0
   20.5255   -3.9042  -14.3362 O   0  0  0  0  0  0  0  0  0  0  0  0
   22.1556   -3.5790  -12.8216 O   0  0  0  0  0  0  0  0  0  0  0  0
  2  1  1  1
  2  3  1  0
  2  4  1  0
  4  5  1  6
  6  4  1  0
  6 13  1  0
  7  6  2  0
  8  9  1  0
  9 10  2  0
 12 11  1  1
 11  9  1  0
 12 13  1  0
 12 14  1  0
 14 18  1  0
 15 14  2  0
 17 19  1  0
 17 16  1  6
 18 17  1  0
 19 21  1  0
 20 19  2  0
M  END
$$$$
