TNA.pdb
     RDKit          3D

 21 20  0  0  1  0  0  0  0  0999 V2000
   15.3994  -24.8670   -6.8296 C   0  0  0  0  0  0  0  0  0  0  0  0
   16.4747  -24.7016   -5.7788 C   0  0  1  0  0  0  0  0  0  0  0  0
   15.9479  -24.9702   -4.5164 O   0  0  0  0  0  0  0  0  0  0  0  0
   17.5904  -25.6697   -6.1272 C   0  0  2  0  0  0  0  0  0  0  0  0
   18.6031  -25.4939   -5.1067 N   0  0  0  0  0  0  0  0  0  0  0  0
   18.2152  -25.3083   -7.4484 C   0  0  0  0  0  0  0  0  0  0  0  0
   18.9522  -24.3134   -7.4848 O   0  0  0  0  0  0  0  0  0  0  0  0
   19.6329  -25.9077  -12.4796 N   0  0  0  0  0  0  0  0  0  0  0  0
   18.7638  -26.9941  -12.1936 C   0  0  0  0  0  0  0  0  0  0  0  0
   18.6723  -27.8724  -13.1131 O   0  0  0  0  0  0  0  0  0  0  0  0
   18.0764  -27.0127  -10.9237 C   0  0  0  0  0  0  0  0  0  0  0  0
   18.3626  -25.9164   -9.9435 C   0  0  2  0  0  0  0  0  0  0  0  0
   17.9753  -26.0709   -8.6008 N   0  0  0  0  0  0  0  0  0  0  0  0
   18.0561  -24.6322  -10.5892 C   0  0  0  0  0  0  0  0  0  0  0  0
   16.9091  -24.0932  -10.5152 O   0  0  0  0  0  0  0  0  0  0  0  0
   19.8991  -21.9986  -12.6118 C   0  0  0  0  0  0  0  0  0  0  0  0
   18.6582  -22.6032  -11.9610 C   0  0  2  0  0  0  0  0  0  0  0  0
   19.0146  -23.8778  -11.3516 N   0  0  0  0  0  0  0  0  0  0  0  0
   17.5482  -22.7668  -12.9268 C   0  0  0  0  0  0  0  0  0  0  0  0
   17.4867  -23.8033  -13.6313 O   0  0  0  0  0  0  0  0  0  0  0  0
   16.5429  -21.8287  -13.1144 O   0  0  0  0  0  0  0  0  0  0  0  0
  2  1  1  6
  2  3  1  0
  2  4  1  0
  4  5  1  1
  6  4  1  0
  6 13  1  0
  7  6  2  0
  8  9  1  0
  9 10  2  0
 12 11  1  6
 11  9  1  0
 12 13  1  0
 12 14  1  0
 14 18  1  0
 15 14  2  0
 17 19  1  0
 17 16  1  6
 18 17  1  0
 19 21  1  0
 20 19  2  0
M  END
$$$$
