TNA.pdb
     RDKit          3D

 21 20  0  0  1  0  0  0  0  0999 V2000
   19.8541   -8.9120  -20.1517 C   0  0  0  0  0  0  0  0  0  0  0  0
   18.8500   -9.7321  -19.3725 C   0  0  1  0  0  0  0  0  0  0  0  0
   18.7056  -10.9874  -19.9611 O   0  0  0  0  0  0  0  0  0  0  0  0
   19.3744   -9.8466  -17.9529 C   0  0  2  0  0  0  0  0  0  0  0  0
   18.4382  -10.6997  -17.2503 N   0  0  0  0  0  0  0  0  0  0  0  0
   19.3602   -8.5047  -17.2705 C   0  0  0  0  0  0  0  0  0  0  0  0
   18.3243   -7.8300  -17.3468 O   0  0  0  0  0  0  0  0  0  0  0  0
   21.3348   -4.3191  -14.7056 N   0  0  0  0  0  0  0  0  0  0  0  0
   22.0092   -5.4664  -14.2092 C   0  0  0  0  0  0  0  0  0  0  0  0
   22.8073   -5.2493  -13.2391 O   0  0  0  0  0  0  0  0  0  0  0  0
   21.7433   -6.7446  -14.8263 C   0  0  0  0  0  0  0  0  0  0  0  0
   20.7745   -6.7957  -15.9680 C   0  0  2  0  0  0  0  0  0  0  0  0
   20.4791   -8.0318  -16.5693 N   0  0  0  0  0  0  0  0  0  0  0  0
   21.0576   -5.6632  -16.8610 C   0  0  0  0  0  0  0  0  0  0  0  0
   22.1212   -5.5933  -17.5505 O   0  0  0  0  0  0  0  0  0  0  0  0
   19.1245   -3.1019  -18.6860 C   0  0  0  0  0  0  0  0  0  0  0  0
   20.4374   -3.5140  -18.0261 C   0  0  2  0  0  0  0  0  0  0  0  0
   20.1670   -4.5471  -17.0347 N   0  0  0  0  0  0  0  0  0  0  0  0
   21.1384   -2.3614  -17.4162 C   0  0  0  0  0  0  0  0  0  0  0  0
   20.9883   -2.1201  -16.1940 O   0  0  0  0  0  0  0  0  0  0  0  0
   21.9725   -1.5041  -18.1200 O   0  0  0  0  0  0  0  0  0  0  0  0
  2  1  1  6
  2  3  1  0
  2  4  1  0
  4  5  1  1
  6  4  1  0
  6 13  1  0
  7  6  2  0
  8  9  1  0
  9 10  2  0
 12 11  1  1
 11  9  1  0
 12 13  1  0
 12 14  1  0
 14 18  1  0
 15 14  2  0
 17 19  1  0
 17 16  1  1
 18 17  1  0
 19 21  1  0
 20 19  2  0
M  END
$$$$
