MWY.pdb
     RDKit          3D

 35 37  0  0  1  0  0  0  0  0999 V2000
   27.1763  -24.4280  -19.0150 C   0  0  0  0  0  0  0  0  0  0  0  0
   26.5221  -22.7211  -19.0377 S   0  0  0  0  0  0  0  0  0  0  0  0
   27.3662  -21.7915  -17.7343 C   0  0  0  0  0  0  0  0  0  0  0  0
   26.4483  -21.8176  -16.5238 C   0  0  0  0  0  0  0  0  0  0  0  0
   27.2310  -22.2852  -15.2987 C   0  0  2  0  0  0  0  0  0  0  0  0
   27.5947  -23.7009  -15.4836 N   0  0  0  0  0  0  0  0  0  0  0  0
   26.2862  -22.2295  -14.1556 C   0  0  0  0  0  0  0  0  0  0  0  0
   25.4718  -23.1696  -13.9923 O   0  0  0  0  0  0  0  0  0  0  0  0
   26.2920  -21.1468  -13.2517 N   0  0  0  0  0  0  0  0  0  0  0  0
   25.2094  -21.2208  -12.1879 C   0  0  1  0  0  0  0  0  0  0  0  0
   25.7468  -20.3369  -11.1265 C   0  0  0  0  0  0  0  0  0  0  0  0
   26.9387  -20.8740  -10.4723 C   0  0  0  0  0  0  0  0  0  0  0  0
   27.9685  -21.6070  -11.0409 C   0  0  0  0  0  0  0  0  0  0  0  0
   28.8717  -21.8187  -10.0986 N   0  0  0  0  0  0  0  0  0  0  0  0
   28.4792  -21.2572   -8.9416 C   0  0  0  0  0  0  0  0  0  0  0  0
   29.0487  -21.1681   -7.6840 C   0  0  0  0  0  0  0  0  0  0  0  0
   28.3780  -20.4819   -6.6964 C   0  0  0  0  0  0  0  0  0  0  0  0
   27.1427  -19.8683   -6.9049 C   0  0  0  0  0  0  0  0  0  0  0  0
   26.5918  -19.9679   -8.1606 C   0  0  0  0  0  0  0  0  0  0  0  0
   27.2629  -20.6531   -9.1449 C   0  0  0  0  0  0  0  0  0  0  0  0
   23.9970  -20.7755  -12.8332 C   0  0  0  0  0  0  0  0  0  0  0  0
   24.1946  -20.0564  -13.9204 O   0  0  0  0  0  0  0  0  0  0  0  0
   17.9036  -24.5467  -10.1533 O   0  0  0  0  0  0  0  0  0  0  0  0
   18.6628  -23.8436  -11.0707 C   0  0  0  0  0  0  0  0  0  0  0  0
   18.2150  -22.6139  -11.4946 C   0  0  0  0  0  0  0  0  0  0  0  0
   18.9497  -21.8922  -12.4080 C   0  0  0  0  0  0  0  0  0  0  0  0
   20.1407  -22.3489  -12.9339 C   0  0  0  0  0  0  0  0  0  0  0  0
   20.8784  -21.5329  -13.8927 C   0  0  0  0  0  0  0  0  0  0  0  0
   21.5893  -20.3753  -13.2618 C   0  0  2  0  0  0  0  0  0  0  0  0
   22.6873  -20.9921  -12.4780 N   0  0  0  0  0  0  0  0  0  0  0  0
   20.7118  -19.5858  -12.3780 C   0  0  0  0  0  0  0  0  0  0  0  0
   19.6351  -18.8225  -12.7299 O   0  0  0  0  0  0  0  0  0  0  0  0
   20.5854  -23.5789  -12.5082 C   0  0  0  0  0  0  0  0  0  0  0  0
   19.8559  -24.3128  -11.5893 C   0  0  0  0  0  0  0  0  0  0  0  0
   20.9831  -19.6067  -11.1157 O   0  0  0  0  0  0  0  0  0  0  0  0
  2  1  1  0
  3  2  1  0
  4  3  1  0
  5  4  1  0
  5  6  1  6
  7  8  2  0
  7  5  1  0
  9  7  1  0
 10  9  1  0
 10 21  1  0
 10 11  1  1
 12 11  1  0
 13 12  2  0
 14 15  1  0
 14 13  1  0
 15 20  2  0
 16 17  2  0
 16 15  1  0
 17 18  1  0
 18 19  2  0
 20 19  1  0
 20 12  1  0
 21 30  1  0
 22 21  2  0
 23 24  1  0
 24 25  2  0
 24 34  1  0
 25 26  1  0
 26 27  2  0
 27 28  1  0
 29 28  1  1
 29 31  1  0
 30 29  1  0
 31 35  2  0
 31 32  1  0
 33 27  1  0
 34 33  2  0
M  END
$$$$
