MWY.pdb
     RDKit          3D

 35 37  0  0  1  0  0  0  0  0999 V2000
   29.4691  -23.8027  -16.9320 C   0  0  0  0  0  0  0  0  0  0  0  0
   29.4440  -22.2215  -17.8492 S   0  0  0  0  0  0  0  0  0  0  0  0
   29.2131  -20.8908  -16.6444 C   0  0  0  0  0  0  0  0  0  0  0  0
   28.4496  -21.4944  -15.4777 C   0  0  0  0  0  0  0  0  0  0  0  0
   27.8479  -20.3774  -14.6277 C   0  0  2  0  0  0  0  0  0  0  0  0
   28.9305  -19.4727  -14.2032 N   0  0  0  0  0  0  0  0  0  0  0  0
   27.3229  -21.0258  -13.4004 C   0  0  0  0  0  0  0  0  0  0  0  0
   26.4987  -21.9647  -13.5126 O   0  0  0  0  0  0  0  0  0  0  0  0
   27.7368  -20.6107  -12.1176 N   0  0  0  0  0  0  0  0  0  0  0  0
   26.9651  -21.2548  -10.9779 C   0  0  1  0  0  0  0  0  0  0  0  0
   27.8336  -20.9765   -9.8097 C   0  0  0  0  0  0  0  0  0  0  0  0
   27.0865  -20.6748   -8.5899 C   0  0  0  0  0  0  0  0  0  0  0  0
   25.7186  -20.7582   -8.3830 C   0  0  0  0  0  0  0  0  0  0  0  0
   25.4909  -20.4645   -7.1139 N   0  0  0  0  0  0  0  0  0  0  0  0
   26.6470  -20.1940   -6.4830 C   0  0  0  0  0  0  0  0  0  0  0  0
   26.9656  -19.8589   -5.1792 C   0  0  0  0  0  0  0  0  0  0  0  0
   28.2874  -19.6665   -4.8450 C   0  0  0  0  0  0  0  0  0  0  0  0
   29.3280  -19.7937   -5.7652 C   0  0  0  0  0  0  0  0  0  0  0  0
   28.9926  -20.1265   -7.0562 C   0  0  0  0  0  0  0  0  0  0  0  0
   27.6727  -20.3183   -7.3876 C   0  0  0  0  0  0  0  0  0  0  0  0
   25.6698  -20.6169  -10.9741 C   0  0  0  0  0  0  0  0  0  0  0  0
   25.7143  -19.3006  -10.9150 O   0  0  0  0  0  0  0  0  0  0  0  0
   19.8122  -17.0629  -15.7251 O   0  0  0  0  0  0  0  0  0  0  0  0
   20.7958  -17.8032  -15.0951 C   0  0  0  0  0  0  0  0  0  0  0  0
   20.6625  -18.0718  -13.7526 C   0  0  0  0  0  0  0  0  0  0  0  0
   21.6267  -18.8055  -13.0992 C   0  0  0  0  0  0  0  0  0  0  0  0
   22.7477  -19.2973  -13.7358 C   0  0  0  0  0  0  0  0  0  0  0  0
   23.7305  -20.0764  -12.9900 C   0  0  0  0  0  0  0  0  0  0  0  0
   23.2810  -20.4268  -11.6049 C   0  0  2  0  0  0  0  0  0  0  0  0
   24.4176  -21.1808  -11.0217 N   0  0  0  0  0  0  0  0  0  0  0  0
   22.0612  -21.2554  -11.5984 C   0  0  0  0  0  0  0  0  0  0  0  0
   20.8118  -20.9051  -11.1720 O   0  0  0  0  0  0  0  0  0  0  0  0
   22.8781  -19.0266  -15.0780 C   0  0  0  0  0  0  0  0  0  0  0  0
   21.9144  -18.2911  -15.7456 C   0  0  0  0  0  0  0  0  0  0  0  0
   22.1727  -22.4619  -12.0449 O   0  0  0  0  0  0  0  0  0  0  0  0
  2  1  1  0
  3  2  1  0
  4  3  1  0
  5  4  1  0
  5  6  1  1
  7  8  2  0
  7  5  1  0
  9  7  1  0
 10  9  1  0
 10 21  1  0
 10 11  1  1
 12 11  1  0
 13 12  2  0
 14 15  1  0
 14 13  1  0
 15 20  2  0
 16 17  2  0
 16 15  1  0
 17 18  1  0
 18 19  2  0
 20 19  1  0
 20 12  1  0
 21 30  1  0
 22 21  2  0
 23 24  1  0
 24 25  2  0
 24 34  1  0
 25 26  1  0
 26 27  2  0
 27 28  1  0
 29 28  1  6
 29 31  1  0
 30 29  1  0
 31 35  2  0
 31 32  1  0
 33 27  1  0
 34 33  2  0
M  END
$$$$
