MWY.pdb
     RDKit          3D

 35 37  0  0  1  0  0  0  0  0999 V2000
   25.8300  -23.4828  -19.0163 C   0  0  0  0  0  0  0  0  0  0  0  0
   26.8752  -21.9888  -18.8848 S   0  0  0  0  0  0  0  0  0  0  0  0
   28.3546  -22.4342  -17.9420 C   0  0  0  0  0  0  0  0  0  0  0  0
   27.9027  -22.6464  -16.5071 C   0  0  0  0  0  0  0  0  0  0  0  0
   27.4513  -21.3149  -15.9109 C   0  0  2  0  0  0  0  0  0  0  0  0
   28.6409  -20.4818  -15.6633 N   0  0  0  0  0  0  0  0  0  0  0  0
   26.8639  -21.6309  -14.5852 C   0  0  0  0  0  0  0  0  0  0  0  0
   25.9113  -22.4445  -14.5194 O   0  0  0  0  0  0  0  0  0  0  0  0
   27.3592  -21.0400  -13.4042 N   0  0  0  0  0  0  0  0  0  0  0  0
   26.6003  -21.4338  -12.1478 C   0  0  1  0  0  0  0  0  0  0  0  0
   27.5420  -21.0418  -11.0726 C   0  0  0  0  0  0  0  0  0  0  0  0
   26.8761  -20.6626   -9.8277 C   0  0  0  0  0  0  0  0  0  0  0  0
   25.5168  -20.5303   -9.5917 C   0  0  0  0  0  0  0  0  0  0  0  0
   25.3629  -20.2447   -8.3098 N   0  0  0  0  0  0  0  0  0  0  0  0
   26.5588  -20.1852   -7.6983 C   0  0  0  0  0  0  0  0  0  0  0  0
   26.9512  -19.9482   -6.3930 C   0  0  0  0  0  0  0  0  0  0  0  0
   28.2926  -19.9830   -6.0841 C   0  0  0  0  0  0  0  0  0  0  0  0
   29.2818  -20.2473   -7.0314 C   0  0  0  0  0  0  0  0  0  0  0  0
   28.8734  -20.4797   -8.3234 C   0  0  0  0  0  0  0  0  0  0  0  0
   27.5341  -20.4446   -8.6296 C   0  0  0  0  0  0  0  0  0  0  0  0
   25.3549  -20.7051  -12.1997 C   0  0  0  0  0  0  0  0  0  0  0  0
   25.4930  -19.3942  -12.1815 O   0  0  0  0  0  0  0  0  0  0  0  0
   22.2693  -22.8737  -18.0844 O   0  0  0  0  0  0  0  0  0  0  0  0
   22.4114  -22.0600  -16.9753 C   0  0  0  0  0  0  0  0  0  0  0  0
   23.6575  -21.5580  -16.6797 C   0  0  0  0  0  0  0  0  0  0  0  0
   23.8289  -20.7462  -15.5812 C   0  0  0  0  0  0  0  0  0  0  0  0
   22.7907  -20.4014  -14.7404 C   0  0  0  0  0  0  0  0  0  0  0  0
   23.0341  -19.5291  -13.5962 C   0  0  0  0  0  0  0  0  0  0  0  0
   22.9232  -20.2346  -12.2795 C   0  0  2  0  0  0  0  0  0  0  0  0
   24.0667  -21.1794  -12.2634 N   0  0  0  0  0  0  0  0  0  0  0  0
   21.6523  -20.9682  -12.1358 C   0  0  0  0  0  0  0  0  0  0  0  0
   21.4637  -22.3207  -12.1045 O   0  0  0  0  0  0  0  0  0  0  0  0
   21.5461  -20.9052  -15.0386 C   0  0  0  0  0  0  0  0  0  0  0  0
   21.3617  -21.7213  -16.1410 C   0  0  0  0  0  0  0  0  0  0  0  0
   20.5782  -20.2598  -12.0278 O   0  0  0  0  0  0  0  0  0  0  0  0
  2  1  1  0
  3  2  1  0
  4  3  1  0
  5  4  1  0
  5  6  1  1
  7  8  2  0
  7  5  1  0
  9  7  1  0
 10  9  1  0
 10 21  1  0
 10 11  1  1
 12 11  1  0
 13 12  2  0
 14 15  1  0
 14 13  1  0
 15 20  2  0
 16 17  2  0
 16 15  1  0
 17 18  1  0
 18 19  2  0
 20 19  1  0
 20 12  1  0
 21 30  1  0
 22 21  2  0
 23 24  1  0
 24 25  2  0
 24 34  1  0
 25 26  1  0
 26 27  2  0
 27 28  1  0
 29 28  1  6
 29 31  1  0
 30 29  1  0
 31 35  2  0
 31 32  1  0
 33 27  1  0
 34 33  2  0
M  END
$$$$
