MWY.pdb
     RDKit          3D

 35 37  0  0  1  0  0  0  0  0999 V2000
   30.9816  -30.8044   16.3343 C   0  0  0  0  0  0  0  0  0  0  0  0
   32.6502  -31.1674   15.6817 S   0  0  0  0  0  0  0  0  0  0  0  0
   32.9314  -30.0847   14.2588 C   0  0  0  0  0  0  0  0  0  0  0  0
   32.1056  -28.8326   14.5010 C   0  0  0  0  0  0  0  0  0  0  0  0
   32.2282  -27.8989   13.2988 C   0  0  2  0  0  0  0  0  0  0  0  0
   33.3864  -27.0124   13.5065 N   0  0  0  0  0  0  0  0  0  0  0  0
   31.0192  -27.0384   13.3158 C   0  0  0  0  0  0  0  0  0  0  0  0
   30.9102  -26.1588   14.2035 O   0  0  0  0  0  0  0  0  0  0  0  0
   29.9993  -27.1879   12.3531 N   0  0  0  0  0  0  0  0  0  0  0  0
   28.9194  -26.1210   12.4225 C   0  0  1  0  0  0  0  0  0  0  0  0
   29.6653  -24.8912   12.0654 C   0  0  0  0  0  0  0  0  0  0  0  0
   28.8115  -23.7118   11.9351 C   0  0  0  0  0  0  0  0  0  0  0  0
   27.8203  -23.2746   12.7997 C   0  0  0  0  0  0  0  0  0  0  0  0
   27.3589  -22.1291   12.3271 N   0  0  0  0  0  0  0  0  0  0  0  0
   28.0035  -21.7981   11.1945 C   0  0  0  0  0  0  0  0  0  0  0  0
   27.9234  -20.7189   10.3328 C   0  0  0  0  0  0  0  0  0  0  0  0
   28.7668  -20.6709    9.2454 C   0  0  0  0  0  0  0  0  0  0  0  0
   29.7044  -21.6661    8.9690 C   0  0  0  0  0  0  0  0  0  0  0  0
   29.7692  -22.7313    9.8358 C   0  0  0  0  0  0  0  0  0  0  0  0
   28.9267  -22.7771   10.9206 C   0  0  0  0  0  0  0  0  0  0  0  0
   27.8980  -26.5386   11.4913 C   0  0  0  0  0  0  0  0  0  0  0  0
   28.3624  -27.1139   10.3998 O   0  0  0  0  0  0  0  0  0  0  0  0
   25.5174  -32.4117   13.7371 O   0  0  0  0  0  0  0  0  0  0  0  0
   25.2470  -31.1870   13.1546 C   0  0  0  0  0  0  0  0  0  0  0  0
   25.4560  -31.0376   11.8033 C   0  0  0  0  0  0  0  0  0  0  0  0
   25.1963  -29.8294   11.1967 C   0  0  0  0  0  0  0  0  0  0  0  0
   24.7261  -28.7333   11.8904 C   0  0  0  0  0  0  0  0  0  0  0  0
   24.4613  -27.4815   11.1890 C   0  0  0  0  0  0  0  0  0  0  0  0
   25.6649  -26.9281   10.4900 C   0  0  2  0  0  0  0  0  0  0  0  0
   26.5318  -26.4211   11.5818 N   0  0  0  0  0  0  0  0  0  0  0  0
   25.3262  -25.8369    9.5580 C   0  0  0  0  0  0  0  0  0  0  0  0
   25.7240  -24.5314    9.6154 O   0  0  0  0  0  0  0  0  0  0  0  0
   24.5185  -28.8859   13.2415 C   0  0  0  0  0  0  0  0  0  0  0  0
   24.7748  -30.0963   13.8617 C   0  0  0  0  0  0  0  0  0  0  0  0
   24.5593  -26.1357    8.5631 O   0  0  0  0  0  0  0  0  0  0  0  0
  2  1  1  0
  3  2  1  0
  4  3  1  0
  5  4  1  0
  5  6  1  1
  7  8  2  0
  7  5  1  0
  9  7  1  0
 10  9  1  0
 10 21  1  0
 10 11  1  6
 12 11  1  0
 13 12  2  0
 14 15  1  0
 14 13  1  0
 15 20  2  0
 16 17  2  0
 16 15  1  0
 17 18  1  0
 18 19  2  0
 20 19  1  0
 20 12  1  0
 21 30  1  0
 22 21  2  0
 23 24  1  0
 24 25  2  0
 24 34  1  0
 25 26  1  0
 26 27  2  0
 27 28  1  0
 29 28  1  1
 29 31  1  0
 30 29  1  0
 31 35  2  0
 31 32  1  0
 33 27  1  0
 34 33  2  0
M  END
$$$$
