MWY.pdb
     RDKit          3D

 35 37  0  0  1  0  0  0  0  0999 V2000
   26.2484  -19.7595  -18.8569 C   0  0  0  0  0  0  0  0  0  0  0  0
   27.5321  -18.4896  -18.5714 S   0  0  0  0  0  0  0  0  0  0  0  0
   28.5735  -19.0584  -17.2048 C   0  0  0  0  0  0  0  0  0  0  0  0
   27.7150  -19.9931  -16.3696 C   0  0  0  0  0  0  0  0  0  0  0  0
   27.7688  -19.5648  -14.9048 C   0  0  2  0  0  0  0  0  0  0  0  0
   29.1641  -19.6504  -14.4395 N   0  0  0  0  0  0  0  0  0  0  0  0
   26.9990  -20.5815  -14.1459 C   0  0  0  0  0  0  0  0  0  0  0  0
   26.3531  -21.4524  -14.7768 O   0  0  0  0  0  0  0  0  0  0  0  0
   26.9861  -20.5891  -12.7355 N   0  0  0  0  0  0  0  0  0  0  0  0
   26.0797  -21.6474  -12.1290 C   0  0  1  0  0  0  0  0  0  0  0  0
   26.8524  -22.0842  -10.9421 C   0  0  0  0  0  0  0  0  0  0  0  0
   26.8283  -21.1174   -9.8459 C   0  0  0  0  0  0  0  0  0  0  0  0
   25.7475  -20.3917   -9.3701 C   0  0  0  0  0  0  0  0  0  0  0  0
   26.1649  -19.6984   -8.3244 N   0  0  0  0  0  0  0  0  0  0  0  0
   27.4679  -19.9386   -8.0953 C   0  0  0  0  0  0  0  0  0  0  0  0
   28.3645  -19.4974   -7.1387 C   0  0  0  0  0  0  0  0  0  0  0  0
   29.6582  -19.9679   -7.1713 C   0  0  0  0  0  0  0  0  0  0  0  0
   30.1111  -20.8743   -8.1301 C   0  0  0  0  0  0  0  0  0  0  0  0
   29.2063  -21.3010   -9.0731 C   0  0  0  0  0  0  0  0  0  0  0  0
   27.9156  -20.8303   -9.0387 C   0  0  0  0  0  0  0  0  0  0  0  0
   24.8265  -20.9817  -11.8625 C   0  0  0  0  0  0  0  0  0  0  0  0
   24.9521  -19.7403  -11.4369 O   0  0  0  0  0  0  0  0  0  0  0  0
   21.5706  -23.7961  -18.0892 O   0  0  0  0  0  0  0  0  0  0  0  0
   21.8874  -22.9111  -17.0750 C   0  0  0  0  0  0  0  0  0  0  0  0
   23.1726  -22.9011  -16.5845 C   0  0  0  0  0  0  0  0  0  0  0  0
   23.5162  -22.0315  -15.5742 C   0  0  0  0  0  0  0  0  0  0  0  0
   22.6169  -21.1478  -15.0138 C   0  0  0  0  0  0  0  0  0  0  0  0
   23.0442  -20.2440  -13.9508 C   0  0  0  0  0  0  0  0  0  0  0  0
   22.4925  -20.6078  -12.6066 C   0  0  2  0  0  0  0  0  0  0  0  0
   23.5420  -21.4539  -11.9876 N   0  0  0  0  0  0  0  0  0  0  0  0
   21.2236  -21.3533  -12.6986 C   0  0  0  0  0  0  0  0  0  0  0  0
   19.9677  -20.8507  -12.8877 O   0  0  0  0  0  0  0  0  0  0  0  0
   21.3328  -21.1605  -15.5062 C   0  0  0  0  0  0  0  0  0  0  0  0
   20.9762  -22.0296  -16.5226 C   0  0  0  0  0  0  0  0  0  0  0  0
   21.2917  -22.6378  -12.5860 O   0  0  0  0  0  0  0  0  0  0  0  0
  2  1  1  0
  3  2  1  0
  4  3  1  0
  5  4  1  0
  5  6  1  1
  7  8  2  0
  7  5  1  0
  9  7  1  0
 10  9  1  0
 10 21  1  0
 10 11  1  1
 12 11  1  0
 13 12  2  0
 14 15  1  0
 14 13  1  0
 15 20  2  0
 16 17  2  0
 16 15  1  0
 17 18  1  0
 18 19  2  0
 20 19  1  0
 20 12  1  0
 21 30  1  0
 22 21  2  0
 23 24  1  0
 24 25  2  0
 24 34  1  0
 25 26  1  0
 26 27  2  0
 27 28  1  0
 29 28  1  6
 29 31  1  0
 30 29  1  0
 31 35  2  0
 31 32  1  0
 33 27  1  0
 34 33  2  0
M  END
$$$$
