MWY.pdb
     RDKit          3D

 35 37  0  0  1  0  0  0  0  0999 V2000
   21.9498  -33.8692   -8.3285 C   0  0  0  0  0  0  0  0  0  0  0  0
   22.3727  -33.5276  -10.0738 S   0  0  0  0  0  0  0  0  0  0  0  0
   20.9434  -32.7225  -10.8383 C   0  0  0  0  0  0  0  0  0  0  0  0
   20.8981  -31.3088  -10.2834 C   0  0  0  0  0  0  0  0  0  0  0  0
   20.4764  -30.3401  -11.3860 C   0  0  2  0  0  0  0  0  0  0  0  0
   21.5664  -30.2454  -12.3727 N   0  0  0  0  0  0  0  0  0  0  0  0
   20.3592  -29.0066  -10.7453 C   0  0  0  0  0  0  0  0  0  0  0  0
   21.3926  -28.3127  -10.5896 O   0  0  0  0  0  0  0  0  0  0  0  0
   19.1122  -28.5065  -10.3161 N   0  0  0  0  0  0  0  0  0  0  0  0
   19.1152  -27.0200  -10.0003 C   0  0  1  0  0  0  0  0  0  0  0  0
   18.5661  -26.4304  -11.2442 C   0  0  0  0  0  0  0  0  0  0  0  0
   18.2831  -25.0006  -11.1331 C   0  0  0  0  0  0  0  0  0  0  0  0
   18.9204  -24.0628  -10.3359 C   0  0  0  0  0  0  0  0  0  0  0  0
   18.3889  -22.8833  -10.6093 N   0  0  0  0  0  0  0  0  0  0  0  0
   17.4348  -23.0078  -11.5484 C   0  0  0  0  0  0  0  0  0  0  0  0
   16.6058  -22.1054  -12.1904 C   0  0  0  0  0  0  0  0  0  0  0  0
   15.7317  -22.5689  -13.1481 C   0  0  0  0  0  0  0  0  0  0  0  0
   15.6414  -23.9146  -13.5041 C   0  0  0  0  0  0  0  0  0  0  0  0
   16.4723  -24.7969  -12.8552 C   0  0  0  0  0  0  0  0  0  0  0  0
   17.3441  -24.3322  -11.8997 C   0  0  0  0  0  0  0  0  0  0  0  0
   18.3052  -26.8714   -8.8143 C   0  0  0  0  0  0  0  0  0  0  0  0
   17.2654  -27.6803   -8.7635 O   0  0  0  0  0  0  0  0  0  0  0  0
   14.7781  -24.7395   -1.0014 O   0  0  0  0  0  0  0  0  0  0  0  0
   15.5976  -24.8904   -2.1050 C   0  0  0  0  0  0  0  0  0  0  0  0
   15.5648  -23.9293   -3.0886 C   0  0  0  0  0  0  0  0  0  0  0  0
   16.3689  -24.0540   -4.1989 C   0  0  0  0  0  0  0  0  0  0  0  0
   17.2271  -25.1189   -4.3816 C   0  0  0  0  0  0  0  0  0  0  0  0
   18.0613  -25.1902   -5.5766 C   0  0  0  0  0  0  0  0  0  0  0  0
   17.4060  -25.9113   -6.7142 C   0  0  2  0  0  0  0  0  0  0  0  0
   18.4635  -26.0180   -7.7489 N   0  0  0  0  0  0  0  0  0  0  0  0
   16.2399  -25.1841   -7.2486 C   0  0  0  0  0  0  0  0  0  0  0  0
   14.9197  -25.3945   -6.9680 O   0  0  0  0  0  0  0  0  0  0  0  0
   17.2573  -26.0783   -3.3965 C   0  0  0  0  0  0  0  0  0  0  0  0
   16.4542  -25.9627   -2.2753 C   0  0  0  0  0  0  0  0  0  0  0  0
   16.4797  -24.2315   -8.0867 O   0  0  0  0  0  0  0  0  0  0  0  0
  2  1  1  0
  3  2  1  0
  4  3  1  0
  5  4  1  0
  5  6  1  6
  7  8  2  0
  7  5  1  0
  9  7  1  0
 10  9  1  0
 10 21  1  0
 10 11  1  6
 12 11  1  0
 13 12  2  0
 14 15  1  0
 14 13  1  0
 15 20  2  0
 16 17  2  0
 16 15  1  0
 17 18  1  0
 18 19  2  0
 20 19  1  0
 20 12  1  0
 21 30  1  0
 22 21  2  0
 23 24  1  0
 24 25  2  0
 24 34  1  0
 25 26  1  0
 26 27  2  0
 27 28  1  0
 29 28  1  1
 29 31  1  0
 30 29  1  0
 31 35  2  0
 31 32  1  0
 33 27  1  0
 34 33  2  0
M  END
$$$$
