MWY.pdb
     RDKit          3D

 35 37  0  0  1  0  0  0  0  0999 V2000
   25.9236  -18.0190  -17.3503 C   0  0  0  0  0  0  0  0  0  0  0  0
   27.6499  -17.7023  -17.8619 S   0  0  0  0  0  0  0  0  0  0  0  0
   28.6721  -19.0449  -17.2076 C   0  0  0  0  0  0  0  0  0  0  0  0
   27.8515  -19.7210  -16.1223 C   0  0  0  0  0  0  0  0  0  0  0  0
   28.6708  -20.8409  -15.4847 C   0  0  2  0  0  0  0  0  0  0  0  0
   28.7599  -21.9611  -16.4375 N   0  0  0  0  0  0  0  0  0  0  0  0
   27.8817  -21.3246  -14.3246 C   0  0  0  0  0  0  0  0  0  0  0  0
   27.0014  -22.1990  -14.5089 O   0  0  0  0  0  0  0  0  0  0  0  0
   28.1073  -20.8250  -13.0251 N   0  0  0  0  0  0  0  0  0  0  0  0
   27.1800  -21.4026  -11.9687 C   0  0  1  0  0  0  0  0  0  0  0  0
   27.9247  -21.1389  -10.7147 C   0  0  0  0  0  0  0  0  0  0  0  0
   27.0585  -20.8165   -9.5822 C   0  0  0  0  0  0  0  0  0  0  0  0
   25.6741  -20.8575   -9.5263 C   0  0  0  0  0  0  0  0  0  0  0  0
   25.3183  -20.5596   -8.2881 N   0  0  0  0  0  0  0  0  0  0  0  0
   26.4063  -20.3268   -7.5332 C   0  0  0  0  0  0  0  0  0  0  0  0
   26.5906  -20.0047   -6.2006 C   0  0  0  0  0  0  0  0  0  0  0  0
   27.8734  -19.8544   -5.7230 C   0  0  0  0  0  0  0  0  0  0  0  0
   29.0039  -20.0122   -6.5247 C   0  0  0  0  0  0  0  0  0  0  0  0
   28.8014  -20.3315   -7.8465 C   0  0  0  0  0  0  0  0  0  0  0  0
   27.5204  -20.4812   -8.3211 C   0  0  0  0  0  0  0  0  0  0  0  0
   25.9271  -20.7019  -12.1240 C   0  0  0  0  0  0  0  0  0  0  0  0
   26.0496  -19.3961  -12.2580 O   0  0  0  0  0  0  0  0  0  0  0  0
   21.8989  -23.3080  -17.5993 O   0  0  0  0  0  0  0  0  0  0  0  0
   22.3489  -22.4289  -16.6313 C   0  0  0  0  0  0  0  0  0  0  0  0
   21.4233  -21.7614  -15.8634 C   0  0  0  0  0  0  0  0  0  0  0  0
   21.8424  -20.8795  -14.8930 C   0  0  0  0  0  0  0  0  0  0  0  0
   23.1752  -20.6234  -14.6445 C   0  0  0  0  0  0  0  0  0  0  0  0
   23.5570  -19.6838  -13.5954 C   0  0  0  0  0  0  0  0  0  0  0  0
   23.4885  -20.2723  -12.2197 C   0  0  2  0  0  0  0  0  0  0  0  0
   24.6458  -21.1977  -12.1502 N   0  0  0  0  0  0  0  0  0  0  0  0
   22.2323  -21.0064  -11.9800 C   0  0  0  0  0  0  0  0  0  0  0  0
   20.9763  -20.4915  -11.8276 O   0  0  0  0  0  0  0  0  0  0  0  0
   24.0982  -21.2922  -15.4142 C   0  0  0  0  0  0  0  0  0  0  0  0
   23.6884  -22.1821  -16.3918 C   0  0  0  0  0  0  0  0  0  0  0  0
   22.3139  -22.2925  -11.8995 O   0  0  0  0  0  0  0  0  0  0  0  0
  2  1  1  0
  3  2  1  0
  4  3  1  0
  5  4  1  0
  5  6  1  6
  7  8  2  0
  7  5  1  0
  9  7  1  0
 10  9  1  0
 10 21  1  0
 10 11  1  1
 12 11  1  0
 13 12  2  0
 14 15  1  0
 14 13  1  0
 15 20  2  0
 16 17  2  0
 16 15  1  0
 17 18  1  0
 18 19  2  0
 20 19  1  0
 20 12  1  0
 21 30  1  0
 22 21  2  0
 23 24  1  0
 24 25  2  0
 24 34  1  0
 25 26  1  0
 26 27  2  0
 27 28  1  0
 29 28  1  6
 29 31  1  0
 30 29  1  0
 31 35  2  0
 31 32  1  0
 33 27  1  0
 34 33  2  0
M  END
$$$$
