MWY.pdb
     RDKit          3D

 35 37  0  0  1  0  0  0  0  0999 V2000
   28.6817  -24.3339  -20.0189 C   0  0  0  0  0  0  0  0  0  0  0  0
   27.6474  -24.1762  -18.5198 S   0  0  0  0  0  0  0  0  0  0  0  0
   28.6972  -23.5341  -17.1928 C   0  0  0  0  0  0  0  0  0  0  0  0
   27.8273  -23.4698  -15.9488 C   0  0  0  0  0  0  0  0  0  0  0  0
   26.6732  -22.4972  -16.1818 C   0  0  2  0  0  0  0  0  0  0  0  0
   27.2228  -21.1371  -16.3175 N   0  0  0  0  0  0  0  0  0  0  0  0
   25.8608  -22.5111  -14.9398 C   0  0  0  0  0  0  0  0  0  0  0  0
   25.4744  -23.6111  -14.4771 O   0  0  0  0  0  0  0  0  0  0  0  0
   25.5228  -21.3159  -14.2716 N   0  0  0  0  0  0  0  0  0  0  0  0
   24.6987  -21.5213  -13.0114 C   0  0  1  0  0  0  0  0  0  0  0  0
   25.1395  -20.3935  -12.1569 C   0  0  0  0  0  0  0  0  0  0  0  0
   26.3893  -20.6578  -11.4463 C   0  0  0  0  0  0  0  0  0  0  0  0
   27.6342  -20.9439  -11.9843 C   0  0  0  0  0  0  0  0  0  0  0  0
   28.4885  -21.0374  -10.9794 N   0  0  0  0  0  0  0  0  0  0  0  0
   27.8588  -20.8249   -9.8105 C   0  0  0  0  0  0  0  0  0  0  0  0
   28.2806  -20.7888   -8.4935 C   0  0  0  0  0  0  0  0  0  0  0  0
   27.3607  -20.5124   -7.5069 C   0  0  0  0  0  0  0  0  0  0  0  0
   26.0140  -20.2657   -7.7741 C   0  0  0  0  0  0  0  0  0  0  0  0
   25.6128  -20.3065   -9.0884 C   0  0  0  0  0  0  0  0  0  0  0  0
   26.5327  -20.5824  -10.0716 C   0  0  0  0  0  0  0  0  0  0  0  0
   23.3196  -21.4949  -13.4384 C   0  0  0  0  0  0  0  0  0  0  0  0
   23.0048  -20.4583  -14.1895 O   0  0  0  0  0  0  0  0  0  0  0  0
   14.8810  -22.8684  -15.4662 O   0  0  0  0  0  0  0  0  0  0  0  0
   16.1951  -23.0044  -15.0576 C   0  0  0  0  0  0  0  0  0  0  0  0
   17.1982  -22.6599  -15.9336 C   0  0  0  0  0  0  0  0  0  0  0  0
   18.5155  -22.7859  -15.5544 C   0  0  0  0  0  0  0  0  0  0  0  0
   18.8917  -23.2515  -14.3112 C   0  0  0  0  0  0  0  0  0  0  0  0
   20.3055  -23.3541  -13.9649 C   0  0  0  0  0  0  0  0  0  0  0  0
   20.9067  -22.0505  -13.5375 C   0  0  2  0  0  0  0  0  0  0  0  0
   22.3058  -22.3843  -13.1748 N   0  0  0  0  0  0  0  0  0  0  0  0
   20.2075  -21.4562  -12.3832 C   0  0  0  0  0  0  0  0  0  0  0  0
   20.4307  -21.6907  -11.0562 O   0  0  0  0  0  0  0  0  0  0  0  0
   17.8864  -23.5953  -13.4378 C   0  0  0  0  0  0  0  0  0  0  0  0
   16.5585  -23.4716  -13.8077 C   0  0  0  0  0  0  0  0  0  0  0  0
   19.2658  -20.6118  -12.6425 O   0  0  0  0  0  0  0  0  0  0  0  0
  2  1  1  0
  3  2  1  0
  4  3  1  0
  5  4  1  0
  5  6  1  1
  7  8  2  0
  7  5  1  0
  9  7  1  0
 10  9  1  0
 10 21  1  0
 10 11  1  1
 12 11  1  0
 13 12  2  0
 14 15  1  0
 14 13  1  0
 15 20  2  0
 16 17  2  0
 16 15  1  0
 17 18  1  0
 18 19  2  0
 20 19  1  0
 20 12  1  0
 21 30  1  0
 22 21  2  0
 23 24  1  0
 24 25  2  0
 24 34  1  0
 25 26  1  0
 26 27  2  0
 27 28  1  0
 29 28  1  1
 29 31  1  0
 30 29  1  0
 31 35  2  0
 31 32  1  0
 33 27  1  0
 34 33  2  0
M  END
$$$$
