MWY.pdb
     RDKit          3D

 35 37  0  0  1  0  0  0  0  0999 V2000
   24.9197  -26.4536  -18.9360 C   0  0  0  0  0  0  0  0  0  0  0  0
   26.1824  -25.3121  -18.2691 S   0  0  0  0  0  0  0  0  0  0  0  0
   27.4810  -25.1389  -19.5178 C   0  0  0  0  0  0  0  0  0  0  0  0
   28.4756  -24.1309  -18.9674 C   0  0  0  0  0  0  0  0  0  0  0  0
   28.1915  -22.7542  -19.5641 C   0  0  2  0  0  0  0  0  0  0  0  0
   29.2239  -22.4548  -20.5717 N   0  0  0  0  0  0  0  0  0  0  0  0
   28.3711  -21.7779  -18.4610 C   0  0  0  0  0  0  0  0  0  0  0  0
   29.4828  -21.2137  -18.3219 O   0  0  0  0  0  0  0  0  0  0  0  0
   27.3176  -21.4708  -17.5749 N   0  0  0  0  0  0  0  0  0  0  0  0
   27.6064  -20.3009  -16.6491 C   0  0  1  0  0  0  0  0  0  0  0  0
   26.9237  -19.1781  -17.3344 C   0  0  0  0  0  0  0  0  0  0  0  0
   26.7611  -17.9957  -16.4904 C   0  0  0  0  0  0  0  0  0  0  0  0
   27.7387  -17.3001  -15.7965 C   0  0  0  0  0  0  0  0  0  0  0  0
   27.1561  -16.2578  -15.2285 N   0  0  0  0  0  0  0  0  0  0  0  0
   25.8437  -16.2406  -15.5202 C   0  0  0  0  0  0  0  0  0  0  0  0
   24.8082  -15.3796  -15.2038 C   0  0  0  0  0  0  0  0  0  0  0  0
   23.5494  -15.6425  -15.6962 C   0  0  0  0  0  0  0  0  0  0  0  0
   23.2665  -16.7438  -16.5042 C   0  0  0  0  0  0  0  0  0  0  0  0
   24.3076  -17.5888  -16.8077 C   0  0  0  0  0  0  0  0  0  0  0  0
   25.5632  -17.3245  -16.3153 C   0  0  0  0  0  0  0  0  0  0  0  0
   27.0722  -20.6802  -15.3625 C   0  0  0  0  0  0  0  0  0  0  0  0
   25.9892  -21.4295  -15.4250 O   0  0  0  0  0  0  0  0  0  0  0  0
   24.7289  -20.4542   -6.8444 O   0  0  0  0  0  0  0  0  0  0  0  0
   25.4105  -20.3620   -8.0441 C   0  0  0  0  0  0  0  0  0  0  0  0
   25.8958  -21.5139   -8.6183 C   0  0  0  0  0  0  0  0  0  0  0  0
   26.5790  -21.4523   -9.8118 C   0  0  0  0  0  0  0  0  0  0  0  0
   26.8086  -20.2663  -10.4785 C   0  0  0  0  0  0  0  0  0  0  0  0
   27.5322  -20.2669  -11.7456 C   0  0  0  0  0  0  0  0  0  0  0  0
   26.6754  -20.6382  -12.9167 C   0  0  2  0  0  0  0  0  0  0  0  0
   27.5267  -20.3736  -14.1024 N   0  0  0  0  0  0  0  0  0  0  0  0
   25.4377  -19.8400  -12.9881 C   0  0  0  0  0  0  0  0  0  0  0  0
   24.1800  -20.2066  -12.6012 O   0  0  0  0  0  0  0  0  0  0  0  0
   26.3223  -19.1163   -9.9016 C   0  0  0  0  0  0  0  0  0  0  0  0
   25.6328  -19.1664   -8.7026 C   0  0  0  0  0  0  0  0  0  0  0  0
   25.5386  -18.6485  -13.4755 O   0  0  0  0  0  0  0  0  0  0  0  0
  2  1  1  0
  3  2  1  0
  4  3  1  0
  5  4  1  0
  5  6  1  6
  7  8  2  0
  7  5  1  0
  9  7  1  0
 10  9  1  0
 10 21  1  0
 10 11  1  6
 12 11  1  0
 13 12  2  0
 14 15  1  0
 14 13  1  0
 15 20  2  0
 16 17  2  0
 16 15  1  0
 17 18  1  0
 18 19  2  0
 20 19  1  0
 20 12  1  0
 21 30  1  0
 22 21  2  0
 23 24  1  0
 24 25  2  0
 24 34  1  0
 25 26  1  0
 26 27  2  0
 27 28  1  0
 29 28  1  1
 29 31  1  0
 30 29  1  0
 31 35  2  0
 31 32  1  0
 33 27  1  0
 34 33  2  0
M  END
$$$$
