YVL.pdb
     RDKit          3D

 28 28  0  0  1  0  0  0  0  0999 V2000
   10.8106  -24.6259   20.4545 O   0  0  0  0  0  0  0  0  0  0  0  0
   10.7435  -23.2762   20.8113 C   0  0  0  0  0  0  0  0  0  0  0  0
    9.5538  -22.5806   20.7959 C   0  0  0  0  0  0  0  0  0  0  0  0
    9.4901  -21.2489   21.1484 C   0  0  0  0  0  0  0  0  0  0  0  0
   10.6181  -20.5446   21.5354 C   0  0  0  0  0  0  0  0  0  0  0  0
   10.5310  -19.1022   21.9095 C   0  0  0  0  0  0  0  0  0  0  0  0
   10.3326  -18.2344   20.6843 C   0  0  2  0  0  0  0  0  0  0  0  0
   11.4241  -18.3368   19.7637 N   0  0  0  0  0  0  0  0  0  0  0  0
   10.0898  -16.8296   21.0211 C   0  0  0  0  0  0  0  0  0  0  0  0
   11.0674  -16.0713   21.2362 O   0  0  0  0  0  0  0  0  0  0  0  0
   11.8045  -21.2489   21.5478 C   0  0  0  0  0  0  0  0  0  0  0  0
   11.8719  -22.5832   21.1952 C   0  0  0  0  0  0  0  0  0  0  0  0
    7.3687  -12.7655   21.2598 C   0  0  0  0  0  0  0  0  0  0  0  0
    7.4865  -14.1987   20.7929 C   0  0  1  0  0  0  0  0  0  0  0  0
    7.7613  -14.1978   19.3252 C   0  0  0  0  0  0  0  0  0  0  0  0
    8.5909  -14.8923   21.5864 C   0  0  2  0  0  0  0  0  0  0  0  0
    8.7718  -16.2498   21.1208 N   0  0  0  0  0  0  0  0  0  0  0  0
    8.3757  -14.7674   23.0348 C   0  0  0  0  0  0  0  0  0  0  0  0
    7.4331  -15.4108   23.5923 O   0  0  0  0  0  0  0  0  0  0  0  0
    7.5500  -11.5541   27.3336 C   0  0  0  0  0  0  0  0  0  0  0  0
    6.8997  -12.7589   26.6779 C   0  0  1  0  0  0  0  0  0  0  0  0
    5.4205  -12.4119   26.5311 C   0  0  0  0  0  0  0  0  0  0  0  0
    7.4201  -13.0054   25.2991 C   0  0  0  0  0  0  0  0  0  0  0  0
    8.7348  -13.7075   25.2729 C   0  0  2  0  0  0  0  0  0  0  0  0
    9.1706  -13.9554   23.8865 N   0  0  0  0  0  0  0  0  0  0  0  0
    8.7995  -14.9535   26.0644 C   0  0  0  0  0  0  0  0  0  0  0  0
    9.1557  -16.1955   25.5724 O   0  0  0  0  0  0  0  0  0  0  0  0
    8.5119  -14.9021   27.2832 O   0  0  0  0  0  0  0  0  0  0  0  0
  2  1  1  0
  3  2  2  0
  4  3  1  0
  5 11  1  0
  5  4  2  0
  6  7  1  0
  6  5  1  0
  7  8  1  6
  7  9  1  0
  9 10  2  0
 11 12  2  0
 12  2  1  0
 14 16  1  0
 14 13  1  1
 15 14  1  0
 17  9  1  0
 16 17  1  6
 18 16  1  0
 18 19  2  0
 21 20  1  6
 21 23  1  0
 21 22  1  0
 24 23  1  6
 24 26  1  0
 24 25  1  0
 25 18  1  0
 26 27  1  0
 28 26  2  0
M  END
$$$$
