YVL.pdb
     RDKit          3D

 28 28  0  0  1  0  0  0  0  0999 V2000
    6.3168  -23.5041   29.2852 O   0  0  0  0  0  0  0  0  0  0  0  0
    6.6037  -22.4059   28.4695 C   0  0  0  0  0  0  0  0  0  0  0  0
    5.6067  -21.6083   27.9506 C   0  0  0  0  0  0  0  0  0  0  0  0
    5.8922  -20.5253   27.1460 C   0  0  0  0  0  0  0  0  0  0  0  0
    7.1946  -20.1854   26.8197 C   0  0  0  0  0  0  0  0  0  0  0  0
    7.4846  -19.0120   25.9438 C   0  0  0  0  0  0  0  0  0  0  0  0
    6.9047  -19.2116   24.5590 C   0  0  2  0  0  0  0  0  0  0  0  0
    7.1800  -20.5162   24.0378 N   0  0  0  0  0  0  0  0  0  0  0  0
    7.3469  -18.1878   23.6092 C   0  0  0  0  0  0  0  0  0  0  0  0
    8.2130  -18.4809   22.7485 O   0  0  0  0  0  0  0  0  0  0  0  0
    8.1860  -20.9894   27.3435 C   0  0  0  0  0  0  0  0  0  0  0  0
    7.9035  -22.0753   28.1500 C   0  0  0  0  0  0  0  0  0  0  0  0
    7.6747  -13.6115   21.8604 C   0  0  0  0  0  0  0  0  0  0  0  0
    6.7849  -14.6993   22.4180 C   0  0  1  0  0  0  0  0  0  0  0  0
    5.9951  -15.2873   21.2955 C   0  0  0  0  0  0  0  0  0  0  0  0
    7.6518  -15.7407   23.1213 C   0  0  2  0  0  0  0  0  0  0  0  0
    6.8380  -16.8373   23.5983 N   0  0  0  0  0  0  0  0  0  0  0  0
    8.5101  -15.1275   24.1445 C   0  0  0  0  0  0  0  0  0  0  0  0
    8.6808  -13.8689   24.1558 O   0  0  0  0  0  0  0  0  0  0  0  0
    9.1284  -12.6605   26.5852 C   0  0  0  0  0  0  0  0  0  0  0  0
    8.6786  -13.6745   27.6214 C   0  0  1  0  0  0  0  0  0  0  0  0
    7.1860  -13.8873   27.3829 C   0  0  0  0  0  0  0  0  0  0  0  0
    9.3350  -15.0041   27.4379 C   0  0  0  0  0  0  0  0  0  0  0  0
   10.0338  -15.1504   26.1293 C   0  0  2  0  0  0  0  0  0  0  0  0
    9.1840  -15.8611   25.1565 N   0  0  0  0  0  0  0  0  0  0  0  0
   11.3724  -15.7725   26.1961 C   0  0  0  0  0  0  0  0  0  0  0  0
   11.6425  -17.1124   25.9885 O   0  0  0  0  0  0  0  0  0  0  0  0
   12.3568  -15.0435   26.4610 O   0  0  0  0  0  0  0  0  0  0  0  0
  2  1  1  0
  3  2  2  0
  4  3  1  0
  5 11  1  0
  5  4  2  0
  6  7  1  0
  6  5  1  0
  7  8  1  6
  7  9  1  0
  9 10  2  0
 11 12  2  0
 12  2  1  0
 14 16  1  0
 14 13  1  6
 15 14  1  0
 17  9  1  0
 16 17  1  1
 18 16  1  0
 18 19  2  0
 21 20  1  6
 21 23  1  0
 21 22  1  0
 24 23  1  1
 24 26  1  0
 24 25  1  0
 25 18  1  0
 26 27  1  0
 28 26  2  0
M  END
$$$$
