YVL.pdb
     RDKit          3D

 28 28  0  0  1  0  0  0  0  0999 V2000
   16.9268  -19.6230   18.1397 O   0  0  0  0  0  0  0  0  0  0  0  0
   16.0966  -18.6789   18.7504 C   0  0  0  0  0  0  0  0  0  0  0  0
   14.7719  -18.9458   19.0213 C   0  0  0  0  0  0  0  0  0  0  0  0
   13.9547  -18.0126   19.6240 C   0  0  0  0  0  0  0  0  0  0  0  0
   14.4246  -16.7613   19.9870 C   0  0  0  0  0  0  0  0  0  0  0  0
   13.5244  -15.7622   20.6346 C   0  0  0  0  0  0  0  0  0  0  0  0
   12.5232  -15.2094   19.6418 C   0  0  2  0  0  0  0  0  0  0  0  0
   13.1371  -14.3579   18.6684 N   0  0  0  0  0  0  0  0  0  0  0  0
   11.4119  -14.5101   20.2912 C   0  0  0  0  0  0  0  0  0  0  0  0
   11.5680  -13.3214   20.6649 O   0  0  0  0  0  0  0  0  0  0  0  0
   15.7517  -16.5030   19.7121 C   0  0  0  0  0  0  0  0  0  0  0  0
   16.5733  -17.4356   19.1083 C   0  0  0  0  0  0  0  0  0  0  0  0
    6.6060  -13.9220   21.1072 C   0  0  0  0  0  0  0  0  0  0  0  0
    7.7345  -14.6192   20.3816 C   0  0  1  0  0  0  0  0  0  0  0  0
    7.7675  -14.1269   18.9723 C   0  0  0  0  0  0  0  0  0  0  0  0
    9.0437  -14.3480   21.1186 C   0  0  2  0  0  0  0  0  0  0  0  0
   10.1222  -15.1121   20.5311 N   0  0  0  0  0  0  0  0  0  0  0  0
    8.8927  -14.5214   22.5701 C   0  0  0  0  0  0  0  0  0  0  0  0
    9.2572  -15.6073   23.1189 O   0  0  0  0  0  0  0  0  0  0  0  0
    8.2566  -12.7260   27.7916 C   0  0  0  0  0  0  0  0  0  0  0  0
    7.0480  -13.1432   26.9734 C   0  0  1  0  0  0  0  0  0  0  0  0
    5.9025  -12.2399   27.4225 C   0  0  0  0  0  0  0  0  0  0  0  0
    7.2387  -12.8976   25.5120 C   0  0  0  0  0  0  0  0  0  0  0  0
    8.2297  -13.8119   24.8763 C   0  0  2  0  0  0  0  0  0  0  0  0
    8.3534  -13.5319   23.4341 N   0  0  0  0  0  0  0  0  0  0  0  0
    7.9936  -15.2527   25.1034 C   0  0  0  0  0  0  0  0  0  0  0  0
    8.7306  -16.0598   25.9502 O   0  0  0  0  0  0  0  0  0  0  0  0
    7.0534  -15.8079   24.4882 O   0  0  0  0  0  0  0  0  0  0  0  0
  2  1  1  0
  3  2  2  0
  4  3  1  0
  5 11  1  0
  5  4  2  0
  6  7  1  0
  6  5  1  0
  7  8  1  6
  7  9  1  0
  9 10  2  0
 11 12  2  0
 12  2  1  0
 14 16  1  0
 14 13  1  1
 15 14  1  0
 17  9  1  0
 16 17  1  6
 18 16  1  0
 18 19  2  0
 21 20  1  1
 21 23  1  0
 21 22  1  0
 24 23  1  6
 24 26  1  0
 24 25  1  0
 25 18  1  0
 26 27  1  0
 28 26  2  0
M  END
$$$$
