YVL.pdb
     RDKit          3D

 28 28  0  0  1  0  0  0  0  0999 V2000
    8.7424  -12.2473   27.2010 O   0  0  0  0  0  0  0  0  0  0  0  0
    8.0546  -13.4363   26.9427 C   0  0  0  0  0  0  0  0  0  0  0  0
    6.6988  -13.5517   27.1614 C   0  0  0  0  0  0  0  0  0  0  0  0
    6.0223  -14.7259   26.9058 C   0  0  0  0  0  0  0  0  0  0  0  0
    6.6716  -15.8472   26.4167 C   0  0  0  0  0  0  0  0  0  0  0  0
    5.9238  -17.1112   26.1499 C   0  0  0  0  0  0  0  0  0  0  0  0
    5.6422  -17.2737   24.6707 C   0  0  2  0  0  0  0  0  0  0  0  0
    5.0366  -18.5351   24.3684 N   0  0  0  0  0  0  0  0  0  0  0  0
    6.8361  -17.0790   23.8444 C   0  0  0  0  0  0  0  0  0  0  0  0
    7.6629  -18.0170   23.7283 O   0  0  0  0  0  0  0  0  0  0  0  0
    8.0286  -15.7226   26.2008 C   0  0  0  0  0  0  0  0  0  0  0  0
    8.7096  -14.5476   26.4558 C   0  0  0  0  0  0  0  0  0  0  0  0
    9.6105  -14.3993   20.7220 C   0  0  0  0  0  0  0  0  0  0  0  0
    8.2963  -14.5204   21.4596 C   0  0  1  0  0  0  0  0  0  0  0  0
    7.2088  -14.7324   20.4586 C   0  0  0  0  0  0  0  0  0  0  0  0
    8.3907  -15.6689   22.4610 C   0  0  2  0  0  0  0  0  0  0  0  0
    7.1265  -15.8538   23.1391 N   0  0  0  0  0  0  0  0  0  0  0  0
    9.5460  -15.5122   23.3557 C   0  0  0  0  0  0  0  0  0  0  0  0
   10.7090  -15.3631   22.8672 O   0  0  0  0  0  0  0  0  0  0  0  0
    8.7050  -13.2306   26.5737 C   0  0  0  0  0  0  0  0  0  0  0  0
    9.8610  -13.7301   27.4212 C   0  0  1  0  0  0  0  0  0  0  0  0
    9.3229  -13.8410   28.8453 C   0  0  0  0  0  0  0  0  0  0  0  0
   10.3064  -15.1000   27.0243 C   0  0  0  0  0  0  0  0  0  0  0  0
   10.6547  -15.2205   25.5799 C   0  0  2  0  0  0  0  0  0  0  0  0
    9.4562  -15.5131   24.7729 N   0  0  0  0  0  0  0  0  0  0  0  0
   11.7326  -16.1824   25.2700 C   0  0  0  0  0  0  0  0  0  0  0  0
   13.0723  -16.0027   25.5603 O   0  0  0  0  0  0  0  0  0  0  0  0
   11.4290  -17.2551   24.6974 O   0  0  0  0  0  0  0  0  0  0  0  0
  2  1  1  0
  3  2  2  0
  4  3  1  0
  5 11  1  0
  5  4  2  0
  6  7  1  0
  6  5  1  0
  7  8  1  1
  7  9  1  0
  9 10  2  0
 11 12  2  0
 12  2  1  0
 14 16  1  0
 14 13  1  6
 15 14  1  0
 17  9  1  0
 16 17  1  1
 18 16  1  0
 18 19  2  0
 21 20  1  6
 21 23  1  0
 21 22  1  0
 24 23  1  1
 24 26  1  0
 24 25  1  0
 25 18  1  0
 26 27  1  0
 28 26  2  0
M  END
$$$$
