YVL.pdb
     RDKit          3D

 28 28  0  0  1  0  0  0  0  0999 V2000
    7.9299  -13.4854   14.7818 O   0  0  0  0  0  0  0  0  0  0  0  0
    7.9801  -13.8180   16.1383 C   0  0  0  0  0  0  0  0  0  0  0  0
    8.7835  -14.8356   16.6060 C   0  0  0  0  0  0  0  0  0  0  0  0
    8.8313  -15.1619   17.9451 C   0  0  0  0  0  0  0  0  0  0  0  0
    8.0748  -14.4835   18.8861 C   0  0  0  0  0  0  0  0  0  0  0  0
    8.1360  -14.8534   20.3309 C   0  0  0  0  0  0  0  0  0  0  0  0
    8.0328  -16.3534   20.5123 C   0  0  2  0  0  0  0  0  0  0  0  0
    6.7563  -16.8624   20.1114 N   0  0  0  0  0  0  0  0  0  0  0  0
    8.3356  -16.7783   21.8811 C   0  0  0  0  0  0  0  0  0  0  0  0
    7.3944  -16.9429   22.6960 O   0  0  0  0  0  0  0  0  0  0  0  0
    7.2736  -13.4666   18.4089 C   0  0  0  0  0  0  0  0  0  0  0  0
    7.2232  -13.1369   17.0680 C   0  0  0  0  0  0  0  0  0  0  0  0
   11.4556  -18.3266   25.4041 C   0  0  0  0  0  0  0  0  0  0  0  0
   11.2719  -17.9798   23.9439 C   0  0  1  0  0  0  0  0  0  0  0  0
   11.3737  -19.2354   23.1422 C   0  0  0  0  0  0  0  0  0  0  0  0
    9.9240  -17.2866   23.7620 C   0  0  2  0  0  0  0  0  0  0  0  0
    9.6737  -17.0273   22.3612 N   0  0  0  0  0  0  0  0  0  0  0  0
    9.8001  -16.1089   24.6324 C   0  0  0  0  0  0  0  0  0  0  0  0
   10.4705  -15.0606   24.3778 O   0  0  0  0  0  0  0  0  0  0  0  0
    8.5175  -11.8588   27.1839 C   0  0  0  0  0  0  0  0  0  0  0  0
    7.6408  -13.0172   27.6240 C   0  0  1  0  0  0  0  0  0  0  0  0
    6.2071  -12.4938   27.5995 C   0  0  0  0  0  0  0  0  0  0  0  0
    7.6936  -14.1649   26.6688 C   0  0  0  0  0  0  0  0  0  0  0  0
    9.0046  -14.8742   26.6583 C   0  0  2  0  0  0  0  0  0  0  0  0
    8.9573  -16.0529   25.7739 N   0  0  0  0  0  0  0  0  0  0  0  0
    9.5294  -15.2480   27.9880 C   0  0  0  0  0  0  0  0  0  0  0  0
    9.4346  -16.5026   28.5611 O   0  0  0  0  0  0  0  0  0  0  0  0
   10.1115  -14.3709   28.6682 O   0  0  0  0  0  0  0  0  0  0  0  0
  2  1  1  0
  3  2  2  0
  4  3  1  0
  5 11  1  0
  5  4  2  0
  6  7  1  0
  6  5  1  0
  7  8  1  1
  7  9  1  0
  9 10  2  0
 11 12  2  0
 12  2  1  0
 14 16  1  0
 14 13  1  1
 15 14  1  0
 17  9  1  0
 16 17  1  6
 18 16  1  0
 18 19  2  0
 21 20  1  6
 21 23  1  0
 21 22  1  0
 24 23  1  1
 24 26  1  0
 24 25  1  0
 25 18  1  0
 26 27  1  0
 28 26  2  0
M  END
$$$$
