YVL.pdb
     RDKit          3D

 28 28  0  0  1  0  0  0  0  0999 V2000
   15.2466  -22.8680   21.0303 O   0  0  0  0  0  0  0  0  0  0  0  0
   14.6455  -21.6748   21.4407 C   0  0  0  0  0  0  0  0  0  0  0  0
   13.2792  -21.5627   21.5824 C   0  0  0  0  0  0  0  0  0  0  0  0
   12.6884  -20.3843   21.9876 C   0  0  0  0  0  0  0  0  0  0  0  0
   13.4385  -19.2553   22.2720 C   0  0  0  0  0  0  0  0  0  0  0  0
   12.7814  -17.9869   22.7051 C   0  0  0  0  0  0  0  0  0  0  0  0
   12.2034  -17.2426   21.5196 C   0  0  2  0  0  0  0  0  0  0  0  0
   13.2190  -16.6530   20.7008 N   0  0  0  0  0  0  0  0  0  0  0  0
   11.2240  -16.2271   21.9141 C   0  0  0  0  0  0  0  0  0  0  0  0
   11.6206  -15.0733   22.2113 O   0  0  0  0  0  0  0  0  0  0  0  0
   14.8053  -19.3767   22.1273 C   0  0  0  0  0  0  0  0  0  0  0  0
   15.4005  -20.5559   21.7217 C   0  0  0  0  0  0  0  0  0  0  0  0
    6.7030  -14.3525   22.1316 C   0  0  0  0  0  0  0  0  0  0  0  0
    7.6364  -15.4141   21.5952 C   0  0  1  0  0  0  0  0  0  0  0  0
    7.9409  -15.0998   20.1675 C   0  0  0  0  0  0  0  0  0  0  0  0
    8.8949  -15.4537   22.4585 C   0  0  2  0  0  0  0  0  0  0  0  0
    9.8034  -16.4732   21.9814 N   0  0  0  0  0  0  0  0  0  0  0  0
    8.5669  -15.5488   23.8879 C   0  0  0  0  0  0  0  0  0  0  0  0
    8.7673  -16.6366   24.5121 O   0  0  0  0  0  0  0  0  0  0  0  0
    8.1280  -11.9475   25.8168 C   0  0  0  0  0  0  0  0  0  0  0  0
    7.0188  -12.3905   26.7536 C   0  0  1  0  0  0  0  0  0  0  0  0
    5.8430  -11.4542   26.4875 C   0  0  0  0  0  0  0  0  0  0  0  0
    6.5403  -13.7739   26.4540 C   0  0  0  0  0  0  0  0  0  0  0  0
    7.6289  -14.7088   26.0503 C   0  0  2  0  0  0  0  0  0  0  0  0
    8.0263  -14.4790   24.6493 N   0  0  0  0  0  0  0  0  0  0  0  0
    7.3458  -16.1410   26.2777 C   0  0  0  0  0  0  0  0  0  0  0  0
    6.5879  -16.9475   25.4491 O   0  0  0  0  0  0  0  0  0  0  0  0
    7.8223  -16.6888   27.2993 O   0  0  0  0  0  0  0  0  0  0  0  0
  2  1  1  0
  3  2  2  0
  4  3  1  0
  5 11  1  0
  5  4  2  0
  6  7  1  0
  6  5  1  0
  7  8  1  1
  7  9  1  0
  9 10  2  0
 11 12  2  0
 12  2  1  0
 14 16  1  0
 14 13  1  1
 15 14  1  0
 17  9  1  0
 16 17  1  6
 18 16  1  0
 18 19  2  0
 21 20  1  6
 21 23  1  0
 21 22  1  0
 24 23  1  6
 24 26  1  0
 24 25  1  0
 25 18  1  0
 26 27  1  0
 28 26  2  0
M  END
$$$$
