YVL.pdb
     RDKit          3D

 28 28  0  0  1  0  0  0  0  0999 V2000
   10.9264  -17.4973   29.9077 O   0  0  0  0  0  0  0  0  0  0  0  0
   11.4496  -17.0760   28.6820 C   0  0  0  0  0  0  0  0  0  0  0  0
   11.2403  -15.8001   28.2046 C   0  0  0  0  0  0  0  0  0  0  0  0
   11.7575  -15.3867   26.9950 C   0  0  0  0  0  0  0  0  0  0  0  0
   12.5128  -16.2327   26.2000 C   0  0  0  0  0  0  0  0  0  0  0  0
   13.0611  -15.7693   24.8913 C   0  0  0  0  0  0  0  0  0  0  0  0
   12.6034  -16.6683   23.7618 C   0  0  2  0  0  0  0  0  0  0  0  0
   13.6993  -17.1743   22.9922 N   0  0  0  0  0  0  0  0  0  0  0  0
   11.6299  -16.0174   22.8817 C   0  0  0  0  0  0  0  0  0  0  0  0
   11.9241  -14.9213   22.3439 O   0  0  0  0  0  0  0  0  0  0  0  0
   12.7171  -17.5079   26.6857 C   0  0  0  0  0  0  0  0  0  0  0  0
   12.2003  -17.9255   27.8973 C   0  0  0  0  0  0  0  0  0  0  0  0
    7.1173  -15.0896   21.3169 C   0  0  0  0  0  0  0  0  0  0  0  0
    8.2611  -16.0762   21.3826 C   0  0  1  0  0  0  0  0  0  0  0  0
    9.0037  -16.0278   20.0880 C   0  0  0  0  0  0  0  0  0  0  0  0
    9.1521  -15.7279   22.5723 C   0  0  2  0  0  0  0  0  0  0  0  0
   10.3292  -16.5684   22.5857 N   0  0  0  0  0  0  0  0  0  0  0  0
    8.3938  -15.7194   23.8312 C   0  0  0  0  0  0  0  0  0  0  0  0
    8.4647  -16.7128   24.6193 O   0  0  0  0  0  0  0  0  0  0  0  0
    5.5891  -11.1268   25.6687 C   0  0  0  0  0  0  0  0  0  0  0  0
    6.5496  -12.3020   25.6432 C   0  0  1  0  0  0  0  0  0  0  0  0
    7.3340  -12.2339   26.9509 C   0  0  0  0  0  0  0  0  0  0  0  0
    5.8394  -13.6166   25.6385 C   0  0  0  0  0  0  0  0  0  0  0  0
    6.7476  -14.7863   25.4686 C   0  0  2  0  0  0  0  0  0  0  0  0
    7.5612  -14.6468   24.2470 N   0  0  0  0  0  0  0  0  0  0  0  0
    6.0862  -16.1072   25.4996 C   0  0  0  0  0  0  0  0  0  0  0  0
    5.4765  -16.7215   24.4214 O   0  0  0  0  0  0  0  0  0  0  0  0
    6.0650  -16.7389   26.5818 O   0  0  0  0  0  0  0  0  0  0  0  0
  2  1  1  0
  3  2  2  0
  4  3  1  0
  5 11  1  0
  5  4  2  0
  6  7  1  0
  6  5  1  0
  7  8  1  6
  7  9  1  0
  9 10  2  0
 11 12  2  0
 12  2  1  0
 14 16  1  0
 14 13  1  6
 15 14  1  0
 17  9  1  0
 16 17  1  1
 18 16  1  0
 18 19  2  0
 21 20  1  1
 21 23  1  0
 21 22  1  0
 24 23  1  6
 24 26  1  0
 24 25  1  0
 25 18  1  0
 26 27  1  0
 28 26  2  0
M  END
$$$$
