YVL.pdb
     RDKit          3D

 28 28  0  0  1  0  0  0  0  0999 V2000
    7.7752  -13.0851   15.2668 O   0  0  0  0  0  0  0  0  0  0  0  0
    7.6854  -13.6804   16.5281 C   0  0  0  0  0  0  0  0  0  0  0  0
    7.1544  -14.9408   16.6987 C   0  0  0  0  0  0  0  0  0  0  0  0
    7.0669  -15.5262   17.9443 C   0  0  0  0  0  0  0  0  0  0  0  0
    7.5079  -14.8768   19.0853 C   0  0  0  0  0  0  0  0  0  0  0  0
    7.4012  -15.5242   20.4261 C   0  0  0  0  0  0  0  0  0  0  0  0
    8.5676  -16.4581   20.6725 C   0  0  2  0  0  0  0  0  0  0  0  0
    8.5406  -17.6003   19.8099 N   0  0  0  0  0  0  0  0  0  0  0  0
    8.6618  -16.8865   22.0702 C   0  0  0  0  0  0  0  0  0  0  0  0
    8.3943  -18.0770   22.3676 O   0  0  0  0  0  0  0  0  0  0  0  0
    8.0378  -13.6157   18.9051 C   0  0  0  0  0  0  0  0  0  0  0  0
    8.1271  -13.0262   17.6585 C   0  0  0  0  0  0  0  0  0  0  0  0
   10.7651  -18.1079   25.7551 C   0  0  0  0  0  0  0  0  0  0  0  0
   10.4215  -17.6281   24.3631 C   0  0  1  0  0  0  0  0  0  0  0  0
    9.9582  -18.7982   23.5595 C   0  0  0  0  0  0  0  0  0  0  0  0
    9.3580  -16.5371   24.4603 C   0  0  2  0  0  0  0  0  0  0  0  0
    9.0529  -16.0102   23.1482 N   0  0  0  0  0  0  0  0  0  0  0  0
    9.7169  -15.5199   25.4583 C   0  0  0  0  0  0  0  0  0  0  0  0
   10.8977  -15.0529   25.4895 O   0  0  0  0  0  0  0  0  0  0  0  0
    5.8717  -12.0168   27.1183 C   0  0  0  0  0  0  0  0  0  0  0  0
    7.1029  -12.7535   26.6227 C   0  0  1  0  0  0  0  0  0  0  0  0
    7.8321  -11.7819   25.6984 C   0  0  0  0  0  0  0  0  0  0  0  0
    8.0510  -13.0845   27.7291 C   0  0  0  0  0  0  0  0  0  0  0  0
    9.2292  -13.8840   27.2879 C   0  0  2  0  0  0  0  0  0  0  0  0
    8.8115  -15.0013   26.4215 N   0  0  0  0  0  0  0  0  0  0  0  0
   10.1016  -14.3731   28.3755 C   0  0  0  0  0  0  0  0  0  0  0  0
   11.0067  -13.6028   29.0820 O   0  0  0  0  0  0  0  0  0  0  0  0
   10.0310  -15.5816   28.6997 O   0  0  0  0  0  0  0  0  0  0  0  0
  2  1  1  0
  3  2  2  0
  4  3  1  0
  5 11  1  0
  5  4  2  0
  6  7  1  0
  6  5  1  0
  7  8  1  6
  7  9  1  0
  9 10  2  0
 11 12  2  0
 12  2  1  0
 14 16  1  0
 14 13  1  1
 15 14  1  0
 17  9  1  0
 16 17  1  6
 18 16  1  0
 18 19  2  0
 21 20  1  1
 21 23  1  0
 21 22  1  0
 24 23  1  1
 24 26  1  0
 24 25  1  0
 25 18  1  0
 26 27  1  0
 28 26  2  0
M  END
$$$$
