YVL.pdb
     RDKit          3D

 28 28  0  0  1  0  0  0  0  0999 V2000
    5.9721   -9.8759   26.8625 O   0  0  0  0  0  0  0  0  0  0  0  0
    6.0923  -11.2664   26.7895 C   0  0  0  0  0  0  0  0  0  0  0  0
    5.0353  -12.1017   27.0805 C   0  0  0  0  0  0  0  0  0  0  0  0
    5.1564  -13.4736   27.0078 C   0  0  0  0  0  0  0  0  0  0  0  0
    6.3457  -14.0798   26.6388 C   0  0  0  0  0  0  0  0  0  0  0  0
    6.4597  -15.5665   26.5696 C   0  0  0  0  0  0  0  0  0  0  0  0
    6.0098  -16.0834   25.2191 C   0  0  2  0  0  0  0  0  0  0  0  0
    5.1202  -17.1992   25.3334 N   0  0  0  0  0  0  0  0  0  0  0  0
    7.1330  -16.4244   24.3427 C   0  0  0  0  0  0  0  0  0  0  0  0
    7.6769  -17.5511   24.4508 O   0  0  0  0  0  0  0  0  0  0  0  0
    7.3983  -13.2360   26.3494 C   0  0  0  0  0  0  0  0  0  0  0  0
    7.2805  -11.8611   26.4213 C   0  0  0  0  0  0  0  0  0  0  0  0
   10.1321  -15.5545   20.5186 C   0  0  0  0  0  0  0  0  0  0  0  0
    8.9937  -15.0195   21.3576 C   0  0  1  0  0  0  0  0  0  0  0  0
    7.7416  -15.0713   20.5457 C   0  0  0  0  0  0  0  0  0  0  0  0
    8.8865  -15.8455   22.6370 C   0  0  2  0  0  0  0  0  0  0  0  0
    7.6629  -15.5304   23.3412 N   0  0  0  0  0  0  0  0  0  0  0  0
   10.1046  -15.7397   23.4523 C   0  0  0  0  0  0  0  0  0  0  0  0
   11.0139  -14.9147   23.1272 O   0  0  0  0  0  0  0  0  0  0  0  0
    9.3759  -15.1815   28.4804 C   0  0  0  0  0  0  0  0  0  0  0  0
    9.9121  -15.1528   27.0606 C   0  0  1  0  0  0  0  0  0  0  0  0
   10.3839  -13.7217   26.8169 C   0  0  0  0  0  0  0  0  0  0  0  0
   11.1071  -16.0326   26.8865 C   0  0  0  0  0  0  0  0  0  0  0  0
   11.5157  -16.2117   25.4641 C   0  0  2  0  0  0  0  0  0  0  0  0
   10.3484  -16.5155   24.6164 N   0  0  0  0  0  0  0  0  0  0  0  0
   12.5895  -17.2008   25.2369 C   0  0  0  0  0  0  0  0  0  0  0  0
   13.9004  -17.0682   25.6560 O   0  0  0  0  0  0  0  0  0  0  0  0
   12.3104  -18.2529   24.6157 O   0  0  0  0  0  0  0  0  0  0  0  0
  2  1  1  0
  3  2  2  0
  4  3  1  0
  5 11  1  0
  5  4  2  0
  6  7  1  0
  6  5  1  0
  7  8  1  1
  7  9  1  0
  9 10  2  0
 11 12  2  0
 12  2  1  0
 14 16  1  0
 14 13  1  6
 15 14  1  0
 17  9  1  0
 16 17  1  1
 18 16  1  0
 18 19  2  0
 21 20  1  1
 21 23  1  0
 21 22  1  0
 24 23  1  1
 24 26  1  0
 24 25  1  0
 25 18  1  0
 26 27  1  0
 28 26  2  0
M  END
$$$$
