YVL.pdb
     RDKit          3D

 28 28  0  0  1  0  0  0  0  0999 V2000
    4.4594  -23.7451   27.1156 O   0  0  0  0  0  0  0  0  0  0  0  0
    5.1591  -22.6833   26.5355 C   0  0  0  0  0  0  0  0  0  0  0  0
    6.1710  -22.0299   27.2054 C   0  0  0  0  0  0  0  0  0  0  0  0
    6.8599  -20.9824   26.6309 C   0  0  0  0  0  0  0  0  0  0  0  0
    6.5693  -20.5352   25.3527 C   0  0  0  0  0  0  0  0  0  0  0  0
    7.3227  -19.3970   24.7486 C   0  0  0  0  0  0  0  0  0  0  0  0
    7.3406  -19.4988   23.2376 C   0  0  2  0  0  0  0  0  0  0  0  0
    7.9793  -20.6961   22.7815 N   0  0  0  0  0  0  0  0  0  0  0  0
    7.9517  -18.3297   22.6007 C   0  0  0  0  0  0  0  0  0  0  0  0
    9.1127  -18.4223   22.1309 O   0  0  0  0  0  0  0  0  0  0  0  0
    5.5550  -21.1950   24.6898 C   0  0  0  0  0  0  0  0  0  0  0  0
    4.8627  -22.2449   25.2623 C   0  0  0  0  0  0  0  0  0  0  0  0
    7.6921  -15.7127   20.0852 C   0  0  0  0  0  0  0  0  0  0  0  0
    7.6641  -14.9092   21.3656 C   0  0  1  0  0  0  0  0  0  0  0  0
    6.3015  -14.3196   21.5254 C   0  0  0  0  0  0  0  0  0  0  0  0
    8.0401  -15.8184   22.5330 C   0  0  2  0  0  0  0  0  0  0  0  0
    7.2896  -17.0535   22.4739 N   0  0  0  0  0  0  0  0  0  0  0  0
    7.9522  -15.1116   23.8185 C   0  0  0  0  0  0  0  0  0  0  0  0
    6.8156  -14.8102   24.2985 O   0  0  0  0  0  0  0  0  0  0  0  0
    5.8850  -11.8754   26.0958 C   0  0  0  0  0  0  0  0  0  0  0  0
    7.2523  -12.3997   25.6963 C   0  0  1  0  0  0  0  0  0  0  0  0
    8.2692  -11.5012   26.3954 C   0  0  0  0  0  0  0  0  0  0  0  0
    7.4959  -13.7879   26.1921 C   0  0  0  0  0  0  0  0  0  0  0  0
    8.8923  -14.2634   25.9768 C   0  0  2  0  0  0  0  0  0  0  0  0
    9.0809  -14.7293   24.5909 N   0  0  0  0  0  0  0  0  0  0  0  0
    9.3641  -15.2860   26.9333 C   0  0  0  0  0  0  0  0  0  0  0  0
    9.7011  -16.5874   26.6106 O   0  0  0  0  0  0  0  0  0  0  0  0
    9.4749  -14.9681   28.1406 O   0  0  0  0  0  0  0  0  0  0  0  0
  2  1  1  0
  3  2  2  0
  4  3  1  0
  5 11  1  0
  5  4  2  0
  6  7  1  0
  6  5  1  0
  7  8  1  1
  7  9  1  0
  9 10  2  0
 11 12  2  0
 12  2  1  0
 14 16  1  0
 14 13  1  6
 15 14  1  0
 17  9  1  0
 16 17  1  1
 18 16  1  0
 18 19  2  0
 21 20  1  1
 21 23  1  0
 21 22  1  0
 24 23  1  1
 24 26  1  0
 24 25  1  0
 25 18  1  0
 26 27  1  0
 28 26  2  0
M  END
$$$$
