WNG.pdb
     RDKit          3D

 27 28  0  0  1  0  0  0  0  0999 V2000
    6.5620  -17.7401   23.8751 N   0  0  0  0  0  0  0  0  0  0  0  0
    7.4707  -16.6758   23.4259 C   0  0  1  0  0  0  0  0  0  0  0  0
    8.2232  -16.2227   24.6833 C   0  0  0  0  0  0  0  0  0  0  0  0
    7.3436  -15.3309   25.4903 C   0  0  0  0  0  0  0  0  0  0  0  0
    6.3197  -15.7367   26.2924 C   0  0  0  0  0  0  0  0  0  0  0  0
    5.7876  -14.6255   26.8345 N   0  0  0  0  0  0  0  0  0  0  0  0
    6.4469  -13.5422   26.3958 C   0  0  0  0  0  0  0  0  0  0  0  0
    6.3057  -12.2015   26.6380 C   0  0  0  0  0  0  0  0  0  0  0  0
    7.1408  -11.2957   26.0376 C   0  0  0  0  0  0  0  0  0  0  0  0
    8.1411  -11.7122   25.1769 C   0  0  0  0  0  0  0  0  0  0  0  0
    8.2951  -13.0456   24.9250 C   0  0  0  0  0  0  0  0  0  0  0  0
    7.4485  -13.9607   25.5341 C   0  0  0  0  0  0  0  0  0  0  0  0
    8.4623  -17.2364   22.4580 C   0  0  0  0  0  0  0  0  0  0  0  0
    8.6978  -18.4576   22.4761 O   0  0  0  0  0  0  0  0  0  0  0  0
    8.0051  -17.9072   19.0206 N   0  0  0  0  0  0  0  0  0  0  0  0
    8.7692  -16.8003   18.4822 C   0  0  0  0  0  0  0  0  0  0  0  0
    8.3424  -16.3842   17.3807 O   0  0  0  0  0  0  0  0  0  0  0  0
    9.9289  -16.2638   19.2161 C   0  0  0  0  0  0  0  0  0  0  0  0
   10.0795  -16.9074   20.5367 C   0  0  2  0  0  0  0  0  0  0  0  0
    9.1364  -16.4283   21.5290 N   0  0  0  0  0  0  0  0  0  0  0  0
   11.4380  -16.6906   21.0728 C   0  0  0  0  0  0  0  0  0  0  0  0
   12.5120  -16.9707   20.5063 O   0  0  0  0  0  0  0  0  0  0  0  0
   11.6021  -16.0946   22.3876 N   0  0  0  0  0  0  0  0  0  0  0  0
   12.4370  -16.7361   23.3758 C   0  0  0  0  0  0  0  0  0  0  0  0
   13.8565  -16.3624   23.2013 C   0  0  0  0  0  0  0  0  0  0  0  0
   14.6815  -15.9277   24.2164 O   0  0  0  0  0  0  0  0  0  0  0  0
   14.3545  -16.4429   22.0512 O   0  0  0  0  0  0  0  0  0  0  0  0
  2  1  1  1
  2 13  1  0
  3  2  1  0
  3  4  1  0
  4 12  1  0
  4  5  2  0
  5  6  1  0
  7  8  2  0
  7  6  1  0
  9  8  1  0
 10  9  2  0
 11 10  1  0
 11 12  2  0
 12  7  1  0
 13 20  1  0
 13 14  2  0
 15 16  1  0
 16 18  1  0
 17 16  2  0
 19 18  1  6
 19 21  1  0
 20 19  1  0
 21 22  2  0
 23 24  1  0
 23 21  1  0
 25 26  1  0
 25 24  1  0
 27 25  2  0
M  END
$$$$
