WNG.pdb
     RDKit          3D

 27 28  0  0  1  0  0  0  0  0999 V2000
    9.3783  -15.6552   24.4065 N   0  0  0  0  0  0  0  0  0  0  0  0
    8.1409  -16.3364   24.0007 C   0  0  1  0  0  0  0  0  0  0  0  0
    6.9994  -15.4852   24.5707 C   0  0  0  0  0  0  0  0  0  0  0  0
    7.4556  -14.8250   25.8262 C   0  0  0  0  0  0  0  0  0  0  0  0
    8.2045  -15.4067   26.8046 C   0  0  0  0  0  0  0  0  0  0  0  0
    8.3938  -14.4727   27.7552 N   0  0  0  0  0  0  0  0  0  0  0  0
    7.7873  -13.3297   27.4001 C   0  0  0  0  0  0  0  0  0  0  0  0
    7.6788  -12.1040   28.0020 C   0  0  0  0  0  0  0  0  0  0  0  0
    6.9806  -11.0923   27.3961 C   0  0  0  0  0  0  0  0  0  0  0  0
    6.3717  -11.2842   26.1684 C   0  0  0  0  0  0  0  0  0  0  0  0
    6.4707  -12.5004   25.5551 C   0  0  0  0  0  0  0  0  0  0  0  0
    7.1782  -13.5230   26.1703 C   0  0  0  0  0  0  0  0  0  0  0  0
    8.0321  -16.3355   22.5099 C   0  0  0  0  0  0  0  0  0  0  0  0
    7.0290  -16.8442   21.9787 O   0  0  0  0  0  0  0  0  0  0  0  0
    7.2434  -12.6042   19.9874 N   0  0  0  0  0  0  0  0  0  0  0  0
    7.4979  -14.0061   19.7253 C   0  0  0  0  0  0  0  0  0  0  0  0
    6.4570  -14.6952   19.6242 O   0  0  0  0  0  0  0  0  0  0  0  0
    8.8785  -14.5061   19.6010 C   0  0  0  0  0  0  0  0  0  0  0  0
    9.0357  -15.8280   20.2404 C   0  0  2  0  0  0  0  0  0  0  0  0
    9.0262  -15.7786   21.6900 N   0  0  0  0  0  0  0  0  0  0  0  0
   10.3022  -16.4630   19.8251 C   0  0  0  0  0  0  0  0  0  0  0  0
   10.7160  -16.5978   18.6575 O   0  0  0  0  0  0  0  0  0  0  0  0
   11.1969  -17.0032   20.8344 N   0  0  0  0  0  0  0  0  0  0  0  0
   12.4344  -17.6361   20.4430 C   0  0  0  0  0  0  0  0  0  0  0  0
   12.5051  -19.0265   20.9398 C   0  0  0  0  0  0  0  0  0  0  0  0
   13.5821  -19.8677   20.7598 O   0  0  0  0  0  0  0  0  0  0  0  0
   11.5195  -19.4822   21.5708 O   0  0  0  0  0  0  0  0  0  0  0  0
  2  1  1  6
  2 13  1  0
  3  2  1  0
  3  4  1  0
  4 12  1  0
  4  5  2  0
  5  6  1  0
  7  8  2  0
  7  6  1  0
  9  8  1  0
 10  9  2  0
 11 10  1  0
 11 12  2  0
 12  7  1  0
 13 20  1  0
 13 14  2  0
 15 16  1  0
 16 18  1  0
 17 16  2  0
 19 18  1  6
 19 21  1  0
 20 19  1  0
 21 22  2  0
 23 24  1  0
 23 21  1  0
 25 26  1  0
 25 24  1  0
 27 25  2  0
M  END
$$$$
