WNG.pdb
     RDKit          3D

 27 28  0  0  1  0  0  0  0  0999 V2000
    7.0749  -17.5718   24.1751 N   0  0  0  0  0  0  0  0  0  0  0  0
    8.1675  -16.6193   23.9321 C   0  0  1  0  0  0  0  0  0  0  0  0
    8.4620  -15.9785   25.2942 C   0  0  0  0  0  0  0  0  0  0  0  0
    7.3326  -15.0836   25.6731 C   0  0  0  0  0  0  0  0  0  0  0  0
    6.0848  -15.4888   26.0409 C   0  0  0  0  0  0  0  0  0  0  0  0
    5.3752  -14.3744   26.2987 N   0  0  0  0  0  0  0  0  0  0  0  0
    6.1406  -13.2898   26.1033 C   0  0  0  0  0  0  0  0  0  0  0  0
    5.9042  -11.9460   26.2238 C   0  0  0  0  0  0  0  0  0  0  0  0
    6.8955  -11.0395   25.9523 C   0  0  0  0  0  0  0  0  0  0  0  0
    8.1521  -11.4583   25.5519 C   0  0  0  0  0  0  0  0  0  0  0  0
    8.4040  -12.7947   25.4270 C   0  0  0  0  0  0  0  0  0  0  0  0
    7.3989  -13.7105   25.7026 C   0  0  0  0  0  0  0  0  0  0  0  0
    9.3875  -17.3572   23.4833 C   0  0  0  0  0  0  0  0  0  0  0  0
    9.5385  -18.5411   23.8337 O   0  0  0  0  0  0  0  0  0  0  0  0
   11.1012  -17.3565   19.3172 N   0  0  0  0  0  0  0  0  0  0  0  0
   11.5866  -16.2863   20.1644 C   0  0  0  0  0  0  0  0  0  0  0  0
   11.2310  -15.1463   19.7868 O   0  0  0  0  0  0  0  0  0  0  0  0
   12.4168  -16.5837   21.3449 C   0  0  0  0  0  0  0  0  0  0  0  0
   11.6595  -17.3378   22.3640 C   0  0  2  0  0  0  0  0  0  0  0  0
   10.3685  -16.7564   22.6788 N   0  0  0  0  0  0  0  0  0  0  0  0
   12.4249  -17.4300   23.6232 C   0  0  0  0  0  0  0  0  0  0  0  0
   12.8797  -16.4777   24.2858 O   0  0  0  0  0  0  0  0  0  0  0  0
   12.7072  -18.7353   24.1955 N   0  0  0  0  0  0  0  0  0  0  0  0
   13.4580  -18.8416   25.4243 C   0  0  0  0  0  0  0  0  0  0  0  0
   12.5606  -19.0084   26.5871 C   0  0  0  0  0  0  0  0  0  0  0  0
   12.0088  -17.9691   27.3049 O   0  0  0  0  0  0  0  0  0  0  0  0
   12.2755  -20.1751   26.9543 O   0  0  0  0  0  0  0  0  0  0  0  0
  2  1  1  1
  2 13  1  0
  3  2  1  0
  3  4  1  0
  4 12  1  0
  4  5  2  0
  5  6  1  0
  7  8  2  0
  7  6  1  0
  9  8  1  0
 10  9  2  0
 11 10  1  0
 11 12  2  0
 12  7  1  0
 13 20  1  0
 13 14  2  0
 15 16  1  0
 16 18  1  0
 17 16  2  0
 19 18  1  6
 19 21  1  0
 20 19  1  0
 21 22  2  0
 23 24  1  0
 23 21  1  0
 25 26  1  0
 25 24  1  0
 27 25  2  0
M  END
$$$$
