WNG.pdb
     RDKit          3D

 27 28  0  0  1  0  0  0  0  0999 V2000
    7.7023  -16.8119   22.8994 N   0  0  0  0  0  0  0  0  0  0  0  0
    8.7129  -15.7475   22.9747 C   0  0  1  0  0  0  0  0  0  0  0  0
    8.9660  -15.5288   24.4717 C   0  0  0  0  0  0  0  0  0  0  0  0
    7.7324  -14.9854   25.1065 C   0  0  0  0  0  0  0  0  0  0  0  0
    6.7266  -15.7244   25.6529 C   0  0  0  0  0  0  0  0  0  0  0  0
    5.8100  -14.8525   26.1127 N   0  0  0  0  0  0  0  0  0  0  0  0
    6.2129  -13.5957   25.8701 C   0  0  0  0  0  0  0  0  0  0  0  0
    5.6582  -12.3706   26.1307 C   0  0  0  0  0  0  0  0  0  0  0  0
    6.3075  -11.2217   25.7609 C   0  0  0  0  0  0  0  0  0  0  0  0
    7.5322  -11.2720   25.1189 C   0  0  0  0  0  0  0  0  0  0  0  0
    8.0987  -12.4856   24.8520 C   0  0  0  0  0  0  0  0  0  0  0  0
    7.4396  -13.6474   25.2274 C   0  0  0  0  0  0  0  0  0  0  0  0
    9.9846  -16.2158   22.3440 C   0  0  0  0  0  0  0  0  0  0  0  0
   10.1903  -17.4380   22.2383 O   0  0  0  0  0  0  0  0  0  0  0  0
   11.4878  -15.3455   18.2783 N   0  0  0  0  0  0  0  0  0  0  0  0
   11.8813  -14.3121   19.2142 C   0  0  0  0  0  0  0  0  0  0  0  0
   11.4103  -13.1836   18.9436 O   0  0  0  0  0  0  0  0  0  0  0  0
   12.7563  -14.6299   20.3564 C   0  0  0  0  0  0  0  0  0  0  0  0
   12.1831  -15.7005   21.1968 C   0  0  2  0  0  0  0  0  0  0  0  0
   10.9544  -15.3200   21.8669 N   0  0  0  0  0  0  0  0  0  0  0  0
   13.1442  -16.1220   22.2353 C   0  0  0  0  0  0  0  0  0  0  0  0
   14.3101  -16.5203   22.0486 O   0  0  0  0  0  0  0  0  0  0  0  0
   12.7477  -16.0908   23.6327 N   0  0  0  0  0  0  0  0  0  0  0  0
   13.6921  -16.4539   24.6629 C   0  0  0  0  0  0  0  0  0  0  0  0
   13.5616  -17.8798   25.0302 C   0  0  0  0  0  0  0  0  0  0  0  0
   12.3707  -18.5032   25.3352 O   0  0  0  0  0  0  0  0  0  0  0  0
   14.6033  -18.5802   25.0702 O   0  0  0  0  0  0  0  0  0  0  0  0
  2  1  1  1
  2 13  1  0
  3  2  1  0
  3  4  1  0
  4 12  1  0
  4  5  2  0
  5  6  1  0
  7  8  2  0
  7  6  1  0
  9  8  1  0
 10  9  2  0
 11 10  1  0
 11 12  2  0
 12  7  1  0
 13 20  1  0
 13 14  2  0
 15 16  1  0
 16 18  1  0
 17 16  2  0
 19 18  1  1
 19 21  1  0
 20 19  1  0
 21 22  2  0
 23 24  1  0
 23 21  1  0
 25 26  1  0
 25 24  1  0
 27 25  2  0
M  END
$$$$
