WNG.pdb
     RDKit          3D

 27 28  0  0  1  0  0  0  0  0999 V2000
    8.0816  -15.9681   23.0657 N   0  0  0  0  0  0  0  0  0  0  0  0
    9.2578  -15.5287   23.8296 C   0  0  1  0  0  0  0  0  0  0  0  0
    8.9455  -15.8678   25.2925 C   0  0  0  0  0  0  0  0  0  0  0  0
    7.7286  -15.1234   25.7227 C   0  0  0  0  0  0  0  0  0  0  0  0
    6.5644  -15.6835   26.1555 C   0  0  0  0  0  0  0  0  0  0  0  0
    5.7285  -14.6682   26.4422 N   0  0  0  0  0  0  0  0  0  0  0  0
    6.3346  -13.4954   26.2020 C   0  0  0  0  0  0  0  0  0  0  0  0
    5.9303  -12.1926   26.3264 C   0  0  0  0  0  0  0  0  0  0  0  0
    6.7797  -11.1679   25.9998 C   0  0  0  0  0  0  0  0  0  0  0  0
    8.0590  -11.4239   25.5389 C   0  0  0  0  0  0  0  0  0  0  0  0
    8.4774  -12.7175   25.4093 C   0  0  0  0  0  0  0  0  0  0  0  0
    7.6158  -13.7532   25.7407 C   0  0  0  0  0  0  0  0  0  0  0  0
   10.4552  -16.3171   23.4069 C   0  0  0  0  0  0  0  0  0  0  0  0
   10.8259  -17.2736   24.1104 O   0  0  0  0  0  0  0  0  0  0  0  0
   10.4024  -18.9922   20.0416 N   0  0  0  0  0  0  0  0  0  0  0  0
   10.6325  -17.6019   19.7055 C   0  0  0  0  0  0  0  0  0  0  0  0
    9.6819  -17.0708   19.0867 O   0  0  0  0  0  0  0  0  0  0  0  0
   11.8910  -16.9376   20.0877 C   0  0  0  0  0  0  0  0  0  0  0  0
   12.0721  -16.9215   21.5533 C   0  0  2  0  0  0  0  0  0  0  0  0
   11.1751  -16.0124   22.2409 N   0  0  0  0  0  0  0  0  0  0  0  0
   13.4529  -16.5359   21.9060 C   0  0  0  0  0  0  0  0  0  0  0  0
   14.4905  -16.8520   21.2927 O   0  0  0  0  0  0  0  0  0  0  0  0
   13.6879  -15.7054   23.0748 N   0  0  0  0  0  0  0  0  0  0  0  0
   15.0347  -15.3420   23.4475 C   0  0  0  0  0  0  0  0  0  0  0  0
   15.5038  -16.1376   24.6017 C   0  0  0  0  0  0  0  0  0  0  0  0
   16.5320  -15.7666   25.4415 O   0  0  0  0  0  0  0  0  0  0  0  0
   14.9319  -17.2296   24.8417 O   0  0  0  0  0  0  0  0  0  0  0  0
  2  1  1  6
  2 13  1  0
  3  2  1  0
  3  4  1  0
  4 12  1  0
  4  5  2  0
  5  6  1  0
  7  8  2  0
  7  6  1  0
  9  8  1  0
 10  9  2  0
 11 10  1  0
 11 12  2  0
 12  7  1  0
 13 20  1  0
 13 14  2  0
 15 16  1  0
 16 18  1  0
 17 16  2  0
 19 18  1  6
 19 21  1  0
 20 19  1  0
 21 22  2  0
 23 24  1  0
 23 21  1  0
 25 26  1  0
 25 24  1  0
 27 25  2  0
M  END
$$$$
