WNG.pdb
     RDKit          3D

 27 28  0  0  1  0  0  0  0  0999 V2000
    6.8702  -17.9735   24.5101 N   0  0  0  0  0  0  0  0  0  0  0  0
    7.4749  -16.8096   23.8469 C   0  0  1  0  0  0  0  0  0  0  0  0
    8.2268  -16.0549   24.9504 C   0  0  0  0  0  0  0  0  0  0  0  0
    7.2977  -15.0982   25.6150 C   0  0  0  0  0  0  0  0  0  0  0  0
    6.1392  -15.4265   26.2526 C   0  0  0  0  0  0  0  0  0  0  0  0
    5.6077  -14.2767   26.7081 N   0  0  0  0  0  0  0  0  0  0  0  0
    6.3976  -13.2445   26.3747 C   0  0  0  0  0  0  0  0  0  0  0  0
    6.3126  -11.8950   26.5932 C   0  0  0  0  0  0  0  0  0  0  0  0
    7.2883  -11.0532   26.1266 C   0  0  0  0  0  0  0  0  0  0  0  0
    8.3766  -11.5443   25.4273 C   0  0  0  0  0  0  0  0  0  0  0  0
    8.4763  -12.8875   25.2012 C   0  0  0  0  0  0  0  0  0  0  0  0
    7.4873  -13.7377   25.6747 C   0  0  0  0  0  0  0  0  0  0  0  0
    8.4675  -17.2704   22.8288 C   0  0  0  0  0  0  0  0  0  0  0  0
    9.0651  -18.3455   23.0134 O   0  0  0  0  0  0  0  0  0  0  0  0
    7.9563  -18.0907   19.1513 N   0  0  0  0  0  0  0  0  0  0  0  0
    8.6063  -16.9109   18.6180 C   0  0  0  0  0  0  0  0  0  0  0  0
    8.2143  -16.5969   17.4706 O   0  0  0  0  0  0  0  0  0  0  0  0
    9.6248  -16.1958   19.4069 C   0  0  0  0  0  0  0  0  0  0  0  0
    9.8162  -16.8156   20.7337 C   0  0  2  0  0  0  0  0  0  0  0  0
    8.7470  -16.5281   21.6705 N   0  0  0  0  0  0  0  0  0  0  0  0
   11.0797  -16.3601   21.3469 C   0  0  0  0  0  0  0  0  0  0  0  0
   11.2122  -15.4361   22.1724 O   0  0  0  0  0  0  0  0  0  0  0  0
   12.3258  -17.0169   20.9910 N   0  0  0  0  0  0  0  0  0  0  0  0
   13.5895  -16.4256   21.3632 C   0  0  0  0  0  0  0  0  0  0  0  0
   14.0959  -16.9974   22.6288 C   0  0  0  0  0  0  0  0  0  0  0  0
   15.3240  -16.7060   23.1828 O   0  0  0  0  0  0  0  0  0  0  0  0
   13.3631  -17.8065   23.2498 O   0  0  0  0  0  0  0  0  0  0  0  0
  2  1  1  1
  2 13  1  0
  3  2  1  0
  3  4  1  0
  4 12  1  0
  4  5  2  0
  5  6  1  0
  7  8  2  0
  7  6  1  0
  9  8  1  0
 10  9  2  0
 11 10  1  0
 11 12  2  0
 12  7  1  0
 13 20  1  0
 13 14  2  0
 15 16  1  0
 16 18  1  0
 17 16  2  0
 19 18  1  6
 19 21  1  0
 20 19  1  0
 21 22  2  0
 23 24  1  0
 23 21  1  0
 25 26  1  0
 25 24  1  0
 27 25  2  0
M  END
$$$$
