WNG.pdb
     RDKit          3D

 27 28  0  0  1  0  0  0  0  0999 V2000
    9.5430  -16.7858   23.6210 N   0  0  0  0  0  0  0  0  0  0  0  0
    9.5940  -16.0332   24.8823 C   0  0  1  0  0  0  0  0  0  0  0  0
    8.1348  -15.8899   25.3325 C   0  0  0  0  0  0  0  0  0  0  0  0
    7.5223  -14.7133   24.6538 C   0  0  0  0  0  0  0  0  0  0  0  0
    7.2835  -14.6006   23.3171 C   0  0  0  0  0  0  0  0  0  0  0  0
    6.7256  -13.3910   23.1233 N   0  0  0  0  0  0  0  0  0  0  0  0
    6.6097  -12.7481   24.2954 C   0  0  0  0  0  0  0  0  0  0  0  0
    6.1190  -11.5166   24.6404 C   0  0  0  0  0  0  0  0  0  0  0  0
    6.1257  -11.1082   25.9485 C   0  0  0  0  0  0  0  0  0  0  0  0
    6.6258  -11.9259   26.9465 C   0  0  0  0  0  0  0  0  0  0  0  0
    7.1186  -13.1568   26.6190 C   0  0  0  0  0  0  0  0  0  0  0  0
    7.1106  -13.5681   25.2939 C   0  0  0  0  0  0  0  0  0  0  0  0
   10.3305  -16.8273   25.9124 C   0  0  0  0  0  0  0  0  0  0  0  0
   10.5355  -16.3215   27.0301 O   0  0  0  0  0  0  0  0  0  0  0  0
   10.9293  -19.2376   29.2578 N   0  0  0  0  0  0  0  0  0  0  0  0
   10.5690  -20.3076   28.3500 C   0  0  0  0  0  0  0  0  0  0  0  0
    9.9640  -21.2540   28.9041 O   0  0  0  0  0  0  0  0  0  0  0  0
   10.9136  -20.2241   26.9198 C   0  0  0  0  0  0  0  0  0  0  0  0
   11.5577  -18.9362   26.5918 C   0  0  2  0  0  0  0  0  0  0  0  0
   10.7984  -18.1263   25.6585 N   0  0  0  0  0  0  0  0  0  0  0  0
   12.8953  -19.1541   26.0060 C   0  0  0  0  0  0  0  0  0  0  0  0
   13.8367  -19.7865   26.5223 O   0  0  0  0  0  0  0  0  0  0  0  0
   13.2034  -18.5996   24.6989 N   0  0  0  0  0  0  0  0  0  0  0  0
   14.4743  -18.8797   24.0733 C   0  0  0  0  0  0  0  0  0  0  0  0
   15.4852  -17.8642   24.4369 C   0  0  0  0  0  0  0  0  0  0  0  0
   16.7890  -17.8633   23.9897 O   0  0  0  0  0  0  0  0  0  0  0  0
   15.1414  -16.9336   25.2070 O   0  0  0  0  0  0  0  0  0  0  0  0
  2  1  1  6
  2 13  1  0
  3  2  1  0
  3  4  1  0
  4 12  1  0
  4  5  2  0
  5  6  1  0
  7  8  2  0
  7  6  1  0
  9  8  1  0
 10  9  2  0
 11 10  1  0
 11 12  2  0
 12  7  1  0
 13 20  1  0
 13 14  2  0
 15 16  1  0
 16 18  1  0
 17 16  2  0
 19 18  1  6
 19 21  1  0
 20 19  1  0
 21 22  2  0
 23 24  1  0
 23 21  1  0
 25 26  1  0
 25 24  1  0
 27 25  2  0
M  END
$$$$
