WNG.pdb
     RDKit          3D

 27 28  0  0  1  0  0  0  0  0999 V2000
    7.2628  -18.1834   24.7814 N   0  0  0  0  0  0  0  0  0  0  0  0
    7.7465  -16.9268   24.1924 C   0  0  1  0  0  0  0  0  0  0  0  0
    8.2580  -16.0918   25.3730 C   0  0  0  0  0  0  0  0  0  0  0  0
    7.1893  -15.1507   25.8114 C   0  0  0  0  0  0  0  0  0  0  0  0
    5.9436  -15.5030   26.2364 C   0  0  0  0  0  0  0  0  0  0  0  0
    5.2979  -14.3603   26.5350 N   0  0  0  0  0  0  0  0  0  0  0  0
    6.1011  -13.3093   26.3098 C   0  0  0  0  0  0  0  0  0  0  0  0
    5.9312  -11.9573   26.4500 C   0  0  0  0  0  0  0  0  0  0  0  0
    6.9482  -11.0936   26.1367 C   0  0  0  0  0  0  0  0  0  0  0  0
    8.1641  -11.5646   25.6736 C   0  0  0  0  0  0  0  0  0  0  0  0
    8.3494  -12.9098   25.5284 C   0  0  0  0  0  0  0  0  0  0  0  0
    7.3185  -13.7822   25.8463 C   0  0  0  0  0  0  0  0  0  0  0  0
    8.8963  -17.2089   23.2799 C   0  0  0  0  0  0  0  0  0  0  0  0
    9.6979  -18.1108   23.5818 O   0  0  0  0  0  0  0  0  0  0  0  0
    9.1782  -18.3950   18.8916 N   0  0  0  0  0  0  0  0  0  0  0  0
    8.9510  -16.9880   19.1514 C   0  0  0  0  0  0  0  0  0  0  0  0
    7.8370  -16.5772   18.7528 O   0  0  0  0  0  0  0  0  0  0  0  0
    9.9785  -16.1757   19.8264 C   0  0  0  0  0  0  0  0  0  0  0  0
   10.2316  -16.6543   21.2003 C   0  0  2  0  0  0  0  0  0  0  0  0
    9.1003  -16.4882   22.0926 N   0  0  0  0  0  0  0  0  0  0  0  0
   11.3789  -15.9438   21.7992 C   0  0  0  0  0  0  0  0  0  0  0  0
   11.4296  -14.7344   22.0949 O   0  0  0  0  0  0  0  0  0  0  0  0
   12.5985  -16.6756   22.0959 N   0  0  0  0  0  0  0  0  0  0  0  0
   13.7084  -16.0074   22.7337 C   0  0  0  0  0  0  0  0  0  0  0  0
   14.8063  -16.9532   23.0259 C   0  0  0  0  0  0  0  0  0  0  0  0
   16.1471  -16.6545   22.9120 O   0  0  0  0  0  0  0  0  0  0  0  0
   14.5062  -18.1123   23.4046 O   0  0  0  0  0  0  0  0  0  0  0  0
  2  1  1  1
  2 13  1  0
  3  2  1  0
  3  4  1  0
  4 12  1  0
  4  5  2  0
  5  6  1  0
  7  8  2  0
  7  6  1  0
  9  8  1  0
 10  9  2  0
 11 10  1  0
 11 12  2  0
 12  7  1  0
 13 20  1  0
 13 14  2  0
 15 16  1  0
 16 18  1  0
 17 16  2  0
 19 18  1  6
 19 21  1  0
 20 19  1  0
 21 22  2  0
 23 24  1  0
 23 21  1  0
 25 26  1  0
 25 24  1  0
 27 25  2  0
M  END
$$$$
