WNG.pdb
     RDKit          3D

 27 28  0  0  1  0  0  0  0  0999 V2000
    7.4684  -17.6070   24.6156 N   0  0  0  0  0  0  0  0  0  0  0  0
    8.3733  -16.7023   23.8926 C   0  0  1  0  0  0  0  0  0  0  0  0
    8.8026  -15.6467   24.9193 C   0  0  0  0  0  0  0  0  0  0  0  0
    7.5989  -14.9207   25.4134 C   0  0  0  0  0  0  0  0  0  0  0  0
    6.4212  -15.4945   25.7879 C   0  0  0  0  0  0  0  0  0  0  0  0
    5.6048  -14.4934   26.1659 N   0  0  0  0  0  0  0  0  0  0  0  0
    6.2360  -13.3161   26.0388 C   0  0  0  0  0  0  0  0  0  0  0  0
    5.8578  -12.0226   26.2836 C   0  0  0  0  0  0  0  0  0  0  0  0
    6.7297  -10.9896   26.0574 C   0  0  0  0  0  0  0  0  0  0  0  0
    8.0059  -11.2279   25.5787 C   0  0  0  0  0  0  0  0  0  0  0  0
    8.3984  -12.5121   25.3297 C   0  0  0  0  0  0  0  0  0  0  0  0
    7.5140  -13.5561   25.5596 C   0  0  0  0  0  0  0  0  0  0  0  0
    9.5878  -17.4532   23.4508 C   0  0  0  0  0  0  0  0  0  0  0  0
   10.4889  -17.6813   24.2773 O   0  0  0  0  0  0  0  0  0  0  0  0
    9.0485  -18.2674   19.0483 N   0  0  0  0  0  0  0  0  0  0  0  0
    9.0553  -16.8337   19.2561 C   0  0  0  0  0  0  0  0  0  0  0  0
    8.3405  -16.2049   18.4423 O   0  0  0  0  0  0  0  0  0  0  0  0
    9.8520  -16.2384   20.3434 C   0  0  0  0  0  0  0  0  0  0  0  0
   10.5650  -17.2717   21.1212 C   0  0  2  0  0  0  0  0  0  0  0  0
    9.7439  -17.9094   22.1324 N   0  0  0  0  0  0  0  0  0  0  0  0
   11.7418  -16.6956   21.8017 C   0  0  0  0  0  0  0  0  0  0  0  0
   12.8399  -16.4225   21.2800 O   0  0  0  0  0  0  0  0  0  0  0  0
   11.6720  -16.3957   23.2216 N   0  0  0  0  0  0  0  0  0  0  0  0
   12.7705  -15.7249   23.8762 C   0  0  0  0  0  0  0  0  0  0  0  0
   13.9675  -16.5903   23.9348 C   0  0  0  0  0  0  0  0  0  0  0  0
   15.1519  -16.2466   24.5505 O   0  0  0  0  0  0  0  0  0  0  0  0
   13.9111  -17.7194   23.3878 O   0  0  0  0  0  0  0  0  0  0  0  0
  2  1  1  1
  2 13  1  0
  3  2  1  0
  3  4  1  0
  4 12  1  0
  4  5  2  0
  5  6  1  0
  7  8  2  0
  7  6  1  0
  9  8  1  0
 10  9  2  0
 11 10  1  0
 11 12  2  0
 12  7  1  0
 13 20  1  0
 13 14  2  0
 15 16  1  0
 16 18  1  0
 17 16  2  0
 19 18  1  1
 19 21  1  0
 20 19  1  0
 21 22  2  0
 23 24  1  0
 23 21  1  0
 25 26  1  0
 25 24  1  0
 27 25  2  0
M  END
$$$$
