WNG.pdb
     RDKit          3D

 27 28  0  0  1  0  0  0  0  0999 V2000
    6.7496  -17.9376   24.5076 N   0  0  0  0  0  0  0  0  0  0  0  0
    7.3649  -16.7034   23.9995 C   0  0  1  0  0  0  0  0  0  0  0  0
    8.1810  -16.1411   25.1701 C   0  0  0  0  0  0  0  0  0  0  0  0
    7.3387  -15.1877   25.9458 C   0  0  0  0  0  0  0  0  0  0  0  0
    6.3763  -15.5280   26.8482 C   0  0  0  0  0  0  0  0  0  0  0  0
    5.8597  -14.3770   27.3172 N   0  0  0  0  0  0  0  0  0  0  0  0
    6.4692  -13.3323   26.7362 C   0  0  0  0  0  0  0  0  0  0  0  0
    6.3191  -11.9764   26.8602 C   0  0  0  0  0  0  0  0  0  0  0  0
    7.0969  -11.1215   26.1237 C   0  0  0  0  0  0  0  0  0  0  0  0
    8.0472  -11.6055   25.2420 C   0  0  0  0  0  0  0  0  0  0  0  0
    8.2094  -12.9548   25.1069 C   0  0  0  0  0  0  0  0  0  0  0  0
    7.4208  -13.8182   25.8537 C   0  0  0  0  0  0  0  0  0  0  0  0
    8.3036  -17.0320   22.8837 C   0  0  0  0  0  0  0  0  0  0  0  0
    8.6540  -18.2141   22.7194 O   0  0  0  0  0  0  0  0  0  0  0  0
    6.8834  -14.7475   19.4564 N   0  0  0  0  0  0  0  0  0  0  0  0
    7.9288  -15.7228   19.2223 C   0  0  0  0  0  0  0  0  0  0  0  0
    7.5360  -16.7433   18.6116 O   0  0  0  0  0  0  0  0  0  0  0  0
    9.3045  -15.4720   19.6868 C   0  0  0  0  0  0  0  0  0  0  0  0
    9.6408  -16.3045   20.8593 C   0  0  2  0  0  0  0  0  0  0  0  0
    8.8026  -16.0486   22.0150 N   0  0  0  0  0  0  0  0  0  0  0  0
   11.0426  -16.0889   21.2697 C   0  0  0  0  0  0  0  0  0  0  0  0
   12.0479  -16.1527   20.5363 O   0  0  0  0  0  0  0  0  0  0  0  0
   11.3417  -15.7672   22.6546 N   0  0  0  0  0  0  0  0  0  0  0  0
   12.6926  -15.4435   23.0486 C   0  0  0  0  0  0  0  0  0  0  0  0
   13.4012  -16.6358   23.5601 C   0  0  0  0  0  0  0  0  0  0  0  0
   14.6435  -16.6113   24.1569 O   0  0  0  0  0  0  0  0  0  0  0  0
   12.8402  -17.7536   23.4472 O   0  0  0  0  0  0  0  0  0  0  0  0
  2  1  1  1
  2 13  1  0
  3  2  1  0
  3  4  1  0
  4 12  1  0
  4  5  2  0
  5  6  1  0
  7  8  2  0
  7  6  1  0
  9  8  1  0
 10  9  2  0
 11 10  1  0
 11 12  2  0
 12  7  1  0
 13 20  1  0
 13 14  2  0
 15 16  1  0
 16 18  1  0
 17 16  2  0
 19 18  1  6
 19 21  1  0
 20 19  1  0
 21 22  2  0
 23 24  1  0
 23 21  1  0
 25 26  1  0
 25 24  1  0
 27 25  2  0
M  END
$$$$
