WNG.pdb
     RDKit          3D

 27 28  0  0  1  0  0  0  0  0999 V2000
    7.2587  -17.1120   23.2116 N   0  0  0  0  0  0  0  0  0  0  0  0
    8.3906  -16.1757   23.2587 C   0  0  1  0  0  0  0  0  0  0  0  0
    8.6185  -15.8839   24.7471 C   0  0  0  0  0  0  0  0  0  0  0  0
    7.4671  -15.1018   25.2786 C   0  0  0  0  0  0  0  0  0  0  0  0
    6.2526  -15.6109   25.6282 C   0  0  0  0  0  0  0  0  0  0  0  0
    5.5063  -14.5756   26.0559 N   0  0  0  0  0  0  0  0  0  0  0  0
    6.2168  -13.4395   25.9837 C   0  0  0  0  0  0  0  0  0  0  0  0
    5.9279  -12.1364   26.2912 C   0  0  0  0  0  0  0  0  0  0  0  0
    6.8687  -11.1559   26.1125 C   0  0  0  0  0  0  0  0  0  0  0  0
    8.1259  -11.4578   25.6196 C   0  0  0  0  0  0  0  0  0  0  0  0
    8.4297  -12.7523   25.3083 C   0  0  0  0  0  0  0  0  0  0  0  0
    7.4757  -13.7432   25.4902 C   0  0  0  0  0  0  0  0  0  0  0  0
    9.6146  -16.8387   22.7142 C   0  0  0  0  0  0  0  0  0  0  0  0
    9.5778  -18.0554   22.4587 O   0  0  0  0  0  0  0  0  0  0  0  0
   11.8106  -16.5273   19.1508 N   0  0  0  0  0  0  0  0  0  0  0  0
   12.4220  -15.4808   19.9444 C   0  0  0  0  0  0  0  0  0  0  0  0
   12.4685  -14.3722   19.3635 O   0  0  0  0  0  0  0  0  0  0  0  0
   12.9208  -15.7647   21.3016 C   0  0  0  0  0  0  0  0  0  0  0  0
   12.0453  -16.7184   22.0122 C   0  0  2  0  0  0  0  0  0  0  0  0
   10.8049  -16.1315   22.4821 N   0  0  0  0  0  0  0  0  0  0  0  0
   12.7377  -17.2922   23.1831 C   0  0  0  0  0  0  0  0  0  0  0  0
   13.7467  -18.0232   23.1630 O   0  0  0  0  0  0  0  0  0  0  0  0
   12.2388  -17.0114   24.5185 N   0  0  0  0  0  0  0  0  0  0  0  0
   11.9781  -18.0938   25.4380 C   0  0  0  0  0  0  0  0  0  0  0  0
   13.2367  -18.6951   25.9276 C   0  0  0  0  0  0  0  0  0  0  0  0
   13.5666  -18.8448   27.2575 O   0  0  0  0  0  0  0  0  0  0  0  0
   14.0699  -19.1005   25.0799 O   0  0  0  0  0  0  0  0  0  0  0  0
  2  1  1  1
  2 13  1  0
  3  2  1  0
  3  4  1  0
  4 12  1  0
  4  5  2  0
  5  6  1  0
  7  8  2  0
  7  6  1  0
  9  8  1  0
 10  9  2  0
 11 10  1  0
 11 12  2  0
 12  7  1  0
 13 20  1  0
 13 14  2  0
 15 16  1  0
 16 18  1  0
 17 16  2  0
 19 18  1  1
 19 21  1  0
 20 19  1  0
 21 22  2  0
 23 24  1  0
 23 21  1  0
 25 26  1  0
 25 24  1  0
 27 25  2  0
M  END
$$$$
