WNG.pdb
     RDKit          3D

 27 28  0  0  1  0  0  0  0  0999 V2000
    8.3384  -15.8168   23.0743 N   0  0  0  0  0  0  0  0  0  0  0  0
    9.3786  -15.4841   24.0579 C   0  0  1  0  0  0  0  0  0  0  0  0
    8.8106  -15.9157   25.4158 C   0  0  0  0  0  0  0  0  0  0  0  0
    7.5831  -15.1244   25.7112 C   0  0  0  0  0  0  0  0  0  0  0  0
    6.3181  -15.6221   25.8034 C   0  0  0  0  0  0  0  0  0  0  0  0
    5.5110  -14.5814   26.0814 N   0  0  0  0  0  0  0  0  0  0  0  0
    6.2325  -13.4531   26.1652 C   0  0  0  0  0  0  0  0  0  0  0  0
    5.9002  -12.1491   26.4206 C   0  0  0  0  0  0  0  0  0  0  0  0
    6.8671  -11.1782   26.4451 C   0  0  0  0  0  0  0  0  0  0  0  0
    8.1950  -11.4908   26.2135 C   0  0  0  0  0  0  0  0  0  0  0  0
    8.5428  -12.7864   25.9574 C   0  0  0  0  0  0  0  0  0  0  0  0
    7.5621  -13.7676   25.9333 C   0  0  0  0  0  0  0  0  0  0  0  0
   10.6074  -16.2893   23.7822 C   0  0  0  0  0  0  0  0  0  0  0  0
   11.5385  -16.2690   24.6066 O   0  0  0  0  0  0  0  0  0  0  0  0
    9.6103  -19.7961   20.4116 N   0  0  0  0  0  0  0  0  0  0  0  0
   10.7292  -19.6434   21.3191 C   0  0  0  0  0  0  0  0  0  0  0  0
   10.6924  -20.4246   22.2975 O   0  0  0  0  0  0  0  0  0  0  0  0
   11.7772  -18.6422   21.0540 C   0  0  0  0  0  0  0  0  0  0  0  0
   11.9625  -17.7341   22.2039 C   0  0  2  0  0  0  0  0  0  0  0  0
   10.7440  -17.0679   22.6221 N   0  0  0  0  0  0  0  0  0  0  0  0
   12.9564  -16.6883   21.8902 C   0  0  0  0  0  0  0  0  0  0  0  0
   12.8170  -15.7526   21.0792 O   0  0  0  0  0  0  0  0  0  0  0  0
   14.2441  -16.6996   22.5630 N   0  0  0  0  0  0  0  0  0  0  0  0
   15.2480  -15.7184   22.2244 C   0  0  0  0  0  0  0  0  0  0  0  0
   16.4317  -15.8393   23.1015 C   0  0  0  0  0  0  0  0  0  0  0  0
   17.5304  -15.0084   23.0516 O   0  0  0  0  0  0  0  0  0  0  0  0
   16.4468  -16.7607   23.9547 O   0  0  0  0  0  0  0  0  0  0  0  0
  2  1  1  6
  2 13  1  0
  3  2  1  0
  3  4  1  0
  4 12  1  0
  4  5  2  0
  5  6  1  0
  7  8  2  0
  7  6  1  0
  9  8  1  0
 10  9  2  0
 11 10  1  0
 11 12  2  0
 12  7  1  0
 13 20  1  0
 13 14  2  0
 15 16  1  0
 16 18  1  0
 17 16  2  0
 19 18  1  6
 19 21  1  0
 20 19  1  0
 21 22  2  0
 23 24  1  0
 23 21  1  0
 25 26  1  0
 25 24  1  0
 27 25  2  0
M  END
$$$$
