WNG.pdb
     RDKit          3D

 27 28  0  0  1  0  0  0  0  0999 V2000
    6.8056  -17.0755   25.4550 N   0  0  0  0  0  0  0  0  0  0  0  0
    7.0370  -16.0579   24.4201 C   0  0  1  0  0  0  0  0  0  0  0  0
    8.3954  -15.4314   24.7588 C   0  0  0  0  0  0  0  0  0  0  0  0
    8.2864  -14.6805   26.0412 C   0  0  0  0  0  0  0  0  0  0  0  0
    8.8998  -15.0114   27.2120 C   0  0  0  0  0  0  0  0  0  0  0  0
    8.5404  -14.0802   28.1150 N   0  0  0  0  0  0  0  0  0  0  0  0
    7.7238  -13.1813   27.5442 C   0  0  0  0  0  0  0  0  0  0  0  0
    7.0914  -12.0618   28.0166 C   0  0  0  0  0  0  0  0  0  0  0  0
    6.2959  -11.3126   27.1896 C   0  0  0  0  0  0  0  0  0  0  0  0
    6.1136  -11.6677   25.8647 C   0  0  0  0  0  0  0  0  0  0  0  0
    6.7372  -12.7811   25.3782 C   0  0  0  0  0  0  0  0  0  0  0  0
    7.5422  -13.5379   26.2174 C   0  0  0  0  0  0  0  0  0  0  0  0
    7.1406  -16.7160   23.0820 C   0  0  0  0  0  0  0  0  0  0  0  0
    6.9000  -17.9328   22.9887 O   0  0  0  0  0  0  0  0  0  0  0  0
    8.9418  -14.1916   20.7949 N   0  0  0  0  0  0  0  0  0  0  0  0
    8.0411  -14.3509   19.6715 C   0  0  0  0  0  0  0  0  0  0  0  0
    8.0423  -13.3765   18.8846 O   0  0  0  0  0  0  0  0  0  0  0  0
    7.2290  -15.5723   19.5302 C   0  0  0  0  0  0  0  0  0  0  0  0
    7.5417  -16.5562   20.5862 C   0  0  2  0  0  0  0  0  0  0  0  0
    7.5010  -16.0043   21.9269 N   0  0  0  0  0  0  0  0  0  0  0  0
    8.8854  -17.1331   20.3830 C   0  0  0  0  0  0  0  0  0  0  0  0
    9.2932  -17.7212   19.3629 O   0  0  0  0  0  0  0  0  0  0  0  0
    9.8740  -17.0359   21.4433 N   0  0  0  0  0  0  0  0  0  0  0  0
   11.1363  -17.7269   21.3237 C   0  0  0  0  0  0  0  0  0  0  0  0
   12.1132  -16.9277   20.5542 C   0  0  0  0  0  0  0  0  0  0  0  0
   13.2180  -16.3080   21.0977 O   0  0  0  0  0  0  0  0  0  0  0  0
   11.9321  -16.7983   19.3182 O   0  0  0  0  0  0  0  0  0  0  0  0
  2  1  1  1
  2 13  1  0
  3  2  1  0
  3  4  1  0
  4 12  1  0
  4  5  2  0
  5  6  1  0
  7  8  2  0
  7  6  1  0
  9  8  1  0
 10  9  2  0
 11 10  1  0
 11 12  2  0
 12  7  1  0
 13 20  1  0
 13 14  2  0
 15 16  1  0
 16 18  1  0
 17 16  2  0
 19 18  1  6
 19 21  1  0
 20 19  1  0
 21 22  2  0
 23 24  1  0
 23 21  1  0
 25 26  1  0
 25 24  1  0
 27 25  2  0
M  END
$$$$
