WNG.pdb
     RDKit          3D

 27 28  0  0  1  0  0  0  0  0999 V2000
    7.1923  -17.6746   24.1477 N   0  0  0  0  0  0  0  0  0  0  0  0
    7.9205  -16.5574   23.5300 C   0  0  1  0  0  0  0  0  0  0  0  0
    8.5715  -15.8000   24.6941 C   0  0  0  0  0  0  0  0  0  0  0  0
    7.5180  -15.0859   25.4688 C   0  0  0  0  0  0  0  0  0  0  0  0
    6.5207  -15.6748   26.1864 C   0  0  0  0  0  0  0  0  0  0  0  0
    5.7927  -14.6803   26.7275 N   0  0  0  0  0  0  0  0  0  0  0  0
    6.3045  -13.4926   26.3700 C   0  0  0  0  0  0  0  0  0  0  0  0
    5.9454  -12.1999   26.6460 C   0  0  0  0  0  0  0  0  0  0  0  0
    6.6677  -11.1541   26.1333 C   0  0  0  0  0  0  0  0  0  0  0  0
    7.7709  -11.3783   25.3287 C   0  0  0  0  0  0  0  0  0  0  0  0
    8.1421  -12.6614   25.0441 C   0  0  0  0  0  0  0  0  0  0  0  0
    7.4094  -13.7185   25.5645 C   0  0  0  0  0  0  0  0  0  0  0  0
    9.0035  -17.0896   22.6479 C   0  0  0  0  0  0  0  0  0  0  0  0
    9.2636  -18.3054   22.6797 O   0  0  0  0  0  0  0  0  0  0  0  0
    9.1662  -18.1512   18.6518 N   0  0  0  0  0  0  0  0  0  0  0  0
    9.3330  -16.7281   18.8656 C   0  0  0  0  0  0  0  0  0  0  0  0
    8.3545  -16.0451   18.4852 O   0  0  0  0  0  0  0  0  0  0  0  0
   10.5653  -16.2024   19.4789 C   0  0  0  0  0  0  0  0  0  0  0  0
   10.7494  -16.7160   20.8513 C   0  0  2  0  0  0  0  0  0  0  0  0
    9.7367  -16.2604   21.7843 N   0  0  0  0  0  0  0  0  0  0  0  0
   12.0638  -16.3127   21.3893 C   0  0  0  0  0  0  0  0  0  0  0  0
   13.1594  -16.3831   20.7998 O   0  0  0  0  0  0  0  0  0  0  0  0
   12.1513  -15.7725   22.7352 N   0  0  0  0  0  0  0  0  0  0  0  0
   13.4379  -15.4450   23.3031 C   0  0  0  0  0  0  0  0  0  0  0  0
   14.0835  -16.6385   23.8897 C   0  0  0  0  0  0  0  0  0  0  0  0
   15.2711  -16.6212   24.5893 O   0  0  0  0  0  0  0  0  0  0  0  0
   13.5181  -17.7505   23.7453 O   0  0  0  0  0  0  0  0  0  0  0  0
  2  1  1  1
  2 13  1  0
  3  2  1  0
  3  4  1  0
  4 12  1  0
  4  5  2  0
  5  6  1  0
  7  8  2  0
  7  6  1  0
  9  8  1  0
 10  9  2  0
 11 10  1  0
 11 12  2  0
 12  7  1  0
 13 20  1  0
 13 14  2  0
 15 16  1  0
 16 18  1  0
 17 16  2  0
 19 18  1  6
 19 21  1  0
 20 19  1  0
 21 22  2  0
 23 24  1  0
 23 21  1  0
 25 26  1  0
 25 24  1  0
 27 25  2  0
M  END
$$$$
