IGQ.pdb
     RDKit          3D

 22 21  0  0  1  0  0  0  0  0999 V2000
   26.1836  -15.7914  -16.0884 C   0  0  0  0  0  0  0  0  0  0  0  0
   25.0568  -15.0036  -16.6794 C   0  0  0  0  0  0  0  0  0  0  0  0
   24.4121  -14.0590  -15.6814 C   0  0  2  0  0  0  0  0  0  0  0  0
   23.8554  -14.7747  -14.4927 C   0  0  0  0  0  0  0  0  0  0  0  0
   23.3145  -13.3171  -16.4263 C   0  0  2  0  0  0  0  0  0  0  0  0
   23.8956  -12.7667  -17.6137 N   0  0  0  0  0  0  0  0  0  0  0  0
   22.6641  -12.2908  -15.5733 C   0  0  0  0  0  0  0  0  0  0  0  0
   21.9275  -12.7463  -14.6351 O   0  0  0  0  0  0  0  0  0  0  0  0
   22.8300  -10.9037  -15.7625 N   0  0  0  0  0  0  0  0  0  0  0  0
   22.2917   -9.9789  -14.8014 C   0  0  0  0  0  0  0  0  0  0  0  0
   22.7271   -8.6117  -15.1902 C   0  0  0  0  0  0  0  0  0  0  0  0
   23.3304   -8.3871  -16.2716 O   0  0  0  0  0  0  0  0  0  0  0  0
   17.8438   -6.0993  -16.4282 N   0  0  0  0  0  0  0  0  0  0  0  0
   19.2111   -5.7917  -16.5971 C   0  0  0  0  0  0  0  0  0  0  0  0
   19.6007   -5.3519  -17.6974 O   0  0  0  0  0  0  0  0  0  0  0  0
   20.1802   -5.9831  -15.4937 C   0  0  0  0  0  0  0  0  0  0  0  0
   21.5974   -5.8746  -15.9536 C   0  0  0  0  0  0  0  0  0  0  0  0
   22.6266   -6.1043  -14.8746 C   0  0  2  0  0  0  0  0  0  0  0  0
   22.4862   -7.4745  -14.3599 N   0  0  0  0  0  0  0  0  0  0  0  0
   22.4683   -5.1523  -13.7667 C   0  0  0  0  0  0  0  0  0  0  0  0
   22.8056   -3.8082  -13.8000 O   0  0  0  0  0  0  0  0  0  0  0  0
   21.9764   -5.6017  -12.6723 O   0  0  0  0  0  0  0  0  0  0  0  0
  2  1  1  0
  3  2  1  0
  3  5  1  0
  3  4  1  1
  5  6  1  6
  7  9  1  0
  7  5  1  0
  8  7  2  0
 10 11  1  0
 10  9  1  0
 11 19  1  0
 12 11  2  0
 14 13  1  0
 15 14  2  0
 16 14  1  0
 17 16  1  0
 18 17  1  6
 18 20  1  0
 19 18  1  0
 20 22  2  0
 20 21  1  0
M  END
$$$$
