IGQ.pdb
     RDKit          3D

 22 21  0  0  1  0  0  0  0  0999 V2000
   28.8960  -20.0718   -4.4285 C   0  0  0  0  0  0  0  0  0  0  0  0
   27.6090  -20.2664   -5.1669 C   0  0  0  0  0  0  0  0  0  0  0  0
   27.7149  -19.9091   -6.6383 C   0  0  2  0  0  0  0  0  0  0  0  0
   28.0843  -18.4766   -6.8546 C   0  0  0  0  0  0  0  0  0  0  0  0
   26.3636  -20.2170   -7.2623 C   0  0  2  0  0  0  0  0  0  0  0  0
   26.0407  -21.5750   -6.9427 N   0  0  0  0  0  0  0  0  0  0  0  0
   26.3557  -19.9506   -8.7228 C   0  0  0  0  0  0  0  0  0  0  0  0
   26.1585  -18.7338   -9.0556 O   0  0  0  0  0  0  0  0  0  0  0  0
   26.5496  -20.9512   -9.6967 N   0  0  0  0  0  0  0  0  0  0  0  0
   26.5605  -20.6021  -11.0919 C   0  0  0  0  0  0  0  0  0  0  0  0
   25.2488  -20.9947  -11.6708 C   0  0  0  0  0  0  0  0  0  0  0  0
   24.3775  -21.6018  -10.9954 O   0  0  0  0  0  0  0  0  0  0  0  0
   20.4354  -22.7849  -13.0722 N   0  0  0  0  0  0  0  0  0  0  0  0
   20.5114  -21.5430  -12.4056 C   0  0  0  0  0  0  0  0  0  0  0  0
   20.0504  -21.4472  -11.2506 O   0  0  0  0  0  0  0  0  0  0  0  0
   21.1265  -20.3627  -13.0551 C   0  0  0  0  0  0  0  0  0  0  0  0
   22.5586  -20.1814  -12.6706 C   0  0  0  0  0  0  0  0  0  0  0  0
   23.5405  -20.9331  -13.5349 C   0  0  2  0  0  0  0  0  0  0  0  0
   24.9013  -20.7061  -13.0260 N   0  0  0  0  0  0  0  0  0  0  0  0
   23.4688  -20.4978  -14.9364 C   0  0  0  0  0  0  0  0  0  0  0  0
   22.5547  -20.9457  -15.8773 O   0  0  0  0  0  0  0  0  0  0  0  0
   24.3261  -19.6289  -15.3258 O   0  0  0  0  0  0  0  0  0  0  0  0
  2  1  1  0
  3  2  1  0
  3  5  1  0
  3  4  1  1
  5  6  1  6
  7  9  1  0
  7  5  1  0
  8  7  2  0
 10 11  1  0
 10  9  1  0
 11 19  1  0
 12 11  2  0
 14 13  1  0
 15 14  2  0
 16 14  1  0
 17 16  1  0
 18 17  1  1
 18 20  1  0
 19 18  1  0
 20 22  2  0
 20 21  1  0
M  END
$$$$
