IGQ.pdb
     RDKit          3D

 22 21  0  0  1  0  0  0  0  0999 V2000
   18.4393  -13.4708  -20.8999 C   0  0  0  0  0  0  0  0  0  0  0  0
   19.3271  -13.1839  -19.7298 C   0  0  0  0  0  0  0  0  0  0  0  0
   18.9162  -11.9348  -18.9716 C   0  0  2  0  0  0  0  0  0  0  0  0
   19.0314  -10.6970  -19.8021 C   0  0  0  0  0  0  0  0  0  0  0  0
   19.8151  -11.8488  -17.7491 C   0  0  2  0  0  0  0  0  0  0  0  0
   19.8616  -13.1512  -17.1557 N   0  0  0  0  0  0  0  0  0  0  0  0
   19.3612  -10.7994  -16.8020 C   0  0  0  0  0  0  0  0  0  0  0  0
   18.2875  -11.0657  -16.1644 O   0  0  0  0  0  0  0  0  0  0  0  0
   20.0474   -9.5846  -16.6004 N   0  0  0  0  0  0  0  0  0  0  0  0
   19.5721   -8.6462  -15.6194 C   0  0  0  0  0  0  0  0  0  0  0  0
   20.4279   -7.4331  -15.6961 C   0  0  0  0  0  0  0  0  0  0  0  0
   21.3487   -7.3202  -16.5466 O   0  0  0  0  0  0  0  0  0  0  0  0
   18.6346   -1.6343  -14.4333 N   0  0  0  0  0  0  0  0  0  0  0  0
   18.5246   -2.3640  -15.6366 C   0  0  0  0  0  0  0  0  0  0  0  0
   17.7336   -1.9662  -16.5152 O   0  0  0  0  0  0  0  0  0  0  0  0
   19.3298   -3.5854  -15.8668 C   0  0  0  0  0  0  0  0  0  0  0  0
   20.2290   -3.9013  -14.7164 C   0  0  0  0  0  0  0  0  0  0  0  0
   21.0933   -5.1223  -14.9123 C   0  0  2  0  0  0  0  0  0  0  0  0
   20.2552   -6.3263  -14.8098 N   0  0  0  0  0  0  0  0  0  0  0  0
   22.1646   -5.1913  -13.9092 C   0  0  0  0  0  0  0  0  0  0  0  0
   23.3953   -4.5591  -13.9945 O   0  0  0  0  0  0  0  0  0  0  0  0
   21.9449   -5.8981  -12.8633 O   0  0  0  0  0  0  0  0  0  0  0  0
  2  1  1  0
  3  2  1  0
  3  5  1  0
  3  4  1  6
  5  6  1  1
  7  9  1  0
  7  5  1  0
  8  7  2  0
 10 11  1  0
 10  9  1  0
 11 19  1  0
 12 11  2  0
 14 13  1  0
 15 14  2  0
 16 14  1  0
 17 16  1  0
 18 17  1  1
 18 20  1  0
 19 18  1  0
 20 22  2  0
 20 21  1  0
M  END
$$$$
