IGQ.pdb
     RDKit          3D

 22 21  0  0  1  0  0  0  0  0999 V2000
   26.2952  -17.6341  -17.0833 C   0  0  0  0  0  0  0  0  0  0  0  0
   26.2807  -16.3228  -16.3623 C   0  0  0  0  0  0  0  0  0  0  0  0
   25.1323  -15.4279  -16.7913 C   0  0  2  0  0  0  0  0  0  0  0  0
   25.1182  -15.1817  -18.2658 C   0  0  0  0  0  0  0  0  0  0  0  0
   25.2856  -14.1223  -16.0285 C   0  0  2  0  0  0  0  0  0  0  0  0
   25.3221  -14.4402  -14.6328 N   0  0  0  0  0  0  0  0  0  0  0  0
   24.2149  -13.1528  -16.3715 C   0  0  0  0  0  0  0  0  0  0  0  0
   24.3121  -12.6165  -17.5261 O   0  0  0  0  0  0  0  0  0  0  0  0
   23.1530  -12.8278  -15.5031 N   0  0  0  0  0  0  0  0  0  0  0  0
   22.0961  -11.9629  -15.9542 C   0  0  0  0  0  0  0  0  0  0  0  0
   22.3232  -10.6180  -15.3627 C   0  0  0  0  0  0  0  0  0  0  0  0
   23.2104  -10.4137  -14.4938 O   0  0  0  0  0  0  0  0  0  0  0  0
   22.7216   -5.4328  -18.4021 N   0  0  0  0  0  0  0  0  0  0  0  0
   21.4509   -6.0472  -18.3889 C   0  0  0  0  0  0  0  0  0  0  0  0
   20.6329   -5.7645  -19.2871 O   0  0  0  0  0  0  0  0  0  0  0  0
   21.0802   -7.0150  -17.3310 C   0  0  0  0  0  0  0  0  0  0  0  0
   22.1694   -7.2079  -16.3269 C   0  0  0  0  0  0  0  0  0  0  0  0
   21.8221   -8.1446  -15.1963 C   0  0  2  0  0  0  0  0  0  0  0  0
   21.5483   -9.4808  -15.7457 N   0  0  0  0  0  0  0  0  0  0  0  0
   20.6456   -7.6771  -14.4507 C   0  0  0  0  0  0  0  0  0  0  0  0
   19.3787   -8.2373  -14.5037 O   0  0  0  0  0  0  0  0  0  0  0  0
   20.8012   -6.6621  -13.6845 O   0  0  0  0  0  0  0  0  0  0  0  0
  2  1  1  0
  3  2  1  0
  3  5  1  0
  3  4  1  6
  5  6  1  1
  7  9  1  0
  7  5  1  0
  8  7  2  0
 10 11  1  0
 10  9  1  0
 11 19  1  0
 12 11  2  0
 14 13  1  0
 15 14  2  0
 16 14  1  0
 17 16  1  0
 18 17  1  6
 18 20  1  0
 19 18  1  0
 20 22  2  0
 20 21  1  0
M  END
$$$$
