IGQ.pdb
     RDKit          3D

 22 21  0  0  1  0  0  0  0  0999 V2000
   25.7763  -16.6232  -16.0320 C   0  0  0  0  0  0  0  0  0  0  0  0
   26.3610  -17.9621  -16.3562 C   0  0  0  0  0  0  0  0  0  0  0  0
   27.8781  -17.9466  -16.4010 C   0  0  2  0  0  0  0  0  0  0  0  0
   28.4089  -17.1532  -17.5516 C   0  0  0  0  0  0  0  0  0  0  0  0
   28.3286  -19.3952  -16.4921 C   0  0  2  0  0  0  0  0  0  0  0  0
   27.7056  -19.9686  -17.6469 N   0  0  0  0  0  0  0  0  0  0  0  0
   28.0335  -20.1452  -15.2453 C   0  0  0  0  0  0  0  0  0  0  0  0
   27.0582  -20.9660  -15.3187 O   0  0  0  0  0  0  0  0  0  0  0  0
   28.7623  -19.9831  -14.0494 N   0  0  0  0  0  0  0  0  0  0  0  0
   28.5005  -20.8438  -12.9272 C   0  0  0  0  0  0  0  0  0  0  0  0
   27.2536  -20.3708  -12.2705 C   0  0  0  0  0  0  0  0  0  0  0  0
   26.9261  -19.1557  -12.2596 O   0  0  0  0  0  0  0  0  0  0  0  0
   22.0397  -20.6887  -13.3216 N   0  0  0  0  0  0  0  0  0  0  0  0
   21.6739  -20.7082  -11.9584 C   0  0  0  0  0  0  0  0  0  0  0  0
   20.5227  -20.3527  -11.6358 O   0  0  0  0  0  0  0  0  0  0  0  0
   22.6319  -21.1420  -10.9155 C   0  0  0  0  0  0  0  0  0  0  0  0
   23.9491  -21.5546  -11.4868 C   0  0  0  0  0  0  0  0  0  0  0  0
   25.1325  -20.7837  -10.9562 C   0  0  2  0  0  0  0  0  0  0  0  0
   26.3555  -21.2670  -11.6142 N   0  0  0  0  0  0  0  0  0  0  0  0
   25.2706  -20.9411   -9.5019 C   0  0  0  0  0  0  0  0  0  0  0  0
   24.5994  -20.2017   -8.5404 O   0  0  0  0  0  0  0  0  0  0  0  0
   26.0828  -21.8391   -9.0831 O   0  0  0  0  0  0  0  0  0  0  0  0
  2  1  1  0
  3  2  1  0
  3  5  1  0
  3  4  1  6
  5  6  1  6
  7  9  1  0
  7  5  1  0
  8  7  2  0
 10 11  1  0
 10  9  1  0
 11 19  1  0
 12 11  2  0
 14 13  1  0
 15 14  2  0
 16 14  1  0
 17 16  1  0
 18 17  1  6
 18 20  1  0
 19 18  1  0
 20 22  2  0
 20 21  1  0
M  END
$$$$
