IGQ.pdb
     RDKit          3D

 22 21  0  0  1  0  0  0  0  0999 V2000
   23.8836  -10.8170  -16.9599 C   0  0  0  0  0  0  0  0  0  0  0  0
   22.8767   -9.7515  -16.6595 C   0  0  0  0  0  0  0  0  0  0  0  0
   22.4932   -9.7010  -15.1917 C   0  0  2  0  0  0  0  0  0  0  0  0
   21.9828  -11.0127  -14.6878 C   0  0  0  0  0  0  0  0  0  0  0  0
   21.4329   -8.6210  -15.0527 C   0  0  2  0  0  0  0  0  0  0  0  0
   22.0147   -7.3871  -15.4880 N   0  0  0  0  0  0  0  0  0  0  0  0
   20.8950   -8.5493  -13.6709 C   0  0  0  0  0  0  0  0  0  0  0  0
   20.1553   -9.5292  -13.3204 O   0  0  0  0  0  0  0  0  0  0  0  0
   21.1651   -7.4859  -12.7856 N   0  0  0  0  0  0  0  0  0  0  0  0
   20.6466   -7.5193  -11.4445 C   0  0  0  0  0  0  0  0  0  0  0  0
   19.2538   -7.0007  -11.4807 C   0  0  0  0  0  0  0  0  0  0  0  0
   18.7596   -6.4911  -12.5199 O   0  0  0  0  0  0  0  0  0  0  0  0
   14.3352   -9.3588   -8.5764 N   0  0  0  0  0  0  0  0  0  0  0  0
   13.7980   -8.1442   -9.0547 C   0  0  0  0  0  0  0  0  0  0  0  0
   12.5749   -7.9334   -8.9310 O   0  0  0  0  0  0  0  0  0  0  0  0
   14.6613   -7.1261   -9.6961 C   0  0  0  0  0  0  0  0  0  0  0  0
   16.0980   -7.5344   -9.7283 C   0  0  0  0  0  0  0  0  0  0  0  0
   17.0186   -6.5395  -10.3909 C   0  0  2  0  0  0  0  0  0  0  0  0
   18.3963   -7.0508  -10.3393 N   0  0  0  0  0  0  0  0  0  0  0  0
   16.9632   -5.2293   -9.7284 C   0  0  0  0  0  0  0  0  0  0  0  0
   16.0606   -4.2162  -10.0124 O   0  0  0  0  0  0  0  0  0  0  0  0
   17.8243   -5.0000   -8.8079 O   0  0  0  0  0  0  0  0  0  0  0  0
  2  1  1  0
  3  2  1  0
  3  5  1  0
  3  4  1  6
  5  6  1  1
  7  9  1  0
  7  5  1  0
  8  7  2  0
 10 11  1  0
 10  9  1  0
 11 19  1  0
 12 11  2  0
 14 13  1  0
 15 14  2  0
 16 14  1  0
 17 16  1  0
 18 17  1  1
 18 20  1  0
 19 18  1  0
 20 22  2  0
 20 21  1  0
M  END
$$$$
