IGQ.pdb
     RDKit          3D

 22 21  0  0  1  0  0  0  0  0999 V2000
   29.5171  -20.8644  -10.4960 C   0  0  0  0  0  0  0  0  0  0  0  0
   28.3584  -21.5737  -11.1236 C   0  0  0  0  0  0  0  0  0  0  0  0
   27.3129  -20.6209  -11.6738 C   0  0  2  0  0  0  0  0  0  0  0  0
   26.6446  -19.8226  -10.6008 C   0  0  0  0  0  0  0  0  0  0  0  0
   26.2994  -21.4686  -12.4248 C   0  0  2  0  0  0  0  0  0  0  0  0
   27.0270  -22.4528  -13.1681 N   0  0  0  0  0  0  0  0  0  0  0  0
   25.4112  -20.6408  -13.2791 C   0  0  0  0  0  0  0  0  0  0  0  0
   24.4482  -20.0646  -12.6700 O   0  0  0  0  0  0  0  0  0  0  0  0
   25.5941  -20.4836  -14.6681 N   0  0  0  0  0  0  0  0  0  0  0  0
   24.7096  -19.6314  -15.4165 C   0  0  0  0  0  0  0  0  0  0  0  0
   23.4577  -20.3895  -15.6772 C   0  0  0  0  0  0  0  0  0  0  0  0
   23.4477  -21.6438  -15.7802 O   0  0  0  0  0  0  0  0  0  0  0  0
   21.2282  -20.8613  -11.0579 N   0  0  0  0  0  0  0  0  0  0  0  0
   20.0575  -21.3083  -11.7075 C   0  0  0  0  0  0  0  0  0  0  0  0
   19.1546  -21.8387  -11.0298 O   0  0  0  0  0  0  0  0  0  0  0  0
   19.8896  -21.1567  -13.1711 C   0  0  0  0  0  0  0  0  0  0  0  0
   21.0868  -20.5453  -13.8226 C   0  0  0  0  0  0  0  0  0  0  0  0
   20.9555  -20.3414  -15.3117 C   0  0  2  0  0  0  0  0  0  0  0  0
   22.1946  -19.7391  -15.8258 N   0  0  0  0  0  0  0  0  0  0  0  0
   19.8206  -19.4674  -15.6383 C   0  0  0  0  0  0  0  0  0  0  0  0
   19.7708  -18.0966  -15.4383 O   0  0  0  0  0  0  0  0  0  0  0  0
   18.7842  -20.0182  -16.1521 O   0  0  0  0  0  0  0  0  0  0  0  0
  2  1  1  0
  3  2  1  0
  3  5  1  0
  3  4  1  1
  5  6  1  6
  7  9  1  0
  7  5  1  0
  8  7  2  0
 10 11  1  0
 10  9  1  0
 11 19  1  0
 12 11  2  0
 14 13  1  0
 15 14  2  0
 16 14  1  0
 17 16  1  0
 18 17  1  1
 18 20  1  0
 19 18  1  0
 20 22  2  0
 20 21  1  0
M  END
$$$$
