IGQ.pdb
     RDKit          3D

 22 21  0  0  1  0  0  0  0  0999 V2000
   28.8894  -19.8928   -7.1981 C   0  0  0  0  0  0  0  0  0  0  0  0
   28.0611  -20.7995   -8.0533 C   0  0  0  0  0  0  0  0  0  0  0  0
   27.1086  -20.0439   -8.9619 C   0  0  2  0  0  0  0  0  0  0  0  0
   26.0953  -19.2530   -8.1985 C   0  0  0  0  0  0  0  0  0  0  0  0
   26.4306  -21.0792   -9.8441 C   0  0  2  0  0  0  0  0  0  0  0  0
   27.4544  -21.9225  -10.3839 N   0  0  0  0  0  0  0  0  0  0  0  0
   25.5915  -20.4471  -10.8931 C   0  0  0  0  0  0  0  0  0  0  0  0
   24.5835  -19.7906  -10.4651 O   0  0  0  0  0  0  0  0  0  0  0  0
   25.8643  -20.5480  -12.2726 N   0  0  0  0  0  0  0  0  0  0  0  0
   24.9909  -19.9164  -13.2249 C   0  0  0  0  0  0  0  0  0  0  0  0
   23.7212  -20.6886  -13.2618 C   0  0  0  0  0  0  0  0  0  0  0  0
   23.5786  -21.7667  -12.6284 O   0  0  0  0  0  0  0  0  0  0  0  0
   19.5578  -17.3724  -14.9231 N   0  0  0  0  0  0  0  0  0  0  0  0
   19.4461  -17.7533  -13.5685 C   0  0  0  0  0  0  0  0  0  0  0  0
   19.0263  -16.9218  -12.7389 O   0  0  0  0  0  0  0  0  0  0  0  0
   19.8180  -19.1162  -13.1240 C   0  0  0  0  0  0  0  0  0  0  0  0
   20.1885  -20.0071  -14.2645 C   0  0  0  0  0  0  0  0  0  0  0  0
   21.3093  -20.9727  -13.9682 C   0  0  2  0  0  0  0  0  0  0  0  0
   22.5903  -20.2523  -14.0176 N   0  0  0  0  0  0  0  0  0  0  0  0
   21.3381  -22.0786  -14.9350 C   0  0  0  0  0  0  0  0  0  0  0  0
   20.5589  -23.2236  -14.8784 O   0  0  0  0  0  0  0  0  0  0  0  0
   22.1552  -21.9790  -15.9168 O   0  0  0  0  0  0  0  0  0  0  0  0
  2  1  1  0
  3  2  1  0
  3  5  1  0
  3  4  1  1
  5  6  1  6
  7  9  1  0
  7  5  1  0
  8  7  2  0
 10 11  1  0
 10  9  1  0
 11 19  1  0
 12 11  2  0
 14 13  1  0
 15 14  2  0
 16 14  1  0
 17 16  1  0
 18 17  1  6
 18 20  1  0
 19 18  1  0
 20 22  2  0
 20 21  1  0
M  END
$$$$
