IGQ.pdb
     RDKit          3D

 22 21  0  0  1  0  0  0  0  0999 V2000
   18.7321  -11.6271  -16.2484 C   0  0  0  0  0  0  0  0  0  0  0  0
   19.8253  -10.8572  -15.5763 C   0  0  0  0  0  0  0  0  0  0  0  0
   20.6112   -9.9873  -16.5405 C   0  0  2  0  0  0  0  0  0  0  0  0
   21.3119  -10.7866  -17.5918 C   0  0  0  0  0  0  0  0  0  0  0  0
   21.6094   -9.2008  -15.7070 C   0  0  2  0  0  0  0  0  0  0  0  0
   22.2828  -10.1301  -14.8505 N   0  0  0  0  0  0  0  0  0  0  0  0
   20.9568   -8.0963  -14.9598 C   0  0  0  0  0  0  0  0  0  0  0  0
   20.5003   -7.1448  -15.6784 O   0  0  0  0  0  0  0  0  0  0  0  0
   20.8353   -8.0731  -13.5555 N   0  0  0  0  0  0  0  0  0  0  0  0
   20.0727   -7.0333  -12.9183 C   0  0  0  0  0  0  0  0  0  0  0  0
   18.6801   -7.5259  -12.7512 C   0  0  0  0  0  0  0  0  0  0  0  0
   18.2396   -8.5107  -13.3993 O   0  0  0  0  0  0  0  0  0  0  0  0
   15.0827   -6.8826   -7.6418 N   0  0  0  0  0  0  0  0  0  0  0  0
   14.2149   -7.5477   -8.5346 C   0  0  0  0  0  0  0  0  0  0  0  0
   13.0888   -7.9023   -8.1323 O   0  0  0  0  0  0  0  0  0  0  0  0
   14.6216   -7.8273   -9.9309 C   0  0  0  0  0  0  0  0  0  0  0  0
   16.0013   -7.3399  -10.2320 C   0  0  0  0  0  0  0  0  0  0  0  0
   16.3878   -7.4102  -11.6886 C   0  0  2  0  0  0  0  0  0  0  0  0
   17.7619   -6.9107  -11.8462 N   0  0  0  0  0  0  0  0  0  0  0  0
   15.4831   -6.6107  -12.5259 C   0  0  0  0  0  0  0  0  0  0  0  0
   14.2680   -7.0363  -13.0397 O   0  0  0  0  0  0  0  0  0  0  0  0
   15.8474   -5.4153  -12.8083 O   0  0  0  0  0  0  0  0  0  0  0  0
  2  1  1  0
  3  2  1  0
  3  5  1  0
  3  4  1  6
  5  6  1  1
  7  9  1  0
  7  5  1  0
  8  7  2  0
 10 11  1  0
 10  9  1  0
 11 19  1  0
 12 11  2  0
 14 13  1  0
 15 14  2  0
 16 14  1  0
 17 16  1  0
 18 17  1  1
 18 20  1  0
 19 18  1  0
 20 22  2  0
 20 21  1  0
M  END
$$$$
