IGQ.pdb
     RDKit          3D

 22 21  0  0  1  0  0  0  0  0999 V2000
   27.1688  -15.5978  -17.6451 C   0  0  0  0  0  0  0  0  0  0  0  0
   26.1485  -16.6695  -17.8686 C   0  0  0  0  0  0  0  0  0  0  0  0
   26.0544  -17.6438  -16.7085 C   0  0  2  0  0  0  0  0  0  0  0  0
   25.8959  -16.9530  -15.3921 C   0  0  0  0  0  0  0  0  0  0  0  0
   27.3263  -18.4755  -16.7307 C   0  0  2  0  0  0  0  0  0  0  0  0
   27.4343  -19.0633  -18.0320 N   0  0  0  0  0  0  0  0  0  0  0  0
   27.3475  -19.4821  -15.6396 C   0  0  0  0  0  0  0  0  0  0  0  0
   26.4374  -20.3754  -15.7020 O   0  0  0  0  0  0  0  0  0  0  0  0
   28.2942  -19.4766  -14.5950 N   0  0  0  0  0  0  0  0  0  0  0  0
   28.1991  -20.4444  -13.5354 C   0  0  0  0  0  0  0  0  0  0  0  0
   27.1692  -19.9693  -12.5744 C   0  0  0  0  0  0  0  0  0  0  0  0
   26.6727  -18.8151  -12.6467 O   0  0  0  0  0  0  0  0  0  0  0  0
   21.3076  -21.8212   -9.0833 N   0  0  0  0  0  0  0  0  0  0  0  0
   21.9989  -21.1930  -10.1417 C   0  0  0  0  0  0  0  0  0  0  0  0
   21.5250  -21.2534  -11.2939 O   0  0  0  0  0  0  0  0  0  0  0  0
   23.2687  -20.4692   -9.9028 C   0  0  0  0  0  0  0  0  0  0  0  0
   24.3728  -20.9464  -10.7887 C   0  0  0  0  0  0  0  0  0  0  0  0
   25.7083  -20.2918  -10.5351 C   0  0  2  0  0  0  0  0  0  0  0  0
   26.6838  -20.7943  -11.5140 N   0  0  0  0  0  0  0  0  0  0  0  0
   26.1967  -20.5710   -9.1778 C   0  0  0  0  0  0  0  0  0  0  0  0
   27.3650  -21.2464   -8.8610 O   0  0  0  0  0  0  0  0  0  0  0  0
   25.4812  -20.1559   -8.1994 O   0  0  0  0  0  0  0  0  0  0  0  0
  2  1  1  0
  3  2  1  0
  3  5  1  0
  3  4  1  1
  5  6  1  6
  7  9  1  0
  7  5  1  0
  8  7  2  0
 10 11  1  0
 10  9  1  0
 11 19  1  0
 12 11  2  0
 14 13  1  0
 15 14  2  0
 16 14  1  0
 17 16  1  0
 18 17  1  6
 18 20  1  0
 19 18  1  0
 20 22  2  0
 20 21  1  0
M  END
$$$$
