IGQ.pdb
     RDKit          3D

 22 21  0  0  1  0  0  0  0  0999 V2000
   30.5609  -21.5976  -11.2372 C   0  0  0  0  0  0  0  0  0  0  0  0
   29.2244  -21.2612  -10.6540 C   0  0  0  0  0  0  0  0  0  0  0  0
   28.2247  -20.8020  -11.6997 C   0  0  2  0  0  0  0  0  0  0  0  0
   28.7201  -19.6349  -12.4919 C   0  0  0  0  0  0  0  0  0  0  0  0
   26.9469  -20.4460  -10.9577 C   0  0  2  0  0  0  0  0  0  0  0  0
   26.5966  -21.5679  -10.1397 N   0  0  0  0  0  0  0  0  0  0  0  0
   25.8602  -20.0486  -11.8878 C   0  0  0  0  0  0  0  0  0  0  0  0
   26.0032  -18.9061  -12.4396 O   0  0  0  0  0  0  0  0  0  0  0  0
   24.7373  -20.8558  -12.1617 N   0  0  0  0  0  0  0  0  0  0  0  0
   23.7219  -20.3893  -13.0673 C   0  0  0  0  0  0  0  0  0  0  0  0
   22.5092  -21.2243  -12.8624 C   0  0  0  0  0  0  0  0  0  0  0  0
   22.3307  -21.8932  -11.8114 O   0  0  0  0  0  0  0  0  0  0  0  0
   19.2488  -23.3575   -9.6935 N   0  0  0  0  0  0  0  0  0  0  0  0
   18.9278  -23.4734  -11.0632 C   0  0  0  0  0  0  0  0  0  0  0  0
   19.0642  -24.5786  -11.6252 O   0  0  0  0  0  0  0  0  0  0  0  0
   18.4353  -22.3090  -11.8345 C   0  0  0  0  0  0  0  0  0  0  0  0
   19.5476  -21.4754  -12.3821 C   0  0  0  0  0  0  0  0  0  0  0  0
   20.2363  -22.0626  -13.5892 C   0  0  2  0  0  0  0  0  0  0  0  0
   21.4770  -21.3160  -13.8456 N   0  0  0  0  0  0  0  0  0  0  0  0
   19.3798  -22.0023  -14.7814 C   0  0  0  0  0  0  0  0  0  0  0  0
   18.5086  -22.9946  -15.2032 O   0  0  0  0  0  0  0  0  0  0  0  0
   19.4424  -20.9408  -15.4962 O   0  0  0  0  0  0  0  0  0  0  0  0
  2  1  1  0
  3  2  1  0
  3  5  1  0
  3  4  1  1
  5  6  1  6
  7  9  1  0
  7  5  1  0
  8  7  2  0
 10 11  1  0
 10  9  1  0
 11 19  1  0
 12 11  2  0
 14 13  1  0
 15 14  2  0
 16 14  1  0
 17 16  1  0
 18 17  1  1
 18 20  1  0
 19 18  1  0
 20 22  2  0
 20 21  1  0
M  END
$$$$
