IGQ.pdb
     RDKit          3D

 22 21  0  0  1  0  0  0  0  0999 V2000
   29.0358  -19.6789  -19.6621 C   0  0  0  0  0  0  0  0  0  0  0  0
   28.7630  -18.7355  -18.5328 C   0  0  0  0  0  0  0  0  0  0  0  0
   27.3227  -18.2580  -18.4996 C   0  0  2  0  0  0  0  0  0  0  0  0
   27.0494  -17.1919  -19.5115 C   0  0  0  0  0  0  0  0  0  0  0  0
   27.0635  -17.7446  -17.0928 C   0  0  2  0  0  0  0  0  0  0  0  0
   27.9738  -16.6655  -16.8533 N   0  0  0  0  0  0  0  0  0  0  0  0
   27.1718  -18.8259  -16.0812 C   0  0  0  0  0  0  0  0  0  0  0  0
   26.3717  -19.8078  -16.2425 O   0  0  0  0  0  0  0  0  0  0  0  0
   28.0846  -18.7973  -15.0073 N   0  0  0  0  0  0  0  0  0  0  0  0
   28.1418  -19.8992  -14.0846 C   0  0  0  0  0  0  0  0  0  0  0  0
   27.0764  -19.6985  -13.0675 C   0  0  0  0  0  0  0  0  0  0  0  0
   26.9435  -18.6114  -12.4475 O   0  0  0  0  0  0  0  0  0  0  0  0
   21.7063  -22.7826  -12.5896 N   0  0  0  0  0  0  0  0  0  0  0  0
   21.5736  -21.8242  -11.5618 C   0  0  0  0  0  0  0  0  0  0  0  0
   20.5486  -21.8373  -10.8512 O   0  0  0  0  0  0  0  0  0  0  0  0
   22.6272  -20.8122  -11.3190 C   0  0  0  0  0  0  0  0  0  0  0  0
   23.7687  -20.9363  -12.2747 C   0  0  0  0  0  0  0  0  0  0  0  0
   25.1060  -20.5218  -11.7123 C   0  0  2  0  0  0  0  0  0  0  0  0
   26.1423  -20.7269  -12.7352 N   0  0  0  0  0  0  0  0  0  0  0  0
   25.4500  -21.2967  -10.5124 C   0  0  0  0  0  0  0  0  0  0  0  0
   26.2532  -22.4260  -10.4808 O   0  0  0  0  0  0  0  0  0  0  0  0
   24.9653  -20.8962   -9.3960 O   0  0  0  0  0  0  0  0  0  0  0  0
  2  1  1  0
  3  2  1  0
  3  5  1  0
  3  4  1  6
  5  6  1  1
  7  9  1  0
  7  5  1  0
  8  7  2  0
 10 11  1  0
 10  9  1  0
 11 19  1  0
 12 11  2  0
 14 13  1  0
 15 14  2  0
 16 14  1  0
 17 16  1  0
 18 17  1  6
 18 20  1  0
 19 18  1  0
 20 22  2  0
 20 21  1  0
M  END
$$$$
