IGQ.pdb
     RDKit          3D

 22 21  0  0  1  0  0  0  0  0999 V2000
   29.0544  -11.6317  -17.1777 C   0  0  0  0  0  0  0  0  0  0  0  0
   27.6583  -12.1216  -16.9534 C   0  0  0  0  0  0  0  0  0  0  0  0
   27.6039  -13.3701  -16.0920 C   0  0  2  0  0  0  0  0  0  0  0  0
   28.2941  -14.5344  -16.7271 C   0  0  0  0  0  0  0  0  0  0  0  0
   26.1340  -13.6774  -15.8581 C   0  0  2  0  0  0  0  0  0  0  0  0
   25.5415  -13.9462  -17.1337 N   0  0  0  0  0  0  0  0  0  0  0  0
   25.4506  -12.5829  -15.1238 C   0  0  0  0  0  0  0  0  0  0  0  0
   25.8636  -12.3826  -13.9324 O   0  0  0  0  0  0  0  0  0  0  0  0
   24.4153  -11.8029  -15.6780 N   0  0  0  0  0  0  0  0  0  0  0  0
   23.8346  -10.7326  -14.9125 C   0  0  0  0  0  0  0  0  0  0  0  0
   22.7838  -10.0927  -15.7468 C   0  0  0  0  0  0  0  0  0  0  0  0
   22.7237  -10.2672  -16.9917 O   0  0  0  0  0  0  0  0  0  0  0  0
   16.8590   -9.3133  -14.3575 N   0  0  0  0  0  0  0  0  0  0  0  0
   16.9454   -8.5651  -15.5513 C   0  0  0  0  0  0  0  0  0  0  0  0
   15.8958   -8.1522  -16.0838 O   0  0  0  0  0  0  0  0  0  0  0  0
   18.2556   -8.2670  -16.1740 C   0  0  0  0  0  0  0  0  0  0  0  0
   19.3948   -8.8827  -15.4290 C   0  0  0  0  0  0  0  0  0  0  0  0
   20.7544   -8.6088  -16.0231 C   0  0  2  0  0  0  0  0  0  0  0  0
   21.7822   -9.2434  -15.1846 N   0  0  0  0  0  0  0  0  0  0  0  0
   21.0238   -7.1672  -16.1116 C   0  0  0  0  0  0  0  0  0  0  0  0
   21.8235   -6.4385  -15.2450 O   0  0  0  0  0  0  0  0  0  0  0  0
   20.4714   -6.5247  -17.0726 O   0  0  0  0  0  0  0  0  0  0  0  0
  2  1  1  0
  3  2  1  0
  3  5  1  0
  3  4  1  6
  5  6  1  6
  7  9  1  0
  7  5  1  0
  8  7  2  0
 10 11  1  0
 10  9  1  0
 11 19  1  0
 12 11  2  0
 14 13  1  0
 15 14  2  0
 16 14  1  0
 17 16  1  0
 18 17  1  1
 18 20  1  0
 19 18  1  0
 20 22  2  0
 20 21  1  0
M  END
$$$$
