MCN.pdb
     RDKit          3D

 23 22  0  0  1  0  0  0  0  0999 V2000
   27.7729  -30.0136  -22.9538 C   0  0  0  0  0  0  0  0  0  0  0  0
   29.1366  -29.9474  -21.7611 S   0  0  0  0  0  0  0  0  0  0  0  0
   30.0761  -31.4730  -21.8534 C   0  0  0  0  0  0  0  0  0  0  0  0
   29.4929  -32.5631  -20.9443 C   0  0  0  0  0  0  0  0  0  0  0  0
   29.9607  -32.2626  -19.5587 C   0  0  2  0  0  0  0  0  0  0  0  0
   31.3767  -32.5659  -19.4811 N   0  0  0  0  0  0  0  0  0  0  0  0
   29.2074  -32.9355  -18.4969 C   0  0  0  0  0  0  0  0  0  0  0  0
   29.1745  -34.1996  -18.4942 O   0  0  0  0  0  0  0  0  0  0  0  0
   28.5216  -32.2491  -17.4845 N   0  0  0  0  0  0  0  0  0  0  0  0
   27.7383  -32.8888  -16.4262 C   0  0  1  0  0  0  0  0  0  0  0  0
   27.6136  -31.9311  -15.2522 C   0  0  0  0  0  0  0  0  0  0  0  0
   26.6488  -32.5969  -13.8926 S   0  0  0  0  0  0  0  0  0  0  0  0
   26.3736  -33.1983  -16.9070 C   0  0  0  0  0  0  0  0  0  0  0  0
   26.0255  -32.6604  -18.0150 O   0  0  0  0  0  0  0  0  0  0  0  0
   21.7161  -34.0238  -18.2305 N   0  0  0  0  0  0  0  0  0  0  0  0
   22.8369  -34.5382  -18.9376 C   0  0  0  0  0  0  0  0  0  0  0  0
   22.6999  -34.8345  -20.1681 O   0  0  0  0  0  0  0  0  0  0  0  0
   24.1250  -34.7128  -18.2348 C   0  0  0  0  0  0  0  0  0  0  0  0
   24.0919  -34.2581  -16.8216 C   0  0  2  0  0  0  0  0  0  0  0  0
   25.4252  -34.0191  -16.2786 N   0  0  0  0  0  0  0  0  0  0  0  0
   23.3884  -35.2230  -15.9621 C   0  0  0  0  0  0  0  0  0  0  0  0
   23.9553  -35.6646  -14.9334 O   0  0  0  0  0  0  0  0  0  0  0  0
   22.1225  -35.6612  -16.2484 O   0  0  0  0  0  0  0  0  0  0  0  0
  1  2  1  0
  2  3  1  0
  4  5  1  0
  4  3  1  0
  5  7  1  0
  5  6  1  6
  7  9  1  0
  7  8  2  0
  9 10  1  0
 10 13  1  0
 10 11  1  1
 12 11  1  0
 13 20  1  0
 14 13  2  0
 16 17  2  0
 16 15  1  0
 18 16  1  0
 19 21  1  0
 19 18  1  6
 20 19  1  0
 21 22  2  0
 21 23  1  0
M  END
$$$$
