MCN.pdb
     RDKit          3D

 23 22  0  0  1  0  0  0  0  0999 V2000
   10.3871  -14.6685  -11.7983 C   0  0  0  0  0  0  0  0  0  0  0  0
   11.5911  -13.8022  -10.7559 S   0  0  0  0  0  0  0  0  0  0  0  0
   12.9998  -13.3203  -11.7569 C   0  0  0  0  0  0  0  0  0  0  0  0
   14.0699  -12.5935  -10.9313 C   0  0  0  0  0  0  0  0  0  0  0  0
   15.1861  -12.2667  -11.8675 C   0  0  2  0  0  0  0  0  0  0  0  0
   15.9380  -13.4808  -12.1200 N   0  0  0  0  0  0  0  0  0  0  0  0
   16.0587  -11.1756  -11.4251 C   0  0  0  0  0  0  0  0  0  0  0  0
   17.0129  -11.4511  -10.6422 O   0  0  0  0  0  0  0  0  0  0  0  0
   15.8894   -9.8424  -11.8255 N   0  0  0  0  0  0  0  0  0  0  0  0
   16.7660   -8.7367  -11.4358 C   0  0  1  0  0  0  0  0  0  0  0  0
   17.4534   -8.1868  -12.6751 C   0  0  0  0  0  0  0  0  0  0  0  0
   18.3482   -6.6604  -12.3719 S   0  0  0  0  0  0  0  0  0  0  0  0
   15.9786   -7.6408  -10.8289 C   0  0  0  0  0  0  0  0  0  0  0  0
   14.9197   -7.2873  -11.4548 O   0  0  0  0  0  0  0  0  0  0  0  0
   14.1566   -3.6642   -8.0347 N   0  0  0  0  0  0  0  0  0  0  0  0
   14.6806   -4.6287   -7.1314 C   0  0  0  0  0  0  0  0  0  0  0  0
   14.5112   -4.4516   -5.8821 O   0  0  0  0  0  0  0  0  0  0  0  0
   15.4012   -5.8060   -7.6589 C   0  0  0  0  0  0  0  0  0  0  0  0
   15.4596   -5.8457   -9.1422 C   0  0  2  0  0  0  0  0  0  0  0  0
   16.2692   -6.9524   -9.6415 N   0  0  0  0  0  0  0  0  0  0  0  0
   15.9767   -4.5839   -9.6943 C   0  0  0  0  0  0  0  0  0  0  0  0
   15.2147   -3.5916   -9.7912 O   0  0  0  0  0  0  0  0  0  0  0  0
   17.2749   -4.4526  -10.1113 O   0  0  0  0  0  0  0  0  0  0  0  0
  1  2  1  0
  2  3  1  0
  4  5  1  0
  4  3  1  0
  5  7  1  0
  5  6  1  1
  7  9  1  0
  7  8  2  0
  9 10  1  0
 10 13  1  0
 10 11  1  6
 12 11  1  0
 13 20  1  0
 14 13  2  0
 16 17  2  0
 16 15  1  0
 18 16  1  0
 19 21  1  0
 19 18  1  1
 20 19  1  0
 21 22  2  0
 21 23  1  0
M  END
$$$$
