MCN.pdb
     RDKit          3D

 23 22  0  0  1  0  0  0  0  0999 V2000
   18.7447  -15.0626  -18.4925 C   0  0  0  0  0  0  0  0  0  0  0  0
   20.2994  -15.5047  -19.3135 S   0  0  0  0  0  0  0  0  0  0  0  0
   21.3145  -14.0356  -19.4860 C   0  0  0  0  0  0  0  0  0  0  0  0
   21.4966  -13.3027  -18.1501 C   0  0  0  0  0  0  0  0  0  0  0  0
   22.3207  -12.0905  -18.4341 C   0  0  2  0  0  0  0  0  0  0  0  0
   23.5412  -12.5145  -19.0926 N   0  0  0  0  0  0  0  0  0  0  0  0
   22.6030  -11.2525  -17.2654 C   0  0  0  0  0  0  0  0  0  0  0  0
   21.7078  -11.1383  -16.3795 O   0  0  0  0  0  0  0  0  0  0  0  0
   23.8146  -10.5714  -17.0798 N   0  0  0  0  0  0  0  0  0  0  0  0
   24.1305   -9.7312  -15.9234 C   0  0  1  0  0  0  0  0  0  0  0  0
   25.6360   -9.7205  -15.7133 C   0  0  0  0  0  0  0  0  0  0  0  0
   26.2910  -11.3085  -15.1917 S   0  0  0  0  0  0  0  0  0  0  0  0
   23.6950   -8.3374  -16.1617 C   0  0  0  0  0  0  0  0  0  0  0  0
   23.7590   -7.9203  -17.3701 O   0  0  0  0  0  0  0  0  0  0  0  0
   19.6825   -4.6682  -17.1048 N   0  0  0  0  0  0  0  0  0  0  0  0
   21.0820   -4.8338  -16.9192 C   0  0  0  0  0  0  0  0  0  0  0  0
   21.8420   -3.8231  -17.0669 O   0  0  0  0  0  0  0  0  0  0  0  0
   21.6178   -6.1631  -16.5594 C   0  0  0  0  0  0  0  0  0  0  0  0
   22.7027   -6.1071  -15.5470 C   0  0  2  0  0  0  0  0  0  0  0  0
   23.2186   -7.4286  -15.2050 N   0  0  0  0  0  0  0  0  0  0  0  0
   22.2577   -5.4316  -14.3181 C   0  0  0  0  0  0  0  0  0  0  0  0
   21.8809   -6.1164  -13.3364 O   0  0  0  0  0  0  0  0  0  0  0  0
   22.2399   -4.0664  -14.2064 O   0  0  0  0  0  0  0  0  0  0  0  0
  1  2  1  0
  2  3  1  0
  4  5  1  0
  4  3  1  0
  5  7  1  0
  5  6  1  1
  7  9  1  0
  7  8  2  0
  9 10  1  0
 10 13  1  0
 10 11  1  6
 12 11  1  0
 13 20  1  0
 14 13  2  0
 16 17  2  0
 16 15  1  0
 18 16  1  0
 19 21  1  0
 19 18  1  6
 20 19  1  0
 21 22  2  0
 21 23  1  0
M  END
$$$$
