MCN.pdb
     RDKit          3D

 23 22  0  0  1  0  0  0  0  0999 V2000
   28.6343  -30.8018  -19.8198 C   0  0  0  0  0  0  0  0  0  0  0  0
   29.9721  -31.6765  -20.6753 S   0  0  0  0  0  0  0  0  0  0  0  0
   31.5499  -31.0137  -20.1368 C   0  0  0  0  0  0  0  0  0  0  0  0
   31.5278  -30.6073  -18.6573 C   0  0  0  0  0  0  0  0  0  0  0  0
   32.7999  -29.8710  -18.3950 C   0  0  2  0  0  0  0  0  0  0  0  0
   33.6907  -30.7494  -17.6614 N   0  0  0  0  0  0  0  0  0  0  0  0
   32.6348  -28.5829  -17.7159 C   0  0  0  0  0  0  0  0  0  0  0  0
   32.8214  -28.5361  -16.4660 O   0  0  0  0  0  0  0  0  0  0  0  0
   32.2806  -27.4005  -18.3812 N   0  0  0  0  0  0  0  0  0  0  0  0
   32.2323  -26.0760  -17.7597 C   0  0  1  0  0  0  0  0  0  0  0  0
   33.3696  -25.2286  -18.3065 C   0  0  0  0  0  0  0  0  0  0  0  0
   34.1251  -24.1706  -17.0685 S   0  0  0  0  0  0  0  0  0  0  0  0
   30.9601  -25.3959  -18.0884 C   0  0  0  0  0  0  0  0  0  0  0  0
   30.4725  -25.6314  -19.2480 O   0  0  0  0  0  0  0  0  0  0  0  0
   27.3777  -26.1963  -17.8583 N   0  0  0  0  0  0  0  0  0  0  0  0
   27.1819  -25.3622  -16.7240 C   0  0  0  0  0  0  0  0  0  0  0  0
   26.3793  -25.7470  -15.8136 O   0  0  0  0  0  0  0  0  0  0  0  0
   27.9105  -24.0803  -16.6268 C   0  0  0  0  0  0  0  0  0  0  0  0
   28.9649  -23.9217  -17.6603 C   0  0  2  0  0  0  0  0  0  0  0  0
   30.2334  -24.5243  -17.2634 N   0  0  0  0  0  0  0  0  0  0  0  0
   29.1874  -22.5052  -17.9894 C   0  0  0  0  0  0  0  0  0  0  0  0
   30.3124  -21.9899  -17.7806 O   0  0  0  0  0  0  0  0  0  0  0  0
   28.1989  -21.7200  -18.5213 O   0  0  0  0  0  0  0  0  0  0  0  0
  1  2  1  0
  2  3  1  0
  4  5  1  0
  4  3  1  0
  5  7  1  0
  5  6  1  1
  7  9  1  0
  7  8  2  0
  9 10  1  0
 10 13  1  0
 10 11  1  6
 12 11  1  0
 13 20  1  0
 14 13  2  0
 16 17  2  0
 16 15  1  0
 18 16  1  0
 19 21  1  0
 19 18  1  1
 20 19  1  0
 21 22  2  0
 21 23  1  0
M  END
$$$$
