MCN.pdb
     RDKit          3D

 23 22  0  0  1  0  0  0  0  0999 V2000
   26.4643  -16.9105  -17.0108 C   0  0  0  0  0  0  0  0  0  0  0  0
   28.1484  -17.5077  -17.3172 S   0  0  0  0  0  0  0  0  0  0  0  0
   28.5035  -18.8691  -16.2040 C   0  0  0  0  0  0  0  0  0  0  0  0
   27.2272  -19.4503  -15.5812 C   0  0  0  0  0  0  0  0  0  0  0  0
   27.6089  -20.7500  -14.9535 C   0  0  2  0  0  0  0  0  0  0  0  0
   27.9539  -21.6814  -16.0103 N   0  0  0  0  0  0  0  0  0  0  0  0
   26.6040  -21.3127  -14.0473 C   0  0  0  0  0  0  0  0  0  0  0  0
   25.7632  -22.1313  -14.5187 O   0  0  0  0  0  0  0  0  0  0  0  0
   26.5275  -20.9897  -12.6849 N   0  0  0  0  0  0  0  0  0  0  0  0
   25.3759  -21.2680  -11.8251 C   0  0  1  0  0  0  0  0  0  0  0  0
   25.6858  -20.8001  -10.4124 C   0  0  0  0  0  0  0  0  0  0  0  0
   24.2678  -20.8717   -9.3139 S   0  0  0  0  0  0  0  0  0  0  0  0
   24.1855  -20.5275  -12.2981 C   0  0  0  0  0  0  0  0  0  0  0  0
   24.3921  -19.3485  -12.7511 O   0  0  0  0  0  0  0  0  0  0  0  0
   20.5450  -19.5494  -16.3202 N   0  0  0  0  0  0  0  0  0  0  0  0
   20.9734  -19.1643  -15.0207 C   0  0  0  0  0  0  0  0  0  0  0  0
   20.4015  -18.1768  -14.4562 O   0  0  0  0  0  0  0  0  0  0  0  0
   22.0613  -19.9144  -14.3592 C   0  0  0  0  0  0  0  0  0  0  0  0
   21.7678  -20.2529  -12.9434 C   0  0  2  0  0  0  0  0  0  0  0  0
   22.8583  -20.9822  -12.3042 N   0  0  0  0  0  0  0  0  0  0  0  0
   20.5290  -21.0373  -12.8232 C   0  0  0  0  0  0  0  0  0  0  0  0
   20.5546  -22.1511  -12.2458 O   0  0  0  0  0  0  0  0  0  0  0  0
   19.3355  -20.5899  -13.3250 O   0  0  0  0  0  0  0  0  0  0  0  0
  1  2  1  0
  2  3  1  0
  4  5  1  0
  4  3  1  0
  5  7  1  0
  5  6  1  6
  7  9  1  0
  7  8  2  0
  9 10  1  0
 10 13  1  0
 10 11  1  1
 12 11  1  0
 13 20  1  0
 14 13  2  0
 16 17  2  0
 16 15  1  0
 18 16  1  0
 19 21  1  0
 19 18  1  6
 20 19  1  0
 21 22  2  0
 21 23  1  0
M  END
$$$$
