MCN.pdb
     RDKit          3D

 23 22  0  0  1  0  0  0  0  0999 V2000
   16.4299  -13.5166  -20.8901 C   0  0  0  0  0  0  0  0  0  0  0  0
   16.2039  -12.6094  -19.3369 S   0  0  0  0  0  0  0  0  0  0  0  0
   17.7809  -12.4860  -18.4905 C   0  0  0  0  0  0  0  0  0  0  0  0
   17.6596  -11.7401  -17.1549 C   0  0  0  0  0  0  0  0  0  0  0  0
   19.0268  -11.7065  -16.5560 C   0  0  2  0  0  0  0  0  0  0  0  0
   19.2901  -12.9978  -15.9508 N   0  0  0  0  0  0  0  0  0  0  0  0
   19.2554  -10.6118  -15.6089 C   0  0  0  0  0  0  0  0  0  0  0  0
   18.6342  -10.6326  -14.5075 O   0  0  0  0  0  0  0  0  0  0  0  0
   20.1273   -9.5431  -15.8617 N   0  0  0  0  0  0  0  0  0  0  0  0
   20.2900   -8.3759  -14.9933 C   0  0  1  0  0  0  0  0  0  0  0  0
   21.7605   -7.9938  -14.9445 C   0  0  0  0  0  0  0  0  0  0  0  0
   22.0572   -6.4144  -14.1444 S   0  0  0  0  0  0  0  0  0  0  0  0
   19.5380   -7.2210  -15.5317 C   0  0  0  0  0  0  0  0  0  0  0  0
   19.7303   -6.9428  -16.7661 O   0  0  0  0  0  0  0  0  0  0  0  0
   16.5709   -3.0747  -16.4252 N   0  0  0  0  0  0  0  0  0  0  0  0
   15.9746   -3.7794  -15.3442 C   0  0  0  0  0  0  0  0  0  0  0  0
   14.8552   -3.3736  -14.8934 O   0  0  0  0  0  0  0  0  0  0  0  0
   16.6603   -4.9584  -14.7755 C   0  0  0  0  0  0  0  0  0  0  0  0
   17.9485   -5.2709  -15.4449 C   0  0  2  0  0  0  0  0  0  0  0  0
   18.6373   -6.4029  -14.8335 N   0  0  0  0  0  0  0  0  0  0  0  0
   18.8480   -4.1068  -15.4512 C   0  0  0  0  0  0  0  0  0  0  0  0
   19.5692   -3.8757  -14.4506 O   0  0  0  0  0  0  0  0  0  0  0  0
   18.9271   -3.2569  -16.5225 O   0  0  0  0  0  0  0  0  0  0  0  0
  1  2  1  0
  2  3  1  0
  4  5  1  0
  4  3  1  0
  5  7  1  0
  5  6  1  1
  7  9  1  0
  7  8  2  0
  9 10  1  0
 10 13  1  0
 10 11  1  6
 12 11  1  0
 13 20  1  0
 14 13  2  0
 16 17  2  0
 16 15  1  0
 18 16  1  0
 19 21  1  0
 19 18  1  1
 20 19  1  0
 21 22  2  0
 21 23  1  0
M  END
$$$$
