MCN.pdb
     RDKit          3D

 23 22  0  0  1  0  0  0  0  0999 V2000
   28.2523  -18.2406   -7.3504 C   0  0  0  0  0  0  0  0  0  0  0  0
   27.5536  -19.8032   -6.7531 S   0  0  0  0  0  0  0  0  0  0  0  0
   27.2131  -20.8712   -8.1538 C   0  0  0  0  0  0  0  0  0  0  0  0
   26.0797  -20.3241   -9.0317 C   0  0  0  0  0  0  0  0  0  0  0  0
   25.9399  -21.2608  -10.1858 C   0  0  2  0  0  0  0  0  0  0  0  0
   27.1775  -21.2392  -10.9415 N   0  0  0  0  0  0  0  0  0  0  0  0
   24.7802  -21.0073  -11.0453 C   0  0  0  0  0  0  0  0  0  0  0  0
   24.9842  -20.7482  -12.2661 O   0  0  0  0  0  0  0  0  0  0  0  0
   23.4567  -21.0374  -10.5829 N   0  0  0  0  0  0  0  0  0  0  0  0
   22.2744  -21.1156  -11.4424 C   0  0  1  0  0  0  0  0  0  0  0  0
   21.0288  -21.1546  -10.5720 C   0  0  0  0  0  0  0  0  0  0  0  0
   20.9371  -19.7953   -9.4030 S   0  0  0  0  0  0  0  0  0  0  0  0
   22.1852  -19.9205  -12.3102 C   0  0  0  0  0  0  0  0  0  0  0  0
   22.9904  -18.9622  -12.0429 O   0  0  0  0  0  0  0  0  0  0  0  0
   23.4776  -17.2808  -16.4524 N   0  0  0  0  0  0  0  0  0  0  0  0
   23.2018  -18.6750  -16.4830 C   0  0  0  0  0  0  0  0  0  0  0  0
   23.2190  -19.2770  -17.6047 O   0  0  0  0  0  0  0  0  0  0  0  0
   22.9070  -19.3879  -15.2227 C   0  0  0  0  0  0  0  0  0  0  0  0
   21.6593  -18.9268  -14.5625 C   0  0  2  0  0  0  0  0  0  0  0  0
   21.3145  -19.7294  -13.3935 N   0  0  0  0  0  0  0  0  0  0  0  0
   20.5238  -18.9268  -15.4979 C   0  0  0  0  0  0  0  0  0  0  0  0
   20.1438  -17.8465  -16.0111 O   0  0  0  0  0  0  0  0  0  0  0  0
   19.8592  -20.0771  -15.8323 O   0  0  0  0  0  0  0  0  0  0  0  0
  1  2  1  0
  2  3  1  0
  4  5  1  0
  4  3  1  0
  5  7  1  0
  5  6  1  6
  7  9  1  0
  7  8  2  0
  9 10  1  0
 10 13  1  0
 10 11  1  1
 12 11  1  0
 13 20  1  0
 14 13  2  0
 16 17  2  0
 16 15  1  0
 18 16  1  0
 19 21  1  0
 19 18  1  6
 20 19  1  0
 21 22  2  0
 21 23  1  0
M  END
$$$$
