MCN.pdb
     RDKit          3D

 23 22  0  0  1  0  0  0  0  0999 V2000
   20.8932  -12.1944  -22.2688 C   0  0  0  0  0  0  0  0  0  0  0  0
   22.6386  -11.7067  -22.3187 S   0  0  0  0  0  0  0  0  0  0  0  0
   23.2606  -11.5670  -20.6417 C   0  0  0  0  0  0  0  0  0  0  0  0
   22.1810  -11.0780  -19.6670 C   0  0  0  0  0  0  0  0  0  0  0  0
   22.8435  -10.9143  -18.3391 C   0  0  2  0  0  0  0  0  0  0  0  0
   23.2156  -12.2284  -17.8515 N   0  0  0  0  0  0  0  0  0  0  0  0
   22.0570  -10.1754  -17.3476 C   0  0  0  0  0  0  0  0  0  0  0  0
   20.8002  -10.3149  -17.3547 O   0  0  0  0  0  0  0  0  0  0  0  0
   22.6270   -9.3220  -16.3920 N   0  0  0  0  0  0  0  0  0  0  0  0
   21.8723   -8.5780  -15.3822 C   0  0  1  0  0  0  0  0  0  0  0  0
   22.5394   -8.7604  -14.0286 C   0  0  0  0  0  0  0  0  0  0  0  0
   22.2771  -10.3897  -13.3220 S   0  0  0  0  0  0  0  0  0  0  0  0
   21.8716   -7.1323  -15.6973 C   0  0  0  0  0  0  0  0  0  0  0  0
   23.0126   -6.5996  -15.9259 O   0  0  0  0  0  0  0  0  0  0  0  0
   20.9581   -2.2082  -16.8721 N   0  0  0  0  0  0  0  0  0  0  0  0
   20.6102   -3.1558  -17.8730 C   0  0  0  0  0  0  0  0  0  0  0  0
   20.3559   -2.7378  -19.0484 O   0  0  0  0  0  0  0  0  0  0  0  0
   20.5552   -4.5920  -17.5299 C   0  0  0  0  0  0  0  0  0  0  0  0
   20.8475   -4.8683  -16.1005 C   0  0  2  0  0  0  0  0  0  0  0  0
   20.7541   -6.2875  -15.7737 N   0  0  0  0  0  0  0  0  0  0  0  0
   19.9530   -4.1102  -15.2119 C   0  0  0  0  0  0  0  0  0  0  0  0
   18.9556   -4.6787  -14.7052 O   0  0  0  0  0  0  0  0  0  0  0  0
   20.1727   -2.7911  -14.9150 O   0  0  0  0  0  0  0  0  0  0  0  0
  1  2  1  0
  2  3  1  0
  4  5  1  0
  4  3  1  0
  5  7  1  0
  5  6  1  1
  7  9  1  0
  7  8  2  0
  9 10  1  0
 10 13  1  0
 10 11  1  1
 12 11  1  0
 13 20  1  0
 14 13  2  0
 16 17  2  0
 16 15  1  0
 18 16  1  0
 19 21  1  0
 19 18  1  6
 20 19  1  0
 21 22  2  0
 21 23  1  0
M  END
$$$$
