MCN.pdb
     RDKit          3D

 23 22  0  0  1  0  0  0  0  0999 V2000
   26.1339  -28.9802  -19.7785 C   0  0  0  0  0  0  0  0  0  0  0  0
   27.2771  -30.0994  -18.9258 S   0  0  0  0  0  0  0  0  0  0  0  0
   28.3374  -29.1443  -17.8385 C   0  0  0  0  0  0  0  0  0  0  0  0
   28.3540  -27.6564  -18.2133 C   0  0  0  0  0  0  0  0  0  0  0  0
   29.3417  -26.9965  -17.3088 C   0  0  2  0  0  0  0  0  0  0  0  0
   29.5950  -27.8823  -16.1888 N   0  0  0  0  0  0  0  0  0  0  0  0
   28.9610  -25.6549  -16.8584 C   0  0  0  0  0  0  0  0  0  0  0  0
   28.6445  -25.4977  -15.6442 O   0  0  0  0  0  0  0  0  0  0  0  0
   28.9299  -24.5375  -17.7050 N   0  0  0  0  0  0  0  0  0  0  0  0
   28.5662  -23.1831  -17.2854 C   0  0  1  0  0  0  0  0  0  0  0  0
   29.0709  -22.1900  -18.3197 C   0  0  0  0  0  0  0  0  0  0  0  0
   30.8607  -22.1531  -18.4539 S   0  0  0  0  0  0  0  0  0  0  0  0
   27.0954  -23.0442  -17.2020 C   0  0  0  0  0  0  0  0  0  0  0  0
   26.4115  -23.7235  -18.0439 O   0  0  0  0  0  0  0  0  0  0  0  0
   22.6103  -24.9799  -15.8138 N   0  0  0  0  0  0  0  0  0  0  0  0
   23.3508  -24.0893  -14.9898 C   0  0  0  0  0  0  0  0  0  0  0  0
   22.7697  -23.5543  -13.9913 O   0  0  0  0  0  0  0  0  0  0  0  0
   24.7668  -23.8095  -15.3067 C   0  0  0  0  0  0  0  0  0  0  0  0
   24.9753  -22.4932  -15.9617 C   0  0  2  0  0  0  0  0  0  0  0  0
   26.3744  -22.2500  -16.2977 N   0  0  0  0  0  0  0  0  0  0  0  0
   24.4837  -21.3901  -15.1216 C   0  0  0  0  0  0  0  0  0  0  0  0
   23.2635  -21.3253  -14.8357 O   0  0  0  0  0  0  0  0  0  0  0  0
   25.3199  -20.4203  -14.6350 O   0  0  0  0  0  0  0  0  0  0  0  0
  1  2  1  0
  2  3  1  0
  4  5  1  0
  4  3  1  0
  5  7  1  0
  5  6  1  1
  7  9  1  0
  7  8  2  0
  9 10  1  0
 10 13  1  0
 10 11  1  6
 12 11  1  0
 13 20  1  0
 14 13  2  0
 16 17  2  0
 16 15  1  0
 18 16  1  0
 19 21  1  0
 19 18  1  1
 20 19  1  0
 21 22  2  0
 21 23  1  0
M  END
$$$$
