MCN.pdb
     RDKit          3D

 23 22  0  0  1  0  0  0  0  0999 V2000
   29.0032  -20.0454   -4.3839 C   0  0  0  0  0  0  0  0  0  0  0  0
   28.4001  -19.1588   -5.8458 S   0  0  0  0  0  0  0  0  0  0  0  0
   27.4273  -20.2782   -6.8554 C   0  0  0  0  0  0  0  0  0  0  0  0
   26.8969  -19.5951   -8.1230 C   0  0  0  0  0  0  0  0  0  0  0  0
   26.2619  -20.6621   -8.9522 C   0  0  2  0  0  0  0  0  0  0  0  0
   27.2209  -21.7364   -9.1230 N   0  0  0  0  0  0  0  0  0  0  0  0
   25.7312  -20.2048  -10.2395 C   0  0  0  0  0  0  0  0  0  0  0  0
   25.0288  -19.1534  -10.2588 O   0  0  0  0  0  0  0  0  0  0  0  0
   25.9625  -20.8737  -11.4500 N   0  0  0  0  0  0  0  0  0  0  0  0
   25.5461  -20.3853  -12.7657 C   0  0  1  0  0  0  0  0  0  0  0  0
   26.5572  -20.8377  -13.8067 C   0  0  0  0  0  0  0  0  0  0  0  0
   28.2579  -20.5136  -13.3319 S   0  0  0  0  0  0  0  0  0  0  0  0
   24.2296  -20.9509  -13.1351 C   0  0  0  0  0  0  0  0  0  0  0  0
   24.1568  -22.2270  -13.1994 O   0  0  0  0  0  0  0  0  0  0  0  0
   21.1057  -20.6972  -10.3231 N   0  0  0  0  0  0  0  0  0  0  0  0
   20.9268  -21.4076  -11.5413 C   0  0  0  0  0  0  0  0  0  0  0  0
   20.9434  -22.6804  -11.5147 O   0  0  0  0  0  0  0  0  0  0  0  0
   20.7244  -20.6591  -12.7992 C   0  0  0  0  0  0  0  0  0  0  0  0
   21.8018  -20.8804  -13.7968 C   0  0  2  0  0  0  0  0  0  0  0  0
   23.0559  -20.2368  -13.4190 N   0  0  0  0  0  0  0  0  0  0  0  0
   21.4033  -20.4104  -15.1326 C   0  0  0  0  0  0  0  0  0  0  0  0
   20.3953  -20.9089  -15.6896 O   0  0  0  0  0  0  0  0  0  0  0  0
   22.1014  -19.4372  -15.7975 O   0  0  0  0  0  0  0  0  0  0  0  0
  1  2  1  0
  2  3  1  0
  4  5  1  0
  4  3  1  0
  5  7  1  0
  5  6  1  6
  7  9  1  0
  7  8  2  0
  9 10  1  0
 10 13  1  0
 10 11  1  6
 12 11  1  0
 13 20  1  0
 14 13  2  0
 16 17  2  0
 16 15  1  0
 18 16  1  0
 19 21  1  0
 19 18  1  1
 20 19  1  0
 21 22  2  0
 21 23  1  0
M  END
$$$$
