MCN.pdb
     RDKit          3D

 23 22  0  0  1  0  0  0  0  0999 V2000
   18.2536  -21.0714  -14.7135 C   0  0  0  0  0  0  0  0  0  0  0  0
   19.2286  -22.2942  -13.7964 S   0  0  0  0  0  0  0  0  0  0  0  0
   20.4986  -21.4487  -12.8524 C   0  0  0  0  0  0  0  0  0  0  0  0
   21.0526  -20.2278  -13.5988 C   0  0  0  0  0  0  0  0  0  0  0  0
   22.4107  -20.6052  -14.0911 C   0  0  2  0  0  0  0  0  0  0  0  0
   22.4682  -22.0499  -14.2039 N   0  0  0  0  0  0  0  0  0  0  0  0
   23.5211  -20.0835  -13.2896 C   0  0  0  0  0  0  0  0  0  0  0  0
   23.5955  -18.8338  -13.1103 O   0  0  0  0  0  0  0  0  0  0  0  0
   24.5047  -20.8990  -12.7118 N   0  0  0  0  0  0  0  0  0  0  0  0
   25.7214  -20.4067  -12.0638 C   0  0  1  0  0  0  0  0  0  0  0  0
   25.9569  -21.1940  -10.7850 C   0  0  0  0  0  0  0  0  0  0  0  0
   24.6922  -20.9210   -9.5405 S   0  0  0  0  0  0  0  0  0  0  0  0
   26.8941  -20.6075  -12.9435 C   0  0  0  0  0  0  0  0  0  0  0  0
   27.5602  -21.6859  -12.7658 O   0  0  0  0  0  0  0  0  0  0  0  0
   28.0465  -21.1389  -17.8817 N   0  0  0  0  0  0  0  0  0  0  0  0
   26.8499  -21.5426  -17.2291 C   0  0  0  0  0  0  0  0  0  0  0  0
   26.0355  -22.2943  -17.8557 O   0  0  0  0  0  0  0  0  0  0  0  0
   26.5825  -21.0869  -15.8490 C   0  0  0  0  0  0  0  0  0  0  0  0
   27.6322  -20.1839  -15.3126 C   0  0  2  0  0  0  0  0  0  0  0  0
   27.3495  -19.7433  -13.9504 N   0  0  0  0  0  0  0  0  0  0  0  0
   27.8170  -19.0037  -16.1713 C   0  0  0  0  0  0  0  0  0  0  0  0
   26.9712  -18.0772  -16.1415 O   0  0  0  0  0  0  0  0  0  0  0  0
   28.8917  -18.8790  -17.0116 O   0  0  0  0  0  0  0  0  0  0  0  0
  1  2  1  0
  2  3  1  0
  4  5  1  0
  4  3  1  0
  5  7  1  0
  5  6  1  1
  7  9  1  0
  7  8  2  0
  9 10  1  0
 10 13  1  0
 10 11  1  1
 12 11  1  0
 13 20  1  0
 14 13  2  0
 16 17  2  0
 16 15  1  0
 18 16  1  0
 19 21  1  0
 19 18  1  6
 20 19  1  0
 21 22  2  0
 21 23  1  0
M  END
$$$$
