MCN.pdb
     RDKit          3D

 23 22  0  0  1  0  0  0  0  0999 V2000
   20.6096  -19.0044   -9.8820 C   0  0  0  0  0  0  0  0  0  0  0  0
   20.9113  -20.7282  -10.3556 S   0  0  0  0  0  0  0  0  0  0  0  0
   22.5750  -21.1913   -9.8698 C   0  0  0  0  0  0  0  0  0  0  0  0
   23.6333  -20.2735  -10.4963 C   0  0  0  0  0  0  0  0  0  0  0  0
   24.9627  -20.7763  -10.0393 C   0  0  2  0  0  0  0  0  0  0  0  0
   25.0696  -20.5459   -8.6115 N   0  0  0  0  0  0  0  0  0  0  0  0
   26.1105  -20.2206  -10.7614 C   0  0  0  0  0  0  0  0  0  0  0  0
   26.3660  -18.9896  -10.6244 O   0  0  0  0  0  0  0  0  0  0  0  0
   26.9394  -20.9840  -11.5960 N   0  0  0  0  0  0  0  0  0  0  0  0
   27.9180  -20.4294  -12.5328 C   0  0  1  0  0  0  0  0  0  0  0  0
   29.2895  -21.0037  -12.2166 C   0  0  0  0  0  0  0  0  0  0  0  0
   29.5214  -21.3691  -10.4743 S   0  0  0  0  0  0  0  0  0  0  0  0
   27.5766  -20.8070  -13.9221 C   0  0  0  0  0  0  0  0  0  0  0  0
   27.3032  -22.0407  -14.1252 O   0  0  0  0  0  0  0  0  0  0  0  0
   22.6821  -20.2080  -15.7707 N   0  0  0  0  0  0  0  0  0  0  0  0
   23.9360  -19.6829  -16.1862 C   0  0  0  0  0  0  0  0  0  0  0  0
   24.0302  -19.1734  -17.3491 O   0  0  0  0  0  0  0  0  0  0  0  0
   25.0906  -19.7372  -15.2655 C   0  0  0  0  0  0  0  0  0  0  0  0
   26.3897  -19.9260  -15.9597 C   0  0  2  0  0  0  0  0  0  0  0  0
   27.5191  -19.9562  -15.0361 N   0  0  0  0  0  0  0  0  0  0  0  0
   26.6193  -18.8780  -16.9663 C   0  0  0  0  0  0  0  0  0  0  0  0
   26.9045  -17.7138  -16.5946 O   0  0  0  0  0  0  0  0  0  0  0  0
   26.5317  -19.1307  -18.3098 O   0  0  0  0  0  0  0  0  0  0  0  0
  1  2  1  0
  2  3  1  0
  4  5  1  0
  4  3  1  0
  5  7  1  0
  5  6  1  1
  7  9  1  0
  7  8  2  0
  9 10  1  0
 10 13  1  0
 10 11  1  1
 12 11  1  0
 13 20  1  0
 14 13  2  0
 16 17  2  0
 16 15  1  0
 18 16  1  0
 19 21  1  0
 19 18  1  1
 20 19  1  0
 21 22  2  0
 21 23  1  0
M  END
$$$$
