MCN.pdb
     RDKit          3D

 23 22  0  0  1  0  0  0  0  0999 V2000
   22.3474  -21.9387   -6.5792 C   0  0  0  0  0  0  0  0  0  0  0  0
   22.8443  -20.6662   -7.7711 S   0  0  0  0  0  0  0  0  0  0  0  0
   24.1557  -21.3117   -8.8114 C   0  0  0  0  0  0  0  0  0  0  0  0
   24.7535  -20.2296   -9.7205 C   0  0  0  0  0  0  0  0  0  0  0  0
   25.6870  -20.9230  -10.6570 C   0  0  2  0  0  0  0  0  0  0  0  0
   27.0225  -20.8633  -10.0949 N   0  0  0  0  0  0  0  0  0  0  0  0
   25.6599  -20.4217  -12.0338 C   0  0  0  0  0  0  0  0  0  0  0  0
   26.3459  -19.3964  -12.3120 O   0  0  0  0  0  0  0  0  0  0  0  0
   24.9123  -21.0208  -13.0578 N   0  0  0  0  0  0  0  0  0  0  0  0
   24.8115  -20.5095  -14.4257 C   0  0  1  0  0  0  0  0  0  0  0  0
   25.4528  -21.5063  -15.3774 C   0  0  0  0  0  0  0  0  0  0  0  0
   26.3747  -20.7269  -16.7061 S   0  0  0  0  0  0  0  0  0  0  0  0
   23.3931  -20.3549  -14.8176 C   0  0  0  0  0  0  0  0  0  0  0  0
   22.5769  -21.2247  -14.3535 O   0  0  0  0  0  0  0  0  0  0  0  0
   18.7111  -18.9932  -16.4287 N   0  0  0  0  0  0  0  0  0  0  0  0
   19.2746  -18.1742  -15.4127 C   0  0  0  0  0  0  0  0  0  0  0  0
   18.5173  -17.3580  -14.7953 O   0  0  0  0  0  0  0  0  0  0  0  0
   20.7136  -18.2901  -15.0970 C   0  0  0  0  0  0  0  0  0  0  0  0
   21.4286  -19.2679  -15.9561 C   0  0  2  0  0  0  0  0  0  0  0  0
   22.8506  -19.3563  -15.6402 N   0  0  0  0  0  0  0  0  0  0  0  0
   21.2720  -18.9461  -17.3830 C   0  0  0  0  0  0  0  0  0  0  0  0
   21.7843  -17.8962  -17.8413 O   0  0  0  0  0  0  0  0  0  0  0  0
   20.5789  -19.7610  -18.2387 O   0  0  0  0  0  0  0  0  0  0  0  0
  1  2  1  0
  2  3  1  0
  4  5  1  0
  4  3  1  0
  5  7  1  0
  5  6  1  1
  7  9  1  0
  7  8  2  0
  9 10  1  0
 10 13  1  0
 10 11  1  6
 12 11  1  0
 13 20  1  0
 14 13  2  0
 16 17  2  0
 16 15  1  0
 18 16  1  0
 19 21  1  0
 19 18  1  1
 20 19  1  0
 21 22  2  0
 21 23  1  0
M  END
$$$$
