KCT.pdb
     RDKit          3D

 23 22  0  0  1  0  0  0  0  0999 V2000
   24.6385  -19.8525  -16.0450 N   0  0  0  0  0  0  0  0  0  0  0  0
   23.4570  -19.3123  -15.4510 C   0  0  1  0  0  0  0  0  0  0  0  0
   23.1288  -19.9471  -14.1260 C   0  0  0  0  0  0  0  0  0  0  0  0
   22.7801  -21.3933  -14.3154 C   0  0  0  0  0  0  0  0  0  0  0  0
   23.9793  -22.2760  -14.5175 C   0  0  0  0  0  0  0  0  0  0  0  0
   23.5670  -23.7470  -14.5879 C   0  0  0  0  0  0  0  0  0  0  0  0
   24.7978  -24.4855  -14.8991 N   0  0  0  0  0  0  0  0  0  0  0  0
   23.5890  -17.8175  -15.3094 C   0  0  0  0  0  0  0  0  0  0  0  0
   22.7318  -17.1502  -14.6978 O   0  0  0  0  0  0  0  0  0  0  0  0
   24.6974  -17.1102  -15.8684 N   0  0  0  0  0  0  0  0  0  0  0  0
   24.8471  -15.6862  -15.7874 C   0  0  1  0  0  0  0  0  0  0  0  0
   26.2946  -15.2513  -15.8292 C   0  0  0  0  0  0  0  0  0  0  0  0
   27.2684  -16.0001  -14.5115 S   0  0  0  0  0  0  0  0  0  0  0  0
   24.0411  -15.0630  -16.8553 C   0  0  0  0  0  0  0  0  0  0  0  0
   24.1451  -15.4765  -18.0355 O   0  0  0  0  0  0  0  0  0  0  0  0
   20.1265  -12.4791  -18.2983 C   0  0  0  0  0  0  0  0  0  0  0  0
   20.9601  -13.0602  -17.1921 C   0  0  1  0  0  0  0  0  0  0  0  0
   20.3334  -14.2053  -16.7387 O   0  0  0  0  0  0  0  0  0  0  0  0
   22.3894  -13.3594  -17.6512 C   0  0  2  0  0  0  0  0  0  0  0  0
   23.1284  -13.9871  -16.6000 N   0  0  0  0  0  0  0  0  0  0  0  0
   23.0371  -12.1331  -18.1666 C   0  0  0  0  0  0  0  0  0  0  0  0
   23.6071  -11.3347  -17.3827 O   0  0  0  0  0  0  0  0  0  0  0  0
   23.0418  -11.8185  -19.5169 O   0  0  0  0  0  0  0  0  0  0  0  0
  2  8  1  0
  2  1  1  1
  3  2  1  0
  4  3  1  0
  5  4  1  0
  6  5  1  0
  7  6  1  0
  8  9  2  0
 10 11  1  0
 10  8  1  0
 11 12  1  6
 12 13  1  0
 14 11  1  0
 15 14  2  0
 17 16  1  6
 17 19  1  0
 18 17  1  0
 19 20  1  1
 20 14  1  0
 21 23  1  0
 21 19  1  0
 22 21  2  0
M  END
$$$$
