KCT.pdb
     RDKit          3D

 23 22  0  0  1  0  0  0  0  0999 V2000
   21.9234  -13.7014  -17.5265 N   0  0  0  0  0  0  0  0  0  0  0  0
   20.7721  -12.8822  -17.7363 C   0  0  1  0  0  0  0  0  0  0  0  0
   19.4812  -13.6400  -17.5763 C   0  0  0  0  0  0  0  0  0  0  0  0
   19.3859  -14.7263  -18.6057 C   0  0  0  0  0  0  0  0  0  0  0  0
   19.6596  -16.0974  -18.0551 C   0  0  0  0  0  0  0  0  0  0  0  0
   19.6406  -17.1453  -19.1688 C   0  0  0  0  0  0  0  0  0  0  0  0
   19.9748  -18.4180  -18.5166 N   0  0  0  0  0  0  0  0  0  0  0  0
   20.8114  -11.6923  -16.8119 C   0  0  0  0  0  0  0  0  0  0  0  0
   19.7967  -11.3298  -16.1849 O   0  0  0  0  0  0  0  0  0  0  0  0
   22.0086  -10.9366  -16.6192 N   0  0  0  0  0  0  0  0  0  0  0  0
   22.1286   -9.8796  -15.6574 C   0  0  1  0  0  0  0  0  0  0  0  0
   23.4916   -9.8412  -15.0039 C   0  0  0  0  0  0  0  0  0  0  0  0
   23.7178  -11.1825  -13.8227 S   0  0  0  0  0  0  0  0  0  0  0  0
   21.7815   -8.6023  -16.3105 C   0  0  0  0  0  0  0  0  0  0  0  0
   22.4541   -8.2016  -17.2913 O   0  0  0  0  0  0  0  0  0  0  0  0
   19.0204   -7.6690  -18.3441 C   0  0  0  0  0  0  0  0  0  0  0  0
   18.9878   -6.6852  -17.2095 C   0  0  1  0  0  0  0  0  0  0  0  0
   18.0160   -7.0929  -16.3157 O   0  0  0  0  0  0  0  0  0  0  0  0
   20.3502   -6.5602  -16.5230 C   0  0  2  0  0  0  0  0  0  0  0  0
   20.6908   -7.7843  -15.8667 N   0  0  0  0  0  0  0  0  0  0  0  0
   20.3711   -5.3892  -15.6189 C   0  0  0  0  0  0  0  0  0  0  0  0
   20.5560   -5.5382  -14.3858 O   0  0  0  0  0  0  0  0  0  0  0  0
   20.1900   -4.0973  -16.0882 O   0  0  0  0  0  0  0  0  0  0  0  0
  2  8  1  0
  2  1  1  1
  3  2  1  0
  4  3  1  0
  5  4  1  0
  6  5  1  0
  7  6  1  0
  8  9  2  0
 10 11  1  0
 10  8  1  0
 11 12  1  6
 12 13  1  0
 14 11  1  0
 15 14  2  0
 17 16  1  6
 17 19  1  0
 18 17  1  0
 19 20  1  1
 20 14  1  0
 21 23  1  0
 21 19  1  0
 22 21  2  0
M  END
$$$$
