KCT.pdb
     RDKit          3D

 23 22  0  0  1  0  0  0  0  0999 V2000
   20.1915  -12.7814  -16.7529 N   0  0  0  0  0  0  0  0  0  0  0  0
   20.1431  -11.4986  -17.3796 C   0  0  1  0  0  0  0  0  0  0  0  0
   18.8547  -11.2610  -18.1212 C   0  0  0  0  0  0  0  0  0  0  0  0
   18.6969  -12.2659  -19.2231 C   0  0  0  0  0  0  0  0  0  0  0  0
   17.3390  -12.9087  -19.2562 C   0  0  0  0  0  0  0  0  0  0  0  0
   17.1834  -13.7890  -20.4970 C   0  0  0  0  0  0  0  0  0  0  0  0
   15.8540  -14.4020  -20.3795 N   0  0  0  0  0  0  0  0  0  0  0  0
   20.3785  -10.4167  -16.3569 C   0  0  0  0  0  0  0  0  0  0  0  0
   19.5687  -10.2193  -15.4299 O   0  0  0  0  0  0  0  0  0  0  0  0
   21.5344   -9.5786  -16.4101 N   0  0  0  0  0  0  0  0  0  0  0  0
   21.8667   -8.6264  -15.3905 C   0  0  1  0  0  0  0  0  0  0  0  0
   23.2505   -8.8443  -14.8214 C   0  0  0  0  0  0  0  0  0  0  0  0
   23.3056  -10.2379  -13.6811 S   0  0  0  0  0  0  0  0  0  0  0  0
   21.6902   -7.2664  -15.9358 C   0  0  0  0  0  0  0  0  0  0  0  0
   22.2019   -6.9679  -17.0420 O   0  0  0  0  0  0  0  0  0  0  0  0
   18.8699   -5.4199  -17.2312 C   0  0  0  0  0  0  0  0  0  0  0  0
   19.3814   -4.5931  -16.0862 C   0  0  1  0  0  0  0  0  0  0  0  0
   18.5603   -4.8140  -14.9969 O   0  0  0  0  0  0  0  0  0  0  0  0
   20.8391   -4.9198  -15.7525 C   0  0  2  0  0  0  0  0  0  0  0  0
   20.9469   -6.2528  -15.2458 N   0  0  0  0  0  0  0  0  0  0  0  0
   21.4038   -3.9021  -14.8391 C   0  0  0  0  0  0  0  0  0  0  0  0
   21.8045   -4.2248  -13.6936 O   0  0  0  0  0  0  0  0  0  0  0  0
   21.5128   -2.5690  -15.2041 O   0  0  0  0  0  0  0  0  0  0  0  0
  2  8  1  0
  2  1  1  1
  3  2  1  0
  4  3  1  0
  5  4  1  0
  6  5  1  0
  7  6  1  0
  8  9  2  0
 10 11  1  0
 10  8  1  0
 11 12  1  6
 12 13  1  0
 14 11  1  0
 15 14  2  0
 17 16  1  6
 17 19  1  0
 18 17  1  0
 19 20  1  1
 20 14  1  0
 21 23  1  0
 21 19  1  0
 22 21  2  0
M  END
$$$$
