KCT.pdb
     RDKit          3D

 23 22  0  0  1  0  0  0  0  0999 V2000
   20.7401  -12.3568  -18.7283 N   0  0  0  0  0  0  0  0  0  0  0  0
   20.9662  -10.9465  -18.7499 C   0  0  1  0  0  0  0  0  0  0  0  0
   19.9805  -10.2120  -19.6190 C   0  0  0  0  0  0  0  0  0  0  0  0
   20.2092  -10.5486  -21.0623 C   0  0  0  0  0  0  0  0  0  0  0  0
   19.1820  -11.4889  -21.6270 C   0  0  0  0  0  0  0  0  0  0  0  0
   19.4013  -11.6984  -23.1259 C   0  0  0  0  0  0  0  0  0  0  0  0
   18.3772  -12.6658  -23.5413 N   0  0  0  0  0  0  0  0  0  0  0  0
   20.9503  -10.4009  -17.3450 C   0  0  0  0  0  0  0  0  0  0  0  0
   20.0634  -10.7338  -16.5346 O   0  0  0  0  0  0  0  0  0  0  0  0
   21.9473   -9.4845  -16.8892 N   0  0  0  0  0  0  0  0  0  0  0  0
   22.0395   -9.0287  -15.5326 C   0  0  1  0  0  0  0  0  0  0  0  0
   23.1089   -9.7544  -14.7476 C   0  0  0  0  0  0  0  0  0  0  0  0
   23.2661   -9.1232  -13.0677 S   0  0  0  0  0  0  0  0  0  0  0  0
   22.2387   -7.5663  -15.5360 C   0  0  0  0  0  0  0  0  0  0  0  0
   23.1123   -7.0587  -16.2802 O   0  0  0  0  0  0  0  0  0  0  0  0
   19.8115   -4.8293  -16.2910 C   0  0  0  0  0  0  0  0  0  0  0  0
   20.3929   -4.5138  -14.9424 C   0  0  1  0  0  0  0  0  0  0  0  0
   19.4461   -4.8220  -13.9841 O   0  0  0  0  0  0  0  0  0  0  0  0
   21.6981   -5.2731  -14.6916 C   0  0  2  0  0  0  0  0  0  0  0  0
   21.4649   -6.6839  -14.7123 N   0  0  0  0  0  0  0  0  0  0  0  0
   22.3386   -4.8070  -13.4420 C   0  0  0  0  0  0  0  0  0  0  0  0
   22.7830   -3.6360  -13.3510 O   0  0  0  0  0  0  0  0  0  0  0  0
   22.4731   -5.6312  -12.3354 O   0  0  0  0  0  0  0  0  0  0  0  0
  2  8  1  0
  2  1  1  1
  3  2  1  0
  4  3  1  0
  5  4  1  0
  6  5  1  0
  7  6  1  0
  8  9  2  0
 10 11  1  0
 10  8  1  0
 11 12  1  6
 12 13  1  0
 14 11  1  0
 15 14  2  0
 17 16  1  6
 17 19  1  0
 18 17  1  0
 19 20  1  1
 20 14  1  0
 21 23  1  0
 21 19  1  0
 22 21  2  0
M  END
$$$$
