KCT.pdb
     RDKit          3D

 23 22  0  0  1  0  0  0  0  0999 V2000
   22.8944  -12.3947  -17.1607 N   0  0  0  0  0  0  0  0  0  0  0  0
   22.2176  -11.2707  -17.7256 C   0  0  1  0  0  0  0  0  0  0  0  0
   21.2703  -11.6563  -18.8303 C   0  0  0  0  0  0  0  0  0  0  0  0
   22.0196  -12.3121  -19.9515 C   0  0  0  0  0  0  0  0  0  0  0  0
   21.1460  -12.6887  -21.1148 C   0  0  0  0  0  0  0  0  0  0  0  0
   21.9781  -13.2896  -22.2485 C   0  0  0  0  0  0  0  0  0  0  0  0
   21.0220  -13.5848  -23.3236 N   0  0  0  0  0  0  0  0  0  0  0  0
   21.4958  -10.5076  -16.6446 C   0  0  0  0  0  0  0  0  0  0  0  0
   20.4301  -10.9331  -16.1575 O   0  0  0  0  0  0  0  0  0  0  0  0
   22.0031   -9.2716  -16.1382 N   0  0  0  0  0  0  0  0  0  0  0  0
   21.3579   -8.5188  -15.1020 C   0  0  1  0  0  0  0  0  0  0  0  0
   22.1031   -8.5829  -13.7879 C   0  0  0  0  0  0  0  0  0  0  0  0
   20.9899   -8.7565  -12.3822 S   0  0  0  0  0  0  0  0  0  0  0  0
   21.1647   -7.1333  -15.5724 C   0  0  0  0  0  0  0  0  0  0  0  0
   22.1619   -6.3957  -15.7631 O   0  0  0  0  0  0  0  0  0  0  0  0
   19.8966   -5.6607  -18.7158 C   0  0  0  0  0  0  0  0  0  0  0  0
   18.9963   -5.1817  -17.6130 C   0  0  1  0  0  0  0  0  0  0  0  0
   17.8573   -5.9641  -17.6185 O   0  0  0  0  0  0  0  0  0  0  0  0
   19.6898   -5.2278  -16.2492 C   0  0  2  0  0  0  0  0  0  0  0  0
   19.8654   -6.5825  -15.8258 N   0  0  0  0  0  0  0  0  0  0  0  0
   18.9573   -4.4004  -15.2654 C   0  0  0  0  0  0  0  0  0  0  0  0
   18.8597   -3.1584  -15.4229 O   0  0  0  0  0  0  0  0  0  0  0  0
   18.3566   -4.9534  -14.1449 O   0  0  0  0  0  0  0  0  0  0  0  0
  2  8  1  0
  2  1  1  1
  3  2  1  0
  4  3  1  0
  5  4  1  0
  6  5  1  0
  7  6  1  0
  8  9  2  0
 10 11  1  0
 10  8  1  0
 11 12  1  1
 12 13  1  0
 14 11  1  0
 15 14  2  0
 17 16  1  6
 17 19  1  0
 18 17  1  0
 19 20  1  1
 20 14  1  0
 21 23  1  0
 21 19  1  0
 22 21  2  0
M  END
$$$$
