KCT.pdb
     RDKit          3D

 23 22  0  0  1  0  0  0  0  0999 V2000
   25.2558  -21.5826  -12.0079 N   0  0  0  0  0  0  0  0  0  0  0  0
   25.0939  -21.2693  -13.3922 C   0  0  1  0  0  0  0  0  0  0  0  0
   23.9101  -21.9631  -14.0117 C   0  0  0  0  0  0  0  0  0  0  0  0
   24.2564  -23.3838  -14.3441 C   0  0  0  0  0  0  0  0  0  0  0  0
   25.5287  -23.5204  -15.1321 C   0  0  0  0  0  0  0  0  0  0  0  0
   25.8195  -24.9885  -15.4464 C   0  0  0  0  0  0  0  0  0  0  0  0
   27.0560  -24.9832  -16.2389 N   0  0  0  0  0  0  0  0  0  0  0  0
   24.9939  -19.7764  -13.5740 C   0  0  0  0  0  0  0  0  0  0  0  0
   24.2048  -19.0956  -12.8899 O   0  0  0  0  0  0  0  0  0  0  0  0
   25.7964  -19.0863  -14.5338 N   0  0  0  0  0  0  0  0  0  0  0  0
   25.7388  -17.6679  -14.7371 C   0  0  1  0  0  0  0  0  0  0  0  0
   27.0995  -17.0635  -15.0011 C   0  0  0  0  0  0  0  0  0  0  0  0
   27.0055  -15.2957  -15.3353 S   0  0  0  0  0  0  0  0  0  0  0  0
   24.7767  -17.3825  -15.8194 C   0  0  0  0  0  0  0  0  0  0  0  0
   24.7807  -18.0871  -16.8578 O   0  0  0  0  0  0  0  0  0  0  0  0
   20.9699  -15.7529  -15.2498 C   0  0  0  0  0  0  0  0  0  0  0  0
   21.5030  -16.4765  -16.4532 C   0  0  1  0  0  0  0  0  0  0  0  0
   20.6334  -16.2591  -17.5049 O   0  0  0  0  0  0  0  0  0  0  0  0
   22.9216  -16.0248  -16.8089 C   0  0  2  0  0  0  0  0  0  0  0  0
   23.8207  -16.3173  -15.7359 N   0  0  0  0  0  0  0  0  0  0  0  0
   22.9295  -14.5987  -17.2030 C   0  0  0  0  0  0  0  0  0  0  0  0
   23.5496  -13.7501  -16.5158 O   0  0  0  0  0  0  0  0  0  0  0  0
   22.2624  -14.1460  -18.3309 O   0  0  0  0  0  0  0  0  0  0  0  0
  2  8  1  0
  2  1  1  1
  3  2  1  0
  4  3  1  0
  5  4  1  0
  6  5  1  0
  7  6  1  0
  8  9  2  0
 10 11  1  0
 10  8  1  0
 11 12  1  6
 12 13  1  0
 14 11  1  0
 15 14  2  0
 17 16  1  1
 17 19  1  0
 18 17  1  0
 19 20  1  1
 20 14  1  0
 21 23  1  0
 21 19  1  0
 22 21  2  0
M  END
$$$$
