KCT.pdb
     RDKit          3D

 23 22  0  0  1  0  0  0  0  0999 V2000
   22.8213  -21.1724   -8.9374 N   0  0  0  0  0  0  0  0  0  0  0  0
   22.1898  -20.8383  -10.1745 C   0  0  1  0  0  0  0  0  0  0  0  0
   21.0827  -19.8317  -10.0099 C   0  0  0  0  0  0  0  0  0  0  0  0
   19.7489  -20.4924  -10.1922 C   0  0  0  0  0  0  0  0  0  0  0  0
   19.6628  -21.8512   -9.5562 C   0  0  0  0  0  0  0  0  0  0  0  0
   18.3107  -22.5039   -9.8470 C   0  0  0  0  0  0  0  0  0  0  0  0
   18.3625  -23.8206   -9.1984 N   0  0  0  0  0  0  0  0  0  0  0  0
   23.2177  -20.3459  -11.1608 C   0  0  0  0  0  0  0  0  0  0  0  0
   23.5067  -19.1358  -11.2399 O   0  0  0  0  0  0  0  0  0  0  0  0
   23.8981  -21.2435  -12.0399 N   0  0  0  0  0  0  0  0  0  0  0  0
   24.9748  -20.8430  -12.8984 C   0  0  1  0  0  0  0  0  0  0  0  0
   26.2220  -21.6723  -12.6909 C   0  0  0  0  0  0  0  0  0  0  0  0
   27.7260  -20.7205  -12.9687 S   0  0  0  0  0  0  0  0  0  0  0  0
   24.5037  -20.8753  -14.2968 C   0  0  0  0  0  0  0  0  0  0  0  0
   23.9980  -21.9266  -14.7593 O   0  0  0  0  0  0  0  0  0  0  0  0
   21.7806  -19.0634  -16.0353 C   0  0  0  0  0  0  0  0  0  0  0  0
   23.0581  -18.7240  -16.7486 C   0  0  1  0  0  0  0  0  0  0  0  0
   23.4776  -17.4824  -16.3104 O   0  0  0  0  0  0  0  0  0  0  0  0
   24.1389  -19.7834  -16.5191 C   0  0  2  0  0  0  0  0  0  0  0  0
   24.5997  -19.7390  -15.1660 N   0  0  0  0  0  0  0  0  0  0  0  0
   25.2278  -19.6381  -17.5102 C   0  0  0  0  0  0  0  0  0  0  0  0
   25.0000  -19.7909  -18.7356 O   0  0  0  0  0  0  0  0  0  0  0  0
   26.5263  -19.3316  -17.1331 O   0  0  0  0  0  0  0  0  0  0  0  0
  2  8  1  0
  2  1  1  1
  3  2  1  0
  4  3  1  0
  5  4  1  0
  6  5  1  0
  7  6  1  0
  8  9  2  0
 10 11  1  0
 10  8  1  0
 11 12  1  6
 12 13  1  0
 14 11  1  0
 15 14  2  0
 17 16  1  1
 17 19  1  0
 18 17  1  0
 19 20  1  1
 20 14  1  0
 21 23  1  0
 21 19  1  0
 22 21  2  0
M  END
$$$$
