KCT.pdb
     RDKit          3D

 23 22  0  0  1  0  0  0  0  0999 V2000
   19.8685  -13.1137  -16.4010 N   0  0  0  0  0  0  0  0  0  0  0  0
   19.4874  -11.7517  -16.6022 C   0  0  1  0  0  0  0  0  0  0  0  0
   18.0045  -11.5350  -16.4607 C   0  0  0  0  0  0  0  0  0  0  0  0
   17.2591  -12.3850  -17.4460 C   0  0  0  0  0  0  0  0  0  0  0  0
   15.7671  -12.3279  -17.2767 C   0  0  0  0  0  0  0  0  0  0  0  0
   15.0630  -13.1150  -18.3828 C   0  0  0  0  0  0  0  0  0  0  0  0
   13.6307  -13.0415  -18.0666 N   0  0  0  0  0  0  0  0  0  0  0  0
   20.2507  -10.8586  -15.6580 C   0  0  0  0  0  0  0  0  0  0  0  0
   20.0089  -10.8579  -14.4350 O   0  0  0  0  0  0  0  0  0  0  0  0
   21.2769   -9.9816  -16.1261 N   0  0  0  0  0  0  0  0  0  0  0  0
   22.0984   -9.1920  -15.2552 C   0  0  1  0  0  0  0  0  0  0  0  0
   23.5509   -9.6108  -15.2896 C   0  0  0  0  0  0  0  0  0  0  0  0
   23.9317  -10.8490  -14.0377 S   0  0  0  0  0  0  0  0  0  0  0  0
   21.9154   -7.7670  -15.5934 C   0  0  0  0  0  0  0  0  0  0  0  0
   22.2175   -7.3554  -16.7398 O   0  0  0  0  0  0  0  0  0  0  0  0
   19.0638   -5.6967  -16.0797 C   0  0  0  0  0  0  0  0  0  0  0  0
   19.8334   -4.9874  -15.0024 C   0  0  1  0  0  0  0  0  0  0  0  0
   19.2112   -5.2382  -13.7943 O   0  0  0  0  0  0  0  0  0  0  0  0
   21.3003   -5.4231  -14.9675 C   0  0  2  0  0  0  0  0  0  0  0  0
   21.3986   -6.8150  -14.6541 N   0  0  0  0  0  0  0  0  0  0  0  0
   22.0763   -4.5627  -14.0473 C   0  0  0  0  0  0  0  0  0  0  0  0
   22.5981   -5.0438  -13.0114 O   0  0  0  0  0  0  0  0  0  0  0  0
   22.2572   -3.2091  -14.2867 O   0  0  0  0  0  0  0  0  0  0  0  0
  2  8  1  0
  2  1  1  1
  3  2  1  0
  4  3  1  0
  5  4  1  0
  6  5  1  0
  7  6  1  0
  8  9  2  0
 10 11  1  0
 10  8  1  0
 11 12  1  6
 12 13  1  0
 14 11  1  0
 15 14  2  0
 17 16  1  6
 17 19  1  0
 18 17  1  0
 19 20  1  1
 20 14  1  0
 21 23  1  0
 21 19  1  0
 22 21  2  0
M  END
$$$$
