KCT.pdb
     RDKit          3D

 23 22  0  0  1  0  0  0  0  0999 V2000
   27.2083  -22.2219  -16.2861 N   0  0  0  0  0  0  0  0  0  0  0  0
   26.3051  -23.0974  -16.9632 C   0  0  1  0  0  0  0  0  0  0  0  0
   26.9255  -24.4270  -17.3002 C   0  0  0  0  0  0  0  0  0  0  0  0
   28.3356  -24.2369  -17.7738 C   0  0  0  0  0  0  0  0  0  0  0  0
   29.3623  -24.4582  -16.6990 C   0  0  0  0  0  0  0  0  0  0  0  0
   29.5336  -25.9499  -16.4085 C   0  0  0  0  0  0  0  0  0  0  0  0
   30.6015  -26.4052  -17.3080 N   0  0  0  0  0  0  0  0  0  0  0  0
   25.0552  -23.2836  -16.1417 C   0  0  0  0  0  0  0  0  0  0  0  0
   24.1931  -24.1251  -16.4622 O   0  0  0  0  0  0  0  0  0  0  0  0
   24.8109  -22.5059  -14.9683 N   0  0  0  0  0  0  0  0  0  0  0  0
   23.6862  -22.7141  -14.1032 C   0  0  1  0  0  0  0  0  0  0  0  0
   23.8783  -22.0881  -12.7403 C   0  0  0  0  0  0  0  0  0  0  0  0
   23.4545  -20.3372  -12.7300 S   0  0  0  0  0  0  0  0  0  0  0  0
   22.4697  -22.2250  -14.7808 C   0  0  0  0  0  0  0  0  0  0  0  0
   22.5416  -21.2400  -15.5550 O   0  0  0  0  0  0  0  0  0  0  0  0
   20.1513  -23.7428  -17.2039 C   0  0  0  0  0  0  0  0  0  0  0  0
   19.2974  -23.3262  -16.0405 C   0  0  1  0  0  0  0  0  0  0  0  0
   18.9805  -24.4579  -15.3136 O   0  0  0  0  0  0  0  0  0  0  0  0
   19.9969  -22.2854  -15.1627 C   0  0  2  0  0  0  0  0  0  0  0  0
   21.1865  -22.8357  -14.5906 N   0  0  0  0  0  0  0  0  0  0  0  0
   19.0612  -21.7443  -14.1524 C   0  0  0  0  0  0  0  0  0  0  0  0
   19.3053  -21.8658  -12.9266 O   0  0  0  0  0  0  0  0  0  0  0  0
   17.8928  -21.0900  -14.5113 O   0  0  0  0  0  0  0  0  0  0  0  0
  2  8  1  0
  2  1  1  1
  3  2  1  0
  4  3  1  0
  5  4  1  0
  6  5  1  0
  7  6  1  0
  8  9  2  0
 10 11  1  0
 10  8  1  0
 11 12  1  1
 12 13  1  0
 14 11  1  0
 15 14  2  0
 17 16  1  6
 17 19  1  0
 18 17  1  0
 19 20  1  1
 20 14  1  0
 21 23  1  0
 21 19  1  0
 22 21  2  0
M  END
$$$$
