KCT.pdb
     RDKit          3D

 23 22  0  0  1  0  0  0  0  0999 V2000
   20.5676  -19.8349  -12.6821 N   0  0  0  0  0  0  0  0  0  0  0  0
   21.4608  -20.9384  -12.8411 C   0  0  1  0  0  0  0  0  0  0  0  0
   21.2315  -21.6932  -14.1232 C   0  0  0  0  0  0  0  0  0  0  0  0
   19.9862  -21.2021  -14.7992 C   0  0  0  0  0  0  0  0  0  0  0  0
   18.7845  -22.0663  -14.5397 C   0  0  0  0  0  0  0  0  0  0  0  0
   17.6064  -21.6379  -15.4156 C   0  0  0  0  0  0  0  0  0  0  0  0
   16.4888  -22.5062  -15.0229 N   0  0  0  0  0  0  0  0  0  0  0  0
   22.8881  -20.4629  -12.7487 C   0  0  0  0  0  0  0  0  0  0  0  0
   23.2789  -19.4690  -13.3919 O   0  0  0  0  0  0  0  0  0  0  0  0
   23.8449  -21.1302  -11.9236 N   0  0  0  0  0  0  0  0  0  0  0  0
   25.2159  -20.7230  -11.8172 C   0  0  1  0  0  0  0  0  0  0  0  0
   25.8359  -21.1115  -10.4939 C   0  0  0  0  0  0  0  0  0  0  0  0
   24.9598  -20.3908   -9.0945 S   0  0  0  0  0  0  0  0  0  0  0  0
   25.9625  -21.2651  -12.9692 C   0  0  0  0  0  0  0  0  0  0  0  0
   26.5603  -22.3633  -12.8626 O   0  0  0  0  0  0  0  0  0  0  0  0
   25.3939  -23.0612  -15.8073 C   0  0  0  0  0  0  0  0  0  0  0  0
   25.9664  -21.7794  -16.3414 C   0  0  1  0  0  0  0  0  0  0  0  0
   24.9169  -20.9749  -16.7427 O   0  0  0  0  0  0  0  0  0  0  0  0
   26.8402  -21.0687  -15.3048 C   0  0  2  0  0  0  0  0  0  0  0  0
   26.0366  -20.5810  -14.2271 N   0  0  0  0  0  0  0  0  0  0  0  0
   27.6551  -20.0141  -15.9473 C   0  0  0  0  0  0  0  0  0  0  0  0
   28.5653  -20.3160  -16.7581 O   0  0  0  0  0  0  0  0  0  0  0  0
   27.4510  -18.6681  -15.6852 O   0  0  0  0  0  0  0  0  0  0  0  0
  2  8  1  0
  2  1  1  6
  3  2  1  0
  4  3  1  0
  5  4  1  0
  6  5  1  0
  7  6  1  0
  8  9  2  0
 10 11  1  0
 10  8  1  0
 11 12  1  1
 12 13  1  0
 14 11  1  0
 15 14  2  0
 17 16  1  1
 17 19  1  0
 18 17  1  0
 19 20  1  1
 20 14  1  0
 21 23  1  0
 21 19  1  0
 22 21  2  0
M  END
$$$$
