KCT.pdb
     RDKit          3D

 23 22  0  0  1  0  0  0  0  0999 V2000
   21.2303  -11.8749  -18.7479 N   0  0  0  0  0  0  0  0  0  0  0  0
   22.2476  -10.9190  -18.4447 C   0  0  1  0  0  0  0  0  0  0  0  0
   22.5877  -10.0386  -19.6175 C   0  0  0  0  0  0  0  0  0  0  0  0
   23.1167  -10.8656  -20.7513 C   0  0  0  0  0  0  0  0  0  0  0  0
   23.5516  -10.0486  -21.9351 C   0  0  0  0  0  0  0  0  0  0  0  0
   24.1456  -10.9423  -23.0247 C   0  0  0  0  0  0  0  0  0  0  0  0
   24.6106  -10.0259  -24.0741 N   0  0  0  0  0  0  0  0  0  0  0  0
   21.8367  -10.0895  -17.2552 C   0  0  0  0  0  0  0  0  0  0  0  0
   20.6527   -9.7330  -17.0964 O   0  0  0  0  0  0  0  0  0  0  0  0
   22.7847   -9.6812  -16.2671 N   0  0  0  0  0  0  0  0  0  0  0  0
   22.4163   -9.0514  -15.0325 C   0  0  1  0  0  0  0  0  0  0  0  0
   23.0872   -9.6851  -13.8347 C   0  0  0  0  0  0  0  0  0  0  0  0
   22.3551  -11.2745  -13.4066 S   0  0  0  0  0  0  0  0  0  0  0  0
   22.6965   -7.6060  -15.1352 C   0  0  0  0  0  0  0  0  0  0  0  0
   23.8033   -7.2164  -15.5804 O   0  0  0  0  0  0  0  0  0  0  0  0
   20.9014   -5.0054  -17.1340 C   0  0  0  0  0  0  0  0  0  0  0  0
   20.9031   -4.5412  -15.7055 C   0  0  1  0  0  0  0  0  0  0  0  0
   19.6582   -4.8053  -15.1669 O   0  0  0  0  0  0  0  0  0  0  0  0
   22.0104   -5.2117  -14.8885 C   0  0  2  0  0  0  0  0  0  0  0  0
   21.7439   -6.6091  -14.7421 N   0  0  0  0  0  0  0  0  0  0  0  0
   22.1968   -4.5158  -13.5963 C   0  0  0  0  0  0  0  0  0  0  0  0
   22.0127   -5.1225  -12.5123 O   0  0  0  0  0  0  0  0  0  0  0  0
   22.5771   -3.1842  -13.5288 O   0  0  0  0  0  0  0  0  0  0  0  0
  2  8  1  0
  2  1  1  6
  3  2  1  0
  4  3  1  0
  5  4  1  0
  6  5  1  0
  7  6  1  0
  8  9  2  0
 10 11  1  0
 10  8  1  0
 11 12  1  1
 12 13  1  0
 14 11  1  0
 15 14  2  0
 17 16  1  6
 17 19  1  0
 18 17  1  0
 19 20  1  1
 20 14  1  0
 21 23  1  0
 21 19  1  0
 22 21  2  0
M  END
$$$$
