KCT.pdb
     RDKit          3D

 23 22  0  0  1  0  0  0  0  0999 V2000
   28.2338  -21.3916  -16.0613 N   0  0  0  0  0  0  0  0  0  0  0  0
   27.7915  -20.4369  -15.0950 C   0  0  1  0  0  0  0  0  0  0  0  0
   27.1945  -19.2061  -15.7234 C   0  0  0  0  0  0  0  0  0  0  0  0
   28.2743  -18.3475  -16.3115 C   0  0  0  0  0  0  0  0  0  0  0  0
   28.6315  -18.7191  -17.7230 C   0  0  0  0  0  0  0  0  0  0  0  0
   29.6403  -17.7297  -18.3078 C   0  0  0  0  0  0  0  0  0  0  0  0
   30.0717  -18.3162  -19.5834 N   0  0  0  0  0  0  0  0  0  0  0  0
   26.8136  -21.0803  -14.1456 C   0  0  0  0  0  0  0  0  0  0  0  0
   25.9596  -21.8922  -14.5528 O   0  0  0  0  0  0  0  0  0  0  0  0
   26.8272  -20.7859  -12.7476 N   0  0  0  0  0  0  0  0  0  0  0  0
   25.7887  -21.1911  -11.8454 C   0  0  1  0  0  0  0  0  0  0  0  0
   26.1367  -20.9184  -10.3994 C   0  0  0  0  0  0  0  0  0  0  0  0
   24.7383  -21.1979   -9.2987 S   0  0  0  0  0  0  0  0  0  0  0  0
   24.5270  -20.5424  -12.2525 C   0  0  0  0  0  0  0  0  0  0  0  0
   24.4484  -19.2901  -12.2709 O   0  0  0  0  0  0  0  0  0  0  0  0
   22.8152  -20.1845  -15.2909 C   0  0  0  0  0  0  0  0  0  0  0  0
   21.7735  -20.8084  -14.4067 C   0  0  1  0  0  0  0  0  0  0  0  0
   21.6557  -22.1402  -14.7560 O   0  0  0  0  0  0  0  0  0  0  0  0
   22.1184  -20.6563  -12.9231 C   0  0  2  0  0  0  0  0  0  0  0  0
   23.3663  -21.2924  -12.6347 N   0  0  0  0  0  0  0  0  0  0  0  0
   21.0065  -21.1451  -12.0783 C   0  0  0  0  0  0  0  0  0  0  0  0
   21.1888  -22.0830  -11.2634 O   0  0  0  0  0  0  0  0  0  0  0  0
   19.7353  -20.5963  -12.1497 O   0  0  0  0  0  0  0  0  0  0  0  0
  2  8  1  0
  2  1  1  6
  3  2  1  0
  4  3  1  0
  5  4  1  0
  6  5  1  0
  7  6  1  0
  8  9  2  0
 10 11  1  0
 10  8  1  0
 11 12  1  1
 12 13  1  0
 14 11  1  0
 15 14  2  0
 17 16  1  6
 17 19  1  0
 18 17  1  0
 19 20  1  1
 20 14  1  0
 21 23  1  0
 21 19  1  0
 22 21  2  0
M  END
$$$$
