KCT.pdb
     RDKit          3D

 23 22  0  0  1  0  0  0  0  0999 V2000
   23.2580  -12.8912  -18.6194 N   0  0  0  0  0  0  0  0  0  0  0  0
   23.4142  -11.4826  -18.4406 C   0  0  1  0  0  0  0  0  0  0  0  0
   23.1743  -10.7046  -19.7069 C   0  0  0  0  0  0  0  0  0  0  0  0
   22.9961  -11.6403  -20.8652 C   0  0  0  0  0  0  0  0  0  0  0  0
   21.5577  -11.9607  -21.1592 C   0  0  0  0  0  0  0  0  0  0  0  0
   21.4295  -12.7332  -22.4729 C   0  0  0  0  0  0  0  0  0  0  0  0
   19.9974  -13.0241  -22.6193 N   0  0  0  0  0  0  0  0  0  0  0  0
   22.5081  -11.0000  -17.3370 C   0  0  0  0  0  0  0  0  0  0  0  0
   21.4505  -11.6005  -17.0630 O   0  0  0  0  0  0  0  0  0  0  0  0
   22.8249   -9.8403  -16.5650 N   0  0  0  0  0  0  0  0  0  0  0  0
   21.9706   -9.3176  -15.5386 C   0  0  1  0  0  0  0  0  0  0  0  0
   22.5487   -9.5000  -14.1533 C   0  0  0  0  0  0  0  0  0  0  0  0
   21.5054   -8.7696  -12.8791 S   0  0  0  0  0  0  0  0  0  0  0  0
   21.6734   -7.9043  -15.8428 C   0  0  0  0  0  0  0  0  0  0  0  0
   22.6152   -7.0924  -16.0114 O   0  0  0  0  0  0  0  0  0  0  0  0
   20.2652   -6.3063  -18.7472 C   0  0  0  0  0  0  0  0  0  0  0  0
   19.3585   -5.9202  -17.6136 C   0  0  1  0  0  0  0  0  0  0  0  0
   18.2377   -6.7268  -17.6666 O   0  0  0  0  0  0  0  0  0  0  0  0
   20.0584   -6.0378  -16.2574 C   0  0  2  0  0  0  0  0  0  0  0  0
   20.3328   -7.4086  -15.9563 N   0  0  0  0  0  0  0  0  0  0  0  0
   19.2715   -5.3567  -15.2057 C   0  0  0  0  0  0  0  0  0  0  0  0
   18.8214   -6.0018  -14.2269 O   0  0  0  0  0  0  0  0  0  0  0  0
   19.0019   -3.9977  -15.2560 O   0  0  0  0  0  0  0  0  0  0  0  0
  2  8  1  0
  2  1  1  6
  3  2  1  0
  4  3  1  0
  5  4  1  0
  6  5  1  0
  7  6  1  0
  8  9  2  0
 10 11  1  0
 10  8  1  0
 11 12  1  1
 12 13  1  0
 14 11  1  0
 15 14  2  0
 17 16  1  6
 17 19  1  0
 18 17  1  0
 19 20  1  1
 20 14  1  0
 21 23  1  0
 21 19  1  0
 22 21  2  0
M  END
$$$$
