GGV.pdb
     RDKit          3D

 16 15  0  0  1  0  0  0  0  0999 V2000
   18.9676  -26.4411  -10.9172 N   0  0  0  0  0  0  0  0  0  0  0  0
   19.3872  -25.5227  -11.9396 C   0  0  0  0  0  0  0  0  0  0  0  0
   18.7620  -24.1996  -11.7090 C   0  0  0  0  0  0  0  0  0  0  0  0
   18.8463  -23.6570  -10.5758 O   0  0  0  0  0  0  0  0  0  0  0  0
   18.0557  -23.4995  -12.7313 N   0  0  0  0  0  0  0  0  0  0  0  0
   17.5510  -22.1923  -12.4623 C   0  0  0  0  0  0  0  0  0  0  0  0
   18.4059  -21.1424  -13.0819 C   0  0  0  0  0  0  0  0  0  0  0  0
   18.0536  -19.9161  -13.0195 O   0  0  0  0  0  0  0  0  0  0  0  0
   22.3945  -21.8745  -14.4530 C   0  0  0  0  0  0  0  0  0  0  0  0
   21.9216  -20.6148  -13.7626 C   0  0  2  0  0  0  0  0  0  0  0  0
   22.0554  -20.7926  -12.2800 C   0  0  0  0  0  0  0  0  0  0  0  0
   20.5074  -20.3463  -14.2061 C   0  0  2  0  0  0  0  0  0  0  0  0
   19.6076  -21.4204  -13.7489 N   0  0  0  0  0  0  0  0  0  0  0  0
   20.4157  -20.1980  -15.6782 C   0  0  0  0  0  0  0  0  0  0  0  0
   20.8742  -19.0821  -16.3555 O   0  0  0  0  0  0  0  0  0  0  0  0
   19.9013  -21.1191  -16.3507 O   0  0  0  0  0  0  0  0  0  0  0  0
  2  1  1  0
  3  2  1  0
  3  5  1  0
  4  3  2  0
  6  5  1  0
  7  6  1  0
  8  7  2  0
 10  9  1  6
 10 11  1  0
 10 12  1  0
 12 13  1  6
 13  7  1  0
 14 12  1  0
 14 15  1  0
 16 14  2  0
M  END
$$$$
