GGV.pdb
     RDKit          3D

 16 15  0  0  1  0  0  0  0  0999 V2000
   18.3549  -13.7405  -16.0364 N   0  0  0  0  0  0  0  0  0  0  0  0
   19.3892  -12.9834  -16.6859 C   0  0  0  0  0  0  0  0  0  0  0  0
   19.1205  -11.5350  -16.5294 C   0  0  0  0  0  0  0  0  0  0  0  0
   18.0005  -11.0668  -16.8646 O   0  0  0  0  0  0  0  0  0  0  0  0
   20.0907  -10.6298  -16.0064 N   0  0  0  0  0  0  0  0  0  0  0  0
   19.7611   -9.2470  -15.8825 C   0  0  0  0  0  0  0  0  0  0  0  0
   20.8414   -8.4916  -15.1903 C   0  0  0  0  0  0  0  0  0  0  0  0
   21.5345   -9.0615  -14.2811 O   0  0  0  0  0  0  0  0  0  0  0  0
   22.4857   -4.9745  -16.7463 C   0  0  0  0  0  0  0  0  0  0  0  0
   23.2442   -5.9280  -15.8503 C   0  0  2  0  0  0  0  0  0  0  0  0
   23.8690   -6.9973  -16.6953 C   0  0  0  0  0  0  0  0  0  0  0  0
   22.2811   -6.4649  -14.8242 C   0  0  2  0  0  0  0  0  0  0  0  0
   21.1566   -7.1563  -15.4800 N   0  0  0  0  0  0  0  0  0  0  0  0
   21.7713   -5.3907  -13.9392 C   0  0  0  0  0  0  0  0  0  0  0  0
   22.4878   -4.8918  -12.8659 O   0  0  0  0  0  0  0  0  0  0  0  0
   20.6406   -4.9041  -14.1635 O   0  0  0  0  0  0  0  0  0  0  0  0
  2  1  1  0
  3  2  1  0
  3  5  1  0
  4  3  2  0
  6  5  1  0
  7  6  1  0
  8  7  2  0
 10  9  1  6
 10 11  1  0
 10 12  1  0
 12 13  1  6
 13  7  1  0
 14 12  1  0
 14 15  1  0
 16 14  2  0
M  END
$$$$
