GGV.pdb
     RDKit          3D

 16 15  0  0  1  0  0  0  0  0999 V2000
   18.2359  -11.7405  -17.8894 N   0  0  0  0  0  0  0  0  0  0  0  0
   17.3286  -10.8597  -17.2068 C   0  0  0  0  0  0  0  0  0  0  0  0
   17.9689   -9.5383  -17.0103 C   0  0  0  0  0  0  0  0  0  0  0  0
   19.0651   -9.2843  -17.5757 O   0  0  0  0  0  0  0  0  0  0  0  0
   17.3894   -8.5220  -16.1947 N   0  0  0  0  0  0  0  0  0  0  0  0
   18.0015   -7.2340  -16.1429 C   0  0  0  0  0  0  0  0  0  0  0  0
   19.0270   -7.1635  -15.0657 C   0  0  0  0  0  0  0  0  0  0  0  0
   18.7258   -7.5179  -13.8759 O   0  0  0  0  0  0  0  0  0  0  0  0
   23.0722   -7.1092  -15.9050 C   0  0  0  0  0  0  0  0  0  0  0  0
   22.5109   -7.6342  -14.6025 C   0  0  2  0  0  0  0  0  0  0  0  0
   22.1295   -9.0730  -14.7815 C   0  0  0  0  0  0  0  0  0  0  0  0
   21.3534   -6.7546  -14.2086 C   0  0  2  0  0  0  0  0  0  0  0  0
   20.3402   -6.7205  -15.2786 N   0  0  0  0  0  0  0  0  0  0  0  0
   21.7989   -5.3781  -13.8858 C   0  0  0  0  0  0  0  0  0  0  0  0
   21.5112   -4.2841  -14.6823 O   0  0  0  0  0  0  0  0  0  0  0  0
   22.4674   -5.1841  -12.8461 O   0  0  0  0  0  0  0  0  0  0  0  0
  2  1  1  0
  3  2  1  0
  3  5  1  0
  4  3  2  0
  6  5  1  0
  7  6  1  0
  8  7  2  0
 10  9  1  6
 10 11  1  0
 10 12  1  0
 12 13  1  6
 13  7  1  0
 14 12  1  0
 14 15  1  0
 16 14  2  0
M  END
$$$$
