GGV.pdb
     RDKit          3D

 16 15  0  0  1  0  0  0  0  0999 V2000
   13.8097   -6.9852  -14.7107 N   0  0  0  0  0  0  0  0  0  0  0  0
   14.8371   -6.8926  -13.7104 C   0  0  0  0  0  0  0  0  0  0  0  0
   16.0973   -7.4685  -14.2347 C   0  0  0  0  0  0  0  0  0  0  0  0
   16.5403   -7.0910  -15.3514 O   0  0  0  0  0  0  0  0  0  0  0  0
   16.8455   -8.4492  -13.5188 N   0  0  0  0  0  0  0  0  0  0  0  0
   18.0672   -8.9369  -14.0716 C   0  0  0  0  0  0  0  0  0  0  0  0
   19.2452   -8.2468  -13.4776 C   0  0  0  0  0  0  0  0  0  0  0  0
   19.3341   -8.1163  -12.2099 O   0  0  0  0  0  0  0  0  0  0  0  0
   22.7390   -7.8806  -15.6715 C   0  0  0  0  0  0  0  0  0  0  0  0
   22.7186   -8.0624  -14.1702 C   0  0  2  0  0  0  0  0  0  0  0  0
   22.6417   -9.5268  -13.8581 C   0  0  0  0  0  0  0  0  0  0  0  0
   21.5574   -7.2739  -13.6237 C   0  0  2  0  0  0  0  0  0  0  0  0
   20.2941   -7.7153  -14.2415 N   0  0  0  0  0  0  0  0  0  0  0  0
   21.7421   -5.8174  -13.8279 C   0  0  0  0  0  0  0  0  0  0  0  0
   22.5286   -5.0323  -13.0039 O   0  0  0  0  0  0  0  0  0  0  0  0
   21.1643   -5.2605  -14.7878 O   0  0  0  0  0  0  0  0  0  0  0  0
  2  1  1  0
  3  2  1  0
  3  5  1  0
  4  3  2  0
  6  5  1  0
  7  6  1  0
  8  7  2  0
 10  9  1  6
 10 11  1  0
 10 12  1  0
 12 13  1  6
 13  7  1  0
 14 12  1  0
 14 15  1  0
 16 14  2  0
M  END
$$$$
