GGV.pdb
     RDKit          3D

 16 15  0  0  1  0  0  0  0  0999 V2000
   27.5931  -23.3196  -16.0098 N   0  0  0  0  0  0  0  0  0  0  0  0
   26.3204  -23.9862  -15.9844 C   0  0  0  0  0  0  0  0  0  0  0  0
   25.2576  -23.0190  -15.6244 C   0  0  0  0  0  0  0  0  0  0  0  0
   24.6285  -22.4144  -16.5324 O   0  0  0  0  0  0  0  0  0  0  0  0
   24.9082  -22.7362  -14.2709 N   0  0  0  0  0  0  0  0  0  0  0  0
   23.8189  -21.8552  -13.9999 C   0  0  0  0  0  0  0  0  0  0  0  0
   24.2548  -20.4317  -14.0183 C   0  0  0  0  0  0  0  0  0  0  0  0
   24.0301  -19.6841  -13.0071 O   0  0  0  0  0  0  0  0  0  0  0  0
   27.0622  -18.9711  -16.7449 C   0  0  0  0  0  0  0  0  0  0  0  0
   26.8405  -18.3511  -15.3833 C   0  0  2  0  0  0  0  0  0  0  0  0
   27.7064  -19.0539  -14.3814 C   0  0  0  0  0  0  0  0  0  0  0  0
   25.3704  -18.4396  -15.0677 C   0  0  2  0  0  0  0  0  0  0  0  0
   24.9153  -19.8410  -15.1051 N   0  0  0  0  0  0  0  0  0  0  0  0
   24.5616  -17.6170  -15.9986 C   0  0  0  0  0  0  0  0  0  0  0  0
   23.6311  -18.1552  -16.8695 O   0  0  0  0  0  0  0  0  0  0  0  0
   24.7193  -16.3758  -16.0062 O   0  0  0  0  0  0  0  0  0  0  0  0
  2  1  1  0
  3  2  1  0
  3  5  1  0
  4  3  2  0
  6  5  1  0
  7  6  1  0
  8  7  2  0
 10  9  1  6
 10 11  1  0
 10 12  1  0
 12 13  1  6
 13  7  1  0
 14 12  1  0
 14 15  1  0
 16 14  2  0
M  END
$$$$
