GGV.pdb
     RDKit          3D

 16 15  0  0  1  0  0  0  0  0999 V2000
   18.3356  -12.4481  -15.7029 N   0  0  0  0  0  0  0  0  0  0  0  0
   18.3653  -11.5436  -16.8190 C   0  0  0  0  0  0  0  0  0  0  0  0
   18.4470  -10.1482  -16.3283 C   0  0  0  0  0  0  0  0  0  0  0  0
   19.0574   -9.2811  -17.0075 O   0  0  0  0  0  0  0  0  0  0  0  0
   17.8545   -9.7346  -15.0986 N   0  0  0  0  0  0  0  0  0  0  0  0
   17.7741   -8.3427  -14.7950 C   0  0  0  0  0  0  0  0  0  0  0  0
   19.0533   -7.8367  -14.2256 C   0  0  0  0  0  0  0  0  0  0  0  0
   19.3124   -8.0123  -12.9871 O   0  0  0  0  0  0  0  0  0  0  0  0
   23.4934   -6.1001  -15.3099 C   0  0  0  0  0  0  0  0  0  0  0  0
   22.4435   -7.1881  -15.3468 C   0  0  2  0  0  0  0  0  0  0  0  0
   21.9926   -7.3818  -16.7634 C   0  0  0  0  0  0  0  0  0  0  0  0
   21.3293   -6.7886  -14.4152 C   0  0  2  0  0  0  0  0  0  0  0  0
   20.0206   -7.1601  -14.9826 N   0  0  0  0  0  0  0  0  0  0  0  0
   21.3610   -5.3370  -14.1170 C   0  0  0  0  0  0  0  0  0  0  0  0
   20.4716   -4.4322  -14.6690 O   0  0  0  0  0  0  0  0  0  0  0  0
   22.2287   -4.8972  -13.3302 O   0  0  0  0  0  0  0  0  0  0  0  0
  2  1  1  0
  3  2  1  0
  3  5  1  0
  4  3  2  0
  6  5  1  0
  7  6  1  0
  8  7  2  0
 10  9  1  6
 10 11  1  0
 10 12  1  0
 12 13  1  6
 13  7  1  0
 14 12  1  0
 14 15  1  0
 16 14  2  0
M  END
$$$$
