GGV.pdb
     RDKit          3D

 16 15  0  0  1  0  0  0  0  0999 V2000
   17.5782  -13.0590  -15.3083 N   0  0  0  0  0  0  0  0  0  0  0  0
   18.3567  -12.1588  -16.1135 C   0  0  0  0  0  0  0  0  0  0  0  0
   18.1868  -10.7728  -15.6188 C   0  0  0  0  0  0  0  0  0  0  0  0
   17.2698  -10.5102  -14.7966 O   0  0  0  0  0  0  0  0  0  0  0  0
   19.0304   -9.7025  -16.0392 N   0  0  0  0  0  0  0  0  0  0  0  0
   18.8582   -8.4089  -15.4621 C   0  0  0  0  0  0  0  0  0  0  0  0
   20.0978   -7.9515  -14.7758 C   0  0  0  0  0  0  0  0  0  0  0  0
   20.7323   -8.7513  -14.0079 O   0  0  0  0  0  0  0  0  0  0  0  0
   22.5646   -5.1855  -16.3945 C   0  0  0  0  0  0  0  0  0  0  0  0
   22.9957   -6.1993  -15.3584 C   0  0  2  0  0  0  0  0  0  0  0  0
   23.2619   -7.5082  -16.0392 C   0  0  0  0  0  0  0  0  0  0  0  0
   21.9157   -6.2800  -14.3116 C   0  0  2  0  0  0  0  0  0  0  0  0
   20.6295   -6.6622  -14.9217 N   0  0  0  0  0  0  0  0  0  0  0  0
   21.7703   -5.0005  -13.5774 C   0  0  0  0  0  0  0  0  0  0  0  0
   22.6200   -4.6141  -12.5562 O   0  0  0  0  0  0  0  0  0  0  0  0
   20.8386   -4.2249  -13.8870 O   0  0  0  0  0  0  0  0  0  0  0  0
  2  1  1  0
  3  2  1  0
  3  5  1  0
  4  3  2  0
  6  5  1  0
  7  6  1  0
  8  7  2  0
 10  9  1  6
 10 11  1  0
 10 12  1  0
 12 13  1  6
 13  7  1  0
 14 12  1  0
 14 15  1  0
 16 14  2  0
M  END
$$$$
