GGV.pdb
     RDKit          3D

 16 15  0  0  1  0  0  0  0  0999 V2000
   26.3631  -19.7872  -18.3950 N   0  0  0  0  0  0  0  0  0  0  0  0
   25.8201  -18.6096  -17.7759 C   0  0  0  0  0  0  0  0  0  0  0  0
   26.2362  -18.5559  -16.3551 C   0  0  0  0  0  0  0  0  0  0  0  0
   25.4895  -18.0028  -15.5052 O   0  0  0  0  0  0  0  0  0  0  0  0
   27.4670  -19.1126  -15.8976 N   0  0  0  0  0  0  0  0  0  0  0  0
   27.7666  -19.0941  -14.5027 C   0  0  0  0  0  0  0  0  0  0  0  0
   26.9582  -20.1003  -13.7606 C   0  0  0  0  0  0  0  0  0  0  0  0
   26.8720  -21.2968  -14.1997 O   0  0  0  0  0  0  0  0  0  0  0  0
   24.9687  -21.8297   -9.6833 C   0  0  0  0  0  0  0  0  0  0  0  0
   25.8876  -20.8622  -10.3952 C   0  0  2  0  0  0  0  0  0  0  0  0
   25.7842  -19.5189   -9.7376 C   0  0  0  0  0  0  0  0  0  0  0  0
   25.5036  -20.8448  -11.8516 C   0  0  2  0  0  0  0  0  0  0  0  0
   26.2649  -19.8115  -12.5764 N   0  0  0  0  0  0  0  0  0  0  0  0
   24.0488  -20.6238  -12.0300 C   0  0  0  0  0  0  0  0  0  0  0  0
   23.1147  -21.6416  -11.9539 O   0  0  0  0  0  0  0  0  0  0  0  0
   23.6339  -19.4663  -12.2608 O   0  0  0  0  0  0  0  0  0  0  0  0
  2  1  1  0
  3  2  1  0
  3  5  1  0
  4  3  2  0
  6  5  1  0
  7  6  1  0
  8  7  2  0
 10  9  1  1
 10 11  1  0
 10 12  1  0
 12 13  1  6
 13  7  1  0
 14 12  1  0
 14 15  1  0
 16 14  2  0
M  END
$$$$
