GGV.pdb
     RDKit          3D

 16 15  0  0  1  0  0  0  0  0999 V2000
   16.6215   -9.4401  -16.4829 N   0  0  0  0  0  0  0  0  0  0  0  0
   17.7818   -9.8800  -17.2077 C   0  0  0  0  0  0  0  0  0  0  0  0
   18.9372   -9.9805  -16.2861 C   0  0  0  0  0  0  0  0  0  0  0  0
   20.0005  -10.5325  -16.6741 O   0  0  0  0  0  0  0  0  0  0  0  0
   18.8993   -9.4711  -14.9545 N   0  0  0  0  0  0  0  0  0  0  0  0
   20.0664   -9.5609  -14.1384 C   0  0  0  0  0  0  0  0  0  0  0  0
   20.8147   -8.2739  -14.1180 C   0  0  0  0  0  0  0  0  0  0  0  0
   21.5660   -7.9901  -13.1246 O   0  0  0  0  0  0  0  0  0  0  0  0
   23.0349   -4.6101  -16.3877 C   0  0  0  0  0  0  0  0  0  0  0  0
   22.1959   -5.8651  -16.4790 C   0  0  2  0  0  0  0  0  0  0  0  0
   21.1939   -5.7018  -17.5821 C   0  0  0  0  0  0  0  0  0  0  0  0
   21.5664   -6.1007  -15.1310 C   0  0  2  0  0  0  0  0  0  0  0  0
   20.7463   -7.3253  -15.1484 N   0  0  0  0  0  0  0  0  0  0  0  0
   20.7444   -4.9439  -14.7027 C   0  0  0  0  0  0  0  0  0  0  0  0
   21.2839   -3.7977  -14.1466 O   0  0  0  0  0  0  0  0  0  0  0  0
   19.5025   -4.9949  -14.8458 O   0  0  0  0  0  0  0  0  0  0  0  0
  2  1  1  0
  3  2  1  0
  3  5  1  0
  4  3  2  0
  6  5  1  0
  7  6  1  0
  8  7  2  0
 10  9  1  1
 10 11  1  0
 10 12  1  0
 12 13  1  6
 13  7  1  0
 14 12  1  0
 14 15  1  0
 16 14  2  0
M  END
$$$$
