GGV.pdb
     RDKit          3D

 16 15  0  0  1  0  0  0  0  0999 V2000
   16.6976  -13.4835  -14.1449 N   0  0  0  0  0  0  0  0  0  0  0  0
   15.9786  -12.6315  -13.2383 C   0  0  0  0  0  0  0  0  0  0  0  0
   15.9852  -11.2410  -13.7492 C   0  0  0  0  0  0  0  0  0  0  0  0
   16.2206  -11.0232  -14.9670 O   0  0  0  0  0  0  0  0  0  0  0  0
   15.7322  -10.1168  -12.9088 N   0  0  0  0  0  0  0  0  0  0  0  0
   15.4284   -8.8551  -13.5020 C   0  0  0  0  0  0  0  0  0  0  0  0
   15.1403   -7.8242  -12.4671 C   0  0  0  0  0  0  0  0  0  0  0  0
   14.8307   -6.6363  -12.8208 O   0  0  0  0  0  0  0  0  0  0  0  0
   13.8729   -6.4120   -7.9963 C   0  0  0  0  0  0  0  0  0  0  0  0
   13.8737   -7.4095   -9.1330 C   0  0  2  0  0  0  0  0  0  0  0  0
   14.0474   -8.7883   -8.5708 C   0  0  0  0  0  0  0  0  0  0  0  0
   14.9641   -7.0153  -10.0946 C   0  0  2  0  0  0  0  0  0  0  0  0
   15.1882   -8.0798  -11.0892 N   0  0  0  0  0  0  0  0  0  0  0  0
   16.2294   -6.7048   -9.3877 C   0  0  0  0  0  0  0  0  0  0  0  0
   16.5047   -5.4644   -8.8401 O   0  0  0  0  0  0  0  0  0  0  0  0
   17.0973   -7.5989   -9.2746 O   0  0  0  0  0  0  0  0  0  0  0  0
  2  1  1  0
  3  2  1  0
  3  5  1  0
  4  3  2  0
  6  5  1  0
  7  6  1  0
  8  7  2  0
 10  9  1  1
 10 11  1  0
 10 12  1  0
 12 13  1  6
 13  7  1  0
 14 12  1  0
 14 15  1  0
 16 14  2  0
M  END
$$$$
