QSS.pdb
     RDKit          3D

 22 21  0  0  1  0  0  0  0  0999 V2000
   22.4945  -15.4315  -19.9055 N   0  0  0  0  0  0  0  0  0  0  0  0
   23.0097  -14.1080  -19.9961 C   0  0  0  0  0  0  0  0  0  0  0  0
   24.2497  -13.9913  -19.9830 O   0  0  0  0  0  0  0  0  0  0  0  0
   22.1300  -12.9644  -20.0950 C   0  0  0  0  0  0  0  0  0  0  0  0
   22.3280  -11.8193  -19.1879 C   0  0  0  0  0  0  0  0  0  0  0  0
   21.5560  -11.7758  -17.9212 C   0  0  2  0  0  0  0  0  0  0  0  0
   20.4178  -12.6372  -17.8687 N   0  0  0  0  0  0  0  0  0  0  0  0
   21.1768  -10.3379  -17.7014 C   0  0  0  0  0  0  0  0  0  0  0  0
   21.2197   -9.5280  -18.6766 O   0  0  0  0  0  0  0  0  0  0  0  0
   19.1275   -9.3398  -14.3324 O   0  0  0  0  0  0  0  0  0  0  0  0
   19.0260   -8.5510  -15.4791 C   0  0  0  0  0  0  0  0  0  0  0  0
   20.3534   -8.4921  -16.1945 C   0  0  2  0  0  0  0  0  0  0  0  0
   20.7775   -9.8526  -16.4620 N   0  0  0  0  0  0  0  0  0  0  0  0
   21.2978   -7.7280  -15.3999 C   0  0  0  0  0  0  0  0  0  0  0  0
   22.0742   -8.2935  -14.6059 O   0  0  0  0  0  0  0  0  0  0  0  0
   21.2162   -3.5751  -15.6380 O   0  0  0  0  0  0  0  0  0  0  0  0
   22.4730   -4.1464  -15.4966 C   0  0  0  0  0  0  0  0  0  0  0  0
   22.3047   -5.4950  -14.8182 C   0  0  2  0  0  0  0  0  0  0  0  0
   21.3445   -6.3224  -15.5221 N   0  0  0  0  0  0  0  0  0  0  0  0
   21.8982   -5.2616  -13.4236 C   0  0  0  0  0  0  0  0  0  0  0  0
   22.7970   -4.6530  -12.5619 O   0  0  0  0  0  0  0  0  0  0  0  0
   20.7432   -5.6312  -13.0837 O   0  0  0  0  0  0  0  0  0  0  0  0
  1  2  1  0
  2  3  2  0
  4  2  1  0
  4  5  1  0
  6  5  1  0
  6  8  1  0
  6  7  1  6
  8  9  2  0
  8 13  1  0
 10 11  1  0
 12 11  1  1
 12 14  1  0
 13 12  1  0
 14 19  1  0
 14 15  2  0
 16 17  1  0
 18 17  1  6
 18 20  1  0
 19 18  1  0
 20 21  1  0
 22 20  2  0
M  END
$$$$
