QSS.pdb
     RDKit          3D

 22 21  0  0  1  0  0  0  0  0999 V2000
   19.1671  -12.3483  -16.5695 N   0  0  0  0  0  0  0  0  0  0  0  0
   19.2810  -11.9503  -17.9311 C   0  0  0  0  0  0  0  0  0  0  0  0
   19.2921  -12.8629  -18.7787 O   0  0  0  0  0  0  0  0  0  0  0  0
   19.3808  -10.5556  -18.3004 C   0  0  0  0  0  0  0  0  0  0  0  0
   19.3706   -9.5259  -17.2454 C   0  0  0  0  0  0  0  0  0  0  0  0
   20.5071   -9.4752  -16.2925 C   0  0  2  0  0  0  0  0  0  0  0  0
   20.6381  -10.6106  -15.4356 N   0  0  0  0  0  0  0  0  0  0  0  0
   20.3512   -8.2016  -15.5092 C   0  0  0  0  0  0  0  0  0  0  0  0
   19.2883   -8.0069  -14.8449 O   0  0  0  0  0  0  0  0  0  0  0  0
   22.4818   -4.6235  -13.2310 O   0  0  0  0  0  0  0  0  0  0  0  0
   22.5792   -5.6841  -14.1327 C   0  0  0  0  0  0  0  0  0  0  0  0
   21.2364   -5.9622  -14.7626 C   0  0  2  0  0  0  0  0  0  0  0  0
   21.3319   -7.2175  -15.4821 N   0  0  0  0  0  0  0  0  0  0  0  0
   20.8494   -4.8369  -15.5937 C   0  0  0  0  0  0  0  0  0  0  0  0
   21.3216   -4.6912  -16.7378 O   0  0  0  0  0  0  0  0  0  0  0  0
   17.5601   -1.4658  -16.4366 O   0  0  0  0  0  0  0  0  0  0  0  0
   18.0143   -2.4105  -15.5273 C   0  0  0  0  0  0  0  0  0  0  0  0
   19.4436   -2.7701  -15.8947 C   0  0  2  0  0  0  0  0  0  0  0  0
   19.9246   -3.8880  -15.1068 N   0  0  0  0  0  0  0  0  0  0  0  0
   20.2819   -1.5756  -15.7072 C   0  0  0  0  0  0  0  0  0  0  0  0
   20.4673   -0.7182  -16.7802 O   0  0  0  0  0  0  0  0  0  0  0  0
   20.7915   -1.3941  -14.5699 O   0  0  0  0  0  0  0  0  0  0  0  0
  1  2  1  0
  2  3  2  0
  4  2  1  0
  4  5  1  0
  6  5  1  0
  6  8  1  0
  6  7  1  1
  8  9  2  0
  8 13  1  0
 10 11  1  0
 12 11  1  6
 12 14  1  0
 13 12  1  0
 14 19  1  0
 14 15  2  0
 16 17  1  0
 18 17  1  1
 18 20  1  0
 19 18  1  0
 20 21  1  0
 22 20  2  0
M  END
$$$$
