QSS.pdb
     RDKit          3D

 22 21  0  0  1  0  0  0  0  0999 V2000
   24.2780  -22.8300  -19.0330 N   0  0  0  0  0  0  0  0  0  0  0  0
   24.6074  -23.8657  -18.1143 C   0  0  0  0  0  0  0  0  0  0  0  0
   24.6650  -25.0212  -18.5756 O   0  0  0  0  0  0  0  0  0  0  0  0
   24.8576  -23.5806  -16.7187 C   0  0  0  0  0  0  0  0  0  0  0  0
   24.7674  -22.1900  -16.2375 C   0  0  0  0  0  0  0  0  0  0  0  0
   25.5952  -21.1538  -16.9033 C   0  0  2  0  0  0  0  0  0  0  0  0
   27.0046  -21.2772  -16.7065 N   0  0  0  0  0  0  0  0  0  0  0  0
   25.0806  -19.8244  -16.4258 C   0  0  0  0  0  0  0  0  0  0  0  0
   25.1509  -19.5377  -15.1923 O   0  0  0  0  0  0  0  0  0  0  0  0
   24.4976  -16.7660  -19.1117 O   0  0  0  0  0  0  0  0  0  0  0  0
   24.7998  -16.5575  -17.7654 C   0  0  0  0  0  0  0  0  0  0  0  0
   24.0754  -17.5623  -16.9035 C   0  0  2  0  0  0  0  0  0  0  0  0
   24.5247  -18.8864  -17.2873 N   0  0  0  0  0  0  0  0  0  0  0  0
   22.6428  -17.3676  -17.0334 C   0  0  0  0  0  0  0  0  0  0  0  0
   21.9691  -18.0617  -17.8191 O   0  0  0  0  0  0  0  0  0  0  0  0
   20.0311  -16.2098  -14.1434 O   0  0  0  0  0  0  0  0  0  0  0  0
   20.0605  -15.3107  -15.2000 C   0  0  0  0  0  0  0  0  0  0  0  0
   20.5949  -16.0365  -16.4226 C   0  0  2  0  0  0  0  0  0  0  0  0
   21.9945  -16.3792  -16.2617 N   0  0  0  0  0  0  0  0  0  0  0  0
   20.3796  -15.1787  -17.5984 C   0  0  0  0  0  0  0  0  0  0  0  0
   21.4851  -14.6991  -18.2830 O   0  0  0  0  0  0  0  0  0  0  0  0
   19.1899  -14.9234  -17.9233 O   0  0  0  0  0  0  0  0  0  0  0  0
  1  2  1  0
  2  3  2  0
  4  2  1  0
  4  5  1  0
  6  5  1  0
  6  8  1  0
  6  7  1  1
  8  9  2  0
  8 13  1  0
 10 11  1  0
 12 11  1  6
 12 14  1  0
 13 12  1  0
 14 19  1  0
 14 15  2  0
 16 17  1  0
 18 17  1  1
 18 20  1  0
 19 18  1  0
 20 21  1  0
 22 20  2  0
M  END
$$$$
