QSS.pdb
     RDKit          3D

 22 21  0  0  1  0  0  0  0  0999 V2000
   15.6798  -12.3290  -13.9257 N   0  0  0  0  0  0  0  0  0  0  0  0
   15.2213  -12.5262  -15.2585 C   0  0  0  0  0  0  0  0  0  0  0  0
   14.1510  -13.1488  -15.3924 O   0  0  0  0  0  0  0  0  0  0  0  0
   15.9688  -12.0275  -16.3917 C   0  0  0  0  0  0  0  0  0  0  0  0
   17.2071  -11.2617  -16.1605 C   0  0  0  0  0  0  0  0  0  0  0  0
   18.4520  -11.7050  -16.8357 C   0  0  2  0  0  0  0  0  0  0  0  0
   18.6821  -13.1148  -16.8301 N   0  0  0  0  0  0  0  0  0  0  0  0
   19.5808  -10.9540  -16.1861 C   0  0  0  0  0  0  0  0  0  0  0  0
   19.7637  -11.0666  -14.9361 O   0  0  0  0  0  0  0  0  0  0  0  0
   23.4133  -10.6611  -17.2109 O   0  0  0  0  0  0  0  0  0  0  0  0
   22.6977   -9.4712  -17.3500 C   0  0  0  0  0  0  0  0  0  0  0  0
   21.5717   -9.4158  -16.3468 C   0  0  2  0  0  0  0  0  0  0  0  0
   20.4411  -10.1324  -16.9043 N   0  0  0  0  0  0  0  0  0  0  0  0
   21.2850   -8.0316  -16.0171 C   0  0  0  0  0  0  0  0  0  0  0  0
   20.5041   -7.3542  -16.7131 O   0  0  0  0  0  0  0  0  0  0  0  0
   21.8094   -4.5020  -12.7384 O   0  0  0  0  0  0  0  0  0  0  0  0
   22.1487   -5.8031  -13.0813 C   0  0  0  0  0  0  0  0  0  0  0  0
   21.6616   -6.0604  -14.4969 C   0  0  2  0  0  0  0  0  0  0  0  0
   21.8956   -7.4354  -14.8926 N   0  0  0  0  0  0  0  0  0  0  0  0
   22.3411   -5.1153  -15.3968 C   0  0  0  0  0  0  0  0  0  0  0  0
   21.7131   -3.9178  -15.7005 O   0  0  0  0  0  0  0  0  0  0  0  0
   23.4689   -5.4485  -15.8477 O   0  0  0  0  0  0  0  0  0  0  0  0
  1  2  1  0
  2  3  2  0
  4  2  1  0
  4  5  1  0
  6  5  1  0
  6  8  1  0
  6  7  1  1
  8  9  2  0
  8 13  1  0
 10 11  1  0
 12 11  1  6
 12 14  1  0
 13 12  1  0
 14 19  1  0
 14 15  2  0
 16 17  1  0
 18 17  1  1
 18 20  1  0
 19 18  1  0
 20 21  1  0
 22 20  2  0
M  END
$$$$
