QSS.pdb
     RDKit          3D

 22 21  0  0  1  0  0  0  0  0999 V2000
   18.6341  -14.5943  -15.7707 N   0  0  0  0  0  0  0  0  0  0  0  0
   17.2828  -14.3856  -16.1653 C   0  0  0  0  0  0  0  0  0  0  0  0
   16.6679  -15.3807  -16.5931 O   0  0  0  0  0  0  0  0  0  0  0  0
   16.6660  -13.0808  -16.0728 C   0  0  0  0  0  0  0  0  0  0  0  0
   17.4515  -11.9447  -15.5572 C   0  0  0  0  0  0  0  0  0  0  0  0
   18.3012  -11.1816  -16.5046 C   0  0  2  0  0  0  0  0  0  0  0  0
   19.1394  -11.9727  -17.3483 N   0  0  0  0  0  0  0  0  0  0  0  0
   19.0994  -10.2128  -15.6774 C   0  0  0  0  0  0  0  0  0  0  0  0
   18.5024   -9.4766  -14.8346 O   0  0  0  0  0  0  0  0  0  0  0  0
   23.1986   -9.7610  -16.3684 O   0  0  0  0  0  0  0  0  0  0  0  0
   22.7156   -9.6627  -15.0628 C   0  0  0  0  0  0  0  0  0  0  0  0
   21.2988   -9.1432  -15.0654 C   0  0  2  0  0  0  0  0  0  0  0  0
   20.4780  -10.0876  -15.7983 N   0  0  0  0  0  0  0  0  0  0  0  0
   21.2773   -7.7987  -15.6120 C   0  0  0  0  0  0  0  0  0  0  0  0
   20.8848   -7.5846  -16.7752 O   0  0  0  0  0  0  0  0  0  0  0  0
   19.8512   -5.0511  -16.7958 O   0  0  0  0  0  0  0  0  0  0  0  0
   20.1531   -4.9205  -15.4476 C   0  0  0  0  0  0  0  0  0  0  0  0
   21.6022   -5.3289  -15.2468 C   0  0  2  0  0  0  0  0  0  0  0  0
   21.7058   -6.7109  -14.8208 N   0  0  0  0  0  0  0  0  0  0  0  0
   22.2072   -4.4138  -14.2664 C   0  0  0  0  0  0  0  0  0  0  0  0
   22.6385   -3.1689  -14.6966 O   0  0  0  0  0  0  0  0  0  0  0  0
   22.3019   -4.8147  -13.0763 O   0  0  0  0  0  0  0  0  0  0  0  0
  1  2  1  0
  2  3  2  0
  4  2  1  0
  4  5  1  0
  6  5  1  0
  6  8  1  0
  6  7  1  1
  8  9  2  0
  8 13  1  0
 10 11  1  0
 12 11  1  6
 12 14  1  0
 13 12  1  0
 14 19  1  0
 14 15  2  0
 16 17  1  0
 18 17  1  1
 18 20  1  0
 19 18  1  0
 20 21  1  0
 22 20  2  0
M  END
$$$$
