QSS.pdb
     RDKit          3D

 22 21  0  0  1  0  0  0  0  0999 V2000
   24.2825  -35.6276   -9.2898 N   0  0  0  0  0  0  0  0  0  0  0  0
   24.0552  -35.4194  -10.6791 C   0  0  0  0  0  0  0  0  0  0  0  0
   24.5172  -36.2784  -11.4535 O   0  0  0  0  0  0  0  0  0  0  0  0
   23.3263  -34.2650  -11.1564 C   0  0  0  0  0  0  0  0  0  0  0  0
   22.7649  -33.3111  -10.1826 C   0  0  0  0  0  0  0  0  0  0  0  0
   23.3585  -31.9537  -10.0961 C   0  0  2  0  0  0  0  0  0  0  0  0
   24.5514  -31.8563   -9.3164 N   0  0  0  0  0  0  0  0  0  0  0  0
   22.2777  -31.0474   -9.5759 C   0  0  0  0  0  0  0  0  0  0  0  0
   22.0169  -31.0403   -8.3347 O   0  0  0  0  0  0  0  0  0  0  0  0
   20.7084  -26.8811  -10.1216 O   0  0  0  0  0  0  0  0  0  0  0  0
   20.6109  -28.0542  -10.8711 C   0  0  0  0  0  0  0  0  0  0  0  0
   20.5467  -29.2552   -9.9596 C   0  0  2  0  0  0  0  0  0  0  0  0
   21.5439  -30.2086  -10.4059 N   0  0  0  0  0  0  0  0  0  0  0  0
   19.1942  -29.7821   -9.9480 C   0  0  0  0  0  0  0  0  0  0  0  0
   18.8310  -30.6372  -10.7786 O   0  0  0  0  0  0  0  0  0  0  0  0
   15.0959  -30.1867   -7.4299 O   0  0  0  0  0  0  0  0  0  0  0  0
   16.3161  -29.5316   -7.5180 C   0  0  0  0  0  0  0  0  0  0  0  0
   16.9135  -29.8279   -8.8827 C   0  0  2  0  0  0  0  0  0  0  0  0
   18.2693  -29.3246   -8.9846 N   0  0  0  0  0  0  0  0  0  0  0  0
   16.0384  -29.2366   -9.9070 C   0  0  0  0  0  0  0  0  0  0  0  0
   14.9206  -29.9460  -10.3168 O   0  0  0  0  0  0  0  0  0  0  0  0
   16.3551  -28.1055  -10.3614 O   0  0  0  0  0  0  0  0  0  0  0  0
  1  2  1  0
  2  3  2  0
  4  2  1  0
  4  5  1  0
  6  5  1  0
  6  8  1  0
  6  7  1  1
  8  9  2  0
  8 13  1  0
 10 11  1  0
 12 11  1  6
 12 14  1  0
 13 12  1  0
 14 19  1  0
 14 15  2  0
 16 17  1  0
 18 17  1  1
 18 20  1  0
 19 18  1  0
 20 21  1  0
 22 20  2  0
M  END
$$$$
