QSS.pdb
     RDKit          3D

 22 21  0  0  1  0  0  0  0  0999 V2000
   17.6979  -14.2569  -17.1852 N   0  0  0  0  0  0  0  0  0  0  0  0
   18.1449  -13.8081  -18.4596 C   0  0  0  0  0  0  0  0  0  0  0  0
   18.2673  -14.6765  -19.3440 O   0  0  0  0  0  0  0  0  0  0  0  0
   18.4414  -12.4137  -18.7036 C   0  0  0  0  0  0  0  0  0  0  0  0
   18.2398  -11.4318  -17.6225 C   0  0  0  0  0  0  0  0  0  0  0  0
   18.9508  -11.6368  -16.3362 C   0  0  2  0  0  0  0  0  0  0  0  0
   18.4141  -12.6605  -15.4969 N   0  0  0  0  0  0  0  0  0  0  0  0
   18.9727  -10.3030  -15.6431 C   0  0  0  0  0  0  0  0  0  0  0  0
   17.8776   -9.7651  -15.2963 O   0  0  0  0  0  0  0  0  0  0  0  0
   21.5982   -7.1958  -13.0892 O   0  0  0  0  0  0  0  0  0  0  0  0
   21.5182   -8.3524  -13.8659 C   0  0  0  0  0  0  0  0  0  0  0  0
   20.2451   -8.3532  -14.6761 C   0  0  2  0  0  0  0  0  0  0  0  0
   20.1539   -9.6266  -15.3637 N   0  0  0  0  0  0  0  0  0  0  0  0
   20.2356   -7.2046  -15.5636 C   0  0  0  0  0  0  0  0  0  0  0  0
   20.8513   -7.2250  -16.6469 O   0  0  0  0  0  0  0  0  0  0  0  0
   17.0295   -5.0721  -15.9163 O   0  0  0  0  0  0  0  0  0  0  0  0
   18.0704   -4.1609  -15.8076 C   0  0  0  0  0  0  0  0  0  0  0  0
   19.3716   -4.8964  -16.0778 C   0  0  2  0  0  0  0  0  0  0  0  0
   19.5205   -6.0423  -15.2022 N   0  0  0  0  0  0  0  0  0  0  0  0
   20.4814   -3.9440  -15.9160 C   0  0  0  0  0  0  0  0  0  0  0  0
   20.5199   -2.8232  -16.7303 O   0  0  0  0  0  0  0  0  0  0  0  0
   21.3460   -4.2008  -15.0370 O   0  0  0  0  0  0  0  0  0  0  0  0
  1  2  1  0
  2  3  2  0
  4  2  1  0
  4  5  1  0
  6  5  1  0
  6  8  1  0
  6  7  1  1
  8  9  2  0
  8 13  1  0
 10 11  1  0
 12 11  1  6
 12 14  1  0
 13 12  1  0
 14 19  1  0
 14 15  2  0
 16 17  1  0
 18 17  1  1
 18 20  1  0
 19 18  1  0
 20 21  1  0
 22 20  2  0
M  END
$$$$
