QSS.pdb
     RDKit          3D

 22 21  0  0  1  0  0  0  0  0999 V2000
   19.4515  -15.4808  -15.6815 N   0  0  0  0  0  0  0  0  0  0  0  0
   18.6885  -14.3034  -15.9198 C   0  0  0  0  0  0  0  0  0  0  0  0
   17.6721  -14.1471  -15.2171 O   0  0  0  0  0  0  0  0  0  0  0  0
   19.0805  -13.3457  -16.9301 C   0  0  0  0  0  0  0  0  0  0  0  0
   19.2397  -11.9278  -16.5592 C   0  0  0  0  0  0  0  0  0  0  0  0
   18.0613  -11.0315  -16.6601 C   0  0  2  0  0  0  0  0  0  0  0  0
   17.1840  -11.2954  -17.7560 N   0  0  0  0  0  0  0  0  0  0  0  0
   18.5953   -9.6268  -16.7001 C   0  0  0  0  0  0  0  0  0  0  0  0
   19.3173   -9.2643  -17.6779 O   0  0  0  0  0  0  0  0  0  0  0  0
   17.4803   -7.0449  -13.7075 O   0  0  0  0  0  0  0  0  0  0  0  0
   17.6509   -6.5170  -14.9880 C   0  0  0  0  0  0  0  0  0  0  0  0
   18.6999   -7.2974  -15.7416 C   0  0  2  0  0  0  0  0  0  0  0  0
   18.3296   -8.6988  -15.7006 N   0  0  0  0  0  0  0  0  0  0  0  0
   20.0082   -7.0190  -15.1778 C   0  0  0  0  0  0  0  0  0  0  0  0
   20.5924   -7.8584  -14.4657 O   0  0  0  0  0  0  0  0  0  0  0  0
   23.8885   -4.1518  -15.2696 O   0  0  0  0  0  0  0  0  0  0  0  0
   22.6677   -4.4727  -15.8462 C   0  0  0  0  0  0  0  0  0  0  0  0
   21.9432   -5.4297  -14.9155 C   0  0  2  0  0  0  0  0  0  0  0  0
   20.6359   -5.7809  -15.4348 N   0  0  0  0  0  0  0  0  0  0  0  0
   21.8471   -4.7989  -13.5898 C   0  0  0  0  0  0  0  0  0  0  0  0
   20.7815   -3.9510  -13.3324 O   0  0  0  0  0  0  0  0  0  0  0  0
   22.7477   -5.0660  -12.7509 O   0  0  0  0  0  0  0  0  0  0  0  0
  1  2  1  0
  2  3  2  0
  4  2  1  0
  4  5  1  0
  6  5  1  0
  6  8  1  0
  6  7  1  6
  8  9  2  0
  8 13  1  0
 10 11  1  0
 12 11  1  1
 12 14  1  0
 13 12  1  0
 14 19  1  0
 14 15  2  0
 16 17  1  0
 18 17  1  6
 18 20  1  0
 19 18  1  0
 20 21  1  0
 22 20  2  0
M  END
$$$$
