QSS.pdb
     RDKit          3D

 22 21  0  0  1  0  0  0  0  0999 V2000
   17.3448  -15.2307  -14.8827 N   0  0  0  0  0  0  0  0  0  0  0  0
   16.4100  -14.7364  -15.8350 C   0  0  0  0  0  0  0  0  0  0  0  0
   15.3681  -15.4013  -15.9892 O   0  0  0  0  0  0  0  0  0  0  0  0
   16.6676  -13.5250  -16.5819 C   0  0  0  0  0  0  0  0  0  0  0  0
   17.9431  -12.8122  -16.3856 C   0  0  0  0  0  0  0  0  0  0  0  0
   18.2768  -11.6907  -17.2983 C   0  0  2  0  0  0  0  0  0  0  0  0
   18.6428  -12.0705  -18.6258 N   0  0  0  0  0  0  0  0  0  0  0  0
   19.3648  -10.9014  -16.6251 C   0  0  0  0  0  0  0  0  0  0  0  0
   19.3667  -10.7992  -15.3608 O   0  0  0  0  0  0  0  0  0  0  0  0
   23.5434   -8.4950  -17.2676 O   0  0  0  0  0  0  0  0  0  0  0  0
   22.4771   -9.2188  -17.8030 C   0  0  0  0  0  0  0  0  0  0  0  0
   21.4129   -9.4372  -16.7555 C   0  0  2  0  0  0  0  0  0  0  0  0
   20.3790  -10.2717  -17.3362 N   0  0  0  0  0  0  0  0  0  0  0  0
   20.9324   -8.1531  -16.2788 C   0  0  0  0  0  0  0  0  0  0  0  0
   20.0299   -7.5411  -16.8821 O   0  0  0  0  0  0  0  0  0  0  0  0
   20.5872   -7.0390  -12.5437 O   0  0  0  0  0  0  0  0  0  0  0  0
   21.3842   -6.0918  -13.1709 C   0  0  0  0  0  0  0  0  0  0  0  0
   21.1937   -6.2334  -14.6711 C   0  0  2  0  0  0  0  0  0  0  0  0
   21.4900   -7.5814  -15.1148 N   0  0  0  0  0  0  0  0  0  0  0  0
   22.0516   -5.2428  -15.3400 C   0  0  0  0  0  0  0  0  0  0  0  0
   21.8249   -3.8967  -15.1001 O   0  0  0  0  0  0  0  0  0  0  0  0
   22.9556   -5.6754  -16.1027 O   0  0  0  0  0  0  0  0  0  0  0  0
  1  2  1  0
  2  3  2  0
  4  2  1  0
  4  5  1  0
  6  5  1  0
  6  8  1  0
  6  7  1  6
  8  9  2  0
  8 13  1  0
 10 11  1  0
 12 11  1  6
 12 14  1  0
 13 12  1  0
 14 19  1  0
 14 15  2  0
 16 17  1  0
 18 17  1  1
 18 20  1  0
 19 18  1  0
 20 21  1  0
 22 20  2  0
M  END
$$$$
