QSS.pdb
     RDKit          3D

 22 21  0  0  1  0  0  0  0  0999 V2000
   25.1118  -31.3930   -7.9487 N   0  0  0  0  0  0  0  0  0  0  0  0
   24.6269  -32.6457   -8.4188 C   0  0  0  0  0  0  0  0  0  0  0  0
   23.8521  -32.6122   -9.3934 O   0  0  0  0  0  0  0  0  0  0  0  0
   25.0178  -33.8872   -7.7884 C   0  0  0  0  0  0  0  0  0  0  0  0
   25.9420  -33.8554   -6.6402 C   0  0  0  0  0  0  0  0  0  0  0  0
   27.3701  -33.5370   -6.8876 C   0  0  2  0  0  0  0  0  0  0  0  0
   27.8728  -33.9328   -8.1648 N   0  0  0  0  0  0  0  0  0  0  0  0
   28.1481  -34.1640   -5.7644 C   0  0  0  0  0  0  0  0  0  0  0  0
   29.3033  -34.6341   -5.9955 O   0  0  0  0  0  0  0  0  0  0  0  0
   27.6359  -33.0706   -1.7609 O   0  0  0  0  0  0  0  0  0  0  0  0
   27.5748  -34.4268   -2.0843 C   0  0  0  0  0  0  0  0  0  0  0  0
   28.3993  -34.7100   -3.3160 C   0  0  2  0  0  0  0  0  0  0  0  0
   27.6502  -34.2522   -4.4701 N   0  0  0  0  0  0  0  0  0  0  0  0
   28.7381  -36.1208   -3.3577 C   0  0  0  0  0  0  0  0  0  0  0  0
   28.1255  -36.9064   -4.1064 O   0  0  0  0  0  0  0  0  0  0  0  0
   31.7637  -39.5629   -1.7552 O   0  0  0  0  0  0  0  0  0  0  0  0
   31.3728  -38.2379   -1.6246 C   0  0  0  0  0  0  0  0  0  0  0  0
   30.1437  -38.0209   -2.4902 C   0  0  2  0  0  0  0  0  0  0  0  0
   29.7760  -36.6194   -2.5411 N   0  0  0  0  0  0  0  0  0  0  0  0
   29.0510  -38.8478   -1.9544 C   0  0  0  0  0  0  0  0  0  0  0  0
   29.1352  -40.2252   -2.0824 O   0  0  0  0  0  0  0  0  0  0  0  0
   28.0875  -38.2536   -1.4024 O   0  0  0  0  0  0  0  0  0  0  0  0
  1  2  1  0
  2  3  2  0
  4  2  1  0
  4  5  1  0
  6  5  1  0
  6  8  1  0
  6  7  1  6
  8  9  2  0
  8 13  1  0
 10 11  1  0
 12 11  1  1
 12 14  1  0
 13 12  1  0
 14 19  1  0
 14 15  2  0
 16 17  1  0
 18 17  1  1
 18 20  1  0
 19 18  1  0
 20 21  1  0
 22 20  2  0
M  END
$$$$
