QSS.pdb
     RDKit          3D

 22 21  0  0  1  0  0  0  0  0999 V2000
   20.6164  -13.3889  -18.9985 N   0  0  0  0  0  0  0  0  0  0  0  0
   19.5656  -13.2591  -18.0476 C   0  0  0  0  0  0  0  0  0  0  0  0
   18.4457  -13.6795  -18.3947 O   0  0  0  0  0  0  0  0  0  0  0  0
   19.7964  -12.6657  -16.7490 C   0  0  0  0  0  0  0  0  0  0  0  0
   20.4333  -11.3389  -16.6634 C   0  0  0  0  0  0  0  0  0  0  0  0
   19.7973  -10.3001  -15.8158 C   0  0  2  0  0  0  0  0  0  0  0  0
   18.3826  -10.4201  -15.6591 N   0  0  0  0  0  0  0  0  0  0  0  0
   20.1813   -8.9724  -16.4072 C   0  0  0  0  0  0  0  0  0  0  0  0
   21.4053   -8.7191  -16.6232 O   0  0  0  0  0  0  0  0  0  0  0  0
   17.1971   -6.3723  -17.4409 O   0  0  0  0  0  0  0  0  0  0  0  0
   18.4218   -6.2093  -18.0896 C   0  0  0  0  0  0  0  0  0  0  0  0
   19.5520   -6.6629  -17.1984 C   0  0  2  0  0  0  0  0  0  0  0  0
   19.2427   -8.0000  -16.7302 N   0  0  0  0  0  0  0  0  0  0  0  0
   19.7447   -5.6972  -16.1320 C   0  0  0  0  0  0  0  0  0  0  0  0
   19.2151   -5.8591  -15.0156 O   0  0  0  0  0  0  0  0  0  0  0  0
   22.0076   -1.6290  -14.7612 O   0  0  0  0  0  0  0  0  0  0  0  0
   21.7798   -2.5089  -15.8098 C   0  0  0  0  0  0  0  0  0  0  0  0
   20.7253   -3.5083  -15.3666 C   0  0  2  0  0  0  0  0  0  0  0  0
   20.5428   -4.5541  -16.3540 N   0  0  0  0  0  0  0  0  0  0  0  0
   19.4737   -2.7766  -15.1158 C   0  0  0  0  0  0  0  0  0  0  0  0
   19.2888   -2.1795  -13.8789 O   0  0  0  0  0  0  0  0  0  0  0  0
   18.6283   -2.7315  -16.0483 O   0  0  0  0  0  0  0  0  0  0  0  0
  1  2  1  0
  2  3  2  0
  4  2  1  0
  4  5  1  0
  6  5  1  0
  6  8  1  0
  6  7  1  6
  8  9  2  0
  8 13  1  0
 10 11  1  0
 12 11  1  6
 12 14  1  0
 13 12  1  0
 14 19  1  0
 14 15  2  0
 16 17  1  0
 18 17  1  6
 18 20  1  0
 19 18  1  0
 20 21  1  0
 22 20  2  0
M  END
$$$$
