EEI.pdb
     RDKit          3D

 27 26  0  0  1  0  0  0  0  0999 V2000
   18.7492  -13.4326  -19.4414 N   0  0  0  0  0  0  0  0  0  0  0  0
   17.9999  -12.2933  -19.0007 C   0  0  1  0  0  0  0  0  0  0  0  0
   17.2330  -12.5364  -17.7443 C   0  0  0  0  0  0  0  0  0  0  0  0
   17.0974  -13.9800  -17.3570 C   0  0  0  0  0  0  0  0  0  0  0  0
   16.4368  -14.2138  -16.0622 C   0  0  0  0  0  0  0  0  0  0  0  0
   16.9578  -13.8498  -14.9960 O   0  0  0  0  0  0  0  0  0  0  0  0
   18.9238  -11.1558  -18.7442 C   0  0  0  0  0  0  0  0  0  0  0  0
   20.0949  -11.3916  -18.3953 O   0  0  0  0  0  0  0  0  0  0  0  0
   15.2034  -14.8557  -16.0324 O   0  0  0  0  0  0  0  0  0  0  0  0
   18.4395   -9.8546  -18.9057 N   0  0  0  0  0  0  0  0  0  0  0  0
   19.3698   -8.7178  -18.7899 C   0  0  1  0  0  0  0  0  0  0  0  0
   18.7360   -7.5168  -19.3926 C   0  0  0  0  0  0  0  0  0  0  0  0
   19.5734   -6.2882  -19.2475 C   0  0  0  0  0  0  0  0  0  0  0  0
   18.8777   -5.1210  -19.8938 C   0  0  0  0  0  0  0  0  0  0  0  0
   17.7626   -5.2358  -20.4449 O   0  0  0  0  0  0  0  0  0  0  0  0
   19.7649   -8.6446  -17.3779 C   0  0  0  0  0  0  0  0  0  0  0  0
   18.9044   -8.8955  -16.4511 O   0  0  0  0  0  0  0  0  0  0  0  0
   19.5005   -3.8874  -19.8719 O   0  0  0  0  0  0  0  0  0  0  0  0
   23.8618  -10.7797  -13.6900 C   0  0  0  0  0  0  0  0  0  0  0  0
   22.9015   -9.6744  -13.8819 C   0  0  0  0  0  0  0  0  0  0  0  0
   22.3851   -9.3985  -15.2311 C   0  0  2  0  0  0  0  0  0  0  0  0
   23.5033   -9.3530  -16.2650 C   0  0  0  0  0  0  0  0  0  0  0  0
   21.3608   -8.3506  -15.4365 C   0  0  2  0  0  0  0  0  0  0  0  0
   21.0466   -8.3204  -16.8904 N   0  0  0  0  0  0  0  0  0  0  0  0
   21.8200   -6.9978  -15.0966 C   0  0  0  0  0  0  0  0  0  0  0  0
   21.8360   -6.5239  -13.7950 O   0  0  0  0  0  0  0  0  0  0  0  0
   22.2342   -6.1545  -15.9604 O   0  0  0  0  0  0  0  0  0  0  0  0
  2  1  1  1
  3  4  1  0
  3  2  1  0
  5  4  1  0
  5  6  2  0
  7  2  1  0
  7  8  2  0
  9  5  1  0
 10 11  1  0
 10  7  1  0
 11 12  1  1
 13 12  1  0
 14 13  1  0
 15 14  2  0
 16 11  1  0
 17 16  2  0
 18 14  1  0
 20 19  1  0
 21 20  1  0
 21 22  1  6
 23 24  1  6
 23 21  1  0
 24 16  1  0
 25 23  1  0
 26 25  1  0
 27 25  2  0
M  END
$$$$
