EEI.pdb
     RDKit          3D

 27 26  0  0  1  0  0  0  0  0999 V2000
   15.4185  -12.9449  -14.8391 N   0  0  0  0  0  0  0  0  0  0  0  0
   16.6666  -13.2579  -15.4700 C   0  0  1  0  0  0  0  0  0  0  0  0
   16.5387  -14.2408  -16.5850 C   0  0  0  0  0  0  0  0  0  0  0  0
   15.1465  -14.4120  -17.1188 C   0  0  0  0  0  0  0  0  0  0  0  0
   15.0106  -15.4246  -18.1789 C   0  0  0  0  0  0  0  0  0  0  0  0
   15.9706  -16.1320  -18.5237 O   0  0  0  0  0  0  0  0  0  0  0  0
   17.2652  -12.0192  -16.0361 C   0  0  0  0  0  0  0  0  0  0  0  0
   18.1891  -12.1150  -16.8644 O   0  0  0  0  0  0  0  0  0  0  0  0
   13.7814  -15.5925  -18.8074 O   0  0  0  0  0  0  0  0  0  0  0  0
   16.7646  -10.7842  -15.6143 N   0  0  0  0  0  0  0  0  0  0  0  0
   17.3745   -9.5443  -16.1263 C   0  0  1  0  0  0  0  0  0  0  0  0
   16.3121   -8.5177  -16.2843 C   0  0  0  0  0  0  0  0  0  0  0  0
   15.4795   -8.7322  -17.5059 C   0  0  0  0  0  0  0  0  0  0  0  0
   14.4140   -7.6727  -17.5860 C   0  0  0  0  0  0  0  0  0  0  0  0
   13.3968   -7.6991  -16.8614 O   0  0  0  0  0  0  0  0  0  0  0  0
   18.4972   -9.2324  -15.2334 C   0  0  0  0  0  0  0  0  0  0  0  0
   18.3848   -9.4187  -13.9626 O   0  0  0  0  0  0  0  0  0  0  0  0
   14.5751   -6.6424  -18.4930 O   0  0  0  0  0  0  0  0  0  0  0  0
   23.9824  -10.9244  -14.3865 C   0  0  0  0  0  0  0  0  0  0  0  0
   23.0633   -9.7978  -14.1282 C   0  0  0  0  0  0  0  0  0  0  0  0
   21.8418   -9.6681  -14.9372 C   0  0  2  0  0  0  0  0  0  0  0  0
   22.1279   -9.8443  -16.4233 C   0  0  0  0  0  0  0  0  0  0  0  0
   20.8741   -8.5846  -14.6561 C   0  0  2  0  0  0  0  0  0  0  0  0
   19.7546   -8.7312  -15.6250 N   0  0  0  0  0  0  0  0  0  0  0  0
   21.4154   -7.2361  -14.8688 C   0  0  0  0  0  0  0  0  0  0  0  0
   22.1253   -6.5580  -13.8915 O   0  0  0  0  0  0  0  0  0  0  0  0
   21.2763   -6.5825  -15.9561 O   0  0  0  0  0  0  0  0  0  0  0  0
  2  1  1  6
  3  4  1  0
  3  2  1  0
  5  4  1  0
  5  6  2  0
  7  2  1  0
  7  8  2  0
  9  5  1  0
 10 11  1  0
 10  7  1  0
 11 12  1  1
 13 12  1  0
 14 13  1  0
 15 14  2  0
 16 11  1  0
 17 16  2  0
 18 14  1  0
 20 19  1  0
 21 20  1  0
 21 22  1  6
 23 24  1  6
 23 21  1  0
 24 16  1  0
 25 23  1  0
 26 25  1  0
 27 25  2  0
M  END
$$$$
