EEI.pdb
     RDKit          3D

 27 26  0  0  1  0  0  0  0  0999 V2000
   27.8896  -22.2706  -16.5455 N   0  0  0  0  0  0  0  0  0  0  0  0
   27.9228  -21.2582  -15.5318 C   0  0  1  0  0  0  0  0  0  0  0  0
   27.9379  -19.8702  -16.0784 C   0  0  0  0  0  0  0  0  0  0  0  0
   27.0329  -19.6451  -17.2543 C   0  0  0  0  0  0  0  0  0  0  0  0
   27.1875  -18.3374  -17.9126 C   0  0  0  0  0  0  0  0  0  0  0  0
   26.3957  -17.4066  -17.6947 O   0  0  0  0  0  0  0  0  0  0  0  0
   26.7212  -21.3806  -14.6632 C   0  0  0  0  0  0  0  0  0  0  0  0
   25.6752  -21.8597  -15.1379 O   0  0  0  0  0  0  0  0  0  0  0  0
   28.2424  -18.1402  -18.7972 O   0  0  0  0  0  0  0  0  0  0  0  0
   26.8113  -20.9502  -13.3365 N   0  0  0  0  0  0  0  0  0  0  0  0
   25.6757  -21.1754  -12.4250 C   0  0  1  0  0  0  0  0  0  0  0  0
   26.1325  -20.9587  -11.0279 C   0  0  0  0  0  0  0  0  0  0  0  0
   25.0666  -21.2457  -10.0213 C   0  0  0  0  0  0  0  0  0  0  0  0
   25.6050  -21.0205   -8.6343 C   0  0  0  0  0  0  0  0  0  0  0  0
   26.7237  -20.5025   -8.4332 O   0  0  0  0  0  0  0  0  0  0  0  0
   24.5729  -20.3419  -12.9191 C   0  0  0  0  0  0  0  0  0  0  0  0
   24.7458  -19.0761  -13.0933 O   0  0  0  0  0  0  0  0  0  0  0  0
   24.8297  -21.4025   -7.5558 O   0  0  0  0  0  0  0  0  0  0  0  0
   20.5872  -19.3983  -17.1272 C   0  0  0  0  0  0  0  0  0  0  0  0
   20.8311  -19.2334  -15.6802 C   0  0  0  0  0  0  0  0  0  0  0  0
   21.9260  -19.9839  -15.0469 C   0  0  2  0  0  0  0  0  0  0  0  0
   21.9651  -21.4318  -15.5196 C   0  0  0  0  0  0  0  0  0  0  0  0
   22.1878  -19.8385  -13.5978 C   0  0  2  0  0  0  0  0  0  0  0  0
   23.2780  -20.7890  -13.2493 N   0  0  0  0  0  0  0  0  0  0  0  0
   21.0473  -20.2069  -12.7492 C   0  0  0  0  0  0  0  0  0  0  0  0
   21.0240  -21.3726  -12.0012 O   0  0  0  0  0  0  0  0  0  0  0  0
   19.9941  -19.4956  -12.6335 O   0  0  0  0  0  0  0  0  0  0  0  0
  2  1  1  6
  3  4  1  0
  3  2  1  0
  5  4  1  0
  5  6  2  0
  7  2  1  0
  7  8  2  0
  9  5  1  0
 10 11  1  0
 10  7  1  0
 11 12  1  1
 13 12  1  0
 14 13  1  0
 15 14  2  0
 16 11  1  0
 17 16  2  0
 18 14  1  0
 20 19  1  0
 21 20  1  0
 21 22  1  1
 23 24  1  1
 23 21  1  0
 24 16  1  0
 25 23  1  0
 26 25  1  0
 27 25  2  0
M  END
$$$$
