EEI.pdb
     RDKit          3D

 27 26  0  0  1  0  0  0  0  0999 V2000
   19.0879  -12.0399  -15.2748 N   0  0  0  0  0  0  0  0  0  0  0  0
   18.5793  -11.0331  -16.1587 C   0  0  1  0  0  0  0  0  0  0  0  0
   17.1834  -11.2941  -16.6161 C   0  0  0  0  0  0  0  0  0  0  0  0
   17.0101  -12.5400  -17.4347 C   0  0  0  0  0  0  0  0  0  0  0  0
   16.7672  -13.7644  -16.6539 C   0  0  0  0  0  0  0  0  0  0  0  0
   17.2716  -14.8503  -16.9813 O   0  0  0  0  0  0  0  0  0  0  0  0
   18.5819   -9.7148  -15.4695 C   0  0  0  0  0  0  0  0  0  0  0  0
   18.0938   -9.6254  -14.3281 O   0  0  0  0  0  0  0  0  0  0  0  0
   15.9559  -13.7036  -15.5259 O   0  0  0  0  0  0  0  0  0  0  0  0
   19.1364   -8.6168  -16.1334 N   0  0  0  0  0  0  0  0  0  0  0  0
   19.2308   -7.3226  -15.4354 C   0  0  1  0  0  0  0  0  0  0  0  0
   20.5456   -7.2439  -14.7479 C   0  0  0  0  0  0  0  0  0  0  0  0
   20.7870   -5.9124  -14.1150 C   0  0  0  0  0  0  0  0  0  0  0  0
   22.1418   -5.9002  -13.4604 C   0  0  0  0  0  0  0  0  0  0  0  0
   22.8455   -6.9286  -13.3731 O   0  0  0  0  0  0  0  0  0  0  0  0
   18.9180   -6.2888  -16.4297 C   0  0  0  0  0  0  0  0  0  0  0  0
   19.4950   -6.3038  -17.5826 O   0  0  0  0  0  0  0  0  0  0  0  0
   22.6133   -4.7087  -12.9424 O   0  0  0  0  0  0  0  0  0  0  0  0
   13.9825   -4.7297  -17.7849 C   0  0  0  0  0  0  0  0  0  0  0  0
   15.4353   -4.9938  -17.7973 C   0  0  0  0  0  0  0  0  0  0  0  0
   16.3630   -3.9217  -17.4060 C   0  0  2  0  0  0  0  0  0  0  0  0
   16.0404   -2.6107  -18.1121 C   0  0  0  0  0  0  0  0  0  0  0  0
   17.8152   -4.1903  -17.3142 C   0  0  2  0  0  0  0  0  0  0  0  0
   18.0061   -5.2273  -16.2646 N   0  0  0  0  0  0  0  0  0  0  0  0
   18.6065   -3.0310  -16.8821 C   0  0  0  0  0  0  0  0  0  0  0  0
   19.3282   -2.2514  -17.7710 O   0  0  0  0  0  0  0  0  0  0  0  0
   18.6976   -2.6512  -15.6671 O   0  0  0  0  0  0  0  0  0  0  0  0
  2  1  1  1
  3  4  1  0
  3  2  1  0
  5  4  1  0
  5  6  2  0
  7  2  1  0
  7  8  2  0
  9  5  1  0
 10 11  1  0
 10  7  1  0
 11 12  1  6
 13 12  1  0
 14 13  1  0
 15 14  2  0
 16 11  1  0
 17 16  2  0
 18 14  1  0
 20 19  1  0
 21 20  1  0
 21 22  1  6
 23 24  1  1
 23 21  1  0
 24 16  1  0
 25 23  1  0
 26 25  1  0
 27 25  2  0
M  END
$$$$
