EEI.pdb
     RDKit          3D

 27 26  0  0  1  0  0  0  0  0999 V2000
   15.9659  -11.8310  -17.6841 N   0  0  0  0  0  0  0  0  0  0  0  0
   16.0328  -10.9167  -16.5828 C   0  0  1  0  0  0  0  0  0  0  0  0
   16.2894  -11.5824  -15.2725 C   0  0  0  0  0  0  0  0  0  0  0  0
   15.1252  -12.3482  -14.7151 C   0  0  0  0  0  0  0  0  0  0  0  0
   13.9957  -11.5171  -14.2666 C   0  0  0  0  0  0  0  0  0  0  0  0
   12.9779  -11.3795  -14.9637 O   0  0  0  0  0  0  0  0  0  0  0  0
   17.1332   -9.9413  -16.8086 C   0  0  0  0  0  0  0  0  0  0  0  0
   18.2078  -10.3400  -17.2937 O   0  0  0  0  0  0  0  0  0  0  0  0
   14.0701  -10.8725  -13.0365 O   0  0  0  0  0  0  0  0  0  0  0  0
   16.9187   -8.6034  -16.4656 N   0  0  0  0  0  0  0  0  0  0  0  0
   17.9713   -7.6094  -16.7397 C   0  0  1  0  0  0  0  0  0  0  0  0
   17.3319   -6.2934  -16.9978 C   0  0  0  0  0  0  0  0  0  0  0  0
   18.3233   -5.2239  -17.3219 C   0  0  0  0  0  0  0  0  0  0  0  0
   18.7192   -5.3214  -18.7704 C   0  0  0  0  0  0  0  0  0  0  0  0
   17.9259   -5.0449  -19.6947 O   0  0  0  0  0  0  0  0  0  0  0  0
   18.9272   -7.6974  -15.6290 C   0  0  0  0  0  0  0  0  0  0  0  0
   18.5104   -7.9445  -14.4342 O   0  0  0  0  0  0  0  0  0  0  0  0
   20.0032   -5.7308  -19.0770 O   0  0  0  0  0  0  0  0  0  0  0  0
   22.9340  -10.3149  -13.0125 C   0  0  0  0  0  0  0  0  0  0  0  0
   23.2188   -9.1886  -13.9242 C   0  0  0  0  0  0  0  0  0  0  0  0
   22.1952   -8.7759  -14.8964 C   0  0  2  0  0  0  0  0  0  0  0  0
   22.7804   -8.6015  -16.2923 C   0  0  0  0  0  0  0  0  0  0  0  0
   21.2125   -7.7275  -14.5432 C   0  0  2  0  0  0  0  0  0  0  0  0
   20.3245   -7.5406  -15.7222 N   0  0  0  0  0  0  0  0  0  0  0  0
   21.8148   -6.4140  -14.2818 C   0  0  0  0  0  0  0  0  0  0  0  0
   21.9669   -5.4564  -15.2712 O   0  0  0  0  0  0  0  0  0  0  0  0
   22.2465   -6.0499  -13.1373 O   0  0  0  0  0  0  0  0  0  0  0  0
  2  1  1  6
  3  4  1  0
  3  2  1  0
  5  4  1  0
  5  6  2  0
  7  2  1  0
  7  8  2  0
  9  5  1  0
 10 11  1  0
 10  7  1  0
 11 12  1  1
 13 12  1  0
 14 13  1  0
 15 14  2  0
 16 11  1  0
 17 16  2  0
 18 14  1  0
 20 19  1  0
 21 20  1  0
 21 22  1  6
 23 24  1  6
 23 21  1  0
 24 16  1  0
 25 23  1  0
 26 25  1  0
 27 25  2  0
M  END
$$$$
