EEI.pdb
     RDKit          3D

 27 26  0  0  1  0  0  0  0  0999 V2000
   18.5572  -22.3961  -15.3488 N   0  0  0  0  0  0  0  0  0  0  0  0
   19.2321  -21.6839  -14.3043 C   0  0  1  0  0  0  0  0  0  0  0  0
   18.6634  -21.9378  -12.9486 C   0  0  0  0  0  0  0  0  0  0  0  0
   17.3322  -22.6309  -12.9423 C   0  0  0  0  0  0  0  0  0  0  0  0
   16.1907  -21.7815  -13.3204 C   0  0  0  0  0  0  0  0  0  0  0  0
   15.0331  -22.2288  -13.3465 O   0  0  0  0  0  0  0  0  0  0  0  0
   20.6637  -22.0871  -14.2682 C   0  0  0  0  0  0  0  0  0  0  0  0
   21.0167  -23.0057  -13.5064 O   0  0  0  0  0  0  0  0  0  0  0  0
   16.4134  -20.4501  -13.6555 O   0  0  0  0  0  0  0  0  0  0  0  0
   21.5664  -21.4149  -15.0971 N   0  0  0  0  0  0  0  0  0  0  0  0
   22.9754  -21.8449  -15.1298 C   0  0  1  0  0  0  0  0  0  0  0  0
   23.4585  -21.7966  -16.5339 C   0  0  0  0  0  0  0  0  0  0  0  0
   24.9008  -22.1644  -16.6608 C   0  0  0  0  0  0  0  0  0  0  0  0
   25.3043  -22.1423  -18.1103 C   0  0  0  0  0  0  0  0  0  0  0  0
   24.4987  -22.4084  -19.0270 O   0  0  0  0  0  0  0  0  0  0  0  0
   23.6835  -21.0284  -14.1362 C   0  0  0  0  0  0  0  0  0  0  0  0
   23.2970  -19.8222  -13.8955 O   0  0  0  0  0  0  0  0  0  0  0  0
   26.6096  -21.8163  -18.4267 O   0  0  0  0  0  0  0  0  0  0  0  0
   26.3889  -20.9346   -8.7395 C   0  0  0  0  0  0  0  0  0  0  0  0
   26.2764  -20.3105  -10.0730 C   0  0  0  0  0  0  0  0  0  0  0  0
   25.6457  -21.0642  -11.1672 C   0  0  2  0  0  0  0  0  0  0  0  0
   26.0941  -22.5202  -11.1813 C   0  0  0  0  0  0  0  0  0  0  0  0
   25.5495  -20.4727  -12.5201 C   0  0  2  0  0  0  0  0  0  0  0  0
   24.7935  -21.4332  -13.3683 N   0  0  0  0  0  0  0  0  0  0  0  0
   26.8480  -20.2892  -13.1809 C   0  0  0  0  0  0  0  0  0  0  0  0
   27.4327  -21.2766  -13.9569 O   0  0  0  0  0  0  0  0  0  0  0  0
   27.5399  -19.2203  -13.0942 O   0  0  0  0  0  0  0  0  0  0  0  0
  2  1  1  6
  3  4  1  0
  3  2  1  0
  5  4  1  0
  5  6  2  0
  7  2  1  0
  7  8  2  0
  9  5  1  0
 10 11  1  0
 10  7  1  0
 11 12  1  6
 13 12  1  0
 14 13  1  0
 15 14  2  0
 16 11  1  0
 17 16  2  0
 18 14  1  0
 20 19  1  0
 21 20  1  0
 21 22  1  6
 23 24  1  6
 23 21  1  0
 24 16  1  0
 25 23  1  0
 26 25  1  0
 27 25  2  0
M  END
$$$$
