EEI.pdb
     RDKit          3D

 27 26  0  0  1  0  0  0  0  0999 V2000
   20.6318  -19.2374  -17.4171 N   0  0  0  0  0  0  0  0  0  0  0  0
   21.4463  -18.5689  -16.4459 C   0  0  1  0  0  0  0  0  0  0  0  0
   20.6582  -17.8583  -15.3973 C   0  0  0  0  0  0  0  0  0  0  0  0
   19.2993  -18.4363  -15.1291 C   0  0  0  0  0  0  0  0  0  0  0  0
   19.0726  -18.8649  -13.7390 C   0  0  0  0  0  0  0  0  0  0  0  0
   18.4135  -19.8833  -13.4761 O   0  0  0  0  0  0  0  0  0  0  0  0
   22.3145  -19.5594  -15.7543 C   0  0  0  0  0  0  0  0  0  0  0  0
   21.8017  -20.3599  -14.9510 O   0  0  0  0  0  0  0  0  0  0  0  0
   19.6080  -18.1134  -12.6983 O   0  0  0  0  0  0  0  0  0  0  0  0
   23.6840  -19.5551  -16.0338 N   0  0  0  0  0  0  0  0  0  0  0  0
   24.5393  -20.6159  -15.4730 C   0  0  1  0  0  0  0  0  0  0  0  0
   25.4598  -21.1000  -16.5339 C   0  0  0  0  0  0  0  0  0  0  0  0
   26.4245  -22.1264  -16.0365 C   0  0  0  0  0  0  0  0  0  0  0  0
   27.3574  -22.5262  -17.1475 C   0  0  0  0  0  0  0  0  0  0  0  0
   28.2761  -23.3549  -16.9761 O   0  0  0  0  0  0  0  0  0  0  0  0
   25.1369  -20.0664  -14.2498 C   0  0  0  0  0  0  0  0  0  0  0  0
   25.4484  -18.8169  -14.1863 O   0  0  0  0  0  0  0  0  0  0  0  0
   27.1839  -21.9526  -18.3929 O   0  0  0  0  0  0  0  0  0  0  0  0
   23.7141  -20.8293   -9.0881 C   0  0  0  0  0  0  0  0  0  0  0  0
   24.2950  -20.2959  -10.3365 C   0  0  0  0  0  0  0  0  0  0  0  0
   25.6742  -20.6569  -10.6979 C   0  0  2  0  0  0  0  0  0  0  0  0
   26.6277  -20.4911   -9.5212 C   0  0  0  0  0  0  0  0  0  0  0  0
   26.2511  -20.2011  -11.9820 C   0  0  2  0  0  0  0  0  0  0  0  0
   25.4199  -20.7831  -13.0700 N   0  0  0  0  0  0  0  0  0  0  0  0
   27.6185  -20.6803  -12.2211 C   0  0  0  0  0  0  0  0  0  0  0  0
   28.7362  -19.9265  -11.9023 O   0  0  0  0  0  0  0  0  0  0  0  0
   27.8890  -21.8149  -12.7391 O   0  0  0  0  0  0  0  0  0  0  0  0
  2  1  1  6
  3  4  1  0
  3  2  1  0
  5  4  1  0
  5  6  2  0
  7  2  1  0
  7  8  2  0
  9  5  1  0
 10 11  1  0
 10  7  1  0
 11 12  1  6
 13 12  1  0
 14 13  1  0
 15 14  2  0
 16 11  1  0
 17 16  2  0
 18 14  1  0
 20 19  1  0
 21 20  1  0
 21 22  1  1
 23 24  1  6
 23 21  1  0
 24 16  1  0
 25 23  1  0
 26 25  1  0
 27 25  2  0
M  END
$$$$
