EEI.pdb
     RDKit          3D

 27 26  0  0  1  0  0  0  0  0999 V2000
   18.5808  -13.1887  -18.2658 N   0  0  0  0  0  0  0  0  0  0  0  0
   17.8877  -12.1422  -17.5746 C   0  0  1  0  0  0  0  0  0  0  0  0
   17.6030  -12.4611  -16.1452 C   0  0  0  0  0  0  0  0  0  0  0  0
   16.6781  -13.6233  -15.9301 C   0  0  0  0  0  0  0  0  0  0  0  0
   15.2641  -13.3541  -16.2395 C   0  0  0  0  0  0  0  0  0  0  0  0
   14.8977  -12.2542  -16.6828 O   0  0  0  0  0  0  0  0  0  0  0  0
   18.7060  -10.8999  -17.5981 C   0  0  0  0  0  0  0  0  0  0  0  0
   19.9457  -10.9881  -17.5314 O   0  0  0  0  0  0  0  0  0  0  0  0
   14.3188  -14.3527  -16.0308 O   0  0  0  0  0  0  0  0  0  0  0  0
   18.0483   -9.6704  -17.6949 N   0  0  0  0  0  0  0  0  0  0  0  0
   18.8413   -8.4330  -17.8001 C   0  0  1  0  0  0  0  0  0  0  0  0
   17.9864   -7.3638  -18.3773 C   0  0  0  0  0  0  0  0  0  0  0  0
   18.6980   -6.0554  -18.4928 C   0  0  0  0  0  0  0  0  0  0  0  0
   17.7695   -5.0224  -19.0718 C   0  0  0  0  0  0  0  0  0  0  0  0
   17.0559   -4.2937  -18.3507 O   0  0  0  0  0  0  0  0  0  0  0  0
   19.4252   -8.1980  -16.4738 C   0  0  0  0  0  0  0  0  0  0  0  0
   18.7337   -8.4329  -15.4112 O   0  0  0  0  0  0  0  0  0  0  0  0
   17.7118   -4.8835  -20.4456 O   0  0  0  0  0  0  0  0  0  0  0  0
   23.4100  -10.7562  -14.8184 C   0  0  0  0  0  0  0  0  0  0  0  0
   22.2270   -9.8789  -14.9248 C   0  0  0  0  0  0  0  0  0  0  0  0
   22.3688   -8.4444  -14.6326 C   0  0  2  0  0  0  0  0  0  0  0  0
   23.1147   -8.2057  -13.3257 C   0  0  0  0  0  0  0  0  0  0  0  0
   21.2220   -7.5288  -14.8228 C   0  0  2  0  0  0  0  0  0  0  0  0
   20.7266   -7.7255  -16.2118 N   0  0  0  0  0  0  0  0  0  0  0  0
   21.5749   -6.1071  -14.7197 C   0  0  0  0  0  0  0  0  0  0  0  0
   21.6937   -5.4576  -13.5019 O   0  0  0  0  0  0  0  0  0  0  0  0
   21.7954   -5.3590  -15.7299 O   0  0  0  0  0  0  0  0  0  0  0  0
  2  1  1  1
  3  4  1  0
  3  2  1  0
  5  4  1  0
  5  6  2  0
  7  2  1  0
  7  8  2  0
  9  5  1  0
 10 11  1  0
 10  7  1  0
 11 12  1  1
 13 12  1  0
 14 13  1  0
 15 14  2  0
 16 11  1  0
 17 16  2  0
 18 14  1  0
 20 19  1  0
 21 20  1  0
 21 22  1  1
 23 24  1  6
 23 21  1  0
 24 16  1  0
 25 23  1  0
 26 25  1  0
 27 25  2  0
M  END
$$$$
