EEI.pdb
     RDKit          3D

 27 26  0  0  1  0  0  0  0  0999 V2000
   14.9668  -14.0612  -15.9402 N   0  0  0  0  0  0  0  0  0  0  0  0
   16.3218  -13.6431  -15.7338 C   0  0  1  0  0  0  0  0  0  0  0  0
   17.2990  -14.3330  -16.6254 C   0  0  0  0  0  0  0  0  0  0  0  0
   18.7378  -13.9925  -16.3679 C   0  0  0  0  0  0  0  0  0  0  0  0
   19.4016  -13.2505  -17.4525 C   0  0  0  0  0  0  0  0  0  0  0  0
   18.8519  -13.0852  -18.5531 O   0  0  0  0  0  0  0  0  0  0  0  0
   16.4393  -12.1826  -15.9916 C   0  0  0  0  0  0  0  0  0  0  0  0
   16.2054  -11.7470  -17.1338 O   0  0  0  0  0  0  0  0  0  0  0  0
   20.6711  -12.7236  -17.2401 O   0  0  0  0  0  0  0  0  0  0  0  0
   16.8107  -11.3470  -14.9345 N   0  0  0  0  0  0  0  0  0  0  0  0
   16.8758   -9.8912  -15.1526 C   0  0  1  0  0  0  0  0  0  0  0  0
   15.7539   -9.2468  -14.4223 C   0  0  0  0  0  0  0  0  0  0  0  0
   14.4782   -9.2564  -15.1997 C   0  0  0  0  0  0  0  0  0  0  0  0
   13.4210   -8.4929  -14.4490 C   0  0  0  0  0  0  0  0  0  0  0  0
   13.6596   -7.9230  -13.3633 O   0  0  0  0  0  0  0  0  0  0  0  0
   18.2415   -9.4785  -14.8067 C   0  0  0  0  0  0  0  0  0  0  0  0
   18.7443   -9.7981  -13.6633 O   0  0  0  0  0  0  0  0  0  0  0  0
   12.1492   -8.4261  -14.9859 O   0  0  0  0  0  0  0  0  0  0  0  0
   22.2949   -9.4841  -18.4554 C   0  0  0  0  0  0  0  0  0  0  0  0
   21.4633   -9.5471  -17.2368 C   0  0  0  0  0  0  0  0  0  0  0  0
   21.3508   -8.3553  -16.3823 C   0  0  2  0  0  0  0  0  0  0  0  0
   22.7078   -7.7084  -16.1345 C   0  0  0  0  0  0  0  0  0  0  0  0
   20.4906   -8.3805  -15.1786 C   0  0  2  0  0  0  0  0  0  0  0  0
   19.1175   -8.7384  -15.6255 N   0  0  0  0  0  0  0  0  0  0  0  0
   20.3688   -7.0790  -14.5094 C   0  0  0  0  0  0  0  0  0  0  0  0
   21.1398   -6.7331  -13.4117 O   0  0  0  0  0  0  0  0  0  0  0  0
   19.5509   -6.1703  -14.8754 O   0  0  0  0  0  0  0  0  0  0  0  0
  2  1  1  6
  3  4  1  0
  3  2  1  0
  5  4  1  0
  5  6  2  0
  7  2  1  0
  7  8  2  0
  9  5  1  0
 10 11  1  0
 10  7  1  0
 11 12  1  1
 13 12  1  0
 14 13  1  0
 15 14  2  0
 16 11  1  0
 17 16  2  0
 18 14  1  0
 20 19  1  0
 21 20  1  0
 21 22  1  1
 23 24  1  6
 23 21  1  0
 24 16  1  0
 25 23  1  0
 26 25  1  0
 27 25  2  0
M  END
$$$$
