EEI.pdb
     RDKit          3D

 27 26  0  0  1  0  0  0  0  0999 V2000
   16.1616  -13.4302  -13.6600 N   0  0  0  0  0  0  0  0  0  0  0  0
   15.4491  -12.1871  -13.6824 C   0  0  1  0  0  0  0  0  0  0  0  0
   14.0695  -12.2828  -13.1228 C   0  0  0  0  0  0  0  0  0  0  0  0
   13.1371  -13.1731  -13.8912 C   0  0  0  0  0  0  0  0  0  0  0  0
   12.2785  -12.4773  -14.8640 C   0  0  0  0  0  0  0  0  0  0  0  0
   12.3881  -11.2575  -15.0662 O   0  0  0  0  0  0  0  0  0  0  0  0
   16.1852  -11.1742  -12.8790 C   0  0  0  0  0  0  0  0  0  0  0  0
   16.6909  -11.5114  -11.7929 O   0  0  0  0  0  0  0  0  0  0  0  0
   11.3247  -13.2013  -15.5713 O   0  0  0  0  0  0  0  0  0  0  0  0
   16.2828   -9.8717  -13.3765 N   0  0  0  0  0  0  0  0  0  0  0  0
   17.0546   -8.8667  -12.6244 C   0  0  1  0  0  0  0  0  0  0  0  0
   18.1310   -8.3357  -13.5001 C   0  0  0  0  0  0  0  0  0  0  0  0
   18.9493   -7.2792  -12.8324 C   0  0  0  0  0  0  0  0  0  0  0  0
   19.9735   -6.7457  -13.7971 C   0  0  0  0  0  0  0  0  0  0  0  0
   19.8878   -5.6010  -14.2895 O   0  0  0  0  0  0  0  0  0  0  0  0
   16.0799   -7.9105  -12.0852 C   0  0  0  0  0  0  0  0  0  0  0  0
   15.1433   -7.4459  -12.8395 O   0  0  0  0  0  0  0  0  0  0  0  0
   21.0387   -7.5556  -14.1429 O   0  0  0  0  0  0  0  0  0  0  0  0
   12.5729   -6.7479   -7.3395 C   0  0  0  0  0  0  0  0  0  0  0  0
   13.3394   -6.1408   -8.4460 C   0  0  0  0  0  0  0  0  0  0  0  0
   14.3465   -6.9494   -9.1497 C   0  0  2  0  0  0  0  0  0  0  0  0
   15.2844   -7.6538   -8.1775 C   0  0  0  0  0  0  0  0  0  0  0  0
   15.0421   -6.4045  -10.3367 C   0  0  2  0  0  0  0  0  0  0  0  0
   16.0427   -7.4187  -10.7652 N   0  0  0  0  0  0  0  0  0  0  0  0
   15.8034   -5.1781  -10.0668 C   0  0  0  0  0  0  0  0  0  0  0  0
   17.1877   -5.1590  -10.0167 O   0  0  0  0  0  0  0  0  0  0  0  0
   15.2613   -4.0423   -9.8550 O   0  0  0  0  0  0  0  0  0  0  0  0
  2  1  1  1
  3  4  1  0
  3  2  1  0
  5  4  1  0
  5  6  2  0
  7  2  1  0
  7  8  2  0
  9  5  1  0
 10 11  1  0
 10  7  1  0
 11 12  1  6
 13 12  1  0
 14 13  1  0
 15 14  2  0
 16 11  1  0
 17 16  2  0
 18 14  1  0
 20 19  1  0
 21 20  1  0
 21 22  1  1
 23 24  1  1
 23 21  1  0
 24 16  1  0
 25 23  1  0
 26 25  1  0
 27 25  2  0
M  END
$$$$
