EEI.pdb
     RDKit          3D

 27 26  0  0  1  0  0  0  0  0999 V2000
   17.2930  -11.7446  -14.0101 N   0  0  0  0  0  0  0  0  0  0  0  0
   17.5584  -11.4136  -15.3788 C   0  0  1  0  0  0  0  0  0  0  0  0
   16.5018  -11.8861  -16.3201 C   0  0  0  0  0  0  0  0  0  0  0  0
   15.3740  -12.6386  -15.6764 C   0  0  0  0  0  0  0  0  0  0  0  0
   14.3388  -13.1174  -16.6075 C   0  0  0  0  0  0  0  0  0  0  0  0
   13.3378  -13.7291  -16.2018 O   0  0  0  0  0  0  0  0  0  0  0  0
   17.6564   -9.9365  -15.5262 C   0  0  0  0  0  0  0  0  0  0  0  0
   17.8994   -9.4529  -16.6469 O   0  0  0  0  0  0  0  0  0  0  0  0
   14.4851  -12.8798  -17.9700 O   0  0  0  0  0  0  0  0  0  0  0  0
   17.4705   -9.1399  -14.3927 N   0  0  0  0  0  0  0  0  0  0  0  0
   17.5871   -7.6758  -14.5114 C   0  0  1  0  0  0  0  0  0  0  0  0
   16.4054   -7.0473  -13.8666 C   0  0  0  0  0  0  0  0  0  0  0  0
   16.4831   -5.5556  -13.8486 C   0  0  0  0  0  0  0  0  0  0  0  0
   15.4756   -4.9835  -14.8088 C   0  0  0  0  0  0  0  0  0  0  0  0
   14.6255   -5.6974  -15.3813 O   0  0  0  0  0  0  0  0  0  0  0  0
   18.9150   -7.3203  -13.9962 C   0  0  0  0  0  0  0  0  0  0  0  0
   19.3193   -7.7935  -12.8670 O   0  0  0  0  0  0  0  0  0  0  0  0
   15.5001   -3.6243  -15.0582 O   0  0  0  0  0  0  0  0  0  0  0  0
   23.0284   -8.9894  -16.1488 C   0  0  0  0  0  0  0  0  0  0  0  0
   22.0978   -8.3628  -15.1886 C   0  0  0  0  0  0  0  0  0  0  0  0
   22.1808   -6.9139  -14.9500 C   0  0  2  0  0  0  0  0  0  0  0  0
   23.6164   -6.4626  -14.7116 C   0  0  0  0  0  0  0  0  0  0  0  0
   21.2067   -6.2494  -14.0560 C   0  0  2  0  0  0  0  0  0  0  0  0
   19.8534   -6.4810  -14.6290 N   0  0  0  0  0  0  0  0  0  0  0  0
   21.3678   -4.7916  -13.9826 C   0  0  0  0  0  0  0  0  0  0  0  0
   22.2133   -4.1827  -13.0697 O   0  0  0  0  0  0  0  0  0  0  0  0
   20.7481   -3.9733  -14.7410 O   0  0  0  0  0  0  0  0  0  0  0  0
  2  1  1  1
  3  4  1  0
  3  2  1  0
  5  4  1  0
  5  6  2  0
  7  2  1  0
  7  8  2  0
  9  5  1  0
 10 11  1  0
 10  7  1  0
 11 12  1  1
 13 12  1  0
 14 13  1  0
 15 14  2  0
 16 11  1  0
 17 16  2  0
 18 14  1  0
 20 19  1  0
 21 20  1  0
 21 22  1  1
 23 24  1  6
 23 21  1  0
 24 16  1  0
 25 23  1  0
 26 25  1  0
 27 25  2  0
M  END
$$$$
