EEI.pdb
     RDKit          3D

 27 26  0  0  1  0  0  0  0  0999 V2000
   26.9059  -19.4181  -17.1396 N   0  0  0  0  0  0  0  0  0  0  0  0
   27.6708  -19.2029  -15.9471 C   0  0  1  0  0  0  0  0  0  0  0  0
   28.5371  -17.9897  -16.0078 C   0  0  0  0  0  0  0  0  0  0  0  0
   28.6986  -17.3975  -17.3773 C   0  0  0  0  0  0  0  0  0  0  0  0
   29.6830  -18.0792  -18.2339 C   0  0  0  0  0  0  0  0  0  0  0  0
   30.1659  -19.1774  -17.9156 O   0  0  0  0  0  0  0  0  0  0  0  0
   26.7535  -19.0363  -14.7878 C   0  0  0  0  0  0  0  0  0  0  0  0
   26.6029  -17.9055  -14.2903 O   0  0  0  0  0  0  0  0  0  0  0  0
   30.0805  -17.4806  -19.4248 O   0  0  0  0  0  0  0  0  0  0  0  0
   26.0896  -20.1637  -14.2960 N   0  0  0  0  0  0  0  0  0  0  0  0
   25.0874  -20.0034  -13.2278 C   0  0  1  0  0  0  0  0  0  0  0  0
   23.7695  -20.4663  -13.7341 C   0  0  0  0  0  0  0  0  0  0  0  0
   22.7077  -20.4445  -12.6834 C   0  0  0  0  0  0  0  0  0  0  0  0
   21.4308  -21.0129  -13.2408 C   0  0  0  0  0  0  0  0  0  0  0  0
   20.9235  -22.0644  -12.7968 O   0  0  0  0  0  0  0  0  0  0  0  0
   25.6342  -20.6701  -12.0397 C   0  0  0  0  0  0  0  0  0  0  0  0
   26.2419  -21.8014  -12.1543 O   0  0  0  0  0  0  0  0  0  0  0  0
   20.8076  -20.3430  -14.2767 O   0  0  0  0  0  0  0  0  0  0  0  0
   28.4591  -19.8401   -6.7446 C   0  0  0  0  0  0  0  0  0  0  0  0
   27.5770  -20.7102   -7.5479 C   0  0  0  0  0  0  0  0  0  0  0  0
   26.9204  -20.1591   -8.7431 C   0  0  2  0  0  0  0  0  0  0  0  0
   26.3461  -18.7722   -8.4825 C   0  0  0  0  0  0  0  0  0  0  0  0
   26.0319  -21.0111   -9.5642 C   0  0  2  0  0  0  0  0  0  0  0  0
   25.5745  -20.1888  -10.7167 N   0  0  0  0  0  0  0  0  0  0  0  0
   24.8123  -21.4403   -8.8679 C   0  0  0  0  0  0  0  0  0  0  0  0
   24.8100  -22.4673   -7.9382 O   0  0  0  0  0  0  0  0  0  0  0  0
   23.6662  -20.9128   -9.0603 O   0  0  0  0  0  0  0  0  0  0  0  0
  2  1  1  6
  3  4  1  0
  3  2  1  0
  5  4  1  0
  5  6  2  0
  7  2  1  0
  7  8  2  0
  9  5  1  0
 10 11  1  0
 10  7  1  0
 11 12  1  6
 13 12  1  0
 14 13  1  0
 15 14  2  0
 16 11  1  0
 17 16  2  0
 18 14  1  0
 20 19  1  0
 21 20  1  0
 21 22  1  1
 23 24  1  6
 23 21  1  0
 24 16  1  0
 25 23  1  0
 26 25  1  0
 27 25  2  0
M  END
$$$$
