GQW.pdb
     RDKit          3D

 28 29  0  0  1  0  0  0  0  0999 V2000
   29.2738  -18.0464  -16.5115 N   0  0  0  0  0  0  0  0  0  0  0  0
   29.3154  -19.2671  -15.7400 C   0  0  0  0  0  0  0  0  0  0  0  0
   28.0626  -19.4065  -14.9584 C   0  0  0  0  0  0  0  0  0  0  0  0
   27.2832  -18.4061  -14.9123 O   0  0  0  0  0  0  0  0  0  0  0  0
   24.6377  -24.0817  -14.6338 N   0  0  0  0  0  0  0  0  0  0  0  0
   23.6980  -23.2256  -14.0231 C   0  0  0  0  0  0  0  0  0  0  0  0
   22.5422  -23.5800  -13.7196 O   0  0  0  0  0  0  0  0  0  0  0  0
   24.1974  -21.8114  -13.7534 C   0  0  0  0  0  0  0  0  0  0  0  0
   25.5653  -21.6985  -14.3078 C   0  0  0  0  0  0  0  0  0  0  0  0
   26.3731  -20.6173  -13.6258 C   0  0  2  0  0  0  0  0  0  0  0  0
   27.7073  -20.5900  -14.2739 N   0  0  0  0  0  0  0  0  0  0  0  0
   26.5959  -20.9512  -12.2238 C   0  0  0  0  0  0  0  0  0  0  0  0
   27.2463  -22.0254  -11.9564 O   0  0  0  0  0  0  0  0  0  0  0  0
   26.1821  -20.2202  -11.0891 N   0  0  0  0  0  0  0  0  0  0  0  0
   26.2114  -20.8086   -9.7487 C   0  0  1  0  0  0  0  0  0  0  0  0
   27.3326  -20.2163   -8.9496 C   0  0  0  0  0  0  0  0  0  0  0  0
   27.0975  -20.3296   -7.4999 C   0  0  0  0  0  0  0  0  0  0  0  0
   26.0713  -21.0437   -6.8647 C   0  0  0  0  0  0  0  0  0  0  0  0
   26.1389  -20.8943   -5.5350 N   0  0  0  0  0  0  0  0  0  0  0  0
   27.1944  -20.0909   -5.2493 C   0  0  0  0  0  0  0  0  0  0  0  0
   27.6986  -19.6491   -4.0322 C   0  0  0  0  0  0  0  0  0  0  0  0
   28.8124  -18.8502   -4.0626 C   0  0  0  0  0  0  0  0  0  0  0  0
   29.4283  -18.4843   -5.2479 C   0  0  0  0  0  0  0  0  0  0  0  0
   28.9205  -18.9256   -6.4327 C   0  0  0  0  0  0  0  0  0  0  0  0
   27.7919  -19.7367   -6.4416 C   0  0  0  0  0  0  0  0  0  0  0  0
   24.8851  -20.7571   -9.1647 C   0  0  0  0  0  0  0  0  0  0  0  0
   24.4110  -21.6229   -8.1647 O   0  0  0  0  0  0  0  0  0  0  0  0
   24.0370  -19.8932   -9.5438 O   0  0  0  0  0  0  0  0  0  0  0  0
  1  2  1  0
  2  3  1  0
  3  4  2  0
  5  6  1  0
  6  8  1  0
  7  6  2  0
  8  9  1  0
 10  9  1  6
 11 10  1  0
 11  3  1  0
 12 14  1  0
 12 10  1  0
 13 12  2  0
 15 14  1  0
 15 16  1  1
 17 18  2  0
 17 16  1  0
 19 18  1  0
 20 25  2  0
 20 19  1  0
 21 20  1  0
 22 21  2  0
 22 23  1  0
 23 24  2  0
 24 25  1  0
 25 17  1  0
 26 27  1  0
 26 15  1  0
 28 26  2  0
M  END
$$$$
