GQW.pdb
     RDKit          3D

 28 29  0  0  1  0  0  0  0  0999 V2000
   28.8142  -20.0846  -15.4972 N   0  0  0  0  0  0  0  0  0  0  0  0
   28.3476  -21.0930  -14.5739 C   0  0  0  0  0  0  0  0  0  0  0  0
   27.2745  -20.5291  -13.7194 C   0  0  0  0  0  0  0  0  0  0  0  0
   27.2457  -19.2699  -13.5647 O   0  0  0  0  0  0  0  0  0  0  0  0
   21.3645  -20.1506  -13.0455 N   0  0  0  0  0  0  0  0  0  0  0  0
   22.3387  -19.6270  -13.9205 C   0  0  0  0  0  0  0  0  0  0  0  0
   22.2133  -18.5388  -14.5152 O   0  0  0  0  0  0  0  0  0  0  0  0
   23.5787  -20.4953  -14.0950 C   0  0  0  0  0  0  0  0  0  0  0  0
   23.9183  -21.0741  -12.7756 C   0  0  0  0  0  0  0  0  0  0  0  0
   25.2709  -20.6154  -12.2790 C   0  0  2  0  0  0  0  0  0  0  0  0
   26.2978  -21.3252  -13.0807 N   0  0  0  0  0  0  0  0  0  0  0  0
   25.4714  -21.0182  -10.8918 C   0  0  0  0  0  0  0  0  0  0  0  0
   25.7586  -22.2473  -10.6569 O   0  0  0  0  0  0  0  0  0  0  0  0
   25.3945  -20.2050   -9.7402 N   0  0  0  0  0  0  0  0  0  0  0  0
   25.4595  -20.7782   -8.3945 C   0  0  1  0  0  0  0  0  0  0  0  0
   26.0635  -19.7912   -7.4419 C   0  0  0  0  0  0  0  0  0  0  0  0
   27.4679  -20.1103   -7.1327 C   0  0  0  0  0  0  0  0  0  0  0  0
   28.3683  -20.8230   -7.9377 C   0  0  0  0  0  0  0  0  0  0  0  0
   29.5513  -20.9597   -7.3239 N   0  0  0  0  0  0  0  0  0  0  0  0
   29.4762  -20.3521   -6.1130 C   0  0  0  0  0  0  0  0  0  0  0  0
   30.4273  -20.1974   -5.1119 C   0  0  0  0  0  0  0  0  0  0  0  0
   30.0560  -19.5020   -3.9901 C   0  0  0  0  0  0  0  0  0  0  0  0
   28.7883  -18.9655   -3.8380 C   0  0  0  0  0  0  0  0  0  0  0  0
   27.8674  -19.1270   -4.8290 C   0  0  0  0  0  0  0  0  0  0  0  0
   28.2071  -19.8268   -5.9808 C   0  0  0  0  0  0  0  0  0  0  0  0
   24.1685  -21.3344   -8.0387 C   0  0  0  0  0  0  0  0  0  0  0  0
   23.9431  -22.2392   -6.9875 O   0  0  0  0  0  0  0  0  0  0  0  0
   23.1229  -21.0273   -8.6883 O   0  0  0  0  0  0  0  0  0  0  0  0
  1  2  1  0
  2  3  1  0
  3  4  2  0
  5  6  1  0
  6  8  1  0
  7  6  2  0
  8  9  1  0
 10  9  1  6
 11 10  1  0
 11  3  1  0
 12 14  1  0
 12 10  1  0
 13 12  2  0
 15 14  1  0
 15 16  1  1
 17 18  2  0
 17 16  1  0
 19 18  1  0
 20 25  2  0
 20 19  1  0
 21 20  1  0
 22 21  2  0
 22 23  1  0
 23 24  2  0
 24 25  1  0
 25 17  1  0
 26 27  1  0
 26 15  1  0
 28 26  2  0
M  END
$$$$
