GQW.pdb
     RDKit          3D

 28 29  0  0  1  0  0  0  0  0999 V2000
   19.2652  -19.3346  -12.7800 N   0  0  0  0  0  0  0  0  0  0  0  0
   20.5743  -18.8102  -12.4669 C   0  0  0  0  0  0  0  0  0  0  0  0
   21.5005  -19.9282  -12.1638 C   0  0  0  0  0  0  0  0  0  0  0  0
   21.2772  -20.6103  -11.1173 O   0  0  0  0  0  0  0  0  0  0  0  0
   24.9290  -24.4187  -13.6198 N   0  0  0  0  0  0  0  0  0  0  0  0
   23.6982  -24.2592  -14.2895 C   0  0  0  0  0  0  0  0  0  0  0  0
   23.0277  -25.2130  -14.7301 O   0  0  0  0  0  0  0  0  0  0  0  0
   23.2324  -22.8163  -14.4425 C   0  0  0  0  0  0  0  0  0  0  0  0
   24.1691  -21.9534  -13.6882 C   0  0  0  0  0  0  0  0  0  0  0  0
   23.5172  -21.3170  -12.4813 C   0  0  2  0  0  0  0  0  0  0  0  0
   22.6044  -20.2594  -12.9806 N   0  0  0  0  0  0  0  0  0  0  0  0
   24.5145  -20.6509  -11.6514 C   0  0  0  0  0  0  0  0  0  0  0  0
   24.9685  -19.5175  -12.0483 O   0  0  0  0  0  0  0  0  0  0  0  0
   25.0562  -21.1023  -10.4283 N   0  0  0  0  0  0  0  0  0  0  0  0
   26.3391  -20.6027   -9.9302 C   0  0  1  0  0  0  0  0  0  0  0  0
   26.4707  -20.8891   -8.4649 C   0  0  0  0  0  0  0  0  0  0  0  0
   27.7714  -20.4503   -7.9310 C   0  0  0  0  0  0  0  0  0  0  0  0
   28.9974  -20.4238   -8.6113 C   0  0  0  0  0  0  0  0  0  0  0  0
   29.9811  -20.0032   -7.8049 N   0  0  0  0  0  0  0  0  0  0  0  0
   29.4492  -19.7405   -6.5847 C   0  0  0  0  0  0  0  0  0  0  0  0
   30.0376  -19.2672   -5.4182 C   0  0  0  0  0  0  0  0  0  0  0  0
   29.2226  -19.0761   -4.3324 C   0  0  0  0  0  0  0  0  0  0  0  0
   27.8632  -19.3377   -4.3725 C   0  0  0  0  0  0  0  0  0  0  0  0
   27.3024  -19.8022   -5.5240 C   0  0  0  0  0  0  0  0  0  0  0  0
   28.0971  -20.0089   -6.6454 C   0  0  0  0  0  0  0  0  0  0  0  0
   27.4098  -21.0646  -10.7922 C   0  0  0  0  0  0  0  0  0  0  0  0
   28.5126  -20.2910  -11.1922 O   0  0  0  0  0  0  0  0  0  0  0  0
   27.4097  -22.2437  -11.2603 O   0  0  0  0  0  0  0  0  0  0  0  0
  1  2  1  0
  2  3  1  0
  3  4  2  0
  5  6  1  0
  6  8  1  0
  7  6  2  0
  8  9  1  0
 10  9  1  6
 11 10  1  0
 11  3  1  0
 12 14  1  0
 12 10  1  0
 13 12  2  0
 15 14  1  0
 15 16  1  1
 17 18  2  0
 17 16  1  0
 19 18  1  0
 20 25  2  0
 20 19  1  0
 21 20  1  0
 22 21  2  0
 22 23  1  0
 23 24  2  0
 24 25  1  0
 25 17  1  0
 26 27  1  0
 26 15  1  0
 28 26  2  0
M  END
$$$$
