GQW.pdb
     RDKit          3D

 28 29  0  0  1  0  0  0  0  0999 V2000
   26.5341  -25.7117  -16.7967 N   0  0  0  0  0  0  0  0  0  0  0  0
   25.6062  -24.6054  -16.7516 C   0  0  0  0  0  0  0  0  0  0  0  0
   26.0059  -23.6621  -15.6791 C   0  0  0  0  0  0  0  0  0  0  0  0
   26.7191  -24.1152  -14.7323 O   0  0  0  0  0  0  0  0  0  0  0  0
   28.1780  -18.5141  -14.2071 N   0  0  0  0  0  0  0  0  0  0  0  0
   28.5077  -19.1018  -15.4459 C   0  0  0  0  0  0  0  0  0  0  0  0
   29.6122  -18.9531  -16.0040 O   0  0  0  0  0  0  0  0  0  0  0  0
   27.4039  -19.9470  -16.0700 C   0  0  0  0  0  0  0  0  0  0  0  0
   26.3047  -20.0593  -15.0849 C   0  0  0  0  0  0  0  0  0  0  0  0
   26.1497  -21.4676  -14.5566 C   0  0  2  0  0  0  0  0  0  0  0  0
   25.6305  -22.3004  -15.6693 N   0  0  0  0  0  0  0  0  0  0  0  0
   25.1467  -21.5109  -13.4987 C   0  0  0  0  0  0  0  0  0  0  0  0
   23.9213  -21.6902  -13.8374 O   0  0  0  0  0  0  0  0  0  0  0  0
   25.3567  -21.3838  -12.1084 N   0  0  0  0  0  0  0  0  0  0  0  0
   24.2453  -21.4564  -11.1581 C   0  0  1  0  0  0  0  0  0  0  0  0
   24.7696  -21.5899   -9.7603 C   0  0  0  0  0  0  0  0  0  0  0  0
   26.2138  -21.3109   -9.6831 C   0  0  0  0  0  0  0  0  0  0  0  0
   27.1903  -21.6484  -10.6313 C   0  0  0  0  0  0  0  0  0  0  0  0
   28.4079  -21.2746  -10.2155 N   0  0  0  0  0  0  0  0  0  0  0  0
   28.2812  -20.6863   -8.9995 C   0  0  0  0  0  0  0  0  0  0  0  0
   29.2314  -20.1175   -8.1602 C   0  0  0  0  0  0  0  0  0  0  0  0
   28.7884  -19.5705   -6.9837 C   0  0  0  0  0  0  0  0  0  0  0  0
   27.4509  -19.5727   -6.6241 C   0  0  0  0  0  0  0  0  0  0  0  0
   26.5322  -20.1352   -7.4583 C   0  0  0  0  0  0  0  0  0  0  0  0
   26.9439  -20.7004   -8.6595 C   0  0  0  0  0  0  0  0  0  0  0  0
   23.3141  -20.3746  -11.4136 C   0  0  0  0  0  0  0  0  0  0  0  0
   22.0282  -20.2700  -10.8567 O   0  0  0  0  0  0  0  0  0  0  0  0
   23.6176  -19.4213  -12.1937 O   0  0  0  0  0  0  0  0  0  0  0  0
  1  2  1  0
  2  3  1  0
  3  4  2  0
  5  6  1  0
  6  8  1  0
  7  6  2  0
  8  9  1  0
 10  9  1  6
 11 10  1  0
 11  3  1  0
 12 14  1  0
 12 10  1  0
 13 12  2  0
 15 14  1  0
 15 16  1  1
 17 18  2  0
 17 16  1  0
 19 18  1  0
 20 25  2  0
 20 19  1  0
 21 20  1  0
 22 21  2  0
 22 23  1  0
 23 24  2  0
 24 25  1  0
 25 17  1  0
 26 27  1  0
 26 15  1  0
 28 26  2  0
M  END
$$$$
