GQW.pdb
     RDKit          3D

 28 29  0  0  1  0  0  0  0  0999 V2000
   28.5627  -19.7870  -16.4939 N   0  0  0  0  0  0  0  0  0  0  0  0
   28.5625  -20.5715  -15.2809 C   0  0  0  0  0  0  0  0  0  0  0  0
   27.4138  -20.1754  -14.4305 C   0  0  0  0  0  0  0  0  0  0  0  0
   27.2547  -18.9387  -14.1948 O   0  0  0  0  0  0  0  0  0  0  0  0
   22.3281  -19.4013  -13.0775 N   0  0  0  0  0  0  0  0  0  0  0  0
   22.6544  -19.5984  -14.4353 C   0  0  0  0  0  0  0  0  0  0  0  0
   22.1691  -18.9223  -15.3630 O   0  0  0  0  0  0  0  0  0  0  0  0
   23.6587  -20.7137  -14.6992 C   0  0  0  0  0  0  0  0  0  0  0  0
   24.1437  -21.2083  -13.3911 C   0  0  0  0  0  0  0  0  0  0  0  0
   25.4512  -20.5666  -12.9843 C   0  0  2  0  0  0  0  0  0  0  0  0
   26.5034  -21.1052  -13.8808 N   0  0  0  0  0  0  0  0  0  0  0  0
   25.8154  -20.9605  -11.6281 C   0  0  0  0  0  0  0  0  0  0  0  0
   25.9478  -22.2132  -11.3798 O   0  0  0  0  0  0  0  0  0  0  0  0
   26.0549  -20.1164  -10.5221 N   0  0  0  0  0  0  0  0  0  0  0  0
   26.1854  -20.6525   -9.1659 C   0  0  1  0  0  0  0  0  0  0  0  0
   27.1344  -19.8109   -8.3675 C   0  0  0  0  0  0  0  0  0  0  0  0
   27.1778  -20.2183   -6.9527 C   0  0  0  0  0  0  0  0  0  0  0  0
   26.4120  -21.2203   -6.3393 C   0  0  0  0  0  0  0  0  0  0  0  0
   26.6843  -21.2937   -5.0295 N   0  0  0  0  0  0  0  0  0  0  0  0
   27.6238  -20.3598   -4.7363 C   0  0  0  0  0  0  0  0  0  0  0  0
   28.2513  -20.0454   -3.5370 C   0  0  0  0  0  0  0  0  0  0  0  0
   29.1932  -19.0494   -3.5592 C   0  0  0  0  0  0  0  0  0  0  0  0
   29.5232  -18.3689   -4.7195 C   0  0  0  0  0  0  0  0  0  0  0  0
   28.8979  -18.6892   -5.8868 C   0  0  0  0  0  0  0  0  0  0  0  0
   27.9368  -19.6931   -5.9032 C   0  0  0  0  0  0  0  0  0  0  0  0
   24.8686  -20.8784   -8.6024 C   0  0  0  0  0  0  0  0  0  0  0  0
   24.5454  -21.9014   -7.6948 O   0  0  0  0  0  0  0  0  0  0  0  0
   23.8879  -20.1367   -8.9143 O   0  0  0  0  0  0  0  0  0  0  0  0
  1  2  1  0
  2  3  1  0
  3  4  2  0
  5  6  1  0
  6  8  1  0
  7  6  2  0
  8  9  1  0
 10  9  1  6
 11 10  1  0
 11  3  1  0
 12 14  1  0
 12 10  1  0
 13 12  2  0
 15 14  1  0
 15 16  1  1
 17 18  2  0
 17 16  1  0
 19 18  1  0
 20 25  2  0
 20 19  1  0
 21 20  1  0
 22 21  2  0
 22 23  1  0
 23 24  2  0
 24 25  1  0
 25 17  1  0
 26 27  1  0
 26 15  1  0
 28 26  2  0
M  END
$$$$
