GQW.pdb
     RDKit          3D

 28 29  0  0  1  0  0  0  0  0999 V2000
   27.6882  -24.9280  -17.9129 N   0  0  0  0  0  0  0  0  0  0  0  0
   26.5271  -24.1896  -17.4729 C   0  0  0  0  0  0  0  0  0  0  0  0
   26.9420  -23.1220  -16.5308 C   0  0  0  0  0  0  0  0  0  0  0  0
   28.1089  -23.1933  -16.0371 O   0  0  0  0  0  0  0  0  0  0  0  0
   28.0300  -18.0269  -15.0215 N   0  0  0  0  0  0  0  0  0  0  0  0
   28.0680  -18.2933  -16.4059 C   0  0  0  0  0  0  0  0  0  0  0  0
   28.9559  -17.8579  -17.1645 O   0  0  0  0  0  0  0  0  0  0  0  0
   26.9306  -19.1651  -16.9238 C   0  0  0  0  0  0  0  0  0  0  0  0
   26.1753  -19.6695  -15.7549 C   0  0  0  0  0  0  0  0  0  0  0  0
   26.6859  -21.0102  -15.2772 C   0  0  2  0  0  0  0  0  0  0  0  0
   26.1034  -22.0452  -16.1664 N   0  0  0  0  0  0  0  0  0  0  0  0
   26.2005  -21.2939  -13.9315 C   0  0  0  0  0  0  0  0  0  0  0  0
   24.9634  -21.6072  -13.7910 O   0  0  0  0  0  0  0  0  0  0  0  0
   26.9391  -21.2741  -12.7285 N   0  0  0  0  0  0  0  0  0  0  0  0
   26.2859  -21.4347  -11.4281 C   0  0  1  0  0  0  0  0  0  0  0  0
   27.3144  -21.6141  -10.3527 C   0  0  0  0  0  0  0  0  0  0  0  0
   26.9644  -20.8783   -9.1256 C   0  0  0  0  0  0  0  0  0  0  0  0
   25.6867  -20.4579   -8.7290 C   0  0  0  0  0  0  0  0  0  0  0  0
   25.7446  -19.7803   -7.5747 N   0  0  0  0  0  0  0  0  0  0  0  0
   27.0400  -19.7305   -7.1741 C   0  0  0  0  0  0  0  0  0  0  0  0
   27.6226  -19.1660   -6.0459 C   0  0  0  0  0  0  0  0  0  0  0  0
   28.9794  -19.3002   -5.9016 C   0  0  0  0  0  0  0  0  0  0  0  0
   29.7598  -19.9679   -6.8308 C   0  0  0  0  0  0  0  0  0  0  0  0
   29.1727  -20.5148   -7.9318 C   0  0  0  0  0  0  0  0  0  0  0  0
   27.7996  -20.3984   -8.1127 C   0  0  0  0  0  0  0  0  0  0  0  0
   25.3101  -20.3788  -11.2392 C   0  0  0  0  0  0  0  0  0  0  0  0
   25.4469  -19.0618  -11.7096 O   0  0  0  0  0  0  0  0  0  0  0  0
   24.2319  -20.5908  -10.6053 O   0  0  0  0  0  0  0  0  0  0  0  0
  1  2  1  0
  2  3  1  0
  3  4  2  0
  5  6  1  0
  6  8  1  0
  7  6  2  0
  8  9  1  0
 10  9  1  6
 11 10  1  0
 11  3  1  0
 12 14  1  0
 12 10  1  0
 13 12  2  0
 15 14  1  0
 15 16  1  1
 17 18  2  0
 17 16  1  0
 19 18  1  0
 20 25  2  0
 20 19  1  0
 21 20  1  0
 22 21  2  0
 22 23  1  0
 23 24  2  0
 24 25  1  0
 25 17  1  0
 26 27  1  0
 26 15  1  0
 28 26  2  0
M  END
$$$$
