GQW.pdb
     RDKit          3D

 28 29  0  0  1  0  0  0  0  0999 V2000
   29.3457  -21.5893  -17.0076 N   0  0  0  0  0  0  0  0  0  0  0  0
   28.2267  -22.2224  -16.3487 C   0  0  0  0  0  0  0  0  0  0  0  0
   27.7034  -21.3303  -15.2857 C   0  0  0  0  0  0  0  0  0  0  0  0
   28.1226  -20.1327  -15.2632 O   0  0  0  0  0  0  0  0  0  0  0  0
   24.6186  -17.0484  -13.4261 N   0  0  0  0  0  0  0  0  0  0  0  0
   23.9624  -18.1700  -13.9741 C   0  0  0  0  0  0  0  0  0  0  0  0
   23.3459  -18.1433  -15.0570 O   0  0  0  0  0  0  0  0  0  0  0  0
   24.0581  -19.4414  -13.1396 C   0  0  0  0  0  0  0  0  0  0  0  0
   24.7680  -20.4613  -13.9440 C   0  0  0  0  0  0  0  0  0  0  0  0
   26.1764  -20.7033  -13.4496 C   0  0  2  0  0  0  0  0  0  0  0  0
   26.7713  -21.7534  -14.3123 N   0  0  0  0  0  0  0  0  0  0  0  0
   26.1587  -21.2374  -12.0926 C   0  0  0  0  0  0  0  0  0  0  0  0
   25.8119  -22.4631  -11.9322 O   0  0  0  0  0  0  0  0  0  0  0  0
   26.4900  -20.5620  -10.8979 N   0  0  0  0  0  0  0  0  0  0  0  0
   26.5697  -21.2683   -9.6178 C   0  0  1  0  0  0  0  0  0  0  0  0
   27.8996  -21.0192   -8.9730 C   0  0  0  0  0  0  0  0  0  0  0  0
   27.7916  -20.1134   -7.8166 C   0  0  0  0  0  0  0  0  0  0  0  0
   27.0845  -18.9040   -7.7551 C   0  0  0  0  0  0  0  0  0  0  0  0
   27.2373  -18.3227   -6.5577 N   0  0  0  0  0  0  0  0  0  0  0  0
   28.0362  -19.1141   -5.7984 C   0  0  0  0  0  0  0  0  0  0  0  0
   28.4789  -18.9712   -4.4890 C   0  0  0  0  0  0  0  0  0  0  0  0
   29.2721  -19.9661   -3.9785 C   0  0  0  0  0  0  0  0  0  0  0  0
   29.6315  -21.0795   -4.7197 C   0  0  0  0  0  0  0  0  0  0  0  0
   29.1894  -21.2036   -6.0024 C   0  0  0  0  0  0  0  0  0  0  0  0
   28.3840  -20.2147   -6.5546 C   0  0  0  0  0  0  0  0  0  0  0  0
   25.3884  -20.9802   -8.8279 C   0  0  0  0  0  0  0  0  0  0  0  0
   24.3784  -20.0730   -9.1904 O   0  0  0  0  0  0  0  0  0  0  0  0
   25.1928  -21.5511   -7.7120 O   0  0  0  0  0  0  0  0  0  0  0  0
  1  2  1  0
  2  3  1  0
  3  4  2  0
  5  6  1  0
  6  8  1  0
  7  6  2  0
  8  9  1  0
 10  9  1  6
 11 10  1  0
 11  3  1  0
 12 14  1  0
 12 10  1  0
 13 12  2  0
 15 14  1  0
 15 16  1  1
 17 18  2  0
 17 16  1  0
 19 18  1  0
 20 25  2  0
 20 19  1  0
 21 20  1  0
 22 21  2  0
 22 23  1  0
 23 24  2  0
 24 25  1  0
 25 17  1  0
 26 27  1  0
 26 15  1  0
 28 26  2  0
M  END
$$$$
