GQW.pdb
     RDKit          3D

 28 29  0  0  1  0  0  0  0  0999 V2000
   22.5041  -18.9452  -14.5895 N   0  0  0  0  0  0  0  0  0  0  0  0
   23.3501  -18.8494  -13.4224 C   0  0  0  0  0  0  0  0  0  0  0  0
   24.3594  -19.9359  -13.4470 C   0  0  0  0  0  0  0  0  0  0  0  0
   24.0879  -20.9764  -14.1208 O   0  0  0  0  0  0  0  0  0  0  0  0
   28.9504  -20.3400  -15.9920 N   0  0  0  0  0  0  0  0  0  0  0  0
   28.4262  -19.1357  -15.4784 C   0  0  0  0  0  0  0  0  0  0  0  0
   28.6290  -18.0216  -15.9989 O   0  0  0  0  0  0  0  0  0  0  0  0
   27.5791  -19.2884  -14.2209 C   0  0  0  0  0  0  0  0  0  0  0  0
   27.5605  -20.7230  -13.8562 C   0  0  0  0  0  0  0  0  0  0  0  0
   26.4824  -21.0439  -12.8457 C   0  0  2  0  0  0  0  0  0  0  0  0
   25.5920  -19.8602  -12.7611 N   0  0  0  0  0  0  0  0  0  0  0  0
   27.0610  -21.2275  -11.5196 C   0  0  0  0  0  0  0  0  0  0  0  0
   28.2463  -20.7800  -11.3123 O   0  0  0  0  0  0  0  0  0  0  0  0
   26.4652  -21.8465  -10.3993 N   0  0  0  0  0  0  0  0  0  0  0  0
   26.4431  -21.1950   -9.0883 C   0  0  1  0  0  0  0  0  0  0  0  0
   27.6585  -20.3343   -8.9192 C   0  0  0  0  0  0  0  0  0  0  0  0
   27.7241  -19.7287   -7.5782 C   0  0  0  0  0  0  0  0  0  0  0  0
   27.0306  -18.5955   -7.1291 C   0  0  0  0  0  0  0  0  0  0  0  0
   27.3613  -18.3046   -5.8638 N   0  0  0  0  0  0  0  0  0  0  0  0
   28.2686  -19.2197   -5.4390 C   0  0  0  0  0  0  0  0  0  0  0  0
   28.9041  -19.3696   -4.2124 C   0  0  0  0  0  0  0  0  0  0  0  0
   29.7687  -20.4245   -4.0739 C   0  0  0  0  0  0  0  0  0  0  0  0
   30.0152  -21.3191   -5.1021 C   0  0  0  0  0  0  0  0  0  0  0  0
   29.3842  -21.1572   -6.2987 C   0  0  0  0  0  0  0  0  0  0  0  0
   28.5012  -20.0988   -6.4769 C   0  0  0  0  0  0  0  0  0  0  0  0
   25.1537  -20.5654   -8.8786 C   0  0  0  0  0  0  0  0  0  0  0  0
   24.4333  -20.5868   -7.6723 O   0  0  0  0  0  0  0  0  0  0  0  0
   24.5733  -19.9365   -9.8150 O   0  0  0  0  0  0  0  0  0  0  0  0
  1  2  1  0
  2  3  1  0
  3  4  2  0
  5  6  1  0
  6  8  1  0
  7  6  2  0
  8  9  1  0
 10  9  1  6
 11 10  1  0
 11  3  1  0
 12 14  1  0
 12 10  1  0
 13 12  2  0
 15 14  1  0
 15 16  1  6
 17 18  2  0
 17 16  1  0
 19 18  1  0
 20 25  2  0
 20 19  1  0
 21 20  1  0
 22 21  2  0
 22 23  1  0
 23 24  2  0
 24 25  1  0
 25 17  1  0
 26 27  1  0
 26 15  1  0
 28 26  2  0
M  END
$$$$
