GQW.pdb
     RDKit          3D

 28 29  0  0  1  0  0  0  0  0999 V2000
   29.2267  -22.4590  -16.9336 N   0  0  0  0  0  0  0  0  0  0  0  0
   27.8807  -22.1869  -16.4850 C   0  0  0  0  0  0  0  0  0  0  0  0
   27.9227  -21.3982  -15.2297 C   0  0  0  0  0  0  0  0  0  0  0  0
   29.0631  -21.1060  -14.7560 O   0  0  0  0  0  0  0  0  0  0  0  0
   28.8037  -17.3876  -15.5309 N   0  0  0  0  0  0  0  0  0  0  0  0
   27.4563  -17.1900  -15.1642 C   0  0  0  0  0  0  0  0  0  0  0  0
   26.5919  -16.7416  -15.9421 O   0  0  0  0  0  0  0  0  0  0  0  0
   27.1198  -17.5678  -13.7268 C   0  0  0  0  0  0  0  0  0  0  0  0
   26.2282  -18.7489  -13.7636 C   0  0  0  0  0  0  0  0  0  0  0  0
   26.9562  -20.0281  -13.4172 C   0  0  2  0  0  0  0  0  0  0  0  0
   26.7621  -20.9656  -14.5505 N   0  0  0  0  0  0  0  0  0  0  0  0
   26.3572  -20.6580  -12.2462 C   0  0  0  0  0  0  0  0  0  0  0  0
   25.3571  -21.4420  -12.4293 O   0  0  0  0  0  0  0  0  0  0  0  0
   26.7512  -20.5176  -10.8978 N   0  0  0  0  0  0  0  0  0  0  0  0
   26.1319  -21.3109   -9.8343 C   0  0  1  0  0  0  0  0  0  0  0  0
   27.1109  -21.5364   -8.7220 C   0  0  0  0  0  0  0  0  0  0  0  0
   27.1598  -20.3969   -7.7899 C   0  0  0  0  0  0  0  0  0  0  0  0
   26.5714  -19.1364   -7.9665 C   0  0  0  0  0  0  0  0  0  0  0  0
   26.8525  -18.3301   -6.9340 N   0  0  0  0  0  0  0  0  0  0  0  0
   27.6226  -19.0177   -6.0535 C   0  0  0  0  0  0  0  0  0  0  0  0
   28.1589  -18.6430   -4.8277 C   0  0  0  0  0  0  0  0  0  0  0  0
   28.8889  -19.5811   -4.1445 C   0  0  0  0  0  0  0  0  0  0  0  0
   29.0974  -20.8587   -4.6368 C   0  0  0  0  0  0  0  0  0  0  0  0
   28.5651  -21.2095   -5.8409 C   0  0  0  0  0  0  0  0  0  0  0  0
   27.8196  -20.2849   -6.5628 C   0  0  0  0  0  0  0  0  0  0  0  0
   24.8501  -20.7334   -9.4790 C   0  0  0  0  0  0  0  0  0  0  0  0
   24.3459  -19.5213   -9.9801 O   0  0  0  0  0  0  0  0  0  0  0  0
   24.0786  -21.3116   -8.6545 O   0  0  0  0  0  0  0  0  0  0  0  0
  1  2  1  0
  2  3  1  0
  3  4  2  0
  5  6  1  0
  6  8  1  0
  7  6  2  0
  8  9  1  0
 10  9  1  6
 11 10  1  0
 11  3  1  0
 12 14  1  0
 12 10  1  0
 13 12  2  0
 15 14  1  0
 15 16  1  1
 17 18  2  0
 17 16  1  0
 19 18  1  0
 20 25  2  0
 20 19  1  0
 21 20  1  0
 22 21  2  0
 22 23  1  0
 23 24  2  0
 24 25  1  0
 25 17  1  0
 26 27  1  0
 26 15  1  0
 28 26  2  0
M  END
$$$$
