GQW.pdb
     RDKit          3D

 28 29  0  0  1  0  0  0  0  0999 V2000
   27.1494  -25.8993  -16.9586 N   0  0  0  0  0  0  0  0  0  0  0  0
   26.1971  -24.8495  -16.6791 C   0  0  0  0  0  0  0  0  0  0  0  0
   26.8937  -23.6955  -16.0604 C   0  0  0  0  0  0  0  0  0  0  0  0
   27.9705  -23.9269  -15.4301 O   0  0  0  0  0  0  0  0  0  0  0  0
   25.7444  -17.8271  -16.1891 N   0  0  0  0  0  0  0  0  0  0  0  0
   27.1345  -17.6663  -16.0137 C   0  0  0  0  0  0  0  0  0  0  0  0
   27.6742  -16.5678  -15.7785 O   0  0  0  0  0  0  0  0  0  0  0  0
   27.9495  -18.9484  -16.1331 C   0  0  0  0  0  0  0  0  0  0  0  0
   27.0160  -20.0534  -16.4471 C   0  0  0  0  0  0  0  0  0  0  0  0
   27.3086  -21.2982  -15.6399 C   0  0  2  0  0  0  0  0  0  0  0  0
   26.4141  -22.3694  -16.1432 N   0  0  0  0  0  0  0  0  0  0  0  0
   26.9660  -21.0920  -14.2374 C   0  0  0  0  0  0  0  0  0  0  0  0
   27.4867  -20.0868  -13.6316 O   0  0  0  0  0  0  0  0  0  0  0  0
   26.1049  -21.8748  -13.4381 N   0  0  0  0  0  0  0  0  0  0  0  0
   25.8204  -21.5190  -12.0466 C   0  0  1  0  0  0  0  0  0  0  0  0
   27.0954  -21.2087  -11.3224 C   0  0  0  0  0  0  0  0  0  0  0  0
   26.8475  -20.6626   -9.9771 C   0  0  0  0  0  0  0  0  0  0  0  0
   25.6433  -20.1350   -9.4892 C   0  0  0  0  0  0  0  0  0  0  0  0
   25.7907  -19.6930   -8.2330 N   0  0  0  0  0  0  0  0  0  0  0  0
   27.0749  -19.9098   -7.8527 C   0  0  0  0  0  0  0  0  0  0  0  0
   27.7244  -19.6512   -6.6518 C   0  0  0  0  0  0  0  0  0  0  0  0
   29.0443  -20.0098   -6.5577 C   0  0  0  0  0  0  0  0  0  0  0  0
   29.7251  -20.6076   -7.6052 C   0  0  0  0  0  0  0  0  0  0  0  0
   29.0735  -20.8533   -8.7762 C   0  0  0  0  0  0  0  0  0  0  0  0
   27.7351  -20.5030   -8.9092 C   0  0  0  0  0  0  0  0  0  0  0  0
   24.7755  -20.5144  -12.0043 C   0  0  0  0  0  0  0  0  0  0  0  0
   24.7404  -19.3547  -12.7970 O   0  0  0  0  0  0  0  0  0  0  0  0
   23.7926  -20.6265  -11.2102 O   0  0  0  0  0  0  0  0  0  0  0  0
  1  2  1  0
  2  3  1  0
  3  4  2  0
  5  6  1  0
  6  8  1  0
  7  6  2  0
  8  9  1  0
 10  9  1  6
 11 10  1  0
 11  3  1  0
 12 14  1  0
 12 10  1  0
 13 12  2  0
 15 14  1  0
 15 16  1  6
 17 18  2  0
 17 16  1  0
 19 18  1  0
 20 25  2  0
 20 19  1  0
 21 20  1  0
 22 21  2  0
 22 23  1  0
 23 24  2  0
 24 25  1  0
 25 17  1  0
 26 27  1  0
 26 15  1  0
 28 26  2  0
M  END
$$$$
