GQW.pdb
     RDKit          3D

 28 29  0  0  1  0  0  0  0  0999 V2000
   12.6139  -14.7263    6.8467 N   0  0  0  0  0  0  0  0  0  0  0  0
   12.7621  -15.8670    5.9728 C   0  0  0  0  0  0  0  0  0  0  0  0
   14.1585  -16.3630    6.0318 C   0  0  0  0  0  0  0  0  0  0  0  0
   15.0710  -15.6082    5.5757 O   0  0  0  0  0  0  0  0  0  0  0  0
   16.9543  -21.0656    9.0286 N   0  0  0  0  0  0  0  0  0  0  0  0
   16.8027  -19.8703    9.7615 C   0  0  0  0  0  0  0  0  0  0  0  0
   17.0711  -19.7702   10.9745 O   0  0  0  0  0  0  0  0  0  0  0  0
   16.2790  -18.6861    8.9581 C   0  0  0  0  0  0  0  0  0  0  0  0
   16.1171  -19.1250    7.5537 C   0  0  0  0  0  0  0  0  0  0  0  0
   15.9527  -17.9598    6.6040 C   0  0  2  0  0  0  0  0  0  0  0  0
   14.5085  -17.6226    6.5671 N   0  0  0  0  0  0  0  0  0  0  0  0
   16.3266  -18.3466    5.2484 C   0  0  0  0  0  0  0  0  0  0  0  0
   15.4254  -18.8764    4.5031 O   0  0  0  0  0  0  0  0  0  0  0  0
   17.5874  -18.2031    4.6296 N   0  0  0  0  0  0  0  0  0  0  0  0
   17.8130  -18.6296    3.2473 C   0  0  1  0  0  0  0  0  0  0  0  0
   18.5423  -17.5613    2.4902 C   0  0  0  0  0  0  0  0  0  0  0  0
   19.1817  -18.0864    1.2717 C   0  0  0  0  0  0  0  0  0  0  0  0
   18.5845  -18.8760    0.2785 C   0  0  0  0  0  0  0  0  0  0  0  0
   19.4739  -19.2054   -0.6678 N   0  0  0  0  0  0  0  0  0  0  0  0
   20.6694  -18.6539   -0.3396 C   0  0  0  0  0  0  0  0  0  0  0  0
   21.8949  -18.6821   -0.9941 C   0  0  0  0  0  0  0  0  0  0  0  0
   22.9343  -17.9985   -0.4179 C   0  0  0  0  0  0  0  0  0  0  0  0
   22.7926  -17.3000    0.7695 C   0  0  0  0  0  0  0  0  0  0  0  0
   21.5843  -17.2832    1.3987 C   0  0  0  0  0  0  0  0  0  0  0  0
   20.5073  -17.9653    0.8451 C   0  0  0  0  0  0  0  0  0  0  0  0
   18.3916  -19.9592    3.2357 C   0  0  0  0  0  0  0  0  0  0  0  0
   18.2001  -20.9123    2.2211 O   0  0  0  0  0  0  0  0  0  0  0  0
   19.1316  -20.3585    4.1857 O   0  0  0  0  0  0  0  0  0  0  0  0
  1  2  1  0
  2  3  1  0
  3  4  2  0
  5  6  1  0
  6  8  1  0
  7  6  2  0
  8  9  1  0
 10  9  1  1
 11 10  1  0
 11  3  1  0
 12 14  1  0
 12 10  1  0
 13 12  2  0
 15 14  1  0
 15 16  1  1
 17 18  2  0
 17 16  1  0
 19 18  1  0
 20 25  2  0
 20 19  1  0
 21 20  1  0
 22 21  2  0
 22 23  1  0
 23 24  2  0
 24 25  1  0
 25 17  1  0
 26 27  1  0
 26 15  1  0
 28 26  2  0
M  END
$$$$
