GQW.pdb
     RDKit          3D

 28 29  0  0  1  0  0  0  0  0999 V2000
   29.0661  -21.8234  -16.8669 N   0  0  0  0  0  0  0  0  0  0  0  0
   27.7439  -22.0000  -16.3123 C   0  0  0  0  0  0  0  0  0  0  0  0
   27.5500  -21.0659  -15.1767 C   0  0  0  0  0  0  0  0  0  0  0  0
   27.7728  -19.8338  -15.3834 O   0  0  0  0  0  0  0  0  0  0  0  0
   23.5895  -19.0013  -15.5273 N   0  0  0  0  0  0  0  0  0  0  0  0
   23.2521  -18.7350  -14.1842 C   0  0  0  0  0  0  0  0  0  0  0  0
   22.4249  -17.8673  -13.8433 O   0  0  0  0  0  0  0  0  0  0  0  0
   23.9793  -19.5939  -13.1567 C   0  0  0  0  0  0  0  0  0  0  0  0
   24.9649  -20.4300  -13.8783 C   0  0  0  0  0  0  0  0  0  0  0  0
   26.2717  -20.5527  -13.1276 C   0  0  2  0  0  0  0  0  0  0  0  0
   27.1335  -21.4860  -13.8939 N   0  0  0  0  0  0  0  0  0  0  0  0
   26.0565  -21.1608  -11.8196 C   0  0  0  0  0  0  0  0  0  0  0  0
   25.5150  -22.3242  -11.7779 O   0  0  0  0  0  0  0  0  0  0  0  0
   26.3826  -20.6218  -10.5561 N   0  0  0  0  0  0  0  0  0  0  0  0
   26.1799  -21.3863   -9.3239 C   0  0  1  0  0  0  0  0  0  0  0  0
   27.4558  -21.4493   -8.5400 C   0  0  0  0  0  0  0  0  0  0  0  0
   27.6064  -20.2960   -7.6363 C   0  0  0  0  0  0  0  0  0  0  0  0
   27.0356  -19.0242   -7.7890 C   0  0  0  0  0  0  0  0  0  0  0  0
   27.4177  -18.2080   -6.7976 N   0  0  0  0  0  0  0  0  0  0  0  0
   28.2394  -18.8998   -5.9686 C   0  0  0  0  0  0  0  0  0  0  0  0
   28.8811  -18.5182   -4.7966 C   0  0  0  0  0  0  0  0  0  0  0  0
   29.6411  -19.4627   -4.1564 C   0  0  0  0  0  0  0  0  0  0  0  0
   29.7790  -20.7532   -4.6398 C   0  0  0  0  0  0  0  0  0  0  0  0
   29.1437  -21.1107   -5.7908 C   0  0  0  0  0  0  0  0  0  0  0  0
   28.3649  -20.1800   -6.4681 C   0  0  0  0  0  0  0  0  0  0  0  0
   25.0039  -20.8941   -8.6330 C   0  0  0  0  0  0  0  0  0  0  0  0
   24.3447  -21.5630   -7.5877 O   0  0  0  0  0  0  0  0  0  0  0  0
   24.4755  -19.7853   -8.9502 O   0  0  0  0  0  0  0  0  0  0  0  0
  1  2  1  0
  2  3  1  0
  3  4  2  0
  5  6  1  0
  6  8  1  0
  7  6  2  0
  8  9  1  0
 10  9  1  6
 11 10  1  0
 11  3  1  0
 12 14  1  0
 12 10  1  0
 13 12  2  0
 15 14  1  0
 15 16  1  1
 17 18  2  0
 17 16  1  0
 19 18  1  0
 20 25  2  0
 20 19  1  0
 21 20  1  0
 22 21  2  0
 22 23  1  0
 23 24  2  0
 24 25  1  0
 25 17  1  0
 26 27  1  0
 26 15  1  0
 28 26  2  0
M  END
$$$$
