GQW.pdb
     RDKit          3D

 28 29  0  0  1  0  0  0  0  0999 V2000
   19.0047  -25.7538  -11.2303 N   0  0  0  0  0  0  0  0  0  0  0  0
   19.4270  -26.8395  -10.3759 C   0  0  0  0  0  0  0  0  0  0  0  0
   18.3241  -27.2085   -9.4556 C   0  0  0  0  0  0  0  0  0  0  0  0
   17.4238  -26.3410   -9.2380 O   0  0  0  0  0  0  0  0  0  0  0  0
   14.5631  -30.7466   -6.6921 N   0  0  0  0  0  0  0  0  0  0  0  0
   14.5436  -30.8246   -8.1001 C   0  0  0  0  0  0  0  0  0  0  0  0
   13.5348  -31.1504   -8.7555 O   0  0  0  0  0  0  0  0  0  0  0  0
   15.8619  -30.4777   -8.7810 C   0  0  0  0  0  0  0  0  0  0  0  0
   16.8306  -30.0953   -7.7291 C   0  0  0  0  0  0  0  0  0  0  0  0
   17.1873  -28.6269   -7.7845 C   0  0  2  0  0  0  0  0  0  0  0  0
   18.2365  -28.4677   -8.8213 N   0  0  0  0  0  0  0  0  0  0  0  0
   17.7774  -28.1947   -6.5228 C   0  0  0  0  0  0  0  0  0  0  0  0
   19.0207  -28.4444   -6.3224 O   0  0  0  0  0  0  0  0  0  0  0  0
   17.1401  -27.5110   -5.4646 N   0  0  0  0  0  0  0  0  0  0  0  0
   17.8943  -27.0137   -4.3124 C   0  0  1  0  0  0  0  0  0  0  0  0
   18.3421  -25.6046   -4.5579 C   0  0  0  0  0  0  0  0  0  0  0  0
   17.2310  -24.7393   -4.9895 C   0  0  0  0  0  0  0  0  0  0  0  0
   16.0987  -24.3841   -4.2424 C   0  0  0  0  0  0  0  0  0  0  0  0
   15.2737  -23.6137   -4.9641 N   0  0  0  0  0  0  0  0  0  0  0  0
   15.8225  -23.4349   -6.1921 C   0  0  0  0  0  0  0  0  0  0  0  0
   15.3777  -22.7099   -7.2909 C   0  0  0  0  0  0  0  0  0  0  0  0
   16.1764  -22.6983   -8.4051 C   0  0  0  0  0  0  0  0  0  0  0  0
   17.3836  -23.3751   -8.4572 C   0  0  0  0  0  0  0  0  0  0  0  0
   17.8046  -24.0818   -7.3712 C   0  0  0  0  0  0  0  0  0  0  0  0
   17.0213  -24.1175   -6.2236 C   0  0  0  0  0  0  0  0  0  0  0  0
   17.1478  -27.2669   -3.0953 C   0  0  0  0  0  0  0  0  0  0  0  0
   15.7851  -27.6055   -3.0417 O   0  0  0  0  0  0  0  0  0  0  0  0
   17.7048  -27.1879   -1.9583 O   0  0  0  0  0  0  0  0  0  0  0  0
  1  2  1  0
  2  3  1  0
  3  4  2  0
  5  6  1  0
  6  8  1  0
  7  6  2  0
  8  9  1  0
 10  9  1  1
 11 10  1  0
 11  3  1  0
 12 14  1  0
 12 10  1  0
 13 12  2  0
 15 14  1  0
 15 16  1  6
 17 18  2  0
 17 16  1  0
 19 18  1  0
 20 25  2  0
 20 19  1  0
 21 20  1  0
 22 21  2  0
 22 23  1  0
 23 24  2  0
 24 25  1  0
 25 17  1  0
 26 27  1  0
 26 15  1  0
 28 26  2  0
M  END
$$$$
