GQW.pdb
     RDKit          3D

 28 29  0  0  1  0  0  0  0  0999 V2000
   27.9130  -16.7560  -15.1691 N   0  0  0  0  0  0  0  0  0  0  0  0
   27.9793  -18.1933  -15.0391 C   0  0  0  0  0  0  0  0  0  0  0  0
   26.9353  -18.6576  -14.0935 C   0  0  0  0  0  0  0  0  0  0  0  0
   26.1238  -17.7930  -13.6415 O   0  0  0  0  0  0  0  0  0  0  0  0
   22.6802  -20.7671  -12.3080 N   0  0  0  0  0  0  0  0  0  0  0  0
   22.7417  -20.6236  -13.7096 C   0  0  0  0  0  0  0  0  0  0  0  0
   21.8192  -20.1353  -14.3908 O   0  0  0  0  0  0  0  0  0  0  0  0
   24.0347  -21.1142  -14.3495 C   0  0  0  0  0  0  0  0  0  0  0  0
   24.9634  -21.4977  -13.2625 C   0  0  0  0  0  0  0  0  0  0  0  0
   25.7272  -20.3127  -12.7159 C   0  0  2  0  0  0  0  0  0  0  0  0
   26.8096  -20.0032  -13.6821 N   0  0  0  0  0  0  0  0  0  0  0  0
   26.3768  -20.6580  -11.4567 C   0  0  0  0  0  0  0  0  0  0  0  0
   26.7658  -21.8704  -11.2922 O   0  0  0  0  0  0  0  0  0  0  0  0
   26.6470  -19.8039  -10.3655 N   0  0  0  0  0  0  0  0  0  0  0  0
   26.6356  -20.2980   -8.9873 C   0  0  1  0  0  0  0  0  0  0  0  0
   26.9089  -19.1743   -8.0339 C   0  0  0  0  0  0  0  0  0  0  0  0
   27.0262  -19.6459   -6.6435 C   0  0  0  0  0  0  0  0  0  0  0  0
   25.9785  -19.8884   -5.7434 C   0  0  0  0  0  0  0  0  0  0  0  0
   26.4537  -20.2715   -4.5507 N   0  0  0  0  0  0  0  0  0  0  0  0
   27.8086  -20.2961   -4.6194 C   0  0  0  0  0  0  0  0  0  0  0  0
   28.7619  -20.6399   -3.6688 C   0  0  0  0  0  0  0  0  0  0  0  0
   30.0786  -20.5880   -4.0474 C   0  0  0  0  0  0  0  0  0  0  0  0
   30.4676  -20.2106   -5.3219 C   0  0  0  0  0  0  0  0  0  0  0  0
   29.5200  -19.8759   -6.2418 C   0  0  0  0  0  0  0  0  0  0  0  0
   28.1749  -19.9158   -5.8943 C   0  0  0  0  0  0  0  0  0  0  0  0
   25.4357  -21.0800   -8.7600 C   0  0  0  0  0  0  0  0  0  0  0  0
   24.1687  -20.7842   -9.2908 O   0  0  0  0  0  0  0  0  0  0  0  0
   25.4604  -22.1185   -8.0318 O   0  0  0  0  0  0  0  0  0  0  0  0
  1  2  1  0
  2  3  1  0
  3  4  2  0
  5  6  1  0
  6  8  1  0
  7  6  2  0
  8  9  1  0
 10  9  1  6
 11 10  1  0
 11  3  1  0
 12 14  1  0
 12 10  1  0
 13 12  2  0
 15 14  1  0
 15 16  1  1
 17 18  2  0
 17 16  1  0
 19 18  1  0
 20 25  2  0
 20 19  1  0
 21 20  1  0
 22 21  2  0
 22 23  1  0
 23 24  2  0
 24 25  1  0
 25 17  1  0
 26 27  1  0
 26 15  1  0
 28 26  2  0
M  END
$$$$
