LAN.pdb
     RDKit          3D

 22 21  0  0  1  0  0  0  0  0999 V2000
   18.6410  -13.9945    2.7633 C   0  0  0  0  0  0  0  0  0  0  0  0
   17.1607  -14.3645    2.9543 C   0  0  2  0  0  0  0  0  0  0  0  0
   16.3900  -13.0668    2.9462 C   0  0  0  0  0  0  0  0  0  0  0  0
   17.0742  -15.1347    4.2129 C   0  0  0  0  0  0  0  0  0  0  0  0
   17.9744  -16.2972    4.3834 C   0  0  2  0  0  0  0  0  0  0  0  0
   17.6957  -17.3972    3.4933 N   0  0  0  0  0  0  0  0  0  0  0  0
   18.0891  -16.8271    5.7572 C   0  0  0  0  0  0  0  0  0  0  0  0
   18.4333  -16.0820    6.7264 O   0  0  0  0  0  0  0  0  0  0  0  0
   17.5872  -20.1372    7.4427 C   0  0  0  0  0  0  0  0  0  0  0  0
   18.0523  -18.6647    7.4579 C   0  0  2  0  0  0  0  0  0  0  0  0
   17.8241  -18.2007    6.1036 N   0  0  0  0  0  0  0  0  0  0  0  0
   19.4537  -18.5781    7.8840 C   0  0  0  0  0  0  0  0  0  0  0  0
   20.3886  -18.6829    7.0182 O   0  0  0  0  0  0  0  0  0  0  0  0
   23.8788  -17.7155   10.3033 N   0  0  0  0  0  0  0  0  0  0  0  0
   22.9871  -16.5868   10.2338 C   0  0  0  0  0  0  0  0  0  0  0  0
   23.4735  -15.4721   10.5489 O   0  0  0  0  0  0  0  0  0  0  0  0
   21.5973  -16.8020    9.8091 C   0  0  0  0  0  0  0  0  0  0  0  0
   21.2877  -18.2695    9.6069 C   0  0  2  0  0  0  0  0  0  0  0  0
   19.8982  -18.3803    9.2187 N   0  0  0  0  0  0  0  0  0  0  0  0
   21.5217  -19.0303   10.8765 C   0  0  0  0  0  0  0  0  0  0  0  0
   22.6090  -19.8717   11.0023 O   0  0  0  0  0  0  0  0  0  0  0  0
   20.7233  -18.8989   11.8264 O   0  0  0  0  0  0  0  0  0  0  0  0
  2  4  1  0
  2  1  1  1
  3  2  1  0
  4  5  1  0
  5  6  1  6
  7  5  1  0
  7  8  2  0
 10  9  1  6
 10 11  1  0
 10 12  1  0
 11  7  1  0
 12 13  2  0
 12 19  1  0
 14 15  1  0
 15 16  2  0
 18 17  1  1
 17 15  1  0
 18 20  1  0
 19 18  1  0
 20 22  2  0
 20 21  1  0
M  END
$$$$
