LAN.pdb
     RDKit          3D

 22 21  0  0  1  0  0  0  0  0999 V2000
   17.0969  -13.8374  -15.8531 C   0  0  0  0  0  0  0  0  0  0  0  0
   18.4659  -13.7698  -16.5501 C   0  0  2  0  0  0  0  0  0  0  0  0
   19.1191  -15.1146  -16.3433 C   0  0  0  0  0  0  0  0  0  0  0  0
   19.1893  -12.6259  -15.9558 C   0  0  0  0  0  0  0  0  0  0  0  0
   20.4950  -12.2459  -16.5402 C   0  0  2  0  0  0  0  0  0  0  0  0
   21.6213  -12.9545  -15.9838 N   0  0  0  0  0  0  0  0  0  0  0  0
   20.8059  -10.8021  -16.5383 C   0  0  0  0  0  0  0  0  0  0  0  0
   21.1452  -10.2004  -15.4725 O   0  0  0  0  0  0  0  0  0  0  0  0
   21.4062   -8.1396  -19.0598 C   0  0  0  0  0  0  0  0  0  0  0  0
   21.0233   -8.5554  -17.6227 C   0  0  2  0  0  0  0  0  0  0  0  0
   20.7535   -9.9766  -17.7184 N   0  0  0  0  0  0  0  0  0  0  0  0
   19.8785   -7.7670  -17.1528 C   0  0  0  0  0  0  0  0  0  0  0  0
   18.7372   -8.3258  -17.0119 O   0  0  0  0  0  0  0  0  0  0  0  0
   16.8190   -4.1247  -15.1757 N   0  0  0  0  0  0  0  0  0  0  0  0
   17.2273   -5.3238  -14.4907 C   0  0  0  0  0  0  0  0  0  0  0  0
   16.6228   -5.5881  -13.4214 O   0  0  0  0  0  0  0  0  0  0  0  0
   18.2993   -6.1449  -15.0692 C   0  0  0  0  0  0  0  0  0  0  0  0
   18.7522   -5.6192  -16.4142 C   0  0  2  0  0  0  0  0  0  0  0  0
   19.9094   -6.3855  -16.8231 N   0  0  0  0  0  0  0  0  0  0  0  0
   19.1150   -4.1690  -16.3106 C   0  0  0  0  0  0  0  0  0  0  0  0
   20.3633   -3.7864  -15.8619 O   0  0  0  0  0  0  0  0  0  0  0  0
   18.2774   -3.3026  -16.6341 O   0  0  0  0  0  0  0  0  0  0  0  0
  2  4  1  0
  2  1  1  1
  3  2  1  0
  4  5  1  0
  5  6  1  1
  7  5  1  0
  7  8  2  0
 10  9  1  6
 10 11  1  0
 10 12  1  0
 11  7  1  0
 12 13  2  0
 12 19  1  0
 14 15  1  0
 15 16  2  0
 18 17  1  1
 17 15  1  0
 18 20  1  0
 19 18  1  0
 20 22  2  0
 20 21  1  0
M  END
$$$$
