LAN.pdb
     RDKit          3D

 22 21  0  0  1  0  0  0  0  0999 V2000
   20.8932  -14.1536  -17.3615 C   0  0  0  0  0  0  0  0  0  0  0  0
   19.4271  -13.8864  -17.7405 C   0  0  2  0  0  0  0  0  0  0  0  0
   19.0877  -14.8535  -18.8485 C   0  0  0  0  0  0  0  0  0  0  0  0
   19.3369  -12.4577  -18.1088 C   0  0  0  0  0  0  0  0  0  0  0  0
   19.5919  -11.4482  -17.0569 C   0  0  2  0  0  0  0  0  0  0  0  0
   19.0524  -11.7910  -15.7640 N   0  0  0  0  0  0  0  0  0  0  0  0
   19.1859  -10.0652  -17.3792 C   0  0  0  0  0  0  0  0  0  0  0  0
   19.6442   -9.4626  -18.3990 O   0  0  0  0  0  0  0  0  0  0  0  0
   16.6209   -7.6393  -16.1923 C   0  0  0  0  0  0  0  0  0  0  0  0
   17.9301   -7.9410  -16.9536 C   0  0  2  0  0  0  0  0  0  0  0  0
   18.2564   -9.3041  -16.5833 N   0  0  0  0  0  0  0  0  0  0  0  0
   18.9654   -6.9663  -16.5917 C   0  0  0  0  0  0  0  0  0  0  0  0
   18.6428   -5.7485  -16.3734 O   0  0  0  0  0  0  0  0  0  0  0  0
   23.1780   -4.7677  -14.6419 N   0  0  0  0  0  0  0  0  0  0  0  0
   22.0742   -5.2418  -13.8478 C   0  0  0  0  0  0  0  0  0  0  0  0
   22.0437   -4.8598  -12.6513 O   0  0  0  0  0  0  0  0  0  0  0  0
   21.0754   -6.1216  -14.4695 C   0  0  0  0  0  0  0  0  0  0  0  0
   21.3279   -6.3077  -15.9501 C   0  0  2  0  0  0  0  0  0  0  0  0
   20.3505   -7.2493  -16.4518 N   0  0  0  0  0  0  0  0  0  0  0  0
   22.7096   -6.8407  -16.1792 C   0  0  0  0  0  0  0  0  0  0  0  0
   23.7927   -5.9865  -16.2354 O   0  0  0  0  0  0  0  0  0  0  0  0
   22.8777   -8.0691  -16.3199 O   0  0  0  0  0  0  0  0  0  0  0  0
  2  4  1  0
  2  1  1  6
  3  2  1  0
  4  5  1  0
  5  6  1  1
  7  5  1  0
  7  8  2  0
 10  9  1  1
 10 11  1  0
 10 12  1  0
 11  7  1  0
 12 13  2  0
 12 19  1  0
 14 15  1  0
 15 16  2  0
 18 17  1  1
 17 15  1  0
 18 20  1  0
 19 18  1  0
 20 22  2  0
 20 21  1  0
M  END
$$$$
