LAN.pdb
     RDKit          3D

 22 21  0  0  1  0  0  0  0  0999 V2000
   26.5895  -19.8539   -4.9539 C   0  0  0  0  0  0  0  0  0  0  0  0
   27.8928  -20.0062   -5.7556 C   0  0  2  0  0  0  0  0  0  0  0  0
   28.9453  -19.2161   -5.0169 C   0  0  0  0  0  0  0  0  0  0  0  0
   27.6057  -19.5351   -7.1269 C   0  0  0  0  0  0  0  0  0  0  0  0
   26.6661  -20.3248   -7.9541 C   0  0  2  0  0  0  0  0  0  0  0  0
   26.8800  -21.7499   -7.8958 N   0  0  0  0  0  0  0  0  0  0  0  0
   26.5653  -19.9266   -9.3727 C   0  0  0  0  0  0  0  0  0  0  0  0
   26.3478  -18.7206   -9.7068 O   0  0  0  0  0  0  0  0  0  0  0  0
   27.9475  -20.9627  -12.4798 C   0  0  0  0  0  0  0  0  0  0  0  0
   26.6771  -20.3665  -11.8353 C   0  0  2  0  0  0  0  0  0  0  0  0
   26.7046  -20.8512  -10.4693 N   0  0  0  0  0  0  0  0  0  0  0  0
   25.4849  -20.7788  -12.5847 C   0  0  0  0  0  0  0  0  0  0  0  0
   25.1501  -20.1459  -13.6440 O   0  0  0  0  0  0  0  0  0  0  0  0
   20.4831  -21.5205  -11.8364 N   0  0  0  0  0  0  0  0  0  0  0  0
   21.3219  -20.8885  -10.8512 C   0  0  0  0  0  0  0  0  0  0  0  0
   20.7315  -20.2700   -9.9307 O   0  0  0  0  0  0  0  0  0  0  0  0
   22.7810  -21.0024  -10.9791 C   0  0  0  0  0  0  0  0  0  0  0  0
   23.1825  -21.7742  -12.2174 C   0  0  2  0  0  0  0  0  0  0  0  0
   24.6269  -21.8571  -12.2395 N   0  0  0  0  0  0  0  0  0  0  0  0
   22.6960  -21.0720  -13.4485 C   0  0  0  0  0  0  0  0  0  0  0  0
   22.0930  -21.7789  -14.4697 O   0  0  0  0  0  0  0  0  0  0  0  0
   22.8395  -19.8364  -13.5471 O   0  0  0  0  0  0  0  0  0  0  0  0
  2  4  1  0
  2  1  1  1
  3  2  1  0
  4  5  1  0
  5  6  1  6
  7  5  1  0
  7  8  2  0
 10  9  1  6
 10 11  1  0
 10 12  1  0
 11  7  1  0
 12 13  2  0
 12 19  1  0
 14 15  1  0
 15 16  2  0
 18 17  1  1
 17 15  1  0
 18 20  1  0
 19 18  1  0
 20 22  2  0
 20 21  1  0
M  END
$$$$
