LAN.pdb
     RDKit          3D

 22 21  0  0  1  0  0  0  0  0999 V2000
   19.5889  -14.1914  -19.4003 C   0  0  0  0  0  0  0  0  0  0  0  0
   18.1979  -13.6520  -19.0281 C   0  0  2  0  0  0  0  0  0  0  0  0
   17.5007  -13.3311  -20.3276 C   0  0  0  0  0  0  0  0  0  0  0  0
   18.4159  -12.4953  -18.1339 C   0  0  0  0  0  0  0  0  0  0  0  0
   19.0589  -12.7377  -16.8230 C   0  0  2  0  0  0  0  0  0  0  0  0
   18.3313  -13.6398  -15.9645 N   0  0  0  0  0  0  0  0  0  0  0  0
   19.4075  -11.5325  -16.0437 C   0  0  0  0  0  0  0  0  0  0  0  0
   18.5152  -10.8400  -15.4630 O   0  0  0  0  0  0  0  0  0  0  0  0
   22.5384   -9.8109  -14.9423 C   0  0  0  0  0  0  0  0  0  0  0  0
   21.0093   -9.8236  -15.1581 C   0  0  2  0  0  0  0  0  0  0  0  0
   20.7575  -11.0554  -15.8798 N   0  0  0  0  0  0  0  0  0  0  0  0
   20.5874   -8.6184  -15.8808 C   0  0  0  0  0  0  0  0  0  0  0  0
   20.6463   -8.5901  -17.1576 O   0  0  0  0  0  0  0  0  0  0  0  0
   17.2047   -4.4886  -17.4650 N   0  0  0  0  0  0  0  0  0  0  0  0
   18.0284   -4.5144  -16.2841 C   0  0  0  0  0  0  0  0  0  0  0  0
   18.3949   -3.3995  -15.8358 O   0  0  0  0  0  0  0  0  0  0  0  0
   18.3813   -5.8108  -15.6899 C   0  0  0  0  0  0  0  0  0  0  0  0
   19.8064   -6.2098  -16.0067 C   0  0  2  0  0  0  0  0  0  0  0  0
   20.0979   -7.4272  -15.2810 N   0  0  0  0  0  0  0  0  0  0  0  0
   20.7551   -5.1290  -15.5857 C   0  0  0  0  0  0  0  0  0  0  0  0
   21.0737   -4.0979  -16.4467 O   0  0  0  0  0  0  0  0  0  0  0  0
   21.2594   -5.1656  -14.4449 O   0  0  0  0  0  0  0  0  0  0  0  0
  2  4  1  0
  2  1  1  6
  3  2  1  0
  4  5  1  0
  5  6  1  1
  7  5  1  0
  7  8  2  0
 10  9  1  6
 10 11  1  0
 10 12  1  0
 11  7  1  0
 12 13  2  0
 12 19  1  0
 14 15  1  0
 15 16  2  0
 18 17  1  1
 17 15  1  0
 18 20  1  0
 19 18  1  0
 20 22  2  0
 20 21  1  0
M  END
$$$$
