LAN.pdb
     RDKit          3D

 22 21  0  0  1  0  0  0  0  0999 V2000
   30.2996  -21.2095  -12.9627 C   0  0  0  0  0  0  0  0  0  0  0  0
   29.9116  -20.5662  -11.6210 C   0  0  2  0  0  0  0  0  0  0  0  0
   31.0338  -20.8713  -10.6589 C   0  0  0  0  0  0  0  0  0  0  0  0
   28.5967  -21.1271  -11.2452 C   0  0  0  0  0  0  0  0  0  0  0  0
   27.4347  -20.8222  -12.1099 C   0  0  2  0  0  0  0  0  0  0  0  0
   27.3137  -19.4309  -12.4700 N   0  0  0  0  0  0  0  0  0  0  0  0
   26.1240  -21.2916  -11.6168 C   0  0  0  0  0  0  0  0  0  0  0  0
   25.8794  -22.5286  -11.4648 O   0  0  0  0  0  0  0  0  0  0  0  0
   23.3003  -20.0042   -9.7210 C   0  0  0  0  0  0  0  0  0  0  0  0
   23.7646  -20.9487  -10.8512 C   0  0  2  0  0  0  0  0  0  0  0  0
   25.0407  -20.4054  -11.2734 N   0  0  0  0  0  0  0  0  0  0  0  0
   22.7600  -20.9960  -11.9195 C   0  0  0  0  0  0  0  0  0  0  0  0
   21.5778  -21.4095  -11.6620 O   0  0  0  0  0  0  0  0  0  0  0  0
   19.8912  -19.2804  -13.2096 N   0  0  0  0  0  0  0  0  0  0  0  0
   20.6286  -18.6082  -14.2480 C   0  0  0  0  0  0  0  0  0  0  0  0
   20.2291  -17.4587  -14.5604 O   0  0  0  0  0  0  0  0  0  0  0  0
   21.7748  -19.2904  -14.8637 C   0  0  0  0  0  0  0  0  0  0  0  0
   21.9694  -20.6846  -14.3080 C   0  0  2  0  0  0  0  0  0  0  0  0
   22.9751  -20.6121  -13.2703 N   0  0  0  0  0  0  0  0  0  0  0  0
   22.4232  -21.6170  -15.3897 C   0  0  0  0  0  0  0  0  0  0  0  0
   21.5046  -22.3143  -16.1487 O   0  0  0  0  0  0  0  0  0  0  0  0
   23.6442  -21.7614  -15.6028 O   0  0  0  0  0  0  0  0  0  0  0  0
  2  4  1  0
  2  1  1  6
  3  2  1  0
  4  5  1  0
  5  6  1  1
  7  5  1  0
  7  8  2  0
 10  9  1  1
 10 11  1  0
 10 12  1  0
 11  7  1  0
 12 13  2  0
 12 19  1  0
 14 15  1  0
 15 16  2  0
 18 17  1  6
 17 15  1  0
 18 20  1  0
 19 18  1  0
 20 22  2  0
 20 21  1  0
M  END
$$$$
