LAN.pdb
     RDKit          3D

 22 21  0  0  1  0  0  0  0  0999 V2000
   19.3521  -33.7589   -3.7315 C   0  0  0  0  0  0  0  0  0  0  0  0
   20.3145  -32.7232   -4.3362 C   0  0  2  0  0  0  0  0  0  0  0  0
   21.6946  -33.3306   -4.2702 C   0  0  0  0  0  0  0  0  0  0  0  0
   20.1421  -31.4781   -3.5585 C   0  0  0  0  0  0  0  0  0  0  0  0
   18.8213  -30.8110   -3.5924 C   0  0  2  0  0  0  0  0  0  0  0  0
   18.2960  -30.6048   -4.9197 N   0  0  0  0  0  0  0  0  0  0  0  0
   18.7231  -29.5382   -2.8496 C   0  0  0  0  0  0  0  0  0  0  0  0
   19.1264  -29.4406   -1.6492 O   0  0  0  0  0  0  0  0  0  0  0  0
   17.4456  -26.0828   -3.5446 C   0  0  0  0  0  0  0  0  0  0  0  0
   18.0820  -27.1300   -2.6047 C   0  0  2  0  0  0  0  0  0  0  0  0
   18.1767  -28.3296   -3.4131 N   0  0  0  0  0  0  0  0  0  0  0  0
   17.2642  -27.2939   -1.3976 C   0  0  0  0  0  0  0  0  0  0  0  0
   16.3036  -28.1377   -1.3908 O   0  0  0  0  0  0  0  0  0  0  0  0
   15.3140  -27.4000    3.3210 N   0  0  0  0  0  0  0  0  0  0  0  0
   16.3876  -28.2836    2.9466 C   0  0  0  0  0  0  0  0  0  0  0  0
   16.5968  -29.2606    3.7083 O   0  0  0  0  0  0  0  0  0  0  0  0
   17.1544  -27.9962    1.7269 C   0  0  0  0  0  0  0  0  0  0  0  0
   16.6282  -26.7767    1.0014 C   0  0  2  0  0  0  0  0  0  0  0  0
   17.4381  -26.5805   -0.1815 N   0  0  0  0  0  0  0  0  0  0  0  0
   16.7171  -25.5683    1.8830 C   0  0  0  0  0  0  0  0  0  0  0  0
   15.7319  -25.3017    2.8128 O   0  0  0  0  0  0  0  0  0  0  0  0
   17.6928  -24.7984    1.7720 O   0  0  0  0  0  0  0  0  0  0  0  0
  2  4  1  0
  2  1  1  1
  3  2  1  0
  4  5  1  0
  5  6  1  6
  7  5  1  0
  7  8  2  0
 10  9  1  6
 10 11  1  0
 10 12  1  0
 11  7  1  0
 12 13  2  0
 12 19  1  0
 14 15  1  0
 15 16  2  0
 18 17  1  1
 17 15  1  0
 18 20  1  0
 19 18  1  0
 20 22  2  0
 20 21  1  0
M  END
$$$$
