LAN.pdb
     RDKit          3D

 22 21  0  0  1  0  0  0  0  0999 V2000
   18.2781  -11.9246  -17.7733 C   0  0  0  0  0  0  0  0  0  0  0  0
   17.0387  -11.0974  -17.3935 C   0  0  2  0  0  0  0  0  0  0  0  0
   16.2354  -10.9230  -18.6593 C   0  0  0  0  0  0  0  0  0  0  0  0
   17.5341   -9.8423  -16.7900 C   0  0  0  0  0  0  0  0  0  0  0  0
   18.2109   -9.9190  -15.4759 C   0  0  2  0  0  0  0  0  0  0  0  0
   17.4234  -10.5409  -14.4399 N   0  0  0  0  0  0  0  0  0  0  0  0
   18.7478   -8.6466  -14.9525 C   0  0  0  0  0  0  0  0  0  0  0  0
   17.9934   -7.7908  -14.3942 O   0  0  0  0  0  0  0  0  0  0  0  0
   22.1093   -7.1783  -14.3178 C   0  0  0  0  0  0  0  0  0  0  0  0
   20.5851   -7.0071  -14.4976 C   0  0  2  0  0  0  0  0  0  0  0  0
   20.1396   -8.2805  -15.0282 N   0  0  0  0  0  0  0  0  0  0  0  0
   20.3014   -5.8682  -15.3782 C   0  0  0  0  0  0  0  0  0  0  0  0
   20.3160   -6.0270  -16.6467 O   0  0  0  0  0  0  0  0  0  0  0  0
   17.2258   -0.5457  -15.4580 N   0  0  0  0  0  0  0  0  0  0  0  0
   18.1607   -1.5006  -15.9945 C   0  0  0  0  0  0  0  0  0  0  0  0
   18.4739   -1.3558  -17.2025 O   0  0  0  0  0  0  0  0  0  0  0  0
   18.6786   -2.5600  -15.1183 C   0  0  0  0  0  0  0  0  0  0  0  0
   19.6628   -3.4580  -15.8362 C   0  0  2  0  0  0  0  0  0  0  0  0
   19.9980   -4.5491  -14.9470 N   0  0  0  0  0  0  0  0  0  0  0  0
   20.9020   -2.6934  -16.1903 C   0  0  0  0  0  0  0  0  0  0  0  0
   21.1278   -2.2820  -17.4887 O   0  0  0  0  0  0  0  0  0  0  0  0
   21.7348   -2.4285  -15.2997 O   0  0  0  0  0  0  0  0  0  0  0  0
  2  4  1  0
  2  1  1  6
  3  2  1  0
  4  5  1  0
  5  6  1  1
  7  5  1  0
  7  8  2  0
 10  9  1  6
 10 11  1  0
 10 12  1  0
 11  7  1  0
 12 13  2  0
 12 19  1  0
 14 15  1  0
 15 16  2  0
 18 17  1  1
 17 15  1  0
 18 20  1  0
 19 18  1  0
 20 22  2  0
 20 21  1  0
M  END
$$$$
