LAN.pdb
     RDKit          3D

 22 21  0  0  1  0  0  0  0  0999 V2000
   26.9227  -18.8621   -6.6043 C   0  0  0  0  0  0  0  0  0  0  0  0
   27.3883  -20.2655   -7.0268 C   0  0  2  0  0  0  0  0  0  0  0  0
   28.7848  -20.4364   -6.4804 C   0  0  0  0  0  0  0  0  0  0  0  0
   27.2825  -20.3226   -8.5000 C   0  0  0  0  0  0  0  0  0  0  0  0
   25.9356  -20.2345   -9.1073 C   0  0  2  0  0  0  0  0  0  0  0  0
   24.9934  -21.2018   -8.6005 N   0  0  0  0  0  0  0  0  0  0  0  0
   25.8907  -20.2694  -10.5831 C   0  0  0  0  0  0  0  0  0  0  0  0
   26.3049  -19.2919  -11.2802 O   0  0  0  0  0  0  0  0  0  0  0  0
   25.9564  -22.6094  -13.2829 C   0  0  0  0  0  0  0  0  0  0  0  0
   25.2909  -21.3095  -12.7806 C   0  0  2  0  0  0  0  0  0  0  0  0
   25.3872  -21.3901  -11.3364 N   0  0  0  0  0  0  0  0  0  0  0  0
   23.9132  -21.2185  -13.2769 C   0  0  0  0  0  0  0  0  0  0  0  0
   23.6821  -21.3137  -14.5308 O   0  0  0  0  0  0  0  0  0  0  0  0
   20.1912  -23.1711  -10.2834 N   0  0  0  0  0  0  0  0  0  0  0  0
   20.4223  -22.7043  -11.6259 C   0  0  0  0  0  0  0  0  0  0  0  0
   20.5872  -23.5887  -12.5029 O   0  0  0  0  0  0  0  0  0  0  0  0
   20.4505  -21.2580  -11.8823 C   0  0  0  0  0  0  0  0  0  0  0  0
   21.4145  -20.8983  -12.9921 C   0  0  2  0  0  0  0  0  0  0  0  0
   22.7584  -21.0279  -12.4717 N   0  0  0  0  0  0  0  0  0  0  0  0
   21.1809  -19.4900  -13.4479 C   0  0  0  0  0  0  0  0  0  0  0  0
   21.9179  -18.4485  -12.9204 O   0  0  0  0  0  0  0  0  0  0  0  0
   20.3109  -19.2615  -14.3126 O   0  0  0  0  0  0  0  0  0  0  0  0
  2  4  1  0
  2  1  1  6
  3  2  1  0
  4  5  1  0
  5  6  1  1
  7  5  1  0
  7  8  2  0
 10  9  1  6
 10 11  1  0
 10 12  1  0
 11  7  1  0
 12 13  2  0
 12 19  1  0
 14 15  1  0
 15 16  2  0
 18 17  1  1
 17 15  1  0
 18 20  1  0
 19 18  1  0
 20 22  2  0
 20 21  1  0
M  END
$$$$
