LAN.pdb
     RDKit          3D

 22 21  0  0  1  0  0  0  0  0999 V2000
   18.7209  -18.1686  -18.5050 C   0  0  0  0  0  0  0  0  0  0  0  0
   19.9941  -17.6267  -17.8344 C   0  0  2  0  0  0  0  0  0  0  0  0
   20.8418  -17.0388  -18.9361 C   0  0  0  0  0  0  0  0  0  0  0  0
   20.6083  -18.7596  -17.1105 C   0  0  0  0  0  0  0  0  0  0  0  0
   19.9850  -19.1975  -15.8414 C   0  0  2  0  0  0  0  0  0  0  0  0
   19.6507  -18.1197  -14.9432 N   0  0  0  0  0  0  0  0  0  0  0  0
   20.7251  -20.2249  -15.0811 C   0  0  0  0  0  0  0  0  0  0  0  0
   21.0846  -21.3163  -15.6220 O   0  0  0  0  0  0  0  0  0  0  0  0
   22.7854  -20.3004  -12.0565 C   0  0  0  0  0  0  0  0  0  0  0  0
   21.9020  -21.0899  -13.0471 C   0  0  2  0  0  0  0  0  0  0  0  0
   21.0936  -20.0764  -13.6958 N   0  0  0  0  0  0  0  0  0  0  0  0
   21.1177  -22.1036  -12.3329 C   0  0  0  0  0  0  0  0  0  0  0  0
   21.7158  -23.0215  -11.6738 O   0  0  0  0  0  0  0  0  0  0  0  0
   18.7533  -24.0436   -7.8705 N   0  0  0  0  0  0  0  0  0  0  0  0
   18.7576  -24.1506   -9.3065 C   0  0  0  0  0  0  0  0  0  0  0  0
   18.2941  -25.2147   -9.7875 O   0  0  0  0  0  0  0  0  0  0  0  0
   19.2905  -23.0366  -10.1024 C   0  0  0  0  0  0  0  0  0  0  0  0
   18.9508  -23.1761  -11.5705 C   0  0  2  0  0  0  0  0  0  0  0  0
   19.6992  -22.1727  -12.2962 N   0  0  0  0  0  0  0  0  0  0  0  0
   17.4826  -22.9685  -11.7868 C   0  0  0  0  0  0  0  0  0  0  0  0
   16.6117  -24.0398  -11.7775 O   0  0  0  0  0  0  0  0  0  0  0  0
   17.0476  -21.8145  -11.9766 O   0  0  0  0  0  0  0  0  0  0  0  0
  2  4  1  0
  2  1  1  6
  3  2  1  0
  4  5  1  0
  5  6  1  1
  7  5  1  0
  7  8  2  0
 10  9  1  1
 10 11  1  0
 10 12  1  0
 11  7  1  0
 12 13  2  0
 12 19  1  0
 14 15  1  0
 15 16  2  0
 18 17  1  1
 17 15  1  0
 18 20  1  0
 19 18  1  0
 20 22  2  0
 20 21  1  0
M  END
$$$$
