LAN.pdb
     RDKit          3D

 22 21  0  0  1  0  0  0  0  0999 V2000
   17.2398  -11.3011  -19.1448 C   0  0  0  0  0  0  0  0  0  0  0  0
   17.2760  -12.2367  -17.9250 C   0  0  2  0  0  0  0  0  0  0  0  0
   15.8431  -12.6006  -17.6212 C   0  0  0  0  0  0  0  0  0  0  0  0
   17.9763  -11.5048  -16.8486 C   0  0  0  0  0  0  0  0  0  0  0  0
   19.3291  -10.9746  -17.1307 C   0  0  2  0  0  0  0  0  0  0  0  0
   20.2919  -11.9796  -17.5089 N   0  0  0  0  0  0  0  0  0  0  0  0
   19.9249  -10.1335  -16.0728 C   0  0  0  0  0  0  0  0  0  0  0  0
   19.2838   -9.1650  -15.5589 O   0  0  0  0  0  0  0  0  0  0  0  0
   23.1600  -10.0385  -14.1815 C   0  0  0  0  0  0  0  0  0  0  0  0
   21.7625   -9.4678  -14.5074 C   0  0  2  0  0  0  0  0  0  0  0  0
   21.2509  -10.3390  -15.5470 N   0  0  0  0  0  0  0  0  0  0  0  0
   21.8692   -8.0620  -14.9139 C   0  0  0  0  0  0  0  0  0  0  0  0
   22.3058   -7.7691  -16.0794 O   0  0  0  0  0  0  0  0  0  0  0  0
   19.1637   -2.7971  -15.0889 N   0  0  0  0  0  0  0  0  0  0  0  0
   20.3289   -3.6235  -15.2705 C   0  0  0  0  0  0  0  0  0  0  0  0
   21.3229   -3.0750  -15.8085 O   0  0  0  0  0  0  0  0  0  0  0  0
   20.2856   -5.0233  -14.8268 C   0  0  0  0  0  0  0  0  0  0  0  0
   21.6663   -5.5650  -14.5257 C   0  0  2  0  0  0  0  0  0  0  0  0
   21.5212   -6.9434  -14.1103 N   0  0  0  0  0  0  0  0  0  0  0  0
   22.3094   -4.7703  -13.4301 C   0  0  0  0  0  0  0  0  0  0  0  0
   22.5415   -5.3372  -12.1929 O   0  0  0  0  0  0  0  0  0  0  0  0
   22.6365   -3.5851  -13.6429 O   0  0  0  0  0  0  0  0  0  0  0  0
  2  4  1  0
  2  1  1  6
  3  2  1  0
  4  5  1  0
  5  6  1  1
  7  5  1  0
  7  8  2  0
 10  9  1  6
 10 11  1  0
 10 12  1  0
 11  7  1  0
 12 13  2  0
 12 19  1  0
 14 15  1  0
 15 16  2  0
 18 17  1  1
 17 15  1  0
 18 20  1  0
 19 18  1  0
 20 22  2  0
 20 21  1  0
M  END
$$$$
