LAN.pdb
     RDKit          3D

 22 21  0  0  1  0  0  0  0  0999 V2000
   24.6720  -11.3186  -15.0917 C   0  0  0  0  0  0  0  0  0  0  0  0
   25.5848  -10.5551  -16.0657 C   0  0  2  0  0  0  0  0  0  0  0  0
   26.7459  -10.0402  -15.2505 C   0  0  0  0  0  0  0  0  0  0  0  0
   24.7523   -9.5096  -16.6971 C   0  0  0  0  0  0  0  0  0  0  0  0
   23.6881   -9.9354  -17.6336 C   0  0  2  0  0  0  0  0  0  0  0  0
   24.1618  -10.7048  -18.7577 N   0  0  0  0  0  0  0  0  0  0  0  0
   22.8090   -8.8624  -18.1407 C   0  0  0  0  0  0  0  0  0  0  0  0
   23.2159   -8.0299  -19.0094 O   0  0  0  0  0  0  0  0  0  0  0  0
   19.2760   -8.0649  -18.4152 C   0  0  0  0  0  0  0  0  0  0  0  0
   20.6954   -7.5196  -18.1452 C   0  0  2  0  0  0  0  0  0  0  0  0
   21.4483   -8.6772  -17.7038 N   0  0  0  0  0  0  0  0  0  0  0  0
   20.6448   -6.4358  -17.1575 C   0  0  0  0  0  0  0  0  0  0  0  0
   20.2030   -6.6691  -15.9806 O   0  0  0  0  0  0  0  0  0  0  0  0
   20.6082   -5.0174  -13.8330 N   0  0  0  0  0  0  0  0  0  0  0  0
   22.0068   -4.9885  -14.1749 C   0  0  0  0  0  0  0  0  0  0  0  0
   22.8046   -5.3942  -13.2932 O   0  0  0  0  0  0  0  0  0  0  0  0
   22.4059   -4.4984  -15.5011 C   0  0  0  0  0  0  0  0  0  0  0  0
   21.2113   -4.1032  -16.3420 C   0  0  2  0  0  0  0  0  0  0  0  0
   21.0550   -5.0947  -17.3842 N   0  0  0  0  0  0  0  0  0  0  0  0
   21.4303   -2.7535  -16.9550 C   0  0  0  0  0  0  0  0  0  0  0  0
   21.0857   -1.6054  -16.2700 O   0  0  0  0  0  0  0  0  0  0  0  0
   21.9291   -2.6715  -18.0958 O   0  0  0  0  0  0  0  0  0  0  0  0
  2  4  1  0
  2  1  1  1
  3  2  1  0
  4  5  1  0
  5  6  1  6
  7  5  1  0
  7  8  2  0
 10  9  1  1
 10 11  1  0
 10 12  1  0
 11  7  1  0
 12 13  2  0
 12 19  1  0
 14 15  1  0
 15 16  2  0
 18 17  1  1
 17 15  1  0
 18 20  1  0
 19 18  1  0
 20 22  2  0
 20 21  1  0
M  END
$$$$
