LAN.pdb
     RDKit          3D

 22 21  0  0  1  0  0  0  0  0999 V2000
   24.3414  -14.1928  -14.9618 C   0  0  0  0  0  0  0  0  0  0  0  0
   23.8177  -14.2768  -16.4052 C   0  0  2  0  0  0  0  0  0  0  0  0
   24.9764  -14.7378  -17.2554 C   0  0  0  0  0  0  0  0  0  0  0  0
   23.2879  -12.9390  -16.7436 C   0  0  0  0  0  0  0  0  0  0  0  0
   22.1339  -12.4289  -15.9699 C   0  0  2  0  0  0  0  0  0  0  0  0
   21.0081  -13.3291  -15.9230 N   0  0  0  0  0  0  0  0  0  0  0  0
   21.6435  -11.0892  -16.3521 C   0  0  0  0  0  0  0  0  0  0  0  0
   22.3771  -10.0589  -16.2361 O   0  0  0  0  0  0  0  0  0  0  0  0
   18.5368   -9.6886  -17.9103 C   0  0  0  0  0  0  0  0  0  0  0  0
   19.9463   -9.5132  -17.3041 C   0  0  2  0  0  0  0  0  0  0  0  0
   20.3239  -10.8464  -16.8781 N   0  0  0  0  0  0  0  0  0  0  0  0
   19.9128   -8.5318  -16.2139 C   0  0  0  0  0  0  0  0  0  0  0  0
   19.4050   -8.8531  -15.0853 O   0  0  0  0  0  0  0  0  0  0  0  0
   20.7410   -4.3798  -13.2283 N   0  0  0  0  0  0  0  0  0  0  0  0
   21.9311   -5.0611  -13.6676 C   0  0  0  0  0  0  0  0  0  0  0  0
   23.0106   -4.6937  -13.1400 O   0  0  0  0  0  0  0  0  0  0  0  0
   21.8139   -6.1182  -14.6810 C   0  0  0  0  0  0  0  0  0  0  0  0
   20.3940   -6.2660  -15.1836 C   0  0  2  0  0  0  0  0  0  0  0  0
   20.4091   -7.2026  -16.2863 N   0  0  0  0  0  0  0  0  0  0  0  0
   19.8667   -4.9429  -15.6492 C   0  0  0  0  0  0  0  0  0  0  0  0
   20.0774   -4.5185  -16.9460 O   0  0  0  0  0  0  0  0  0  0  0  0
   19.2315   -4.2214  -14.8537 O   0  0  0  0  0  0  0  0  0  0  0  0
  2  4  1  0
  2  1  1  1
  3  2  1  0
  4  5  1  0
  5  6  1  6
  7  5  1  0
  7  8  2  0
 10  9  1  1
 10 11  1  0
 10 12  1  0
 11  7  1  0
 12 13  2  0
 12 19  1  0
 14 15  1  0
 15 16  2  0
 18 17  1  6
 17 15  1  0
 18 20  1  0
 19 18  1  0
 20 22  2  0
 20 21  1  0
M  END
$$$$
