LAN.pdb
     RDKit          3D

 22 21  0  0  1  0  0  0  0  0999 V2000
   19.9219  -15.0825  -15.0029 C   0  0  0  0  0  0  0  0  0  0  0  0
   21.2090  -14.4743  -15.5844 C   0  0  2  0  0  0  0  0  0  0  0  0
   22.2870  -14.6814  -14.5486 C   0  0  0  0  0  0  0  0  0  0  0  0
   20.9073  -13.0617  -15.8982 C   0  0  0  0  0  0  0  0  0  0  0  0
   19.8968  -12.7788  -16.9421 C   0  0  2  0  0  0  0  0  0  0  0  0
   20.2132  -13.3295  -18.2370 N   0  0  0  0  0  0  0  0  0  0  0  0
   19.5311  -11.3586  -17.1166 C   0  0  0  0  0  0  0  0  0  0  0  0
   20.2812  -10.5564  -17.7546 O   0  0  0  0  0  0  0  0  0  0  0  0
   16.5789   -9.1901  -16.3893 C   0  0  0  0  0  0  0  0  0  0  0  0
   18.0755   -9.3577  -16.7316 C   0  0  2  0  0  0  0  0  0  0  0  0
   18.3201  -10.7797  -16.5918 N   0  0  0  0  0  0  0  0  0  0  0  0
   18.8966   -8.5267  -15.8439 C   0  0  0  0  0  0  0  0  0  0  0  0
   19.5035   -9.0621  -14.8541 O   0  0  0  0  0  0  0  0  0  0  0  0
   21.6539   -4.6891  -13.7599 N   0  0  0  0  0  0  0  0  0  0  0  0
   22.2349   -5.7039  -14.6004 C   0  0  0  0  0  0  0  0  0  0  0  0
   23.4892   -5.7760  -14.6013 O   0  0  0  0  0  0  0  0  0  0  0  0
   21.3476   -6.5720  -15.3862 C   0  0  0  0  0  0  0  0  0  0  0  0
   19.8884   -6.3259  -15.0693 C   0  0  2  0  0  0  0  0  0  0  0  0
   19.0961   -7.1265  -15.9776 N   0  0  0  0  0  0  0  0  0  0  0  0
   19.5545   -4.8761  -15.2481 C   0  0  0  0  0  0  0  0  0  0  0  0
   19.2327   -4.3768  -16.4944 O   0  0  0  0  0  0  0  0  0  0  0  0
   19.5687   -4.1167  -14.2581 O   0  0  0  0  0  0  0  0  0  0  0  0
  2  4  1  0
  2  1  1  1
  3  2  1  0
  4  5  1  0
  5  6  1  6
  7  5  1  0
  7  8  2  0
 10  9  1  1
 10 11  1  0
 10 12  1  0
 11  7  1  0
 12 13  2  0
 12 19  1  0
 14 15  1  0
 15 16  2  0
 18 17  1  6
 17 15  1  0
 18 20  1  0
 19 18  1  0
 20 22  2  0
 20 21  1  0
M  END
$$$$
