WQA.pdb
     RDKit          3D

 29 30  0  0  1  0  0  0  0  0999 V2000
   25.2159  -20.1401   -9.1492 N   0  0  0  0  0  0  0  0  0  0  0  0
   26.4359  -20.4355   -9.8346 C   0  0  1  0  0  0  0  0  0  0  0  0
   27.5301  -20.9665   -8.9272 C   0  0  0  0  0  0  0  0  0  0  0  0
   27.6507  -20.0885   -7.7400 C   0  0  0  0  0  0  0  0  0  0  0  0
   26.8737  -18.9814   -7.4319 C   0  0  0  0  0  0  0  0  0  0  0  0
   27.2979  -18.4193   -6.2827 N   0  0  0  0  0  0  0  0  0  0  0  0
   28.3400  -19.1282   -5.8184 C   0  0  0  0  0  0  0  0  0  0  0  0
   29.1253  -18.9803   -4.6869 C   0  0  0  0  0  0  0  0  0  0  0  0
   30.1551  -19.8611   -4.4174 C   0  0  0  0  0  0  0  0  0  0  0  0
   30.3948  -20.8958   -5.2918 C   0  0  0  0  0  0  0  0  0  0  0  0
   29.5998  -21.0376   -6.4288 C   0  0  0  0  0  0  0  0  0  0  0  0
   28.5691  -20.1731   -6.7198 C   0  0  0  0  0  0  0  0  0  0  0  0
   26.2068  -21.3480  -10.9843 C   0  0  0  0  0  0  0  0  0  0  0  0
   26.0667  -22.6041  -10.8055 O   0  0  0  0  0  0  0  0  0  0  0  0
   22.4670  -19.2993  -13.2702 N   0  0  0  0  0  0  0  0  0  0  0  0
   22.2497  -20.5515  -12.6502 C   0  0  0  0  0  0  0  0  0  0  0  0
   21.3045  -20.6852  -11.8414 O   0  0  0  0  0  0  0  0  0  0  0  0
   23.2009  -21.6327  -13.0312 C   0  0  0  0  0  0  0  0  0  0  0  0
   24.3356  -21.2181  -13.8676 C   0  0  0  0  0  0  0  0  0  0  0  0
   25.6806  -21.7008  -13.4095 C   0  0  2  0  0  0  0  0  0  0  0  0
   26.1382  -20.8312  -12.3045 N   0  0  0  0  0  0  0  0  0  0  0  0
   26.7308  -21.6484  -14.4224 C   0  0  0  0  0  0  0  0  0  0  0  0
   26.6772  -22.4242  -15.4310 O   0  0  0  0  0  0  0  0  0  0  0  0
   29.5656  -22.3222  -15.3309 C   0  0  0  0  0  0  0  0  0  0  0  0
   28.9483  -20.9426  -15.3786 C   0  0  2  0  0  0  0  0  0  0  0  0
   27.8649  -20.7873  -14.4216 N   0  0  0  0  0  0  0  0  0  0  0  0
   28.4362  -20.7355  -16.7581 C   0  0  0  0  0  0  0  0  0  0  0  0
   29.2577  -20.8153  -17.8795 O   0  0  0  0  0  0  0  0  0  0  0  0
   27.2098  -20.4789  -16.9013 O   0  0  0  0  0  0  0  0  0  0  0  0
  2 13  1  0
  2  1  1  1
  3  2  1  0
  3  4  1  0
  4  5  2  0
  4 12  1  0
  5  6  1  0
  6  7  1  0
  7  8  2  0
  8  9  1  0
 10  9  2  0
 11 10  1  0
 12 11  2  0
 12  7  1  0
 13 21  1  0
 14 13  2  0
 16 15  1  0
 17 16  2  0
 18 16  1  0
 19 18  1  0
 20 19  1  6
 21 20  1  0
 22 26  1  0
 22 20  1  0
 23 22  2  0
 25 24  1  6
 25 26  1  0
 25 27  1  0
 27 29  2  0
 27 28  1  0
M  END
$$$$
