WQA.pdb
     RDKit          3D

 29 30  0  0  1  0  0  0  0  0999 V2000
   26.5524  -22.6261  -11.6781 N   0  0  0  0  0  0  0  0  0  0  0  0
   25.8879  -21.4970  -11.1045 C   0  0  1  0  0  0  0  0  0  0  0  0
   26.6839  -20.2088  -11.2013 C   0  0  0  0  0  0  0  0  0  0  0  0
   27.8828  -20.3078  -10.3364 C   0  0  0  0  0  0  0  0  0  0  0  0
   29.1643  -20.6785  -10.7167 C   0  0  0  0  0  0  0  0  0  0  0  0
   29.9860  -20.6786   -9.6484 N   0  0  0  0  0  0  0  0  0  0  0  0
   29.2798  -20.3155   -8.5650 C   0  0  0  0  0  0  0  0  0  0  0  0
   29.6439  -20.1545   -7.2383 C   0  0  0  0  0  0  0  0  0  0  0  0
   28.7192  -19.7571   -6.2916 C   0  0  0  0  0  0  0  0  0  0  0  0
   27.4219  -19.5206   -6.6836 C   0  0  0  0  0  0  0  0  0  0  0  0
   27.0634  -19.6853   -8.0213 C   0  0  0  0  0  0  0  0  0  0  0  0
   27.9654  -20.0811   -8.9825 C   0  0  0  0  0  0  0  0  0  0  0  0
   24.5239  -21.3247  -11.6674 C   0  0  0  0  0  0  0  0  0  0  0  0
   24.2563  -21.6932  -12.8599 O   0  0  0  0  0  0  0  0  0  0  0  0
   19.8409  -22.9902   -9.7564 N   0  0  0  0  0  0  0  0  0  0  0  0
   19.0506  -21.9132  -10.2201 C   0  0  0  0  0  0  0  0  0  0  0  0
   17.8367  -22.0963  -10.4617 O   0  0  0  0  0  0  0  0  0  0  0  0
   19.7629  -20.6152  -10.3840 C   0  0  0  0  0  0  0  0  0  0  0  0
   21.2059  -20.6405  -10.1080 C   0  0  0  0  0  0  0  0  0  0  0  0
   22.0829  -20.8896  -11.2999 C   0  0  2  0  0  0  0  0  0  0  0  0
   23.4937  -20.7465  -10.8806 N   0  0  0  0  0  0  0  0  0  0  0  0
   21.8967  -19.9557  -12.4067 C   0  0  0  0  0  0  0  0  0  0  0  0
   22.5281  -18.8498  -12.4152 O   0  0  0  0  0  0  0  0  0  0  0  0
   21.7515  -19.5864  -15.8365 C   0  0  0  0  0  0  0  0  0  0  0  0
   20.9760  -19.1623  -14.6095 C   0  0  2  0  0  0  0  0  0  0  0  0
   21.0538  -20.1429  -13.5390 N   0  0  0  0  0  0  0  0  0  0  0  0
   19.5606  -18.9788  -15.0234 C   0  0  0  0  0  0  0  0  0  0  0  0
   18.9205  -17.7435  -14.9675 O   0  0  0  0  0  0  0  0  0  0  0  0
   18.9301  -19.9890  -15.4383 O   0  0  0  0  0  0  0  0  0  0  0  0
  2 13  1  0
  2  1  1  6
  3  2  1  0
  3  4  1  0
  4  5  2  0
  4 12  1  0
  5  6  1  0
  6  7  1  0
  7  8  2  0
  8  9  1  0
 10  9  2  0
 11 10  1  0
 12 11  2  0
 12  7  1  0
 13 21  1  0
 14 13  2  0
 16 15  1  0
 17 16  2  0
 18 16  1  0
 19 18  1  0
 20 19  1  1
 21 20  1  0
 22 26  1  0
 22 20  1  0
 23 22  2  0
 25 24  1  6
 25 26  1  0
 25 27  1  0
 27 29  2  0
 27 28  1  0
M  END
$$$$
