WQA.pdb
     RDKit          3D

 29 30  0  0  1  0  0  0  0  0999 V2000
   14.4770  -15.5459    4.4983 N   0  0  0  0  0  0  0  0  0  0  0  0
   15.6315  -16.3758    4.3440 C   0  0  1  0  0  0  0  0  0  0  0  0
   16.7479  -16.0526    5.3197 C   0  0  0  0  0  0  0  0  0  0  0  0
   17.4668  -14.8423    4.8577 C   0  0  0  0  0  0  0  0  0  0  0  0
   17.3849  -13.5631    5.3881 C   0  0  0  0  0  0  0  0  0  0  0  0
   18.1643  -12.7166    4.6863 N   0  0  0  0  0  0  0  0  0  0  0  0
   18.7640  -13.4042    3.7006 C   0  0  0  0  0  0  0  0  0  0  0  0
   19.6557  -13.0147    2.7148 C   0  0  0  0  0  0  0  0  0  0  0  0
   20.1479  -13.9276    1.8018 C   0  0  0  0  0  0  0  0  0  0  0  0
   19.7398  -15.2389    1.8826 C   0  0  0  0  0  0  0  0  0  0  0  0
   18.8415  -15.6228    2.8779 C   0  0  0  0  0  0  0  0  0  0  0  0
   18.3365  -14.7326    3.7980 C   0  0  0  0  0  0  0  0  0  0  0  0
   15.2765  -17.8173    4.3981 C   0  0  0  0  0  0  0  0  0  0  0  0
   14.6124  -18.2916    5.3797 O   0  0  0  0  0  0  0  0  0  0  0  0
   15.7749  -21.9470   -0.3473 N   0  0  0  0  0  0  0  0  0  0  0  0
   15.3344  -22.8098    0.6828 C   0  0  0  0  0  0  0  0  0  0  0  0
   15.1013  -24.0118    0.4251 O   0  0  0  0  0  0  0  0  0  0  0  0
   15.1832  -22.1845    2.0263 C   0  0  0  0  0  0  0  0  0  0  0  0
   15.4414  -20.7393    2.0897 C   0  0  0  0  0  0  0  0  0  0  0  0
   15.4026  -20.1402    3.4650 C   0  0  2  0  0  0  0  0  0  0  0  0
   15.6719  -18.6907    3.3514 N   0  0  0  0  0  0  0  0  0  0  0  0
   16.4024  -20.6626    4.3919 C   0  0  0  0  0  0  0  0  0  0  0  0
   17.6097  -20.2655    4.3109 O   0  0  0  0  0  0  0  0  0  0  0  0
   16.7373  -22.6948    7.5734 C   0  0  0  0  0  0  0  0  0  0  0  0
   17.2533  -22.0664    6.2985 C   0  0  2  0  0  0  0  0  0  0  0  0
   16.1790  -21.6085    5.4326 N   0  0  0  0  0  0  0  0  0  0  0  0
   18.0637  -23.0949    5.5959 C   0  0  0  0  0  0  0  0  0  0  0  0
   17.7096  -23.5999    4.3475 O   0  0  0  0  0  0  0  0  0  0  0  0
   19.1077  -23.5154    6.1646 O   0  0  0  0  0  0  0  0  0  0  0  0
  2 13  1  0
  2  1  1  1
  3  2  1  0
  3  4  1  0
  4  5  2  0
  4 12  1  0
  5  6  1  0
  6  7  1  0
  7  8  2  0
  8  9  1  0
 10  9  2  0
 11 10  1  0
 12 11  2  0
 12  7  1  0
 13 21  1  0
 14 13  2  0
 16 15  1  0
 17 16  2  0
 18 16  1  0
 19 18  1  0
 20 19  1  6
 21 20  1  0
 22 26  1  0
 22 20  1  0
 23 22  2  0
 25 24  1  1
 25 26  1  0
 25 27  1  0
 27 29  2  0
 27 28  1  0
M  END
$$$$
