WQA.pdb
     RDKit          3D

 29 30  0  0  1  0  0  0  0  0999 V2000
   27.9662  -21.8100  -12.3371 N   0  0  0  0  0  0  0  0  0  0  0  0
   26.7282  -21.6030  -11.6516 C   0  0  1  0  0  0  0  0  0  0  0  0
   26.7638  -20.4491  -10.6667 C   0  0  0  0  0  0  0  0  0  0  0  0
   27.8529  -20.6742   -9.6878 C   0  0  0  0  0  0  0  0  0  0  0  0
   29.0898  -21.2552   -9.9265 C   0  0  0  0  0  0  0  0  0  0  0  0
   29.8052  -21.3138   -8.7858 N   0  0  0  0  0  0  0  0  0  0  0  0
   29.0721  -20.7841   -7.7927 C   0  0  0  0  0  0  0  0  0  0  0  0
   29.3397  -20.5994   -6.4463 C   0  0  0  0  0  0  0  0  0  0  0  0
   28.4088  -20.0113   -5.6117 C   0  0  0  0  0  0  0  0  0  0  0  0
   27.2029  -19.6071   -6.1362 C   0  0  0  0  0  0  0  0  0  0  0  0
   26.9412  -19.7969   -7.4928 C   0  0  0  0  0  0  0  0  0  0  0  0
   27.8514  -20.3809   -8.3442 C   0  0  0  0  0  0  0  0  0  0  0  0
   25.5970  -21.4571  -12.6034 C   0  0  0  0  0  0  0  0  0  0  0  0
   25.6566  -20.6237  -13.5684 O   0  0  0  0  0  0  0  0  0  0  0  0
   23.2736  -26.3907  -14.8784 N   0  0  0  0  0  0  0  0  0  0  0  0
   22.3216  -25.5228  -15.4614 C   0  0  0  0  0  0  0  0  0  0  0  0
   21.4856  -25.9781  -16.2734 O   0  0  0  0  0  0  0  0  0  0  0  0
   22.4065  -24.0967  -15.0395 C   0  0  0  0  0  0  0  0  0  0  0  0
   23.3707  -23.8045  -13.9700 C   0  0  0  0  0  0  0  0  0  0  0  0
   23.4690  -22.3611  -13.5714 C   0  0  2  0  0  0  0  0  0  0  0  0
   24.4289  -22.2493  -12.4522 N   0  0  0  0  0  0  0  0  0  0  0  0
   22.2233  -21.7691  -13.0922 C   0  0  0  0  0  0  0  0  0  0  0  0
   21.8189  -22.0153  -11.9099 O   0  0  0  0  0  0  0  0  0  0  0  0
   19.4450  -19.3911  -14.1643 C   0  0  0  0  0  0  0  0  0  0  0  0
   20.1234  -20.3934  -13.2577 C   0  0  2  0  0  0  0  0  0  0  0  0
   21.3628  -20.9013  -13.8229 N   0  0  0  0  0  0  0  0  0  0  0  0
   19.1697  -21.5132  -13.0458 C   0  0  0  0  0  0  0  0  0  0  0  0
   18.2627  -21.5317  -11.9894 O   0  0  0  0  0  0  0  0  0  0  0  0
   19.1954  -22.4744  -13.8617 O   0  0  0  0  0  0  0  0  0  0  0  0
  2 13  1  0
  2  1  1  6
  3  2  1  0
  3  4  1  0
  4  5  2  0
  4 12  1  0
  5  6  1  0
  6  7  1  0
  7  8  2  0
  8  9  1  0
 10  9  2  0
 11 10  1  0
 12 11  2  0
 12  7  1  0
 13 21  1  0
 14 13  2  0
 16 15  1  0
 17 16  2  0
 18 16  1  0
 19 18  1  0
 20 19  1  1
 21 20  1  0
 22 26  1  0
 22 20  1  0
 23 22  2  0
 25 24  1  6
 25 26  1  0
 25 27  1  0
 27 29  2  0
 27 28  1  0
M  END
$$$$
