WQA.pdb
     RDKit          3D

 29 30  0  0  1  0  0  0  0  0999 V2000
   26.0820  -20.4433  -12.1800 N   0  0  0  0  0  0  0  0  0  0  0  0
   25.1940  -20.9249  -11.1676 C   0  0  1  0  0  0  0  0  0  0  0  0
   25.4343  -20.3062   -9.8030 C   0  0  0  0  0  0  0  0  0  0  0  0
   26.7967  -20.6577   -9.3391 C   0  0  0  0  0  0  0  0  0  0  0  0
   27.7457  -21.4108  -10.0148 C   0  0  0  0  0  0  0  0  0  0  0  0
   28.8577  -21.5416   -9.2645 N   0  0  0  0  0  0  0  0  0  0  0  0
   28.6702  -20.8915   -8.1041 C   0  0  0  0  0  0  0  0  0  0  0  0
   29.4919  -20.7142   -7.0032 C   0  0  0  0  0  0  0  0  0  0  0  0
   29.0670  -19.9826   -5.9108 C   0  0  0  0  0  0  0  0  0  0  0  0
   27.8087  -19.4268   -5.9279 C   0  0  0  0  0  0  0  0  0  0  0  0
   26.9875  -19.6103   -7.0401 C   0  0  0  0  0  0  0  0  0  0  0  0
   27.3871  -20.3354   -8.1396 C   0  0  0  0  0  0  0  0  0  0  0  0
   23.7731  -20.7797  -11.5763 C   0  0  0  0  0  0  0  0  0  0  0  0
   23.2908  -19.6358  -11.8733 O   0  0  0  0  0  0  0  0  0  0  0  0
   20.9801  -24.0986  -15.6161 N   0  0  0  0  0  0  0  0  0  0  0  0
   19.8203  -23.4444  -15.1404 C   0  0  0  0  0  0  0  0  0  0  0  0
   18.7368  -23.5857  -15.7500 O   0  0  0  0  0  0  0  0  0  0  0  0
   20.0035  -22.6184  -13.9144 C   0  0  0  0  0  0  0  0  0  0  0  0
   21.3538  -22.6281  -13.3350 C   0  0  0  0  0  0  0  0  0  0  0  0
   21.5353  -21.7714  -12.1164 C   0  0  2  0  0  0  0  0  0  0  0  0
   22.9289  -21.9188  -11.6444 N   0  0  0  0  0  0  0  0  0  0  0  0
   20.6879  -22.1278  -10.9821 C   0  0  0  0  0  0  0  0  0  0  0  0
   21.1287  -22.9179  -10.0858 O   0  0  0  0  0  0  0  0  0  0  0  0
   17.3275  -21.3037   -9.3974 C   0  0  0  0  0  0  0  0  0  0  0  0
   18.5994  -22.1012   -9.5795 C   0  0  2  0  0  0  0  0  0  0  0  0
   19.3604  -21.6722  -10.7416 N   0  0  0  0  0  0  0  0  0  0  0  0
   18.2087  -23.5269   -9.7308 C   0  0  0  0  0  0  0  0  0  0  0  0
   17.8924  -24.3342   -8.6413 O   0  0  0  0  0  0  0  0  0  0  0  0
   18.1667  -24.0082  -10.8957 O   0  0  0  0  0  0  0  0  0  0  0  0
  2 13  1  0
  2  1  1  6
  3  2  1  0
  3  4  1  0
  4  5  2  0
  4 12  1  0
  5  6  1  0
  6  7  1  0
  7  8  2  0
  8  9  1  0
 10  9  2  0
 11 10  1  0
 12 11  2  0
 12  7  1  0
 13 21  1  0
 14 13  2  0
 16 15  1  0
 17 16  2  0
 18 16  1  0
 19 18  1  0
 20 19  1  6
 21 20  1  0
 22 26  1  0
 22 20  1  0
 23 22  2  0
 25 24  1  6
 25 26  1  0
 25 27  1  0
 27 29  2  0
 27 28  1  0
M  END
$$$$
