WQA.pdb
     RDKit          3D

 29 30  0  0  1  0  0  0  0  0999 V2000
   27.9482  -21.8556  -10.1640 N   0  0  0  0  0  0  0  0  0  0  0  0
   26.8724  -20.9809   -9.8133 C   0  0  1  0  0  0  0  0  0  0  0  0
   27.3207  -19.7248   -9.0897 C   0  0  0  0  0  0  0  0  0  0  0  0
   28.3384  -20.0817   -8.0738 C   0  0  0  0  0  0  0  0  0  0  0  0
   29.5305  -20.7600   -8.2816 C   0  0  0  0  0  0  0  0  0  0  0  0
   30.1831  -20.9243   -7.1138 N   0  0  0  0  0  0  0  0  0  0  0  0
   29.4519  -20.3697   -6.1330 C   0  0  0  0  0  0  0  0  0  0  0  0
   29.6699  -20.2601   -4.7695 C   0  0  0  0  0  0  0  0  0  0  0  0
   28.7546  -19.6240   -3.9531 C   0  0  0  0  0  0  0  0  0  0  0  0
   27.6144  -19.0956   -4.5131 C   0  0  0  0  0  0  0  0  0  0  0  0
   27.4023  -19.2105   -5.8867 C   0  0  0  0  0  0  0  0  0  0  0  0
   28.2982  -19.8401   -6.7205 C   0  0  0  0  0  0  0  0  0  0  0  0
   26.0362  -20.6463  -10.9947 C   0  0  0  0  0  0  0  0  0  0  0  0
   26.4219  -19.7751  -11.8443 O   0  0  0  0  0  0  0  0  0  0  0  0
   25.8860  -23.3270  -15.1612 N   0  0  0  0  0  0  0  0  0  0  0  0
   24.5479  -23.0897  -15.5518 C   0  0  0  0  0  0  0  0  0  0  0  0
   24.2387  -23.1426  -16.7630 O   0  0  0  0  0  0  0  0  0  0  0  0
   23.5976  -22.7875  -14.4451 C   0  0  0  0  0  0  0  0  0  0  0  0
   24.1967  -22.6472  -13.1108 C   0  0  0  0  0  0  0  0  0  0  0  0
   24.1540  -21.2639  -12.5306 C   0  0  2  0  0  0  0  0  0  0  0  0
   24.7907  -21.2966  -11.1964 N   0  0  0  0  0  0  0  0  0  0  0  0
   22.8131  -20.7254  -12.3221 C   0  0  0  0  0  0  0  0  0  0  0  0
   22.1220  -21.1150  -11.3259 O   0  0  0  0  0  0  0  0  0  0  0  0
   20.2938  -18.3210  -13.8745 C   0  0  0  0  0  0  0  0  0  0  0  0
   20.7825  -19.3479  -12.8779 C   0  0  2  0  0  0  0  0  0  0  0  0
   22.1511  -19.7641  -13.1377 N   0  0  0  0  0  0  0  0  0  0  0  0
   19.8731  -20.5196  -12.9694 C   0  0  0  0  0  0  0  0  0  0  0  0
   18.7164  -20.6288  -12.2021 O   0  0  0  0  0  0  0  0  0  0  0  0
   20.1743  -21.4403  -13.7768 O   0  0  0  0  0  0  0  0  0  0  0  0
  2 13  1  0
  2  1  1  6
  3  2  1  0
  3  4  1  0
  4  5  2  0
  4 12  1  0
  5  6  1  0
  6  7  1  0
  7  8  2  0
  8  9  1  0
 10  9  2  0
 11 10  1  0
 12 11  2  0
 12  7  1  0
 13 21  1  0
 14 13  2  0
 16 15  1  0
 17 16  2  0
 18 16  1  0
 19 18  1  0
 20 19  1  1
 21 20  1  0
 22 26  1  0
 22 20  1  0
 23 22  2  0
 25 24  1  6
 25 26  1  0
 25 27  1  0
 27 29  2  0
 27 28  1  0
M  END
$$$$
