WQA.pdb
     RDKit          3D

 29 30  0  0  1  0  0  0  0  0999 V2000
   21.2555  -22.5262  -15.5497 N   0  0  0  0  0  0  0  0  0  0  0  0
   21.3106  -23.0741  -14.2298 C   0  0  1  0  0  0  0  0  0  0  0  0
   22.2790  -22.3522  -13.3114 C   0  0  0  0  0  0  0  0  0  0  0  0
   23.5243  -22.0483  -14.0543 C   0  0  0  0  0  0  0  0  0  0  0  0
   24.0107  -20.7965  -14.4019 C   0  0  0  0  0  0  0  0  0  0  0  0
   25.1583  -20.9190  -15.0980 N   0  0  0  0  0  0  0  0  0  0  0  0
   25.4472  -22.2249  -15.2211 C   0  0  0  0  0  0  0  0  0  0  0  0
   26.5023  -22.8825  -15.8318 C   0  0  0  0  0  0  0  0  0  0  0  0
   26.5836  -24.2617  -15.8165 C   0  0  0  0  0  0  0  0  0  0  0  0
   25.5973  -24.9817  -15.1828 C   0  0  0  0  0  0  0  0  0  0  0  0
   24.5382  -24.3120  -14.5707 C   0  0  0  0  0  0  0  0  0  0  0  0
   24.4342  -22.9396  -14.5730 C   0  0  0  0  0  0  0  0  0  0  0  0
   19.9590  -23.1588  -13.6191 C   0  0  0  0  0  0  0  0  0  0  0  0
   19.1204  -22.2054  -13.7500 O   0  0  0  0  0  0  0  0  0  0  0  0
   19.5573  -28.4959  -12.5204 N   0  0  0  0  0  0  0  0  0  0  0  0
   18.3025  -28.0249  -12.9710 C   0  0  0  0  0  0  0  0  0  0  0  0
   17.7538  -28.5711  -13.9540 O   0  0  0  0  0  0  0  0  0  0  0  0
   17.7310  -26.8814  -12.2063 C   0  0  0  0  0  0  0  0  0  0  0  0
   17.5585  -25.6325  -12.9609 C   0  0  0  0  0  0  0  0  0  0  0  0
   18.2024  -24.4211  -12.3527 C   0  0  2  0  0  0  0  0  0  0  0  0
   19.5796  -24.3094  -12.8795 N   0  0  0  0  0  0  0  0  0  0  0  0
   18.3307  -24.4573  -10.8988 C   0  0  0  0  0  0  0  0  0  0  0  0
   17.2877  -24.5401  -10.1728 O   0  0  0  0  0  0  0  0  0  0  0  0
   19.0992  -23.0798   -8.1304 C   0  0  0  0  0  0  0  0  0  0  0  0
   19.5548  -24.4039   -8.7014 C   0  0  2  0  0  0  0  0  0  0  0  0
   19.5443  -24.4131  -10.1551 N   0  0  0  0  0  0  0  0  0  0  0  0
   18.6332  -25.4484   -8.1838 C   0  0  0  0  0  0  0  0  0  0  0  0
   18.4584  -25.6819   -6.8223 O   0  0  0  0  0  0  0  0  0  0  0  0
   17.9931  -26.1402   -9.0217 O   0  0  0  0  0  0  0  0  0  0  0  0
  2 13  1  0
  2  1  1  6
  3  2  1  0
  3  4  1  0
  4  5  2  0
  4 12  1  0
  5  6  1  0
  6  7  1  0
  7  8  2  0
  8  9  1  0
 10  9  2  0
 11 10  1  0
 12 11  2  0
 12  7  1  0
 13 21  1  0
 14 13  2  0
 16 15  1  0
 17 16  2  0
 18 16  1  0
 19 18  1  0
 20 19  1  6
 21 20  1  0
 22 26  1  0
 22 20  1  0
 23 22  2  0
 25 24  1  1
 25 26  1  0
 25 27  1  0
 27 29  2  0
 27 28  1  0
M  END
$$$$
