WQA.pdb
     RDKit          3D

 29 30  0  0  1  0  0  0  0  0999 V2000
   26.5258  -19.3692  -12.3562 N   0  0  0  0  0  0  0  0  0  0  0  0
   25.7288  -20.5374  -12.5698 C   0  0  1  0  0  0  0  0  0  0  0  0
   25.8614  -21.5739  -11.4695 C   0  0  0  0  0  0  0  0  0  0  0  0
   27.1722  -21.4107  -10.7985 C   0  0  0  0  0  0  0  0  0  0  0  0
   28.4237  -21.7113  -11.3159 C   0  0  0  0  0  0  0  0  0  0  0  0
   29.3801  -21.4546  -10.4017 N   0  0  0  0  0  0  0  0  0  0  0  0
   28.7931  -20.9889   -9.2870 C   0  0  0  0  0  0  0  0  0  0  0  0
   29.3162  -20.5763   -8.0726 C   0  0  0  0  0  0  0  0  0  0  0  0
   28.4911  -20.1210   -7.0621 C   0  0  0  0  0  0  0  0  0  0  0  0
   27.1327  -20.0809   -7.2763 C   0  0  0  0  0  0  0  0  0  0  0  0
   26.6140  -20.4984   -8.5017 C   0  0  0  0  0  0  0  0  0  0  0  0
   27.4146  -20.9568   -9.5231 C   0  0  0  0  0  0  0  0  0  0  0  0
   24.3041  -20.1884  -12.8050 C   0  0  0  0  0  0  0  0  0  0  0  0
   23.6431  -19.5185  -11.9426 O   0  0  0  0  0  0  0  0  0  0  0  0
   21.4822  -17.0235  -15.9119 N   0  0  0  0  0  0  0  0  0  0  0  0
   20.3788  -17.8978  -16.0447 C   0  0  0  0  0  0  0  0  0  0  0  0
   19.2321  -17.4253  -16.2105 O   0  0  0  0  0  0  0  0  0  0  0  0
   20.6960  -19.3514  -15.9717 C   0  0  0  0  0  0  0  0  0  0  0  0
   22.0734  -19.6846  -15.5834 C   0  0  0  0  0  0  0  0  0  0  0  0
   22.2296  -20.2679  -14.2096 C   0  0  2  0  0  0  0  0  0  0  0  0
   23.6561  -20.5962  -14.0003 N   0  0  0  0  0  0  0  0  0  0  0  0
   21.4947  -21.5086  -13.9809 C   0  0  0  0  0  0  0  0  0  0  0  0
   21.9865  -22.6169  -14.3704 O   0  0  0  0  0  0  0  0  0  0  0  0
   18.7810  -22.9542  -11.8418 C   0  0  0  0  0  0  0  0  0  0  0  0
   19.6170  -22.9338  -13.1017 C   0  0  2  0  0  0  0  0  0  0  0  0
   20.2307  -21.6372  -13.3381 N   0  0  0  0  0  0  0  0  0  0  0  0
   18.7186  -23.2803  -14.2334 C   0  0  0  0  0  0  0  0  0  0  0  0
   18.1447  -24.5414  -14.3722 O   0  0  0  0  0  0  0  0  0  0  0  0
   18.4769  -22.3881  -15.0912 O   0  0  0  0  0  0  0  0  0  0  0  0
  2 13  1  0
  2  1  1  1
  3  2  1  0
  3  4  1  0
  4  5  2  0
  4 12  1  0
  5  6  1  0
  6  7  1  0
  7  8  2  0
  8  9  1  0
 10  9  2  0
 11 10  1  0
 12 11  2  0
 12  7  1  0
 13 21  1  0
 14 13  2  0
 16 15  1  0
 17 16  2  0
 18 16  1  0
 19 18  1  0
 20 19  1  6
 21 20  1  0
 22 26  1  0
 22 20  1  0
 23 22  2  0
 25 24  1  1
 25 26  1  0
 25 27  1  0
 27 29  2  0
 27 28  1  0
M  END
$$$$
