WQA.pdb
     RDKit          3D

 29 30  0  0  1  0  0  0  0  0999 V2000
   26.4769  -22.6837  -12.5441 N   0  0  0  0  0  0  0  0  0  0  0  0
   25.7769  -21.7605  -11.7056 C   0  0  1  0  0  0  0  0  0  0  0  0
   26.4675  -20.4159  -11.5719 C   0  0  0  0  0  0  0  0  0  0  0  0
   27.6158  -20.5453  -10.6447 C   0  0  0  0  0  0  0  0  0  0  0  0
   28.8815  -21.0315  -10.9382 C   0  0  0  0  0  0  0  0  0  0  0  0
   29.6525  -21.0219   -9.8327 N   0  0  0  0  0  0  0  0  0  0  0  0
   28.9282  -20.5394   -8.8096 C   0  0  0  0  0  0  0  0  0  0  0  0
   29.2439  -20.3197   -7.4789 C   0  0  0  0  0  0  0  0  0  0  0  0
   28.3106  -19.7961   -6.6050 C   0  0  0  0  0  0  0  0  0  0  0  0
   27.0535  -19.4923   -7.0739 C   0  0  0  0  0  0  0  0  0  0  0  0
   26.7435  -19.7168   -8.4150 C   0  0  0  0  0  0  0  0  0  0  0  0
   27.6550  -20.2381   -9.3047 C   0  0  0  0  0  0  0  0  0  0  0  0
   24.3656  -21.5945  -12.1385 C   0  0  0  0  0  0  0  0  0  0  0  0
   24.0515  -21.6302  -13.3752 O   0  0  0  0  0  0  0  0  0  0  0  0
   19.7870  -23.0630   -8.2153 N   0  0  0  0  0  0  0  0  0  0  0  0
   19.0109  -22.8674   -9.3811 C   0  0  0  0  0  0  0  0  0  0  0  0
   17.7922  -23.1506   -9.3672 O   0  0  0  0  0  0  0  0  0  0  0  0
   19.7432  -22.3234  -10.5587 C   0  0  0  0  0  0  0  0  0  0  0  0
   21.1554  -21.9870  -10.3317 C   0  0  0  0  0  0  0  0  0  0  0  0
   21.9271  -21.5967  -11.5581 C   0  0  2  0  0  0  0  0  0  0  0  0
   23.3414  -21.3951  -11.1761 N   0  0  0  0  0  0  0  0  0  0  0  0
   21.4987  -20.3488  -12.1833 C   0  0  0  0  0  0  0  0  0  0  0  0
   21.6447  -19.2465  -11.5622 O   0  0  0  0  0  0  0  0  0  0  0  0
   20.8567  -18.7344  -15.4483 C   0  0  0  0  0  0  0  0  0  0  0  0
   20.4980  -18.9122  -13.9901 C   0  0  2  0  0  0  0  0  0  0  0  0
   20.9105  -20.2065  -13.4722 N   0  0  0  0  0  0  0  0  0  0  0  0
   19.0230  -18.7709  -13.8778 C   0  0  0  0  0  0  0  0  0  0  0  0
   18.3855  -17.5339  -13.9254 O   0  0  0  0  0  0  0  0  0  0  0  0
   18.3376  -19.8197  -13.7348 O   0  0  0  0  0  0  0  0  0  0  0  0
  2 13  1  0
  2  1  1  6
  3  2  1  0
  3  4  1  0
  4  5  2  0
  4 12  1  0
  5  6  1  0
  6  7  1  0
  7  8  2  0
  8  9  1  0
 10  9  2  0
 11 10  1  0
 12 11  2  0
 12  7  1  0
 13 21  1  0
 14 13  2  0
 16 15  1  0
 17 16  2  0
 18 16  1  0
 19 18  1  0
 20 19  1  1
 21 20  1  0
 22 26  1  0
 22 20  1  0
 23 22  2  0
 25 24  1  6
 25 26  1  0
 25 27  1  0
 27 29  2  0
 27 28  1  0
M  END
$$$$
