WQA.pdb
     RDKit          3D

 29 30  0  0  1  0  0  0  0  0999 V2000
   28.4037  -21.1866  -10.7924 N   0  0  0  0  0  0  0  0  0  0  0  0
   27.0999  -21.0583  -10.2190 C   0  0  1  0  0  0  0  0  0  0  0  0
   27.0286  -20.0467   -9.0901 C   0  0  0  0  0  0  0  0  0  0  0  0
   28.0969  -20.3361   -8.1052 C   0  0  0  0  0  0  0  0  0  0  0  0
   29.2542  -21.0719   -8.3134 C   0  0  0  0  0  0  0  0  0  0  0  0
   29.9731  -21.1422   -7.1755 N   0  0  0  0  0  0  0  0  0  0  0  0
   29.3201  -20.4688   -6.2141 C   0  0  0  0  0  0  0  0  0  0  0  0
   29.6252  -20.2325   -4.8838 C   0  0  0  0  0  0  0  0  0  0  0  0
   28.7805  -19.4879   -4.0832 C   0  0  0  0  0  0  0  0  0  0  0  0
   27.6231  -18.9789   -4.6254 C   0  0  0  0  0  0  0  0  0  0  0  0
   27.3231  -19.2216   -5.9655 C   0  0  0  0  0  0  0  0  0  0  0  0
   28.1474  -19.9607   -6.7831 C   0  0  0  0  0  0  0  0  0  0  0  0
   26.0750  -20.7734  -11.2560 C   0  0  0  0  0  0  0  0  0  0  0  0
   26.1524  -19.7270  -11.9829 O   0  0  0  0  0  0  0  0  0  0  0  0
   24.1222  -25.3360  -14.6350 N   0  0  0  0  0  0  0  0  0  0  0  0
   23.1651  -24.4090  -15.1084 C   0  0  0  0  0  0  0  0  0  0  0  0
   22.4306  -24.7171  -16.0734 O   0  0  0  0  0  0  0  0  0  0  0  0
   23.1195  -23.1057  -14.3886 C   0  0  0  0  0  0  0  0  0  0  0  0
   24.0111  -22.9875  -13.2267 C   0  0  0  0  0  0  0  0  0  0  0  0
   24.1986  -21.5946  -12.7008 C   0  0  2  0  0  0  0  0  0  0  0  0
   24.9909  -21.6680  -11.4545 N   0  0  0  0  0  0  0  0  0  0  0  0
   22.9642  -20.8977  -12.3510 C   0  0  0  0  0  0  0  0  0  0  0  0
   22.4652  -21.0388  -11.1879 O   0  0  0  0  0  0  0  0  0  0  0  0
   20.8039  -18.0197  -13.4026 C   0  0  0  0  0  0  0  0  0  0  0  0
   21.0104  -19.3591  -12.7317 C   0  0  2  0  0  0  0  0  0  0  0  0
   22.2135  -20.0310  -13.1953 N   0  0  0  0  0  0  0  0  0  0  0  0
   19.8185  -20.1931  -13.0349 C   0  0  0  0  0  0  0  0  0  0  0  0
   18.5887  -19.9918  -12.4137 O   0  0  0  0  0  0  0  0  0  0  0  0
   19.9419  -21.1130  -13.8886 O   0  0  0  0  0  0  0  0  0  0  0  0
  2 13  1  0
  2  1  1  6
  3  2  1  0
  3  4  1  0
  4  5  2  0
  4 12  1  0
  5  6  1  0
  6  7  1  0
  7  8  2  0
  8  9  1  0
 10  9  2  0
 11 10  1  0
 12 11  2  0
 12  7  1  0
 13 21  1  0
 14 13  2  0
 16 15  1  0
 17 16  2  0
 18 16  1  0
 19 18  1  0
 20 19  1  1
 21 20  1  0
 22 26  1  0
 22 20  1  0
 23 22  2  0
 25 24  1  6
 25 26  1  0
 25 27  1  0
 27 29  2  0
 27 28  1  0
M  END
$$$$
