WQA.pdb
     RDKit          3D

 29 30  0  0  1  0  0  0  0  0999 V2000
   26.8654  -20.9422  -12.0182 N   0  0  0  0  0  0  0  0  0  0  0  0
   25.7822  -21.0514  -11.0908 C   0  0  1  0  0  0  0  0  0  0  0  0
   26.0213  -20.3137   -9.7865 C   0  0  0  0  0  0  0  0  0  0  0  0
   27.3606  -20.6684   -9.2617 C   0  0  0  0  0  0  0  0  0  0  0  0
   28.3243  -21.4518   -9.8798 C   0  0  0  0  0  0  0  0  0  0  0  0
   29.4055  -21.5747   -9.0847 N   0  0  0  0  0  0  0  0  0  0  0  0
   29.1833  -20.8898   -7.9508 C   0  0  0  0  0  0  0  0  0  0  0  0
   29.9654  -20.6914   -6.8249 C   0  0  0  0  0  0  0  0  0  0  0  0
   29.5096  -19.9240   -5.7702 C   0  0  0  0  0  0  0  0  0  0  0  0
   28.2602  -19.3537   -5.8503 C   0  0  0  0  0  0  0  0  0  0  0  0
   27.4789  -19.5587   -6.9872 C   0  0  0  0  0  0  0  0  0  0  0  0
   27.9099  -20.3194   -8.0502 C   0  0  0  0  0  0  0  0  0  0  0  0
   24.4945  -20.6409  -11.7074 C   0  0  0  0  0  0  0  0  0  0  0  0
   24.1864  -19.4073  -11.8203 O   0  0  0  0  0  0  0  0  0  0  0  0
   21.9444  -22.2002  -17.0205 N   0  0  0  0  0  0  0  0  0  0  0  0
   21.3936  -20.9884  -16.5434 C   0  0  0  0  0  0  0  0  0  0  0  0
   21.0489  -20.1031  -17.3576 O   0  0  0  0  0  0  0  0  0  0  0  0
   21.2714  -20.8749  -15.0632 C   0  0  0  0  0  0  0  0  0  0  0  0
   22.4623  -21.2606  -14.2937 C   0  0  0  0  0  0  0  0  0  0  0  0
   22.3099  -21.1997  -12.8020 C   0  0  2  0  0  0  0  0  0  0  0  0
   23.5854  -21.6213  -12.1840 N   0  0  0  0  0  0  0  0  0  0  0  0
   21.2861  -22.0833  -12.2517 C   0  0  0  0  0  0  0  0  0  0  0  0
   21.4937  -23.3388  -12.2013 O   0  0  0  0  0  0  0  0  0  0  0  0
   17.9963  -22.0203  -10.3644 C   0  0  0  0  0  0  0  0  0  0  0  0
   19.0640  -22.6606  -11.2228 C   0  0  2  0  0  0  0  0  0  0  0  0
   20.0192  -21.6909  -11.7336 N   0  0  0  0  0  0  0  0  0  0  0  0
   18.3756  -23.3346  -12.3542 C   0  0  0  0  0  0  0  0  0  0  0  0
   17.8013  -24.5973  -12.2333 O   0  0  0  0  0  0  0  0  0  0  0  0
   18.3179  -22.7270  -13.4577 O   0  0  0  0  0  0  0  0  0  0  0  0
  2 13  1  0
  2  1  1  6
  3  2  1  0
  3  4  1  0
  4  5  2  0
  4 12  1  0
  5  6  1  0
  6  7  1  0
  7  8  2  0
  8  9  1  0
 10  9  2  0
 11 10  1  0
 12 11  2  0
 12  7  1  0
 13 21  1  0
 14 13  2  0
 16 15  1  0
 17 16  2  0
 18 16  1  0
 19 18  1  0
 20 19  1  6
 21 20  1  0
 22 26  1  0
 22 20  1  0
 23 22  2  0
 25 24  1  1
 25 26  1  0
 25 27  1  0
 27 29  2  0
 27 28  1  0
M  END
$$$$
