TVR.pdb
     RDKit          3D

 26 25  0  0  1  0  0  0  0  0999 V2000
    6.2972  -15.0532   19.0750 C   0  0  0  0  0  0  0  0  0  0  0  0
    7.0141  -14.9292   20.4023 C   0  0  1  0  0  0  0  0  0  0  0  0
    8.2723  -15.5079   20.2933 O   0  0  0  0  0  0  0  0  0  0  0  0
    7.0797  -13.4839   20.8597 C   0  0  2  0  0  0  0  0  0  0  0  0
    7.6749  -12.6449   19.8641 N   0  0  0  0  0  0  0  0  0  0  0  0
    7.7457  -13.3646   22.1836 C   0  0  0  0  0  0  0  0  0  0  0  0
    8.9791  -13.1302   22.2727 O   0  0  0  0  0  0  0  0  0  0  0  0
    7.2451  -13.0992   27.1451 C   0  0  0  0  0  0  0  0  0  0  0  0
    6.6617  -13.0795   25.7667 C   0  0  1  0  0  0  0  0  0  0  0  0
    5.9481  -11.7607   25.5558 C   0  0  0  0  0  0  0  0  0  0  0  0
    7.6964  -13.3447   24.7220 C   0  0  2  0  0  0  0  0  0  0  0  0
    7.0424  -13.5056   23.4100 N   0  0  0  0  0  0  0  0  0  0  0  0
    8.3374  -14.6685   25.0300 C   0  0  0  0  0  0  0  0  0  0  0  0
    7.6867  -15.6861   24.6819 O   0  0  0  0  0  0  0  0  0  0  0  0
   16.3600  -16.3869   23.2497 N   0  0  0  0  0  0  0  0  0  0  0  0
   15.8989  -17.7046   23.5274 C   0  0  0  0  0  0  0  0  0  0  0  0
   16.6491  -18.6729   23.0914 N   0  0  0  0  0  0  0  0  0  0  0  0
   14.6905  -17.9394   24.2391 N   0  0  0  0  0  0  0  0  0  0  0  0
   13.7750  -16.7642   24.3152 C   0  0  0  0  0  0  0  0  0  0  0  0
   12.4932  -17.1385   24.9282 C   0  0  0  0  0  0  0  0  0  0  0  0
   11.4961  -16.0686   25.0393 C   0  0  0  0  0  0  0  0  0  0  0  0
   10.1978  -16.1799   25.6917 C   0  0  2  0  0  0  0  0  0  0  0  0
    9.5723  -14.8194   25.6556 N   0  0  0  0  0  0  0  0  0  0  0  0
    9.9748  -16.6691   27.0269 C   0  0  0  0  0  0  0  0  0  0  0  0
   10.0060  -17.9753   27.4988 O   0  0  0  0  0  0  0  0  0  0  0  0
    9.6921  -15.8296   27.9664 O   0  0  0  0  0  0  0  0  0  0  0  0
  2  1  1  6
  2  4  1  0
  3  2  1  0
  4  6  1  0
  4  5  1  6
  6  7  2  0
  9  8  1  1
 10  9  1  0
 11  9  1  0
 11 12  1  6
 12  6  1  0
 13 14  2  0
 13 11  1  0
 15 16  1  0
 16 17  2  0
 18 16  1  0
 19 18  1  0
 20 19  1  0
 20 21  1  0
 22 21  1  1
 22 23  1  0
 23 13  1  0
 24 22  1  0
 24 25  1  0
 26 24  2  0
M  END
$$$$
