TVR.pdb
     RDKit          3D

 26 25  0  0  1  0  0  0  0  0999 V2000
    5.6134  -15.0632   19.3225 C   0  0  0  0  0  0  0  0  0  0  0  0
    6.4559  -14.9672   20.5764 C   0  0  1  0  0  0  0  0  0  0  0  0
    7.5729  -15.7809   20.4349 O   0  0  0  0  0  0  0  0  0  0  0  0
    6.8239  -13.5276   20.8835 C   0  0  2  0  0  0  0  0  0  0  0  0
    7.4646  -12.9003   19.7675 N   0  0  0  0  0  0  0  0  0  0  0  0
    7.6218  -13.4275   22.1340 C   0  0  0  0  0  0  0  0  0  0  0  0
    8.8786  -13.4916   22.1108 O   0  0  0  0  0  0  0  0  0  0  0  0
    5.7775  -13.4544   25.9788 C   0  0  0  0  0  0  0  0  0  0  0  0
    6.9327  -12.5366   25.7256 C   0  0  1  0  0  0  0  0  0  0  0  0
    7.6775  -12.3168   27.0255 C   0  0  0  0  0  0  0  0  0  0  0  0
    7.8190  -13.0471   24.6365 C   0  0  2  0  0  0  0  0  0  0  0  0
    7.0246  -13.2561   23.4117 N   0  0  0  0  0  0  0  0  0  0  0  0
    8.3178  -14.4051   25.0430 C   0  0  0  0  0  0  0  0  0  0  0  0
    7.5420  -15.3660   24.8088 O   0  0  0  0  0  0  0  0  0  0  0  0
   15.4322  -15.6198   24.1349 N   0  0  0  0  0  0  0  0  0  0  0  0
   15.5054  -16.9785   24.5529 C   0  0  0  0  0  0  0  0  0  0  0  0
   16.6189  -17.3399   25.1186 N   0  0  0  0  0  0  0  0  0  0  0  0
   14.4224  -17.8795   24.3601 N   0  0  0  0  0  0  0  0  0  0  0  0
   13.1782  -17.2517   23.8280 C   0  0  0  0  0  0  0  0  0  0  0  0
   12.0865  -17.3425   24.8073 C   0  0  0  0  0  0  0  0  0  0  0  0
   11.1753  -16.1945   24.8637 C   0  0  0  0  0  0  0  0  0  0  0  0
   10.0322  -16.0586   25.7572 C   0  0  2  0  0  0  0  0  0  0  0  0
    9.5523  -14.6445   25.6412 N   0  0  0  0  0  0  0  0  0  0  0  0
   10.0371  -16.3474   27.1673 C   0  0  0  0  0  0  0  0  0  0  0  0
   10.0692  -15.4681   28.2423 O   0  0  0  0  0  0  0  0  0  0  0  0
   10.0196  -17.5779   27.5584 O   0  0  0  0  0  0  0  0  0  0  0  0
  2  1  1  6
  2  4  1  0
  3  2  1  0
  4  6  1  0
  4  5  1  6
  6  7  2  0
  9  8  1  1
 10  9  1  0
 11  9  1  0
 11 12  1  6
 12  6  1  0
 13 14  2  0
 13 11  1  0
 15 16  1  0
 16 17  2  0
 18 16  1  0
 19 18  1  0
 20 19  1  0
 20 21  1  0
 22 21  1  1
 22 23  1  0
 23 13  1  0
 24 22  1  0
 24 25  1  0
 26 24  2  0
M  END
$$$$
