TVR.pdb
     RDKit          3D

 26 25  0  0  1  0  0  0  0  0999 V2000
    6.5521  -14.0565   18.5972 C   0  0  0  0  0  0  0  0  0  0  0  0
    7.1383  -14.1855   19.9867 C   0  0  1  0  0  0  0  0  0  0  0  0
    8.3713  -14.8197   19.9011 O   0  0  0  0  0  0  0  0  0  0  0  0
    7.2285  -12.8356   20.6737 C   0  0  2  0  0  0  0  0  0  0  0  0
    7.9014  -11.8738   19.8544 N   0  0  0  0  0  0  0  0  0  0  0  0
    7.8295  -12.9564   22.0282 C   0  0  0  0  0  0  0  0  0  0  0  0
    9.0701  -12.8363   22.2026 O   0  0  0  0  0  0  0  0  0  0  0  0
    7.1308  -13.4966   26.9430 C   0  0  0  0  0  0  0  0  0  0  0  0
    6.6138  -13.1765   25.5751 C   0  0  1  0  0  0  0  0  0  0  0  0
    6.0632  -11.7659   25.5775 C   0  0  0  0  0  0  0  0  0  0  0  0
    7.6564  -13.3829   24.5251 C   0  0  2  0  0  0  0  0  0  0  0  0
    7.0530  -13.2108   23.1906 N   0  0  0  0  0  0  0  0  0  0  0  0
    8.1067  -14.8150   24.5941 C   0  0  0  0  0  0  0  0  0  0  0  0
    7.4951  -15.6179   23.8450 O   0  0  0  0  0  0  0  0  0  0  0  0
   14.1125  -14.8028   20.1477 N   0  0  0  0  0  0  0  0  0  0  0  0
   14.2183  -16.2052   20.3674 C   0  0  0  0  0  0  0  0  0  0  0  0
   15.0726  -16.8353   19.6165 N   0  0  0  0  0  0  0  0  0  0  0  0
   13.4342  -16.8693   21.3502 N   0  0  0  0  0  0  0  0  0  0  0  0
   12.4797  -15.9885   22.0838 C   0  0  0  0  0  0  0  0  0  0  0  0
   11.5773  -16.7835   22.9280 C   0  0  0  0  0  0  0  0  0  0  0  0
   10.5620  -16.0306   23.6720 C   0  0  0  0  0  0  0  0  0  0  0  0
    9.9646  -16.4312   24.9395 C   0  0  2  0  0  0  0  0  0  0  0  0
    9.1321  -15.2798   25.4137 N   0  0  0  0  0  0  0  0  0  0  0  0
   10.6904  -16.8823   26.0977 C   0  0  0  0  0  0  0  0  0  0  0  0
   11.2314  -18.1344   26.3607 O   0  0  0  0  0  0  0  0  0  0  0  0
   10.8956  -16.0602   27.0722 O   0  0  0  0  0  0  0  0  0  0  0  0
  2  1  1  6
  2  4  1  0
  3  2  1  0
  4  6  1  0
  4  5  1  6
  6  7  2  0
  9  8  1  1
 10  9  1  0
 11  9  1  0
 11 12  1  6
 12  6  1  0
 13 14  2  0
 13 11  1  0
 15 16  1  0
 16 17  2  0
 18 16  1  0
 19 18  1  0
 20 19  1  0
 20 21  1  0
 22 21  1  6
 22 23  1  0
 23 13  1  0
 24 22  1  0
 24 25  1  0
 26 24  2  0
M  END
$$$$
