TVR.pdb
     RDKit          3D

 26 25  0  0  1  0  0  0  0  0999 V2000
    6.9219  -14.1876   18.4382 C   0  0  0  0  0  0  0  0  0  0  0  0
    7.4226  -14.2946   19.8625 C   0  0  1  0  0  0  0  0  0  0  0  0
    8.6397  -14.9645   19.8657 O   0  0  0  0  0  0  0  0  0  0  0  0
    7.5119  -12.9295   20.5188 C   0  0  2  0  0  0  0  0  0  0  0  0
    8.3095  -12.0267   19.7454 N   0  0  0  0  0  0  0  0  0  0  0  0
    7.9698  -13.0355   21.9293 C   0  0  0  0  0  0  0  0  0  0  0  0
    9.1917  -12.9691   22.2236 O   0  0  0  0  0  0  0  0  0  0  0  0
    6.7808  -13.4663   26.7625 C   0  0  0  0  0  0  0  0  0  0  0  0
    6.3775  -13.2438   25.3382 C   0  0  1  0  0  0  0  0  0  0  0  0
    5.7202  -11.8846   25.2221 C   0  0  0  0  0  0  0  0  0  0  0  0
    7.5314  -13.4041   24.4028 C   0  0  2  0  0  0  0  0  0  0  0  0
    7.0707  -13.2155   23.0147 N   0  0  0  0  0  0  0  0  0  0  0  0
    8.0059  -14.8272   24.4917 C   0  0  0  0  0  0  0  0  0  0  0  0
    7.4792  -15.6315   23.6819 O   0  0  0  0  0  0  0  0  0  0  0  0
   13.4021  -14.8734   19.5564 N   0  0  0  0  0  0  0  0  0  0  0  0
   13.8547  -16.1214   20.0700 C   0  0  0  0  0  0  0  0  0  0  0  0
   14.7518  -16.7372   19.3582 N   0  0  0  0  0  0  0  0  0  0  0  0
   13.3517  -16.6554   21.2881 N   0  0  0  0  0  0  0  0  0  0  0  0
   12.2615  -15.8534   21.9155 C   0  0  0  0  0  0  0  0  0  0  0  0
   11.6928  -16.5587   23.0723 C   0  0  0  0  0  0  0  0  0  0  0  0
   10.5992  -15.8739   23.7696 C   0  0  0  0  0  0  0  0  0  0  0  0
    9.9044  -16.3656   24.9525 C   0  0  2  0  0  0  0  0  0  0  0  0
    8.9670  -15.2826   25.3906 N   0  0  0  0  0  0  0  0  0  0  0  0
   10.5379  -16.8348   26.1568 C   0  0  0  0  0  0  0  0  0  0  0  0
   11.1213  -18.0683   26.4173 O   0  0  0  0  0  0  0  0  0  0  0  0
   10.5993  -16.0525   27.1822 O   0  0  0  0  0  0  0  0  0  0  0  0
  2  1  1  6
  2  4  1  0
  3  2  1  0
  4  6  1  0
  4  5  1  6
  6  7  2  0
  9  8  1  1
 10  9  1  0
 11  9  1  0
 11 12  1  6
 12  6  1  0
 13 14  2  0
 13 11  1  0
 15 16  1  0
 16 17  2  0
 18 16  1  0
 19 18  1  0
 20 19  1  0
 20 21  1  0
 22 21  1  6
 22 23  1  0
 23 13  1  0
 24 22  1  0
 24 25  1  0
 26 24  2  0
M  END
$$$$
