TVR.pdb
     RDKit          3D

 26 25  0  0  1  0  0  0  0  0999 V2000
    6.1075  -19.7267   17.4279 C   0  0  0  0  0  0  0  0  0  0  0  0
    7.0378  -18.9127   18.3014 C   0  0  1  0  0  0  0  0  0  0  0  0
    8.1899  -19.6494   18.5459 O   0  0  0  0  0  0  0  0  0  0  0  0
    7.3362  -17.5616   17.6785 C   0  0  2  0  0  0  0  0  0  0  0  0
    7.9560  -17.7007   16.3956 N   0  0  0  0  0  0  0  0  0  0  0  0
    8.1187  -16.6999   18.6035 C   0  0  0  0  0  0  0  0  0  0  0  0
    9.3765  -16.7408   18.6234 O   0  0  0  0  0  0  0  0  0  0  0  0
    8.1236  -12.7850   21.6892 C   0  0  0  0  0  0  0  0  0  0  0  0
    7.4172  -13.7096   20.7474 C   0  0  1  0  0  0  0  0  0  0  0  0
    6.9201  -12.9127   19.5596 C   0  0  0  0  0  0  0  0  0  0  0  0
    8.2823  -14.8592   20.3446 C   0  0  2  0  0  0  0  0  0  0  0  0
    7.5049  -15.7916   19.5073 N   0  0  0  0  0  0  0  0  0  0  0  0
    8.6460  -15.6231   21.5865 C   0  0  0  0  0  0  0  0  0  0  0  0
    7.6955  -16.2010   22.1719 O   0  0  0  0  0  0  0  0  0  0  0  0
   15.3418  -18.8615   20.2272 N   0  0  0  0  0  0  0  0  0  0  0  0
   14.0512  -19.4106   20.4703 C   0  0  0  0  0  0  0  0  0  0  0  0
   13.6829  -20.3707   19.6746 N   0  0  0  0  0  0  0  0  0  0  0  0
   13.2212  -18.9327   21.5213 N   0  0  0  0  0  0  0  0  0  0  0  0
   11.8346  -19.4828   21.5179 C   0  0  0  0  0  0  0  0  0  0  0  0
   11.0601  -18.9558   22.6498 C   0  0  0  0  0  0  0  0  0  0  0  0
   11.2321  -17.5281   22.9383 C   0  0  0  0  0  0  0  0  0  0  0  0
   10.1684  -16.5977   23.2941 C   0  0  2  0  0  0  0  0  0  0  0  0
    9.9362  -15.7222   22.1011 N   0  0  0  0  0  0  0  0  0  0  0  0
   10.1827  -15.7080   24.4255 C   0  0  0  0  0  0  0  0  0  0  0  0
   10.2395  -14.3202   24.4491 O   0  0  0  0  0  0  0  0  0  0  0  0
   10.1492  -16.2039   25.6173 O   0  0  0  0  0  0  0  0  0  0  0  0
  2  1  1  6
  2  4  1  0
  3  2  1  0
  4  6  1  0
  4  5  1  6
  6  7  2  0
  9  8  1  1
 10  9  1  0
 11  9  1  0
 11 12  1  6
 12  6  1  0
 13 14  2  0
 13 11  1  0
 15 16  1  0
 16 17  2  0
 18 16  1  0
 19 18  1  0
 20 19  1  0
 20 21  1  0
 22 21  1  6
 22 23  1  0
 23 13  1  0
 24 22  1  0
 24 25  1  0
 26 24  2  0
M  END
$$$$
