TVR.pdb
     RDKit          3D

 26 25  0  0  1  0  0  0  0  0999 V2000
    8.2062  -16.9748   13.9317 C   0  0  0  0  0  0  0  0  0  0  0  0
    8.8177  -16.5547   15.2511 C   0  0  1  0  0  0  0  0  0  0  0  0
   10.1788  -16.8320   15.2282 O   0  0  0  0  0  0  0  0  0  0  0  0
    8.5294  -15.0957   15.5518 C   0  0  2  0  0  0  0  0  0  0  0  0
    8.9954  -14.2415   14.5018 N   0  0  0  0  0  0  0  0  0  0  0  0
    9.0549  -14.7037   16.8862 C   0  0  0  0  0  0  0  0  0  0  0  0
   10.2200  -14.2464   17.0181 O   0  0  0  0  0  0  0  0  0  0  0  0
    8.0531  -13.3807   21.5473 C   0  0  0  0  0  0  0  0  0  0  0  0
    7.6449  -13.7487   20.1548 C   0  0  1  0  0  0  0  0  0  0  0  0
    7.0632  -12.5265   19.4760 C   0  0  0  0  0  0  0  0  0  0  0  0
    8.7762  -14.3480   19.3847 C   0  0  2  0  0  0  0  0  0  0  0  0
    8.2867  -14.8193   18.0758 N   0  0  0  0  0  0  0  0  0  0  0  0
    9.2389  -15.5745   20.1195 C   0  0  0  0  0  0  0  0  0  0  0  0
    9.1133  -16.6624   19.5025 O   0  0  0  0  0  0  0  0  0  0  0  0
   16.0706  -13.4759   18.0716 N   0  0  0  0  0  0  0  0  0  0  0  0
   16.1084  -14.8904   17.9179 C   0  0  0  0  0  0  0  0  0  0  0  0
   17.0669  -15.3558   17.1727 N   0  0  0  0  0  0  0  0  0  0  0  0
   15.1525  -15.7364   18.5444 N   0  0  0  0  0  0  0  0  0  0  0  0
   14.1003  -15.0182   19.3205 C   0  0  0  0  0  0  0  0  0  0  0  0
   13.1253  -15.9646   19.8797 C   0  0  0  0  0  0  0  0  0  0  0  0
   12.0313  -15.3760   20.6595 C   0  0  0  0  0  0  0  0  0  0  0  0
   11.1726  -16.0910   21.5950 C   0  0  2  0  0  0  0  0  0  0  0  0
    9.7830  -15.5666   21.4013 N   0  0  0  0  0  0  0  0  0  0  0  0
   11.3633  -16.1546   23.0202 C   0  0  0  0  0  0  0  0  0  0  0  0
   10.8487  -15.3285   24.0115 O   0  0  0  0  0  0  0  0  0  0  0  0
   12.1151  -17.0808   23.5146 O   0  0  0  0  0  0  0  0  0  0  0  0
  2  1  1  6
  2  4  1  0
  3  2  1  0
  4  6  1  0
  4  5  1  6
  6  7  2  0
  9  8  1  1
 10  9  1  0
 11  9  1  0
 11 12  1  6
 12  6  1  0
 13 14  2  0
 13 11  1  0
 15 16  1  0
 16 17  2  0
 18 16  1  0
 19 18  1  0
 20 19  1  0
 20 21  1  0
 22 21  1  6
 22 23  1  0
 23 13  1  0
 24 22  1  0
 24 25  1  0
 26 24  2  0
M  END
$$$$
