TVR.pdb
     RDKit          3D

 26 25  0  0  1  0  0  0  0  0999 V2000
    6.2937  -15.3350   19.2102 C   0  0  0  0  0  0  0  0  0  0  0  0
    7.0352  -15.1539   20.5173 C   0  0  1  0  0  0  0  0  0  0  0  0
    8.2973  -15.7235   20.4048 O   0  0  0  0  0  0  0  0  0  0  0  0
    7.0941  -13.6918   20.9189 C   0  0  2  0  0  0  0  0  0  0  0  0
    7.6531  -12.8838   19.8777 N   0  0  0  0  0  0  0  0  0  0  0  0
    7.7918  -13.5152   22.2197 C   0  0  0  0  0  0  0  0  0  0  0  0
    9.0196  -13.2426   22.2678 O   0  0  0  0  0  0  0  0  0  0  0  0
    7.4593  -12.8520   27.1377 C   0  0  0  0  0  0  0  0  0  0  0  0
    6.8187  -13.0406   25.7979 C   0  0  1  0  0  0  0  0  0  0  0  0
    6.0689  -11.7771   25.4316 C   0  0  0  0  0  0  0  0  0  0  0  0
    7.8144  -13.4383   24.7574 C   0  0  2  0  0  0  0  0  0  0  0  0
    7.1265  -13.6411   23.4688 N   0  0  0  0  0  0  0  0  0  0  0  0
    8.3765  -14.7779   25.1418 C   0  0  0  0  0  0  0  0  0  0  0  0
    7.5553  -15.7291   25.1683 O   0  0  0  0  0  0  0  0  0  0  0  0
   13.4774  -16.3427   20.1030 N   0  0  0  0  0  0  0  0  0  0  0  0
   13.8639  -15.4897   21.1750 C   0  0  0  0  0  0  0  0  0  0  0  0
   14.7321  -14.5670   20.8825 N   0  0  0  0  0  0  0  0  0  0  0  0
   13.3286  -15.6435   22.4832 N   0  0  0  0  0  0  0  0  0  0  0  0
   12.4212  -16.8157   22.6502 C   0  0  0  0  0  0  0  0  0  0  0  0
   11.2088  -16.4376   23.3891 C   0  0  0  0  0  0  0  0  0  0  0  0
   11.2065  -16.7463   24.8230 C   0  0  0  0  0  0  0  0  0  0  0  0
   10.1450  -16.4115   25.7637 C   0  0  2  0  0  0  0  0  0  0  0  0
    9.7132  -15.0108   25.4553 N   0  0  0  0  0  0  0  0  0  0  0  0
   10.2520  -16.4727   27.1978 C   0  0  0  0  0  0  0  0  0  0  0  0
   10.3121  -17.5866   28.0258 O   0  0  0  0  0  0  0  0  0  0  0  0
   10.2935  -15.3734   27.8740 O   0  0  0  0  0  0  0  0  0  0  0  0
  2  1  1  6
  2  4  1  0
  3  2  1  0
  4  6  1  0
  4  5  1  6
  6  7  2  0
  9  8  1  1
 10  9  1  0
 11  9  1  0
 11 12  1  6
 12  6  1  0
 13 14  2  0
 13 11  1  0
 15 16  1  0
 16 17  2  0
 18 16  1  0
 19 18  1  0
 20 19  1  0
 20 21  1  0
 22 21  1  6
 22 23  1  0
 23 13  1  0
 24 22  1  0
 24 25  1  0
 26 24  2  0
M  END
$$$$
