TVR.pdb
     RDKit          3D

 26 25  0  0  1  0  0  0  0  0999 V2000
    7.1757  -19.6211   17.0184 C   0  0  0  0  0  0  0  0  0  0  0  0
    7.8358  -18.6647   17.9882 C   0  0  1  0  0  0  0  0  0  0  0  0
    9.0401  -19.2108   18.4140 O   0  0  0  0  0  0  0  0  0  0  0  0
    8.0100  -17.2889   17.3723 C   0  0  2  0  0  0  0  0  0  0  0  0
    8.7802  -17.3474   16.1670 N   0  0  0  0  0  0  0  0  0  0  0  0
    8.5586  -16.3200   18.3575 C   0  0  0  0  0  0  0  0  0  0  0  0
    9.7929  -16.0813   18.4173 O   0  0  0  0  0  0  0  0  0  0  0  0
    7.6395  -12.9077   21.8853 C   0  0  0  0  0  0  0  0  0  0  0  0
    7.2039  -13.7402   20.7199 C   0  0  1  0  0  0  0  0  0  0  0  0
    6.7204  -12.8229   19.6165 C   0  0  0  0  0  0  0  0  0  0  0  0
    8.2846  -14.6654   20.2637 C   0  0  2  0  0  0  0  0  0  0  0  0
    7.7367  -15.6152   19.2775 N   0  0  0  0  0  0  0  0  0  0  0  0
    8.7138  -15.4937   21.4418 C   0  0  0  0  0  0  0  0  0  0  0  0
    7.8916  -16.3621   21.8292 O   0  0  0  0  0  0  0  0  0  0  0  0
   12.5465  -21.9794   22.0725 N   0  0  0  0  0  0  0  0  0  0  0  0
   13.6015  -21.3274   22.7711 C   0  0  0  0  0  0  0  0  0  0  0  0
   14.7608  -21.9144   22.7264 N   0  0  0  0  0  0  0  0  0  0  0  0
   13.3923  -20.1085   23.4728 N   0  0  0  0  0  0  0  0  0  0  0  0
   12.8302  -19.0025   22.6444 C   0  0  0  0  0  0  0  0  0  0  0  0
   12.4124  -17.8759   23.4901 C   0  0  0  0  0  0  0  0  0  0  0  0
   11.6753  -16.8028   22.8147 C   0  0  0  0  0  0  0  0  0  0  0  0
   10.3163  -16.3779   23.1251 C   0  0  2  0  0  0  0  0  0  0  0  0
    9.9331  -15.3552   22.1000 N   0  0  0  0  0  0  0  0  0  0  0  0
    9.8786  -15.8396   24.3861 C   0  0  0  0  0  0  0  0  0  0  0  0
    9.5162  -16.5103   25.5475 O   0  0  0  0  0  0  0  0  0  0  0  0
    9.7771  -14.5596   24.5236 O   0  0  0  0  0  0  0  0  0  0  0  0
  2  1  1  6
  2  4  1  0
  3  2  1  0
  4  6  1  0
  4  5  1  6
  6  7  2  0
  9  8  1  1
 10  9  1  0
 11  9  1  0
 11 12  1  6
 12  6  1  0
 13 14  2  0
 13 11  1  0
 15 16  1  0
 16 17  2  0
 18 16  1  0
 19 18  1  0
 20 19  1  0
 20 21  1  0
 22 21  1  1
 22 23  1  0
 23 13  1  0
 24 22  1  0
 24 25  1  0
 26 24  2  0
M  END
$$$$
