TVR.pdb
     RDKit          3D

 26 25  0  0  1  0  0  0  0  0999 V2000
    6.5233  -15.3397   19.4263 C   0  0  0  0  0  0  0  0  0  0  0  0
    7.1688  -15.2040   20.7887 C   0  0  1  0  0  0  0  0  0  0  0  0
    8.3383  -15.9534   20.8125 O   0  0  0  0  0  0  0  0  0  0  0  0
    7.4075  -13.7478   21.1423 C   0  0  2  0  0  0  0  0  0  0  0  0
    8.2104  -13.0928   20.1546 N   0  0  0  0  0  0  0  0  0  0  0  0
    7.9592  -13.6075   22.5157 C   0  0  0  0  0  0  0  0  0  0  0  0
    9.2009  -13.5665   22.7171 O   0  0  0  0  0  0  0  0  0  0  0  0
    7.0681  -12.7090   27.3465 C   0  0  0  0  0  0  0  0  0  0  0  0
    6.5875  -12.8526   25.9361 C   0  0  1  0  0  0  0  0  0  0  0  0
    5.9636  -11.5450   25.4958 C   0  0  0  0  0  0  0  0  0  0  0  0
    7.6788  -13.3037   25.0208 C   0  0  2  0  0  0  0  0  0  0  0  0
    7.1322  -13.5125   23.6672 N   0  0  0  0  0  0  0  0  0  0  0  0
    8.1494  -14.6517   25.4896 C   0  0  0  0  0  0  0  0  0  0  0  0
    7.3463  -15.6029   25.3156 O   0  0  0  0  0  0  0  0  0  0  0  0
   12.9184  -20.6816   23.3427 N   0  0  0  0  0  0  0  0  0  0  0  0
   12.3295  -19.6091   22.6153 C   0  0  0  0  0  0  0  0  0  0  0  0
   12.0876  -19.8398   21.3588 N   0  0  0  0  0  0  0  0  0  0  0  0
   12.0271  -18.3643   23.2324 N   0  0  0  0  0  0  0  0  0  0  0  0
   12.5662  -18.2080   24.6145 C   0  0  0  0  0  0  0  0  0  0  0  0
   11.4767  -18.0271   25.5835 C   0  0  0  0  0  0  0  0  0  0  0  0
   10.7916  -16.7307   25.5471 C   0  0  0  0  0  0  0  0  0  0  0  0
    9.7411  -16.2976   26.4596 C   0  0  2  0  0  0  0  0  0  0  0  0
    9.3864  -14.8921   26.0823 N   0  0  0  0  0  0  0  0  0  0  0  0
    9.8321  -16.2976   27.8960 C   0  0  0  0  0  0  0  0  0  0  0  0
    9.8271  -17.3734   28.7749 O   0  0  0  0  0  0  0  0  0  0  0  0
    9.9246  -15.1717   28.5215 O   0  0  0  0  0  0  0  0  0  0  0  0
  2  1  1  6
  2  4  1  0
  3  2  1  0
  4  6  1  0
  4  5  1  6
  6  7  2  0
  9  8  1  1
 10  9  1  0
 11  9  1  0
 11 12  1  6
 12  6  1  0
 13 14  2  0
 13 11  1  0
 15 16  1  0
 16 17  2  0
 18 16  1  0
 19 18  1  0
 20 19  1  0
 20 21  1  0
 22 21  1  6
 22 23  1  0
 23 13  1  0
 24 22  1  0
 24 25  1  0
 26 24  2  0
M  END
$$$$
