TVR.pdb
     RDKit          3D

 26 25  0  0  1  0  0  0  0  0999 V2000
    7.2582  -19.7359   20.7103 C   0  0  0  0  0  0  0  0  0  0  0  0
    6.9724  -19.8216   19.2263 C   0  0  1  0  0  0  0  0  0  0  0  0
    6.0138  -20.8025   19.0055 O   0  0  0  0  0  0  0  0  0  0  0  0
    6.5600  -18.4731   18.6663 C   0  0  2  0  0  0  0  0  0  0  0  0
    6.0784  -18.5878   17.3230 N   0  0  0  0  0  0  0  0  0  0  0  0
    7.6524  -17.4737   18.8009 C   0  0  0  0  0  0  0  0  0  0  0  0
    8.7082  -17.5685   18.1224 O   0  0  0  0  0  0  0  0  0  0  0  0
    9.0869  -13.0012   20.4263 C   0  0  0  0  0  0  0  0  0  0  0  0
    8.0377  -14.0334   20.1534 C   0  0  1  0  0  0  0  0  0  0  0  0
    7.0982  -13.5071   19.0889 C   0  0  0  0  0  0  0  0  0  0  0  0
    8.6378  -15.3517   19.7871 C   0  0  2  0  0  0  0  0  0  0  0  0
    7.5734  -16.3678   19.6893 N   0  0  0  0  0  0  0  0  0  0  0  0
    9.5239  -15.7884   20.9196 C   0  0  0  0  0  0  0  0  0  0  0  0
    9.3089  -15.2351   22.0276 O   0  0  0  0  0  0  0  0  0  0  0  0
   16.8335  -14.0013   19.1328 N   0  0  0  0  0  0  0  0  0  0  0  0
   15.9402  -14.5299   18.1588 C   0  0  0  0  0  0  0  0  0  0  0  0
   16.4938  -15.1059   17.1330 N   0  0  0  0  0  0  0  0  0  0  0  0
   14.5294  -14.4301   18.3058 N   0  0  0  0  0  0  0  0  0  0  0  0
   14.0810  -13.7378   19.5487 C   0  0  0  0  0  0  0  0  0  0  0  0
   13.7316  -14.7111   20.5925 C   0  0  0  0  0  0  0  0  0  0  0  0
   12.4798  -15.4486   20.3917 C   0  0  0  0  0  0  0  0  0  0  0  0
   11.8982  -16.4072   21.3227 C   0  0  2  0  0  0  0  0  0  0  0  0
   10.5320  -16.7425   20.8084 N   0  0  0  0  0  0  0  0  0  0  0  0
   11.7354  -16.2015   22.7379 C   0  0  0  0  0  0  0  0  0  0  0  0
   12.5979  -16.5287   23.7766 O   0  0  0  0  0  0  0  0  0  0  0  0
   10.6534  -15.6475   23.1736 O   0  0  0  0  0  0  0  0  0  0  0  0
  2  1  1  1
  2  4  1  0
  3  2  1  0
  4  6  1  0
  4  5  1  6
  6  7  2  0
  9  8  1  6
 10  9  1  0
 11  9  1  0
 11 12  1  1
 12  6  1  0
 13 14  2  0
 13 11  1  0
 15 16  1  0
 16 17  2  0
 18 16  1  0
 19 18  1  0
 20 19  1  0
 20 21  1  0
 22 21  1  6
 22 23  1  0
 23 13  1  0
 24 22  1  0
 24 25  1  0
 26 24  2  0
M  END
$$$$
