TVR.pdb
     RDKit          3D

 26 25  0  0  1  0  0  0  0  0999 V2000
    6.3099  -15.6655   19.9840 C   0  0  0  0  0  0  0  0  0  0  0  0
    7.0170  -15.3058   21.2731 C   0  0  1  0  0  0  0  0  0  0  0  0
    8.3262  -15.7668   21.2155 O   0  0  0  0  0  0  0  0  0  0  0  0
    6.9400  -13.8151   21.5458 C   0  0  2  0  0  0  0  0  0  0  0  0
    7.4207  -13.0527   20.4335 N   0  0  0  0  0  0  0  0  0  0  0  0
    7.6196  -13.4619   22.8201 C   0  0  0  0  0  0  0  0  0  0  0  0
    8.8421  -13.1639   22.8448 O   0  0  0  0  0  0  0  0  0  0  0  0
    7.2918  -12.8655   27.7703 C   0  0  0  0  0  0  0  0  0  0  0  0
    6.6689  -12.8667   26.4091 C   0  0  1  0  0  0  0  0  0  0  0  0
    6.0500  -11.5087   26.1527 C   0  0  0  0  0  0  0  0  0  0  0  0
    7.6477  -13.2594   25.3508 C   0  0  2  0  0  0  0  0  0  0  0  0
    6.9418  -13.4394   24.0686 N   0  0  0  0  0  0  0  0  0  0  0  0
    8.2028  -14.6087   25.7106 C   0  0  0  0  0  0  0  0  0  0  0  0
    7.4916  -15.5955   25.3937 O   0  0  0  0  0  0  0  0  0  0  0  0
   15.0389  -15.7339   22.8948 N   0  0  0  0  0  0  0  0  0  0  0  0
   15.2730  -16.7357   23.8784 C   0  0  0  0  0  0  0  0  0  0  0  0
   16.5128  -16.9079   24.2304 N   0  0  0  0  0  0  0  0  0  0  0  0
   14.2105  -17.4976   24.4374 N   0  0  0  0  0  0  0  0  0  0  0  0
   12.8528  -16.9138   24.2345 C   0  0  0  0  0  0  0  0  0  0  0  0
   11.9649  -17.2526   25.3552 C   0  0  0  0  0  0  0  0  0  0  0  0
   10.6582  -16.5865   25.3652 C   0  0  0  0  0  0  0  0  0  0  0  0
    9.8996  -16.2189   26.5539 C   0  0  2  0  0  0  0  0  0  0  0  0
    9.4224  -14.8138   26.3508 N   0  0  0  0  0  0  0  0  0  0  0  0
   10.3933  -16.2646   27.9052 C   0  0  0  0  0  0  0  0  0  0  0  0
   10.6557  -17.3690   28.7060 O   0  0  0  0  0  0  0  0  0  0  0  0
   10.6396  -15.1582   28.5237 O   0  0  0  0  0  0  0  0  0  0  0  0
  2  1  1  6
  2  4  1  0
  3  2  1  0
  4  6  1  0
  4  5  1  6
  6  7  2  0
  9  8  1  1
 10  9  1  0
 11  9  1  0
 11 12  1  6
 12  6  1  0
 13 14  2  0
 13 11  1  0
 15 16  1  0
 16 17  2  0
 18 16  1  0
 19 18  1  0
 20 19  1  0
 20 21  1  0
 22 21  1  6
 22 23  1  0
 23 13  1  0
 24 22  1  0
 24 25  1  0
 26 24  2  0
M  END
$$$$
