TVR.pdb
     RDKit          3D

 26 25  0  0  1  0  0  0  0  0999 V2000
    8.1654  -19.4458   16.1525 C   0  0  0  0  0  0  0  0  0  0  0  0
    8.6280  -18.5078   17.2467 C   0  0  1  0  0  0  0  0  0  0  0  0
    9.8430  -18.9592   17.7466 O   0  0  0  0  0  0  0  0  0  0  0  0
    8.7030  -17.0762   16.7493 C   0  0  2  0  0  0  0  0  0  0  0  0
    9.5334  -16.9669   15.5884 N   0  0  0  0  0  0  0  0  0  0  0  0
    9.1099  -16.1461   17.8355 C   0  0  0  0  0  0  0  0  0  0  0  0
   10.2912  -15.7201   17.9189 O   0  0  0  0  0  0  0  0  0  0  0  0
    7.6806  -13.2846   21.6727 C   0  0  0  0  0  0  0  0  0  0  0  0
    7.3677  -14.0886   20.4493 C   0  0  1  0  0  0  0  0  0  0  0  0
    6.6396  -13.2067   19.4568 C   0  0  0  0  0  0  0  0  0  0  0  0
    8.5933  -14.7148   19.8680 C   0  0  2  0  0  0  0  0  0  0  0  0
    8.2049  -15.6882   18.8305 N   0  0  0  0  0  0  0  0  0  0  0  0
    9.2656  -15.5105   20.9511 C   0  0  0  0  0  0  0  0  0  0  0  0
    8.7884  -16.6531   21.1675 O   0  0  0  0  0  0  0  0  0  0  0  0
   17.6341  -15.4055   22.5585 N   0  0  0  0  0  0  0  0  0  0  0  0
   17.2888  -16.5788   23.2867 C   0  0  0  0  0  0  0  0  0  0  0  0
   18.2851  -17.2733   23.7509 N   0  0  0  0  0  0  0  0  0  0  0  0
   15.9345  -16.9612   23.4897 N   0  0  0  0  0  0  0  0  0  0  0  0
   14.9335  -16.0934   22.8040 C   0  0  0  0  0  0  0  0  0  0  0  0
   13.5669  -16.5686   23.0596 C   0  0  0  0  0  0  0  0  0  0  0  0
   12.4926  -15.8313   22.3862 C   0  0  0  0  0  0  0  0  0  0  0  0
   11.0639  -16.0384   22.5854 C   0  0  2  0  0  0  0  0  0  0  0  0
   10.3529  -15.0637   21.6977 N   0  0  0  0  0  0  0  0  0  0  0  0
   10.3805  -15.9739   23.8505 C   0  0  0  0  0  0  0  0  0  0  0  0
   10.3013  -16.9311   24.8541 O   0  0  0  0  0  0  0  0  0  0  0  0
    9.7199  -14.9073   24.1561 O   0  0  0  0  0  0  0  0  0  0  0  0
  2  1  1  6
  2  4  1  0
  3  2  1  0
  4  6  1  0
  4  5  1  6
  6  7  2  0
  9  8  1  1
 10  9  1  0
 11  9  1  0
 11 12  1  6
 12  6  1  0
 13 14  2  0
 13 11  1  0
 15 16  1  0
 16 17  2  0
 18 16  1  0
 19 18  1  0
 20 19  1  0
 20 21  1  0
 22 21  1  1
 22 23  1  0
 23 13  1  0
 24 22  1  0
 24 25  1  0
 26 24  2  0
M  END
$$$$
