DEI.pdb
     RDKit          3D

 26 25  0  0  1  0  0  0  0  0999 V2000
   14.9353  -10.6045  -15.5409 N   0  0  0  0  0  0  0  0  0  0  0  0
   16.2874  -11.0630  -15.5818 C   0  0  1  0  0  0  0  0  0  0  0  0
   16.4959  -12.1210  -16.6323 C   0  0  0  0  0  0  0  0  0  0  0  0
   15.7846  -13.3488  -16.2360 C   0  0  0  0  0  0  0  0  0  0  0  0
   14.6803  -13.6952  -16.7525 O   0  0  0  0  0  0  0  0  0  0  0  0
   17.2567   -9.9273  -15.7589 C   0  0  0  0  0  0  0  0  0  0  0  0
   18.4704  -10.1451  -16.0036 O   0  0  0  0  0  0  0  0  0  0  0  0
   16.3304  -14.1644  -15.2648 O   0  0  0  0  0  0  0  0  0  0  0  0
   16.8543   -8.5666  -15.6597 N   0  0  0  0  0  0  0  0  0  0  0  0
   17.7750   -7.4694  -15.8859 C   0  0  1  0  0  0  0  0  0  0  0  0
   17.0558   -6.1438  -15.9960 C   0  0  0  0  0  0  0  0  0  0  0  0
   16.3708   -5.7552  -14.7207 C   0  0  0  0  0  0  0  0  0  0  0  0
   15.8542   -4.3741  -14.8563 C   0  0  0  0  0  0  0  0  0  0  0  0
   14.7075   -4.1695  -15.3202 O   0  0  0  0  0  0  0  0  0  0  0  0
   18.8433   -7.4237  -14.8594 C   0  0  0  0  0  0  0  0  0  0  0  0
   18.5036   -7.6767  -13.6749 O   0  0  0  0  0  0  0  0  0  0  0  0
   16.6056   -3.2711  -14.4820 O   0  0  0  0  0  0  0  0  0  0  0  0
   23.9772   -9.9447  -13.5910 C   0  0  0  0  0  0  0  0  0  0  0  0
   23.2277   -8.6508  -13.4425 C   0  0  0  0  0  0  0  0  0  0  0  0
   22.0864   -8.4907  -14.3950 C   0  0  2  0  0  0  0  0  0  0  0  0
   22.6585   -8.4298  -15.7942 C   0  0  0  0  0  0  0  0  0  0  0  0
   21.2756   -7.2418  -14.1728 C   0  0  2  0  0  0  0  0  0  0  0  0
   20.1864   -7.1212  -15.1213 N   0  0  0  0  0  0  0  0  0  0  0  0
   22.1877   -6.0927  -14.3782 C   0  0  0  0  0  0  0  0  0  0  0  0
   22.1954   -5.5034  -15.4814 O   0  0  0  0  0  0  0  0  0  0  0  0
   23.0420   -5.6330  -13.3990 O   0  0  0  0  0  0  0  0  0  0  0  0
  2  1  1  6
  3  2  1  0
  3  4  1  0
  4  8  1  0
  4  5  2  0
  6  2  1  0
  6  7  2  0
  9  6  1  0
 10  9  1  0
 10 11  1  1
 12 11  1  0
 12 13  1  0
 13 14  2  0
 15 10  1  0
 15 23  1  0
 16 15  2  0
 17 13  1  0
 19 18  1  0
 20 19  1  0
 20 21  1  6
 22 23  1  6
 22 20  1  0
 24 22  1  0
 25 24  2  0
 26 24  1  0
M  END
$$$$
