DEI.pdb
     RDKit          3D

 26 25  0  0  1  0  0  0  0  0999 V2000
   17.7391  -12.1295  -18.1297 N   0  0  0  0  0  0  0  0  0  0  0  0
   18.4296  -11.7174  -16.9492 C   0  0  1  0  0  0  0  0  0  0  0  0
   19.6878  -12.5122  -16.7215 C   0  0  0  0  0  0  0  0  0  0  0  0
   19.3393  -13.8230  -16.1463 C   0  0  0  0  0  0  0  0  0  0  0  0
   18.3133  -14.0006  -15.4237 O   0  0  0  0  0  0  0  0  0  0  0  0
   18.7168  -10.2415  -16.9572 C   0  0  0  0  0  0  0  0  0  0  0  0
   19.5734   -9.7536  -17.7373 O   0  0  0  0  0  0  0  0  0  0  0  0
   20.1529  -14.9102  -16.3957 O   0  0  0  0  0  0  0  0  0  0  0  0
   18.0424   -9.3346  -16.0935 N   0  0  0  0  0  0  0  0  0  0  0  0
   18.3660   -7.9218  -16.0506 C   0  0  1  0  0  0  0  0  0  0  0  0
   17.3106   -7.1239  -15.3184 C   0  0  0  0  0  0  0  0  0  0  0  0
   16.0541   -6.9636  -16.1196 C   0  0  0  0  0  0  0  0  0  0  0  0
   14.9120   -7.4720  -15.3258 C   0  0  0  0  0  0  0  0  0  0  0  0
   15.0992   -7.9531  -14.1832 O   0  0  0  0  0  0  0  0  0  0  0  0
   19.7161   -7.6808  -15.4882 C   0  0  0  0  0  0  0  0  0  0  0  0
   20.0419   -8.3625  -14.4823 O   0  0  0  0  0  0  0  0  0  0  0  0
   13.6125   -7.4366  -15.8067 O   0  0  0  0  0  0  0  0  0  0  0  0
   25.1979   -7.6680  -16.0274 C   0  0  0  0  0  0  0  0  0  0  0  0
   24.4108   -6.3998  -16.2017 C   0  0  0  0  0  0  0  0  0  0  0  0
   22.9985   -6.6109  -16.6445 C   0  0  2  0  0  0  0  0  0  0  0  0
   22.6501   -5.5060  -17.6174 C   0  0  0  0  0  0  0  0  0  0  0  0
   21.9944   -6.5726  -15.5233 C   0  0  2  0  0  0  0  0  0  0  0  0
   20.6375   -6.7563  -15.9981 N   0  0  0  0  0  0  0  0  0  0  0  0
   22.0839   -5.2272  -14.9095 C   0  0  0  0  0  0  0  0  0  0  0  0
   23.0536   -4.9528  -14.1687 O   0  0  0  0  0  0  0  0  0  0  0  0
   21.1373   -4.2471  -15.1172 O   0  0  0  0  0  0  0  0  0  0  0  0
  2  1  1  6
  3  2  1  0
  3  4  1  0
  4  8  1  0
  4  5  2  0
  6  2  1  0
  6  7  2  0
  9  6  1  0
 10  9  1  0
 10 11  1  1
 12 11  1  0
 12 13  1  0
 13 14  2  0
 15 10  1  0
 15 23  1  0
 16 15  2  0
 17 13  1  0
 19 18  1  0
 20 19  1  0
 20 21  1  6
 22 23  1  6
 22 20  1  0
 24 22  1  0
 25 24  2  0
 26 24  1  0
M  END
$$$$
