DEI.pdb
     RDKit          3D

 26 25  0  0  1  0  0  0  0  0999 V2000
   15.6316   -3.2364  -14.9545 N   0  0  0  0  0  0  0  0  0  0  0  0
   16.9117   -3.4699  -15.5434 C   0  0  1  0  0  0  0  0  0  0  0  0
   17.9741   -2.5737  -14.9648 C   0  0  0  0  0  0  0  0  0  0  0  0
   17.6753   -1.1741  -15.3148 C   0  0  0  0  0  0  0  0  0  0  0  0
   17.4843   -0.7947  -16.5088 O   0  0  0  0  0  0  0  0  0  0  0  0
   17.3141   -4.9155  -15.4489 C   0  0  0  0  0  0  0  0  0  0  0  0
   17.1095   -5.5765  -14.3994 O   0  0  0  0  0  0  0  0  0  0  0  0
   17.5970   -0.2272  -14.3131 O   0  0  0  0  0  0  0  0  0  0  0  0
   17.9387   -5.5993  -16.5286 N   0  0  0  0  0  0  0  0  0  0  0  0
   18.3217   -6.9952  -16.4419 C   0  0  1  0  0  0  0  0  0  0  0  0
   17.9661   -7.7563  -17.6992 C   0  0  0  0  0  0  0  0  0  0  0  0
   18.3590   -9.2009  -17.6257 C   0  0  0  0  0  0  0  0  0  0  0  0
   17.1431  -10.0352  -17.7611 C   0  0  0  0  0  0  0  0  0  0  0  0
   16.9314  -10.6797  -18.8155 O   0  0  0  0  0  0  0  0  0  0  0  0
   19.7546   -7.1548  -16.0978 C   0  0  0  0  0  0  0  0  0  0  0  0
   20.5521   -6.3110  -16.5821 O   0  0  0  0  0  0  0  0  0  0  0  0
   16.2065  -10.1350  -16.7442 O   0  0  0  0  0  0  0  0  0  0  0  0
   23.4719   -9.3508  -12.7469 C   0  0  0  0  0  0  0  0  0  0  0  0
   23.2561  -10.1049  -14.0287 C   0  0  0  0  0  0  0  0  0  0  0  0
   21.9203   -9.8729  -14.6589 C   0  0  2  0  0  0  0  0  0  0  0  0
   21.8436  -10.7272  -15.9051 C   0  0  0  0  0  0  0  0  0  0  0  0
   21.6752   -8.4435  -15.0631 C   0  0  2  0  0  0  0  0  0  0  0  0
   20.2686   -8.1702  -15.2802 N   0  0  0  0  0  0  0  0  0  0  0  0
   22.3841   -8.2303  -16.3463 C   0  0  0  0  0  0  0  0  0  0  0  0
   21.8540   -8.6133  -17.4125 O   0  0  0  0  0  0  0  0  0  0  0  0
   23.6180   -7.6211  -16.4257 O   0  0  0  0  0  0  0  0  0  0  0  0
  2  1  1  1
  3  2  1  0
  3  4  1  0
  4  8  1  0
  4  5  2  0
  6  2  1  0
  6  7  2  0
  9  6  1  0
 10  9  1  0
 10 11  1  6
 12 11  1  0
 12 13  1  0
 13 14  2  0
 15 10  1  0
 15 23  1  0
 16 15  2  0
 17 13  1  0
 19 18  1  0
 20 19  1  0
 20 21  1  6
 22 23  1  6
 22 20  1  0
 24 22  1  0
 25 24  2  0
 26 24  1  0
M  END
$$$$
