DEI.pdb
     RDKit          3D

 26 25  0  0  1  0  0  0  0  0999 V2000
   18.9991  -14.9091  -17.9929 N   0  0  0  0  0  0  0  0  0  0  0  0
   18.1353  -13.9167  -17.4370 C   0  0  1  0  0  0  0  0  0  0  0  0
   17.5643  -14.3407  -16.1101 C   0  0  0  0  0  0  0  0  0  0  0  0
   16.5381  -15.3748  -16.3288 C   0  0  0  0  0  0  0  0  0  0  0  0
   15.8610  -15.4497  -17.3975 O   0  0  0  0  0  0  0  0  0  0  0  0
   18.8165  -12.5805  -17.3299 C   0  0  0  0  0  0  0  0  0  0  0  0
   20.0690  -12.4968  -17.2623 O   0  0  0  0  0  0  0  0  0  0  0  0
   16.2932  -16.3061  -15.3394 O   0  0  0  0  0  0  0  0  0  0  0  0
   18.0874  -11.3596  -17.3001 N   0  0  0  0  0  0  0  0  0  0  0  0
   18.7439  -10.0677  -17.2501 C   0  0  1  0  0  0  0  0  0  0  0  0
   17.8065   -8.9439  -17.6310 C   0  0  0  0  0  0  0  0  0  0  0  0
   18.4877   -7.6089  -17.6457 C   0  0  0  0  0  0  0  0  0  0  0  0
   17.4969   -6.5699  -18.0086 C   0  0  0  0  0  0  0  0  0  0  0  0
   17.8433   -5.5739  -18.6869 O   0  0  0  0  0  0  0  0  0  0  0  0
   19.3799   -9.8214  -15.9340 C   0  0  0  0  0  0  0  0  0  0  0  0
   18.6933  -10.0857  -14.9136 O   0  0  0  0  0  0  0  0  0  0  0  0
   16.1694   -6.6561  -17.6193 O   0  0  0  0  0  0  0  0  0  0  0  0
   24.8553  -10.3948  -15.3782 C   0  0  0  0  0  0  0  0  0  0  0  0
   23.6066   -9.5608  -15.4366 C   0  0  0  0  0  0  0  0  0  0  0  0
   22.6159   -9.8641  -14.3587 C   0  0  2  0  0  0  0  0  0  0  0  0
   22.2889  -11.3393  -14.4347 C   0  0  0  0  0  0  0  0  0  0  0  0
   21.3257   -9.0981  -14.4813 C   0  0  2  0  0  0  0  0  0  0  0  0
   20.6769   -9.3208  -15.7579 N   0  0  0  0  0  0  0  0  0  0  0  0
   21.6675   -7.6595  -14.3888 C   0  0  0  0  0  0  0  0  0  0  0  0
   22.0193   -7.1807  -13.2883 O   0  0  0  0  0  0  0  0  0  0  0  0
   21.6164   -6.8087  -15.4721 O   0  0  0  0  0  0  0  0  0  0  0  0
  2  1  1  1
  3  2  1  0
  3  4  1  0
  4  8  1  0
  4  5  2  0
  6  2  1  0
  6  7  2  0
  9  6  1  0
 10  9  1  0
 10 11  1  1
 12 11  1  0
 12 13  1  0
 13 14  2  0
 15 10  1  0
 15 23  1  0
 16 15  2  0
 17 13  1  0
 19 18  1  0
 20 19  1  0
 20 21  1  6
 22 23  1  6
 22 20  1  0
 24 22  1  0
 25 24  2  0
 26 24  1  0
M  END
$$$$
