DEI.pdb
     RDKit          3D

 26 25  0  0  1  0  0  0  0  0999 V2000
   21.4708  -26.8933  -15.1655 N   0  0  0  0  0  0  0  0  0  0  0  0
   21.8846  -26.7655  -13.8044 C   0  0  1  0  0  0  0  0  0  0  0  0
   22.2409  -28.0943  -13.1929 C   0  0  0  0  0  0  0  0  0  0  0  0
   21.0795  -28.9969  -13.2770 C   0  0  0  0  0  0  0  0  0  0  0  0
   21.1931  -30.2591  -13.2605 O   0  0  0  0  0  0  0  0  0  0  0  0
   23.0119  -25.7819  -13.6538 C   0  0  0  0  0  0  0  0  0  0  0  0
   23.8789  -25.9246  -12.7549 O   0  0  0  0  0  0  0  0  0  0  0  0
   19.8111  -28.4613  -13.3781 O   0  0  0  0  0  0  0  0  0  0  0  0
   23.1521  -24.6548  -14.5101 N   0  0  0  0  0  0  0  0  0  0  0  0
   24.0918  -23.5856  -14.2337 C   0  0  1  0  0  0  0  0  0  0  0  0
   24.3087  -22.7000  -15.4400 C   0  0  0  0  0  0  0  0  0  0  0  0
   25.3105  -21.6152  -15.1825 C   0  0  0  0  0  0  0  0  0  0  0  0
   25.4026  -20.7537  -16.3833 C   0  0  0  0  0  0  0  0  0  0  0  0
   24.6523  -20.9563  -17.3672 O   0  0  0  0  0  0  0  0  0  0  0  0
   23.6954  -22.7951  -13.0441 C   0  0  0  0  0  0  0  0  0  0  0  0
   22.4731  -22.5224  -12.9254 O   0  0  0  0  0  0  0  0  0  0  0  0
   26.3070  -19.7066  -16.4658 O   0  0  0  0  0  0  0  0  0  0  0  0
   26.2486  -20.1312   -7.9324 C   0  0  0  0  0  0  0  0  0  0  0  0
   25.0567  -20.5444   -8.7490 C   0  0  0  0  0  0  0  0  0  0  0  0
   25.3989  -21.2861  -10.0012 C   0  0  2  0  0  0  0  0  0  0  0  0
   26.3389  -20.4185  -10.8089 C   0  0  0  0  0  0  0  0  0  0  0  0
   24.2090  -21.6073  -10.8657 C   0  0  2  0  0  0  0  0  0  0  0  0
   24.5823  -22.3396  -12.0594 N   0  0  0  0  0  0  0  0  0  0  0  0
   23.6218  -20.3148  -11.2893 C   0  0  0  0  0  0  0  0  0  0  0  0
   23.9392  -19.8290  -12.3973 O   0  0  0  0  0  0  0  0  0  0  0  0
   22.7289  -19.6095  -10.5113 O   0  0  0  0  0  0  0  0  0  0  0  0
  2  1  1  6
  3  2  1  0
  3  4  1  0
  4  8  1  0
  4  5  2  0
  6  2  1  0
  6  7  2  0
  9  6  1  0
 10  9  1  0
 10 11  1  6
 12 11  1  0
 12 13  1  0
 13 14  2  0
 15 10  1  0
 15 23  1  0
 16 15  2  0
 17 13  1  0
 19 18  1  0
 20 19  1  0
 20 21  1  6
 22 23  1  6
 22 20  1  0
 24 22  1  0
 25 24  2  0
 26 24  1  0
M  END
$$$$
