DEI.pdb
     RDKit          3D

 26 25  0  0  1  0  0  0  0  0999 V2000
   18.2033  -10.9272  -15.1264 N   0  0  0  0  0  0  0  0  0  0  0  0
   18.4807   -9.9283  -16.1090 C   0  0  1  0  0  0  0  0  0  0  0  0
   17.2939   -9.6603  -16.9958 C   0  0  0  0  0  0  0  0  0  0  0  0
   16.9034  -10.9064  -17.6778 C   0  0  0  0  0  0  0  0  0  0  0  0
   17.7517  -11.7208  -18.1507 O   0  0  0  0  0  0  0  0  0  0  0  0
   18.9871   -8.6574  -15.4853 C   0  0  0  0  0  0  0  0  0  0  0  0
   18.4292   -8.1679  -14.4706 O   0  0  0  0  0  0  0  0  0  0  0  0
   15.5642  -11.2127  -17.8149 O   0  0  0  0  0  0  0  0  0  0  0  0
   20.1086   -7.9538  -16.0054 N   0  0  0  0  0  0  0  0  0  0  0  0
   20.5363   -6.6761  -15.4696 C   0  0  1  0  0  0  0  0  0  0  0  0
   22.0283   -6.6379  -15.2265 C   0  0  0  0  0  0  0  0  0  0  0  0
   22.4893   -5.3140  -14.6961 C   0  0  0  0  0  0  0  0  0  0  0  0
   22.2161   -5.2595  -13.2417 C   0  0  0  0  0  0  0  0  0  0  0  0
   22.3099   -4.1748  -12.6199 O   0  0  0  0  0  0  0  0  0  0  0  0
   20.0959   -5.5448  -16.3201 C   0  0  0  0  0  0  0  0  0  0  0  0
   20.5599   -5.4987  -17.4885 O   0  0  0  0  0  0  0  0  0  0  0  0
   21.8519   -6.3869  -12.5223 O   0  0  0  0  0  0  0  0  0  0  0  0
   15.9478   -2.0592  -18.1152 C   0  0  0  0  0  0  0  0  0  0  0  0
   16.9710   -1.7031  -17.0739 C   0  0  0  0  0  0  0  0  0  0  0  0
   17.4535   -2.8650  -16.2661 C   0  0  2  0  0  0  0  0  0  0  0  0
   17.6142   -2.3976  -14.8362 C   0  0  0  0  0  0  0  0  0  0  0  0
   18.7768   -3.4191  -16.7224 C   0  0  2  0  0  0  0  0  0  0  0  0
   19.2093   -4.5395  -15.9111 N   0  0  0  0  0  0  0  0  0  0  0  0
   19.7744   -2.3345  -16.5702 C   0  0  0  0  0  0  0  0  0  0  0  0
   19.8729   -1.4606  -17.4595 O   0  0  0  0  0  0  0  0  0  0  0  0
   20.6129   -2.2386  -15.4804 O   0  0  0  0  0  0  0  0  0  0  0  0
  2  1  1  1
  3  2  1  0
  3  4  1  0
  4  8  1  0
  4  5  2  0
  6  2  1  0
  6  7  2  0
  9  6  1  0
 10  9  1  0
 10 11  1  6
 12 11  1  0
 12 13  1  0
 13 14  2  0
 15 10  1  0
 15 23  1  0
 16 15  2  0
 17 13  1  0
 19 18  1  0
 20 19  1  0
 20 21  1  1
 22 23  1  1
 22 20  1  0
 24 22  1  0
 25 24  2  0
 26 24  1  0
M  END
$$$$
