DEI.pdb
     RDKit          3D

 26 25  0  0  1  0  0  0  0  0999 V2000
   17.6003  -12.0760  -18.6044 N   0  0  0  0  0  0  0  0  0  0  0  0
   17.4219  -11.4440  -17.3361 C   0  0  1  0  0  0  0  0  0  0  0  0
   17.9303  -12.2942  -16.2023 C   0  0  0  0  0  0  0  0  0  0  0  0
   17.0867  -13.4955  -16.0771 C   0  0  0  0  0  0  0  0  0  0  0  0
   17.5689  -14.6512  -15.8821 O   0  0  0  0  0  0  0  0  0  0  0  0
   18.0402  -10.0739  -17.3034 C   0  0  0  0  0  0  0  0  0  0  0  0
   19.2478   -9.9019  -17.6076 O   0  0  0  0  0  0  0  0  0  0  0  0
   15.7149  -13.3730  -16.1740 O   0  0  0  0  0  0  0  0  0  0  0  0
   17.2994   -8.9180  -16.9313 N   0  0  0  0  0  0  0  0  0  0  0  0
   17.8855   -7.5916  -16.9282 C   0  0  1  0  0  0  0  0  0  0  0  0
   16.8349   -6.5110  -17.0512 C   0  0  0  0  0  0  0  0  0  0  0  0
   17.4260   -5.1336  -17.0499 C   0  0  0  0  0  0  0  0  0  0  0  0
   16.3297   -4.1421  -17.1392 C   0  0  0  0  0  0  0  0  0  0  0  0
   16.5782   -2.9152  -17.0692 O   0  0  0  0  0  0  0  0  0  0  0  0
   18.7528   -7.3734  -15.7461 C   0  0  0  0  0  0  0  0  0  0  0  0
   18.2763   -7.6912  -14.6261 O   0  0  0  0  0  0  0  0  0  0  0  0
   15.0074   -4.5251  -17.3011 O   0  0  0  0  0  0  0  0  0  0  0  0
   23.0772   -9.9056  -14.9108 C   0  0  0  0  0  0  0  0  0  0  0  0
   21.8633   -9.0201  -14.9315 C   0  0  0  0  0  0  0  0  0  0  0  0
   22.1650   -7.5629  -14.7875 C   0  0  2  0  0  0  0  0  0  0  0  0
   22.9888   -7.3844  -13.5311 C   0  0  0  0  0  0  0  0  0  0  0  0
   20.9413   -6.6946  -14.6646 C   0  0  2  0  0  0  0  0  0  0  0  0
   20.0492   -6.8437  -15.7969 N   0  0  0  0  0  0  0  0  0  0  0  0
   21.4101   -5.2896  -14.6360 C   0  0  0  0  0  0  0  0  0  0  0  0
   21.5005   -4.6497  -15.7069 O   0  0  0  0  0  0  0  0  0  0  0  0
   21.7571   -4.6416  -13.4699 O   0  0  0  0  0  0  0  0  0  0  0  0
  2  1  1  6
  3  2  1  0
  3  4  1  0
  4  8  1  0
  4  5  2  0
  6  2  1  0
  6  7  2  0
  9  6  1  0
 10  9  1  0
 10 11  1  1
 12 11  1  0
 12 13  1  0
 13 14  2  0
 15 10  1  0
 15 23  1  0
 16 15  2  0
 17 13  1  0
 19 18  1  0
 20 19  1  0
 20 21  1  1
 22 23  1  6
 22 20  1  0
 24 22  1  0
 25 24  2  0
 26 24  1  0
M  END
$$$$
