DEI.pdb
     RDKit          3D

 26 25  0  0  1  0  0  0  0  0999 V2000
   15.8113  -10.4893  -16.7827 N   0  0  0  0  0  0  0  0  0  0  0  0
   15.6012   -9.1606  -16.3025 C   0  0  1  0  0  0  0  0  0  0  0  0
   14.8824   -9.1427  -14.9798 C   0  0  0  0  0  0  0  0  0  0  0  0
   14.3594  -10.4893  -14.6906 C   0  0  0  0  0  0  0  0  0  0  0  0
   14.4369  -11.4446  -15.5199 O   0  0  0  0  0  0  0  0  0  0  0  0
   16.8865   -8.3839  -16.2295 C   0  0  0  0  0  0  0  0  0  0  0  0
   17.9927   -8.9721  -16.1265 O   0  0  0  0  0  0  0  0  0  0  0  0
   13.7586  -10.7354  -13.4722 O   0  0  0  0  0  0  0  0  0  0  0  0
   16.9151   -6.9624  -16.2728 N   0  0  0  0  0  0  0  0  0  0  0  0
   18.1570   -6.2142  -16.2973 C   0  0  1  0  0  0  0  0  0  0  0  0
   17.9374   -4.7702  -16.6887 C   0  0  0  0  0  0  0  0  0  0  0  0
   19.2242   -4.0291  -16.8924 C   0  0  0  0  0  0  0  0  0  0  0  0
   18.9169   -2.6437  -17.3154 C   0  0  0  0  0  0  0  0  0  0  0  0
   18.4061   -2.4232  -18.4390 O   0  0  0  0  0  0  0  0  0  0  0  0
   18.8933   -6.3232  -15.0155 C   0  0  0  0  0  0  0  0  0  0  0  0
   18.2184   -6.2001  -13.9610 O   0  0  0  0  0  0  0  0  0  0  0  0
   19.1776   -1.5539  -16.4995 O   0  0  0  0  0  0  0  0  0  0  0  0
   23.1372   -9.7399  -12.3955 C   0  0  0  0  0  0  0  0  0  0  0  0
   22.4429   -8.4072  -12.4070 C   0  0  0  0  0  0  0  0  0  0  0  0
   21.7271   -8.1000  -13.6832 C   0  0  2  0  0  0  0  0  0  0  0  0
   22.7591   -8.0403  -14.7879 C   0  0  0  0  0  0  0  0  0  0  0  0
   20.9890   -6.7879  -13.6693 C   0  0  2  0  0  0  0  0  0  0  0  0
   20.2717   -6.5511  -14.9061 N   0  0  0  0  0  0  0  0  0  0  0  0
   22.0068   -5.7217  -13.5216 C   0  0  0  0  0  0  0  0  0  0  0  0
   22.3720   -5.0766  -14.5290 O   0  0  0  0  0  0  0  0  0  0  0  0
   22.5807   -5.3996  -12.3104 O   0  0  0  0  0  0  0  0  0  0  0  0
  2  1  1  1
  3  2  1  0
  3  4  1  0
  4  8  1  0
  4  5  2  0
  6  2  1  0
  6  7  2  0
  9  6  1  0
 10  9  1  0
 10 11  1  1
 12 11  1  0
 12 13  1  0
 13 14  2  0
 15 10  1  0
 15 23  1  0
 16 15  2  0
 17 13  1  0
 19 18  1  0
 20 19  1  0
 20 21  1  6
 22 23  1  6
 22 20  1  0
 24 22  1  0
 25 24  2  0
 26 24  1  0
M  END
$$$$
