DEI.pdb
     RDKit          3D

 26 25  0  0  1  0  0  0  0  0999 V2000
   15.6335  -11.6504  -17.2982 N   0  0  0  0  0  0  0  0  0  0  0  0
   15.8983  -10.8248  -16.1632 C   0  0  1  0  0  0  0  0  0  0  0  0
   16.2047  -11.6349  -14.9317 C   0  0  0  0  0  0  0  0  0  0  0  0
   14.9929  -12.3590  -14.5103 C   0  0  0  0  0  0  0  0  0  0  0  0
   13.8522  -11.8090  -14.4581 O   0  0  0  0  0  0  0  0  0  0  0  0
   16.9900   -9.8288  -16.4401 C   0  0  0  0  0  0  0  0  0  0  0  0
   17.9365  -10.1066  -17.2194 O   0  0  0  0  0  0  0  0  0  0  0  0
   15.0880  -13.6898  -14.1551 O   0  0  0  0  0  0  0  0  0  0  0  0
   17.0067   -8.5383  -15.8419 N   0  0  0  0  0  0  0  0  0  0  0  0
   18.0313   -7.5582  -16.1456 C   0  0  1  0  0  0  0  0  0  0  0  0
   17.4366   -6.2306  -16.5584 C   0  0  0  0  0  0  0  0  0  0  0  0
   16.5472   -5.6473  -15.5023 C   0  0  0  0  0  0  0  0  0  0  0  0
   16.5847   -4.1707  -15.6069 C   0  0  0  0  0  0  0  0  0  0  0  0
   16.7510   -3.4673  -14.5824 O   0  0  0  0  0  0  0  0  0  0  0  0
   18.9921   -7.3987  -15.0282 C   0  0  0  0  0  0  0  0  0  0  0  0
   18.5260   -7.4814  -13.8627 O   0  0  0  0  0  0  0  0  0  0  0  0
   16.4399   -3.5187  -16.8215 O   0  0  0  0  0  0  0  0  0  0  0  0
   23.0311  -10.5508  -14.6860 C   0  0  0  0  0  0  0  0  0  0  0  0
   21.9425   -9.5367  -14.4747 C   0  0  0  0  0  0  0  0  0  0  0  0
   22.4351   -8.1359  -14.3004 C   0  0  2  0  0  0  0  0  0  0  0  0
   23.3110   -8.1052  -13.0672 C   0  0  0  0  0  0  0  0  0  0  0  0
   21.3387   -7.1213  -14.1136 C   0  0  2  0  0  0  0  0  0  0  0  0
   20.3648   -7.1651  -15.1859 N   0  0  0  0  0  0  0  0  0  0  0  0
   21.9788   -5.7854  -14.1339 C   0  0  0  0  0  0  0  0  0  0  0  0
   22.7015   -5.4353  -13.1749 O   0  0  0  0  0  0  0  0  0  0  0  0
   21.8155   -4.8948  -15.1731 O   0  0  0  0  0  0  0  0  0  0  0  0
  2  1  1  6
  3  2  1  0
  3  4  1  0
  4  8  1  0
  4  5  2  0
  6  2  1  0
  6  7  2  0
  9  6  1  0
 10  9  1  0
 10 11  1  1
 12 11  1  0
 12 13  1  0
 13 14  2  0
 15 10  1  0
 15 23  1  0
 16 15  2  0
 17 13  1  0
 19 18  1  0
 20 19  1  0
 20 21  1  1
 22 23  1  6
 22 20  1  0
 24 22  1  0
 25 24  2  0
 26 24  1  0
M  END
$$$$
