DEI.pdb
     RDKit          3D

 26 25  0  0  1  0  0  0  0  0999 V2000
   16.2080   -8.1686  -17.1696 N   0  0  0  0  0  0  0  0  0  0  0  0
   16.9499   -7.8660  -15.9872 C   0  0  1  0  0  0  0  0  0  0  0  0
   17.6161   -6.5182  -16.0652 C   0  0  0  0  0  0  0  0  0  0  0  0
   18.6086   -6.5268  -17.1539 C   0  0  0  0  0  0  0  0  0  0  0  0
   19.5701   -7.3515  -17.1949 O   0  0  0  0  0  0  0  0  0  0  0  0
   16.1008   -7.9784  -14.7515 C   0  0  0  0  0  0  0  0  0  0  0  0
   14.9430   -7.4899  -14.7158 O   0  0  0  0  0  0  0  0  0  0  0  0
   18.4999   -5.6061  -18.1770 O   0  0  0  0  0  0  0  0  0  0  0  0
   16.5589   -8.6348  -13.5757 N   0  0  0  0  0  0  0  0  0  0  0  0
   15.7178   -8.8034  -12.4065 C   0  0  1  0  0  0  0  0  0  0  0  0
   15.8979  -10.1652  -11.7744 C   0  0  0  0  0  0  0  0  0  0  0  0
   14.9264  -10.4135  -10.6604 C   0  0  0  0  0  0  0  0  0  0  0  0
   14.4521  -11.8139  -10.7420 C   0  0  0  0  0  0  0  0  0  0  0  0
   15.1954  -12.7079  -11.2113 O   0  0  0  0  0  0  0  0  0  0  0  0
   15.9190   -7.7160  -11.4195 C   0  0  0  0  0  0  0  0  0  0  0  0
   17.0923   -7.2836  -11.2825 O   0  0  0  0  0  0  0  0  0  0  0  0
   13.1886  -12.1855  -10.3099 O   0  0  0  0  0  0  0  0  0  0  0  0
   12.6292   -4.3166   -7.2629 C   0  0  0  0  0  0  0  0  0  0  0  0
   13.9005   -4.6117   -8.0077 C   0  0  0  0  0  0  0  0  0  0  0  0
   13.8406   -5.8380   -8.8609 C   0  0  2  0  0  0  0  0  0  0  0  0
   13.6886   -7.0312   -7.9433 C   0  0  0  0  0  0  0  0  0  0  0  0
   15.0688   -6.0568   -9.7035 C   0  0  2  0  0  0  0  0  0  0  0  0
   14.9006   -7.1485  -10.6418 N   0  0  0  0  0  0  0  0  0  0  0  0
   16.1685   -6.4167   -8.7783 C   0  0  0  0  0  0  0  0  0  0  0  0
   16.5389   -7.6086   -8.6978 O   0  0  0  0  0  0  0  0  0  0  0  0
   16.8143   -5.4891   -7.9893 O   0  0  0  0  0  0  0  0  0  0  0  0
  2  1  1  6
  3  2  1  0
  3  4  1  0
  4  8  1  0
  4  5  2  0
  6  2  1  0
  6  7  2  0
  9  6  1  0
 10  9  1  0
 10 11  1  1
 12 11  1  0
 12 13  1  0
 13 14  2  0
 15 10  1  0
 15 23  1  0
 16 15  2  0
 17 13  1  0
 19 18  1  0
 20 19  1  0
 20 21  1  1
 22 23  1  6
 22 20  1  0
 24 22  1  0
 25 24  2  0
 26 24  1  0
M  END
$$$$
