FCT.pdb
     RDKit          3D

 25 25  0  0  1  0  0  0  0  0999 V2000
   10.7162  -17.5539   19.6574 N   0  0  0  0  0  0  0  0  0  0  0  0
   10.2037  -16.5764   20.5664 C   0  0  1  0  0  0  0  0  0  0  0  0
    8.6794  -16.6046   20.4320 C   0  0  0  0  0  0  0  0  0  0  0  0
    8.1147  -15.2445   20.3028 C   0  0  0  0  0  0  0  0  0  0  0  0
    6.7596  -15.0188   20.3292 C   0  0  0  0  0  0  0  0  0  0  0  0
    6.2372  -13.7264   20.2049 C   0  0  0  0  0  0  0  0  0  0  0  0
    7.0790  -12.6519   20.0531 C   0  0  0  0  0  0  0  0  0  0  0  0
    8.4399  -12.8702   20.0257 C   0  0  0  0  0  0  0  0  0  0  0  0
    8.9529  -14.1669   20.1507 C   0  0  0  0  0  0  0  0  0  0  0  0
   10.5265  -16.8287   21.9783 C   0  0  0  0  0  0  0  0  0  0  0  0
   11.2532  -17.8319   22.2297 O   0  0  0  0  0  0  0  0  0  0  0  0
   10.0606  -16.0035   23.0404 N   0  0  0  0  0  0  0  0  0  0  0  0
   10.5271  -16.2452   24.3657 C   0  0  1  0  0  0  0  0  0  0  0  0
    9.9966  -15.1400   25.2769 C   0  0  0  0  0  0  0  0  0  0  0  0
   10.5282  -15.5295   26.9766 S   0  0  0  0  0  0  0  0  0  0  0  0
   10.1401  -17.5856   24.8815 C   0  0  0  0  0  0  0  0  0  0  0  0
    8.9278  -17.9096   24.9673 O   0  0  0  0  0  0  0  0  0  0  0  0
   10.9187  -21.0658   23.6339 C   0  0  0  0  0  0  0  0  0  0  0  0
   11.3640  -20.9913   25.0563 C   0  0  1  0  0  0  0  0  0  0  0  0
   12.7566  -20.7772   25.0602 O   0  0  0  0  0  0  0  0  0  0  0  0
   10.7515  -19.8451   25.8218 C   0  0  2  0  0  0  0  0  0  0  0  0
   11.0911  -18.5582   25.2985 N   0  0  0  0  0  0  0  0  0  0  0  0
   11.0677  -19.9708   27.2723 C   0  0  0  0  0  0  0  0  0  0  0  0
   10.6146  -21.1005   27.9586 O   0  0  0  0  0  0  0  0  0  0  0  0
   11.7120  -19.1299   27.9119 O   0  0  0  0  0  0  0  0  0  0  0  0
  2  1  1  6
  2 10  1  0
  3  2  1  0
  4  5  2  0
  4  3  1  0
  6  5  1  0
  7  6  2  0
  8  7  1  0
  8  9  2  0
  9  4  1  0
 10 12  1  0
 10 11  2  0
 12 13  1  0
 13 14  1  1
 14 15  1  0
 16 13  1  0
 16 17  2  0
 19 18  1  6
 19 20  1  0
 19 21  1  0
 21 22  1  6
 22 16  1  0
 23 21  1  0
 24 23  1  0
 25 23  2  0
M  END
$$$$
