FCT.pdb
     RDKit          3D

 25 25  0  0  1  0  0  0  0  0999 V2000
   10.5536  -16.6978   21.7927 N   0  0  0  0  0  0  0  0  0  0  0  0
    9.9447  -15.6878   22.6012 C   0  0  1  0  0  0  0  0  0  0  0  0
    8.4369  -15.7725   22.3526 C   0  0  0  0  0  0  0  0  0  0  0  0
    7.9358  -14.5950   21.6126 C   0  0  0  0  0  0  0  0  0  0  0  0
    7.6327  -13.4160   22.2498 C   0  0  0  0  0  0  0  0  0  0  0  0
    7.1581  -12.3083   21.5382 C   0  0  0  0  0  0  0  0  0  0  0  0
    6.9859  -12.3825   20.1775 C   0  0  0  0  0  0  0  0  0  0  0  0
    7.2879  -13.5620   19.5310 C   0  0  0  0  0  0  0  0  0  0  0  0
    7.7621  -14.6647   20.2518 C   0  0  0  0  0  0  0  0  0  0  0  0
   10.1631  -15.8500   24.0459 C   0  0  0  0  0  0  0  0  0  0  0  0
   10.7556  -16.9016   24.4215 O   0  0  0  0  0  0  0  0  0  0  0  0
    9.7411  -14.8890   25.0074 N   0  0  0  0  0  0  0  0  0  0  0  0
   10.1995  -15.0025   26.3525 C   0  0  1  0  0  0  0  0  0  0  0  0
    9.6345  -13.8347   27.1588 C   0  0  0  0  0  0  0  0  0  0  0  0
   10.2919  -13.9706   28.8536 S   0  0  0  0  0  0  0  0  0  0  0  0
    9.8381  -16.3014   26.9809 C   0  0  0  0  0  0  0  0  0  0  0  0
    8.6321  -16.6392   27.0972 O   0  0  0  0  0  0  0  0  0  0  0  0
   10.5886  -19.8970   26.1429 C   0  0  0  0  0  0  0  0  0  0  0  0
   11.0702  -19.6631   27.5359 C   0  0  1  0  0  0  0  0  0  0  0  0
   12.4653  -19.4729   27.4823 O   0  0  0  0  0  0  0  0  0  0  0  0
   10.4926  -18.4249   28.1749 C   0  0  2  0  0  0  0  0  0  0  0  0
   10.8075  -17.2175   27.4760 N   0  0  0  0  0  0  0  0  0  0  0  0
   10.8745  -18.3653   29.6137 C   0  0  0  0  0  0  0  0  0  0  0  0
   10.4458  -19.3906   30.4609 O   0  0  0  0  0  0  0  0  0  0  0  0
   11.5532  -17.4567   30.1089 O   0  0  0  0  0  0  0  0  0  0  0  0
  2  1  1  6
  2 10  1  0
  3  2  1  0
  4  5  2  0
  4  3  1  0
  6  5  1  0
  7  6  2  0
  8  7  1  0
  8  9  2  0
  9  4  1  0
 10 12  1  0
 10 11  2  0
 12 13  1  0
 13 14  1  1
 14 15  1  0
 16 13  1  0
 16 17  2  0
 19 18  1  6
 19 20  1  0
 19 21  1  0
 21 22  1  6
 22 16  1  0
 23 21  1  0
 24 23  1  0
 25 23  2  0
M  END
$$$$
