FCT.pdb
     RDKit          3D

 25 25  0  0  1  0  0  0  0  0999 V2000
    6.1007  -17.4145   25.7985 N   0  0  0  0  0  0  0  0  0  0  0  0
    6.6678  -16.2158   25.2640 C   0  0  1  0  0  0  0  0  0  0  0  0
    7.5257  -15.6007   26.3721 C   0  0  0  0  0  0  0  0  0  0  0  0
    7.1507  -14.1962   26.6407 C   0  0  0  0  0  0  0  0  0  0  0  0
    8.0307  -13.3099   27.2135 C   0  0  0  0  0  0  0  0  0  0  0  0
    7.6634  -11.9828   27.4636 C   0  0  0  0  0  0  0  0  0  0  0  0
    6.4048  -11.5403   27.1373 C   0  0  0  0  0  0  0  0  0  0  0  0
    5.5162  -12.4236   26.5622 C   0  0  0  0  0  0  0  0  0  0  0  0
    5.8930  -13.7493   26.3160 C   0  0  0  0  0  0  0  0  0  0  0  0
    7.5369  -16.4208   24.0961 C   0  0  0  0  0  0  0  0  0  0  0  0
    8.2191  -17.4847   24.0691 O   0  0  0  0  0  0  0  0  0  0  0  0
    7.6321  -15.4870   23.0260 N   0  0  0  0  0  0  0  0  0  0  0  0
    8.5368  -15.7457   21.9550 C   0  0  1  0  0  0  0  0  0  0  0  0
    8.3072  -14.7034   20.8622 C   0  0  0  0  0  0  0  0  0  0  0  0
    6.6355  -14.9759   20.1882 S   0  0  0  0  0  0  0  0  0  0  0  0
    9.9602  -15.7525   22.3868 C   0  0  0  0  0  0  0  0  0  0  0  0
   10.4657  -14.7378   22.9316 O   0  0  0  0  0  0  0  0  0  0  0  0
   11.9645  -17.8524   24.9020 C   0  0  0  0  0  0  0  0  0  0  0  0
   12.5446  -18.0230   23.5376 C   0  0  1  0  0  0  0  0  0  0  0  0
   12.0041  -19.2008   22.9847 O   0  0  0  0  0  0  0  0  0  0  0  0
   12.1956  -16.9040   22.5885 C   0  0  2  0  0  0  0  0  0  0  0  0
   10.8152  -16.8767   22.2153 N   0  0  0  0  0  0  0  0  0  0  0  0
   13.1035  -16.9320   21.4076 C   0  0  0  0  0  0  0  0  0  0  0  0
   12.5724  -17.2910   20.1659 O   0  0  0  0  0  0  0  0  0  0  0  0
   14.3085  -16.6549   21.4587 O   0  0  0  0  0  0  0  0  0  0  0  0
  2  1  1  1
  2 10  1  0
  3  2  1  0
  4  5  2  0
  4  3  1  0
  6  5  1  0
  7  6  2  0
  8  7  1  0
  8  9  2  0
  9  4  1  0
 10 12  1  0
 10 11  2  0
 12 13  1  0
 13 14  1  6
 14 15  1  0
 16 13  1  0
 16 17  2  0
 19 18  1  1
 19 20  1  0
 19 21  1  0
 21 22  1  6
 22 16  1  0
 23 21  1  0
 24 23  1  0
 25 23  2  0
M  END
$$$$
