FCT.pdb
     RDKit          3D

 25 25  0  0  1  0  0  0  0  0999 V2000
    6.4381  -17.3751   26.1559 N   0  0  0  0  0  0  0  0  0  0  0  0
    6.8209  -16.2896   25.3078 C   0  0  1  0  0  0  0  0  0  0  0  0
    7.8596  -15.4717   26.0789 C   0  0  0  0  0  0  0  0  0  0  0  0
    7.3935  -14.0919   26.3324 C   0  0  0  0  0  0  0  0  0  0  0  0
    6.1462  -13.6671   25.9425 C   0  0  0  0  0  0  0  0  0  0  0  0
    5.7168  -12.3579   26.1876 C   0  0  0  0  0  0  0  0  0  0  0  0
    6.5433  -11.4674   26.8281 C   0  0  0  0  0  0  0  0  0  0  0  0
    7.7962  -11.8861   27.2224 C   0  0  0  0  0  0  0  0  0  0  0  0
    8.2167  -13.1980   26.9727 C   0  0  0  0  0  0  0  0  0  0  0  0
    7.4362  -16.6973   24.0364 C   0  0  0  0  0  0  0  0  0  0  0  0
    7.8733  -17.8812   23.9648 O   0  0  0  0  0  0  0  0  0  0  0  0
    7.5521  -15.8270   22.9160 N   0  0  0  0  0  0  0  0  0  0  0  0
    8.2421  -16.2780   21.7528 C   0  0  1  0  0  0  0  0  0  0  0  0
    7.9898  -15.2831   20.6216 C   0  0  0  0  0  0  0  0  0  0  0  0
    6.1980  -15.2781   20.2863 S   0  0  0  0  0  0  0  0  0  0  0  0
    9.7009  -16.4615   21.9785 C   0  0  0  0  0  0  0  0  0  0  0  0
   10.4070  -15.5060   22.3916 O   0  0  0  0  0  0  0  0  0  0  0  0
   13.5181  -19.5313   22.7833 C   0  0  0  0  0  0  0  0  0  0  0  0
   12.0678  -19.3016   22.5170 C   0  0  1  0  0  0  0  0  0  0  0  0
   11.3797  -19.4349   23.7392 O   0  0  0  0  0  0  0  0  0  0  0  0
   11.7601  -17.9184   22.0000 C   0  0  2  0  0  0  0  0  0  0  0  0
   10.3702  -17.6955   21.7474 N   0  0  0  0  0  0  0  0  0  0  0  0
   12.6097  -17.6139   20.8146 C   0  0  0  0  0  0  0  0  0  0  0  0
   13.7979  -16.9050   21.0097 O   0  0  0  0  0  0  0  0  0  0  0  0
   12.3258  -17.9528   19.6588 O   0  0  0  0  0  0  0  0  0  0  0  0
  2  1  1  1
  2 10  1  0
  3  2  1  0
  4  5  2  0
  4  3  1  0
  6  5  1  0
  7  6  2  0
  8  7  1  0
  8  9  2  0
  9  4  1  0
 10 12  1  0
 10 11  2  0
 12 13  1  0
 13 14  1  6
 14 15  1  0
 16 13  1  0
 16 17  2  0
 19 18  1  1
 19 20  1  0
 19 21  1  0
 21 22  1  6
 22 16  1  0
 23 21  1  0
 24 23  1  0
 25 23  2  0
M  END
$$$$
