FCT.pdb
     RDKit          3D

 25 25  0  0  1  0  0  0  0  0999 V2000
    7.4466  -15.3051   20.5823 N   0  0  0  0  0  0  0  0  0  0  0  0
    7.8170  -14.7371   21.8410 C   0  0  1  0  0  0  0  0  0  0  0  0
    6.5282  -14.2328   22.4945 C   0  0  0  0  0  0  0  0  0  0  0  0
    6.7839  -13.6343   23.8219 C   0  0  0  0  0  0  0  0  0  0  0  0
    6.5017  -14.3086   24.9854 C   0  0  0  0  0  0  0  0  0  0  0  0
    6.7475  -13.7307   26.2361 C   0  0  0  0  0  0  0  0  0  0  0  0
    7.2800  -12.4676   26.3217 C   0  0  0  0  0  0  0  0  0  0  0  0
    7.5657  -11.7847   25.1588 C   0  0  0  0  0  0  0  0  0  0  0  0
    7.3163  -12.3713   23.9123 C   0  0  0  0  0  0  0  0  0  0  0  0
    8.4443  -15.6829   22.7755 C   0  0  0  0  0  0  0  0  0  0  0  0
    7.7945  -16.7314   23.0520 O   0  0  0  0  0  0  0  0  0  0  0  0
    9.7224  -15.4625   23.3618 N   0  0  0  0  0  0  0  0  0  0  0  0
   10.3213  -16.4991   24.1359 C   0  0  1  0  0  0  0  0  0  0  0  0
   11.4608  -17.1143   23.3257 C   0  0  0  0  0  0  0  0  0  0  0  0
   12.1090  -18.5271   24.2781 S   0  0  0  0  0  0  0  0  0  0  0  0
   10.8098  -16.0265   25.4590 C   0  0  0  0  0  0  0  0  0  0  0  0
   11.5954  -15.0471   25.5355 O   0  0  0  0  0  0  0  0  0  0  0  0
    9.9331  -14.0468   28.1523 C   0  0  0  0  0  0  0  0  0  0  0  0
   10.1463  -15.3817   28.7844 C   0  0  1  0  0  0  0  0  0  0  0  0
    8.8878  -16.0014   28.9155 O   0  0  0  0  0  0  0  0  0  0  0  0
   10.9987  -16.3122   27.9582 C   0  0  2  0  0  0  0  0  0  0  0  0
   10.4294  -16.6361   26.6869 N   0  0  0  0  0  0  0  0  0  0  0  0
   11.3492  -17.5246   28.7500 C   0  0  0  0  0  0  0  0  0  0  0  0
   12.0846  -17.3632   29.9272 O   0  0  0  0  0  0  0  0  0  0  0  0
   11.0267  -18.6748   28.4270 O   0  0  0  0  0  0  0  0  0  0  0  0
  2  1  1  6
  2 10  1  0
  3  2  1  0
  4  5  2  0
  4  3  1  0
  6  5  1  0
  7  6  2  0
  8  7  1  0
  8  9  2  0
  9  4  1  0
 10 12  1  0
 10 11  2  0
 12 13  1  0
 13 14  1  6
 14 15  1  0
 16 13  1  0
 16 17  2  0
 19 18  1  6
 19 20  1  0
 19 21  1  0
 21 22  1  6
 22 16  1  0
 23 21  1  0
 24 23  1  0
 25 23  2  0
M  END
$$$$
