FCT.pdb
     RDKit          3D

 25 25  0  0  1  0  0  0  0  0999 V2000
    8.2170  -15.7403   22.6697 N   0  0  0  0  0  0  0  0  0  0  0  0
    9.5745  -15.3160   22.5239 C   0  0  1  0  0  0  0  0  0  0  0  0
    9.5368  -13.8256   22.1776 C   0  0  0  0  0  0  0  0  0  0  0  0
    8.6120  -13.5455   21.0589 C   0  0  0  0  0  0  0  0  0  0  0  0
    9.0249  -13.5972   19.7493 C   0  0  0  0  0  0  0  0  0  0  0  0
    8.1399  -13.3290   18.6989 C   0  0  0  0  0  0  0  0  0  0  0  0
    6.8311  -13.0065   18.9625 C   0  0  0  0  0  0  0  0  0  0  0  0
    6.4092  -12.9526   20.2738 C   0  0  0  0  0  0  0  0  0  0  0  0
    7.3022  -13.2225   21.3178 C   0  0  0  0  0  0  0  0  0  0  0  0
   10.3935  -15.4664   23.7355 C   0  0  0  0  0  0  0  0  0  0  0  0
   11.3995  -14.7089   23.8451 O   0  0  0  0  0  0  0  0  0  0  0  0
   10.0985  -16.4101   24.7595 N   0  0  0  0  0  0  0  0  0  0  0  0
   10.5030  -16.1338   26.0983 C   0  0  1  0  0  0  0  0  0  0  0  0
    9.8535  -14.8244   26.5418 C   0  0  0  0  0  0  0  0  0  0  0  0
   10.3841  -14.5031   28.2560 S   0  0  0  0  0  0  0  0  0  0  0  0
   10.1715  -17.2338   27.0431 C   0  0  0  0  0  0  0  0  0  0  0  0
    8.9818  -17.4289   27.4017 O   0  0  0  0  0  0  0  0  0  0  0  0
   11.1758  -20.9659   26.6762 C   0  0  0  0  0  0  0  0  0  0  0  0
   11.5456  -20.4951   28.0432 C   0  0  1  0  0  0  0  0  0  0  0  0
   12.9290  -20.2281   28.0465 O   0  0  0  0  0  0  0  0  0  0  0  0
   10.8603  -19.2134   28.4467 C   0  0  2  0  0  0  0  0  0  0  0  0
   11.1527  -18.1098   27.5853 N   0  0  0  0  0  0  0  0  0  0  0  0
   11.1442  -18.9092   29.8772 C   0  0  0  0  0  0  0  0  0  0  0  0
   10.6882  -19.8004   30.8522 O   0  0  0  0  0  0  0  0  0  0  0  0
   11.7637  -17.9081   30.2584 O   0  0  0  0  0  0  0  0  0  0  0  0
  2  1  1  1
  2 10  1  0
  3  2  1  0
  4  5  2  0
  4  3  1  0
  6  5  1  0
  7  6  2  0
  8  7  1  0
  8  9  2  0
  9  4  1  0
 10 12  1  0
 10 11  2  0
 12 13  1  0
 13 14  1  1
 14 15  1  0
 16 13  1  0
 16 17  2  0
 19 18  1  6
 19 20  1  0
 19 21  1  0
 21 22  1  6
 22 16  1  0
 23 21  1  0
 24 23  1  0
 25 23  2  0
M  END
$$$$
