FCT.pdb
     RDKit          3D

 25 25  0  0  1  0  0  0  0  0999 V2000
    5.6557  -17.1448   25.0121 N   0  0  0  0  0  0  0  0  0  0  0  0
    6.6019  -16.1108   24.7295 C   0  0  1  0  0  0  0  0  0  0  0  0
    7.0449  -15.5369   26.0774 C   0  0  0  0  0  0  0  0  0  0  0  0
    6.7111  -14.1019   26.1991 C   0  0  0  0  0  0  0  0  0  0  0  0
    5.4543  -13.6802   26.5604 C   0  0  0  0  0  0  0  0  0  0  0  0
    5.1505  -12.3185   26.6713 C   0  0  0  0  0  0  0  0  0  0  0  0
    6.1132  -11.3722   26.4183 C   0  0  0  0  0  0  0  0  0  0  0  0
    7.3767  -11.7876   26.0552 C   0  0  0  0  0  0  0  0  0  0  0  0
    7.6709  -13.1521   25.9470 C   0  0  0  0  0  0  0  0  0  0  0  0
    7.8098  -16.5660   24.0258 C   0  0  0  0  0  0  0  0  0  0  0  0
    8.3240  -17.6534   24.4143 O   0  0  0  0  0  0  0  0  0  0  0  0
    8.4017  -15.8424   22.9524 N   0  0  0  0  0  0  0  0  0  0  0  0
    9.6042  -16.3313   22.3630 C   0  0  1  0  0  0  0  0  0  0  0  0
   10.0102  -15.3875   21.2326 C   0  0  0  0  0  0  0  0  0  0  0  0
   11.5534  -16.0329   20.5081 S   0  0  0  0  0  0  0  0  0  0  0  0
   10.7108  -16.4849   23.3451 C   0  0  0  0  0  0  0  0  0  0  0  0
   11.1350  -15.4903   23.9878 O   0  0  0  0  0  0  0  0  0  0  0  0
   11.3658  -18.2274   26.6734 C   0  0  0  0  0  0  0  0  0  0  0  0
   12.2538  -18.8111   25.6256 C   0  0  1  0  0  0  0  0  0  0  0  0
   11.6188  -19.9607   25.1154 O   0  0  0  0  0  0  0  0  0  0  0  0
   12.4872  -17.8931   24.4517 C   0  0  2  0  0  0  0  0  0  0  0  0
   11.3412  -17.7322   23.6115 N   0  0  0  0  0  0  0  0  0  0  0  0
   13.6925  -18.3292   23.6922 C   0  0  0  0  0  0  0  0  0  0  0  0
   14.9327  -18.3016   24.3356 O   0  0  0  0  0  0  0  0  0  0  0  0
   13.6630  -18.7174   22.5176 O   0  0  0  0  0  0  0  0  0  0  0  0
  2  1  1  1
  2 10  1  0
  3  2  1  0
  4  5  2  0
  4  3  1  0
  6  5  1  0
  7  6  2  0
  8  7  1  0
  8  9  2  0
  9  4  1  0
 10 12  1  0
 10 11  2  0
 12 13  1  0
 13 14  1  6
 14 15  1  0
 16 13  1  0
 16 17  2  0
 19 18  1  1
 19 20  1  0
 19 21  1  0
 21 22  1  6
 22 16  1  0
 23 21  1  0
 24 23  1  0
 25 23  2  0
M  END
$$$$
