FCT.pdb
     RDKit          3D

 25 25  0  0  1  0  0  0  0  0999 V2000
    7.2129  -14.0756   23.4289 N   0  0  0  0  0  0  0  0  0  0  0  0
    8.1183  -15.1794   23.3499 C   0  0  1  0  0  0  0  0  0  0  0  0
    8.8768  -15.0348   22.0285 C   0  0  0  0  0  0  0  0  0  0  0  0
    8.1077  -14.2532   21.0371 C   0  0  0  0  0  0  0  0  0  0  0  0
    8.3634  -12.9224   20.8100 C   0  0  0  0  0  0  0  0  0  0  0  0
    7.6276  -12.1929   19.8692 C   0  0  0  0  0  0  0  0  0  0  0  0
    6.6279  -12.8016   19.1503 C   0  0  0  0  0  0  0  0  0  0  0  0
    6.3655  -14.1366   19.3725 C   0  0  0  0  0  0  0  0  0  0  0  0
    7.1071  -14.8578   20.3159 C   0  0  0  0  0  0  0  0  0  0  0  0
    9.1165  -15.2272   24.4282 C   0  0  0  0  0  0  0  0  0  0  0  0
   10.2137  -14.6351   24.2202 O   0  0  0  0  0  0  0  0  0  0  0  0
    8.8935  -15.8993   25.6630 N   0  0  0  0  0  0  0  0  0  0  0  0
    9.8732  -15.8038   26.6943 C   0  0  1  0  0  0  0  0  0  0  0  0
    9.4936  -14.6496   27.6200 C   0  0  0  0  0  0  0  0  0  0  0  0
   10.7502  -14.5688   28.9381 S   0  0  0  0  0  0  0  0  0  0  0  0
   10.0309  -17.0672   27.4634 C   0  0  0  0  0  0  0  0  0  0  0  0
    9.0912  -17.4986   28.1796 O   0  0  0  0  0  0  0  0  0  0  0  0
   12.7239  -21.1951   28.3674 C   0  0  0  0  0  0  0  0  0  0  0  0
   12.5970  -19.8690   27.6947 C   0  0  1  0  0  0  0  0  0  0  0  0
   12.4276  -20.1009   26.3153 O   0  0  0  0  0  0  0  0  0  0  0  0
   11.3971  -19.0746   28.1468 C   0  0  2  0  0  0  0  0  0  0  0  0
   11.2219  -17.8450   27.4377 N   0  0  0  0  0  0  0  0  0  0  0  0
   11.4391  -18.8788   29.6231 C   0  0  0  0  0  0  0  0  0  0  0  0
   10.9336  -19.8895   30.4449 O   0  0  0  0  0  0  0  0  0  0  0  0
   11.8977  -17.8683   30.1709 O   0  0  0  0  0  0  0  0  0  0  0  0
  2  1  1  1
  2 10  1  0
  3  2  1  0
  4  5  2  0
  4  3  1  0
  6  5  1  0
  7  6  2  0
  8  7  1  0
  8  9  2  0
  9  4  1  0
 10 12  1  0
 10 11  2  0
 12 13  1  0
 13 14  1  1
 14 15  1  0
 16 13  1  0
 16 17  2  0
 19 18  1  1
 19 20  1  0
 19 21  1  0
 21 22  1  6
 22 16  1  0
 23 21  1  0
 24 23  1  0
 25 23  2  0
M  END
$$$$
