FCT.pdb
     RDKit          3D

 25 25  0  0  1  0  0  0  0  0999 V2000
    7.0678  -16.9634   23.6584 N   0  0  0  0  0  0  0  0  0  0  0  0
    7.2648  -15.6465   24.1794 C   0  0  1  0  0  0  0  0  0  0  0  0
    6.5270  -15.5866   25.5190 C   0  0  0  0  0  0  0  0  0  0  0  0
    6.5808  -14.2347   26.1150 C   0  0  0  0  0  0  0  0  0  0  0  0
    7.3693  -13.9562   27.2052 C   0  0  0  0  0  0  0  0  0  0  0  0
    7.4109  -12.6724   27.7610 C   0  0  0  0  0  0  0  0  0  0  0  0
    6.6566  -11.6599   27.2201 C   0  0  0  0  0  0  0  0  0  0  0  0
    5.8630  -11.9316   26.1261 C   0  0  0  0  0  0  0  0  0  0  0  0
    5.8281  -13.2192   25.5774 C   0  0  0  0  0  0  0  0  0  0  0  0
    8.6697  -15.2957   24.4338 C   0  0  0  0  0  0  0  0  0  0  0  0
    8.9104  -14.1009   24.7690 O   0  0  0  0  0  0  0  0  0  0  0  0
    9.7364  -16.2310   24.3182 N   0  0  0  0  0  0  0  0  0  0  0  0
   11.0765  -15.7862   24.5149 C   0  0  1  0  0  0  0  0  0  0  0  0
   11.2805  -15.5001   26.0014 C   0  0  0  0  0  0  0  0  0  0  0  0
   10.4643  -16.8373   26.9335 S   0  0  0  0  0  0  0  0  0  0  0  0
   12.0886  -16.7579   24.0209 C   0  0  0  0  0  0  0  0  0  0  0  0
   11.7507  -17.9307   23.7170 O   0  0  0  0  0  0  0  0  0  0  0  0
   12.1441  -16.9049   21.4185 C   0  0  0  0  0  0  0  0  0  0  0  0
   13.6082  -16.6155   21.4165 C   0  0  1  0  0  0  0  0  0  0  0  0
   13.7766  -15.2519   21.1046 O   0  0  0  0  0  0  0  0  0  0  0  0
   14.2690  -16.8345   22.7546 C   0  0  2  0  0  0  0  0  0  0  0  0
   13.4644  -16.4302   23.8657 N   0  0  0  0  0  0  0  0  0  0  0  0
   15.6179  -16.2022   22.7693 C   0  0  0  0  0  0  0  0  0  0  0  0
   15.8546  -15.1558   23.6646 O   0  0  0  0  0  0  0  0  0  0  0  0
   16.5490  -16.5491   22.0318 O   0  0  0  0  0  0  0  0  0  0  0  0
  2  1  1  1
  2 10  1  0
  3  2  1  0
  4  5  2  0
  4  3  1  0
  6  5  1  0
  7  6  2  0
  8  7  1  0
  8  9  2  0
  9  4  1  0
 10 12  1  0
 10 11  2  0
 12 13  1  0
 13 14  1  1
 14 15  1  0
 16 13  1  0
 16 17  2  0
 19 18  1  1
 19 20  1  0
 19 21  1  0
 21 22  1  1
 22 16  1  0
 23 21  1  0
 24 23  1  0
 25 23  2  0
M  END
$$$$
