FCT.pdb
     RDKit          3D

 25 25  0  0  1  0  0  0  0  0999 V2000
    6.1168  -17.8508   25.8936 N   0  0  0  0  0  0  0  0  0  0  0  0
    6.4481  -16.5292   25.4604 C   0  0  1  0  0  0  0  0  0  0  0  0
    7.2801  -15.8939   26.5768 C   0  0  0  0  0  0  0  0  0  0  0  0
    7.0182  -14.4441   26.6992 C   0  0  0  0  0  0  0  0  0  0  0  0
    8.0375  -13.5360   26.8551 C   0  0  0  0  0  0  0  0  0  0  0  0
    7.7766  -12.1659   26.9708 C   0  0  0  0  0  0  0  0  0  0  0  0
    6.4844  -11.7021   26.9301 C   0  0  0  0  0  0  0  0  0  0  0  0
    5.4562  -12.6071   26.7740 C   0  0  0  0  0  0  0  0  0  0  0  0
    5.7275  -13.9758   26.6591 C   0  0  0  0  0  0  0  0  0  0  0  0
    7.2485  -16.4744   24.2284 C   0  0  0  0  0  0  0  0  0  0  0  0
    8.0326  -17.4418   24.0109 O   0  0  0  0  0  0  0  0  0  0  0  0
    7.1711  -15.3984   23.2998 N   0  0  0  0  0  0  0  0  0  0  0  0
    7.8918  -15.4848   22.0728 C   0  0  1  0  0  0  0  0  0  0  0  0
    7.7037  -14.1776   21.3054 C   0  0  0  0  0  0  0  0  0  0  0  0
    8.4721  -14.3895   19.6660 S   0  0  0  0  0  0  0  0  0  0  0  0
    9.3369  -15.7786   22.2683 C   0  0  0  0  0  0  0  0  0  0  0  0
   10.0117  -15.1277   23.1068 O   0  0  0  0  0  0  0  0  0  0  0  0
   13.0953  -18.9881   21.8400 C   0  0  0  0  0  0  0  0  0  0  0  0
   11.6689  -18.6177   21.6049 C   0  0  1  0  0  0  0  0  0  0  0  0
   10.8890  -19.2691   22.5809 O   0  0  0  0  0  0  0  0  0  0  0  0
   11.3958  -17.1417   21.7523 C   0  0  2  0  0  0  0  0  0  0  0  0
   10.0269  -16.7866   21.5390 N   0  0  0  0  0  0  0  0  0  0  0  0
   12.3270  -16.3600   20.8912 C   0  0  0  0  0  0  0  0  0  0  0  0
   13.4687  -15.8049   21.4752 O   0  0  0  0  0  0  0  0  0  0  0  0
   12.1505  -16.1704   19.6811 O   0  0  0  0  0  0  0  0  0  0  0  0
  2  1  1  1
  2 10  1  0
  3  2  1  0
  4  5  2  0
  4  3  1  0
  6  5  1  0
  7  6  2  0
  8  7  1  0
  8  9  2  0
  9  4  1  0
 10 12  1  0
 10 11  2  0
 12 13  1  0
 13 14  1  1
 14 15  1  0
 16 13  1  0
 16 17  2  0
 19 18  1  1
 19 20  1  0
 19 21  1  0
 21 22  1  6
 22 16  1  0
 23 21  1  0
 24 23  1  0
 25 23  2  0
M  END
$$$$
