FCT.pdb
     RDKit          3D

 25 25  0  0  1  0  0  0  0  0999 V2000
    5.8317  -16.4038   24.9536 N   0  0  0  0  0  0  0  0  0  0  0  0
    6.8027  -16.1195   23.9434 C   0  0  1  0  0  0  0  0  0  0  0  0
    6.7165  -14.6183   23.6579 C   0  0  0  0  0  0  0  0  0  0  0  0
    6.8592  -13.8161   24.8915 C   0  0  0  0  0  0  0  0  0  0  0  0
    5.8338  -13.6959   25.7983 C   0  0  0  0  0  0  0  0  0  0  0  0
    5.9809  -12.9328   26.9621 C   0  0  0  0  0  0  0  0  0  0  0  0
    7.1645  -12.2851   27.2195 C   0  0  0  0  0  0  0  0  0  0  0  0
    8.1979  -12.4009   26.3144 C   0  0  0  0  0  0  0  0  0  0  0  0
    8.0411  -13.1667   25.1529 C   0  0  0  0  0  0  0  0  0  0  0  0
    8.1897  -16.4156   24.3306 C   0  0  0  0  0  0  0  0  0  0  0  0
    8.3783  -16.8404   25.5061 O   0  0  0  0  0  0  0  0  0  0  0  0
    9.2948  -16.2443   23.4500 N   0  0  0  0  0  0  0  0  0  0  0  0
   10.5705  -16.7575   23.8261 C   0  0  1  0  0  0  0  0  0  0  0  0
   11.5456  -16.5295   22.6727 C   0  0  0  0  0  0  0  0  0  0  0  0
   13.0958  -17.3946   23.0869 S   0  0  0  0  0  0  0  0  0  0  0  0
   11.0903  -16.1556   25.0832 C   0  0  0  0  0  0  0  0  0  0  0  0
   11.6776  -15.0435   25.0618 O   0  0  0  0  0  0  0  0  0  0  0  0
   10.3736  -14.1215   27.6557 C   0  0  0  0  0  0  0  0  0  0  0  0
   10.7232  -15.3869   28.3655 C   0  0  1  0  0  0  0  0  0  0  0  0
    9.5239  -16.0787   28.6268 O   0  0  0  0  0  0  0  0  0  0  0  0
   11.5867  -16.3176   27.5511 C   0  0  2  0  0  0  0  0  0  0  0  0
   10.9590  -16.7830   26.3533 N   0  0  0  0  0  0  0  0  0  0  0  0
   12.0826  -17.4339   28.4041 C   0  0  0  0  0  0  0  0  0  0  0  0
   12.8793  -17.1256   29.5100 O   0  0  0  0  0  0  0  0  0  0  0  0
   11.8307  -18.6268   28.1921 O   0  0  0  0  0  0  0  0  0  0  0  0
  2  1  1  1
  2 10  1  0
  3  2  1  0
  4  5  2  0
  4  3  1  0
  6  5  1  0
  7  6  2  0
  8  7  1  0
  8  9  2  0
  9  4  1  0
 10 12  1  0
 10 11  2  0
 12 13  1  0
 13 14  1  6
 14 15  1  0
 16 13  1  0
 16 17  2  0
 19 18  1  6
 19 20  1  0
 19 21  1  0
 21 22  1  6
 22 16  1  0
 23 21  1  0
 24 23  1  0
 25 23  2  0
M  END
$$$$
