FCT.pdb
     RDKit          3D

 25 25  0  0  1  0  0  0  0  0999 V2000
    6.3051  -17.2762   25.9892 N   0  0  0  0  0  0  0  0  0  0  0  0
    6.7063  -17.1145   24.6264 C   0  0  1  0  0  0  0  0  0  0  0  0
    6.1197  -15.7842   24.1481 C   0  0  0  0  0  0  0  0  0  0  0  0
    6.5472  -14.6569   25.0036 C   0  0  0  0  0  0  0  0  0  0  0  0
    7.5289  -13.7807   24.6077 C   0  0  0  0  0  0  0  0  0  0  0  0
    7.9255  -12.7178   25.4271 C   0  0  0  0  0  0  0  0  0  0  0  0
    7.3340  -12.5312   26.6526 C   0  0  0  0  0  0  0  0  0  0  0  0
    6.3483  -13.4061   27.0568 C   0  0  0  0  0  0  0  0  0  0  0  0
    5.9584  -14.4665   26.2300 C   0  0  0  0  0  0  0  0  0  0  0  0
    8.1610  -17.0535   24.4225 C   0  0  0  0  0  0  0  0  0  0  0  0
    8.8640  -17.8927   25.0545 O   0  0  0  0  0  0  0  0  0  0  0  0
    8.7850  -16.1074   23.5614 N   0  0  0  0  0  0  0  0  0  0  0  0
   10.1946  -16.1740   23.3592 C   0  0  1  0  0  0  0  0  0  0  0  0
   10.5881  -15.1190   22.3270 C   0  0  0  0  0  0  0  0  0  0  0  0
    9.6173  -15.4406   20.8180 S   0  0  0  0  0  0  0  0  0  0  0  0
   10.9699  -15.9971   24.6163 C   0  0  0  0  0  0  0  0  0  0  0  0
   11.9347  -15.1913   24.6619 O   0  0  0  0  0  0  0  0  0  0  0  0
   10.9885  -13.8938   26.5738 C   0  0  0  0  0  0  0  0  0  0  0  0
   10.7019  -14.9767   27.5599 C   0  0  1  0  0  0  0  0  0  0  0  0
    9.3042  -15.0543   27.7195 O   0  0  0  0  0  0  0  0  0  0  0  0
   11.1586  -16.3414   27.1081 C   0  0  2  0  0  0  0  0  0  0  0  0
   10.6765  -16.7088   25.8127 N   0  0  0  0  0  0  0  0  0  0  0  0
   10.8336  -17.3599   28.1458 C   0  0  0  0  0  0  0  0  0  0  0  0
   11.4251  -17.2405   29.4062 O   0  0  0  0  0  0  0  0  0  0  0  0
   10.0661  -18.3125   27.9590 O   0  0  0  0  0  0  0  0  0  0  0  0
  2  1  1  1
  2 10  1  0
  3  2  1  0
  4  5  2  0
  4  3  1  0
  6  5  1  0
  7  6  2  0
  8  7  1  0
  8  9  2  0
  9  4  1  0
 10 12  1  0
 10 11  2  0
 12 13  1  0
 13 14  1  6
 14 15  1  0
 16 13  1  0
 16 17  2  0
 19 18  1  6
 19 20  1  0
 19 21  1  0
 21 22  1  6
 22 16  1  0
 23 21  1  0
 24 23  1  0
 25 23  2  0
M  END
$$$$
