FCT.pdb
     RDKit          3D

 25 25  0  0  1  0  0  0  0  0999 V2000
    8.0982  -13.8067   20.2004 N   0  0  0  0  0  0  0  0  0  0  0  0
    7.4364  -14.6230   21.1699 C   0  0  1  0  0  0  0  0  0  0  0  0
    7.5509  -16.0691   20.6820 C   0  0  0  0  0  0  0  0  0  0  0  0
    6.9365  -17.0194   21.6333 C   0  0  0  0  0  0  0  0  0  0  0  0
    5.5783  -17.2226   21.6766 C   0  0  0  0  0  0  0  0  0  0  0  0
    5.0086  -18.1244   22.5825 C   0  0  0  0  0  0  0  0  0  0  0  0
    5.8059  -18.8282   23.4517 C   0  0  0  0  0  0  0  0  0  0  0  0
    7.1696  -18.6299   23.4142 C   0  0  0  0  0  0  0  0  0  0  0  0
    7.7301  -17.7254   22.5043 C   0  0  0  0  0  0  0  0  0  0  0  0
    8.0219  -14.5648   22.5172 C   0  0  0  0  0  0  0  0  0  0  0  0
    9.2803  -14.4703   22.5917 O   0  0  0  0  0  0  0  0  0  0  0  0
    7.2402  -14.6101   23.7059 N   0  0  0  0  0  0  0  0  0  0  0  0
    7.8585  -14.3196   24.9571 C   0  0  1  0  0  0  0  0  0  0  0  0
    7.0335  -13.2502   25.6705 C   0  0  0  0  0  0  0  0  0  0  0  0
    7.8461  -12.9050   27.2653 S   0  0  0  0  0  0  0  0  0  0  0  0
    8.0201  -15.5224   25.8173 C   0  0  0  0  0  0  0  0  0  0  0  0
    7.0920  -16.3658   25.9142 O   0  0  0  0  0  0  0  0  0  0  0  0
    9.3947  -17.9935   24.6533 C   0  0  0  0  0  0  0  0  0  0  0  0
   10.2338  -17.9144   25.8849 C   0  0  1  0  0  0  0  0  0  0  0  0
   11.4441  -17.2807   25.5407 O   0  0  0  0  0  0  0  0  0  0  0  0
    9.6151  -17.0891   26.9854 C   0  0  2  0  0  0  0  0  0  0  0  0
    9.2022  -15.7865   26.5637 N   0  0  0  0  0  0  0  0  0  0  0  0
   10.5247  -17.0435   28.1645 C   0  0  0  0  0  0  0  0  0  0  0  0
   10.9248  -15.7960   28.6507 O   0  0  0  0  0  0  0  0  0  0  0  0
   10.9511  -18.0501   28.7445 O   0  0  0  0  0  0  0  0  0  0  0  0
  2  1  1  6
  2 10  1  0
  3  2  1  0
  4  5  2  0
  4  3  1  0
  6  5  1  0
  7  6  2  0
  8  7  1  0
  8  9  2  0
  9  4  1  0
 10 12  1  0
 10 11  2  0
 12 13  1  0
 13 14  1  1
 14 15  1  0
 16 13  1  0
 16 17  2  0
 19 18  1  6
 19 20  1  0
 19 21  1  0
 21 22  1  6
 22 16  1  0
 23 21  1  0
 24 23  1  0
 25 23  2  0
M  END
$$$$
