FCT.pdb
     RDKit          3D

 25 25  0  0  1  0  0  0  0  0999 V2000
    5.9939  -18.3011   25.6571 N   0  0  0  0  0  0  0  0  0  0  0  0
    6.3757  -16.9428   25.4258 C   0  0  1  0  0  0  0  0  0  0  0  0
    7.0783  -16.4589   26.6964 C   0  0  0  0  0  0  0  0  0  0  0  0
    7.2668  -14.9926   26.6947 C   0  0  0  0  0  0  0  0  0  0  0  0
    8.5114  -14.4236   26.8187 C   0  0  0  0  0  0  0  0  0  0  0  0
    8.6767  -13.0339   26.8165 C   0  0  0  0  0  0  0  0  0  0  0  0
    7.5867  -12.2080   26.6892 C   0  0  0  0  0  0  0  0  0  0  0  0
    6.3347  -12.7714   26.5644 C   0  0  0  0  0  0  0  0  0  0  0  0
    6.1795  -14.1628   26.5676 C   0  0  0  0  0  0  0  0  0  0  0  0
    7.3101  -16.7546   24.3065 C   0  0  0  0  0  0  0  0  0  0  0  0
    8.1875  -17.6485   24.1358 O   0  0  0  0  0  0  0  0  0  0  0  0
    7.2600  -15.6309   23.4342 N   0  0  0  0  0  0  0  0  0  0  0  0
    8.1732  -15.5564   22.3419 C   0  0  1  0  0  0  0  0  0  0  0  0
    7.6989  -14.4641   21.3854 C   0  0  0  0  0  0  0  0  0  0  0  0
    6.2231  -15.0956   20.5215 S   0  0  0  0  0  0  0  0  0  0  0  0
    9.5748  -15.3077   22.7735 C   0  0  0  0  0  0  0  0  0  0  0  0
    9.8125  -14.6402   23.8128 O   0  0  0  0  0  0  0  0  0  0  0  0
   11.1474  -16.3814   24.9403 C   0  0  0  0  0  0  0  0  0  0  0  0
   12.0384  -16.8460   23.8370 C   0  0  1  0  0  0  0  0  0  0  0  0
   11.5812  -18.1114   23.4189 O   0  0  0  0  0  0  0  0  0  0  0  0
   12.0080  -15.9552   22.6202 C   0  0  2  0  0  0  0  0  0  0  0  0
   10.7030  -15.7959   22.0573 N   0  0  0  0  0  0  0  0  0  0  0  0
   13.0065  -16.4226   21.6181 C   0  0  0  0  0  0  0  0  0  0  0  0
   14.3624  -16.2030   21.8746 O   0  0  0  0  0  0  0  0  0  0  0  0
   12.7068  -16.9979   20.5642 O   0  0  0  0  0  0  0  0  0  0  0  0
  2  1  1  1
  2 10  1  0
  3  2  1  0
  4  5  2  0
  4  3  1  0
  6  5  1  0
  7  6  2  0
  8  7  1  0
  8  9  2  0
  9  4  1  0
 10 12  1  0
 10 11  2  0
 12 13  1  0
 13 14  1  6
 14 15  1  0
 16 13  1  0
 16 17  2  0
 19 18  1  1
 19 20  1  0
 19 21  1  0
 21 22  1  6
 22 16  1  0
 23 21  1  0
 24 23  1  0
 25 23  2  0
M  END
$$$$
