GFI.pdb
     RDKit          3D

 24 24  0  0  1  0  0  0  0  0999 V2000
   11.1242  -17.7606   19.6594 N   0  0  0  0  0  0  0  0  0  0  0  0
   10.1267  -18.1091   20.6569 C   0  0  0  0  0  0  0  0  0  0  0  0
    9.9295  -16.9113   21.5368 C   0  0  0  0  0  0  0  0  0  0  0  0
   10.7322  -15.9351   21.5152 O   0  0  0  0  0  0  0  0  0  0  0  0
    8.8364  -16.8146   22.4338 N   0  0  0  0  0  0  0  0  0  0  0  0
    8.6952  -15.7177   23.3741 C   0  0  1  0  0  0  0  0  0  0  0  0
    7.2907  -15.2877   23.4822 C   0  0  0  0  0  0  0  0  0  0  0  0
    6.9641  -14.1518   24.3181 C   0  0  0  0  0  0  0  0  0  0  0  0
    7.4172  -12.8995   23.9582 C   0  0  0  0  0  0  0  0  0  0  0  0
    7.1427  -11.7558   24.7028 C   0  0  0  0  0  0  0  0  0  0  0  0
    6.3901  -11.8688   25.8454 C   0  0  0  0  0  0  0  0  0  0  0  0
    5.9269  -13.1134   26.2236 C   0  0  0  0  0  0  0  0  0  0  0  0
    6.2093  -14.2142   25.4785 C   0  0  0  0  0  0  0  0  0  0  0  0
    9.2187  -16.1686   24.7212 C   0  0  0  0  0  0  0  0  0  0  0  0
    8.9464  -17.3266   25.0813 O   0  0  0  0  0  0  0  0  0  0  0  0
   11.5373  -14.0810   29.7221 C   0  0  0  0  0  0  0  0  0  0  0  0
   10.4240  -14.9906   29.2541 C   0  0  0  0  0  0  0  0  0  0  0  0
    9.9401  -14.6124   27.8758 C   0  0  2  0  0  0  0  0  0  0  0  0
    8.4156  -14.6951   27.9307 C   0  0  0  0  0  0  0  0  0  0  0  0
   10.4451  -15.6346   26.8592 C   0  0  2  0  0  0  0  0  0  0  0  0
    9.9790  -15.3178   25.5304 N   0  0  0  0  0  0  0  0  0  0  0  0
   10.1354  -17.0065   27.2502 C   0  0  0  0  0  0  0  0  0  0  0  0
   11.0068  -17.7842   27.7361 O   0  0  0  0  0  0  0  0  0  0  0  0
    8.8554  -17.5163   27.1016 O   0  0  0  0  0  0  0  0  0  0  0  0
  1  2  1  0
  3  2  1  0
  4  3  2  0
  5  3  1  0
  6 14  1  0
  6  5  1  0
  6  7  1  1
  8  7  1  0
  9  8  2  0
 10 11  2  0
 10  9  1  0
 11 12  1  0
 12 13  2  0
 13  8  1  0
 14 21  1  0
 15 14  2  0
 17 16  1  0
 18 17  1  0
 18 19  1  1
 20 18  1  0
 20 22  1  0
 20 21  1  6
 22 23  2  0
 22 24  1  0
M  END
$$$$
