GFI.pdb
     RDKit          3D

 24 24  0  0  1  0  0  0  0  0999 V2000
   11.6826  -16.8888   19.7048 N   0  0  0  0  0  0  0  0  0  0  0  0
   10.5299  -17.4075   20.4216 C   0  0  0  0  0  0  0  0  0  0  0  0
   10.3284  -16.5496   21.6347 C   0  0  0  0  0  0  0  0  0  0  0  0
   11.2695  -15.8603   22.1214 O   0  0  0  0  0  0  0  0  0  0  0  0
    9.0762  -16.4695   22.2938 N   0  0  0  0  0  0  0  0  0  0  0  0
    8.8471  -15.5911   23.4265 C   0  0  1  0  0  0  0  0  0  0  0  0
    7.4333  -15.1864   23.5079 C   0  0  0  0  0  0  0  0  0  0  0  0
    7.0284  -14.2423   24.5280 C   0  0  0  0  0  0  0  0  0  0  0  0
    6.2163  -14.6715   25.5573 C   0  0  0  0  0  0  0  0  0  0  0  0
    5.7873  -13.8301   26.5799 C   0  0  0  0  0  0  0  0  0  0  0  0
    6.1836  -12.5157   26.5723 C   0  0  0  0  0  0  0  0  0  0  0  0
    6.9964  -12.0657   25.5508 C   0  0  0  0  0  0  0  0  0  0  0  0
    7.4012  -12.9082   24.5644 C   0  0  0  0  0  0  0  0  0  0  0  0
    9.2671  -16.3141   24.6885 C   0  0  0  0  0  0  0  0  0  0  0  0
    9.0446  -17.5356   24.7480 O   0  0  0  0  0  0  0  0  0  0  0  0
   10.5334  -12.8951   28.8068 C   0  0  0  0  0  0  0  0  0  0  0  0
   10.6383  -13.8983   27.6806 C   0  0  0  0  0  0  0  0  0  0  0  0
   10.2745  -15.2888   28.1398 C   0  0  2  0  0  0  0  0  0  0  0  0
   11.3353  -15.6807   29.1670 C   0  0  0  0  0  0  0  0  0  0  0  0
   10.3614  -16.2552   26.9600 C   0  0  2  0  0  0  0  0  0  0  0  0
    9.8814  -15.6369   25.7473 N   0  0  0  0  0  0  0  0  0  0  0  0
    9.7067  -17.5302   27.2369 C   0  0  0  0  0  0  0  0  0  0  0  0
    8.4486  -17.6616   27.2211 O   0  0  0  0  0  0  0  0  0  0  0  0
   10.4501  -18.6618   27.5319 O   0  0  0  0  0  0  0  0  0  0  0  0
  1  2  1  0
  3  2  1  0
  4  3  2  0
  5  3  1  0
  6 14  1  0
  6  5  1  0
  6  7  1  1
  8  7  1  0
  9  8  2  0
 10 11  2  0
 10  9  1  0
 11 12  1  0
 12 13  2  0
 13  8  1  0
 14 21  1  0
 15 14  2  0
 17 16  1  0
 18 17  1  0
 18 19  1  1
 20 18  1  0
 20 22  1  0
 20 21  1  6
 22 23  2  0
 22 24  1  0
M  END
$$$$
