GFI.pdb
     RDKit          3D

 24 24  0  0  1  0  0  0  0  0999 V2000
    4.7563  -19.8130   23.5690 N   0  0  0  0  0  0  0  0  0  0  0  0
    5.0440  -18.3983   23.4033 C   0  0  0  0  0  0  0  0  0  0  0  0
    6.5134  -18.2640   23.1374 C   0  0  0  0  0  0  0  0  0  0  0  0
    7.2901  -19.2594   23.1954 O   0  0  0  0  0  0  0  0  0  0  0  0
    7.1025  -17.0175   22.8087 N   0  0  0  0  0  0  0  0  0  0  0  0
    8.5183  -16.8769   22.5207 C   0  0  1  0  0  0  0  0  0  0  0  0
    8.7336  -16.2496   21.2057 C   0  0  0  0  0  0  0  0  0  0  0  0
    8.1971  -14.9278   20.9594 C   0  0  0  0  0  0  0  0  0  0  0  0
    9.0659  -13.8675   20.8044 C   0  0  0  0  0  0  0  0  0  0  0  0
    8.6327  -12.5675   20.5592 C   0  0  0  0  0  0  0  0  0  0  0  0
    7.2854  -12.3201   20.4662 C   0  0  0  0  0  0  0  0  0  0  0  0
    6.3987  -13.3676   20.6185 C   0  0  0  0  0  0  0  0  0  0  0  0
    6.8482  -14.6275   20.8572 C   0  0  0  0  0  0  0  0  0  0  0  0
    9.1519  -16.0465   23.6165 C   0  0  0  0  0  0  0  0  0  0  0  0
   10.3866  -15.9065   23.5857 O   0  0  0  0  0  0  0  0  0  0  0  0
    6.0062  -12.4924   26.7734 C   0  0  0  0  0  0  0  0  0  0  0  0
    6.7196  -13.7279   26.2728 C   0  0  0  0  0  0  0  0  0  0  0  0
    8.1856  -13.4635   26.0323 C   0  0  2  0  0  0  0  0  0  0  0  0
    8.2556  -12.6286   24.7547 C   0  0  0  0  0  0  0  0  0  0  0  0
    8.9094  -14.7863   25.7876 C   0  0  2  0  0  0  0  0  0  0  0  0
    8.3809  -15.4588   24.6250 N   0  0  0  0  0  0  0  0  0  0  0  0
    8.9225  -15.6396   26.9718 C   0  0  0  0  0  0  0  0  0  0  0  0
    8.3312  -16.7574   27.0063 O   0  0  0  0  0  0  0  0  0  0  0  0
    9.5935  -15.2514   28.1204 O   0  0  0  0  0  0  0  0  0  0  0  0
  1  2  1  0
  3  2  1  0
  4  3  2  0
  5  3  1  0
  6 14  1  0
  6  5  1  0
  6  7  1  6
  8  7  1  0
  9  8  2  0
 10 11  2  0
 10  9  1  0
 11 12  1  0
 12 13  2  0
 13  8  1  0
 14 21  1  0
 15 14  2  0
 17 16  1  0
 18 17  1  0
 18 19  1  6
 20 18  1  0
 20 22  1  0
 20 21  1  6
 22 23  2  0
 22 24  1  0
M  END
$$$$
