GFI.pdb
     RDKit          3D

 24 24  0  0  1  0  0  0  0  0999 V2000
   11.4091  -16.9349   19.6856 N   0  0  0  0  0  0  0  0  0  0  0  0
   10.2250  -17.3931   20.3924 C   0  0  0  0  0  0  0  0  0  0  0  0
   10.0379  -16.5038   21.5849 C   0  0  0  0  0  0  0  0  0  0  0  0
   10.9659  -15.7551   22.0041 O   0  0  0  0  0  0  0  0  0  0  0  0
    8.8144  -16.4589   22.2991 N   0  0  0  0  0  0  0  0  0  0  0  0
    8.6303  -15.6312   23.4773 C   0  0  1  0  0  0  0  0  0  0  0  0
    7.2278  -15.2024   23.6119 C   0  0  0  0  0  0  0  0  0  0  0  0
    6.8761  -14.2599   24.6529 C   0  0  0  0  0  0  0  0  0  0  0  0
    7.1619  -12.9223   24.4738 C   0  0  0  0  0  0  0  0  0  0  0  0
    6.8517  -11.9515   25.4220 C   0  0  0  0  0  0  0  0  0  0  0  0
    6.2352  -12.3316   26.5883 C   0  0  0  0  0  0  0  0  0  0  0  0
    5.9405  -13.6659   26.7875 C   0  0  0  0  0  0  0  0  0  0  0  0
    6.2541  -14.5935   25.8454 C   0  0  0  0  0  0  0  0  0  0  0  0
    9.0639  -16.4221   24.6933 C   0  0  0  0  0  0  0  0  0  0  0  0
    8.8291  -17.6427   24.6942 O   0  0  0  0  0  0  0  0  0  0  0  0
   10.5982  -13.8140   29.6102 C   0  0  0  0  0  0  0  0  0  0  0  0
    9.9707  -14.8527   28.7085 C   0  0  0  0  0  0  0  0  0  0  0  0
   11.0006  -15.5229   27.8327 C   0  0  2  0  0  0  0  0  0  0  0  0
   11.6315  -14.4075   27.0009 C   0  0  0  0  0  0  0  0  0  0  0  0
   10.3071  -16.5010   26.8861 C   0  0  2  0  0  0  0  0  0  0  0  0
    9.7035  -15.8062   25.7742 N   0  0  0  0  0  0  0  0  0  0  0  0
    9.3649  -17.3729   27.5810 C   0  0  0  0  0  0  0  0  0  0  0  0
    8.1120  -17.2545   27.4512 O   0  0  0  0  0  0  0  0  0  0  0  0
    9.8142  -18.3786   28.4218 O   0  0  0  0  0  0  0  0  0  0  0  0
  1  2  1  0
  3  2  1  0
  4  3  2  0
  5  3  1  0
  6 14  1  0
  6  5  1  0
  6  7  1  1
  8  7  1  0
  9  8  2  0
 10 11  2  0
 10  9  1  0
 11 12  1  0
 12 13  2  0
 13  8  1  0
 14 21  1  0
 15 14  2  0
 17 16  1  0
 18 17  1  0
 18 19  1  6
 20 18  1  0
 20 22  1  0
 20 21  1  6
 22 23  2  0
 22 24  1  0
M  END
$$$$
