GFI.pdb
     RDKit          3D

 24 24  0  0  1  0  0  0  0  0999 V2000
   11.4584  -17.2856   19.5474 N   0  0  0  0  0  0  0  0  0  0  0  0
   10.3121  -17.6661   20.3554 C   0  0  0  0  0  0  0  0  0  0  0  0
   10.0992  -16.5871   21.3745 C   0  0  0  0  0  0  0  0  0  0  0  0
   10.9717  -15.6981   21.5890 O   0  0  0  0  0  0  0  0  0  0  0  0
    8.9124  -16.5110   22.1456 N   0  0  0  0  0  0  0  0  0  0  0  0
    8.7313  -15.5319   23.2018 C   0  0  1  0  0  0  0  0  0  0  0  0
    7.3157  -15.1471   23.3331 C   0  0  0  0  0  0  0  0  0  0  0  0
    6.9509  -14.1168   24.2823 C   0  0  0  0  0  0  0  0  0  0  0  0
    6.2614  -14.4682   25.4244 C   0  0  0  0  0  0  0  0  0  0  0  0
    5.8786  -13.5407   26.3893 C   0  0  0  0  0  0  0  0  0  0  0  0
    6.1960  -12.2177   26.2054 C   0  0  0  0  0  0  0  0  0  0  0  0
    6.8857  -11.8448   25.0687 C   0  0  0  0  0  0  0  0  0  0  0  0
    7.2476  -12.7705   24.1422 C   0  0  0  0  0  0  0  0  0  0  0  0
    9.2447  -16.1221   24.4980 C   0  0  0  0  0  0  0  0  0  0  0  0
    9.2938  -17.3613   24.5814 O   0  0  0  0  0  0  0  0  0  0  0  0
   10.9926  -14.2665   30.1837 C   0  0  0  0  0  0  0  0  0  0  0  0
   11.2049  -15.1642   28.9859 C   0  0  0  0  0  0  0  0  0  0  0  0
   10.4803  -14.6458   27.7680 C   0  0  2  0  0  0  0  0  0  0  0  0
    9.0816  -14.2603   28.2464 C   0  0  0  0  0  0  0  0  0  0  0  0
   10.3490  -15.7655   26.7371 C   0  0  2  0  0  0  0  0  0  0  0  0
    9.6483  -15.3076   25.5613 N   0  0  0  0  0  0  0  0  0  0  0  0
    9.7626  -16.9762   27.3038 C   0  0  0  0  0  0  0  0  0  0  0  0
   10.4651  -17.8781   27.8455 O   0  0  0  0  0  0  0  0  0  0  0  0
    8.3933  -17.1864   27.2692 O   0  0  0  0  0  0  0  0  0  0  0  0
  1  2  1  0
  3  2  1  0
  4  3  2  0
  5  3  1  0
  6 14  1  0
  6  5  1  0
  6  7  1  1
  8  7  1  0
  9  8  2  0
 10 11  2  0
 10  9  1  0
 11 12  1  0
 12 13  2  0
 13  8  1  0
 14 21  1  0
 15 14  2  0
 17 16  1  0
 18 17  1  0
 18 19  1  1
 20 18  1  0
 20 22  1  0
 20 21  1  6
 22 23  2  0
 22 24  1  0
M  END
$$$$
