GFI.pdb
     RDKit          3D

 24 24  0  0  1  0  0  0  0  0999 V2000
   11.4562  -17.2650   19.7471 N   0  0  0  0  0  0  0  0  0  0  0  0
   10.2458  -17.6221   20.4677 C   0  0  0  0  0  0  0  0  0  0  0  0
   10.0679  -16.6259   21.5740 C   0  0  0  0  0  0  0  0  0  0  0  0
   10.9864  -15.8175   21.8906 O   0  0  0  0  0  0  0  0  0  0  0  0
    8.8641  -16.5418   22.3175 N   0  0  0  0  0  0  0  0  0  0  0  0
    8.7162  -15.6629   23.4633 C   0  0  1  0  0  0  0  0  0  0  0  0
    7.3206  -15.2173   23.6148 C   0  0  0  0  0  0  0  0  0  0  0  0
    6.9968  -14.2532   24.6450 C   0  0  0  0  0  0  0  0  0  0  0  0
    7.5096  -12.9756   24.5555 C   0  0  0  0  0  0  0  0  0  0  0  0
    7.2422  -11.9882   25.4997 C   0  0  0  0  0  0  0  0  0  0  0  0
    6.4353  -12.2891   26.5689 C   0  0  0  0  0  0  0  0  0  0  0  0
    5.9119  -13.5623   26.6773 C   0  0  0  0  0  0  0  0  0  0  0  0
    6.1886  -14.5078   25.7414 C   0  0  0  0  0  0  0  0  0  0  0  0
    9.1753  -16.4044   24.7008 C   0  0  0  0  0  0  0  0  0  0  0  0
    8.9296  -17.6213   24.7615 O   0  0  0  0  0  0  0  0  0  0  0  0
    9.9016  -13.8080   29.6830 C   0  0  0  0  0  0  0  0  0  0  0  0
    9.5676  -14.8357   28.6256 C   0  0  0  0  0  0  0  0  0  0  0  0
   10.8108  -15.3687   27.9570 C   0  0  2  0  0  0  0  0  0  0  0  0
   11.4570  -14.1719   27.2612 C   0  0  0  0  0  0  0  0  0  0  0  0
   10.4192  -16.3942   26.8946 C   0  0  2  0  0  0  0  0  0  0  0  0
    9.8494  -15.7485   25.7363 N   0  0  0  0  0  0  0  0  0  0  0  0
    9.5612  -17.4474   27.4288 C   0  0  0  0  0  0  0  0  0  0  0  0
    8.3284  -17.5194   27.1542 O   0  0  0  0  0  0  0  0  0  0  0  0
   10.0727  -18.4229   28.2696 O   0  0  0  0  0  0  0  0  0  0  0  0
  1  2  1  0
  3  2  1  0
  4  3  2  0
  5  3  1  0
  6 14  1  0
  6  5  1  0
  6  7  1  1
  8  7  1  0
  9  8  2  0
 10 11  2  0
 10  9  1  0
 11 12  1  0
 12 13  2  0
 13  8  1  0
 14 21  1  0
 15 14  2  0
 17 16  1  0
 18 17  1  0
 18 19  1  6
 20 18  1  0
 20 22  1  0
 20 21  1  6
 22 23  2  0
 22 24  1  0
M  END
$$$$
