GFI.pdb
     RDKit          3D

 24 24  0  0  1  0  0  0  0  0999 V2000
   11.5095  -16.9511   19.6826 N   0  0  0  0  0  0  0  0  0  0  0  0
   10.3006  -17.4009   20.3519 C   0  0  0  0  0  0  0  0  0  0  0  0
   10.1674  -16.6143   21.6213 C   0  0  0  0  0  0  0  0  0  0  0  0
   11.1587  -16.0311   22.1456 O   0  0  0  0  0  0  0  0  0  0  0  0
    8.9267  -16.4861   22.2944 N   0  0  0  0  0  0  0  0  0  0  0  0
    8.7527  -15.6249   23.4499 C   0  0  1  0  0  0  0  0  0  0  0  0
    7.3574  -15.1685   23.5676 C   0  0  0  0  0  0  0  0  0  0  0  0
    7.0214  -14.1812   24.5716 C   0  0  0  0  0  0  0  0  0  0  0  0
    6.2947  -14.5681   25.6786 C   0  0  0  0  0  0  0  0  0  0  0  0
    5.9359  -13.6834   26.6917 C   0  0  0  0  0  0  0  0  0  0  0  0
    6.3165  -12.3680   26.5939 C   0  0  0  0  0  0  0  0  0  0  0  0
    7.0442  -11.9599   25.4936 C   0  0  0  0  0  0  0  0  0  0  0  0
    7.3816  -12.8442   24.5186 C   0  0  0  0  0  0  0  0  0  0  0  0
    9.1681  -16.3911   24.6878 C   0  0  0  0  0  0  0  0  0  0  0  0
    8.8902  -17.6018   24.7302 O   0  0  0  0  0  0  0  0  0  0  0  0
   10.3207  -13.7832   29.6486 C   0  0  0  0  0  0  0  0  0  0  0  0
    9.8231  -14.7694   28.6163 C   0  0  0  0  0  0  0  0  0  0  0  0
   10.9650  -15.4413   27.8943 C   0  0  2  0  0  0  0  0  0  0  0  0
   11.6891  -14.3318   27.1335 C   0  0  0  0  0  0  0  0  0  0  0  0
   10.4107  -16.4419   26.8818 C   0  0  2  0  0  0  0  0  0  0  0  0
    9.8383  -15.7639   25.7434 N   0  0  0  0  0  0  0  0  0  0  0  0
    9.4868  -17.3941   27.4906 C   0  0  0  0  0  0  0  0  0  0  0  0
    9.8635  -18.2535   28.3392 O   0  0  0  0  0  0  0  0  0  0  0  0
    8.1419  -17.3924   27.1569 O   0  0  0  0  0  0  0  0  0  0  0  0
  1  2  1  0
  3  2  1  0
  4  3  2  0
  5  3  1  0
  6 14  1  0
  6  5  1  0
  6  7  1  1
  8  7  1  0
  9  8  2  0
 10 11  2  0
 10  9  1  0
 11 12  1  0
 12 13  2  0
 13  8  1  0
 14 21  1  0
 15 14  2  0
 17 16  1  0
 18 17  1  0
 18 19  1  6
 20 18  1  0
 20 22  1  0
 20 21  1  6
 22 23  2  0
 22 24  1  0
M  END
$$$$
