GFI.pdb
     RDKit          3D

 24 24  0  0  1  0  0  0  0  0999 V2000
   10.7152  -17.5426   19.5095 N   0  0  0  0  0  0  0  0  0  0  0  0
    9.6762  -17.8443   20.4796 C   0  0  0  0  0  0  0  0  0  0  0  0
    9.6561  -16.7295   21.4819 C   0  0  0  0  0  0  0  0  0  0  0  0
   10.5649  -15.8517   21.5137 O   0  0  0  0  0  0  0  0  0  0  0  0
    8.6198  -16.6053   22.4409 N   0  0  0  0  0  0  0  0  0  0  0  0
    8.5846  -15.5294   23.4147 C   0  0  1  0  0  0  0  0  0  0  0  0
    7.2067  -15.0606   23.6395 C   0  0  0  0  0  0  0  0  0  0  0  0
    6.9749  -13.9732   24.5667 C   0  0  0  0  0  0  0  0  0  0  0  0
    7.3746  -12.6987   24.2219 C   0  0  0  0  0  0  0  0  0  0  0  0
    7.1838  -11.5981   25.0527 C   0  0  0  0  0  0  0  0  0  0  0  0
    6.5729  -11.7788   26.2688 C   0  0  0  0  0  0  0  0  0  0  0  0
    6.1653  -13.0468   26.6333 C   0  0  0  0  0  0  0  0  0  0  0  0
    6.3636  -14.1043   25.8033 C   0  0  0  0  0  0  0  0  0  0  0  0
    9.1937  -16.0303   24.7070 C   0  0  0  0  0  0  0  0  0  0  0  0
    8.8426  -17.1540   25.1061 O   0  0  0  0  0  0  0  0  0  0  0  0
   11.0707  -14.0172   29.7100 C   0  0  0  0  0  0  0  0  0  0  0  0
   10.2279  -15.1581   29.1867 C   0  0  0  0  0  0  0  0  0  0  0  0
    9.6939  -14.8663   27.8060 C   0  0  2  0  0  0  0  0  0  0  0  0
    8.3021  -15.4942   27.7548 C   0  0  0  0  0  0  0  0  0  0  0  0
   10.5742  -15.5522   26.7628 C   0  0  2  0  0  0  0  0  0  0  0  0
   10.1152  -15.2614   25.4256 N   0  0  0  0  0  0  0  0  0  0  0  0
   10.7140  -16.9842   27.0090 C   0  0  0  0  0  0  0  0  0  0  0  0
   11.8388  -17.5634   27.0101 O   0  0  0  0  0  0  0  0  0  0  0  0
    9.6030  -17.7752   27.2545 O   0  0  0  0  0  0  0  0  0  0  0  0
  1  2  1  0
  3  2  1  0
  4  3  2  0
  5  3  1  0
  6 14  1  0
  6  5  1  0
  6  7  1  1
  8  7  1  0
  9  8  2  0
 10 11  2  0
 10  9  1  0
 11 12  1  0
 12 13  2  0
 13  8  1  0
 14 21  1  0
 15 14  2  0
 17 16  1  0
 18 17  1  0
 18 19  1  1
 20 18  1  0
 20 22  1  0
 20 21  1  6
 22 23  2  0
 22 24  1  0
M  END
$$$$
