GFI.pdb
     RDKit          3D

 24 24  0  0  1  0  0  0  0  0999 V2000
   11.0601  -17.1334   19.4852 N   0  0  0  0  0  0  0  0  0  0  0  0
   10.0259  -17.6293   20.3775 C   0  0  0  0  0  0  0  0  0  0  0  0
    9.8963  -16.6517   21.5068 C   0  0  0  0  0  0  0  0  0  0  0  0
   10.7727  -15.7661   21.7193 O   0  0  0  0  0  0  0  0  0  0  0  0
    8.7877  -16.6723   22.3897 N   0  0  0  0  0  0  0  0  0  0  0  0
    8.6646  -15.7538   23.5070 C   0  0  1  0  0  0  0  0  0  0  0  0
    7.2716  -15.3065   23.6764 C   0  0  0  0  0  0  0  0  0  0  0  0
    6.9665  -14.3225   24.6935 C   0  0  0  0  0  0  0  0  0  0  0  0
    7.3785  -13.0184   24.5126 C   0  0  0  0  0  0  0  0  0  0  0  0
    7.1207  -12.0111   25.4382 C   0  0  0  0  0  0  0  0  0  0  0  0
    6.4280  -12.3189   26.5829 C   0  0  0  0  0  0  0  0  0  0  0  0
    6.0068  -13.6185   26.7835 C   0  0  0  0  0  0  0  0  0  0  0  0
    6.2716  -14.5830   25.8637 C   0  0  0  0  0  0  0  0  0  0  0  0
    9.1558  -16.4500   24.7583 C   0  0  0  0  0  0  0  0  0  0  0  0
    8.8811  -17.6555   24.8865 O   0  0  0  0  0  0  0  0  0  0  0  0
   10.2238  -13.7543   29.6798 C   0  0  0  0  0  0  0  0  0  0  0  0
    9.7946  -14.7493   28.6255 C   0  0  0  0  0  0  0  0  0  0  0  0
   10.9787  -15.3146   27.8805 C   0  0  2  0  0  0  0  0  0  0  0  0
   11.5722  -14.1482   27.0922 C   0  0  0  0  0  0  0  0  0  0  0  0
   10.5002  -16.3753   26.8908 C   0  0  2  0  0  0  0  0  0  0  0  0
    9.8900  -15.7663   25.7333 N   0  0  0  0  0  0  0  0  0  0  0  0
    9.6396  -17.3731   27.5191 C   0  0  0  0  0  0  0  0  0  0  0  0
   10.0855  -18.2372   28.3284 O   0  0  0  0  0  0  0  0  0  0  0  0
    8.2812  -17.4119   27.2486 O   0  0  0  0  0  0  0  0  0  0  0  0
  1  2  1  0
  3  2  1  0
  4  3  2  0
  5  3  1  0
  6 14  1  0
  6  5  1  0
  6  7  1  1
  8  7  1  0
  9  8  2  0
 10 11  2  0
 10  9  1  0
 11 12  1  0
 12 13  2  0
 13  8  1  0
 14 21  1  0
 15 14  2  0
 17 16  1  0
 18 17  1  0
 18 19  1  6
 20 18  1  0
 20 22  1  0
 20 21  1  6
 22 23  2  0
 22 24  1  0
M  END
$$$$
