GFI.pdb
     RDKit          3D

 24 24  0  0  1  0  0  0  0  0999 V2000
    9.7924  -18.0866   19.5701 N   0  0  0  0  0  0  0  0  0  0  0  0
    8.8437  -18.3512   20.6385 C   0  0  0  0  0  0  0  0  0  0  0  0
    8.9754  -17.2468   21.6439 C   0  0  0  0  0  0  0  0  0  0  0  0
    9.9285  -16.4180   21.5954 O   0  0  0  0  0  0  0  0  0  0  0  0
    8.0402  -17.0778   22.6954 N   0  0  0  0  0  0  0  0  0  0  0  0
    8.1041  -15.9630   23.6230 C   0  0  1  0  0  0  0  0  0  0  0  0
    6.7671  -15.3939   23.8631 C   0  0  0  0  0  0  0  0  0  0  0  0
    6.6488  -14.1734   24.6326 C   0  0  0  0  0  0  0  0  0  0  0  0
    7.2106  -13.0125   24.1429 C   0  0  0  0  0  0  0  0  0  0  0  0
    7.1368  -11.7967   24.8168 C   0  0  0  0  0  0  0  0  0  0  0  0
    6.4793  -11.7405   26.0207 C   0  0  0  0  0  0  0  0  0  0  0  0
    5.9100  -12.8914   26.5288 C   0  0  0  0  0  0  0  0  0  0  0  0
    5.9965  -14.0657   25.8504 C   0  0  0  0  0  0  0  0  0  0  0  0
    8.7156  -16.4504   24.9193 C   0  0  0  0  0  0  0  0  0  0  0  0
    8.8024  -17.6794   25.0833 O   0  0  0  0  0  0  0  0  0  0  0  0
   11.2911  -14.1074   30.0811 C   0  0  0  0  0  0  0  0  0  0  0  0
   11.3820  -15.0345   28.8903 C   0  0  0  0  0  0  0  0  0  0  0  0
   10.3934  -14.6561   27.8150 C   0  0  2  0  0  0  0  0  0  0  0  0
    9.0701  -14.4011   28.5348 C   0  0  0  0  0  0  0  0  0  0  0  0
   10.2061  -15.8313   26.8572 C   0  0  2  0  0  0  0  0  0  0  0  0
    9.1657  -15.5553   25.8956 N   0  0  0  0  0  0  0  0  0  0  0  0
    9.9995  -17.0936   27.5607 C   0  0  0  0  0  0  0  0  0  0  0  0
   10.9623  -17.8125   27.9565 O   0  0  0  0  0  0  0  0  0  0  0  0
    8.7214  -17.5590   27.8254 O   0  0  0  0  0  0  0  0  0  0  0  0
  1  2  1  0
  3  2  1  0
  4  3  2  0
  5  3  1  0
  6 14  1  0
  6  5  1  0
  6  7  1  1
  8  7  1  0
  9  8  2  0
 10 11  2  0
 10  9  1  0
 11 12  1  0
 12 13  2  0
 13  8  1  0
 14 21  1  0
 15 14  2  0
 17 16  1  0
 18 17  1  0
 18 19  1  1
 20 18  1  0
 20 22  1  0
 20 21  1  6
 22 23  2  0
 22 24  1  0
M  END
$$$$
