GFI.pdb
     RDKit          3D

 24 24  0  0  1  0  0  0  0  0999 V2000
   11.2124  -17.0656   19.5693 N   0  0  0  0  0  0  0  0  0  0  0  0
   10.1230  -17.5628   20.3925 C   0  0  0  0  0  0  0  0  0  0  0  0
    9.9750  -16.6308   21.5575 C   0  0  0  0  0  0  0  0  0  0  0  0
   10.8867  -15.8133   21.8709 O   0  0  0  0  0  0  0  0  0  0  0  0
    8.8088  -16.6204   22.3629 N   0  0  0  0  0  0  0  0  0  0  0  0
    8.6637  -15.7456   23.5123 C   0  0  1  0  0  0  0  0  0  0  0  0
    7.2620  -15.3305   23.6908 C   0  0  0  0  0  0  0  0  0  0  0  0
    6.9485  -14.3110   24.6696 C   0  0  0  0  0  0  0  0  0  0  0  0
    7.2516  -12.9945   24.3901 C   0  0  0  0  0  0  0  0  0  0  0  0
    6.9779  -11.9540   25.2735 C   0  0  0  0  0  0  0  0  0  0  0  0
    6.3814  -12.2402   26.4764 C   0  0  0  0  0  0  0  0  0  0  0  0
    6.0699  -13.5517   26.7759 C   0  0  0  0  0  0  0  0  0  0  0  0
    6.3478  -14.5488   25.8955 C   0  0  0  0  0  0  0  0  0  0  0  0
    9.1622  -16.4780   24.7399 C   0  0  0  0  0  0  0  0  0  0  0  0
    8.9540  -17.7020   24.7987 O   0  0  0  0  0  0  0  0  0  0  0  0
    9.9452  -13.8649   29.7189 C   0  0  0  0  0  0  0  0  0  0  0  0
    9.6095  -14.9356   28.7055 C   0  0  0  0  0  0  0  0  0  0  0  0
   10.8379  -15.4044   27.9653 C   0  0  2  0  0  0  0  0  0  0  0  0
   11.3886  -14.1733   27.2475 C   0  0  0  0  0  0  0  0  0  0  0  0
   10.4373  -16.4393   26.9155 C   0  0  2  0  0  0  0  0  0  0  0  0
    9.8310  -15.8063   25.7688 N   0  0  0  0  0  0  0  0  0  0  0  0
    9.6080  -17.5035   27.4728 C   0  0  0  0  0  0  0  0  0  0  0  0
    8.3657  -17.5813   27.2466 O   0  0  0  0  0  0  0  0  0  0  0  0
   10.1587  -18.4835   28.2830 O   0  0  0  0  0  0  0  0  0  0  0  0
  1  2  1  0
  3  2  1  0
  4  3  2  0
  5  3  1  0
  6 14  1  0
  6  5  1  0
  6  7  1  1
  8  7  1  0
  9  8  2  0
 10 11  2  0
 10  9  1  0
 11 12  1  0
 12 13  2  0
 13  8  1  0
 14 21  1  0
 15 14  2  0
 17 16  1  0
 18 17  1  0
 18 19  1  6
 20 18  1  0
 20 22  1  0
 20 21  1  6
 22 23  2  0
 22 24  1  0
M  END
$$$$
