GFI.pdb
     RDKit          3D

 24 24  0  0  1  0  0  0  0  0999 V2000
   11.7383  -17.0131   19.8097 N   0  0  0  0  0  0  0  0  0  0  0  0
   10.5637  -17.4622   20.5378 C   0  0  0  0  0  0  0  0  0  0  0  0
   10.2733  -16.4441   21.5994 C   0  0  0  0  0  0  0  0  0  0  0  0
   11.1432  -15.6035   21.9658 O   0  0  0  0  0  0  0  0  0  0  0  0
    9.0124  -16.3742   22.2430 N   0  0  0  0  0  0  0  0  0  0  0  0
    8.7665  -15.5094   23.3826 C   0  0  1  0  0  0  0  0  0  0  0  0
    7.3612  -15.0707   23.4237 C   0  0  0  0  0  0  0  0  0  0  0  0
    6.9347  -14.1702   24.4739 C   0  0  0  0  0  0  0  0  0  0  0  0
    6.0835  -14.6360   25.4545 C   0  0  0  0  0  0  0  0  0  0  0  0
    5.6314  -13.8379   26.5016 C   0  0  0  0  0  0  0  0  0  0  0  0
    6.0445  -12.5304   26.5697 C   0  0  0  0  0  0  0  0  0  0  0  0
    6.8964  -12.0442   25.5979 C   0  0  0  0  0  0  0  0  0  0  0  0
    7.3230  -12.8448   24.5861 C   0  0  0  0  0  0  0  0  0  0  0  0
    9.1255  -16.2638   24.6452 C   0  0  0  0  0  0  0  0  0  0  0  0
    9.0632  -17.5046   24.6063 O   0  0  0  0  0  0  0  0  0  0  0  0
   10.8364  -12.8833   28.7204 C   0  0  0  0  0  0  0  0  0  0  0  0
   10.7867  -13.9252   27.6260 C   0  0  0  0  0  0  0  0  0  0  0  0
   10.2198  -15.2306   28.1273 C   0  0  2  0  0  0  0  0  0  0  0  0
   11.2388  -15.7716   29.1290 C   0  0  0  0  0  0  0  0  0  0  0  0
   10.1088  -16.2181   26.9671 C   0  0  2  0  0  0  0  0  0  0  0  0
    9.5123  -15.5937   25.8106 N   0  0  0  0  0  0  0  0  0  0  0  0
    9.4303  -17.4522   27.3510 C   0  0  0  0  0  0  0  0  0  0  0  0
    8.1703  -17.5343   27.4307 O   0  0  0  0  0  0  0  0  0  0  0  0
   10.1517  -18.5976   27.6471 O   0  0  0  0  0  0  0  0  0  0  0  0
  1  2  1  0
  3  2  1  0
  4  3  2  0
  5  3  1  0
  6 14  1  0
  6  5  1  0
  6  7  1  1
  8  7  1  0
  9  8  2  0
 10 11  2  0
 10  9  1  0
 11 12  1  0
 12 13  2  0
 13  8  1  0
 14 21  1  0
 15 14  2  0
 17 16  1  0
 18 17  1  0
 18 19  1  1
 20 18  1  0
 20 22  1  0
 20 21  1  6
 22 23  2  0
 22 24  1  0
M  END
$$$$
