PEH.pdb
     RDKit          3D

 27 28  0  0  1  0  0  0  0  0999 V2000
   24.4434  -13.6076  -15.6834 N   0  0  0  0  0  0  0  0  0  0  0  0
   24.7495  -15.0033  -15.6542 C   0  0  0  0  0  0  0  0  0  0  0  0
   24.6377  -15.5670  -17.0411 C   0  0  0  0  0  0  0  0  0  0  0  0
   23.9719  -14.4875  -17.8254 C   0  0  0  0  0  0  0  0  0  0  0  0
   24.2455  -13.2407  -17.0551 C   0  0  1  0  0  0  0  0  0  0  0  0
   23.0540  -12.3301  -17.2113 C   0  0  0  0  0  0  0  0  0  0  0  0
   22.6896  -11.8998  -18.3334 O   0  0  0  0  0  0  0  0  0  0  0  0
   22.2923  -11.9209  -16.0820 N   0  0  0  0  0  0  0  0  0  0  0  0
   21.0960  -11.0804  -16.1768 C   0  0  1  0  0  0  0  0  0  0  0  0
   19.9846  -11.6356  -15.3699 C   0  0  0  0  0  0  0  0  0  0  0  0
   19.1852  -12.7327  -16.0063 C   0  0  0  0  0  0  0  0  0  0  0  0
   18.0777  -13.1654  -15.0961 C   0  0  0  0  0  0  0  0  0  0  0  0
   17.0731  -12.4305  -15.0071 O   0  0  0  0  0  0  0  0  0  0  0  0
   21.4035   -9.6924  -15.7826 C   0  0  0  0  0  0  0  0  0  0  0  0
   22.0858   -9.4958  -14.7508 O   0  0  0  0  0  0  0  0  0  0  0  0
   18.1695  -14.3288  -14.3879 O   0  0  0  0  0  0  0  0  0  0  0  0
   20.9796   -8.5616  -16.4914 N   0  0  0  0  0  0  0  0  0  0  0  0
   21.2354   -7.2372  -15.9324 C   0  0  1  0  0  0  0  0  0  0  0  0
   20.9250   -6.1567  -16.9094 C   0  0  0  0  0  0  0  0  0  0  0  0
   21.2271   -4.8370  -16.3372 C   0  0  0  0  0  0  0  0  0  0  0  0
   22.4828   -4.4490  -15.8561 C   0  0  0  0  0  0  0  0  0  0  0  0
   22.4153   -3.1886  -15.4062 N   0  0  0  0  0  0  0  0  0  0  0  0
   21.1633   -2.7523  -15.5804 C   0  0  0  0  0  0  0  0  0  0  0  0
   20.4465   -3.7636  -16.1482 N   0  0  0  0  0  0  0  0  0  0  0  0
   20.4536   -7.0421  -14.6927 C   0  0  0  0  0  0  0  0  0  0  0  0
   19.2767   -7.4099  -14.6092 O   0  0  0  0  0  0  0  0  0  0  0  0
   21.0798   -6.4218  -13.5933 O   0  0  0  0  0  0  0  0  0  0  0  0
  1  2  1  0
  1  5  1  0
  2  3  1  0
  3  4  1  0
  5  4  1  0
  5  6  1  1
  6  7  2  0
  8  6  1  0
  9  8  1  0
  9 10  1  1
 11 10  1  0
 12 11  1  0
 12 13  2  0
 14  9  1  0
 15 14  2  0
 16 12  1  0
 17 14  1  0
 18 25  1  0
 18 17  1  0
 19 20  1  0
 18 19  1  6
 20 21  2  0
 22 21  1  0
 23 22  1  0
 24 23  2  0
 24 20  1  0
 25 27  1  0
 26 25  2  0
M  END
$$$$
