PEH.pdb
     RDKit          3D

 27 28  0  0  1  0  0  0  0  0999 V2000
   27.8047  -34.6687   -5.7193 N   0  0  0  0  0  0  0  0  0  0  0  0
   28.4772  -34.9011   -6.9586 C   0  0  0  0  0  0  0  0  0  0  0  0
   27.8053  -36.0291   -7.6864 C   0  0  0  0  0  0  0  0  0  0  0  0
   26.8872  -36.6260   -6.6742 C   0  0  0  0  0  0  0  0  0  0  0  0
   26.6641  -35.5367   -5.6811 C   0  0  1  0  0  0  0  0  0  0  0  0
   26.5068  -36.1737   -4.3237 C   0  0  0  0  0  0  0  0  0  0  0  0
   25.5982  -37.0063   -4.0822 O   0  0  0  0  0  0  0  0  0  0  0  0
   27.3900  -35.8510   -3.2567 N   0  0  0  0  0  0  0  0  0  0  0  0
   27.3422  -36.5010   -1.9446 C   0  0  1  0  0  0  0  0  0  0  0  0
   28.6406  -36.3852   -1.2406 C   0  0  0  0  0  0  0  0  0  0  0  0
   29.7036  -37.3631   -1.6425 C   0  0  0  0  0  0  0  0  0  0  0  0
   31.0333  -36.9390   -1.1001 C   0  0  0  0  0  0  0  0  0  0  0  0
   31.9978  -36.8877   -1.8903 O   0  0  0  0  0  0  0  0  0  0  0  0
   26.2408  -35.9510   -1.1318 C   0  0  0  0  0  0  0  0  0  0  0  0
   26.0394  -34.7148   -1.1470 O   0  0  0  0  0  0  0  0  0  0  0  0
   31.1802  -36.6194    0.2190 O   0  0  0  0  0  0  0  0  0  0  0  0
   25.3914  -36.7252   -0.3319 N   0  0  0  0  0  0  0  0  0  0  0  0
   24.2857  -36.0745    0.3652 C   0  0  1  0  0  0  0  0  0  0  0  0
   23.1209  -36.9887    0.5265 C   0  0  0  0  0  0  0  0  0  0  0  0
   22.0105  -36.3006    1.2002 C   0  0  0  0  0  0  0  0  0  0  0  0
   20.9244  -35.7131    0.5416 C   0  0  0  0  0  0  0  0  0  0  0  0
   20.0955  -35.1747    1.4464 N   0  0  0  0  0  0  0  0  0  0  0  0
   20.6083  -35.3946    2.6616 C   0  0  0  0  0  0  0  0  0  0  0  0
   21.7753  -36.0813    2.5016 N   0  0  0  0  0  0  0  0  0  0  0  0
   24.7301  -35.5789    1.6855 C   0  0  0  0  0  0  0  0  0  0  0  0
   23.9449  -35.0250    2.4627 O   0  0  0  0  0  0  0  0  0  0  0  0
   26.0808  -35.7500    2.0484 O   0  0  0  0  0  0  0  0  0  0  0  0
  1  2  1  0
  1  5  1  0
  2  3  1  0
  3  4  1  0
  5  4  1  0
  5  6  1  1
  6  7  2  0
  8  6  1  0
  9  8  1  0
  9 10  1  1
 11 10  1  0
 12 11  1  0
 12 13  2  0
 14  9  1  0
 15 14  2  0
 16 12  1  0
 17 14  1  0
 18 25  1  0
 18 17  1  0
 19 20  1  0
 18 19  1  1
 20 21  2  0
 22 21  1  0
 23 22  1  0
 24 23  2  0
 24 20  1  0
 25 27  1  0
 26 25  2  0
M  END
$$$$
