PEH.pdb
     RDKit          3D

 27 28  0  0  1  0  0  0  0  0999 V2000
   19.1906   -9.2512  -16.3987 N   0  0  0  0  0  0  0  0  0  0  0  0
   20.0297   -9.7151  -17.4584 C   0  0  0  0  0  0  0  0  0  0  0  0
   20.8179  -10.9024  -16.9865 C   0  0  0  0  0  0  0  0  0  0  0  0
   20.6037  -10.9244  -15.5109 C   0  0  0  0  0  0  0  0  0  0  0  0
   19.3372  -10.1657  -15.3042 C   0  0  1  0  0  0  0  0  0  0  0  0
   19.4461   -9.4335  -13.9907 C   0  0  0  0  0  0  0  0  0  0  0  0
   19.6629  -10.0362  -12.9105 O   0  0  0  0  0  0  0  0  0  0  0  0
   19.3052   -8.0197  -13.9267 N   0  0  0  0  0  0  0  0  0  0  0  0
   19.3785   -7.2569  -12.6779 C   0  0  1  0  0  0  0  0  0  0  0  0
   19.9711   -5.9176  -12.9011 C   0  0  0  0  0  0  0  0  0  0  0  0
   21.4500   -5.8778  -13.1439 C   0  0  0  0  0  0  0  0  0  0  0  0
   21.9092   -4.4648  -13.3306 C   0  0  0  0  0  0  0  0  0  0  0  0
   21.8465   -3.9762  -14.4772 O   0  0  0  0  0  0  0  0  0  0  0  0
   18.0466   -7.1562  -12.0515 C   0  0  0  0  0  0  0  0  0  0  0  0
   17.0492   -6.9616  -12.7837 O   0  0  0  0  0  0  0  0  0  0  0  0
   22.3808   -3.7382  -12.2756 O   0  0  0  0  0  0  0  0  0  0  0  0
   17.8151   -7.2643  -10.6747 N   0  0  0  0  0  0  0  0  0  0  0  0
   16.4505   -7.1317  -10.1725 C   0  0  1  0  0  0  0  0  0  0  0  0
   16.2150   -7.9940   -8.9811 C   0  0  0  0  0  0  0  0  0  0  0  0
   14.7958   -7.9754   -8.5993 C   0  0  0  0  0  0  0  0  0  0  0  0
   13.8203   -8.8281   -9.1284 C   0  0  0  0  0  0  0  0  0  0  0  0
   12.6358   -8.5491   -8.5673 N   0  0  0  0  0  0  0  0  0  0  0  0
   12.8139   -7.5493   -7.6975 C   0  0  0  0  0  0  0  0  0  0  0  0
   14.1332   -7.2062   -7.7238 N   0  0  0  0  0  0  0  0  0  0  0  0
   16.1576   -5.7200   -9.8448 C   0  0  0  0  0  0  0  0  0  0  0  0
   15.0116   -5.2646   -9.9269 O   0  0  0  0  0  0  0  0  0  0  0  0
   17.2195   -4.8909   -9.4322 O   0  0  0  0  0  0  0  0  0  0  0  0
  1  2  1  0
  1  5  1  0
  2  3  1  0
  3  4  1  0
  5  4  1  0
  5  6  1  1
  6  7  2  0
  8  6  1  0
  9  8  1  0
  9 10  1  6
 11 10  1  0
 12 11  1  0
 12 13  2  0
 14  9  1  0
 15 14  2  0
 16 12  1  0
 17 14  1  0
 18 25  1  0
 18 17  1  0
 19 20  1  0
 18 19  1  1
 20 21  2  0
 22 21  1  0
 23 22  1  0
 24 23  2  0
 24 20  1  0
 25 27  1  0
 26 25  2  0
M  END
$$$$
