PEH.pdb
     RDKit          3D

 27 28  0  0  1  0  0  0  0  0999 V2000
   24.2616  -13.5234  -15.7975 N   0  0  0  0  0  0  0  0  0  0  0  0
   24.7761  -14.7557  -16.3065 C   0  0  0  0  0  0  0  0  0  0  0  0
   25.4114  -14.5154  -17.6453 C   0  0  0  0  0  0  0  0  0  0  0  0
   24.9840  -13.1351  -18.0138 C   0  0  0  0  0  0  0  0  0  0  0  0
   24.6411  -12.4889  -16.7148 C   0  0  1  0  0  0  0  0  0  0  0  0
   23.5027  -11.5316  -16.9610 C   0  0  0  0  0  0  0  0  0  0  0  0
   23.5844  -10.6058  -17.8057 O   0  0  0  0  0  0  0  0  0  0  0  0
   22.2831  -11.6429  -16.2379 N   0  0  0  0  0  0  0  0  0  0  0  0
   21.0886  -10.8512  -16.5429 C   0  0  1  0  0  0  0  0  0  0  0  0
   19.8543  -11.5651  -16.1409 C   0  0  0  0  0  0  0  0  0  0  0  0
   19.4668  -12.7456  -16.9798 C   0  0  0  0  0  0  0  0  0  0  0  0
   18.2036  -13.3605  -16.4615 C   0  0  0  0  0  0  0  0  0  0  0  0
   18.2603  -14.5240  -16.0140 O   0  0  0  0  0  0  0  0  0  0  0  0
   21.1701   -9.5220  -15.9079 C   0  0  0  0  0  0  0  0  0  0  0  0
   21.6335   -9.4356  -14.7475 O   0  0  0  0  0  0  0  0  0  0  0  0
   17.0290  -12.6651  -16.4804 O   0  0  0  0  0  0  0  0  0  0  0  0
   20.7594   -8.3316  -16.5204 N   0  0  0  0  0  0  0  0  0  0  0  0
   20.9755   -7.0655  -15.8260 C   0  0  1  0  0  0  0  0  0  0  0  0
   21.0403   -5.9197  -16.7752 C   0  0  0  0  0  0  0  0  0  0  0  0
   21.2265   -4.6548  -16.0502 C   0  0  0  0  0  0  0  0  0  0  0  0
   22.4693   -4.0725  -15.7763 C   0  0  0  0  0  0  0  0  0  0  0  0
   22.2843   -2.9285  -15.1034 N   0  0  0  0  0  0  0  0  0  0  0  0
   20.9693   -2.7541  -14.9350 C   0  0  0  0  0  0  0  0  0  0  0  0
   20.3327   -3.8110  -15.5151 N   0  0  0  0  0  0  0  0  0  0  0  0
   19.9099   -6.8385  -14.8264 C   0  0  0  0  0  0  0  0  0  0  0  0
   20.0533   -6.0262  -13.9059 O   0  0  0  0  0  0  0  0  0  0  0  0
   18.7126   -7.5725  -14.9410 O   0  0  0  0  0  0  0  0  0  0  0  0
  1  2  1  0
  1  5  1  0
  2  3  1  0
  3  4  1  0
  5  4  1  0
  5  6  1  6
  6  7  2  0
  8  6  1  0
  9  8  1  0
  9 10  1  1
 11 10  1  0
 12 11  1  0
 12 13  2  0
 14  9  1  0
 15 14  2  0
 16 12  1  0
 17 14  1  0
 18 25  1  0
 18 17  1  0
 19 20  1  0
 18 19  1  6
 20 21  2  0
 22 21  1  0
 23 22  1  0
 24 23  2  0
 24 20  1  0
 25 27  1  0
 26 25  2  0
M  END
$$$$
