PEH.pdb
     RDKit          3D

 27 28  0  0  1  0  0  0  0  0999 V2000
   19.4939  -14.7117  -16.8780 N   0  0  0  0  0  0  0  0  0  0  0  0
   18.7501  -15.8702  -17.2613 C   0  0  0  0  0  0  0  0  0  0  0  0
   18.7587  -15.9956  -18.7572 C   0  0  0  0  0  0  0  0  0  0  0  0
   19.3032  -14.6915  -19.2334 C   0  0  0  0  0  0  0  0  0  0  0  0
   20.0653  -14.1556  -18.0695 C   0  0  1  0  0  0  0  0  0  0  0  0
   19.9394  -12.6532  -18.0868 C   0  0  0  0  0  0  0  0  0  0  0  0
   20.6279  -11.9379  -18.8558 O   0  0  0  0  0  0  0  0  0  0  0  0
   19.0277  -11.9850  -17.2237 N   0  0  0  0  0  0  0  0  0  0  0  0
   18.8581  -10.5300  -17.1991 C   0  0  1  0  0  0  0  0  0  0  0  0
   17.4526  -10.1581  -16.9147 C   0  0  0  0  0  0  0  0  0  0  0  0
   17.1444   -8.6910  -16.8962 C   0  0  0  0  0  0  0  0  0  0  0  0
   15.6951   -8.4671  -16.5936 C   0  0  0  0  0  0  0  0  0  0  0  0
   14.8560   -9.1565  -17.2084 O   0  0  0  0  0  0  0  0  0  0  0  0
   19.7824   -9.9153  -16.2274 C   0  0  0  0  0  0  0  0  0  0  0  0
   20.3101  -10.6421  -15.3543 O   0  0  0  0  0  0  0  0  0  0  0  0
   15.3092   -7.5362  -15.6727 O   0  0  0  0  0  0  0  0  0  0  0  0
   20.1166   -8.5556  -16.2116 N   0  0  0  0  0  0  0  0  0  0  0  0
   21.3411   -8.1340  -15.5374 C   0  0  1  0  0  0  0  0  0  0  0  0
   22.5556   -8.5095  -16.3135 C   0  0  0  0  0  0  0  0  0  0  0  0
   23.0948   -9.7939  -15.8445 C   0  0  0  0  0  0  0  0  0  0  0  0
   22.5396  -10.5582  -14.8119 C   0  0  0  0  0  0  0  0  0  0  0  0
   23.2717  -11.6670  -14.6379 N   0  0  0  0  0  0  0  0  0  0  0  0
   24.2762  -11.6437  -15.5202 C   0  0  0  0  0  0  0  0  0  0  0  0
   24.1603  -10.4986  -16.2511 N   0  0  0  0  0  0  0  0  0  0  0  0
   21.3209   -6.6750  -15.2984 C   0  0  0  0  0  0  0  0  0  0  0  0
   21.0037   -5.8809  -16.1907 O   0  0  0  0  0  0  0  0  0  0  0  0
   21.6739   -6.1977  -14.0205 O   0  0  0  0  0  0  0  0  0  0  0  0
  1  2  1  0
  1  5  1  0
  2  3  1  0
  3  4  1  0
  5  4  1  0
  5  6  1  1
  6  7  2  0
  8  6  1  0
  9  8  1  0
  9 10  1  1
 11 10  1  0
 12 11  1  0
 12 13  2  0
 14  9  1  0
 15 14  2  0
 16 12  1  0
 17 14  1  0
 18 25  1  0
 18 17  1  0
 19 20  1  0
 18 19  1  6
 20 21  2  0
 22 21  1  0
 23 22  1  0
 24 23  2  0
 24 20  1  0
 25 27  1  0
 26 25  2  0
M  END
$$$$
