PEH.pdb
     RDKit          3D

 27 28  0  0  1  0  0  0  0  0999 V2000
   16.2361  -18.2258    3.2873 N   0  0  0  0  0  0  0  0  0  0  0  0
   15.0268  -18.6254    2.6390 C   0  0  0  0  0  0  0  0  0  0  0  0
   13.9420  -17.6368    2.9547 C   0  0  0  0  0  0  0  0  0  0  0  0
   14.5117  -16.8020    4.0512 C   0  0  0  0  0  0  0  0  0  0  0  0
   15.9878  -16.9616    3.9164 C   0  0  1  0  0  0  0  0  0  0  0  0
   16.5864  -16.9120    5.2993 C   0  0  0  0  0  0  0  0  0  0  0  0
   16.3093  -15.9940    6.1102 O   0  0  0  0  0  0  0  0  0  0  0  0
   17.4961  -17.9126    5.7396 N   0  0  0  0  0  0  0  0  0  0  0  0
   18.0429  -17.9651    7.0979 C   0  0  1  0  0  0  0  0  0  0  0  0
   18.1208  -19.3597    7.5916 C   0  0  0  0  0  0  0  0  0  0  0  0
   16.8171  -20.0190    7.9281 C   0  0  0  0  0  0  0  0  0  0  0  0
   17.0304  -21.4695    8.2329 C   0  0  0  0  0  0  0  0  0  0  0  0
   17.4063  -22.2131    7.3039 O   0  0  0  0  0  0  0  0  0  0  0  0
   19.3596  -17.3022    7.1540 C   0  0  0  0  0  0  0  0  0  0  0  0
   20.1691  -17.4888    6.2166 O   0  0  0  0  0  0  0  0  0  0  0  0
   16.8187  -21.9579    9.4900 O   0  0  0  0  0  0  0  0  0  0  0  0
   19.7750  -16.4661    8.1977 N   0  0  0  0  0  0  0  0  0  0  0  0
   21.1248  -15.9103    8.1667 C   0  0  1  0  0  0  0  0  0  0  0  0
   21.1781  -14.5559    8.7841 C   0  0  0  0  0  0  0  0  0  0  0  0
   20.5464  -13.5603    7.9066 C   0  0  0  0  0  0  0  0  0  0  0  0
   19.9744  -13.8483    6.6622 C   0  0  0  0  0  0  0  0  0  0  0  0
   19.4882  -12.7205    6.1260 N   0  0  0  0  0  0  0  0  0  0  0  0
   19.7262  -11.7191    6.9794 C   0  0  0  0  0  0  0  0  0  0  0  0
   20.3715  -12.2402    8.0615 N   0  0  0  0  0  0  0  0  0  0  0  0
   22.0711  -16.8183    8.8496 C   0  0  0  0  0  0  0  0  0  0  0  0
   21.6795  -17.8328    9.4370 O   0  0  0  0  0  0  0  0  0  0  0  0
   23.4445  -16.5048    8.8199 O   0  0  0  0  0  0  0  0  0  0  0  0
  1  2  1  0
  1  5  1  0
  2  3  1  0
  3  4  1  0
  5  4  1  0
  5  6  1  1
  6  7  2  0
  8  6  1  0
  9  8  1  0
  9 10  1  6
 11 10  1  0
 12 11  1  0
 12 13  2  0
 14  9  1  0
 15 14  2  0
 16 12  1  0
 17 14  1  0
 18 25  1  0
 18 17  1  0
 19 20  1  0
 18 19  1  1
 20 21  2  0
 22 21  1  0
 23 22  1  0
 24 23  2  0
 24 20  1  0
 25 27  1  0
 26 25  2  0
M  END
$$$$
