PEH.pdb
     RDKit          3D

 27 28  0  0  1  0  0  0  0  0999 V2000
   22.0205  -14.9304  -15.7617 N   0  0  0  0  0  0  0  0  0  0  0  0
   22.0427  -16.3583  -15.7084 C   0  0  0  0  0  0  0  0  0  0  0  0
   21.8473  -16.9117  -17.0901 C   0  0  0  0  0  0  0  0  0  0  0  0
   21.4240  -15.7348  -17.9022 C   0  0  0  0  0  0  0  0  0  0  0  0
   21.9252  -14.5544  -17.1420 C   0  0  1  0  0  0  0  0  0  0  0  0
   20.9415  -13.4283  -17.3354 C   0  0  0  0  0  0  0  0  0  0  0  0
   20.7340  -12.9140  -18.4622 O   0  0  0  0  0  0  0  0  0  0  0  0
   20.2061  -12.9019  -16.2378 N   0  0  0  0  0  0  0  0  0  0  0  0
   19.2318  -11.8152  -16.3658 C   0  0  1  0  0  0  0  0  0  0  0  0
   17.9069  -12.2174  -15.8389 C   0  0  0  0  0  0  0  0  0  0  0  0
   16.8281  -11.1775  -15.8903 C   0  0  0  0  0  0  0  0  0  0  0  0
   15.5612  -11.7117  -15.2972 C   0  0  0  0  0  0  0  0  0  0  0  0
   14.8697  -10.9394  -14.6024 O   0  0  0  0  0  0  0  0  0  0  0  0
   19.7249  -10.5941  -15.7010 C   0  0  0  0  0  0  0  0  0  0  0  0
   20.0458  -10.6537  -14.4917 O   0  0  0  0  0  0  0  0  0  0  0  0
   15.1792  -13.0043  -15.5131 O   0  0  0  0  0  0  0  0  0  0  0  0
   19.8617   -9.3537  -16.3361 N   0  0  0  0  0  0  0  0  0  0  0  0
   20.3357   -8.2094  -15.5629 C   0  0  1  0  0  0  0  0  0  0  0  0
   20.7312   -7.0747  -16.4429 C   0  0  0  0  0  0  0  0  0  0  0  0
   21.2634   -5.9605  -15.6456 C   0  0  0  0  0  0  0  0  0  0  0  0
   22.3522   -6.0589  -14.7718 C   0  0  0  0  0  0  0  0  0  0  0  0
   22.5764   -4.8648  -14.2065 N   0  0  0  0  0  0  0  0  0  0  0  0
   21.6726   -4.0031  -14.6846 C   0  0  0  0  0  0  0  0  0  0  0  0
   20.8768   -4.6797  -15.5608 N   0  0  0  0  0  0  0  0  0  0  0  0
   19.2994   -7.7718  -14.6034 C   0  0  0  0  0  0  0  0  0  0  0  0
   18.1162   -7.6570  -14.9416 O   0  0  0  0  0  0  0  0  0  0  0  0
   19.6870   -7.4837  -13.2797 O   0  0  0  0  0  0  0  0  0  0  0  0
  1  2  1  0
  1  5  1  0
  2  3  1  0
  3  4  1  0
  5  4  1  0
  5  6  1  1
  6  7  2  0
  8  6  1  0
  9  8  1  0
  9 10  1  1
 11 10  1  0
 12 11  1  0
 12 13  2  0
 14  9  1  0
 15 14  2  0
 16 12  1  0
 17 14  1  0
 18 25  1  0
 18 17  1  0
 19 20  1  0
 18 19  1  6
 20 21  2  0
 22 21  1  0
 23 22  1  0
 24 23  2  0
 24 20  1  0
 25 27  1  0
 26 25  2  0
M  END
$$$$
