PEH.pdb
     RDKit          3D

 27 28  0  0  1  0  0  0  0  0999 V2000
   24.5083  -13.4127  -15.5554 N   0  0  0  0  0  0  0  0  0  0  0  0
   24.8880  -14.7801  -15.7238 C   0  0  0  0  0  0  0  0  0  0  0  0
   25.1222  -15.0565  -17.1807 C   0  0  0  0  0  0  0  0  0  0  0  0
   24.5798  -13.8539  -17.8759 C   0  0  0  0  0  0  0  0  0  0  0  0
   24.5965  -12.7820  -16.8399 C   0  0  1  0  0  0  0  0  0  0  0  0
   23.4141  -11.8802  -17.0887 C   0  0  0  0  0  0  0  0  0  0  0  0
   23.2425  -11.2982  -18.1882 O   0  0  0  0  0  0  0  0  0  0  0  0
   22.4408  -11.6532  -16.0768 N   0  0  0  0  0  0  0  0  0  0  0  0
   21.2139  -10.8828  -16.2952 C   0  0  1  0  0  0  0  0  0  0  0  0
   20.0297  -11.5976  -15.7646 C   0  0  0  0  0  0  0  0  0  0  0  0
   19.4648  -12.6822  -16.6319 C   0  0  0  0  0  0  0  0  0  0  0  0
   18.2622  -13.2945  -15.9830 C   0  0  0  0  0  0  0  0  0  0  0  0
   17.9891  -12.9505  -14.8149 O   0  0  0  0  0  0  0  0  0  0  0  0
   21.3347   -9.5353  -15.7071 C   0  0  0  0  0  0  0  0  0  0  0  0
   21.7917   -9.4228  -14.5464 O   0  0  0  0  0  0  0  0  0  0  0  0
   17.4919  -14.2007  -16.6531 O   0  0  0  0  0  0  0  0  0  0  0  0
   20.9686   -8.3546  -16.3650 N   0  0  0  0  0  0  0  0  0  0  0  0
   21.1095   -7.0804  -15.6662 C   0  0  1  0  0  0  0  0  0  0  0  0
   21.0477   -5.9262  -16.6056 C   0  0  0  0  0  0  0  0  0  0  0  0
   21.2858   -4.6632  -15.8925 C   0  0  0  0  0  0  0  0  0  0  0  0
   22.5348   -4.2390  -15.4250 C   0  0  0  0  0  0  0  0  0  0  0  0
   22.4023   -3.0487  -14.8238 N   0  0  0  0  0  0  0  0  0  0  0  0
   21.1151   -2.6924  -14.8878 C   0  0  0  0  0  0  0  0  0  0  0  0
   20.4423   -3.6824  -15.5407 N   0  0  0  0  0  0  0  0  0  0  0  0
   20.0676   -6.9460  -14.6258 C   0  0  0  0  0  0  0  0  0  0  0  0
   20.2825   -6.3315  -13.5752 O   0  0  0  0  0  0  0  0  0  0  0  0
   18.8092   -7.5374  -14.8538 O   0  0  0  0  0  0  0  0  0  0  0  0
  1  2  1  0
  1  5  1  0
  2  3  1  0
  3  4  1  0
  5  4  1  0
  5  6  1  6
  6  7  2  0
  8  6  1  0
  9  8  1  0
  9 10  1  1
 11 10  1  0
 12 11  1  0
 12 13  2  0
 14  9  1  0
 15 14  2  0
 16 12  1  0
 17 14  1  0
 18 25  1  0
 18 17  1  0
 19 20  1  0
 18 19  1  6
 20 21  2  0
 22 21  1  0
 23 22  1  0
 24 23  2  0
 24 20  1  0
 25 27  1  0
 26 25  2  0
M  END
$$$$
