PEH.pdb
     RDKit          3D

 27 28  0  0  1  0  0  0  0  0999 V2000
   16.9469  -17.9389    3.6671 N   0  0  0  0  0  0  0  0  0  0  0  0
   16.2185  -18.8040    2.7934 C   0  0  0  0  0  0  0  0  0  0  0  0
   14.7910  -18.3463    2.7151 C   0  0  0  0  0  0  0  0  0  0  0  0
   14.6644  -17.3442    3.8122 C   0  0  0  0  0  0  0  0  0  0  0  0
   16.0601  -16.8843    4.0633 C   0  0  1  0  0  0  0  0  0  0  0  0
   16.1902  -16.5845    5.5352 C   0  0  0  0  0  0  0  0  0  0  0  0
   15.4115  -15.7938    6.1232 O   0  0  0  0  0  0  0  0  0  0  0  0
   17.2099  -17.1918    6.3187 N   0  0  0  0  0  0  0  0  0  0  0  0
   17.3282  -17.0136    7.7682 C   0  0  1  0  0  0  0  0  0  0  0  0
   17.4795  -18.3156    8.4585 C   0  0  0  0  0  0  0  0  0  0  0  0
   16.2429  -19.1560    8.5698 C   0  0  0  0  0  0  0  0  0  0  0  0
   16.5823  -20.5138    9.1022 C   0  0  0  0  0  0  0  0  0  0  0  0
   17.7865  -20.7871    9.2825 O   0  0  0  0  0  0  0  0  0  0  0  0
   18.4432  -16.1031    8.0906 C   0  0  0  0  0  0  0  0  0  0  0  0
   19.4556  -16.1048    7.3531 O   0  0  0  0  0  0  0  0  0  0  0  0
   15.6007  -21.4208    9.3802 O   0  0  0  0  0  0  0  0  0  0  0  0
   18.4500  -15.2233    9.1801 N   0  0  0  0  0  0  0  0  0  0  0  0
   19.6216  -14.3814    9.4045 C   0  0  1  0  0  0  0  0  0  0  0  0
   19.2700  -12.9341    9.3996 C   0  0  0  0  0  0  0  0  0  0  0  0
   20.1200  -12.1967    8.4540 C   0  0  0  0  0  0  0  0  0  0  0  0
   21.0890  -12.7845    7.6329 C   0  0  0  0  0  0  0  0  0  0  0  0
   21.6803  -11.8349    6.8951 N   0  0  0  0  0  0  0  0  0  0  0  0
   21.1273  -10.6592    7.2114 C   0  0  0  0  0  0  0  0  0  0  0  0
   20.1777  -10.8895    8.1622 N   0  0  0  0  0  0  0  0  0  0  0  0
   20.2775  -14.7414   10.6798 C   0  0  0  0  0  0  0  0  0  0  0  0
   19.7361  -15.5017   11.4899 O   0  0  0  0  0  0  0  0  0  0  0  0
   21.5461  -14.1966   10.9610 O   0  0  0  0  0  0  0  0  0  0  0  0
  1  2  1  0
  1  5  1  0
  2  3  1  0
  3  4  1  0
  5  4  1  0
  5  6  1  1
  6  7  2  0
  8  6  1  0
  9  8  1  0
  9 10  1  1
 11 10  1  0
 12 11  1  0
 12 13  2  0
 14  9  1  0
 15 14  2  0
 16 12  1  0
 17 14  1  0
 18 25  1  0
 18 17  1  0
 19 20  1  0
 18 19  1  1
 20 21  2  0
 22 21  1  0
 23 22  1  0
 24 23  2  0
 24 20  1  0
 25 27  1  0
 26 25  2  0
M  END
$$$$
