PEH.pdb
     RDKit          3D

 27 28  0  0  1  0  0  0  0  0999 V2000
   21.8277  -15.5775  -20.1274 N   0  0  0  0  0  0  0  0  0  0  0  0
   23.1926  -15.3246  -20.4671 C   0  0  0  0  0  0  0  0  0  0  0  0
   23.4063  -15.6183  -21.9237 C   0  0  0  0  0  0  0  0  0  0  0  0
   22.1636  -16.3281  -22.3429 C   0  0  0  0  0  0  0  0  0  0  0  0
   21.1406  -15.9187  -21.3387 C   0  0  1  0  0  0  0  0  0  0  0  0
   20.2071  -17.0838  -21.1283 C   0  0  0  0  0  0  0  0  0  0  0  0
   19.5553  -17.5917  -22.0740 O   0  0  0  0  0  0  0  0  0  0  0  0
   20.0287  -17.6553  -19.8382 N   0  0  0  0  0  0  0  0  0  0  0  0
   19.1625  -18.8081  -19.5788 C   0  0  1  0  0  0  0  0  0  0  0  0
   19.9477  -19.9761  -19.1161 C   0  0  0  0  0  0  0  0  0  0  0  0
   20.5454  -20.8403  -20.1854 C   0  0  0  0  0  0  0  0  0  0  0  0
   21.3090  -21.9735  -19.5728 C   0  0  0  0  0  0  0  0  0  0  0  0
   21.8849  -22.7725  -20.3392 O   0  0  0  0  0  0  0  0  0  0  0  0
   18.1047  -18.4564  -18.6125 C   0  0  0  0  0  0  0  0  0  0  0  0
   18.3946  -17.7170  -17.6439 O   0  0  0  0  0  0  0  0  0  0  0  0
   21.3701  -22.1230  -18.2173 O   0  0  0  0  0  0  0  0  0  0  0  0
   16.7789  -18.8978  -18.7028 N   0  0  0  0  0  0  0  0  0  0  0  0
   15.8090  -18.4366  -17.7137 C   0  0  1  0  0  0  0  0  0  0  0  0
   14.5124  -18.0635  -18.3446 C   0  0  0  0  0  0  0  0  0  0  0  0
   14.6826  -16.9067  -19.2352 C   0  0  0  0  0  0  0  0  0  0  0  0
   15.1211  -15.6438  -18.8211 C   0  0  0  0  0  0  0  0  0  0  0  0
   15.1660  -14.8213  -19.8780 N   0  0  0  0  0  0  0  0  0  0  0  0
   14.7729  -15.5085  -20.9556 C   0  0  0  0  0  0  0  0  0  0  0  0
   14.4803  -16.7782  -20.5542 N   0  0  0  0  0  0  0  0  0  0  0  0
   15.5930  -19.4738  -16.6823 C   0  0  0  0  0  0  0  0  0  0  0  0
   15.7405  -20.6743  -16.9359 O   0  0  0  0  0  0  0  0  0  0  0  0
   15.2111  -19.0666  -15.3885 O   0  0  0  0  0  0  0  0  0  0  0  0
  1  2  1  0
  1  5  1  0
  2  3  1  0
  3  4  1  0
  5  4  1  0
  5  6  1  1
  6  7  2  0
  8  6  1  0
  9  8  1  0
  9 10  1  1
 11 10  1  0
 12 11  1  0
 12 13  2  0
 14  9  1  0
 15 14  2  0
 16 12  1  0
 17 14  1  0
 18 25  1  0
 18 17  1  0
 19 20  1  0
 18 19  1  6
 20 21  2  0
 22 21  1  0
 23 22  1  0
 24 23  2  0
 24 20  1  0
 25 27  1  0
 26 25  2  0
M  END
$$$$
