GGL.pdb
     RDKit          3D

 17 16  0  0  1  0  0  0  0  0999 V2000
   18.7986  -12.2881  -20.1505 N   0  0  0  0  0  0  0  0  0  0  0  0
   18.9420  -10.8649  -20.3636 C   0  0  0  0  0  0  0  0  0  0  0  0
   18.6367  -10.1687  -19.0850 C   0  0  0  0  0  0  0  0  0  0  0  0
   18.9126   -8.9580  -18.9156 O   0  0  0  0  0  0  0  0  0  0  0  0
   18.0112  -10.8758  -18.0017 N   0  0  0  0  0  0  0  0  0  0  0  0
   17.5823  -10.1702  -16.8356 C   0  0  0  0  0  0  0  0  0  0  0  0
   18.7082  -10.0934  -15.8701 C   0  0  0  0  0  0  0  0  0  0  0  0
   19.0260  -11.0852  -15.1809 O   0  0  0  0  0  0  0  0  0  0  0  0
   22.9683  -10.6913  -13.7974 C   0  0  0  0  0  0  0  0  0  0  0  0
   23.0857  -10.0119  -15.1565 C   0  0  1  0  0  0  0  0  0  0  0  0
   24.0651  -10.6862  -16.0661 C   0  0  0  0  0  0  0  0  0  0  0  0
   21.7154   -9.9169  -15.7606 C   0  0  0  0  0  0  0  0  0  0  0  0
   20.7873   -8.9681  -15.1004 C   0  0  2  0  0  0  0  0  0  0  0  0
   19.4723   -8.9074  -15.6811 N   0  0  0  0  0  0  0  0  0  0  0  0
   21.3844   -7.5818  -15.0076 C   0  0  0  0  0  0  0  0  0  0  0  0
   21.1804   -6.6250  -15.9907 O   0  0  0  0  0  0  0  0  0  0  0  0
   22.0930   -7.2483  -14.0254 O   0  0  0  0  0  0  0  0  0  0  0  0
  1  2  1  0
  3  5  1  0
  3  2  1  0
  4  3  2  0
  6  5  1  0
  7  6  1  0
  7  8  2  0
 10  9  1  1
 10 12  1  0
 11 10  1  0
 13 12  1  6
 13 14  1  0
 13 15  1  0
 14  7  1  0
 15 16  1  0
 17 15  2  0
M  END
$$$$
