GGL.pdb
     RDKit          3D

 17 16  0  0  1  0  0  0  0  0999 V2000
   13.6072  -21.9961    0.9591 N   0  0  0  0  0  0  0  0  0  0  0  0
   14.6492  -21.5944    1.8781 C   0  0  0  0  0  0  0  0  0  0  0  0
   14.3718  -20.2005    2.3173 C   0  0  0  0  0  0  0  0  0  0  0  0
   13.2682  -19.6502    2.0945 O   0  0  0  0  0  0  0  0  0  0  0  0
   15.3742  -19.4436    3.0153 N   0  0  0  0  0  0  0  0  0  0  0  0
   15.0736  -18.1368    3.5091 C   0  0  0  0  0  0  0  0  0  0  0  0
   16.2830  -17.5707    4.1592 C   0  0  0  0  0  0  0  0  0  0  0  0
   17.2820  -18.2866    4.3811 O   0  0  0  0  0  0  0  0  0  0  0  0
   18.2273  -12.4503    3.3684 C   0  0  0  0  0  0  0  0  0  0  0  0
   18.0017  -13.9527    3.4875 C   0  0  1  0  0  0  0  0  0  0  0  0
   19.0553  -14.7603    2.7951 C   0  0  0  0  0  0  0  0  0  0  0  0
   17.8773  -14.3012    4.9417 C   0  0  0  0  0  0  0  0  0  0  0  0
   17.5367  -15.7135    5.2364 C   0  0  2  0  0  0  0  0  0  0  0  0
   16.3680  -16.2068    4.5575 N   0  0  0  0  0  0  0  0  0  0  0  0
   17.4212  -15.9574    6.7245 C   0  0  0  0  0  0  0  0  0  0  0  0
   18.5343  -16.0136    7.5500 O   0  0  0  0  0  0  0  0  0  0  0  0
   16.2998  -16.1188    7.2672 O   0  0  0  0  0  0  0  0  0  0  0  0
  1  2  1  0
  3  5  1  0
  3  2  1  0
  4  3  2  0
  6  5  1  0
  7  6  1  0
  7  8  2  0
 10  9  1  1
 10 12  1  0
 11 10  1  0
 13 12  1  1
 13 14  1  0
 13 15  1  0
 14  7  1  0
 15 16  1  0
 17 15  2  0
M  END
$$$$
