GGL.pdb
     RDKit          3D

 17 16  0  0  1  0  0  0  0  0999 V2000
   21.6393  -12.3638  -19.1977 N   0  0  0  0  0  0  0  0  0  0  0  0
   20.3945  -11.8107  -19.6837 C   0  0  0  0  0  0  0  0  0  0  0  0
   19.5705  -11.4144  -18.5104 C   0  0  0  0  0  0  0  0  0  0  0  0
   19.3529  -12.2071  -17.5643 O   0  0  0  0  0  0  0  0  0  0  0  0
   18.9981  -10.0987  -18.4330 N   0  0  0  0  0  0  0  0  0  0  0  0
   18.1259   -9.7568  -17.3540 C   0  0  0  0  0  0  0  0  0  0  0  0
   18.8956   -9.0205  -16.3190 C   0  0  0  0  0  0  0  0  0  0  0  0
   18.3911   -8.7752  -15.2033 O   0  0  0  0  0  0  0  0  0  0  0  0
   23.8005  -10.4465  -14.6997 C   0  0  0  0  0  0  0  0  0  0  0  0
   22.3750   -9.9133  -14.6212 C   0  0  1  0  0  0  0  0  0  0  0  0
   21.8341   -9.8903  -13.2253 C   0  0  0  0  0  0  0  0  0  0  0  0
   22.3362   -8.5619  -15.2722 C   0  0  0  0  0  0  0  0  0  0  0  0
   20.9860   -7.9807  -15.4644 C   0  0  2  0  0  0  0  0  0  0  0  0
   20.2256   -8.5629  -16.5381 N   0  0  0  0  0  0  0  0  0  0  0  0
   21.0460   -6.4775  -15.6188 C   0  0  0  0  0  0  0  0  0  0  0  0
   21.4567   -5.6471  -14.5865 O   0  0  0  0  0  0  0  0  0  0  0  0
   20.7220   -5.9260  -16.6999 O   0  0  0  0  0  0  0  0  0  0  0  0
  1  2  1  0
  3  5  1  0
  3  2  1  0
  4  3  2  0
  6  5  1  0
  7  6  1  0
  7  8  2  0
 10  9  1  1
 10 12  1  0
 11 10  1  0
 13 12  1  6
 13 14  1  0
 13 15  1  0
 14  7  1  0
 15 16  1  0
 17 15  2  0
M  END
$$$$
