GGL.pdb
     RDKit          3D

 17 16  0  0  1  0  0  0  0  0999 V2000
   17.2616  -12.8390  -15.4587 N   0  0  0  0  0  0  0  0  0  0  0  0
   16.5501  -11.5881  -15.3153 C   0  0  0  0  0  0  0  0  0  0  0  0
   17.1446  -10.8414  -14.1743 C   0  0  0  0  0  0  0  0  0  0  0  0
   17.8538  -11.4141  -13.3143 O   0  0  0  0  0  0  0  0  0  0  0  0
   16.9172   -9.4300  -14.0297 N   0  0  0  0  0  0  0  0  0  0  0  0
   17.5269   -8.7102  -12.9564 C   0  0  0  0  0  0  0  0  0  0  0  0
   16.4667   -8.1055  -12.1101 C   0  0  0  0  0  0  0  0  0  0  0  0
   15.4968   -7.5140  -12.6287 O   0  0  0  0  0  0  0  0  0  0  0  0
   12.7325   -8.7716   -7.7177 C   0  0  0  0  0  0  0  0  0  0  0  0
   13.5581   -7.6563   -8.3476 C   0  0  1  0  0  0  0  0  0  0  0  0
   13.8084   -6.5134   -7.4135 C   0  0  0  0  0  0  0  0  0  0  0  0
   14.8296   -8.2487   -8.8805 C   0  0  0  0  0  0  0  0  0  0  0  0
   15.5351   -7.4399   -9.9032 C   0  0  2  0  0  0  0  0  0  0  0  0
   16.4976   -8.1660  -10.6883 N   0  0  0  0  0  0  0  0  0  0  0  0
   16.1736   -6.2113   -9.2952 C   0  0  0  0  0  0  0  0  0  0  0  0
   15.5575   -4.9690   -9.3271 O   0  0  0  0  0  0  0  0  0  0  0  0
   17.2960   -6.2770   -8.7348 O   0  0  0  0  0  0  0  0  0  0  0  0
  1  2  1  0
  3  5  1  0
  3  2  1  0
  4  3  2  0
  6  5  1  0
  7  6  1  0
  7  8  2  0
 10  9  1  1
 10 12  1  0
 11 10  1  0
 13 12  1  1
 13 14  1  0
 13 15  1  0
 14  7  1  0
 15 16  1  0
 17 15  2  0
M  END
$$$$
