GGL.pdb
     RDKit          3D

 17 16  0  0  1  0  0  0  0  0999 V2000
   18.4477  -23.7391  -12.1073 N   0  0  0  0  0  0  0  0  0  0  0  0
   18.5823  -24.8709  -11.2171 C   0  0  0  0  0  0  0  0  0  0  0  0
   18.7159  -24.3579   -9.8272 C   0  0  0  0  0  0  0  0  0  0  0  0
   18.5798  -23.1407   -9.5617 O   0  0  0  0  0  0  0  0  0  0  0  0
   19.0074  -25.2560   -8.7440 N   0  0  0  0  0  0  0  0  0  0  0  0
   19.1666  -24.7525   -7.4163 C   0  0  0  0  0  0  0  0  0  0  0  0
   18.0697  -25.2744   -6.5618 C   0  0  0  0  0  0  0  0  0  0  0  0
   17.8591  -26.5022   -6.4735 O   0  0  0  0  0  0  0  0  0  0  0  0
   15.6554  -26.0180   -1.8239 C   0  0  0  0  0  0  0  0  0  0  0  0
   15.0811  -24.9000   -2.6857 C   0  0  1  0  0  0  0  0  0  0  0  0
   14.4410  -23.8108   -1.8824 C   0  0  0  0  0  0  0  0  0  0  0  0
   16.1678  -24.3857   -3.5836 C   0  0  0  0  0  0  0  0  0  0  0  0
   16.2052  -24.9699   -4.9455 C   0  0  2  0  0  0  0  0  0  0  0  0
   17.2144  -24.4195   -5.8108 N   0  0  0  0  0  0  0  0  0  0  0  0
   14.8499  -24.9066   -5.6136 C   0  0  0  0  0  0  0  0  0  0  0  0
   13.8843  -25.8821   -5.4138 O   0  0  0  0  0  0  0  0  0  0  0  0
   14.5515  -23.9572   -6.3802 O   0  0  0  0  0  0  0  0  0  0  0  0
  1  2  1  0
  3  5  1  0
  3  2  1  0
  4  3  2  0
  6  5  1  0
  7  6  1  0
  7  8  2  0
 10  9  1  1
 10 12  1  0
 11 10  1  0
 13 12  1  1
 13 14  1  0
 13 15  1  0
 14  7  1  0
 15 16  1  0
 17 15  2  0
M  END
$$$$
