GGL.pdb
     RDKit          3D

 17 16  0  0  1  0  0  0  0  0999 V2000
   25.3874  -20.4007   -8.7392 N   0  0  0  0  0  0  0  0  0  0  0  0
   25.8891  -20.3872  -10.0956 C   0  0  0  0  0  0  0  0  0  0  0  0
   24.9050  -21.0874  -10.9639 C   0  0  0  0  0  0  0  0  0  0  0  0
   23.9707  -21.7680  -10.4795 O   0  0  0  0  0  0  0  0  0  0  0  0
   25.0034  -20.9989  -12.3948 N   0  0  0  0  0  0  0  0  0  0  0  0
   24.0798  -21.7073  -13.2237 C   0  0  0  0  0  0  0  0  0  0  0  0
   22.9171  -20.8313  -13.5177 C   0  0  0  0  0  0  0  0  0  0  0  0
   22.3235  -20.2293  -12.5985 O   0  0  0  0  0  0  0  0  0  0  0  0
   22.8542  -18.2088  -18.0496 C   0  0  0  0  0  0  0  0  0  0  0  0
   22.5097  -18.1901  -16.5653 C   0  0  1  0  0  0  0  0  0  0  0  0
   22.3336  -16.8061  -16.0220 C   0  0  0  0  0  0  0  0  0  0  0  0
   21.2985  -19.0487  -16.3473 C   0  0  0  0  0  0  0  0  0  0  0  0
   21.2706  -19.8077  -15.0743 C   0  0  2  0  0  0  0  0  0  0  0  0
   22.4248  -20.6338  -14.8387 N   0  0  0  0  0  0  0  0  0  0  0  0
   20.0049  -20.6251  -14.9434 C   0  0  0  0  0  0  0  0  0  0  0  0
   18.7624  -20.0349  -14.7659 O   0  0  0  0  0  0  0  0  0  0  0  0
   20.0387  -21.8799  -14.9919 O   0  0  0  0  0  0  0  0  0  0  0  0
  1  2  1  0
  3  5  1  0
  3  2  1  0
  4  3  2  0
  6  5  1  0
  7  6  1  0
  7  8  2  0
 10  9  1  6
 10 12  1  0
 11 10  1  0
 13 12  1  6
 13 14  1  0
 13 15  1  0
 14  7  1  0
 15 16  1  0
 17 15  2  0
M  END
$$$$
