GGL.pdb
     RDKit          3D

 17 16  0  0  1  0  0  0  0  0999 V2000
   23.8235  -20.0842  -19.0337 N   0  0  0  0  0  0  0  0  0  0  0  0
   22.6744  -19.3978  -18.4858 C   0  0  0  0  0  0  0  0  0  0  0  0
   22.5326  -18.0932  -19.1862 C   0  0  0  0  0  0  0  0  0  0  0  0
   22.4505  -18.0249  -20.4349 O   0  0  0  0  0  0  0  0  0  0  0  0
   22.4859  -16.8666  -18.4392 N   0  0  0  0  0  0  0  0  0  0  0  0
   22.2922  -15.6217  -19.1133 C   0  0  0  0  0  0  0  0  0  0  0  0
   23.5662  -14.8584  -19.1040 C   0  0  0  0  0  0  0  0  0  0  0  0
   23.6232  -13.7067  -19.5833 O   0  0  0  0  0  0  0  0  0  0  0  0
   25.4238  -13.0034  -16.2642 C   0  0  0  0  0  0  0  0  0  0  0  0
   26.8552  -13.4091  -16.5943 C   0  0  1  0  0  0  0  0  0  0  0  0
   27.7267  -13.5216  -15.3822 C   0  0  0  0  0  0  0  0  0  0  0  0
   26.8176  -14.6795  -17.3919 C   0  0  0  0  0  0  0  0  0  0  0  0
   25.9961  -14.6390  -18.6252 C   0  0  2  0  0  0  0  0  0  0  0  0
   24.7696  -15.3881  -18.5584 N   0  0  0  0  0  0  0  0  0  0  0  0
   26.7976  -15.0518  -19.8394 C   0  0  0  0  0  0  0  0  0  0  0  0
   27.8144  -14.2613  -20.3541 O   0  0  0  0  0  0  0  0  0  0  0  0
   26.5654  -16.1371  -20.4279 O   0  0  0  0  0  0  0  0  0  0  0  0
  1  2  1  0
  3  5  1  0
  3  2  1  0
  4  3  2  0
  6  5  1  0
  7  6  1  0
  7  8  2  0
 10  9  1  1
 10 12  1  0
 11 10  1  0
 13 12  1  1
 13 14  1  0
 13 15  1  0
 14  7  1  0
 15 16  1  0
 17 15  2  0
M  END
$$$$
