GGL.pdb
     RDKit          3D

 17 16  0  0  1  0  0  0  0  0999 V2000
   25.5852  -20.7910   -8.8241 N   0  0  0  0  0  0  0  0  0  0  0  0
   24.4287  -20.9400   -9.6796 C   0  0  0  0  0  0  0  0  0  0  0  0
   24.8343  -20.6144  -11.0732 C   0  0  0  0  0  0  0  0  0  0  0  0
   24.9142  -19.4293  -11.4729 O   0  0  0  0  0  0  0  0  0  0  0  0
   25.1477  -21.6628  -12.0046 N   0  0  0  0  0  0  0  0  0  0  0  0
   25.6425  -21.3432  -13.3065 C   0  0  0  0  0  0  0  0  0  0  0  0
   24.5951  -20.6071  -14.0593 C   0  0  0  0  0  0  0  0  0  0  0  0
   24.8818  -19.5848  -14.7169 O   0  0  0  0  0  0  0  0  0  0  0  0
   21.3224  -20.2873  -18.4968 C   0  0  0  0  0  0  0  0  0  0  0  0
   21.7838  -19.5349  -17.2545 C   0  0  1  0  0  0  0  0  0  0  0  0
   20.6638  -18.8510  -16.5338 C   0  0  0  0  0  0  0  0  0  0  0  0
   22.5340  -20.4888  -16.3720 C   0  0  0  0  0  0  0  0  0  0  0  0
   22.2754  -20.3568  -14.9183 C   0  0  2  0  0  0  0  0  0  0  0  0
   23.2325  -21.0189  -14.0724 N   0  0  0  0  0  0  0  0  0  0  0  0
   20.8714  -20.7923  -14.5629 C   0  0  0  0  0  0  0  0  0  0  0  0
   19.8981  -19.8875  -14.1657 O   0  0  0  0  0  0  0  0  0  0  0  0
   20.5375  -22.0021  -14.6168 O   0  0  0  0  0  0  0  0  0  0  0  0
  1  2  1  0
  3  5  1  0
  3  2  1  0
  4  3  2  0
  6  5  1  0
  7  6  1  0
  7  8  2  0
 10  9  1  6
 10 12  1  0
 11 10  1  0
 13 12  1  6
 13 14  1  0
 13 15  1  0
 14  7  1  0
 15 16  1  0
 17 15  2  0
M  END
$$$$
