GGL.pdb
     RDKit          3D

 17 16  0  0  1  0  0  0  0  0999 V2000
   25.6820  -32.6352   -9.5790 N   0  0  0  0  0  0  0  0  0  0  0  0
   26.1391  -33.0851   -8.2827 C   0  0  0  0  0  0  0  0  0  0  0  0
   25.0352  -32.8894   -7.3050 C   0  0  0  0  0  0  0  0  0  0  0  0
   24.0147  -32.2216   -7.5935 O   0  0  0  0  0  0  0  0  0  0  0  0
   25.1138  -33.4679   -5.9921 N   0  0  0  0  0  0  0  0  0  0  0  0
   24.0635  -33.2518   -5.0476 C   0  0  0  0  0  0  0  0  0  0  0  0
   24.4355  -33.8768   -3.7527 C   0  0  0  0  0  0  0  0  0  0  0  0
   23.6665  -33.8152   -2.7706 O   0  0  0  0  0  0  0  0  0  0  0  0
   25.7613  -38.8080   -3.4306 C   0  0  0  0  0  0  0  0  0  0  0  0
   25.1574  -37.4893   -2.9632 C   0  0  1  0  0  0  0  0  0  0  0  0
   24.0128  -37.6722   -2.0156 C   0  0  0  0  0  0  0  0  0  0  0  0
   26.2525  -36.6444   -2.3813 C   0  0  0  0  0  0  0  0  0  0  0  0
   25.9694  -35.1913   -2.3035 C   0  0  2  0  0  0  0  0  0  0  0  0
   25.6658  -34.5673   -3.5638 N   0  0  0  0  0  0  0  0  0  0  0  0
   27.0838  -34.4459   -1.6038 C   0  0  0  0  0  0  0  0  0  0  0  0
   27.4967  -34.7736   -0.3209 O   0  0  0  0  0  0  0  0  0  0  0  0
   27.6784  -33.4944   -2.1688 O   0  0  0  0  0  0  0  0  0  0  0  0
  1  2  1  0
  3  5  1  0
  3  2  1  0
  4  3  2  0
  6  5  1  0
  7  6  1  0
  7  8  2  0
 10  9  1  1
 10 12  1  0
 11 10  1  0
 13 12  1  6
 13 14  1  0
 13 15  1  0
 14  7  1  0
 15 16  1  0
 17 15  2  0
M  END
$$$$
