GGL.pdb
     RDKit          3D

 17 16  0  0  1  0  0  0  0  0999 V2000
   18.5436  -15.5544  -15.2210 N   0  0  0  0  0  0  0  0  0  0  0  0
   18.3790  -15.0593  -16.5698 C   0  0  0  0  0  0  0  0  0  0  0  0
   18.7415  -13.6167  -16.5847 C   0  0  0  0  0  0  0  0  0  0  0  0
   18.3063  -12.8223  -15.7185 O   0  0  0  0  0  0  0  0  0  0  0  0
   19.6090  -13.0940  -17.6040 N   0  0  0  0  0  0  0  0  0  0  0  0
   19.8689  -11.6907  -17.6761 C   0  0  0  0  0  0  0  0  0  0  0  0
   20.9292  -11.3399  -16.6971 C   0  0  0  0  0  0  0  0  0  0  0  0
   21.6329  -12.2287  -16.1732 O   0  0  0  0  0  0  0  0  0  0  0  0
   24.7321  -10.8495  -13.8740 C   0  0  0  0  0  0  0  0  0  0  0  0
   24.8075   -9.9252  -15.0833 C   0  0  1  0  0  0  0  0  0  0  0  0
   26.1062  -10.0300  -15.8209 C   0  0  0  0  0  0  0  0  0  0  0  0
   23.6249  -10.1986  -15.9654 C   0  0  0  0  0  0  0  0  0  0  0  0
   22.3242   -9.6863  -15.4720 C   0  0  2  0  0  0  0  0  0  0  0  0
   21.1964   -9.9965  -16.3097 N   0  0  0  0  0  0  0  0  0  0  0  0
   22.3813   -8.2002  -15.1979 C   0  0  0  0  0  0  0  0  0  0  0  0
   22.6321   -7.6942  -13.9311 O   0  0  0  0  0  0  0  0  0  0  0  0
   22.2013   -7.3661  -16.1199 O   0  0  0  0  0  0  0  0  0  0  0  0
  1  2  1  0
  3  5  1  0
  3  2  1  0
  4  3  2  0
  6  5  1  0
  7  6  1  0
  7  8  2  0
 10  9  1  1
 10 12  1  0
 11 10  1  0
 13 12  1  6
 13 14  1  0
 13 15  1  0
 14  7  1  0
 15 16  1  0
 17 15  2  0
M  END
$$$$
