GGL.pdb
     RDKit          3D

 17 16  0  0  1  0  0  0  0  0999 V2000
   14.9485  -13.0522  -16.5675 N   0  0  0  0  0  0  0  0  0  0  0  0
   15.9063  -12.4970  -15.6369 C   0  0  0  0  0  0  0  0  0  0  0  0
   16.0895  -11.0566  -15.9599 C   0  0  0  0  0  0  0  0  0  0  0  0
   15.3802  -10.4818  -16.8184 O   0  0  0  0  0  0  0  0  0  0  0  0
   17.0955  -10.2815  -15.2875 N   0  0  0  0  0  0  0  0  0  0  0  0
   17.1738   -8.8700  -15.4963 C   0  0  0  0  0  0  0  0  0  0  0  0
   18.3356   -8.3295  -14.7454 C   0  0  0  0  0  0  0  0  0  0  0  0
   18.2361   -8.0479  -13.5328 O   0  0  0  0  0  0  0  0  0  0  0  0
   23.0415  -10.4671  -15.4532 C   0  0  0  0  0  0  0  0  0  0  0  0
   21.9552   -9.8265  -14.5977 C   0  0  1  0  0  0  0  0  0  0  0  0
   22.0567  -10.1940  -13.1498 C   0  0  0  0  0  0  0  0  0  0  0  0
   21.9919   -8.3423  -14.8152 C   0  0  0  0  0  0  0  0  0  0  0  0
   20.7148   -7.6273  -14.5793 C   0  0  2  0  0  0  0  0  0  0  0  0
   19.6024   -8.1070  -15.3554 N   0  0  0  0  0  0  0  0  0  0  0  0
   20.8740   -6.1341  -14.7578 C   0  0  0  0  0  0  0  0  0  0  0  0
   20.1929   -5.4334  -15.7421 O   0  0  0  0  0  0  0  0  0  0  0  0
   21.6374   -5.4723  -14.0112 O   0  0  0  0  0  0  0  0  0  0  0  0
  1  2  1  0
  3  5  1  0
  3  2  1  0
  4  3  2  0
  6  5  1  0
  7  6  1  0
  7  8  2  0
 10  9  1  6
 10 12  1  0
 11 10  1  0
 13 12  1  6
 13 14  1  0
 13 15  1  0
 14  7  1  0
 15 16  1  0
 17 15  2  0
M  END
$$$$
