GGL.pdb
     RDKit          3D

 17 16  0  0  1  0  0  0  0  0999 V2000
   10.5906  -20.0144   -4.4406 N   0  0  0  0  0  0  0  0  0  0  0  0
   11.0320  -20.8872   -3.3752 C   0  0  0  0  0  0  0  0  0  0  0  0
   12.3687  -21.4287   -3.7394 C   0  0  0  0  0  0  0  0  0  0  0  0
   13.1620  -20.7839   -4.4643 O   0  0  0  0  0  0  0  0  0  0  0  0
   12.7867  -22.7185   -3.2632 N   0  0  0  0  0  0  0  0  0  0  0  0
   14.0952  -23.2066   -3.5656 C   0  0  0  0  0  0  0  0  0  0  0  0
   14.8892  -23.2826   -2.3128 C   0  0  0  0  0  0  0  0  0  0  0  0
   16.0609  -23.7143   -2.3256 O   0  0  0  0  0  0  0  0  0  0  0  0
   15.2444  -19.5949    1.8169 C   0  0  0  0  0  0  0  0  0  0  0  0
   15.7356  -20.6753    0.8609 C   0  0  1  0  0  0  0  0  0  0  0  0
   17.2182  -20.8761    0.9155 C   0  0  0  0  0  0  0  0  0  0  0  0
   14.9763  -21.9389    1.1407 C   0  0  0  0  0  0  0  0  0  0  0  0
   15.1488  -23.0248    0.1464 C   0  0  2  0  0  0  0  0  0  0  0  0
   14.3677  -22.8750   -1.0525 N   0  0  0  0  0  0  0  0  0  0  0  0
   14.9084  -24.3847    0.7628 C   0  0  0  0  0  0  0  0  0  0  0  0
   15.8354  -24.9881    1.5997 O   0  0  0  0  0  0  0  0  0  0  0  0
   13.8486  -25.0192    0.5339 O   0  0  0  0  0  0  0  0  0  0  0  0
  1  2  1  0
  3  5  1  0
  3  2  1  0
  4  3  2  0
  6  5  1  0
  7  6  1  0
  7  8  2  0
 10  9  1  1
 10 12  1  0
 11 10  1  0
 13 12  1  1
 13 14  1  0
 13 15  1  0
 14  7  1  0
 15 16  1  0
 17 15  2  0
M  END
$$$$
