VQN.pdb
     RDKit          3D

 25 24  0  0  1  0  0  0  0  0999 V2000
    8.9674  -13.0317   20.6304 C   0  0  0  0  0  0  0  0  0  0  0  0
    8.0378  -13.7687   19.6694 C   0  0  1  0  0  0  0  0  0  0  0  0
    6.8317  -12.9374   19.3325 C   0  0  0  0  0  0  0  0  0  0  0  0
    8.7568  -14.1448   18.3983 C   0  0  2  0  0  0  0  0  0  0  0  0
    7.8889  -14.9194   17.5732 N   0  0  0  0  0  0  0  0  0  0  0  0
    9.9893  -14.9014   18.7929 C   0  0  0  0  0  0  0  0  0  0  0  0
    9.9079  -16.1304   19.0429 O   0  0  0  0  0  0  0  0  0  0  0  0
   15.5477  -13.7777   16.8721 N   0  0  0  0  0  0  0  0  0  0  0  0
   15.8392  -14.5986   17.9882 C   0  0  0  0  0  0  0  0  0  0  0  0
   16.9538  -15.1953   18.0403 O   0  0  0  0  0  0  0  0  0  0  0  0
   14.8956  -14.7994   19.1138 C   0  0  0  0  0  0  0  0  0  0  0  0
   13.6437  -13.9966   18.8695 C   0  0  0  0  0  0  0  0  0  0  0  0
   12.4150  -14.8018   19.2508 C   0  0  2  0  0  0  0  0  0  0  0  0
   11.1992  -14.1671   18.8621 N   0  0  0  0  0  0  0  0  0  0  0  0
   12.4428  -14.9763   20.7371 C   0  0  0  0  0  0  0  0  0  0  0  0
   12.0370  -14.0856   21.5220 O   0  0  0  0  0  0  0  0  0  0  0  0
   11.4995  -17.0382   25.1452 N   0  0  0  0  0  0  0  0  0  0  0  0
   10.6068  -17.0669   24.0482 C   0  0  0  0  0  0  0  0  0  0  0  0
    9.4009  -17.3603   24.2304 O   0  0  0  0  0  0  0  0  0  0  0  0
   11.0925  -16.7544   22.7051 C   0  0  0  0  0  0  0  0  0  0  0  0
   12.6007  -16.4673   22.6914 C   0  0  2  0  0  0  0  0  0  0  0  0
   12.9373  -16.1730   21.3128 N   0  0  0  0  0  0  0  0  0  0  0  0
   13.3015  -17.6609   23.1960 C   0  0  0  0  0  0  0  0  0  0  0  0
   13.7122  -18.5087   22.3718 O   0  0  0  0  0  0  0  0  0  0  0  0
   13.5239  -17.8819   24.5400 O   0  0  0  0  0  0  0  0  0  0  0  0
  2  1  1  1
  2  3  1  0
  4  6  1  0
  4  2  1  0
  4  5  1  6
  6  7  2  0
  9  8  1  0
 10  9  2  0
 11  9  1  0
 12 11  1  0
 13 12  1  1
 14 13  1  0
 14  6  1  0
 15 13  1  0
 16 15  2  0
 18 17  1  0
 18 19  2  0
 20 18  1  0
 21 20  1  6
 21 22  1  0
 22 15  1  0
 23 21  1  0
 23 25  1  0
 24 23  2  0
M  END
$$$$
