VQN.pdb
     RDKit          3D

 25 24  0  0  1  0  0  0  0  0999 V2000
   15.6200  -20.1504   17.3460 C   0  0  0  0  0  0  0  0  0  0  0  0
   14.4687  -20.1587   16.3433 C   0  0  1  0  0  0  0  0  0  0  0  0
   14.7870  -21.0224   15.1551 C   0  0  0  0  0  0  0  0  0  0  0  0
   13.1923  -20.6415   16.9849 C   0  0  2  0  0  0  0  0  0  0  0  0
   12.1746  -20.7536   15.9920 N   0  0  0  0  0  0  0  0  0  0  0  0
   12.8338  -19.6560   18.0561 C   0  0  0  0  0  0  0  0  0  0  0  0
   12.4347  -18.5087   17.7335 O   0  0  0  0  0  0  0  0  0  0  0  0
    9.5506  -20.8164   22.9442 N   0  0  0  0  0  0  0  0  0  0  0  0
    9.2430  -20.3452   21.6451 C   0  0  0  0  0  0  0  0  0  0  0  0
    8.0450  -20.3906   21.2405 O   0  0  0  0  0  0  0  0  0  0  0  0
   10.2631  -19.7946   20.7211 C   0  0  0  0  0  0  0  0  0  0  0  0
   11.6044  -19.7730   21.4083 C   0  0  0  0  0  0  0  0  0  0  0  0
   12.6661  -19.2114   20.4805 C   0  0  2  0  0  0  0  0  0  0  0  0
   12.9705  -20.0883   19.3985 N   0  0  0  0  0  0  0  0  0  0  0  0
   13.8943  -18.9763   21.3030 C   0  0  0  0  0  0  0  0  0  0  0  0
   14.6956  -19.8993   21.5862 O   0  0  0  0  0  0  0  0  0  0  0  0
   18.4317  -16.5623   22.6144 N   0  0  0  0  0  0  0  0  0  0  0  0
   17.2322  -15.8568   22.8690 C   0  0  0  0  0  0  0  0  0  0  0  0
   17.2112  -14.9513   23.7368 O   0  0  0  0  0  0  0  0  0  0  0  0
   16.0206  -16.1852   22.1197 C   0  0  0  0  0  0  0  0  0  0  0  0
   15.3941  -17.5057   22.5897 C   0  0  2  0  0  0  0  0  0  0  0  0
   14.1944  -17.6819   21.7958 N   0  0  0  0  0  0  0  0  0  0  0  0
   15.1007  -17.3900   24.0288 C   0  0  0  0  0  0  0  0  0  0  0  0
   16.0515  -17.4416   24.8411 O   0  0  0  0  0  0  0  0  0  0  0  0
   13.8203  -17.2265   24.5174 O   0  0  0  0  0  0  0  0  0  0  0  0
  2  1  1  1
  2  3  1  0
  4  6  1  0
  4  2  1  0
  4  5  1  6
  6  7  2  0
  9  8  1  0
 10  9  2  0
 11  9  1  0
 12 11  1  0
 13 12  1  1
 14 13  1  0
 14  6  1  0
 15 13  1  0
 16 15  2  0
 18 17  1  0
 18 19  2  0
 20 18  1  0
 21 20  1  6
 21 22  1  0
 22 15  1  0
 23 21  1  0
 23 25  1  0
 24 23  2  0
M  END
$$$$
