VQN.pdb
     RDKit          3D

 25 24  0  0  1  0  0  0  0  0999 V2000
    6.7735  -12.6177   20.5671 C   0  0  0  0  0  0  0  0  0  0  0  0
    7.7772  -13.1978   19.5736 C   0  0  1  0  0  0  0  0  0  0  0  0
    9.0075  -12.3397   19.4779 C   0  0  0  0  0  0  0  0  0  0  0  0
    8.1747  -14.6006   19.9587 C   0  0  2  0  0  0  0  0  0  0  0  0
    7.0170  -15.4335   19.9789 N   0  0  0  0  0  0  0  0  0  0  0  0
    8.8398  -14.5210   21.2997 C   0  0  0  0  0  0  0  0  0  0  0  0
   10.0669  -14.2580   21.3676 O   0  0  0  0  0  0  0  0  0  0  0  0
    5.6798  -13.1053   26.6062 N   0  0  0  0  0  0  0  0  0  0  0  0
    7.0547  -13.1452   26.9415 C   0  0  0  0  0  0  0  0  0  0  0  0
    7.4341  -12.6601   28.0468 O   0  0  0  0  0  0  0  0  0  0  0  0
    8.0874  -13.7324   26.0547 C   0  0  0  0  0  0  0  0  0  0  0  0
    7.4685  -14.0835   24.7261 C   0  0  0  0  0  0  0  0  0  0  0  0
    8.5346  -14.5486   23.7512 C   0  0  2  0  0  0  0  0  0  0  0  0
    8.0251  -14.7531   22.4356 N   0  0  0  0  0  0  0  0  0  0  0  0
    9.0930  -15.8312   24.2834 C   0  0  0  0  0  0  0  0  0  0  0  0
    8.4763  -16.9196   24.1865 O   0  0  0  0  0  0  0  0  0  0  0  0
   12.6235  -19.3087   25.5875 N   0  0  0  0  0  0  0  0  0  0  0  0
   13.1544  -18.2769   24.7783 C   0  0  0  0  0  0  0  0  0  0  0  0
   14.2842  -18.4140   24.2510 O   0  0  0  0  0  0  0  0  0  0  0  0
   12.3844  -17.0536   24.5591 C   0  0  0  0  0  0  0  0  0  0  0  0
   10.9802  -17.1401   25.1738 C   0  0  2  0  0  0  0  0  0  0  0  0
   10.3566  -15.8558   24.9244 N   0  0  0  0  0  0  0  0  0  0  0  0
   11.1237  -17.4224   26.6127 C   0  0  0  0  0  0  0  0  0  0  0  0
   10.8857  -16.5054   27.4306 O   0  0  0  0  0  0  0  0  0  0  0  0
   11.5093  -18.6566   27.0950 O   0  0  0  0  0  0  0  0  0  0  0  0
  2  1  1  1
  2  3  1  0
  4  6  1  0
  4  2  1  0
  4  5  1  1
  6  7  2  0
  9  8  1  0
 10  9  2  0
 11  9  1  0
 12 11  1  0
 13 12  1  1
 14 13  1  0
 14  6  1  0
 15 13  1  0
 16 15  2  0
 18 17  1  0
 18 19  2  0
 20 18  1  0
 21 20  1  6
 21 22  1  0
 22 15  1  0
 23 21  1  0
 23 25  1  0
 24 23  2  0
M  END
$$$$
