VQN.pdb
     RDKit          3D

 25 24  0  0  1  0  0  0  0  0999 V2000
    7.4240  -12.4312   19.3080 C   0  0  0  0  0  0  0  0  0  0  0  0
    8.6497  -13.3068   19.5574 C   0  0  1  0  0  0  0  0  0  0  0  0
    8.3404  -14.4147   20.5248 C   0  0  0  0  0  0  0  0  0  0  0  0
    9.1673  -13.8971   18.2699 C   0  0  2  0  0  0  0  0  0  0  0  0
    8.1369  -14.6653   17.6517 N   0  0  0  0  0  0  0  0  0  0  0  0
   10.3663  -14.7285   18.6135 C   0  0  0  0  0  0  0  0  0  0  0  0
   10.2426  -15.9734   18.7343 O   0  0  0  0  0  0  0  0  0  0  0  0
   15.0250  -15.3396   16.7284 N   0  0  0  0  0  0  0  0  0  0  0  0
   15.6629  -15.5117   17.9806 C   0  0  0  0  0  0  0  0  0  0  0  0
   16.6209  -16.3327   18.0768 O   0  0  0  0  0  0  0  0  0  0  0  0
   15.2628  -14.7718   19.2013 C   0  0  0  0  0  0  0  0  0  0  0  0
   14.0401  -13.9410   18.9075 C   0  0  0  0  0  0  0  0  0  0  0  0
   12.7791  -14.7517   19.1442 C   0  0  2  0  0  0  0  0  0  0  0  0
   11.5949  -14.0437   18.7856 N   0  0  0  0  0  0  0  0  0  0  0  0
   12.7412  -15.0980   20.5999 C   0  0  0  0  0  0  0  0  0  0  0  0
   11.8819  -14.6188   21.3785 O   0  0  0  0  0  0  0  0  0  0  0  0
   11.1628  -16.5786   24.0370 N   0  0  0  0  0  0  0  0  0  0  0  0
   11.0542  -17.4570   22.9334 C   0  0  0  0  0  0  0  0  0  0  0  0
    9.9897  -18.0926   22.7422 O   0  0  0  0  0  0  0  0  0  0  0  0
   12.1830  -17.6216   22.0191 C   0  0  0  0  0  0  0  0  0  0  0  0
   13.3519  -16.6921   22.3756 C   0  0  2  0  0  0  0  0  0  0  0  0
   13.6913  -15.9924   21.1526 N   0  0  0  0  0  0  0  0  0  0  0  0
   14.4639  -17.5205   22.8733 C   0  0  0  0  0  0  0  0  0  0  0  0
   15.3139  -16.9941   23.6263 O   0  0  0  0  0  0  0  0  0  0  0  0
   14.6061  -18.8530   22.5434 O   0  0  0  0  0  0  0  0  0  0  0  0
  2  1  1  6
  2  3  1  0
  4  6  1  0
  4  2  1  0
  4  5  1  1
  6  7  2  0
  9  8  1  0
 10  9  2  0
 11  9  1  0
 12 11  1  0
 13 12  1  1
 14 13  1  0
 14  6  1  0
 15 13  1  0
 16 15  2  0
 18 17  1  0
 18 19  2  0
 20 18  1  0
 21 20  1  6
 21 22  1  0
 22 15  1  0
 23 21  1  0
 23 25  1  0
 24 23  2  0
M  END
$$$$
