VQN.pdb
     RDKit          3D

 25 24  0  0  1  0  0  0  0  0999 V2000
    8.1630  -12.2003   20.3732 C   0  0  0  0  0  0  0  0  0  0  0  0
    7.4140  -13.4773   20.0001 C   0  0  1  0  0  0  0  0  0  0  0  0
    6.9053  -13.4178   18.5870 C   0  0  0  0  0  0  0  0  0  0  0  0
    8.2934  -14.6912   20.1644 C   0  0  2  0  0  0  0  0  0  0  0  0
    7.5509  -15.8635   19.8347 N   0  0  0  0  0  0  0  0  0  0  0  0
    8.7718  -14.7035   21.5850 C   0  0  0  0  0  0  0  0  0  0  0  0
    9.5668  -13.8131   21.9784 O   0  0  0  0  0  0  0  0  0  0  0  0
    7.0584  -18.4331   26.3615 N   0  0  0  0  0  0  0  0  0  0  0  0
    6.5395  -18.4683   25.0446 C   0  0  0  0  0  0  0  0  0  0  0  0
    5.8398  -19.4589   24.6841 O   0  0  0  0  0  0  0  0  0  0  0  0
    6.7758  -17.3924   24.0525 C   0  0  0  0  0  0  0  0  0  0  0  0
    7.5628  -16.2795   24.6956 C   0  0  0  0  0  0  0  0  0  0  0  0
    8.6884  -15.8301   23.7822 C   0  0  2  0  0  0  0  0  0  0  0  0
    8.2873  -15.7432   22.4170 N   0  0  0  0  0  0  0  0  0  0  0  0
    9.7974  -16.8255   23.9221 C   0  0  0  0  0  0  0  0  0  0  0  0
    9.7930  -17.9209   23.3103 O   0  0  0  0  0  0  0  0  0  0  0  0
   13.3867  -17.6640   22.3620 N   0  0  0  0  0  0  0  0  0  0  0  0
   13.5006  -16.6360   23.3271 C   0  0  0  0  0  0  0  0  0  0  0  0
   13.8092  -15.4739   22.9697 O   0  0  0  0  0  0  0  0  0  0  0  0
   13.2581  -16.9312   24.7383 C   0  0  0  0  0  0  0  0  0  0  0  0
   11.8933  -17.5984   24.9599 C   0  0  2  0  0  0  0  0  0  0  0  0
   10.9046  -16.5568   24.7647 N   0  0  0  0  0  0  0  0  0  0  0  0
   11.8653  -18.1473   26.3268 C   0  0  0  0  0  0  0  0  0  0  0  0
   12.6269  -19.1004   26.6064 O   0  0  0  0  0  0  0  0  0  0  0  0
   11.0339  -17.6530   27.3113 O   0  0  0  0  0  0  0  0  0  0  0  0
  2  1  1  6
  2  3  1  0
  4  6  1  0
  4  2  1  0
  4  5  1  1
  6  7  2  0
  9  8  1  0
 10  9  2  0
 11  9  1  0
 12 11  1  0
 13 12  1  1
 14 13  1  0
 14  6  1  0
 15 13  1  0
 16 15  2  0
 18 17  1  0
 18 19  2  0
 20 18  1  0
 21 20  1  1
 21 22  1  0
 22 15  1  0
 23 21  1  0
 23 25  1  0
 24 23  2  0
M  END
$$$$
