VQN.pdb
     RDKit          3D

 25 24  0  0  1  0  0  0  0  0999 V2000
    7.6952  -12.3107   20.5448 C   0  0  0  0  0  0  0  0  0  0  0  0
    7.8403  -13.6203   19.7735 C   0  0  1  0  0  0  0  0  0  0  0  0
    8.3073  -13.3751   18.3660 C   0  0  0  0  0  0  0  0  0  0  0  0
    8.8020  -14.5544   20.4638 C   0  0  2  0  0  0  0  0  0  0  0  0
    8.9182  -15.7590   19.7092 N   0  0  0  0  0  0  0  0  0  0  0  0
    8.2700  -14.7985   21.8438 C   0  0  0  0  0  0  0  0  0  0  0  0
    8.1516  -13.8343   22.6414 O   0  0  0  0  0  0  0  0  0  0  0  0
    6.0052  -20.4941   23.4748 N   0  0  0  0  0  0  0  0  0  0  0  0
    5.3241  -19.5057   22.7241 C   0  0  0  0  0  0  0  0  0  0  0  0
    4.2838  -19.8285   22.0803 O   0  0  0  0  0  0  0  0  0  0  0  0
    5.7710  -18.0941   22.6507 C   0  0  0  0  0  0  0  0  0  0  0  0
    6.9463  -17.8903   23.5719 C   0  0  0  0  0  0  0  0  0  0  0  0
    7.4530  -16.4629   23.4766 C   0  0  2  0  0  0  0  0  0  0  0  0
    7.9253  -16.1330   22.1727 N   0  0  0  0  0  0  0  0  0  0  0  0
    8.5641  -16.3196   24.4692 C   0  0  0  0  0  0  0  0  0  0  0  0
    9.7671  -16.4861   24.1541 O   0  0  0  0  0  0  0  0  0  0  0  0
    9.7036  -13.6298   29.8230 N   0  0  0  0  0  0  0  0  0  0  0  0
   10.0194  -14.4086   28.6850 C   0  0  0  0  0  0  0  0  0  0  0  0
   11.1765  -14.8726   28.5461 O   0  0  0  0  0  0  0  0  0  0  0  0
    8.9962  -14.6703   27.6742 C   0  0  0  0  0  0  0  0  0  0  0  0
    9.3993  -15.8122   26.7302 C   0  0  2  0  0  0  0  0  0  0  0  0
    8.2864  -15.9863   25.8183 N   0  0  0  0  0  0  0  0  0  0  0  0
    9.6501  -17.0151   27.5431 C   0  0  0  0  0  0  0  0  0  0  0  0
    8.7097  -17.8196   27.7302 O   0  0  0  0  0  0  0  0  0  0  0  0
   10.8796  -17.2910   28.1059 O   0  0  0  0  0  0  0  0  0  0  0  0
  2  1  1  1
  2  3  1  0
  4  6  1  0
  4  2  1  0
  4  5  1  6
  6  7  2  0
  9  8  1  0
 10  9  2  0
 11  9  1  0
 12 11  1  0
 13 12  1  6
 14 13  1  0
 14  6  1  0
 15 13  1  0
 16 15  2  0
 18 17  1  0
 18 19  2  0
 20 18  1  0
 21 20  1  1
 21 22  1  0
 22 15  1  0
 23 21  1  0
 23 25  1  0
 24 23  2  0
M  END
$$$$
