VQN.pdb
     RDKit          3D

 25 24  0  0  1  0  0  0  0  0999 V2000
    7.1638  -11.5826   24.9120 C   0  0  0  0  0  0  0  0  0  0  0  0
    7.5102  -13.0095   25.3302 C   0  0  1  0  0  0  0  0  0  0  0  0
    8.5779  -13.0234   26.3881 C   0  0  0  0  0  0  0  0  0  0  0  0
    6.2919  -13.7378   25.8397 C   0  0  2  0  0  0  0  0  0  0  0  0
    5.9122  -13.2005   27.1051 N   0  0  0  0  0  0  0  0  0  0  0  0
    6.6471  -15.1916   25.9241 C   0  0  0  0  0  0  0  0  0  0  0  0
    7.1694  -15.6415   26.9750 O   0  0  0  0  0  0  0  0  0  0  0  0
    4.7622  -19.5590   21.5838 N   0  0  0  0  0  0  0  0  0  0  0  0
    5.4391  -20.2668   22.6062 C   0  0  0  0  0  0  0  0  0  0  0  0
    5.5041  -21.5289   22.5431 O   0  0  0  0  0  0  0  0  0  0  0  0
    6.0838  -19.5995   23.7623 C   0  0  0  0  0  0  0  0  0  0  0  0
    5.8563  -18.1121   23.6752 C   0  0  0  0  0  0  0  0  0  0  0  0
    6.5465  -17.4022   24.8254 C   0  0  2  0  0  0  0  0  0  0  0  0
    6.3661  -15.9886   24.7867 N   0  0  0  0  0  0  0  0  0  0  0  0
    8.0043  -17.7295   24.7378 C   0  0  0  0  0  0  0  0  0  0  0  0
    8.4387  -18.8947   24.9055 O   0  0  0  0  0  0  0  0  0  0  0  0
   12.9944  -16.5848   22.2152 N   0  0  0  0  0  0  0  0  0  0  0  0
   12.4583  -16.1079   23.4343 C   0  0  0  0  0  0  0  0  0  0  0  0
   13.2221  -15.8522   24.3960 O   0  0  0  0  0  0  0  0  0  0  0  0
   11.0156  -15.9143   23.5698 C   0  0  0  0  0  0  0  0  0  0  0  0
   10.3400  -17.0999   24.2736 C   0  0  2  0  0  0  0  0  0  0  0  0
    8.9547  -16.7161   24.4587 N   0  0  0  0  0  0  0  0  0  0  0  0
   11.0323  -17.3314   25.5533 C   0  0  0  0  0  0  0  0  0  0  0  0
   10.5743  -16.7972   26.5884 O   0  0  0  0  0  0  0  0  0  0  0  0
   12.1646  -18.1136   25.6571 O   0  0  0  0  0  0  0  0  0  0  0  0
  2  1  1  1
  2  3  1  0
  4  6  1  0
  4  2  1  0
  4  5  1  1
  6  7  2  0
  9  8  1  0
 10  9  2  0
 11  9  1  0
 12 11  1  0
 13 12  1  6
 14 13  1  0
 14  6  1  0
 15 13  1  0
 16 15  2  0
 18 17  1  0
 18 19  2  0
 20 18  1  0
 21 20  1  1
 21 22  1  0
 22 15  1  0
 23 21  1  0
 23 25  1  0
 24 23  2  0
M  END
$$$$
