VQN.pdb
     RDKit          3D

 25 24  0  0  1  0  0  0  0  0999 V2000
    7.7705  -12.0034   19.5298 C   0  0  0  0  0  0  0  0  0  0  0  0
    8.8137  -13.0937   19.7616 C   0  0  1  0  0  0  0  0  0  0  0  0
    8.3102  -14.1346   20.7219 C   0  0  0  0  0  0  0  0  0  0  0  0
    9.2046  -13.7569   18.4649 C   0  0  2  0  0  0  0  0  0  0  0  0
    8.0825  -14.4589   17.9335 N   0  0  0  0  0  0  0  0  0  0  0  0
   10.3557  -14.6697   18.7628 C   0  0  0  0  0  0  0  0  0  0  0  0
   10.1622  -15.9099   18.8266 O   0  0  0  0  0  0  0  0  0  0  0  0
   14.7114  -15.1269   16.3697 N   0  0  0  0  0  0  0  0  0  0  0  0
   15.4989  -15.5011   17.4852 C   0  0  0  0  0  0  0  0  0  0  0  0
   16.4453  -16.3251   17.3230 O   0  0  0  0  0  0  0  0  0  0  0  0
   15.2705  -14.9724   18.8512 C   0  0  0  0  0  0  0  0  0  0  0  0
   14.0693  -14.0622   18.8436 C   0  0  0  0  0  0  0  0  0  0  0  0
   12.7989  -14.8592   19.0767 C   0  0  2  0  0  0  0  0  0  0  0  0
   11.6216  -14.0641   18.9594 N   0  0  0  0  0  0  0  0  0  0  0  0
   12.8847  -15.4374   20.4546 C   0  0  0  0  0  0  0  0  0  0  0  0
   12.8495  -14.7202   21.4834 O   0  0  0  0  0  0  0  0  0  0  0  0
   10.2455  -17.8029   22.0224 N   0  0  0  0  0  0  0  0  0  0  0  0
   11.1268  -18.8032   21.5491 C   0  0  0  0  0  0  0  0  0  0  0  0
   10.6977  -19.7094   20.7954 O   0  0  0  0  0  0  0  0  0  0  0  0
   12.5353  -18.7778   21.9400 C   0  0  0  0  0  0  0  0  0  0  0  0
   13.0908  -17.3476   21.9960 C   0  0  2  0  0  0  0  0  0  0  0  0
   13.0111  -16.8363   20.6422 N   0  0  0  0  0  0  0  0  0  0  0  0
   14.4775  -17.4109   22.4895 C   0  0  0  0  0  0  0  0  0  0  0  0
   15.4128  -17.2562   21.6722 O   0  0  0  0  0  0  0  0  0  0  0  0
   14.7870  -17.6331   23.8159 O   0  0  0  0  0  0  0  0  0  0  0  0
  2  1  1  6
  2  3  1  0
  4  6  1  0
  4  2  1  0
  4  5  1  1
  6  7  2  0
  9  8  1  0
 10  9  2  0
 11  9  1  0
 12 11  1  0
 13 12  1  1
 14 13  1  0
 14  6  1  0
 15 13  1  0
 16 15  2  0
 18 17  1  0
 18 19  2  0
 20 18  1  0
 21 20  1  6
 21 22  1  0
 22 15  1  0
 23 21  1  0
 23 25  1  0
 24 23  2  0
M  END
$$$$
