VQN.pdb
     RDKit          3D

 25 24  0  0  1  0  0  0  0  0999 V2000
    9.4332  -12.7264   20.3821 C   0  0  0  0  0  0  0  0  0  0  0  0
    8.3682  -13.1812   19.3872 C   0  0  1  0  0  0  0  0  0  0  0  0
    7.4997  -12.0329   18.9554 C   0  0  0  0  0  0  0  0  0  0  0  0
    8.9953  -13.8181   18.1726 C   0  0  2  0  0  0  0  0  0  0  0  0
    7.9718  -14.2060   17.2581 N   0  0  0  0  0  0  0  0  0  0  0  0
    9.8015  -14.9877   18.6513 C   0  0  0  0  0  0  0  0  0  0  0  0
    9.2297  -16.0847   18.8733 O   0  0  0  0  0  0  0  0  0  0  0  0
   12.3198  -18.9414   16.1195 N   0  0  0  0  0  0  0  0  0  0  0  0
   13.1059  -18.0047   16.8330 C   0  0  0  0  0  0  0  0  0  0  0  0
   14.1717  -18.3939   17.3929 O   0  0  0  0  0  0  0  0  0  0  0  0
   12.7418  -16.5734   16.9610 C   0  0  0  0  0  0  0  0  0  0  0  0
   13.2169  -16.0510   18.2926 C   0  0  0  0  0  0  0  0  0  0  0  0
   12.0424  -15.8502   19.2326 C   0  0  2  0  0  0  0  0  0  0  0  0
   11.1918  -14.7798   18.8290 N   0  0  0  0  0  0  0  0  0  0  0  0
   12.6047  -15.5663   20.5904 C   0  0  0  0  0  0  0  0  0  0  0  0
   12.9715  -14.4168   20.9346 O   0  0  0  0  0  0  0  0  0  0  0  0
   12.0647  -17.4547   26.2603 N   0  0  0  0  0  0  0  0  0  0  0  0
   12.5830  -16.6187   25.2436 C   0  0  0  0  0  0  0  0  0  0  0  0
   13.3769  -15.6934   25.5388 O   0  0  0  0  0  0  0  0  0  0  0  0
   12.1918  -16.8356   23.8518 C   0  0  0  0  0  0  0  0  0  0  0  0
   13.2251  -16.2670   22.8688 C   0  0  2  0  0  0  0  0  0  0  0  0
   12.7427  -16.6049   21.5446 N   0  0  0  0  0  0  0  0  0  0  0  0
   14.5298  -16.8847   23.1634 C   0  0  0  0  0  0  0  0  0  0  0  0
   15.5040  -16.1393   23.4123 O   0  0  0  0  0  0  0  0  0  0  0  0
   14.7212  -18.2514   23.1765 O   0  0  0  0  0  0  0  0  0  0  0  0
  2  1  1  1
  2  3  1  0
  4  6  1  0
  4  2  1  0
  4  5  1  6
  6  7  2  0
  9  8  1  0
 10  9  2  0
 11  9  1  0
 12 11  1  0
 13 12  1  6
 14 13  1  0
 14  6  1  0
 15 13  1  0
 16 15  2  0
 18 17  1  0
 18 19  2  0
 20 18  1  0
 21 20  1  1
 21 22  1  0
 22 15  1  0
 23 21  1  0
 23 25  1  0
 24 23  2  0
M  END
$$$$
