VQN.pdb
     RDKit          3D

 25 24  0  0  1  0  0  0  0  0999 V2000
    7.8758  -12.0467   20.2200 C   0  0  0  0  0  0  0  0  0  0  0  0
    7.5957  -13.3787   19.5284 C   0  0  1  0  0  0  0  0  0  0  0  0
    7.4117  -13.1960   18.0478 C   0  0  0  0  0  0  0  0  0  0  0  0
    8.7093  -14.3649   19.7759 C   0  0  2  0  0  0  0  0  0  0  0  0
    8.4160  -15.5901   19.1073 N   0  0  0  0  0  0  0  0  0  0  0  0
    8.8236  -14.5417   21.2601 C   0  0  0  0  0  0  0  0  0  0  0  0
    9.2488  -13.5926   21.9658 O   0  0  0  0  0  0  0  0  0  0  0  0
    5.8656  -18.9180   24.8375 N   0  0  0  0  0  0  0  0  0  0  0  0
    6.7705  -18.2368   25.6871 C   0  0  0  0  0  0  0  0  0  0  0  0
    6.7194  -18.4433   26.9344 O   0  0  0  0  0  0  0  0  0  0  0  0
    7.7880  -17.2819   25.1866 C   0  0  0  0  0  0  0  0  0  0  0  0
    7.5578  -17.0251   23.7195 C   0  0  0  0  0  0  0  0  0  0  0  0
    8.6246  -16.0956   23.1704 C   0  0  2  0  0  0  0  0  0  0  0  0
    8.4364  -15.7979   21.7890 N   0  0  0  0  0  0  0  0  0  0  0  0
    9.9456  -16.7710   23.3678 C   0  0  0  0  0  0  0  0  0  0  0  0
   10.6490  -17.1577   22.4035 O   0  0  0  0  0  0  0  0  0  0  0  0
   13.1127  -17.7499   22.4091 N   0  0  0  0  0  0  0  0  0  0  0  0
   13.3092  -16.4886   23.0189 C   0  0  0  0  0  0  0  0  0  0  0  0
   14.0414  -15.6336   22.4656 O   0  0  0  0  0  0  0  0  0  0  0  0
   12.6582  -16.1855   24.2924 C   0  0  0  0  0  0  0  0  0  0  0  0
   11.8424  -17.3750   24.8185 C   0  0  2  0  0  0  0  0  0  0  0  0
   10.4504  -16.9988   24.6722 N   0  0  0  0  0  0  0  0  0  0  0  0
   12.2153  -17.6031   26.2255 C   0  0  0  0  0  0  0  0  0  0  0  0
   11.5775  -17.0036   27.1201 O   0  0  0  0  0  0  0  0  0  0  0  0
   13.2387  -18.4513   26.5969 O   0  0  0  0  0  0  0  0  0  0  0  0
  2  1  1  1
  2  3  1  0
  4  6  1  0
  4  2  1  0
  4  5  1  6
  6  7  2  0
  9  8  1  0
 10  9  2  0
 11  9  1  0
 12 11  1  0
 13 12  1  6
 14 13  1  0
 14  6  1  0
 15 13  1  0
 16 15  2  0
 18 17  1  0
 18 19  2  0
 20 18  1  0
 21 20  1  1
 21 22  1  0
 22 15  1  0
 23 21  1  0
 23 25  1  0
 24 23  2  0
M  END
$$$$
