VQN.pdb
     RDKit          3D

 25 24  0  0  1  0  0  0  0  0999 V2000
    6.6772  -10.6536   26.4023 C   0  0  0  0  0  0  0  0  0  0  0  0
    7.2079  -11.9858   25.8781 C   0  0  1  0  0  0  0  0  0  0  0  0
    7.8976  -12.7630   26.9641 C   0  0  0  0  0  0  0  0  0  0  0  0
    6.0971  -12.8215   25.2934 C   0  0  2  0  0  0  0  0  0  0  0  0
    5.1620  -13.1523   26.3181 N   0  0  0  0  0  0  0  0  0  0  0  0
    6.7292  -14.0383   24.6876 C   0  0  0  0  0  0  0  0  0  0  0  0
    6.7058  -15.1263   25.3164 O   0  0  0  0  0  0  0  0  0  0  0  0
    8.3498  -15.6153   18.4795 N   0  0  0  0  0  0  0  0  0  0  0  0
    7.7437  -14.4599   19.0291 C   0  0  0  0  0  0  0  0  0  0  0  0
    7.5866  -13.4392   18.2980 O   0  0  0  0  0  0  0  0  0  0  0  0
    7.2775  -14.3809   20.4341 C   0  0  0  0  0  0  0  0  0  0  0  0
    8.4343  -14.6457   21.3632 C   0  0  0  0  0  0  0  0  0  0  0  0
    7.9299  -14.9942   22.7516 C   0  0  2  0  0  0  0  0  0  0  0  0
    7.3289  -13.8836   23.4132 N   0  0  0  0  0  0  0  0  0  0  0  0
    9.1049  -15.4794   23.5415 C   0  0  0  0  0  0  0  0  0  0  0  0
    9.9127  -14.6912   24.0898 O   0  0  0  0  0  0  0  0  0  0  0  0
    7.7974  -18.9058   25.7421 N   0  0  0  0  0  0  0  0  0  0  0  0
    9.1106  -18.4854   26.0581 C   0  0  0  0  0  0  0  0  0  0  0  0
    9.3553  -17.9917   27.1850 O   0  0  0  0  0  0  0  0  0  0  0  0
   10.1789  -18.6274   25.0701 C   0  0  0  0  0  0  0  0  0  0  0  0
   10.5344  -17.2872   24.4110 C   0  0  2  0  0  0  0  0  0  0  0  0
    9.3454  -16.8673   23.6964 N   0  0  0  0  0  0  0  0  0  0  0  0
   11.6801  -17.5059   23.5109 C   0  0  0  0  0  0  0  0  0  0  0  0
   11.5146  -17.3495   22.2802 O   0  0  0  0  0  0  0  0  0  0  0  0
   12.9280  -17.8757   23.9697 O   0  0  0  0  0  0  0  0  0  0  0  0
  2  1  1  1
  2  3  1  0
  4  6  1  0
  4  2  1  0
  4  5  1  1
  6  7  2  0
  9  8  1  0
 10  9  2  0
 11  9  1  0
 12 11  1  0
 13 12  1  6
 14 13  1  0
 14  6  1  0
 15 13  1  0
 16 15  2  0
 18 17  1  0
 18 19  2  0
 20 18  1  0
 21 20  1  6
 21 22  1  0
 22 15  1  0
 23 21  1  0
 23 25  1  0
 24 23  2  0
M  END
$$$$
