VQN.pdb
     RDKit          3D

 25 24  0  0  1  0  0  0  0  0999 V2000
    9.4534  -12.5484   20.2774 C   0  0  0  0  0  0  0  0  0  0  0  0
    8.3031  -13.2838   19.5941 C   0  0  1  0  0  0  0  0  0  0  0  0
    7.1512  -12.3582   19.3192 C   0  0  0  0  0  0  0  0  0  0  0  0
    8.7542  -13.9182   18.3024 C   0  0  2  0  0  0  0  0  0  0  0  0
    7.6334  -14.5077   17.6462 N   0  0  0  0  0  0  0  0  0  0  0  0
    9.8056  -14.9291   18.6481 C   0  0  0  0  0  0  0  0  0  0  0  0
    9.4607  -16.0828   19.0084 O   0  0  0  0  0  0  0  0  0  0  0  0
   15.3364  -15.6955   15.8684 N   0  0  0  0  0  0  0  0  0  0  0  0
   13.9693  -15.8047   15.5170 C   0  0  0  0  0  0  0  0  0  0  0  0
   13.6442  -15.7927   14.2942 O   0  0  0  0  0  0  0  0  0  0  0  0
   12.8839  -15.9338   16.5185 C   0  0  0  0  0  0  0  0  0  0  0  0
   13.3427  -15.3587   17.8339 C   0  0  0  0  0  0  0  0  0  0  0  0
   12.2204  -15.4089   18.8544 C   0  0  2  0  0  0  0  0  0  0  0  0
   11.1560  -14.5122   18.5456 N   0  0  0  0  0  0  0  0  0  0  0  0
   12.8124  -15.0543   20.1825 C   0  0  0  0  0  0  0  0  0  0  0  0
   13.2450  -13.9040   20.4355 O   0  0  0  0  0  0  0  0  0  0  0  0
   10.7769  -15.2502   22.7752 N   0  0  0  0  0  0  0  0  0  0  0  0
   11.3520  -16.2476   23.5972 C   0  0  0  0  0  0  0  0  0  0  0  0
   10.6248  -16.9189   24.3680 O   0  0  0  0  0  0  0  0  0  0  0  0
   12.7923  -16.4931   23.5459 C   0  0  0  0  0  0  0  0  0  0  0  0
   13.4849  -15.6311   22.4808 C   0  0  2  0  0  0  0  0  0  0  0  0
   12.9046  -16.0236   21.2121 N   0  0  0  0  0  0  0  0  0  0  0  0
   14.9323  -15.8992   22.5409 C   0  0  0  0  0  0  0  0  0  0  0  0
   15.4559  -16.5744   21.6263 O   0  0  0  0  0  0  0  0  0  0  0  0
   15.7341  -15.4356   23.5641 O   0  0  0  0  0  0  0  0  0  0  0  0
  2  1  1  6
  2  3  1  0
  4  6  1  0
  4  2  1  0
  4  5  1  1
  6  7  2  0
  9  8  1  0
 10  9  2  0
 11  9  1  0
 12 11  1  0
 13 12  1  6
 14 13  1  0
 14  6  1  0
 15 13  1  0
 16 15  2  0
 18 17  1  0
 18 19  2  0
 20 18  1  0
 21 20  1  1
 21 22  1  0
 22 15  1  0
 23 21  1  0
 23 25  1  0
 24 23  2  0
M  END
$$$$
