IFP.pdb
     RDKit          3D

 27 28  0  0  1  0  0  0  0  0999 V2000
   24.2001  -18.6592  -22.1279 C   0  0  0  0  0  0  0  0  0  0  0  0
   23.9243  -18.1701  -20.7416 C   0  0  0  0  0  0  0  0  0  0  0  0
   24.2023  -19.2114  -19.6785 C   0  0  2  0  0  0  0  0  0  0  0  0
   22.8522  -19.5370  -19.0355 C   0  0  0  0  0  0  0  0  0  0  0  0
   25.1009  -18.5793  -18.6539 C   0  0  2  0  0  0  0  0  0  0  0  0
   26.3542  -18.2518  -19.2601 N   0  0  0  0  0  0  0  0  0  0  0  0
   25.2773  -19.4707  -17.4567 C   0  0  0  0  0  0  0  0  0  0  0  0
   25.9319  -20.5318  -17.5588 O   0  0  0  0  0  0  0  0  0  0  0  0
   24.7167  -19.1377  -16.2049 N   0  0  0  0  0  0  0  0  0  0  0  0
   24.7093  -19.9139  -14.9954 C   0  0  1  0  0  0  0  0  0  0  0  0
   25.1748  -19.0933  -13.8178 C   0  0  0  0  0  0  0  0  0  0  0  0
   25.2489  -19.8260  -12.5379 C   0  0  0  0  0  0  0  0  0  0  0  0
   26.3838  -20.5443  -12.2552 C   0  0  0  0  0  0  0  0  0  0  0  0
   26.5239  -21.2654  -11.0732 C   0  0  0  0  0  0  0  0  0  0  0  0
   25.5002  -21.2635  -10.1568 C   0  0  0  0  0  0  0  0  0  0  0  0
   24.3459  -20.5376  -10.4362 C   0  0  0  0  0  0  0  0  0  0  0  0
   24.2323  -19.8286  -11.6202 C   0  0  0  0  0  0  0  0  0  0  0  0
   23.5085  -20.7150  -14.7896 C   0  0  0  0  0  0  0  0  0  0  0  0
   22.4067  -20.1670  -14.5957 O   0  0  0  0  0  0  0  0  0  0  0  0
   23.5036  -22.1730  -14.8000 N   0  0  0  0  0  0  0  0  0  0  0  0
   24.6545  -23.0226  -15.0185 C   0  0  0  0  0  0  0  0  0  0  0  0
   24.4095  -24.0929  -13.9463 C   0  0  0  0  0  0  0  0  0  0  0  0
   22.9182  -24.3544  -14.1402 C   0  0  0  0  0  0  0  0  0  0  0  0
   22.3697  -22.9988  -14.5949 C   0  0  1  0  0  0  0  0  0  0  0  0
   21.4342  -22.4934  -13.5685 C   0  0  0  0  0  0  0  0  0  0  0  0
   21.8795  -21.6266  -12.7449 O   0  0  0  0  0  0  0  0  0  0  0  0
   20.1328  -22.8802  -13.4374 O   0  0  0  0  0  0  0  0  0  0  0  0
  1  2  1  0
  3  2  1  0
  3  4  1  1
  5  3  1  0
  5  6  1  6
  7  8  2  0
  7  5  1  0
  9  7  1  0
 10  9  1  0
 11 12  1  0
 10 11  1  1
 12 13  2  0
 13 14  1  0
 15 14  2  0
 16 15  1  0
 17 12  1  0
 17 16  2  0
 18 10  1  0
 18 19  2  0
 20 18  1  0
 21 20  1  0
 22 21  1  0
 23 22  1  0
 23 24  1  0
 24 20  1  0
 25 27  1  0
 24 25  1  1
 26 25  2  0
M  END
$$$$
