IFP.pdb
     RDKit          3D

 27 28  0  0  1  0  0  0  0  0999 V2000
   23.7030  -21.5477  -15.3428 C   0  0  0  0  0  0  0  0  0  0  0  0
   24.2389  -20.1514  -15.3319 C   0  0  0  0  0  0  0  0  0  0  0  0
   25.3940  -19.9664  -14.3710 C   0  0  2  0  0  0  0  0  0  0  0  0
   26.2151  -21.2562  -14.4362 C   0  0  0  0  0  0  0  0  0  0  0  0
   24.8135  -19.8162  -12.9936 C   0  0  2  0  0  0  0  0  0  0  0  0
   23.8514  -18.7580  -12.9974 N   0  0  0  0  0  0  0  0  0  0  0  0
   25.8888  -19.5877  -11.9688 C   0  0  0  0  0  0  0  0  0  0  0  0
   27.0245  -19.2066  -12.3290 O   0  0  0  0  0  0  0  0  0  0  0  0
   25.6477  -19.7943  -10.5935 N   0  0  0  0  0  0  0  0  0  0  0  0
   26.6048  -19.9292   -9.5299 C   0  0  1  0  0  0  0  0  0  0  0  0
   26.0077  -19.5256   -8.2043 C   0  0  0  0  0  0  0  0  0  0  0  0
   26.9637  -19.4739   -7.0800 C   0  0  0  0  0  0  0  0  0  0  0  0
   27.6067  -18.2905   -6.8163 C   0  0  0  0  0  0  0  0  0  0  0  0
   28.5258  -18.1666   -5.7787 C   0  0  0  0  0  0  0  0  0  0  0  0
   28.8034  -19.2570   -4.9902 C   0  0  0  0  0  0  0  0  0  0  0  0
   28.1555  -20.4609   -5.2513 C   0  0  0  0  0  0  0  0  0  0  0  0
   27.2452  -20.5569   -6.2903 C   0  0  0  0  0  0  0  0  0  0  0  0
   27.3637  -21.1741   -9.5438 C   0  0  0  0  0  0  0  0  0  0  0  0
   26.7838  -22.2711   -9.4318 O   0  0  0  0  0  0  0  0  0  0  0  0
   28.8132  -21.2302   -9.6907 N   0  0  0  0  0  0  0  0  0  0  0  0
   29.6887  -20.0959   -9.8932 C   0  0  0  0  0  0  0  0  0  0  0  0
   30.8396  -20.4691   -8.9492 C   0  0  0  0  0  0  0  0  0  0  0  0
   31.0178  -21.9469   -9.2874 C   0  0  0  0  0  0  0  0  0  0  0  0
   29.6043  -22.4061   -9.6565 C   0  0  1  0  0  0  0  0  0  0  0  0
   29.1534  -23.4069   -8.6670 C   0  0  0  0  0  0  0  0  0  0  0  0
   28.2419  -23.0522   -7.8476 O   0  0  0  0  0  0  0  0  0  0  0  0
   29.6345  -24.6792   -8.5657 O   0  0  0  0  0  0  0  0  0  0  0  0
  1  2  1  0
  3  2  1  0
  3  4  1  1
  5  3  1  0
  5  6  1  6
  7  8  2  0
  7  5  1  0
  9  7  1  0
 10  9  1  0
 11 12  1  0
 10 11  1  1
 12 13  2  0
 13 14  1  0
 15 14  2  0
 16 15  1  0
 17 12  1  0
 17 16  2  0
 18 10  1  0
 18 19  2  0
 20 18  1  0
 21 20  1  0
 22 21  1  0
 23 22  1  0
 23 24  1  0
 24 20  1  0
 25 27  1  0
 24 25  1  1
 26 25  2  0
M  END
$$$$
