IFP.pdb
     RDKit          3D

 27 28  0  0  1  0  0  0  0  0999 V2000
   23.9115  -19.1823  -21.2849 C   0  0  0  0  0  0  0  0  0  0  0  0
   24.3262  -20.3889  -20.5043 C   0  0  0  0  0  0  0  0  0  0  0  0
   25.1297  -20.0482  -19.2673 C   0  0  2  0  0  0  0  0  0  0  0  0
   26.4927  -20.7214  -19.4441 C   0  0  0  0  0  0  0  0  0  0  0  0
   24.4234  -20.6584  -18.0901 C   0  0  2  0  0  0  0  0  0  0  0  0
   23.1614  -20.0108  -17.9068 N   0  0  0  0  0  0  0  0  0  0  0  0
   25.2694  -20.5910  -16.8497 C   0  0  0  0  0  0  0  0  0  0  0  0
   26.3583  -21.2048  -16.8018 O   0  0  0  0  0  0  0  0  0  0  0  0
   24.8621  -19.8440  -15.7235 N   0  0  0  0  0  0  0  0  0  0  0  0
   25.5897  -19.5896  -14.5105 C   0  0  1  0  0  0  0  0  0  0  0  0
   25.9190  -18.1239  -14.3690 C   0  0  0  0  0  0  0  0  0  0  0  0
   26.7440  -17.5625  -15.4575 C   0  0  0  0  0  0  0  0  0  0  0  0
   28.0724  -17.9018  -15.5188 C   0  0  0  0  0  0  0  0  0  0  0  0
   28.9141  -17.4072  -16.5106 C   0  0  0  0  0  0  0  0  0  0  0  0
   28.4079  -16.5532  -17.4604 C   0  0  0  0  0  0  0  0  0  0  0  0
   27.0616  -16.2043  -17.4050 C   0  0  0  0  0  0  0  0  0  0  0  0
   26.2459  -16.7107  -16.4073 C   0  0  0  0  0  0  0  0  0  0  0  0
   25.0530  -20.2480  -13.3254 C   0  0  0  0  0  0  0  0  0  0  0  0
   23.8319  -20.2154  -13.0807 O   0  0  0  0  0  0  0  0  0  0  0  0
   25.8768  -20.9769  -12.3684 N   0  0  0  0  0  0  0  0  0  0  0  0
   27.2709  -21.3239  -12.5420 C   0  0  0  0  0  0  0  0  0  0  0  0
   27.8070  -21.0045  -11.1400 C   0  0  0  0  0  0  0  0  0  0  0  0
   26.7188  -21.6281  -10.2700 C   0  0  0  0  0  0  0  0  0  0  0  0
   25.4476  -21.4638  -11.1080 C   0  0  1  0  0  0  0  0  0  0  0  0
   24.5201  -20.5593  -10.3969 C   0  0  0  0  0  0  0  0  0  0  0  0
   23.7537  -21.0776   -9.5183 O   0  0  0  0  0  0  0  0  0  0  0  0
   24.4240  -19.2149  -10.6060 O   0  0  0  0  0  0  0  0  0  0  0  0
  1  2  1  0
  3  2  1  0
  3  4  1  6
  5  3  1  0
  5  6  1  1
  7  8  2  0
  7  5  1  0
  9  7  1  0
 10  9  1  0
 11 12  1  0
 10 11  1  1
 12 13  2  0
 13 14  1  0
 15 14  2  0
 16 15  1  0
 17 12  1  0
 17 16  2  0
 18 10  1  0
 18 19  2  0
 20 18  1  0
 21 20  1  0
 22 21  1  0
 23 22  1  0
 23 24  1  0
 24 20  1  0
 25 27  1  0
 24 25  1  1
 26 25  2  0
M  END
$$$$
