IFP.pdb
     RDKit          3D

 27 28  0  0  1  0  0  0  0  0999 V2000
   25.3012  -20.7574  -15.3841 C   0  0  0  0  0  0  0  0  0  0  0  0
   24.6492  -21.0633  -14.0731 C   0  0  0  0  0  0  0  0  0  0  0  0
   25.6440  -21.3210  -12.9614 C   0  0  2  0  0  0  0  0  0  0  0  0
   25.4401  -22.7763  -12.5341 C   0  0  0  0  0  0  0  0  0  0  0  0
   25.2868  -20.4132  -11.8190 C   0  0  2  0  0  0  0  0  0  0  0  0
   25.2448  -19.0611  -12.2832 N   0  0  0  0  0  0  0  0  0  0  0  0
   26.2416  -20.5783  -10.6701 C   0  0  0  0  0  0  0  0  0  0  0  0
   27.1906  -21.3885  -10.7577 O   0  0  0  0  0  0  0  0  0  0  0  0
   26.0936  -19.8336   -9.4802 N   0  0  0  0  0  0  0  0  0  0  0  0
   26.6777  -20.0852   -8.1913 C   0  0  1  0  0  0  0  0  0  0  0  0
   27.5571  -18.9384   -7.7578 C   0  0  0  0  0  0  0  0  0  0  0  0
   28.2446  -19.1340   -6.4655 C   0  0  0  0  0  0  0  0  0  0  0  0
   29.3442  -19.9541   -6.4223 C   0  0  0  0  0  0  0  0  0  0  0  0
   30.0394  -20.1925   -5.2406 C   0  0  0  0  0  0  0  0  0  0  0  0
   29.6189  -19.5928   -4.0781 C   0  0  0  0  0  0  0  0  0  0  0  0
   28.5044  -18.7597   -4.1137 C   0  0  0  0  0  0  0  0  0  0  0  0
   27.8306  -18.5396   -5.3032 C   0  0  0  0  0  0  0  0  0  0  0  0
   25.7523  -20.6033   -7.1907 C   0  0  0  0  0  0  0  0  0  0  0  0
   24.6644  -20.0344   -6.9789 O   0  0  0  0  0  0  0  0  0  0  0  0
   26.0177  -21.7924   -6.3899 N   0  0  0  0  0  0  0  0  0  0  0  0
   27.1587  -22.6713   -6.5305 C   0  0  0  0  0  0  0  0  0  0  0  0
   27.5067  -22.9032   -5.0540 C   0  0  0  0  0  0  0  0  0  0  0  0
   26.1181  -23.1476   -4.4690 C   0  0  0  0  0  0  0  0  0  0  0  0
   25.2019  -22.2821   -5.3389 C   0  0  1  0  0  0  0  0  0  0  0  0
   24.6039  -21.2243   -4.4977 C   0  0  0  0  0  0  0  0  0  0  0  0
   25.1256  -20.0615   -4.5586 O   0  0  0  0  0  0  0  0  0  0  0  0
   23.5370  -21.3960   -3.6655 O   0  0  0  0  0  0  0  0  0  0  0  0
  1  2  1  0
  3  2  1  0
  3  4  1  1
  5  3  1  0
  5  6  1  6
  7  8  2  0
  7  5  1  0
  9  7  1  0
 10  9  1  0
 11 12  1  0
 10 11  1  1
 12 13  2  0
 13 14  1  0
 15 14  2  0
 16 15  1  0
 17 12  1  0
 17 16  2  0
 18 10  1  0
 18 19  2  0
 20 18  1  0
 21 20  1  0
 22 21  1  0
 23 22  1  0
 23 24  1  0
 24 20  1  0
 25 27  1  0
 24 25  1  1
 26 25  2  0
M  END
$$$$
