IFP.pdb
     RDKit          3D

 27 28  0  0  1  0  0  0  0  0999 V2000
   25.8257  -16.9972  -21.3479 C   0  0  0  0  0  0  0  0  0  0  0  0
   26.8293  -17.1027  -20.2439 C   0  0  0  0  0  0  0  0  0  0  0  0
   26.5378  -18.2359  -19.2832 C   0  0  2  0  0  0  0  0  0  0  0  0
   25.1507  -17.9562  -18.7004 C   0  0  0  0  0  0  0  0  0  0  0  0
   27.5607  -18.1687  -18.1850 C   0  0  2  0  0  0  0  0  0  0  0  0
   28.8622  -18.3900  -18.7352 N   0  0  0  0  0  0  0  0  0  0  0  0
   27.2476  -19.1443  -17.0855 C   0  0  0  0  0  0  0  0  0  0  0  0
   27.3881  -20.3719  -17.2806 O   0  0  0  0  0  0  0  0  0  0  0  0
   26.7935  -18.7061  -15.8229 N   0  0  0  0  0  0  0  0  0  0  0  0
   26.3983  -19.4998  -14.6918 C   0  0  1  0  0  0  0  0  0  0  0  0
   26.9983  -18.9659  -13.4145 C   0  0  0  0  0  0  0  0  0  0  0  0
   26.6373  -19.7164  -12.1950 C   0  0  0  0  0  0  0  0  0  0  0  0
   27.3968  -20.8037  -11.8421 C   0  0  0  0  0  0  0  0  0  0  0  0
   27.1141  -21.5641  -10.7113 C   0  0  0  0  0  0  0  0  0  0  0  0
   26.0446  -21.2227   -9.9193 C   0  0  0  0  0  0  0  0  0  0  0  0
   25.2694  -20.1212  -10.2706 C   0  0  0  0  0  0  0  0  0  0  0  0
   25.5726  -19.3817  -11.4013 C   0  0  0  0  0  0  0  0  0  0  0  0
   24.9807  -19.8382  -14.6471 C   0  0  0  0  0  0  0  0  0  0  0  0
   24.1198  -18.9462  -14.5243 O   0  0  0  0  0  0  0  0  0  0  0  0
   24.4768  -21.2029  -14.7448 N   0  0  0  0  0  0  0  0  0  0  0  0
   25.2770  -22.3875  -14.9690 C   0  0  0  0  0  0  0  0  0  0  0  0
   24.6193  -23.3522  -13.9731 C   0  0  0  0  0  0  0  0  0  0  0  0
   23.1423  -23.0740  -14.2400 C   0  0  0  0  0  0  0  0  0  0  0  0
   23.1187  -21.5942  -14.6336 C   0  0  1  0  0  0  0  0  0  0  0  0
   22.3562  -20.8412  -13.6159 C   0  0  0  0  0  0  0  0  0  0  0  0
   22.9990  -20.4106  -12.6013 O   0  0  0  0  0  0  0  0  0  0  0  0
   21.0212  -20.5696  -13.6807 O   0  0  0  0  0  0  0  0  0  0  0  0
  1  2  1  0
  3  2  1  0
  3  4  1  1
  5  3  1  0
  5  6  1  6
  7  8  2  0
  7  5  1  0
  9  7  1  0
 10  9  1  0
 11 12  1  0
 10 11  1  1
 12 13  2  0
 13 14  1  0
 15 14  2  0
 16 15  1  0
 17 12  1  0
 17 16  2  0
 18 10  1  0
 18 19  2  0
 20 18  1  0
 21 20  1  0
 22 21  1  0
 23 22  1  0
 23 24  1  0
 24 20  1  0
 25 27  1  0
 24 25  1  1
 26 25  2  0
M  END
$$$$
