IFP.pdb
     RDKit          3D

 27 28  0  0  1  0  0  0  0  0999 V2000
   19.9977  -21.3419  -16.0283 C   0  0  0  0  0  0  0  0  0  0  0  0
   20.9527  -22.1125  -15.1731 C   0  0  0  0  0  0  0  0  0  0  0  0
   22.1114  -21.2752  -14.6746 C   0  0  2  0  0  0  0  0  0  0  0  0
   23.3467  -22.1767  -14.7335 C   0  0  0  0  0  0  0  0  0  0  0  0
   21.8251  -20.9178  -13.2438 C   0  0  2  0  0  0  0  0  0  0  0  0
   20.6900  -20.0494  -13.1902 N   0  0  0  0  0  0  0  0  0  0  0  0
   23.0273  -20.3045  -12.5823 C   0  0  0  0  0  0  0  0  0  0  0  0
   23.2793  -19.0902  -12.7464 O   0  0  0  0  0  0  0  0  0  0  0  0
   23.8899  -21.0723  -11.7708 N   0  0  0  0  0  0  0  0  0  0  0  0
   25.1291  -20.6757  -11.1604 C   0  0  1  0  0  0  0  0  0  0  0  0
   25.1079  -20.9235   -9.6722 C   0  0  0  0  0  0  0  0  0  0  0  0
   26.2593  -20.3698   -8.9317 C   0  0  0  0  0  0  0  0  0  0  0  0
   27.4190  -21.1016   -8.8747 C   0  0  0  0  0  0  0  0  0  0  0  0
   28.5429  -20.6488   -8.1902 C   0  0  0  0  0  0  0  0  0  0  0  0
   28.4984  -19.4341   -7.5497 C   0  0  0  0  0  0  0  0  0  0  0  0
   27.3258  -18.6861   -7.6027 C   0  0  0  0  0  0  0  0  0  0  0  0
   26.2216  -19.1600   -8.2909 C   0  0  0  0  0  0  0  0  0  0  0  0
   26.3270  -21.1088  -11.8700 C   0  0  0  0  0  0  0  0  0  0  0  0
   26.8505  -22.2104  -11.6161 O   0  0  0  0  0  0  0  0  0  0  0  0
   26.9810  -20.3139  -12.9026 N   0  0  0  0  0  0  0  0  0  0  0  0
   26.5623  -19.0052  -13.3565 C   0  0  0  0  0  0  0  0  0  0  0  0
   27.9236  -18.3038  -13.4560 C   0  0  0  0  0  0  0  0  0  0  0  0
   28.7523  -19.3862  -14.1428 C   0  0  0  0  0  0  0  0  0  0  0  0
   28.1373  -20.6918  -13.6305 C   0  0  1  0  0  0  0  0  0  0  0  0
   29.1466  -21.4122  -12.8264 C   0  0  0  0  0  0  0  0  0  0  0  0
   30.1155  -21.9570  -13.4528 O   0  0  0  0  0  0  0  0  0  0  0  0
   29.1224  -21.5356  -11.4683 O   0  0  0  0  0  0  0  0  0  0  0  0
  1  2  1  0
  3  2  1  0
  3  4  1  1
  5  3  1  0
  5  6  1  6
  7  8  2  0
  7  5  1  0
  9  7  1  0
 10  9  1  0
 11 12  1  0
 10 11  1  1
 12 13  2  0
 13 14  1  0
 15 14  2  0
 16 15  1  0
 17 12  1  0
 17 16  2  0
 18 10  1  0
 18 19  2  0
 20 18  1  0
 21 20  1  0
 22 21  1  0
 23 22  1  0
 23 24  1  0
 24 20  1  0
 25 27  1  0
 24 25  1  1
 26 25  2  0
M  END
$$$$
