IFP.pdb
     RDKit          3D

 27 28  0  0  1  0  0  0  0  0999 V2000
   24.4953  -22.6664  -13.0490 C   0  0  0  0  0  0  0  0  0  0  0  0
   24.5096  -21.3944  -12.2622 C   0  0  0  0  0  0  0  0  0  0  0  0
   25.7691  -21.2187  -11.4408 C   0  0  2  0  0  0  0  0  0  0  0  0
   25.7848  -22.3688  -10.4311 C   0  0  0  0  0  0  0  0  0  0  0  0
   25.6483  -19.9142  -10.7057 C   0  0  2  0  0  0  0  0  0  0  0  0
   25.5840  -18.8421  -11.6502 N   0  0  0  0  0  0  0  0  0  0  0  0
   26.7763  -19.7298   -9.7298 C   0  0  0  0  0  0  0  0  0  0  0  0
   27.9602  -19.7426  -10.1335 O   0  0  0  0  0  0  0  0  0  0  0  0
   26.5316  -19.5401   -8.3527 N   0  0  0  0  0  0  0  0  0  0  0  0
   27.4861  -19.4139   -7.2857 C   0  0  1  0  0  0  0  0  0  0  0  0
   27.1342  -18.2658   -6.3720 C   0  0  0  0  0  0  0  0  0  0  0  0
   28.0657  -18.0579   -5.2452 C   0  0  0  0  0  0  0  0  0  0  0  0
   29.1872  -17.2939   -5.4504 C   0  0  0  0  0  0  0  0  0  0  0  0
   30.1142  -17.0595   -4.4392 C   0  0  0  0  0  0  0  0  0  0  0  0
   29.9078  -17.6057   -3.1955 C   0  0  0  0  0  0  0  0  0  0  0  0
   28.7728  -18.3819   -2.9794 C   0  0  0  0  0  0  0  0  0  0  0  0
   27.8662  -18.5995   -4.0032 C   0  0  0  0  0  0  0  0  0  0  0  0
   27.8475  -20.6684   -6.6363 C   0  0  0  0  0  0  0  0  0  0  0  0
   26.9663  -21.4288   -6.1921 O   0  0  0  0  0  0  0  0  0  0  0  0
   29.2240  -21.1182   -6.4668 N   0  0  0  0  0  0  0  0  0  0  0  0
   30.3831  -20.5701   -7.1376 C   0  0  0  0  0  0  0  0  0  0  0  0
   31.3788  -20.5303   -5.9706 C   0  0  0  0  0  0  0  0  0  0  0  0
   31.1375  -21.9009   -5.3433 C   0  0  0  0  0  0  0  0  0  0  0  0
   29.6537  -22.1660   -5.6140 C   0  0  1  0  0  0  0  0  0  0  0  0
   28.9357  -22.2253   -4.3236 C   0  0  0  0  0  0  0  0  0  0  0  0
   28.2423  -21.2073   -3.9910 O   0  0  0  0  0  0  0  0  0  0  0  0
   28.9557  -23.2849   -3.4649 O   0  0  0  0  0  0  0  0  0  0  0  0
  1  2  1  0
  3  2  1  0
  3  4  1  1
  5  3  1  0
  5  6  1  6
  7  8  2  0
  7  5  1  0
  9  7  1  0
 10  9  1  0
 11 12  1  0
 10 11  1  1
 12 13  2  0
 13 14  1  0
 15 14  2  0
 16 15  1  0
 17 12  1  0
 17 16  2  0
 18 10  1  0
 18 19  2  0
 20 18  1  0
 21 20  1  0
 22 21  1  0
 23 22  1  0
 23 24  1  0
 24 20  1  0
 25 27  1  0
 24 25  1  1
 26 25  2  0
M  END
$$$$
