IFP.pdb
     RDKit          3D

 27 28  0  0  1  0  0  0  0  0999 V2000
   25.3057  -22.6566  -20.7886 C   0  0  0  0  0  0  0  0  0  0  0  0
   24.9722  -21.5669  -19.8198 C   0  0  0  0  0  0  0  0  0  0  0  0
   25.9571  -21.4692  -18.6742 C   0  0  2  0  0  0  0  0  0  0  0  0
   25.2906  -22.1525  -17.4780 C   0  0  0  0  0  0  0  0  0  0  0  0
   26.1493  -20.0108  -18.3696 C   0  0  2  0  0  0  0  0  0  0  0  0
   26.8424  -19.3873  -19.4542 N   0  0  0  0  0  0  0  0  0  0  0  0
   26.8673  -19.8148  -17.0638 C   0  0  0  0  0  0  0  0  0  0  0  0
   28.1146  -19.8974  -17.0180 O   0  0  0  0  0  0  0  0  0  0  0  0
   26.1620  -19.5366  -15.8732 N   0  0  0  0  0  0  0  0  0  0  0  0
   26.6883  -19.3258  -14.5526 C   0  0  1  0  0  0  0  0  0  0  0  0
   26.8566  -17.8551  -14.2608 C   0  0  0  0  0  0  0  0  0  0  0  0
   26.0188  -16.9570  -15.0807 C   0  0  0  0  0  0  0  0  0  0  0  0
   26.6266  -16.1743  -16.0302 C   0  0  0  0  0  0  0  0  0  0  0  0
   25.9043  -15.2988  -16.8355 C   0  0  0  0  0  0  0  0  0  0  0  0
   24.5420  -15.2094  -16.6818 C   0  0  0  0  0  0  0  0  0  0  0  0
   23.9182  -15.9999  -15.7208 C   0  0  0  0  0  0  0  0  0  0  0  0
   24.6606  -16.8628  -14.9325 C   0  0  0  0  0  0  0  0  0  0  0  0
   26.0569  -20.1232  -13.5078 C   0  0  0  0  0  0  0  0  0  0  0  0
   24.8163  -20.1586  -13.4002 O   0  0  0  0  0  0  0  0  0  0  0  0
   26.8046  -20.9197  -12.5423 N   0  0  0  0  0  0  0  0  0  0  0  0
   28.2219  -21.2068  -12.5972 C   0  0  0  0  0  0  0  0  0  0  0  0
   28.5956  -21.0136  -11.1214 C   0  0  0  0  0  0  0  0  0  0  0  0
   27.4481  -21.7526  -10.4378 C   0  0  0  0  0  0  0  0  0  0  0  0
   26.2659  -21.5425  -11.3883 C   0  0  1  0  0  0  0  0  0  0  0  0
   25.2341  -20.7411  -10.6975 C   0  0  0  0  0  0  0  0  0  0  0  0
   24.4142  -21.3643   -9.9443 O   0  0  0  0  0  0  0  0  0  0  0  0
   25.0944  -19.3883  -10.8014 O   0  0  0  0  0  0  0  0  0  0  0  0
  1  2  1  0
  3  2  1  0
  3  4  1  1
  5  3  1  0
  5  6  1  6
  7  8  2  0
  7  5  1  0
  9  7  1  0
 10  9  1  0
 11 12  1  0
 10 11  1  1
 12 13  2  0
 13 14  1  0
 15 14  2  0
 16 15  1  0
 17 12  1  0
 17 16  2  0
 18 10  1  0
 18 19  2  0
 20 18  1  0
 21 20  1  0
 22 21  1  0
 23 22  1  0
 23 24  1  0
 24 20  1  0
 25 27  1  0
 24 25  1  1
 26 25  2  0
M  END
$$$$
