IFP.pdb
     RDKit          3D

 27 28  0  0  1  0  0  0  0  0999 V2000
   19.1730  -20.5824  -16.9205 C   0  0  0  0  0  0  0  0  0  0  0  0
   19.9708  -21.4075  -15.9614 C   0  0  0  0  0  0  0  0  0  0  0  0
   21.1830  -20.6807  -15.4189 C   0  0  2  0  0  0  0  0  0  0  0  0
   22.3985  -21.5224  -15.8144 C   0  0  0  0  0  0  0  0  0  0  0  0
   21.0608  -20.6576  -13.9218 C   0  0  2  0  0  0  0  0  0  0  0  0
   19.9311  -19.8629  -13.5506 N   0  0  0  0  0  0  0  0  0  0  0  0
   22.3254  -20.1633  -13.2774 C   0  0  0  0  0  0  0  0  0  0  0  0
   22.6112  -18.9460  -13.3146 O   0  0  0  0  0  0  0  0  0  0  0  0
   23.2098  -21.0476  -12.6232 N   0  0  0  0  0  0  0  0  0  0  0  0
   24.5287  -20.7800  -12.1186 C   0  0  1  0  0  0  0  0  0  0  0  0
   24.6883  -21.2943  -10.7092 C   0  0  0  0  0  0  0  0  0  0  0  0
   25.9270  -20.8690  -10.0270 C   0  0  0  0  0  0  0  0  0  0  0  0
   27.1057  -21.4914  -10.3541 C   0  0  0  0  0  0  0  0  0  0  0  0
   28.3116  -21.1500   -9.7491 C   0  0  0  0  0  0  0  0  0  0  0  0
   28.3313  -20.1616   -8.7950 C   0  0  0  0  0  0  0  0  0  0  0  0
   27.1400  -19.5257   -8.4577 C   0  0  0  0  0  0  0  0  0  0  0  0
   25.9537  -19.8847   -9.0751 C   0  0  0  0  0  0  0  0  0  0  0  0
   25.6121  -21.0876  -13.0447 C   0  0  0  0  0  0  0  0  0  0  0  0
   25.9747  -22.2654  -13.2270 O   0  0  0  0  0  0  0  0  0  0  0  0
   26.3287  -20.0733  -13.8086 N   0  0  0  0  0  0  0  0  0  0  0  0
   26.1453  -18.6422  -13.6975 C   0  0  0  0  0  0  0  0  0  0  0  0
   27.6071  -18.1770  -13.7384 C   0  0  0  0  0  0  0  0  0  0  0  0
   28.1468  -19.0335  -14.8809 C   0  0  0  0  0  0  0  0  0  0  0  0
   27.3257  -20.3227  -14.7851 C   0  0  1  0  0  0  0  0  0  0  0  0
   28.2307  -21.4418  -14.4498 C   0  0  0  0  0  0  0  0  0  0  0  0
   28.2665  -21.8227  -13.2326 O   0  0  0  0  0  0  0  0  0  0  0  0
   29.0265  -22.0989  -15.3416 O   0  0  0  0  0  0  0  0  0  0  0  0
  1  2  1  0
  3  2  1  0
  3  4  1  1
  5  3  1  0
  5  6  1  6
  7  8  2  0
  7  5  1  0
  9  7  1  0
 10  9  1  0
 11 12  1  0
 10 11  1  1
 12 13  2  0
 13 14  1  0
 15 14  2  0
 16 15  1  0
 17 12  1  0
 17 16  2  0
 18 10  1  0
 18 19  2  0
 20 18  1  0
 21 20  1  0
 22 21  1  0
 23 22  1  0
 23 24  1  0
 24 20  1  0
 25 27  1  0
 24 25  1  1
 26 25  2  0
M  END
$$$$
