IFP.pdb
     RDKit          3D

 27 28  0  0  1  0  0  0  0  0999 V2000
   22.5637  -21.0478  -14.4306 C   0  0  0  0  0  0  0  0  0  0  0  0
   23.8261  -20.3773  -13.9902 C   0  0  0  0  0  0  0  0  0  0  0  0
   24.3376  -20.8897  -12.6606 C   0  0  2  0  0  0  0  0  0  0  0  0
   23.2363  -20.5997  -11.6384 C   0  0  0  0  0  0  0  0  0  0  0  0
   25.5617  -20.0916  -12.3119 C   0  0  2  0  0  0  0  0  0  0  0  0
   26.5043  -20.1765  -13.3842 N   0  0  0  0  0  0  0  0  0  0  0  0
   26.1578  -20.5456  -11.0091 C   0  0  0  0  0  0  0  0  0  0  0  0
   26.6036  -21.7090  -10.8977 O   0  0  0  0  0  0  0  0  0  0  0  0
   26.2285  -19.6828   -9.8943 N   0  0  0  0  0  0  0  0  0  0  0  0
   26.6227  -19.9946   -8.5479 C   0  0  1  0  0  0  0  0  0  0  0  0
   27.3744  -18.8469   -7.9198 C   0  0  0  0  0  0  0  0  0  0  0  0
   27.9731  -19.1406   -6.6022 C   0  0  0  0  0  0  0  0  0  0  0  0
   27.2754  -18.7981   -5.4711 C   0  0  0  0  0  0  0  0  0  0  0  0
   27.7777  -19.0366   -4.1952 C   0  0  0  0  0  0  0  0  0  0  0  0
   29.0079  -19.6321   -4.0554 C   0  0  0  0  0  0  0  0  0  0  0  0
   29.7217  -19.9823   -5.1979 C   0  0  0  0  0  0  0  0  0  0  0  0
   29.1988  -19.7338   -6.4557 C   0  0  0  0  0  0  0  0  0  0  0  0
   25.5816  -20.6080   -7.7319 C   0  0  0  0  0  0  0  0  0  0  0  0
   24.4619  -20.0722   -7.6255 O   0  0  0  0  0  0  0  0  0  0  0  0
   25.7627  -21.8588   -7.0049 N   0  0  0  0  0  0  0  0  0  0  0  0
   26.9420  -22.6966   -7.0410 C   0  0  0  0  0  0  0  0  0  0  0  0
   27.0672  -23.0537   -5.5538 C   0  0  0  0  0  0  0  0  0  0  0  0
   25.6148  -23.3799   -5.2158 C   0  0  0  0  0  0  0  0  0  0  0  0
   24.8131  -22.4590   -6.1401 C   0  0  1  0  0  0  0  0  0  0  0  0
   24.0562  -21.4948   -5.3146 C   0  0  0  0  0  0  0  0  0  0  0  0
   24.5110  -20.3053   -5.2369 O   0  0  0  0  0  0  0  0  0  0  0  0
   22.9090  -21.7789   -4.6336 O   0  0  0  0  0  0  0  0  0  0  0  0
  1  2  1  0
  3  2  1  0
  3  4  1  1
  5  3  1  0
  5  6  1  6
  7  8  2  0
  7  5  1  0
  9  7  1  0
 10  9  1  0
 11 12  1  0
 10 11  1  1
 12 13  2  0
 13 14  1  0
 15 14  2  0
 16 15  1  0
 17 12  1  0
 17 16  2  0
 18 10  1  0
 18 19  2  0
 20 18  1  0
 21 20  1  0
 22 21  1  0
 23 22  1  0
 23 24  1  0
 24 20  1  0
 25 27  1  0
 24 25  1  1
 26 25  2  0
M  END
$$$$
