IFP.pdb
     RDKit          3D

 27 28  0  0  1  0  0  0  0  0999 V2000
   19.4263  -20.4087  -16.8432 C   0  0  0  0  0  0  0  0  0  0  0  0
   19.7719  -20.8668  -15.4619 C   0  0  0  0  0  0  0  0  0  0  0  0
   21.0356  -20.2297  -14.9241 C   0  0  2  0  0  0  0  0  0  0  0  0
   22.1904  -20.8164  -15.7391 C   0  0  0  0  0  0  0  0  0  0  0  0
   21.1760  -20.6512  -13.4891 C   0  0  2  0  0  0  0  0  0  0  0  0
   20.0472  -20.1844  -12.7452 N   0  0  0  0  0  0  0  0  0  0  0  0
   22.4706  -20.1649  -12.9004 C   0  0  0  0  0  0  0  0  0  0  0  0
   22.6934  -18.9374  -12.8089 O   0  0  0  0  0  0  0  0  0  0  0  0
   23.4537  -21.0684  -12.4425 N   0  0  0  0  0  0  0  0  0  0  0  0
   24.7692  -20.7778  -11.9422 C   0  0  1  0  0  0  0  0  0  0  0  0
   24.9387  -21.2796  -10.5294 C   0  0  0  0  0  0  0  0  0  0  0  0
   26.1618  -20.8143   -9.8451 C   0  0  0  0  0  0  0  0  0  0  0  0
   26.0429  -19.8792   -8.8476 C   0  0  0  0  0  0  0  0  0  0  0  0
   27.1502  -19.3879   -8.1627 C   0  0  0  0  0  0  0  0  0  0  0  0
   28.4033  -19.8475   -8.4888 C   0  0  0  0  0  0  0  0  0  0  0  0
   28.5322  -20.7958   -9.4994 C   0  0  0  0  0  0  0  0  0  0  0  0
   27.4137  -21.2680  -10.1653 C   0  0  0  0  0  0  0  0  0  0  0  0
   25.8556  -21.0759  -12.8679 C   0  0  0  0  0  0  0  0  0  0  0  0
   26.2377  -22.2491  -13.0398 O   0  0  0  0  0  0  0  0  0  0  0  0
   26.5531  -20.0570  -13.6433 N   0  0  0  0  0  0  0  0  0  0  0  0
   26.3767  -18.6265  -13.5153 C   0  0  0  0  0  0  0  0  0  0  0  0
   27.8380  -18.1644  -13.5934 C   0  0  0  0  0  0  0  0  0  0  0  0
   28.3433  -19.0128  -14.7574 C   0  0  0  0  0  0  0  0  0  0  0  0
   27.5218  -20.3007  -14.6493 C   0  0  1  0  0  0  0  0  0  0  0  0
   28.4330  -21.4247  -14.3485 C   0  0  0  0  0  0  0  0  0  0  0  0
   28.5392  -21.7833  -13.1286 O   0  0  0  0  0  0  0  0  0  0  0  0
   29.1648  -22.1083  -15.2746 O   0  0  0  0  0  0  0  0  0  0  0  0
  1  2  1  0
  3  2  1  0
  3  4  1  6
  5  3  1  0
  5  6  1  1
  7  8  2  0
  7  5  1  0
  9  7  1  0
 10  9  1  0
 11 12  1  0
 10 11  1  1
 12 13  2  0
 13 14  1  0
 15 14  2  0
 16 15  1  0
 17 12  1  0
 17 16  2  0
 18 10  1  0
 18 19  2  0
 20 18  1  0
 21 20  1  0
 22 21  1  0
 23 22  1  0
 23 24  1  0
 24 20  1  0
 25 27  1  0
 24 25  1  1
 26 25  2  0
M  END
$$$$
