IFP.pdb
     RDKit          3D

 27 28  0  0  1  0  0  0  0  0999 V2000
   23.5398  -19.6477  -12.7605 C   0  0  0  0  0  0  0  0  0  0  0  0
   24.6333  -20.6646  -12.8468 C   0  0  0  0  0  0  0  0  0  0  0  0
   25.8215  -20.3345  -11.9687 C   0  0  2  0  0  0  0  0  0  0  0  0
   26.9941  -21.1559  -12.5096 C   0  0  0  0  0  0  0  0  0  0  0  0
   25.4934  -20.7941  -10.5766 C   0  0  2  0  0  0  0  0  0  0  0  0
   24.3391  -20.0932  -10.1057 N   0  0  0  0  0  0  0  0  0  0  0  0
   26.6660  -20.6201   -9.6526 C   0  0  0  0  0  0  0  0  0  0  0  0
   27.7567  -21.1728   -9.9163 O   0  0  0  0  0  0  0  0  0  0  0  0
   26.5672  -19.8396   -8.4807 N   0  0  0  0  0  0  0  0  0  0  0  0
   27.5244  -19.7005   -7.4177 C   0  0  1  0  0  0  0  0  0  0  0  0
   27.3110  -18.4156   -6.6562 C   0  0  0  0  0  0  0  0  0  0  0  0
   28.1737  -18.2433   -5.4701 C   0  0  0  0  0  0  0  0  0  0  0  0
   29.2752  -17.4306   -5.5697 C   0  0  0  0  0  0  0  0  0  0  0  0
   30.1385  -17.2252   -4.4976 C   0  0  0  0  0  0  0  0  0  0  0  0
   29.8877  -17.8510   -3.3005 C   0  0  0  0  0  0  0  0  0  0  0  0
   28.7727  -18.6770   -3.1916 C   0  0  0  0  0  0  0  0  0  0  0  0
   27.9297  -18.8642   -4.2741 C   0  0  0  0  0  0  0  0  0  0  0  0
   27.7261  -20.9009   -6.6149 C   0  0  0  0  0  0  0  0  0  0  0  0
   26.7534  -21.5100   -6.1304 O   0  0  0  0  0  0  0  0  0  0  0  0
   29.0396  -21.4662   -6.3306 N   0  0  0  0  0  0  0  0  0  0  0  0
   30.2851  -21.0698   -6.9516 C   0  0  0  0  0  0  0  0  0  0  0  0
   31.2071  -21.0533   -5.7250 C   0  0  0  0  0  0  0  0  0  0  0  0
   30.7964  -22.3553   -5.0422 C   0  0  0  0  0  0  0  0  0  0  0  0
   29.3131  -22.4966   -5.3960 C   0  0  1  0  0  0  0  0  0  0  0  0
   28.5156  -22.4112   -4.1547 C   0  0  0  0  0  0  0  0  0  0  0  0
   28.5338  -23.4212   -3.3753 O   0  0  0  0  0  0  0  0  0  0  0  0
   27.7660  -21.3356   -3.7786 O   0  0  0  0  0  0  0  0  0  0  0  0
  1  2  1  0
  3  2  1  0
  3  4  1  6
  5  3  1  0
  5  6  1  1
  7  8  2  0
  7  5  1  0
  9  7  1  0
 10  9  1  0
 11 12  1  0
 10 11  1  1
 12 13  2  0
 13 14  1  0
 15 14  2  0
 16 15  1  0
 17 12  1  0
 17 16  2  0
 18 10  1  0
 18 19  2  0
 20 18  1  0
 21 20  1  0
 22 21  1  0
 23 22  1  0
 23 24  1  0
 24 20  1  0
 25 27  1  0
 24 25  1  1
 26 25  2  0
M  END
$$$$
