IFP.pdb
     RDKit          3D

 27 28  0  0  1  0  0  0  0  0999 V2000
   18.3999  -19.2729  -14.9885 C   0  0  0  0  0  0  0  0  0  0  0  0
   19.4752  -20.3113  -15.0408 C   0  0  0  0  0  0  0  0  0  0  0  0
   20.8613  -19.7416  -14.8266 C   0  0  2  0  0  0  0  0  0  0  0  0
   21.5733  -19.8296  -16.1784 C   0  0  0  0  0  0  0  0  0  0  0  0
   21.5635  -20.6273  -13.8369 C   0  0  2  0  0  0  0  0  0  0  0  0
   20.8305  -20.6402  -12.6089 N   0  0  0  0  0  0  0  0  0  0  0  0
   22.9881  -20.1951  -13.6306 C   0  0  0  0  0  0  0  0  0  0  0  0
   23.2937  -18.9856  -13.7227 O   0  0  0  0  0  0  0  0  0  0  0  0
   24.0026  -21.1299  -13.3321 N   0  0  0  0  0  0  0  0  0  0  0  0
   25.4239  -20.9212  -13.2882 C   0  0  1  0  0  0  0  0  0  0  0  0
   26.0117  -21.4389  -11.9987 C   0  0  0  0  0  0  0  0  0  0  0  0
   27.4700  -21.2524  -11.8593 C   0  0  0  0  0  0  0  0  0  0  0  0
   27.9558  -19.9838  -11.6640 C   0  0  0  0  0  0  0  0  0  0  0  0
   29.3175  -19.7288  -11.5312 C   0  0  0  0  0  0  0  0  0  0  0  0
   30.2085  -20.7726  -11.5962 C   0  0  0  0  0  0  0  0  0  0  0  0
   29.7236  -22.0622  -11.7942 C   0  0  0  0  0  0  0  0  0  0  0  0
   28.3636  -22.2883  -11.9234 C   0  0  0  0  0  0  0  0  0  0  0  0
   26.1330  -21.2796  -14.5108 C   0  0  0  0  0  0  0  0  0  0  0  0
   26.1727  -22.4636  -14.8963 O   0  0  0  0  0  0  0  0  0  0  0  0
   26.8239  -20.3104  -15.3527 N   0  0  0  0  0  0  0  0  0  0  0  0
   26.8582  -18.8789  -15.1438 C   0  0  0  0  0  0  0  0  0  0  0  0
   28.3356  -18.5954  -15.4466 C   0  0  0  0  0  0  0  0  0  0  0  0
   28.5329  -19.4299  -16.7094 C   0  0  0  0  0  0  0  0  0  0  0  0
   27.5787  -20.6117  -16.5143 C   0  0  1  0  0  0  0  0  0  0  0  0
   28.3720  -21.8544  -16.4117 C   0  0  0  0  0  0  0  0  0  0  0  0
   28.5813  -22.3217  -15.2430 O   0  0  0  0  0  0  0  0  0  0  0  0
   28.8934  -22.5396  -17.4695 O   0  0  0  0  0  0  0  0  0  0  0  0
  1  2  1  0
  3  2  1  0
  3  4  1  6
  5  3  1  0
  5  6  1  1
  7  8  2  0
  7  5  1  0
  9  7  1  0
 10  9  1  0
 11 12  1  0
 10 11  1  1
 12 13  2  0
 13 14  1  0
 15 14  2  0
 16 15  1  0
 17 12  1  0
 17 16  2  0
 18 10  1  0
 18 19  2  0
 20 18  1  0
 21 20  1  0
 22 21  1  0
 23 22  1  0
 23 24  1  0
 24 20  1  0
 25 27  1  0
 24 25  1  1
 26 25  2  0
M  END
$$$$
