NHS.pdb
     RDKit          3D

 25 25  0  0  1  0  0  0  0  0999 V2000
   19.3182  -12.5347  -19.3889 N   0  0  0  0  0  0  0  0  0  0  0  0
   18.5702  -11.6728  -18.5520 C   0  0  0  0  0  0  0  0  0  0  0  0
   17.3397  -11.5026  -18.7571 O   0  0  0  0  0  0  0  0  0  0  0  0
   19.2374  -10.9748  -17.4390 C   0  0  0  0  0  0  0  0  0  0  0  0
   20.6956  -11.3488  -17.4291 C   0  0  2  0  0  0  0  0  0  0  0  0
   20.8836  -12.6999  -16.9433 N   0  0  0  0  0  0  0  0  0  0  0  0
   21.3885  -10.4222  -16.5077 C   0  0  0  0  0  0  0  0  0  0  0  0
   21.3648  -10.6008  -15.2470 O   0  0  0  0  0  0  0  0  0  0  0  0
   22.0989   -9.3095  -16.9924 N   0  0  0  0  0  0  0  0  0  0  0  0
   22.8143   -8.3953  -16.0179 C   0  0  1  0  0  0  0  0  0  0  0  0
   24.2213   -8.4701  -16.4033 C   0  0  0  0  0  0  0  0  0  0  0  0
   25.0861   -9.5367  -15.9267 C   0  0  0  0  0  0  0  0  0  0  0  0
   24.9422  -10.6368  -15.1268 C   0  0  0  0  0  0  0  0  0  0  0  0
   26.0793  -11.3474  -15.0720 N   0  0  0  0  0  0  0  0  0  0  0  0
   26.9637  -10.7079  -15.8394 C   0  0  0  0  0  0  0  0  0  0  0  0
   26.3943   -9.6202  -16.3635 N   0  0  0  0  0  0  0  0  0  0  0  0
   22.0975   -7.1230  -16.2129 C   0  0  0  0  0  0  0  0  0  0  0  0
   21.9836   -6.7476  -17.4513 O   0  0  0  0  0  0  0  0  0  0  0  0
   19.4837   -5.3666  -13.7563 O   0  0  0  0  0  0  0  0  0  0  0  0
   19.4505   -5.0989  -15.1170 C   0  0  0  0  0  0  0  0  0  0  0  0
   20.8482   -5.0407  -15.7042 C   0  0  2  0  0  0  0  0  0  0  0  0
   21.5263   -6.2720  -15.2611 N   0  0  0  0  0  0  0  0  0  0  0  0
   21.6236   -3.8910  -15.1953 C   0  0  0  0  0  0  0  0  0  0  0  0
   21.3616   -2.5792  -15.5833 O   0  0  0  0  0  0  0  0  0  0  0  0
   22.5679   -4.0439  -14.3785 O   0  0  0  0  0  0  0  0  0  0  0  0
  1  2  1  0
  2  4  1  0
  3  2  2  0
  4  5  1  0
  5  7  1  0
  5  6  1  1
  7  8  2  0
  9 10  1  0
  9  7  1  0
 10 17  1  0
 11 12  1  0
 10 11  1  6
 12 16  1  0
 13 12  2  0
 13 14  1  0
 14 15  1  0
 16 15  2  0
 17 18  2  0
 19 20  1  0
 21 20  1  1
 21 23  1  0
 22 17  1  0
 22 21  1  0
 23 25  2  0
 23 24  1  0
M  END
$$$$
