NHS.pdb
     RDKit          3D

 25 25  0  0  1  0  0  0  0  0999 V2000
   18.5108  -16.6312  -15.2407 N   0  0  0  0  0  0  0  0  0  0  0  0
   19.7837  -16.0188  -15.1554 C   0  0  0  0  0  0  0  0  0  0  0  0
   20.6666  -16.4975  -14.3963 O   0  0  0  0  0  0  0  0  0  0  0  0
   20.0720  -14.8178  -15.9590 C   0  0  0  0  0  0  0  0  0  0  0  0
   18.8840  -14.5154  -16.8329 C   0  0  2  0  0  0  0  0  0  0  0  0
   18.7274  -15.5191  -17.8647 N   0  0  0  0  0  0  0  0  0  0  0  0
   19.1297  -13.2111  -17.4856 C   0  0  0  0  0  0  0  0  0  0  0  0
   19.6684  -13.1379  -18.6373 O   0  0  0  0  0  0  0  0  0  0  0  0
   18.7766  -12.0041  -16.8563 N   0  0  0  0  0  0  0  0  0  0  0  0
   18.9160  -10.6973  -17.6111 C   0  0  1  0  0  0  0  0  0  0  0  0
   17.5603  -10.1565  -17.6707 C   0  0  0  0  0  0  0  0  0  0  0  0
   17.3085   -8.7683  -18.0203 C   0  0  0  0  0  0  0  0  0  0  0  0
   16.8750   -7.6507  -17.3616 C   0  0  0  0  0  0  0  0  0  0  0  0
   16.8925   -6.5771  -18.1667 N   0  0  0  0  0  0  0  0  0  0  0  0
   17.3398   -6.9983  -19.3510 C   0  0  0  0  0  0  0  0  0  0  0  0
   17.5966   -8.3068  -19.2904 N   0  0  0  0  0  0  0  0  0  0  0  0
   19.9229   -9.9861  -16.8042 C   0  0  0  0  0  0  0  0  0  0  0  0
   19.9143  -10.2831  -15.5396 O   0  0  0  0  0  0  0  0  0  0  0  0
   23.8976   -7.3235  -16.1423 O   0  0  0  0  0  0  0  0  0  0  0  0
   23.0237   -8.0250  -16.9600 C   0  0  0  0  0  0  0  0  0  0  0  0
   21.7845   -8.4610  -16.2010 C   0  0  2  0  0  0  0  0  0  0  0  0
   20.8787   -9.0470  -17.2052 N   0  0  0  0  0  0  0  0  0  0  0  0
   21.0832   -7.3243  -15.5702 C   0  0  0  0  0  0  0  0  0  0  0  0
   21.2379   -7.0016  -14.2241 O   0  0  0  0  0  0  0  0  0  0  0  0
   20.3045   -6.5855  -16.2260 O   0  0  0  0  0  0  0  0  0  0  0  0
  1  2  1  0
  2  4  1  0
  3  2  2  0
  4  5  1  0
  5  7  1  0
  5  6  1  6
  7  8  2  0
  9 10  1  0
  9  7  1  0
 10 17  1  0
 11 12  1  0
 10 11  1  1
 12 16  1  0
 13 12  2  0
 13 14  1  0
 14 15  1  0
 16 15  2  0
 17 18  2  0
 19 20  1  0
 21 20  1  6
 21 23  1  0
 22 17  1  0
 22 21  1  0
 23 25  2  0
 23 24  1  0
M  END
$$$$
