NHS.pdb
     RDKit          3D

 25 25  0  0  1  0  0  0  0  0999 V2000
   28.8635  -15.0710  -22.8252 N   0  0  0  0  0  0  0  0  0  0  0  0
   29.2411  -15.7167  -21.6238 C   0  0  0  0  0  0  0  0  0  0  0  0
   29.8449  -16.8208  -21.6616 O   0  0  0  0  0  0  0  0  0  0  0  0
   28.9245  -15.0913  -20.3277 C   0  0  0  0  0  0  0  0  0  0  0  0
   28.2196  -13.7839  -20.5728 C   0  0  2  0  0  0  0  0  0  0  0  0
   29.0833  -12.6617  -20.2705 N   0  0  0  0  0  0  0  0  0  0  0  0
   27.0513  -13.7294  -19.6674 C   0  0  0  0  0  0  0  0  0  0  0  0
   27.1159  -14.1730  -18.4754 O   0  0  0  0  0  0  0  0  0  0  0  0
   25.8261  -13.1849  -20.0919 N   0  0  0  0  0  0  0  0  0  0  0  0
   24.7563  -12.8605  -19.0686 C   0  0  1  0  0  0  0  0  0  0  0  0
   25.2533  -11.6748  -18.3751 C   0  0  0  0  0  0  0  0  0  0  0  0
   26.0745  -11.7792  -17.1804 C   0  0  0  0  0  0  0  0  0  0  0  0
   26.5382  -12.7953  -16.3908 C   0  0  0  0  0  0  0  0  0  0  0  0
   27.3426  -12.3280  -15.4235 N   0  0  0  0  0  0  0  0  0  0  0  0
   27.4027  -11.0051  -15.5862 C   0  0  0  0  0  0  0  0  0  0  0  0
   26.6524  -10.6505  -16.6317 N   0  0  0  0  0  0  0  0  0  0  0  0
   23.5567  -12.7305  -19.9140 C   0  0  0  0  0  0  0  0  0  0  0  0
   23.7131  -11.9892  -20.9692 O   0  0  0  0  0  0  0  0  0  0  0  0
   19.0268  -13.7911  -21.2787 O   0  0  0  0  0  0  0  0  0  0  0  0
   20.1093  -13.9890  -20.4340 C   0  0  0  0  0  0  0  0  0  0  0  0
   21.2347  -13.0185  -20.7392 C   0  0  2  0  0  0  0  0  0  0  0  0
   22.2861  -13.2896  -19.7426 N   0  0  0  0  0  0  0  0  0  0  0  0
   20.8189  -11.6096  -20.5837 C   0  0  0  0  0  0  0  0  0  0  0  0
   20.3447  -10.8460  -21.6477 O   0  0  0  0  0  0  0  0  0  0  0  0
   20.8739  -11.0262  -19.4707 O   0  0  0  0  0  0  0  0  0  0  0  0
  1  2  1  0
  2  4  1  0
  3  2  2  0
  4  5  1  0
  5  7  1  0
  5  6  1  1
  7  8  2  0
  9 10  1  0
  9  7  1  0
 10 17  1  0
 11 12  1  0
 10 11  1  6
 12 16  1  0
 13 12  2  0
 13 14  1  0
 14 15  1  0
 16 15  2  0
 17 18  2  0
 19 20  1  0
 21 20  1  1
 21 23  1  0
 22 17  1  0
 22 21  1  0
 23 25  2  0
 23 24  1  0
M  END
$$$$
