NHS.pdb
     RDKit          3D

 25 25  0  0  1  0  0  0  0  0999 V2000
   27.6823  -22.0895  -17.5810 N   0  0  0  0  0  0  0  0  0  0  0  0
   27.7543  -22.0993  -16.1677 C   0  0  0  0  0  0  0  0  0  0  0  0
   28.4783  -22.9430  -15.5768 O   0  0  0  0  0  0  0  0  0  0  0  0
   26.9781  -21.1177  -15.3898 C   0  0  0  0  0  0  0  0  0  0  0  0
   26.1768  -20.2645  -16.3365 C   0  0  2  0  0  0  0  0  0  0  0  0
   27.0314  -19.3491  -17.0634 N   0  0  0  0  0  0  0  0  0  0  0  0
   25.2261  -19.4711  -15.5277 C   0  0  0  0  0  0  0  0  0  0  0  0
   25.6337  -18.6271  -14.6655 O   0  0  0  0  0  0  0  0  0  0  0  0
   23.8364  -19.6212  -15.6826 N   0  0  0  0  0  0  0  0  0  0  0  0
   22.8944  -18.7748  -14.8500 C   0  0  1  0  0  0  0  0  0  0  0  0
   22.3618  -17.7850  -15.7830 C   0  0  0  0  0  0  0  0  0  0  0  0
   21.2647  -16.9050  -15.4159 C   0  0  0  0  0  0  0  0  0  0  0  0
   20.5600  -16.6340  -14.2754 C   0  0  0  0  0  0  0  0  0  0  0  0
   19.6700  -15.6504  -14.4786 N   0  0  0  0  0  0  0  0  0  0  0  0
   19.7980  -15.2805  -15.7542 C   0  0  0  0  0  0  0  0  0  0  0  0
   20.7467  -16.0160  -16.3380 N   0  0  0  0  0  0  0  0  0  0  0  0
   21.9782  -19.7900  -14.3016 C   0  0  0  0  0  0  0  0  0  0  0  0
   21.7381  -20.7905  -15.0946 O   0  0  0  0  0  0  0  0  0  0  0  0
   19.5848  -22.0449  -10.7679 O   0  0  0  0  0  0  0  0  0  0  0  0
   20.4141  -21.0239  -11.2085 C   0  0  0  0  0  0  0  0  0  0  0  0
   20.4729  -20.9731  -12.7237 C   0  0  2  0  0  0  0  0  0  0  0  0
   21.3387  -19.8282  -13.0583 N   0  0  0  0  0  0  0  0  0  0  0  0
   19.1480  -20.7283  -13.3292 C   0  0  0  0  0  0  0  0  0  0  0  0
   18.3155  -21.7609  -13.7543 O   0  0  0  0  0  0  0  0  0  0  0  0
   18.7037  -19.5627  -13.4914 O   0  0  0  0  0  0  0  0  0  0  0  0
  1  2  1  0
  2  4  1  0
  3  2  2  0
  4  5  1  0
  5  7  1  0
  5  6  1  1
  7  8  2  0
  9 10  1  0
  9  7  1  0
 10 17  1  0
 11 12  1  0
 10 11  1  6
 12 16  1  0
 13 12  2  0
 13 14  1  0
 14 15  1  0
 16 15  2  0
 17 18  2  0
 19 20  1  0
 21 20  1  1
 21 23  1  0
 22 17  1  0
 22 21  1  0
 23 25  2  0
 23 24  1  0
M  END
$$$$
