NHS.pdb
     RDKit          3D

 25 25  0  0  1  0  0  0  0  0999 V2000
   19.8811  -22.4642  -13.8027 N   0  0  0  0  0  0  0  0  0  0  0  0
   19.4658  -21.2135  -13.2870 C   0  0  0  0  0  0  0  0  0  0  0  0
   18.3583  -21.1084  -12.6975 O   0  0  0  0  0  0  0  0  0  0  0  0
   20.3351  -20.0340  -13.4428 C   0  0  0  0  0  0  0  0  0  0  0  0
   21.5916  -20.4424  -14.1643 C   0  0  2  0  0  0  0  0  0  0  0  0
   22.4479  -21.2381  -13.3097 N   0  0  0  0  0  0  0  0  0  0  0  0
   22.3180  -19.2073  -14.5309 C   0  0  0  0  0  0  0  0  0  0  0  0
   22.4570  -18.2501  -13.7025 O   0  0  0  0  0  0  0  0  0  0  0  0
   22.8816  -19.0464  -15.8093 N   0  0  0  0  0  0  0  0  0  0  0  0
   23.6529  -17.7828  -16.1340 C   0  0  1  0  0  0  0  0  0  0  0  0
   24.9182  -18.2533  -16.6922 C   0  0  0  0  0  0  0  0  0  0  0  0
   25.8810  -17.3350  -17.2775 C   0  0  0  0  0  0  0  0  0  0  0  0
   25.9729  -15.9807  -17.4450 C   0  0  0  0  0  0  0  0  0  0  0  0
   27.1453  -15.6404  -18.0024 N   0  0  0  0  0  0  0  0  0  0  0  0
   27.8172  -16.7768  -18.1962 C   0  0  0  0  0  0  0  0  0  0  0  0
   27.0825  -17.8067  -17.7703 N   0  0  0  0  0  0  0  0  0  0  0  0
   22.7136  -17.0726  -17.0194 C   0  0  0  0  0  0  0  0  0  0  0  0
   21.9787  -17.8438  -17.7628 O   0  0  0  0  0  0  0  0  0  0  0  0
   21.9216  -13.1074  -17.0844 O   0  0  0  0  0  0  0  0  0  0  0  0
   20.9279  -13.9465  -17.5668 C   0  0  0  0  0  0  0  0  0  0  0  0
   21.5126  -15.2192  -18.1500 C   0  0  2  0  0  0  0  0  0  0  0  0
   22.5026  -15.6980  -17.1688 N   0  0  0  0  0  0  0  0  0  0  0  0
   22.2204  -14.9796  -19.4242 C   0  0  0  0  0  0  0  0  0  0  0  0
   21.5512  -14.8213  -20.6354 O   0  0  0  0  0  0  0  0  0  0  0  0
   23.4751  -14.9063  -19.4764 O   0  0  0  0  0  0  0  0  0  0  0  0
  1  2  1  0
  2  4  1  0
  3  2  2  0
  4  5  1  0
  5  7  1  0
  5  6  1  1
  7  8  2  0
  9 10  1  0
  9  7  1  0
 10 17  1  0
 11 12  1  0
 10 11  1  6
 12 16  1  0
 13 12  2  0
 13 14  1  0
 14 15  1  0
 16 15  2  0
 17 18  2  0
 19 20  1  0
 21 20  1  1
 21 23  1  0
 22 17  1  0
 22 21  1  0
 23 25  2  0
 23 24  1  0
M  END
$$$$
