NHS.pdb
     RDKit          3D

 25 25  0  0  1  0  0  0  0  0999 V2000
   22.0818  -10.5790  -22.0588 N   0  0  0  0  0  0  0  0  0  0  0  0
   20.9455  -10.4496  -21.2252 C   0  0  0  0  0  0  0  0  0  0  0  0
   19.8004  -10.3199  -21.7320 O   0  0  0  0  0  0  0  0  0  0  0  0
   21.1079  -10.4673  -19.7607 C   0  0  0  0  0  0  0  0  0  0  0  0
   22.5599  -10.6890  -19.4308 C   0  0  2  0  0  0  0  0  0  0  0  0
   22.9063  -12.0920  -19.5206 N   0  0  0  0  0  0  0  0  0  0  0  0
   22.7742  -10.2449  -18.0363 C   0  0  0  0  0  0  0  0  0  0  0  0
   22.2202  -10.8434  -17.0582 O   0  0  0  0  0  0  0  0  0  0  0  0
   23.5986   -9.1445  -17.7413 N   0  0  0  0  0  0  0  0  0  0  0  0
   23.7987   -8.7241  -16.2990 C   0  0  1  0  0  0  0  0  0  0  0  0
   25.2476   -8.7108  -16.1137 C   0  0  0  0  0  0  0  0  0  0  0  0
   26.0133   -9.9416  -16.0062 C   0  0  0  0  0  0  0  0  0  0  0  0
   25.7277  -11.2790  -15.9804 C   0  0  0  0  0  0  0  0  0  0  0  0
   26.8505  -12.0129  -15.9389 N   0  0  0  0  0  0  0  0  0  0  0  0
   27.8680  -11.1499  -15.9391 C   0  0  0  0  0  0  0  0  0  0  0  0
   27.3941   -9.9026  -15.9794 N   0  0  0  0  0  0  0  0  0  0  0  0
   23.0711   -7.4439  -16.2519 C   0  0  0  0  0  0  0  0  0  0  0  0
   23.2079   -6.7018  -17.3093 O   0  0  0  0  0  0  0  0  0  0  0  0
   19.4608   -4.6041  -15.0607 O   0  0  0  0  0  0  0  0  0  0  0  0
   20.1856   -5.7791  -14.9258 C   0  0  0  0  0  0  0  0  0  0  0  0
   21.6049   -5.6160  -15.4366 C   0  0  2  0  0  0  0  0  0  0  0  0
   22.2599   -6.9215  -15.2393 N   0  0  0  0  0  0  0  0  0  0  0  0
   22.3659   -4.6093  -14.6688 C   0  0  0  0  0  0  0  0  0  0  0  0
   22.4008   -3.2634  -15.0256 O   0  0  0  0  0  0  0  0  0  0  0  0
   23.0258   -4.9234  -13.6450 O   0  0  0  0  0  0  0  0  0  0  0  0
  1  2  1  0
  2  4  1  0
  3  2  2  0
  4  5  1  0
  5  7  1  0
  5  6  1  1
  7  8  2  0
  9 10  1  0
  9  7  1  0
 10 17  1  0
 11 12  1  0
 10 11  1  6
 12 16  1  0
 13 12  2  0
 13 14  1  0
 14 15  1  0
 16 15  2  0
 17 18  2  0
 19 20  1  0
 21 20  1  1
 21 23  1  0
 22 17  1  0
 22 21  1  0
 23 25  2  0
 23 24  1  0
M  END
$$$$
