NHS.pdb
     RDKit          3D

 25 25  0  0  1  0  0  0  0  0999 V2000
   18.4352  -12.9206  -17.9167 N   0  0  0  0  0  0  0  0  0  0  0  0
   19.4370  -13.4344  -17.0593 C   0  0  0  0  0  0  0  0  0  0  0  0
   19.4234  -14.6486  -16.7266 O   0  0  0  0  0  0  0  0  0  0  0  0
   20.4967  -12.5422  -16.5571 C   0  0  0  0  0  0  0  0  0  0  0  0
   20.2802  -11.1608  -17.1147 C   0  0  2  0  0  0  0  0  0  0  0  0
   20.5759  -11.1186  -18.5316 N   0  0  0  0  0  0  0  0  0  0  0  0
   21.2106  -10.2464  -16.4176 C   0  0  0  0  0  0  0  0  0  0  0  0
   21.1896  -10.1199  -15.1505 O   0  0  0  0  0  0  0  0  0  0  0  0
   22.1525   -9.4836  -17.1307 N   0  0  0  0  0  0  0  0  0  0  0  0
   23.1691   -8.6517  -16.3747 C   0  0  1  0  0  0  0  0  0  0  0  0
   24.4341   -8.8952  -17.0634 C   0  0  0  0  0  0  0  0  0  0  0  0
   25.5014   -9.6654  -16.4466 C   0  0  0  0  0  0  0  0  0  0  0  0
   25.6638  -10.3651  -15.2826 C   0  0  0  0  0  0  0  0  0  0  0  0
   26.8626  -10.9672  -15.2432 N   0  0  0  0  0  0  0  0  0  0  0  0
   27.4798  -10.6587  -16.3852 C   0  0  0  0  0  0  0  0  0  0  0  0
   26.6862   -9.8803  -17.1241 N   0  0  0  0  0  0  0  0  0  0  0  0
   22.5751   -7.3054  -16.4483 C   0  0  0  0  0  0  0  0  0  0  0  0
   21.9412   -7.0508  -17.5532 O   0  0  0  0  0  0  0  0  0  0  0  0
   20.9686   -3.1589  -14.5730 O   0  0  0  0  0  0  0  0  0  0  0  0
   21.5339   -4.4186  -14.4384 C   0  0  0  0  0  0  0  0  0  0  0  0
   21.8825   -5.0162  -15.7886 C   0  0  2  0  0  0  0  0  0  0  0  0
   22.5960   -6.2740  -15.5038 N   0  0  0  0  0  0  0  0  0  0  0  0
   22.7898   -4.1500  -16.5688 C   0  0  0  0  0  0  0  0  0  0  0  0
   22.3287   -3.2563  -17.5324 O   0  0  0  0  0  0  0  0  0  0  0  0
   24.0357   -4.1789  -16.3980 O   0  0  0  0  0  0  0  0  0  0  0  0
  1  2  1  0
  2  4  1  0
  3  2  2  0
  4  5  1  0
  5  7  1  0
  5  6  1  6
  7  8  2  0
  9 10  1  0
  9  7  1  0
 10 17  1  0
 11 12  1  0
 10 11  1  6
 12 16  1  0
 13 12  2  0
 13 14  1  0
 14 15  1  0
 16 15  2  0
 17 18  2  0
 19 20  1  0
 21 20  1  1
 21 23  1  0
 22 17  1  0
 22 21  1  0
 23 25  2  0
 23 24  1  0
M  END
$$$$
