NHS.pdb
     RDKit          3D

 25 25  0  0  1  0  0  0  0  0999 V2000
   20.6860  -15.7409  -14.3475 N   0  0  0  0  0  0  0  0  0  0  0  0
   20.8209  -15.9781  -15.7361 C   0  0  0  0  0  0  0  0  0  0  0  0
   20.4919  -15.0892  -16.5647 O   0  0  0  0  0  0  0  0  0  0  0  0
   21.3483  -17.2702  -16.2087 C   0  0  0  0  0  0  0  0  0  0  0  0
   22.8244  -17.3331  -15.9194 C   0  0  2  0  0  0  0  0  0  0  0  0
   23.5746  -16.5300  -16.8622 N   0  0  0  0  0  0  0  0  0  0  0  0
   23.2491  -18.7422  -16.0667 C   0  0  0  0  0  0  0  0  0  0  0  0
   23.5553  -19.2262  -17.2042 O   0  0  0  0  0  0  0  0  0  0  0  0
   23.3299  -19.5983  -14.9539 N   0  0  0  0  0  0  0  0  0  0  0  0
   23.7756  -21.0342  -15.1447 C   0  0  1  0  0  0  0  0  0  0  0  0
   25.0683  -21.1145  -14.4691 C   0  0  0  0  0  0  0  0  0  0  0  0
   26.2407  -21.6635  -15.1302 C   0  0  0  0  0  0  0  0  0  0  0  0
   26.5323  -22.1447  -16.3769 C   0  0  0  0  0  0  0  0  0  0  0  0
   27.8306  -22.4687  -16.4790 N   0  0  0  0  0  0  0  0  0  0  0  0
   28.3839  -22.1960  -15.2959 C   0  0  0  0  0  0  0  0  0  0  0  0
   27.4534  -21.7122  -14.4701 N   0  0  0  0  0  0  0  0  0  0  0  0
   22.6388  -21.7827  -14.5808 C   0  0  0  0  0  0  0  0  0  0  0  0
   21.7648  -21.0534  -13.9549 O   0  0  0  0  0  0  0  0  0  0  0  0
   18.8435  -23.1456  -15.5177 O   0  0  0  0  0  0  0  0  0  0  0  0
   20.1732  -22.7527  -15.4732 C   0  0  0  0  0  0  0  0  0  0  0  0
   20.9766  -23.6238  -14.5259 C   0  0  2  0  0  0  0  0  0  0  0  0
   22.3702  -23.1546  -14.6261 N   0  0  0  0  0  0  0  0  0  0  0  0
   20.9516  -25.0485  -14.9153 C   0  0  0  0  0  0  0  0  0  0  0  0
   20.1574  -25.9897  -14.2648 O   0  0  0  0  0  0  0  0  0  0  0  0
   21.6542  -25.4840  -15.8635 O   0  0  0  0  0  0  0  0  0  0  0  0
  1  2  1  0
  2  4  1  0
  3  2  2  0
  4  5  1  0
  5  7  1  0
  5  6  1  6
  7  8  2  0
  9 10  1  0
  9  7  1  0
 10 17  1  0
 11 12  1  0
 10 11  1  1
 12 16  1  0
 13 12  2  0
 13 14  1  0
 14 15  1  0
 16 15  2  0
 17 18  2  0
 19 20  1  0
 21 20  1  6
 21 23  1  0
 22 17  1  0
 22 21  1  0
 23 25  2  0
 23 24  1  0
M  END
$$$$
