NHS.pdb
     RDKit          3D

 25 25  0  0  1  0  0  0  0  0999 V2000
   26.8612  -13.3216  -15.4256 N   0  0  0  0  0  0  0  0  0  0  0  0
   27.1310  -12.1985  -16.2433 C   0  0  0  0  0  0  0  0  0  0  0  0
   28.3119  -11.9417  -16.5961 O   0  0  0  0  0  0  0  0  0  0  0  0
   26.0236  -11.3303  -16.6805 C   0  0  0  0  0  0  0  0  0  0  0  0
   24.7406  -11.8257  -16.0682 C   0  0  2  0  0  0  0  0  0  0  0  0
   24.3811  -13.1265  -16.5929 N   0  0  0  0  0  0  0  0  0  0  0  0
   23.6737  -10.8670  -16.4292 C   0  0  0  0  0  0  0  0  0  0  0  0
   23.1662  -10.8499  -17.5971 O   0  0  0  0  0  0  0  0  0  0  0  0
   23.1815   -9.9394  -15.4938 N   0  0  0  0  0  0  0  0  0  0  0  0
   22.0052   -9.0574  -15.8617 C   0  0  1  0  0  0  0  0  0  0  0  0
   20.8711   -9.6321  -15.1424 C   0  0  0  0  0  0  0  0  0  0  0  0
   20.0552  -10.6855  -15.7233 C   0  0  0  0  0  0  0  0  0  0  0  0
   20.0454  -11.3887  -16.8965 C   0  0  0  0  0  0  0  0  0  0  0  0
   19.0875  -12.3285  -16.8893 N   0  0  0  0  0  0  0  0  0  0  0  0
   18.4744  -12.2364  -15.7079 C   0  0  0  0  0  0  0  0  0  0  0  0
   19.0348  -11.2603  -14.9903 N   0  0  0  0  0  0  0  0  0  0  0  0
   22.4889   -7.7240  -15.4634 C   0  0  0  0  0  0  0  0  0  0  0  0
   23.1340   -7.6942  -14.3362 O   0  0  0  0  0  0  0  0  0  0  0  0
   23.3569   -3.0012  -16.1471 O   0  0  0  0  0  0  0  0  0  0  0  0
   22.8602   -4.2134  -16.6032 C   0  0  0  0  0  0  0  0  0  0  0  0
   22.9642   -5.2900  -15.5393 C   0  0  2  0  0  0  0  0  0  0  0  0
   22.3543   -6.4981  -16.1232 N   0  0  0  0  0  0  0  0  0  0  0  0
   22.2067   -4.9479  -14.3182 C   0  0  0  0  0  0  0  0  0  0  0  0
   20.8735   -5.3080  -14.1374 O   0  0  0  0  0  0  0  0  0  0  0  0
   22.7357   -4.3080  -13.3732 O   0  0  0  0  0  0  0  0  0  0  0  0
  1  2  1  0
  2  4  1  0
  3  2  2  0
  4  5  1  0
  5  7  1  0
  5  6  1  6
  7  8  2  0
  9 10  1  0
  9  7  1  0
 10 17  1  0
 11 12  1  0
 10 11  1  1
 12 16  1  0
 13 12  2  0
 13 14  1  0
 14 15  1  0
 16 15  2  0
 17 18  2  0
 19 20  1  0
 21 20  1  6
 21 23  1  0
 22 17  1  0
 22 21  1  0
 23 25  2  0
 23 24  1  0
M  END
$$$$
