NHS.pdb
     RDKit          3D

 25 25  0  0  1  0  0  0  0  0999 V2000
   16.5913  -13.7414  -15.6790 N   0  0  0  0  0  0  0  0  0  0  0  0
   15.4907  -12.9187  -15.3406 C   0  0  0  0  0  0  0  0  0  0  0  0
   14.3356  -13.4117  -15.2524 O   0  0  0  0  0  0  0  0  0  0  0  0
   15.7021  -11.4818  -15.0916 C   0  0  0  0  0  0  0  0  0  0  0  0
   17.1580  -11.1575  -15.2948 C   0  0  2  0  0  0  0  0  0  0  0  0
   17.9387  -11.5131  -14.1283 N   0  0  0  0  0  0  0  0  0  0  0  0
   17.2663   -9.6968  -15.4999 C   0  0  0  0  0  0  0  0  0  0  0  0
   16.7453   -9.1301  -16.5145 O   0  0  0  0  0  0  0  0  0  0  0  0
   17.9494   -8.8812  -14.5803 N   0  0  0  0  0  0  0  0  0  0  0  0
   17.9775   -7.3801  -14.7874 C   0  0  1  0  0  0  0  0  0  0  0  0
   16.7764   -6.8901  -14.1157 C   0  0  0  0  0  0  0  0  0  0  0  0
   15.5087   -6.7660  -14.8160 C   0  0  0  0  0  0  0  0  0  0  0  0
   15.1129   -6.4381  -16.0836 C   0  0  0  0  0  0  0  0  0  0  0  0
   13.7827   -6.5525  -16.2199 N   0  0  0  0  0  0  0  0  0  0  0  0
   13.3136   -6.9570  -15.0382 C   0  0  0  0  0  0  0  0  0  0  0  0
   14.3267   -7.0929  -14.1797 N   0  0  0  0  0  0  0  0  0  0  0  0
   19.2926   -7.0208  -14.2288 C   0  0  0  0  0  0  0  0  0  0  0  0
   19.5569   -7.5543  -13.0743 O   0  0  0  0  0  0  0  0  0  0  0  0
   22.5170   -5.8938  -16.2196 O   0  0  0  0  0  0  0  0  0  0  0  0
   22.6523   -6.4677  -14.9640 C   0  0  0  0  0  0  0  0  0  0  0  0
   21.5505   -6.0127  -14.0255 C   0  0  2  0  0  0  0  0  0  0  0  0
   20.2877   -6.1957  -14.7631 N   0  0  0  0  0  0  0  0  0  0  0  0
   21.6652   -4.5820  -13.6764 C   0  0  0  0  0  0  0  0  0  0  0  0
   20.7277   -3.6343  -14.0798 O   0  0  0  0  0  0  0  0  0  0  0  0
   22.6258   -4.1469  -12.9906 O   0  0  0  0  0  0  0  0  0  0  0  0
  1  2  1  0
  2  4  1  0
  3  2  2  0
  4  5  1  0
  5  7  1  0
  5  6  1  1
  7  8  2  0
  9 10  1  0
  9  7  1  0
 10 17  1  0
 11 12  1  0
 10 11  1  1
 12 16  1  0
 13 12  2  0
 13 14  1  0
 14 15  1  0
 16 15  2  0
 17 18  2  0
 19 20  1  0
 21 20  1  6
 21 23  1  0
 22 17  1  0
 22 21  1  0
 23 25  2  0
 23 24  1  0
M  END
$$$$
