NHS.pdb
     RDKit          3D

 25 25  0  0  1  0  0  0  0  0999 V2000
   15.1960  -13.4144  -10.0228 N   0  0  0  0  0  0  0  0  0  0  0  0
   15.7994  -13.0023  -11.2347 C   0  0  0  0  0  0  0  0  0  0  0  0
   16.3107  -13.8536  -12.0085 O   0  0  0  0  0  0  0  0  0  0  0  0
   15.8270  -11.5719  -11.5876 C   0  0  0  0  0  0  0  0  0  0  0  0
   15.1516  -10.7843  -10.4968 C   0  0  2  0  0  0  0  0  0  0  0  0
   13.7204  -11.0035  -10.5056 N   0  0  0  0  0  0  0  0  0  0  0  0
   15.4046   -9.3507  -10.7584 C   0  0  0  0  0  0  0  0  0  0  0  0
   14.8125   -8.7353  -11.7031 O   0  0  0  0  0  0  0  0  0  0  0  0
   16.3094   -8.6157   -9.9716 N   0  0  0  0  0  0  0  0  0  0  0  0
   16.5389   -7.1474  -10.2688 C   0  0  1  0  0  0  0  0  0  0  0  0
   16.1035   -6.4516   -9.0604 C   0  0  0  0  0  0  0  0  0  0  0  0
   16.3193   -5.0252   -8.8829 C   0  0  0  0  0  0  0  0  0  0  0  0
   16.8144   -4.0027   -9.6446 C   0  0  0  0  0  0  0  0  0  0  0  0
   16.7180   -2.8291   -9.0009 N   0  0  0  0  0  0  0  0  0  0  0  0
   16.1575   -3.0899   -7.8185 C   0  0  0  0  0  0  0  0  0  0  0  0
   15.9084   -4.3978   -7.7225 N   0  0  0  0  0  0  0  0  0  0  0  0
   17.9707   -7.1277  -10.6153 C   0  0  0  0  0  0  0  0  0  0  0  0
   18.7455   -7.7220   -9.7585 O   0  0  0  0  0  0  0  0  0  0  0  0
   21.5170   -8.1587  -13.2073 O   0  0  0  0  0  0  0  0  0  0  0  0
   20.2012   -7.9801  -12.8062 C   0  0  0  0  0  0  0  0  0  0  0  0
   20.0554   -6.7642  -11.9105 C   0  0  2  0  0  0  0  0  0  0  0  0
   18.6064   -6.5662  -11.7275 N   0  0  0  0  0  0  0  0  0  0  0  0
   20.6027   -5.5406  -12.5313 C   0  0  0  0  0  0  0  0  0  0  0  0
   21.9372   -5.1648  -12.3982 O   0  0  0  0  0  0  0  0  0  0  0  0
   19.8813   -4.7715  -13.2171 O   0  0  0  0  0  0  0  0  0  0  0  0
  1  2  1  0
  2  4  1  0
  3  2  2  0
  4  5  1  0
  5  7  1  0
  5  6  1  6
  7  8  2  0
  9 10  1  0
  9  7  1  0
 10 17  1  0
 11 12  1  0
 10 11  1  1
 12 16  1  0
 13 12  2  0
 13 14  1  0
 14 15  1  0
 16 15  2  0
 17 18  2  0
 19 20  1  0
 21 20  1  6
 21 23  1  0
 22 17  1  0
 22 21  1  0
 23 25  2  0
 23 24  1  0
M  END
$$$$
