HGD.pdb
     RDKit          3D

 23 23  0  0  1  0  0  0  0  0999 V2000
    8.3348  -15.9970   21.6172 N   0  0  0  0  0  0  0  0  0  0  0  0
    7.5455  -14.9693   22.2672 C   0  0  1  0  0  0  0  0  0  0  0  0
    6.7308  -14.2949   21.1601 C   0  0  0  0  0  0  0  0  0  0  0  0
    7.7188  -13.7600   20.1865 C   0  0  0  0  0  0  0  0  0  0  0  0
    8.4256  -12.5602   20.3241 C   0  0  0  0  0  0  0  0  0  0  0  0
    9.2270  -12.3981   19.2572 N   0  0  0  0  0  0  0  0  0  0  0  0
    9.0568  -13.4518   18.4436 C   0  0  0  0  0  0  0  0  0  0  0  0
    8.1368  -14.2759   19.0171 N   0  0  0  0  0  0  0  0  0  0  0  0
    6.6795  -15.5141   23.3270 C   0  0  0  0  0  0  0  0  0  0  0  0
    5.9905  -14.7398   24.0090 O   0  0  0  0  0  0  0  0  0  0  0  0
    6.6610  -16.9209   23.5358 N   0  0  0  0  0  0  0  0  0  0  0  0
    5.8706  -17.4408   24.6108 C   0  0  0  0  0  0  0  0  0  0  0  0
    6.7478  -17.9323   25.7067 C   0  0  0  0  0  0  0  0  0  0  0  0
    6.2181  -18.3991   26.7601 O   0  0  0  0  0  0  0  0  0  0  0  0
    8.1513  -17.9117   25.6480 N   0  0  0  0  0  0  0  0  0  0  0  0
    8.9964  -18.3140   26.7727 C   0  0  1  0  0  0  0  0  0  0  0  0
    9.8174  -19.4714   26.2454 C   0  0  0  0  0  0  0  0  0  0  0  0
   10.7823  -19.9468   27.2323 C   0  0  0  0  0  0  0  0  0  0  0  0
   10.8076  -19.5129   28.4057 O   0  0  0  0  0  0  0  0  0  0  0  0
    9.9118  -17.2370   27.1748 C   0  0  0  0  0  0  0  0  0  0  0  0
   10.0650  -16.0247   26.5464 O   0  0  0  0  0  0  0  0  0  0  0  0
   11.7089  -20.9107   26.8752 O   0  0  0  0  0  0  0  0  0  0  0  0
   10.6370  -17.4447   28.2071 O   0  0  0  0  0  0  0  0  0  0  0  0
  2  1  1  6
  2  3  1  0
  4  3  1  0
  4  5  2  0
  6  5  1  0
  7  6  1  0
  8  7  2  0
  8  4  1  0
  9  2  1  0
  9 10  2  0
 11  9  1  0
 12 11  1  0
 12 13  1  0
 13 15  1  0
 14 13  2  0
 15 16  1  0
 16 17  1  6
 17 18  1  0
 18 22  1  0
 19 18  2  0
 20 16  1  0
 20 21  1  0
 23 20  2  0
M  END
$$$$
