HGD.pdb
     RDKit          3D

 23 23  0  0  1  0  0  0  0  0999 V2000
   10.2290  -15.8976   18.5502 N   0  0  0  0  0  0  0  0  0  0  0  0
   11.2098  -14.8302   18.5704 C   0  0  1  0  0  0  0  0  0  0  0  0
   10.7634  -13.8631   19.6702 C   0  0  0  0  0  0  0  0  0  0  0  0
    9.3483  -13.5202   19.3705 C   0  0  0  0  0  0  0  0  0  0  0  0
    8.2504  -13.8240   20.1831 C   0  0  0  0  0  0  0  0  0  0  0  0
    7.1311  -13.3632   19.5987 N   0  0  0  0  0  0  0  0  0  0  0  0
    7.4755  -12.7761   18.4421 C   0  0  0  0  0  0  0  0  0  0  0  0
    8.8273  -12.8763   18.3111 N   0  0  0  0  0  0  0  0  0  0  0  0
   12.5761  -15.3289   18.8040 C   0  0  0  0  0  0  0  0  0  0  0  0
   12.7398  -16.3869   19.4313 O   0  0  0  0  0  0  0  0  0  0  0  0
   13.6719  -14.5758   18.2992 N   0  0  0  0  0  0  0  0  0  0  0  0
   14.9864  -15.1358   18.3947 C   0  0  0  0  0  0  0  0  0  0  0  0
   15.5032  -15.0080   19.7834 C   0  0  0  0  0  0  0  0  0  0  0  0
   14.9341  -14.2052   20.5832 O   0  0  0  0  0  0  0  0  0  0  0  0
   16.6016  -15.7334   20.2743 N   0  0  0  0  0  0  0  0  0  0  0  0
   17.1256  -15.5559   21.6290 C   0  0  1  0  0  0  0  0  0  0  0  0
   17.6032  -16.9316   22.0425 C   0  0  0  0  0  0  0  0  0  0  0  0
   18.1937  -16.9229   23.3775 C   0  0  0  0  0  0  0  0  0  0  0  0
   19.4245  -16.7944   23.5634 O   0  0  0  0  0  0  0  0  0  0  0  0
   18.2725  -14.6375   21.6501 C   0  0  0  0  0  0  0  0  0  0  0  0
   18.8145  -14.0406   22.7628 O   0  0  0  0  0  0  0  0  0  0  0  0
   17.3791  -17.0604   24.4877 O   0  0  0  0  0  0  0  0  0  0  0  0
   18.8206  -14.3650   20.5275 O   0  0  0  0  0  0  0  0  0  0  0  0
  2  1  1  1
  2  3  1  0
  4  3  1  0
  4  5  2  0
  6  5  1  0
  7  6  1  0
  8  7  2  0
  8  4  1  0
  9  2  1  0
  9 10  2  0
 11  9  1  0
 12 11  1  0
 12 13  1  0
 13 15  1  0
 14 13  2  0
 15 16  1  0
 16 17  1  6
 17 18  1  0
 18 22  1  0
 19 18  2  0
 20 16  1  0
 20 21  1  0
 23 20  2  0
M  END
$$$$
