HGD.pdb
     RDKit          3D

 23 23  0  0  1  0  0  0  0  0999 V2000
    7.4175  -14.6358   22.8534 N   0  0  0  0  0  0  0  0  0  0  0  0
    8.5521  -14.6094   23.7555 C   0  0  1  0  0  0  0  0  0  0  0  0
    8.0009  -14.9511   25.1424 C   0  0  0  0  0  0  0  0  0  0  0  0
    7.1407  -13.8055   25.5397 C   0  0  0  0  0  0  0  0  0  0  0  0
    7.5375  -12.4640   25.5664 C   0  0  0  0  0  0  0  0  0  0  0  0
    6.5033  -11.7084   25.9741 N   0  0  0  0  0  0  0  0  0  0  0  0
    5.4605  -12.5200   26.2084 C   0  0  0  0  0  0  0  0  0  0  0  0
    5.8574  -13.7950   25.9414 N   0  0  0  0  0  0  0  0  0  0  0  0
    9.6155  -15.5430   23.3459 C   0  0  0  0  0  0  0  0  0  0  0  0
   10.3987  -15.2155   22.4411 O   0  0  0  0  0  0  0  0  0  0  0  0
    9.7107  -16.7992   24.0061 N   0  0  0  0  0  0  0  0  0  0  0  0
   10.9647  -17.4903   23.9801 C   0  0  0  0  0  0  0  0  0  0  0  0
   11.5283  -17.5908   25.3527 C   0  0  0  0  0  0  0  0  0  0  0  0
   12.6922  -18.0692   25.5095 O   0  0  0  0  0  0  0  0  0  0  0  0
   10.8406  -17.1820   26.5076 N   0  0  0  0  0  0  0  0  0  0  0  0
   11.2274  -17.6105   27.8522 C   0  0  1  0  0  0  0  0  0  0  0  0
   10.5180  -16.6505   28.7833 C   0  0  0  0  0  0  0  0  0  0  0  0
   10.8988  -15.2647   28.5275 C   0  0  0  0  0  0  0  0  0  0  0  0
   11.7888  -14.9570   27.7033 O   0  0  0  0  0  0  0  0  0  0  0  0
   10.7599  -18.9732   28.1418 C   0  0  0  0  0  0  0  0  0  0  0  0
    9.8505  -19.6934   27.4054 O   0  0  0  0  0  0  0  0  0  0  0  0
   10.2642  -14.2425   29.2112 O   0  0  0  0  0  0  0  0  0  0  0  0
   11.2429  -19.5463   29.1777 O   0  0  0  0  0  0  0  0  0  0  0  0
  2  1  1  6
  2  3  1  0
  4  3  1  0
  4  5  2  0
  6  5  1  0
  7  6  1  0
  8  7  2  0
  8  4  1  0
  9  2  1  0
  9 10  2  0
 11  9  1  0
 12 11  1  0
 12 13  1  0
 13 15  1  0
 14 13  2  0
 15 16  1  0
 16 17  1  1
 17 18  1  0
 18 22  1  0
 19 18  2  0
 20 16  1  0
 20 21  1  0
 23 20  2  0
M  END
$$$$
