HGD.pdb
     RDKit          3D

 23 23  0  0  1  0  0  0  0  0999 V2000
    9.3651  -15.8711   19.4557 N   0  0  0  0  0  0  0  0  0  0  0  0
    9.3368  -14.9642   20.5863 C   0  0  1  0  0  0  0  0  0  0  0  0
    7.9330  -14.3533   20.6066 C   0  0  0  0  0  0  0  0  0  0  0  0
    7.6936  -13.8205   19.2395 C   0  0  0  0  0  0  0  0  0  0  0  0
    8.0901  -12.5601   18.7790 C   0  0  0  0  0  0  0  0  0  0  0  0
    7.7073  -12.4204   17.4982 N   0  0  0  0  0  0  0  0  0  0  0  0
    7.0805  -13.5468   17.1248 C   0  0  0  0  0  0  0  0  0  0  0  0
    7.0766  -14.3938   18.1911 N   0  0  0  0  0  0  0  0  0  0  0  0
    9.6559  -15.6405   21.8554 C   0  0  0  0  0  0  0  0  0  0  0  0
    8.7328  -16.0356   22.5843 O   0  0  0  0  0  0  0  0  0  0  0  0
   11.0223  -15.8201   22.2069 N   0  0  0  0  0  0  0  0  0  0  0  0
   11.3339  -16.6467   23.3341 C   0  0  0  0  0  0  0  0  0  0  0  0
   12.8075  -16.7656   23.4963 C   0  0  0  0  0  0  0  0  0  0  0  0
   13.2729  -17.6227   24.3069 O   0  0  0  0  0  0  0  0  0  0  0  0
   13.7334  -15.9744   22.7960 N   0  0  0  0  0  0  0  0  0  0  0  0
   15.1663  -16.2699   22.7691 C   0  0  1  0  0  0  0  0  0  0  0  0
   15.7286  -15.3617   21.6964 C   0  0  0  0  0  0  0  0  0  0  0  0
   15.1286  -15.6256   20.3920 C   0  0  0  0  0  0  0  0  0  0  0  0
   14.8208  -16.7797   20.0188 O   0  0  0  0  0  0  0  0  0  0  0  0
   15.8117  -15.9385   24.0470 C   0  0  0  0  0  0  0  0  0  0  0  0
   17.1352  -16.1312   24.3623 O   0  0  0  0  0  0  0  0  0  0  0  0
   14.8847  -14.5749   19.5250 O   0  0  0  0  0  0  0  0  0  0  0  0
   15.0742  -15.4222   24.9548 O   0  0  0  0  0  0  0  0  0  0  0  0
  2  1  1  6
  2  3  1  0
  4  3  1  0
  4  5  2  0
  6  5  1  0
  7  6  1  0
  8  7  2  0
  8  4  1  0
  9  2  1  0
  9 10  2  0
 11  9  1  0
 12 11  1  0
 12 13  1  0
 13 15  1  0
 14 13  2  0
 15 16  1  0
 16 17  1  6
 17 18  1  0
 18 22  1  0
 19 18  2  0
 20 16  1  0
 20 21  1  0
 23 20  2  0
M  END
$$$$
