HGD.pdb
     RDKit          3D

 23 23  0  0  1  0  0  0  0  0999 V2000
    8.0173  -16.5819   20.0136 N   0  0  0  0  0  0  0  0  0  0  0  0
    8.2665  -15.3223   20.6866 C   0  0  1  0  0  0  0  0  0  0  0  0
    7.0936  -14.4071   20.3247 C   0  0  0  0  0  0  0  0  0  0  0  0
    7.1594  -14.2126   18.8523 C   0  0  0  0  0  0  0  0  0  0  0  0
    7.8262  -13.1690   18.2009 C   0  0  0  0  0  0  0  0  0  0  0  0
    7.6737  -13.3119   16.8731 N   0  0  0  0  0  0  0  0  0  0  0  0
    6.9333  -14.4096   16.6539 C   0  0  0  0  0  0  0  0  0  0  0  0
    6.6246  -14.9517   17.8644 N   0  0  0  0  0  0  0  0  0  0  0  0
    8.4032  -15.4833   22.1446 C   0  0  0  0  0  0  0  0  0  0  0  0
    7.5229  -16.0882   22.7760 O   0  0  0  0  0  0  0  0  0  0  0  0
    9.5485  -14.9359   22.7861 N   0  0  0  0  0  0  0  0  0  0  0  0
    9.7569  -15.2247   24.1731 C   0  0  0  0  0  0  0  0  0  0  0  0
   10.6152  -16.4296   24.3270 C   0  0  0  0  0  0  0  0  0  0  0  0
   10.3704  -17.4566   23.6245 O   0  0  0  0  0  0  0  0  0  0  0  0
   11.6994  -16.5035   25.2173 N   0  0  0  0  0  0  0  0  0  0  0  0
   12.5514  -17.6878   25.3301 C   0  0  1  0  0  0  0  0  0  0  0  0
   13.9453  -17.1418   25.5552 C   0  0  0  0  0  0  0  0  0  0  0  0
   14.4899  -16.5288   24.3474 C   0  0  0  0  0  0  0  0  0  0  0  0
   13.8148  -16.3959   23.3022 O   0  0  0  0  0  0  0  0  0  0  0  0
   12.1807  -18.5134   26.4878 C   0  0  0  0  0  0  0  0  0  0  0  0
   12.6346  -19.7816   26.7595 O   0  0  0  0  0  0  0  0  0  0  0  0
   15.7965  -16.0730   24.3401 O   0  0  0  0  0  0  0  0  0  0  0  0
   11.3567  -18.0068   27.3240 O   0  0  0  0  0  0  0  0  0  0  0  0
  2  1  1  6
  2  3  1  0
  4  3  1  0
  4  5  2  0
  6  5  1  0
  7  6  1  0
  8  7  2  0
  8  4  1  0
  9  2  1  0
  9 10  2  0
 11  9  1  0
 12 11  1  0
 12 13  1  0
 13 15  1  0
 14 13  2  0
 15 16  1  0
 16 17  1  1
 17 18  1  0
 18 22  1  0
 19 18  2  0
 20 16  1  0
 20 21  1  0
 23 20  2  0
M  END
$$$$
