HGD.pdb
     RDKit          3D

 23 23  0  0  1  0  0  0  0  0999 V2000
    9.1502  -13.4286   24.5465 N   0  0  0  0  0  0  0  0  0  0  0  0
    8.3742  -14.5914   24.9305 C   0  0  1  0  0  0  0  0  0  0  0  0
    6.9126  -14.2436   24.6357 C   0  0  0  0  0  0  0  0  0  0  0  0
    6.5789  -13.0857   25.5062 C   0  0  0  0  0  0  0  0  0  0  0  0
    5.6560  -13.1007   26.5579 C   0  0  0  0  0  0  0  0  0  0  0  0
    5.6129  -11.8813   27.1214 N   0  0  0  0  0  0  0  0  0  0  0  0
    6.4755  -11.0884   26.4669 C   0  0  0  0  0  0  0  0  0  0  0  0
    7.0592  -11.8298   25.4851 N   0  0  0  0  0  0  0  0  0  0  0  0
    8.7996  -15.8090   24.2188 C   0  0  0  0  0  0  0  0  0  0  0  0
    8.3290  -16.9068   24.5544 O   0  0  0  0  0  0  0  0  0  0  0  0
    9.7432  -15.6858   23.1617 N   0  0  0  0  0  0  0  0  0  0  0  0
   10.2524  -16.8808   22.5589 C   0  0  0  0  0  0  0  0  0  0  0  0
   11.3765  -17.4278   23.3646 C   0  0  0  0  0  0  0  0  0  0  0  0
   12.3528  -16.6727   23.6560 O   0  0  0  0  0  0  0  0  0  0  0  0
   11.4262  -18.7518   23.8317 N   0  0  0  0  0  0  0  0  0  0  0  0
   12.5342  -19.2654   24.6377 C   0  0  1  0  0  0  0  0  0  0  0  0
   11.9050  -20.3003   25.5459 C   0  0  0  0  0  0  0  0  0  0  0  0
   11.6254  -19.7602   26.8729 C   0  0  0  0  0  0  0  0  0  0  0  0
   11.9859  -18.6124   27.2173 O   0  0  0  0  0  0  0  0  0  0  0  0
   13.5474  -19.9288   23.8054 C   0  0  0  0  0  0  0  0  0  0  0  0
   14.8855  -20.0468   24.0946 O   0  0  0  0  0  0  0  0  0  0  0  0
   10.9389  -20.5303   27.7953 O   0  0  0  0  0  0  0  0  0  0  0  0
   13.1496  -20.4460   22.7059 O   0  0  0  0  0  0  0  0  0  0  0  0
  2  1  1  6
  2  3  1  0
  4  3  1  0
  4  5  2  0
  6  5  1  0
  7  6  1  0
  8  7  2  0
  8  4  1  0
  9  2  1  0
  9 10  2  0
 11  9  1  0
 12 11  1  0
 12 13  1  0
 13 15  1  0
 14 13  2  0
 15 16  1  0
 16 17  1  1
 17 18  1  0
 18 22  1  0
 19 18  2  0
 20 16  1  0
 20 21  1  0
 23 20  2  0
M  END
$$$$
