HGD.pdb
     RDKit          3D

 23 23  0  0  1  0  0  0  0  0999 V2000
    9.1493  -16.3784   16.2512 N   0  0  0  0  0  0  0  0  0  0  0  0
   10.3435  -15.7713   15.6974 C   0  0  1  0  0  0  0  0  0  0  0  0
    9.8689  -14.8497   14.5706 C   0  0  0  0  0  0  0  0  0  0  0  0
    9.3337  -15.7389   13.5062 C   0  0  0  0  0  0  0  0  0  0  0  0
    9.9265  -16.9287   13.0691 C   0  0  0  0  0  0  0  0  0  0  0  0
    9.1681  -17.4660   12.0981 N   0  0  0  0  0  0  0  0  0  0  0  0
    8.1123  -16.6615   11.9000 C   0  0  0  0  0  0  0  0  0  0  0  0
    8.2212  -15.6125   12.7615 N   0  0  0  0  0  0  0  0  0  0  0  0
   11.1211  -15.0378   16.7110 C   0  0  0  0  0  0  0  0  0  0  0  0
   12.1812  -14.4833   16.3823 O   0  0  0  0  0  0  0  0  0  0  0  0
   10.6275  -14.9885   18.0440 N   0  0  0  0  0  0  0  0  0  0  0  0
   11.4074  -14.3110   19.0357 C   0  0  0  0  0  0  0  0  0  0  0  0
   12.5200  -15.1809   19.5017 C   0  0  0  0  0  0  0  0  0  0  0  0
   13.0953  -15.9469   18.6707 O   0  0  0  0  0  0  0  0  0  0  0  0
   12.9825  -15.2085   20.8280 N   0  0  0  0  0  0  0  0  0  0  0  0
   14.2760  -15.7805   21.2033 C   0  0  1  0  0  0  0  0  0  0  0  0
   15.3023  -14.8352   20.6160 C   0  0  0  0  0  0  0  0  0  0  0  0
   16.6661  -15.2964   20.8572 C   0  0  0  0  0  0  0  0  0  0  0  0
   17.4771  -15.5015   19.9265 O   0  0  0  0  0  0  0  0  0  0  0  0
   14.4514  -15.8124   22.6619 C   0  0  0  0  0  0  0  0  0  0  0  0
   15.1201  -16.7754   23.3786 O   0  0  0  0  0  0  0  0  0  0  0  0
   17.0944  -15.5198   22.1540 O   0  0  0  0  0  0  0  0  0  0  0  0
   13.9328  -14.8546   23.3316 O   0  0  0  0  0  0  0  0  0  0  0  0
  2  1  1  1
  2  3  1  0
  4  3  1  0
  4  5  2  0
  6  5  1  0
  7  6  1  0
  8  7  2  0
  8  4  1  0
  9  2  1  0
  9 10  2  0
 11  9  1  0
 12 11  1  0
 12 13  1  0
 13 15  1  0
 14 13  2  0
 15 16  1  0
 16 17  1  6
 17 18  1  0
 18 22  1  0
 19 18  2  0
 20 16  1  0
 20 21  1  0
 23 20  2  0
M  END
$$$$
