HGD.pdb
     RDKit          3D

 23 23  0  0  1  0  0  0  0  0999 V2000
    8.1027  -16.9939   19.2583 N   0  0  0  0  0  0  0  0  0  0  0  0
    9.5056  -16.6433   19.1560 C   0  0  1  0  0  0  0  0  0  0  0  0
    9.5701  -15.4042   18.2588 C   0  0  0  0  0  0  0  0  0  0  0  0
    8.5874  -14.4379   18.8164 C   0  0  0  0  0  0  0  0  0  0  0  0
    7.3404  -14.1359   18.2582 C   0  0  0  0  0  0  0  0  0  0  0  0
    6.7242  -13.2229   19.0286 N   0  0  0  0  0  0  0  0  0  0  0  0
    7.5336  -12.9316   20.0587 C   0  0  0  0  0  0  0  0  0  0  0  0
    8.6658  -13.6758   19.9215 N   0  0  0  0  0  0  0  0  0  0  0  0
   10.1191  -16.3962   20.4723 C   0  0  0  0  0  0  0  0  0  0  0  0
   11.3233  -16.1048   20.5384 O   0  0  0  0  0  0  0  0  0  0  0  0
    9.3049  -16.5006   21.6338 N   0  0  0  0  0  0  0  0  0  0  0  0
    9.9073  -16.2703   22.9123 C   0  0  0  0  0  0  0  0  0  0  0  0
   10.0373  -17.5492   23.6604 C   0  0  0  0  0  0  0  0  0  0  0  0
    9.3610  -18.5549   23.2874 O   0  0  0  0  0  0  0  0  0  0  0  0
   10.8769  -17.7166   24.7743 N   0  0  0  0  0  0  0  0  0  0  0  0
   11.1883  -19.0296   25.3403 C   0  0  1  0  0  0  0  0  0  0  0  0
   12.0963  -19.6848   24.3215 C   0  0  0  0  0  0  0  0  0  0  0  0
   12.4695  -21.0391   24.7182 C   0  0  0  0  0  0  0  0  0  0  0  0
   12.1292  -21.5318   25.8170 O   0  0  0  0  0  0  0  0  0  0  0  0
   11.9188  -18.9126   26.6100 C   0  0  0  0  0  0  0  0  0  0  0  0
   11.7931  -19.7418   27.6985 O   0  0  0  0  0  0  0  0  0  0  0  0
   13.2261  -21.8198   23.8619 O   0  0  0  0  0  0  0  0  0  0  0  0
   12.7511  -17.9478   26.7158 O   0  0  0  0  0  0  0  0  0  0  0  0
  2  1  1  1
  2  3  1  0
  4  3  1  0
  4  5  2  0
  6  5  1  0
  7  6  1  0
  8  7  2  0
  8  4  1  0
  9  2  1  0
  9 10  2  0
 11  9  1  0
 12 11  1  0
 12 13  1  0
 13 15  1  0
 14 13  2  0
 15 16  1  0
 16 17  1  6
 17 18  1  0
 18 22  1  0
 19 18  2  0
 20 16  1  0
 20 21  1  0
 23 20  2  0
M  END
$$$$
