HGD.pdb
     RDKit          3D

 23 23  0  0  1  0  0  0  0  0999 V2000
    8.7529  -15.4013   20.9029 N   0  0  0  0  0  0  0  0  0  0  0  0
    7.9837  -14.3260   21.4977 C   0  0  1  0  0  0  0  0  0  0  0  0
    6.6582  -14.2778   20.7329 C   0  0  0  0  0  0  0  0  0  0  0  0
    7.0082  -14.0016   19.3148 C   0  0  0  0  0  0  0  0  0  0  0  0
    7.9425  -13.0554   18.8792 C   0  0  0  0  0  0  0  0  0  0  0  0
    7.9992  -13.0804   17.5365 N   0  0  0  0  0  0  0  0  0  0  0  0
    7.1344  -14.0090   17.0996 C   0  0  0  0  0  0  0  0  0  0  0  0
    6.5354  -14.5649   18.1889 N   0  0  0  0  0  0  0  0  0  0  0  0
    7.7732  -14.5202   22.9426 C   0  0  0  0  0  0  0  0  0  0  0  0
    7.1810  -13.6466   23.5950 O   0  0  0  0  0  0  0  0  0  0  0  0
    8.2593  -15.7120   23.5478 N   0  0  0  0  0  0  0  0  0  0  0  0
    8.1434  -15.8522   24.9683 C   0  0  0  0  0  0  0  0  0  0  0  0
    9.3212  -16.5781   25.5140 C   0  0  0  0  0  0  0  0  0  0  0  0
    9.4080  -16.7626   26.7656 O   0  0  0  0  0  0  0  0  0  0  0  0
   10.3625  -17.0814   24.7164 N   0  0  0  0  0  0  0  0  0  0  0  0
   11.5459  -17.7331   25.2787 C   0  0  1  0  0  0  0  0  0  0  0  0
   11.5809  -19.0996   24.6283 C   0  0  0  0  0  0  0  0  0  0  0  0
   10.8763  -20.0988   25.4258 C   0  0  0  0  0  0  0  0  0  0  0  0
   10.7449  -19.9934   26.6658 O   0  0  0  0  0  0  0  0  0  0  0  0
   12.7786  -17.0157   24.9250 C   0  0  0  0  0  0  0  0  0  0  0  0
   14.0516  -17.3420   25.3264 O   0  0  0  0  0  0  0  0  0  0  0  0
   10.3282  -21.2079   24.8056 O   0  0  0  0  0  0  0  0  0  0  0  0
   12.6590  -15.9889   24.1727 O   0  0  0  0  0  0  0  0  0  0  0  0
  2  1  1  6
  2  3  1  0
  4  3  1  0
  4  5  2  0
  6  5  1  0
  7  6  1  0
  8  7  2  0
  8  4  1  0
  9  2  1  0
  9 10  2  0
 11  9  1  0
 12 11  1  0
 12 13  1  0
 13 15  1  0
 14 13  2  0
 15 16  1  0
 16 17  1  6
 17 18  1  0
 18 22  1  0
 19 18  2  0
 20 16  1  0
 20 21  1  0
 23 20  2  0
M  END
$$$$
