HGD.pdb
     RDKit          3D

 23 23  0  0  1  0  0  0  0  0999 V2000
    9.4421  -15.9689   18.6155 N   0  0  0  0  0  0  0  0  0  0  0  0
    9.4870  -14.5677   18.9848 C   0  0  1  0  0  0  0  0  0  0  0  0
    8.0726  -14.0243   18.7648 C   0  0  0  0  0  0  0  0  0  0  0  0
    7.8337  -14.0736   17.2984 C   0  0  0  0  0  0  0  0  0  0  0  0
    8.0047  -13.0044   16.4121 C   0  0  0  0  0  0  0  0  0  0  0  0
    7.6974  -13.4116   15.1686 N   0  0  0  0  0  0  0  0  0  0  0  0
    7.3364  -14.7028   15.2296 C   0  0  0  0  0  0  0  0  0  0  0  0
    7.4222  -15.0977   16.5301 N   0  0  0  0  0  0  0  0  0  0  0  0
    9.9383  -14.3682   20.3729 C   0  0  0  0  0  0  0  0  0  0  0  0
   10.0783  -13.2149   20.8083 O   0  0  0  0  0  0  0  0  0  0  0  0
   10.2009  -15.5129   21.1751 N   0  0  0  0  0  0  0  0  0  0  0  0
   10.7687  -15.3191   22.4754 C   0  0  0  0  0  0  0  0  0  0  0  0
   11.8567  -16.3041   22.7165 C   0  0  0  0  0  0  0  0  0  0  0  0
   11.7732  -17.4571   22.1951 O   0  0  0  0  0  0  0  0  0  0  0  0
   12.9914  -16.0333   23.4993 N   0  0  0  0  0  0  0  0  0  0  0  0
   13.9987  -17.0481   23.8102 C   0  0  1  0  0  0  0  0  0  0  0  0
   15.2066  -16.2640   24.2771 C   0  0  0  0  0  0  0  0  0  0  0  0
   15.8871  -15.6032   23.1675 C   0  0  0  0  0  0  0  0  0  0  0  0
   15.4792  -15.6873   21.9875 O   0  0  0  0  0  0  0  0  0  0  0  0
   13.5620  -17.9277   24.9033 C   0  0  0  0  0  0  0  0  0  0  0  0
   14.1326  -19.1262   25.2586 O   0  0  0  0  0  0  0  0  0  0  0  0
   17.0246  -14.8534   23.4105 O   0  0  0  0  0  0  0  0  0  0  0  0
   12.5545  -17.5449   25.5912 O   0  0  0  0  0  0  0  0  0  0  0  0
  2  1  1  1
  2  3  1  0
  4  3  1  0
  4  5  2  0
  6  5  1  0
  7  6  1  0
  8  7  2  0
  8  4  1  0
  9  2  1  0
  9 10  2  0
 11  9  1  0
 12 11  1  0
 12 13  1  0
 13 15  1  0
 14 13  2  0
 15 16  1  0
 16 17  1  1
 17 18  1  0
 18 22  1  0
 19 18  2  0
 20 16  1  0
 20 21  1  0
 23 20  2  0
M  END
$$$$
