KRH.pdb
     RDKit          3D

 31 31  0  0  1  0  0  0  0  0999 V2000
   28.1872  -23.1073  -17.3106 N   0  0  0  0  0  0  0  0  0  0  0  0
   27.5044  -21.8641  -17.1043 C   0  0  1  0  0  0  0  0  0  0  0  0
   26.6492  -21.4686  -18.2858 C   0  0  0  0  0  0  0  0  0  0  0  0
   27.5449  -21.1259  -19.4446 C   0  0  0  0  0  0  0  0  0  0  0  0
   26.7289  -20.6549  -20.6349 C   0  0  0  0  0  0  0  0  0  0  0  0
   27.7115  -20.3622  -21.7584 C   0  0  0  0  0  0  0  0  0  0  0  0
   28.3312  -19.0939  -21.4806 N   0  0  0  0  0  0  0  0  0  0  0  0
   26.5731  -21.9384  -15.9308 C   0  0  0  0  0  0  0  0  0  0  0  0
   26.0189  -23.0262  -15.6372 O   0  0  0  0  0  0  0  0  0  0  0  0
   25.9851  -20.3552   -7.8705 N   0  0  0  0  0  0  0  0  0  0  0  0
   25.0237  -20.7440   -8.8499 C   0  0  0  0  0  0  0  0  0  0  0  0
   23.7891  -20.8360   -8.5463 N   0  0  0  0  0  0  0  0  0  0  0  0
   25.4553  -21.0266  -10.1636 N   0  0  0  0  0  0  0  0  0  0  0  0
   26.8449  -20.7588  -10.5095 C   0  0  0  0  0  0  0  0  0  0  0  0
   27.0408  -21.0335  -11.9901 C   0  0  0  0  0  0  0  0  0  0  0  0
   26.1152  -20.2385  -12.8355 C   0  0  0  0  0  0  0  0  0  0  0  0
   25.3994  -20.9463  -13.9319 C   0  0  2  0  0  0  0  0  0  0  0  0
   26.2808  -20.8185  -15.1184 N   0  0  0  0  0  0  0  0  0  0  0  0
   24.0997  -20.3803  -14.3221 C   0  0  0  0  0  0  0  0  0  0  0  0
   24.0427  -19.3381  -15.0810 O   0  0  0  0  0  0  0  0  0  0  0  0
   23.0911  -21.1232   -9.2715 N   0  0  0  0  0  0  0  0  0  0  0  0
   22.8380  -20.8886  -13.9327 C   0  0  2  0  0  0  0  0  0  0  0  0
   21.5973  -20.1888  -14.2904 C   0  0  0  0  0  0  0  0  0  0  0  0
   20.8991  -21.0240  -15.3417 C   0  0  0  0  0  0  0  0  0  0  0  0
   21.2424  -20.6141  -16.7189 C   0  0  0  0  0  0  0  0  0  0  0  0
   22.0374  -19.5518  -17.0588 N   0  0  0  0  0  0  0  0  0  0  0  0
   22.1215  -19.4823  -18.3976 C   0  0  0  0  0  0  0  0  0  0  0  0
   21.3842  -20.4931  -18.8688 N   0  0  0  0  0  0  0  0  0  0  0  0
   20.8396  -21.1955  -17.8669 C   0  0  0  0  0  0  0  0  0  0  0  0
   20.7655  -19.9522  -13.0944 O   0  0  0  0  0  0  0  0  0  0  0  0
   19.7065  -19.0487  -13.0875 O   0  0  0  0  0  0  0  0  0  0  0  0
  2  3  1  0
  2  1  1  6
  3  4  1  0
  4  5  1  0
  5  6  1  0
  7  6  1  0
  8  9  2  0
  8  2  1  0
 10 11  1  0
 11 12  2  0
 13 11  1  0
 13 14  1  0
 15 14  1  0
 15 16  1  0
 17 16  1  1
 17 19  1  0
 17 18  1  0
 18  8  1  0
 19 20  2  0
 21 22  1  0
 21 19  1  0
 22 23  1  6
 23 24  1  0
 24 25  2  0
 25 26  1  0
 27 26  1  0
 28 24  1  0
 28 27  2  0
 29 30  1  0
 29 22  1  0
 31 29  2  0
M  END
$$$$
