KRH.pdb
     RDKit          3D

 31 31  0  0  1  0  0  0  0  0999 V2000
   26.3784  -20.1071  -18.7139 N   0  0  0  0  0  0  0  0  0  0  0  0
   25.8570  -19.2543  -17.6868 C   0  0  1  0  0  0  0  0  0  0  0  0
   24.5102  -18.6704  -18.0455 C   0  0  0  0  0  0  0  0  0  0  0  0
   24.7060  -17.5758  -19.0584 C   0  0  0  0  0  0  0  0  0  0  0  0
   24.1604  -16.2578  -18.5390 C   0  0  0  0  0  0  0  0  0  0  0  0
   24.4207  -15.2150  -19.6152 C   0  0  0  0  0  0  0  0  0  0  0  0
   24.0288  -13.9343  -19.0898 N   0  0  0  0  0  0  0  0  0  0  0  0
   25.6504  -20.0041  -16.4043 C   0  0  0  0  0  0  0  0  0  0  0  0
   25.1609  -21.1602  -16.4249 O   0  0  0  0  0  0  0  0  0  0  0  0
   29.9384  -21.4323   -9.6076 N   0  0  0  0  0  0  0  0  0  0  0  0
   30.6279  -21.7082  -10.8254 C   0  0  0  0  0  0  0  0  0  0  0  0
   31.4835  -22.6512  -10.8871 N   0  0  0  0  0  0  0  0  0  0  0  0
   30.3518  -20.9236  -11.9656 N   0  0  0  0  0  0  0  0  0  0  0  0
   29.1724  -20.0686  -11.9497 C   0  0  0  0  0  0  0  0  0  0  0  0
   28.1086  -20.6882  -12.8389 C   0  0  0  0  0  0  0  0  0  0  0  0
   26.9295  -19.8017  -13.0041 C   0  0  0  0  0  0  0  0  0  0  0  0
   25.8371  -20.2639  -13.9032 C   0  0  2  0  0  0  0  0  0  0  0  0
   25.9872  -19.4620  -15.1424 N   0  0  0  0  0  0  0  0  0  0  0  0
   24.4670  -20.0285  -13.4245 C   0  0  0  0  0  0  0  0  0  0  0  0
   24.0044  -18.8272  -13.3334 O   0  0  0  0  0  0  0  0  0  0  0  0
   32.0319  -22.8044  -11.7654 N   0  0  0  0  0  0  0  0  0  0  0  0
   23.5540  -21.0367  -13.0348 C   0  0  2  0  0  0  0  0  0  0  0  0
   22.2859  -20.6958  -12.3770 C   0  0  0  0  0  0  0  0  0  0  0  0
   21.3114  -21.8144  -12.6758 C   0  0  0  0  0  0  0  0  0  0  0  0
   20.7470  -21.7326  -14.0386 C   0  0  0  0  0  0  0  0  0  0  0  0
   20.9188  -20.6903  -14.9105 N   0  0  0  0  0  0  0  0  0  0  0  0
   20.2583  -20.9616  -16.0482 C   0  0  0  0  0  0  0  0  0  0  0  0
   19.6893  -22.1583  -15.8709 N   0  0  0  0  0  0  0  0  0  0  0  0
   19.9722  -22.6471  -14.6565 C   0  0  0  0  0  0  0  0  0  0  0  0
   22.4877  -20.4763  -10.9315 O   0  0  0  0  0  0  0  0  0  0  0  0
   21.5364  -19.8506  -10.1306 O   0  0  0  0  0  0  0  0  0  0  0  0
  2  3  1  0
  2  1  1  6
  3  4  1  0
  4  5  1  0
  5  6  1  0
  7  6  1  0
  8  9  2  0
  8  2  1  0
 10 11  1  0
 11 12  2  0
 13 11  1  0
 13 14  1  0
 15 14  1  0
 15 16  1  0
 17 16  1  1
 17 19  1  0
 17 18  1  0
 18  8  1  0
 19 20  2  0
 21 22  1  0
 21 19  1  0
 22 23  1  6
 23 24  1  0
 24 25  2  0
 25 26  1  0
 27 26  1  0
 28 24  1  0
 28 27  2  0
 29 30  1  0
 29 22  1  0
 31 29  2  0
M  END
$$$$
