KRH.pdb
     RDKit          3D

 31 31  0  0  1  0  0  0  0  0999 V2000
   19.4865  -25.8828  -13.8380 N   0  0  0  0  0  0  0  0  0  0  0  0
   19.1022  -24.6494  -13.2174 C   0  0  1  0  0  0  0  0  0  0  0  0
   19.1489  -24.7197  -11.7085 C   0  0  0  0  0  0  0  0  0  0  0  0
   18.0983  -25.6845  -11.2313 C   0  0  0  0  0  0  0  0  0  0  0  0
   18.7233  -27.0121  -10.8423 C   0  0  0  0  0  0  0  0  0  0  0  0
   17.5921  -27.9148  -10.3744 C   0  0  0  0  0  0  0  0  0  0  0  0
   18.1566  -29.2010  -10.0635 N   0  0  0  0  0  0  0  0  0  0  0  0
   20.0233  -23.5307  -13.6044 C   0  0  0  0  0  0  0  0  0  0  0  0
   19.8901  -22.3978  -13.0796 O   0  0  0  0  0  0  0  0  0  0  0  0
   25.5615  -25.3915  -16.1100 N   0  0  0  0  0  0  0  0  0  0  0  0
   26.4930  -24.3119  -16.0741 C   0  0  0  0  0  0  0  0  0  0  0  0
   27.6376  -24.4604  -15.5330 N   0  0  0  0  0  0  0  0  0  0  0  0
   26.1329  -23.0729  -16.6462 N   0  0  0  0  0  0  0  0  0  0  0  0
   25.2635  -22.1850  -15.8861 C   0  0  0  0  0  0  0  0  0  0  0  0
   23.8838  -22.1923  -16.5206 C   0  0  0  0  0  0  0  0  0  0  0  0
   22.9586  -23.1331  -15.8407 C   0  0  0  0  0  0  0  0  0  0  0  0
   21.9511  -22.5593  -14.9074 C   0  0  2  0  0  0  0  0  0  0  0  0
   21.0596  -23.6910  -14.5532 N   0  0  0  0  0  0  0  0  0  0  0  0
   21.0834  -21.5104  -15.4629 C   0  0  0  0  0  0  0  0  0  0  0  0
   20.1858  -21.8035  -16.3426 O   0  0  0  0  0  0  0  0  0  0  0  0
   28.3293  -23.6749  -15.5459 N   0  0  0  0  0  0  0  0  0  0  0  0
   21.1318  -20.1406  -15.1123 C   0  0  2  0  0  0  0  0  0  0  0  0
   20.3125  -19.1488  -15.8211 C   0  0  0  0  0  0  0  0  0  0  0  0
   19.4091  -18.4989  -14.7956 C   0  0  0  0  0  0  0  0  0  0  0  0
   18.5626  -17.4341  -15.3720 C   0  0  0  0  0  0  0  0  0  0  0  0
   19.0140  -16.2435  -15.8767 N   0  0  0  0  0  0  0  0  0  0  0  0
   17.9626  -15.5269  -16.3070 C   0  0  0  0  0  0  0  0  0  0  0  0
   16.8805  -16.2742  -16.0664 N   0  0  0  0  0  0  0  0  0  0  0  0
   17.2201  -17.4385  -15.4982 C   0  0  0  0  0  0  0  0  0  0  0  0
   21.1652  -18.1797  -16.5367 O   0  0  0  0  0  0  0  0  0  0  0  0
   22.4378  -17.8327  -16.0918 O   0  0  0  0  0  0  0  0  0  0  0  0
  2  3  1  0
  2  1  1  6
  3  4  1  0
  4  5  1  0
  5  6  1  0
  7  6  1  0
  8  9  2  0
  8  2  1  0
 10 11  1  0
 11 12  2  0
 13 11  1  0
 13 14  1  0
 15 14  1  0
 15 16  1  0
 17 16  1  6
 17 19  1  0
 17 18  1  0
 18  8  1  0
 19 20  2  0
 21 22  1  0
 21 19  1  0
 22 23  1  1
 23 24  1  0
 24 25  2  0
 25 26  1  0
 27 26  1  0
 28 24  1  0
 28 27  2  0
 29 30  1  0
 29 22  1  0
 31 29  2  0
M  END
$$$$
