KRH.pdb
     RDKit          3D

 31 31  0  0  1  0  0  0  0  0999 V2000
   24.8883  -17.7867  -17.6519 N   0  0  0  0  0  0  0  0  0  0  0  0
   23.6223  -17.9916  -18.2917 C   0  0  1  0  0  0  0  0  0  0  0  0
   23.7535  -18.6786  -19.6313 C   0  0  0  0  0  0  0  0  0  0  0  0
   24.9588  -18.1312  -20.3454 C   0  0  0  0  0  0  0  0  0  0  0  0
   25.1888  -18.8653  -21.6541 C   0  0  0  0  0  0  0  0  0  0  0  0
   26.4152  -18.2421  -22.3028 C   0  0  0  0  0  0  0  0  0  0  0  0
   26.7365  -19.0182  -23.4708 N   0  0  0  0  0  0  0  0  0  0  0  0
   22.7271  -18.8684  -17.4672 C   0  0  0  0  0  0  0  0  0  0  0  0
   22.1636  -19.8603  -17.9919 O   0  0  0  0  0  0  0  0  0  0  0  0
   19.3025  -18.8655  -10.8181 N   0  0  0  0  0  0  0  0  0  0  0  0
   19.7350  -20.0923  -10.2330 C   0  0  0  0  0  0  0  0  0  0  0  0
   18.9490  -20.7711   -9.4938 N   0  0  0  0  0  0  0  0  0  0  0  0
   21.0472  -20.5486  -10.4820 N   0  0  0  0  0  0  0  0  0  0  0  0
   21.8590  -19.8281  -11.4536 C   0  0  0  0  0  0  0  0  0  0  0  0
   21.2594  -20.0278  -12.8344 C   0  0  0  0  0  0  0  0  0  0  0  0
   22.0786  -19.3954  -13.8986 C   0  0  0  0  0  0  0  0  0  0  0  0
   21.6164  -19.5411  -15.3059 C   0  0  2  0  0  0  0  0  0  0  0  0
   22.4798  -18.6291  -16.0956 N   0  0  0  0  0  0  0  0  0  0  0  0
   20.2303  -19.1301  -15.5737 C   0  0  0  0  0  0  0  0  0  0  0  0
   19.8904  -17.8878  -15.4925 O   0  0  0  0  0  0  0  0  0  0  0  0
   19.2387  -21.7165   -9.1503 N   0  0  0  0  0  0  0  0  0  0  0  0
   19.1753  -20.0018  -15.9326 C   0  0  2  0  0  0  0  0  0  0  0  0
   17.8011  -19.5053  -16.0812 C   0  0  0  0  0  0  0  0  0  0  0  0
   17.0085  -20.5848  -16.7858 C   0  0  0  0  0  0  0  0  0  0  0  0
   15.6502  -20.1433  -17.1632 C   0  0  0  0  0  0  0  0  0  0  0  0
   15.2771  -18.8521  -17.4273 N   0  0  0  0  0  0  0  0  0  0  0  0
   13.9686  -18.8306  -17.7299 C   0  0  0  0  0  0  0  0  0  0  0  0
   13.5485  -20.0973  -17.6507 N   0  0  0  0  0  0  0  0  0  0  0  0
   14.5531  -20.9139  -17.3077 C   0  0  0  0  0  0  0  0  0  0  0  0
   17.2332  -19.1341  -14.7704 O   0  0  0  0  0  0  0  0  0  0  0  0
   17.4236  -19.9062  -13.6279 O   0  0  0  0  0  0  0  0  0  0  0  0
  2  3  1  0
  2  1  1  1
  3  4  1  0
  4  5  1  0
  5  6  1  0
  7  6  1  0
  8  9  2  0
  8  2  1  0
 10 11  1  0
 11 12  2  0
 13 11  1  0
 13 14  1  0
 15 14  1  0
 15 16  1  0
 17 16  1  1
 17 19  1  0
 17 18  1  0
 18  8  1  0
 19 20  2  0
 21 22  1  0
 21 19  1  0
 22 23  1  6
 23 24  1  0
 24 25  2  0
 25 26  1  0
 27 26  1  0
 28 24  1  0
 28 27  2  0
 29 30  1  0
 29 22  1  0
 31 29  2  0
M  END
$$$$
