KRH.pdb
     RDKit          3D

 31 31  0  0  1  0  0  0  0  0999 V2000
   22.3515  -26.4971  -18.3580 N   0  0  0  0  0  0  0  0  0  0  0  0
   21.1967  -26.9539  -17.6424 C   0  0  1  0  0  0  0  0  0  0  0  0
   21.0180  -28.4522  -17.7251 C   0  0  0  0  0  0  0  0  0  0  0  0
   22.3707  -29.1088  -17.6867 C   0  0  0  0  0  0  0  0  0  0  0  0
   22.2351  -30.6206  -17.6669 C   0  0  0  0  0  0  0  0  0  0  0  0
   23.6414  -31.1908  -17.5643 C   0  0  0  0  0  0  0  0  0  0  0  0
   23.5284  -32.6207  -17.4520 N   0  0  0  0  0  0  0  0  0  0  0  0
   21.2952  -26.6328  -16.1806 C   0  0  0  0  0  0  0  0  0  0  0  0
   22.3950  -26.2797  -15.6882 O   0  0  0  0  0  0  0  0  0  0  0  0
   15.7923  -21.4306  -12.9998 N   0  0  0  0  0  0  0  0  0  0  0  0
   16.7605  -21.0989  -13.9933 C   0  0  0  0  0  0  0  0  0  0  0  0
   16.6217  -20.0548  -14.7114 N   0  0  0  0  0  0  0  0  0  0  0  0
   17.8782  -21.9417  -14.1735 N   0  0  0  0  0  0  0  0  0  0  0  0
   17.7713  -23.3335  -13.7567 C   0  0  0  0  0  0  0  0  0  0  0  0
   19.0654  -24.0479  -14.1047 C   0  0  0  0  0  0  0  0  0  0  0  0
   19.0684  -25.4591  -13.6446 C   0  0  0  0  0  0  0  0  0  0  0  0
   20.2936  -26.2660  -13.8959 C   0  0  2  0  0  0  0  0  0  0  0  0
   20.1853  -26.7091  -15.3076 N   0  0  0  0  0  0  0  0  0  0  0  0
   20.4353  -27.4883  -13.0909 C   0  0  0  0  0  0  0  0  0  0  0  0
   19.5849  -28.4515  -13.2110 O   0  0  0  0  0  0  0  0  0  0  0  0
   17.3578  -19.7973  -15.4095 N   0  0  0  0  0  0  0  0  0  0  0  0
   21.4636  -27.7313  -12.1499 C   0  0  2  0  0  0  0  0  0  0  0  0
   21.4307  -28.9160  -11.2825 C   0  0  0  0  0  0  0  0  0  0  0  0
   22.7451  -28.9596  -10.5339 C   0  0  0  0  0  0  0  0  0  0  0  0
   22.8341  -30.1008   -9.6000 C   0  0  0  0  0  0  0  0  0  0  0  0
   21.8897  -31.0813   -9.4484 N   0  0  0  0  0  0  0  0  0  0  0  0
   22.3077  -31.9464   -8.5097 C   0  0  0  0  0  0  0  0  0  0  0  0
   23.4959  -31.4968   -8.0933 N   0  0  0  0  0  0  0  0  0  0  0  0
   23.8372  -30.3758   -8.7417 C   0  0  0  0  0  0  0  0  0  0  0  0
   20.2574  -28.8782  -10.3879 O   0  0  0  0  0  0  0  0  0  0  0  0
   19.8121  -27.7033   -9.7886 O   0  0  0  0  0  0  0  0  0  0  0  0
  2  3  1  0
  2  1  1  6
  3  4  1  0
  4  5  1  0
  5  6  1  0
  7  6  1  0
  8  9  2  0
  8  2  1  0
 10 11  1  0
 11 12  2  0
 13 11  1  0
 13 14  1  0
 15 14  1  0
 15 16  1  0
 17 16  1  1
 17 19  1  0
 17 18  1  0
 18  8  1  0
 19 20  2  0
 21 22  1  0
 21 19  1  0
 22 23  1  6
 23 24  1  0
 24 25  2  0
 25 26  1  0
 27 26  1  0
 28 24  1  0
 28 27  2  0
 29 30  1  0
 29 22  1  0
 31 29  2  0
M  END
$$$$
