KRH.pdb
     RDKit          3D

 31 31  0  0  1  0  0  0  0  0999 V2000
   23.3202  -17.9881  -15.5728 N   0  0  0  0  0  0  0  0  0  0  0  0
   24.3473  -17.4517  -16.4163 C   0  0  1  0  0  0  0  0  0  0  0  0
   24.5760  -15.9759  -16.1855 C   0  0  0  0  0  0  0  0  0  0  0  0
   23.2764  -15.3377  -15.7778 C   0  0  0  0  0  0  0  0  0  0  0  0
   23.4763  -13.8680  -15.4549 C   0  0  0  0  0  0  0  0  0  0  0  0
   22.1192  -13.3146  -15.0483 C   0  0  0  0  0  0  0  0  0  0  0  0
   21.3233  -13.1840  -16.2396 N   0  0  0  0  0  0  0  0  0  0  0  0
   25.6680  -18.1159  -16.1618 C   0  0  0  0  0  0  0  0  0  0  0  0
   26.6850  -17.7580  -16.8054 O   0  0  0  0  0  0  0  0  0  0  0  0
   26.5290  -21.1828   -8.7382 N   0  0  0  0  0  0  0  0  0  0  0  0
   25.3174  -20.6294   -9.2485 C   0  0  0  0  0  0  0  0  0  0  0  0
   24.2413  -20.6854   -8.5674 N   0  0  0  0  0  0  0  0  0  0  0  0
   25.3225  -20.0167  -10.5199 N   0  0  0  0  0  0  0  0  0  0  0  0
   26.4812  -20.2148  -11.3803 C   0  0  0  0  0  0  0  0  0  0  0  0
   26.3343  -19.3325  -12.6076 C   0  0  0  0  0  0  0  0  0  0  0  0
   27.4724  -19.4856  -13.5481 C   0  0  0  0  0  0  0  0  0  0  0  0
   27.1574  -19.7684  -14.9750 C   0  0  2  0  0  0  0  0  0  0  0  0
   25.8297  -19.1498  -15.2106 N   0  0  0  0  0  0  0  0  0  0  0  0
   27.0197  -21.1874  -15.3345 C   0  0  0  0  0  0  0  0  0  0  0  0
   25.8718  -21.7720  -15.2579 O   0  0  0  0  0  0  0  0  0  0  0  0
   23.3450  -20.3283   -8.9734 N   0  0  0  0  0  0  0  0  0  0  0  0
   28.0711  -22.0219  -15.7817 C   0  0  1  0  0  0  0  0  0  0  0  0
   27.8032  -23.3820  -16.2670 C   0  0  0  0  0  0  0  0  0  0  0  0
   26.7622  -23.2708  -17.3597 C   0  0  0  0  0  0  0  0  0  0  0  0
   26.4661  -24.5678  -18.0020 C   0  0  0  0  0  0  0  0  0  0  0  0
   26.0629  -25.7044  -17.3526 N   0  0  0  0  0  0  0  0  0  0  0  0
   25.8941  -26.6845  -18.2554 C   0  0  0  0  0  0  0  0  0  0  0  0
   26.1919  -26.1497  -19.4440 N   0  0  0  0  0  0  0  0  0  0  0  0
   26.5425  -24.8636  -19.3154 C   0  0  0  0  0  0  0  0  0  0  0  0
   29.0487  -24.0318  -16.7196 O   0  0  0  0  0  0  0  0  0  0  0  0
   29.1747  -25.4142  -16.8250 O   0  0  0  0  0  0  0  0  0  0  0  0
  2  3  1  0
  2  1  1  1
  3  4  1  0
  4  5  1  0
  5  6  1  0
  7  6  1  0
  8  9  2  0
  8  2  1  0
 10 11  1  0
 11 12  2  0
 13 11  1  0
 13 14  1  0
 15 14  1  0
 15 16  1  0
 17 16  1  1
 17 19  1  0
 17 18  1  0
 18  8  1  0
 19 20  2  0
 21 22  1  0
 21 19  1  0
 22 23  1  1
 23 24  1  0
 24 25  2  0
 25 26  1  0
 27 26  1  0
 28 24  1  0
 28 27  2  0
 29 30  1  0
 29 22  1  0
 31 29  2  0
M  END
$$$$
