KRH.pdb
     RDKit          3D

 31 31  0  0  1  0  0  0  0  0999 V2000
   24.6463  -21.5473  -19.2211 N   0  0  0  0  0  0  0  0  0  0  0  0
   23.5659  -22.4166  -18.8588 C   0  0  1  0  0  0  0  0  0  0  0  0
   23.9973  -23.8599  -18.7395 C   0  0  0  0  0  0  0  0  0  0  0  0
   24.5699  -24.3094  -20.0558 C   0  0  0  0  0  0  0  0  0  0  0  0
   25.3326  -23.1801  -20.7248 C   0  0  0  0  0  0  0  0  0  0  0  0
   25.8109  -23.7040  -22.0703 C   0  0  0  0  0  0  0  0  0  0  0  0
   26.5025  -22.6335  -22.7377 N   0  0  0  0  0  0  0  0  0  0  0  0
   22.9908  -22.0488  -17.5232 C   0  0  0  0  0  0  0  0  0  0  0  0
   22.1660  -22.8122  -16.9632 O   0  0  0  0  0  0  0  0  0  0  0  0
   26.7782  -21.4223  -12.0107 N   0  0  0  0  0  0  0  0  0  0  0  0
   25.6191  -21.3185  -11.1860 C   0  0  0  0  0  0  0  0  0  0  0  0
   25.7273  -21.0395   -9.9469 N   0  0  0  0  0  0  0  0  0  0  0  0
   24.3462  -21.5285  -11.7585 N   0  0  0  0  0  0  0  0  0  0  0  0
   24.1894  -21.3278  -13.1928 C   0  0  0  0  0  0  0  0  0  0  0  0
   23.9368  -19.8534  -13.4545 C   0  0  0  0  0  0  0  0  0  0  0  0
   23.6383  -19.5802  -14.8827 C   0  0  0  0  0  0  0  0  0  0  0  0
   22.6761  -20.4819  -15.5730 C   0  0  2  0  0  0  0  0  0  0  0  0
   23.3389  -20.8571  -16.8461 N   0  0  0  0  0  0  0  0  0  0  0  0
   21.3849  -19.8833  -15.9423 C   0  0  0  0  0  0  0  0  0  0  0  0
   21.2984  -19.0931  -16.9589 O   0  0  0  0  0  0  0  0  0  0  0  0
   24.8707  -20.9616   -9.3505 N   0  0  0  0  0  0  0  0  0  0  0  0
   20.1621  -20.0973  -15.2635 C   0  0  2  0  0  0  0  0  0  0  0  0
   18.9417  -19.3826  -15.6598 C   0  0  0  0  0  0  0  0  0  0  0  0
   18.4820  -19.9758  -16.9739 C   0  0  0  0  0  0  0  0  0  0  0  0
   17.2132  -19.3902  -17.4533 C   0  0  0  0  0  0  0  0  0  0  0  0
   17.0776  -18.1668  -18.0541 N   0  0  0  0  0  0  0  0  0  0  0  0
   15.7822  -17.9681  -18.3486 C   0  0  0  0  0  0  0  0  0  0  0  0
   15.1347  -19.0606  -17.9309 N   0  0  0  0  0  0  0  0  0  0  0  0
   15.9837  -19.9396  -17.3830 C   0  0  0  0  0  0  0  0  0  0  0  0
   17.9184  -19.4648  -14.5994 O   0  0  0  0  0  0  0  0  0  0  0  0
   18.1563  -20.0890  -13.3781 O   0  0  0  0  0  0  0  0  0  0  0  0
  2  3  1  0
  2  1  1  1
  3  4  1  0
  4  5  1  0
  5  6  1  0
  7  6  1  0
  8  9  2  0
  8  2  1  0
 10 11  1  0
 11 12  2  0
 13 11  1  0
 13 14  1  0
 15 14  1  0
 15 16  1  0
 17 16  1  6
 17 19  1  0
 17 18  1  0
 18  8  1  0
 19 20  2  0
 21 22  1  0
 21 19  1  0
 22 23  1  6
 23 24  1  0
 24 25  2  0
 25 26  1  0
 27 26  1  0
 28 24  1  0
 28 27  2  0
 29 30  1  0
 29 22  1  0
 31 29  2  0
M  END
$$$$
