KRH.pdb
     RDKit          3D

 31 31  0  0  1  0  0  0  0  0999 V2000
   18.5928  -15.9638  -15.6044 N   0  0  0  0  0  0  0  0  0  0  0  0
   18.6822  -14.7076  -16.2887 C   0  0  1  0  0  0  0  0  0  0  0  0
   17.3494  -14.0015  -16.3818 C   0  0  0  0  0  0  0  0  0  0  0  0
   16.3445  -14.9335  -17.0015 C   0  0  0  0  0  0  0  0  0  0  0  0
   15.8904  -14.4139  -18.3535 C   0  0  0  0  0  0  0  0  0  0  0  0
   14.8694  -15.4057  -18.8898 C   0  0  0  0  0  0  0  0  0  0  0  0
   14.5359  -15.0100  -20.2322 N   0  0  0  0  0  0  0  0  0  0  0  0
   19.5997  -13.7591  -15.5757 C   0  0  0  0  0  0  0  0  0  0  0  0
   19.4176  -13.5042  -14.3598 O   0  0  0  0  0  0  0  0  0  0  0  0
   27.4118  -15.0141  -16.5912 N   0  0  0  0  0  0  0  0  0  0  0  0
   26.6655  -15.7348  -15.6123 C   0  0  0  0  0  0  0  0  0  0  0  0
   27.1400  -16.7940  -15.0851 N   0  0  0  0  0  0  0  0  0  0  0  0
   25.3915  -15.2611  -15.2320 N   0  0  0  0  0  0  0  0  0  0  0  0
   24.8995  -14.0317  -15.8391 C   0  0  0  0  0  0  0  0  0  0  0  0
   23.4966  -13.7609  -15.3245 C   0  0  0  0  0  0  0  0  0  0  0  0
   22.9353  -12.4971  -15.8642 C   0  0  0  0  0  0  0  0  0  0  0  0
   21.5369  -12.1473  -15.4933 C   0  0  2  0  0  0  0  0  0  0  0  0
   20.6861  -13.1222  -16.2190 N   0  0  0  0  0  0  0  0  0  0  0  0
   21.0767  -10.8130  -15.9052 C   0  0  0  0  0  0  0  0  0  0  0  0
   20.5168  -10.6416  -17.0552 O   0  0  0  0  0  0  0  0  0  0  0  0
   26.6222  -17.2711  -14.3106 N   0  0  0  0  0  0  0  0  0  0  0  0
   21.1881   -9.6354  -15.1289 C   0  0  1  0  0  0  0  0  0  0  0  0
   20.7491   -8.3370  -15.6566 C   0  0  0  0  0  0  0  0  0  0  0  0
   19.2851   -8.4711  -16.0153 C   0  0  0  0  0  0  0  0  0  0  0  0
   18.6786   -7.1903  -16.4326 C   0  0  0  0  0  0  0  0  0  0  0  0
   18.7888   -6.6243  -17.6751 N   0  0  0  0  0  0  0  0  0  0  0  0
   18.1139   -5.4631  -17.6855 C   0  0  0  0  0  0  0  0  0  0  0  0
   17.5973   -5.3229  -16.4604 N   0  0  0  0  0  0  0  0  0  0  0  0
   17.9270   -6.3607  -15.6807 C   0  0  0  0  0  0  0  0  0  0  0  0
   21.0086   -7.2600  -14.6814 O   0  0  0  0  0  0  0  0  0  0  0  0
   20.9889   -5.9131  -15.0326 O   0  0  0  0  0  0  0  0  0  0  0  0
  2  3  1  0
  2  1  1  1
  3  4  1  0
  4  5  1  0
  5  6  1  0
  7  6  1  0
  8  9  2  0
  8  2  1  0
 10 11  1  0
 11 12  2  0
 13 11  1  0
 13 14  1  0
 15 14  1  0
 15 16  1  0
 17 16  1  6
 17 19  1  0
 17 18  1  0
 18  8  1  0
 19 20  2  0
 21 22  1  0
 21 19  1  0
 22 23  1  6
 23 24  1  0
 24 25  2  0
 25 26  1  0
 27 26  1  0
 28 24  1  0
 28 27  2  0
 29 30  1  0
 29 22  1  0
 31 29  2  0
M  END
$$$$
