KRH.pdb
     RDKit          3D

 31 31  0  0  1  0  0  0  0  0999 V2000
   28.8254  -20.6418  -17.9676 N   0  0  0  0  0  0  0  0  0  0  0  0
   28.1324  -19.7196  -17.1170 C   0  0  1  0  0  0  0  0  0  0  0  0
   27.0227  -18.9882  -17.8362 C   0  0  0  0  0  0  0  0  0  0  0  0
   27.0000  -19.4271  -19.2747 C   0  0  0  0  0  0  0  0  0  0  0  0
   26.0442  -18.5696  -20.0843 C   0  0  0  0  0  0  0  0  0  0  0  0
   25.9938  -19.1621  -21.4842 C   0  0  0  0  0  0  0  0  0  0  0  0
   25.1751  -18.3016  -22.2961 N   0  0  0  0  0  0  0  0  0  0  0  0
   27.4800  -20.4222  -15.9635 C   0  0  0  0  0  0  0  0  0  0  0  0
   26.8302  -21.4788  -16.1582 O   0  0  0  0  0  0  0  0  0  0  0  0
   30.1898  -22.8950   -9.2989 N   0  0  0  0  0  0  0  0  0  0  0  0
   31.2236  -22.5461  -10.2177 C   0  0  0  0  0  0  0  0  0  0  0  0
   32.1780  -23.3561  -10.4586 N   0  0  0  0  0  0  0  0  0  0  0  0
   31.1785  -21.2901  -10.8598 N   0  0  0  0  0  0  0  0  0  0  0  0
   29.9027  -20.5898  -10.9242 C   0  0  0  0  0  0  0  0  0  0  0  0
   29.1139  -21.1205  -12.1084 C   0  0  0  0  0  0  0  0  0  0  0  0
   27.8572  -20.3625  -12.3305 C   0  0  0  0  0  0  0  0  0  0  0  0
   27.0217  -20.7368  -13.5041 C   0  0  2  0  0  0  0  0  0  0  0  0
   27.5617  -19.9434  -14.6354 N   0  0  0  0  0  0  0  0  0  0  0  0
   25.5935  -20.4005  -13.4105 C   0  0  0  0  0  0  0  0  0  0  0  0
   25.2170  -19.1695  -13.3200 O   0  0  0  0  0  0  0  0  0  0  0  0
   32.9292  -23.0934  -11.1385 N   0  0  0  0  0  0  0  0  0  0  0  0
   24.5327  -21.3368  -13.4118 C   0  0  2  0  0  0  0  0  0  0  0  0
   23.1367  -20.8985  -13.2838 C   0  0  0  0  0  0  0  0  0  0  0  0
   22.2621  -22.0658  -13.6871 C   0  0  0  0  0  0  0  0  0  0  0  0
   20.8232  -21.7997  -13.4835 C   0  0  0  0  0  0  0  0  0  0  0  0
   20.2895  -20.6353  -12.9983 N   0  0  0  0  0  0  0  0  0  0  0  0
   18.9530  -20.7582  -12.9458 C   0  0  0  0  0  0  0  0  0  0  0  0
   18.6752  -21.9864  -13.3949 N   0  0  0  0  0  0  0  0  0  0  0  0
   19.7963  -22.6388  -13.7280 C   0  0  0  0  0  0  0  0  0  0  0  0
   22.8620  -20.4161  -11.9163 O   0  0  0  0  0  0  0  0  0  0  0  0
   21.8665  -19.4836  -11.6387 O   0  0  0  0  0  0  0  0  0  0  0  0
  2  3  1  0
  2  1  1  6
  3  4  1  0
  4  5  1  0
  5  6  1  0
  7  6  1  0
  8  9  2  0
  8  2  1  0
 10 11  1  0
 11 12  2  0
 13 11  1  0
 13 14  1  0
 15 14  1  0
 15 16  1  0
 17 16  1  1
 17 19  1  0
 17 18  1  0
 18  8  1  0
 19 20  2  0
 21 22  1  0
 21 19  1  0
 22 23  1  6
 23 24  1  0
 24 25  2  0
 25 26  1  0
 27 26  1  0
 28 24  1  0
 28 27  2  0
 29 30  1  0
 29 22  1  0
 31 29  2  0
M  END
$$$$
