KRH.pdb
     RDKit          3D

 31 31  0  0  1  0  0  0  0  0999 V2000
   51.6133  -76.0412  -43.9779 N   0  0  0  0  0  0  0  0  0  0  0  0
   51.3392  -77.0763  -44.9306 C   0  0  1  0  0  0  0  0  0  0  0  0
   51.0468  -78.4060  -44.2750 C   0  0  0  0  0  0  0  0  0  0  0  0
   51.0797  -79.4852  -45.3222 C   0  0  0  0  0  0  0  0  0  0  0  0
   52.3472  -80.3121  -45.2035 C   0  0  0  0  0  0  0  0  0  0  0  0
   51.9293  -81.7738  -45.2506 C   0  0  0  0  0  0  0  0  0  0  0  0
   52.8335  -82.4609  -46.1338 N   0  0  0  0  0  0  0  0  0  0  0  0
   50.1310  -76.7530  -45.7587 C   0  0  0  0  0  0  0  0  0  0  0  0
   48.9913  -77.1124  -45.3733 O   0  0  0  0  0  0  0  0  0  0  0  0
   43.4586  -76.8615  -48.7708 N   0  0  0  0  0  0  0  0  0  0  0  0
   44.5331  -76.0840  -48.2459 C   0  0  0  0  0  0  0  0  0  0  0  0
   44.5560  -74.8193  -48.4036 N   0  0  0  0  0  0  0  0  0  0  0  0
   45.5744  -76.7320  -47.5476 N   0  0  0  0  0  0  0  0  0  0  0  0
   46.5624  -75.9122  -46.8591 C   0  0  0  0  0  0  0  0  0  0  0  0
   47.7785  -75.7581  -47.7555 C   0  0  0  0  0  0  0  0  0  0  0  0
   48.5103  -74.4930  -47.4956 C   0  0  0  0  0  0  0  0  0  0  0  0
   49.9245  -74.5926  -47.0423 C   0  0  2  0  0  0  0  0  0  0  0  0
   50.2123  -76.0467  -46.9811 N   0  0  0  0  0  0  0  0  0  0  0  0
   50.2094  -74.0602  -45.7017 C   0  0  0  0  0  0  0  0  0  0  0  0
   51.4251  -73.9765  -45.2770 O   0  0  0  0  0  0  0  0  0  0  0  0
   43.6835  -74.3093  -48.6760 N   0  0  0  0  0  0  0  0  0  0  0  0
   49.2367  -73.6037  -44.7811 C   0  0  2  0  0  0  0  0  0  0  0  0
   49.6177  -73.1715  -43.4301 C   0  0  0  0  0  0  0  0  0  0  0  0
   49.5654  -71.6592  -43.4122 C   0  0  0  0  0  0  0  0  0  0  0  0
   50.3669  -71.0462  -44.4912 C   0  0  0  0  0  0  0  0  0  0  0  0
   50.3251  -71.3999  -45.8137 N   0  0  0  0  0  0  0  0  0  0  0  0
   51.1909  -70.6331  -46.4967 C   0  0  0  0  0  0  0  0  0  0  0  0
   51.7551  -69.8196  -45.5982 N   0  0  0  0  0  0  0  0  0  0  0  0
   51.2700  -70.0519  -44.3717 C   0  0  0  0  0  0  0  0  0  0  0  0
   48.7437  -73.7919  -42.4154 O   0  0  0  0  0  0  0  0  0  0  0  0
   48.3944  -75.1389  -42.4528 O   0  0  0  0  0  0  0  0  0  0  0  0
  2  3  1  0
  2  1  1  1
  3  4  1  0
  4  5  1  0
  5  6  1  0
  7  6  1  0
  8  9  2  0
  8  2  1  0
 10 11  1  0
 11 12  2  0
 13 11  1  0
 13 14  1  0
 15 14  1  0
 15 16  1  0
 17 16  1  1
 17 19  1  0
 17 18  1  0
 18  8  1  0
 19 20  2  0
 21 22  1  0
 21 19  1  0
 22 23  1  6
 23 24  1  0
 24 25  2  0
 25 26  1  0
 27 26  1  0
 28 24  1  0
 28 27  2  0
 29 30  1  0
 29 22  1  0
 31 29  2  0
M  END
$$$$
