KRH.pdb
     RDKit          3D

 31 31  0  0  1  0  0  0  0  0999 V2000
   26.9621  -17.3952  -17.7505 N   0  0  0  0  0  0  0  0  0  0  0  0
   25.7309  -16.9418  -17.1738 C   0  0  1  0  0  0  0  0  0  0  0  0
   24.9597  -16.0271  -18.0970 C   0  0  0  0  0  0  0  0  0  0  0  0
   25.8597  -15.5972  -19.2230 C   0  0  0  0  0  0  0  0  0  0  0  0
   25.1401  -14.6337  -20.1494 C   0  0  0  0  0  0  0  0  0  0  0  0
   26.0843  -14.3414  -21.3055 C   0  0  0  0  0  0  0  0  0  0  0  0
   25.4503  -13.3688  -22.1552 N   0  0  0  0  0  0  0  0  0  0  0  0
   24.8122  -18.0884  -16.8715 C   0  0  0  0  0  0  0  0  0  0  0  0
   24.4713  -18.8777  -17.7865 O   0  0  0  0  0  0  0  0  0  0  0  0
   23.0712  -24.3999  -13.7603 N   0  0  0  0  0  0  0  0  0  0  0  0
   24.4553  -24.1193  -13.9605 C   0  0  0  0  0  0  0  0  0  0  0  0
   25.1550  -24.8360  -14.7490 N   0  0  0  0  0  0  0  0  0  0  0  0
   25.0441  -23.0357  -13.2742 N   0  0  0  0  0  0  0  0  0  0  0  0
   24.1730  -22.1110  -12.5612 C   0  0  0  0  0  0  0  0  0  0  0  0
   23.3334  -21.3523  -13.5740 C   0  0  0  0  0  0  0  0  0  0  0  0
   24.0948  -20.2580  -14.2267 C   0  0  0  0  0  0  0  0  0  0  0  0
   23.4183  -19.4962  -15.3117 C   0  0  2  0  0  0  0  0  0  0  0  0
   24.2983  -18.3315  -15.5767 N   0  0  0  0  0  0  0  0  0  0  0  0
   22.0952  -18.9457  -14.9828 C   0  0  0  0  0  0  0  0  0  0  0  0
   21.9880  -17.9328  -14.1904 O   0  0  0  0  0  0  0  0  0  0  0  0
   26.1623  -24.6037  -14.9133 N   0  0  0  0  0  0  0  0  0  0  0  0
   20.8621  -19.4363  -15.4732 C   0  0  2  0  0  0  0  0  0  0  0  0
   19.5975  -18.7631  -15.1497 C   0  0  0  0  0  0  0  0  0  0  0  0
   18.6946  -18.9020  -16.3561 C   0  0  0  0  0  0  0  0  0  0  0  0
   18.7747  -17.7419  -17.2672 C   0  0  0  0  0  0  0  0  0  0  0  0
   19.5227  -16.6140  -17.0566 N   0  0  0  0  0  0  0  0  0  0  0  0
   19.3449  -15.7748  -18.0902 C   0  0  0  0  0  0  0  0  0  0  0  0
   18.4960  -16.3860  -18.9228 N   0  0  0  0  0  0  0  0  0  0  0  0
   18.1353  -17.5836  -18.4439 C   0  0  0  0  0  0  0  0  0  0  0  0
   19.0063  -19.3221  -13.9182 O   0  0  0  0  0  0  0  0  0  0  0  0
   18.0948  -18.6149  -13.1392 O   0  0  0  0  0  0  0  0  0  0  0  0
  2  3  1  0
  2  1  1  6
  3  4  1  0
  4  5  1  0
  5  6  1  0
  7  6  1  0
  8  9  2  0
  8  2  1  0
 10 11  1  0
 11 12  2  0
 13 11  1  0
 13 14  1  0
 15 14  1  0
 15 16  1  0
 17 16  1  1
 17 19  1  0
 17 18  1  0
 18  8  1  0
 19 20  2  0
 21 22  1  0
 21 19  1  0
 22 23  1  6
 23 24  1  0
 24 25  2  0
 25 26  1  0
 27 26  1  0
 28 24  1  0
 28 27  2  0
 29 30  1  0
 29 22  1  0
 31 29  2  0
M  END
$$$$
