KRH.pdb
     RDKit          3D

 31 31  0  0  1  0  0  0  0  0999 V2000
   20.9186  -15.2685  -20.6133 N   0  0  0  0  0  0  0  0  0  0  0  0
   21.1836  -15.0304  -19.2251 C   0  0  1  0  0  0  0  0  0  0  0  0
   22.6529  -15.1363  -18.8882 C   0  0  0  0  0  0  0  0  0  0  0  0
   23.2325  -16.3289  -19.5982 C   0  0  0  0  0  0  0  0  0  0  0  0
   24.7155  -16.4630  -19.3030 C   0  0  0  0  0  0  0  0  0  0  0  0
   25.2394  -17.5980  -20.1694 C   0  0  0  0  0  0  0  0  0  0  0  0
   26.6655  -17.6640  -19.9916 N   0  0  0  0  0  0  0  0  0  0  0  0
   20.7680  -13.6481  -18.8170 C   0  0  0  0  0  0  0  0  0  0  0  0
   20.9082  -12.6891  -19.6154 O   0  0  0  0  0  0  0  0  0  0  0  0
   14.7568  -12.4428  -14.6907 N   0  0  0  0  0  0  0  0  0  0  0  0
   14.3619  -13.1314  -15.8757 C   0  0  0  0  0  0  0  0  0  0  0  0
   13.1293  -13.2429  -16.1810 N   0  0  0  0  0  0  0  0  0  0  0  0
   15.3539  -13.6898  -16.7101 N   0  0  0  0  0  0  0  0  0  0  0  0
   16.7362  -13.6728  -16.2507 C   0  0  0  0  0  0  0  0  0  0  0  0
   17.3026  -12.2793  -16.4594 C   0  0  0  0  0  0  0  0  0  0  0  0
   18.7433  -12.2013  -16.1106 C   0  0  0  0  0  0  0  0  0  0  0  0
   19.7143  -12.0046  -17.2214 C   0  0  2  0  0  0  0  0  0  0  0  0
   20.2127  -13.3632  -17.5481 N   0  0  0  0  0  0  0  0  0  0  0  0
   20.9009  -11.1967  -16.9030 C   0  0  0  0  0  0  0  0  0  0  0  0
   22.0757  -11.7305  -16.9113 O   0  0  0  0  0  0  0  0  0  0  0  0
   12.8500  -13.7345  -17.0619 N   0  0  0  0  0  0  0  0  0  0  0  0
   20.8871   -9.8208  -16.5734 C   0  0  2  0  0  0  0  0  0  0  0  0
   22.1381   -9.0808  -16.3630 C   0  0  0  0  0  0  0  0  0  0  0  0
   22.9404   -9.1843  -17.6420 C   0  0  0  0  0  0  0  0  0  0  0  0
   24.1560   -8.3449  -17.6243 C   0  0  0  0  0  0  0  0  0  0  0  0
   24.7436   -7.8177  -16.5050 N   0  0  0  0  0  0  0  0  0  0  0  0
   25.8228   -7.1081  -16.8735 C   0  0  0  0  0  0  0  0  0  0  0  0
   25.8920   -7.2023  -18.2053 N   0  0  0  0  0  0  0  0  0  0  0  0
   24.8891   -7.9494  -18.6847 C   0  0  0  0  0  0  0  0  0  0  0  0
   21.8618   -7.6864  -15.9656 O   0  0  0  0  0  0  0  0  0  0  0  0
   20.6293   -7.0773  -16.1842 O   0  0  0  0  0  0  0  0  0  0  0  0
  2  3  1  0
  2  1  1  6
  3  4  1  0
  4  5  1  0
  5  6  1  0
  7  6  1  0
  8  9  2  0
  8  2  1  0
 10 11  1  0
 11 12  2  0
 13 11  1  0
 13 14  1  0
 15 14  1  0
 15 16  1  0
 17 16  1  1
 17 19  1  0
 17 18  1  0
 18  8  1  0
 19 20  2  0
 21 22  1  0
 21 19  1  0
 22 23  1  1
 23 24  1  0
 24 25  2  0
 25 26  1  0
 27 26  1  0
 28 24  1  0
 28 27  2  0
 29 30  1  0
 29 22  1  0
 31 29  2  0
M  END
$$$$
