KRH.pdb
     RDKit          3D

 31 31  0  0  1  0  0  0  0  0999 V2000
   21.6840  -21.4654  -22.4587 N   0  0  0  0  0  0  0  0  0  0  0  0
   20.7899  -20.3923  -22.1376 C   0  0  1  0  0  0  0  0  0  0  0  0
   19.4775  -20.4884  -22.8807 C   0  0  0  0  0  0  0  0  0  0  0  0
   19.4272  -21.7992  -23.6166 C   0  0  0  0  0  0  0  0  0  0  0  0
   18.2328  -22.6224  -23.1690 C   0  0  0  0  0  0  0  0  0  0  0  0
   18.1856  -23.8554  -24.0583 C   0  0  0  0  0  0  0  0  0  0  0  0
   17.1632  -24.7280  -23.5454 N   0  0  0  0  0  0  0  0  0  0  0  0
   20.4364  -20.3910  -20.6798 C   0  0  0  0  0  0  0  0  0  0  0  0
   20.3614  -21.4753  -20.0511 O   0  0  0  0  0  0  0  0  0  0  0  0
   19.8122  -14.0543  -20.3272 N   0  0  0  0  0  0  0  0  0  0  0  0
   18.5201  -13.8697  -19.7519 C   0  0  0  0  0  0  0  0  0  0  0  0
   17.6750  -13.0842  -20.2938 N   0  0  0  0  0  0  0  0  0  0  0  0
   18.1858  -14.5686  -18.5721 N   0  0  0  0  0  0  0  0  0  0  0  0
   19.1768  -15.4661  -17.9937 C   0  0  0  0  0  0  0  0  0  0  0  0
   18.9894  -16.8498  -18.5907 C   0  0  0  0  0  0  0  0  0  0  0  0
   19.9630  -17.8309  -18.0495 C   0  0  0  0  0  0  0  0  0  0  0  0
   19.8541  -19.2412  -18.5127 C   0  0  2  0  0  0  0  0  0  0  0  0
   20.1773  -19.2016  -19.9601 N   0  0  0  0  0  0  0  0  0  0  0  0
   18.5211  -19.8524  -18.4055 C   0  0  0  0  0  0  0  0  0  0  0  0
   17.5898  -19.5390  -19.2420 O   0  0  0  0  0  0  0  0  0  0  0  0
   16.7474  -12.9175  -19.8382 N   0  0  0  0  0  0  0  0  0  0  0  0
   18.1343  -20.8010  -17.4296 C   0  0  2  0  0  0  0  0  0  0  0  0
   16.7737  -21.3538  -17.4095 C   0  0  0  0  0  0  0  0  0  0  0  0
   16.8686  -22.7569  -16.8506 C   0  0  0  0  0  0  0  0  0  0  0  0
   15.5723  -23.4654  -16.8601 C   0  0  0  0  0  0  0  0  0  0  0  0
   14.7611  -23.6273  -17.9519 N   0  0  0  0  0  0  0  0  0  0  0  0
   13.6683  -24.3159  -17.5836 C   0  0  0  0  0  0  0  0  0  0  0  0
   13.8125  -24.5711  -16.2792 N   0  0  0  0  0  0  0  0  0  0  0  0
   14.9626  -24.0639  -15.8169 C   0  0  0  0  0  0  0  0  0  0  0  0
   15.8659  -20.4841  -16.6363 O   0  0  0  0  0  0  0  0  0  0  0  0
   14.4810  -20.5522  -16.7593 O   0  0  0  0  0  0  0  0  0  0  0  0
  2  3  1  0
  2  1  1  1
  3  4  1  0
  4  5  1  0
  5  6  1  0
  7  6  1  0
  8  9  2  0
  8  2  1  0
 10 11  1  0
 11 12  2  0
 13 11  1  0
 13 14  1  0
 15 14  1  0
 15 16  1  0
 17 16  1  6
 17 19  1  0
 17 18  1  0
 18  8  1  0
 19 20  2  0
 21 22  1  0
 21 19  1  0
 22 23  1  1
 23 24  1  0
 24 25  2  0
 25 26  1  0
 27 26  1  0
 28 24  1  0
 28 27  2  0
 29 30  1  0
 29 22  1  0
 31 29  2  0
M  END
$$$$
