KRH.pdb
     RDKit          3D

 31 31  0  0  1  0  0  0  0  0999 V2000
   22.7282  -22.1347  -15.7841 N   0  0  0  0  0  0  0  0  0  0  0  0
   22.0320  -21.4110  -14.7615 C   0  0  1  0  0  0  0  0  0  0  0  0
   21.6185  -20.0279  -15.2086 C   0  0  0  0  0  0  0  0  0  0  0  0
   22.3267  -19.6974  -16.4937 C   0  0  0  0  0  0  0  0  0  0  0  0
   21.8604  -18.3586  -17.0365 C   0  0  0  0  0  0  0  0  0  0  0  0
   22.4876  -18.1951  -18.4125 C   0  0  0  0  0  0  0  0  0  0  0  0
   22.1020  -16.9054  -18.9204 N   0  0  0  0  0  0  0  0  0  0  0  0
   20.7656  -22.1084  -14.3619 C   0  0  0  0  0  0  0  0  0  0  0  0
   19.9128  -22.4091  -15.2331 O   0  0  0  0  0  0  0  0  0  0  0  0
   18.1185  -24.9886   -6.4076 N   0  0  0  0  0  0  0  0  0  0  0  0
   17.4008  -25.8150   -7.3222 C   0  0  0  0  0  0  0  0  0  0  0  0
   16.7490  -26.8286   -6.9067 N   0  0  0  0  0  0  0  0  0  0  0  0
   17.4199  -25.4974   -8.6973 N   0  0  0  0  0  0  0  0  0  0  0  0
   18.5449  -24.7313   -9.2164 C   0  0  0  0  0  0  0  0  0  0  0  0
   18.2599  -24.3644  -10.6622 C   0  0  0  0  0  0  0  0  0  0  0  0
   19.3882  -23.6299  -11.2874 C   0  0  0  0  0  0  0  0  0  0  0  0
   19.1852  -23.0872  -12.6585 C   0  0  2  0  0  0  0  0  0  0  0  0
   20.4764  -22.4531  -13.0213 N   0  0  0  0  0  0  0  0  0  0  0  0
   18.1612  -22.0404  -12.7909 C   0  0  0  0  0  0  0  0  0  0  0  0
   18.3986  -20.8394  -12.3828 O   0  0  0  0  0  0  0  0  0  0  0  0
   16.2037  -27.4138   -7.5818 N   0  0  0  0  0  0  0  0  0  0  0  0
   16.8750  -22.2229  -13.3515 C   0  0  1  0  0  0  0  0  0  0  0  0
   15.9111  -21.1164  -13.4096 C   0  0  0  0  0  0  0  0  0  0  0  0
   15.8009  -20.6939  -14.8585 C   0  0  0  0  0  0  0  0  0  0  0  0
   16.6009  -19.4907  -15.1661 C   0  0  0  0  0  0  0  0  0  0  0  0
   17.7635  -19.4709  -15.8901 N   0  0  0  0  0  0  0  0  0  0  0  0
   18.2104  -18.2062  -15.9608 C   0  0  0  0  0  0  0  0  0  0  0  0
   17.3280  -17.4624  -15.2859 N   0  0  0  0  0  0  0  0  0  0  0  0
   16.3403  -18.2212  -14.7935 C   0  0  0  0  0  0  0  0  0  0  0  0
   14.6167  -21.5175  -12.8247 O   0  0  0  0  0  0  0  0  0  0  0  0
   13.6913  -20.5914  -12.3517 O   0  0  0  0  0  0  0  0  0  0  0  0
  2  3  1  0
  2  1  1  6
  3  4  1  0
  4  5  1  0
  5  6  1  0
  7  6  1  0
  8  9  2  0
  8  2  1  0
 10 11  1  0
 11 12  2  0
 13 11  1  0
 13 14  1  0
 15 14  1  0
 15 16  1  0
 17 16  1  1
 17 19  1  0
 17 18  1  0
 18  8  1  0
 19 20  2  0
 21 22  1  0
 21 19  1  0
 22 23  1  6
 23 24  1  0
 24 25  2  0
 25 26  1  0
 27 26  1  0
 28 24  1  0
 28 27  2  0
 29 30  1  0
 29 22  1  0
 31 29  2  0
M  END
$$$$
