KRH.pdb
     RDKit          3D

 31 31  0  0  1  0  0  0  0  0999 V2000
   17.4013  -23.5332   -8.0764 N   0  0  0  0  0  0  0  0  0  0  0  0
   18.7123  -23.8162   -8.5819 C   0  0  1  0  0  0  0  0  0  0  0  0
   18.7072  -24.9028   -9.6321 C   0  0  0  0  0  0  0  0  0  0  0  0
   18.5169  -26.2337   -8.9575 C   0  0  0  0  0  0  0  0  0  0  0  0
   18.5461  -27.3613   -9.9734 C   0  0  0  0  0  0  0  0  0  0  0  0
   18.2488  -28.6472   -9.2175 C   0  0  0  0  0  0  0  0  0  0  0  0
   18.1502  -29.7106  -10.1815 N   0  0  0  0  0  0  0  0  0  0  0  0
   19.3174  -22.6122   -9.2407 C   0  0  0  0  0  0  0  0  0  0  0  0
   18.6001  -21.6179   -9.5117 O   0  0  0  0  0  0  0  0  0  0  0  0
   27.8100  -21.3248  -11.4362 N   0  0  0  0  0  0  0  0  0  0  0  0
   27.0747  -20.4931  -12.3318 C   0  0  0  0  0  0  0  0  0  0  0  0
   27.6300  -20.0111  -13.3731 N   0  0  0  0  0  0  0  0  0  0  0  0
   25.7209  -20.2086  -12.0521 N   0  0  0  0  0  0  0  0  0  0  0  0
   24.9932  -21.1052  -11.1640 C   0  0  0  0  0  0  0  0  0  0  0  0
   23.5426  -20.6600  -11.1028 C   0  0  0  0  0  0  0  0  0  0  0  0
   22.7253  -21.5308  -10.2213 C   0  0  0  0  0  0  0  0  0  0  0  0
   21.2515  -21.3222  -10.2168 C   0  0  2  0  0  0  0  0  0  0  0  0
   20.6882  -22.5381   -9.5802 N   0  0  0  0  0  0  0  0  0  0  0  0
   20.6129  -21.2156  -11.5369 C   0  0  0  0  0  0  0  0  0  0  0  0
   20.5304  -22.2473  -12.3076 O   0  0  0  0  0  0  0  0  0  0  0  0
   27.0674  -19.4507  -14.0551 N   0  0  0  0  0  0  0  0  0  0  0  0
   20.0473  -20.0366  -12.0772 C   0  0  2  0  0  0  0  0  0  0  0  0
   19.4001  -20.0434  -13.3956 C   0  0  0  0  0  0  0  0  0  0  0  0
   18.3546  -18.9493  -13.3870 C   0  0  0  0  0  0  0  0  0  0  0  0
   17.6221  -18.8479  -14.6659 C   0  0  0  0  0  0  0  0  0  0  0  0
   17.8404  -19.6249  -15.7725 N   0  0  0  0  0  0  0  0  0  0  0  0
   16.9940  -19.2458  -16.7441 C   0  0  0  0  0  0  0  0  0  0  0  0
   16.2666  -18.2468  -16.2338 N   0  0  0  0  0  0  0  0  0  0  0  0
   16.6303  -17.9868  -14.9713 C   0  0  0  0  0  0  0  0  0  0  0  0
   20.3983  -19.8801  -14.4704 O   0  0  0  0  0  0  0  0  0  0  0  0
   20.1644  -20.2982  -15.7774 O   0  0  0  0  0  0  0  0  0  0  0  0
  2  3  1  0
  2  1  1  6
  3  4  1  0
  4  5  1  0
  5  6  1  0
  7  6  1  0
  8  9  2  0
  8  2  1  0
 10 11  1  0
 11 12  2  0
 13 11  1  0
 13 14  1  0
 15 14  1  0
 15 16  1  0
 17 16  1  6
 17 19  1  0
 17 18  1  0
 18  8  1  0
 19 20  2  0
 21 22  1  0
 21 19  1  0
 22 23  1  1
 23 24  1  0
 24 25  2  0
 25 26  1  0
 27 26  1  0
 28 24  1  0
 28 27  2  0
 29 30  1  0
 29 22  1  0
 31 29  2  0
M  END
$$$$
