KRH.pdb
     RDKit          3D

 31 31  0  0  1  0  0  0  0  0999 V2000
   44.2621   -2.8769   -7.8102 N   0  0  0  0  0  0  0  0  0  0  0  0
   44.7810   -3.1731   -9.1129 C   0  0  1  0  0  0  0  0  0  0  0  0
   46.2359   -3.5804   -9.0793 C   0  0  0  0  0  0  0  0  0  0  0  0
   46.8398   -3.1294   -7.7776 C   0  0  0  0  0  0  0  0  0  0  0  0
   48.2883   -3.5717   -7.6743 C   0  0  0  0  0  0  0  0  0  0  0  0
   48.7739   -3.1797   -6.2873 C   0  0  0  0  0  0  0  0  0  0  0  0
   50.1457   -3.5968   -6.1681 N   0  0  0  0  0  0  0  0  0  0  0  0
   44.0491   -4.3186   -9.7470 C   0  0  0  0  0  0  0  0  0  0  0  0
   44.3835   -4.7227  -10.8879 O   0  0  0  0  0  0  0  0  0  0  0  0
   42.7650  -11.3446   -5.6707 N   0  0  0  0  0  0  0  0  0  0  0  0
   43.9732  -11.1624   -6.4067 C   0  0  0  0  0  0  0  0  0  0  0  0
   44.9640  -11.9450   -6.2310 N   0  0  0  0  0  0  0  0  0  0  0  0
   44.0605  -10.1029   -7.3350 N   0  0  0  0  0  0  0  0  0  0  0  0
   42.9293   -9.1931   -7.4569 C   0  0  0  0  0  0  0  0  0  0  0  0
   43.2407   -8.1690   -8.5342 C   0  0  0  0  0  0  0  0  0  0  0  0
   42.1640   -7.1569   -8.6740 C   0  0  0  0  0  0  0  0  0  0  0  0
   42.3059   -6.1403   -9.7519 C   0  0  2  0  0  0  0  0  0  0  0  0
   42.9756   -4.9827   -9.1097 N   0  0  0  0  0  0  0  0  0  0  0  0
   41.0513   -5.6262  -10.3206 C   0  0  0  0  0  0  0  0  0  0  0  0
   40.4124   -4.6700   -9.7350 O   0  0  0  0  0  0  0  0  0  0  0  0
   45.8715  -11.7591   -6.7185 N   0  0  0  0  0  0  0  0  0  0  0  0
   40.4408   -6.0948  -11.5079 C   0  0  2  0  0  0  0  0  0  0  0  0
   39.1244   -5.5977  -11.9287 C   0  0  0  0  0  0  0  0  0  0  0  0
   38.9153   -6.0405  -13.3606 C   0  0  0  0  0  0  0  0  0  0  0  0
   37.5947   -5.6478  -13.8938 C   0  0  0  0  0  0  0  0  0  0  0  0
   37.3090   -4.4641  -14.5211 N   0  0  0  0  0  0  0  0  0  0  0  0
   36.0102   -4.4557  -14.8635 C   0  0  0  0  0  0  0  0  0  0  0  0
   35.5093   -5.6237  -14.4485 N   0  0  0  0  0  0  0  0  0  0  0  0
   36.4538   -6.3656  -13.8559 C   0  0  0  0  0  0  0  0  0  0  0  0
   38.0674   -6.0754  -11.0161 O   0  0  0  0  0  0  0  0  0  0  0  0
   36.8710   -5.3877  -10.8332 O   0  0  0  0  0  0  0  0  0  0  0  0
  2  3  1  0
  2  1  1  1
  3  4  1  0
  4  5  1  0
  5  6  1  0
  7  6  1  0
  8  9  2  0
  8  2  1  0
 10 11  1  0
 11 12  2  0
 13 11  1  0
 13 14  1  0
 15 14  1  0
 15 16  1  0
 17 16  1  1
 17 19  1  0
 17 18  1  0
 18  8  1  0
 19 20  2  0
 21 22  1  0
 21 19  1  0
 22 23  1  6
 23 24  1  0
 24 25  2  0
 25 26  1  0
 27 26  1  0
 28 24  1  0
 28 27  2  0
 29 30  1  0
 29 22  1  0
 31 29  2  0
M  END
$$$$
