FVI.pdb
     RDKit          3D

 27 27  0  0  1  0  0  0  0  0999 V2000
    5.3853  -17.9191   24.9907 N   0  0  0  0  0  0  0  0  0  0  0  0
    5.8709  -16.5497   24.9395 C   0  0  1  0  0  0  0  0  0  0  0  0
    5.9846  -16.0911   26.3988 C   0  0  0  0  0  0  0  0  0  0  0  0
    5.8904  -14.6141   26.3906 C   0  0  0  0  0  0  0  0  0  0  0  0
    4.6885  -13.9575   26.2882 C   0  0  0  0  0  0  0  0  0  0  0  0
    4.5836  -12.5849   26.2791 C   0  0  0  0  0  0  0  0  0  0  0  0
    5.7477  -11.8615   26.3780 C   0  0  0  0  0  0  0  0  0  0  0  0
    6.9660  -12.4975   26.4817 C   0  0  0  0  0  0  0  0  0  0  0  0
    7.0482  -13.8804   26.4889 C   0  0  0  0  0  0  0  0  0  0  0  0
    7.2300  -16.5550   24.3232 C   0  0  0  0  0  0  0  0  0  0  0  0
    7.9935  -17.5436   24.4514 O   0  0  0  0  0  0  0  0  0  0  0  0
    8.0812  -14.2517   20.9191 C   0  0  0  0  0  0  0  0  0  0  0  0
    9.2374  -14.5380   21.8183 C   0  0  2  0  0  0  0  0  0  0  0  0
   10.5219  -14.8196   21.0414 C   0  0  0  0  0  0  0  0  0  0  0  0
    8.9886  -15.5573   22.8684 C   0  0  2  0  0  0  0  0  0  0  0  0
    7.7594  -15.4994   23.5742 N   0  0  0  0  0  0  0  0  0  0  0  0
   10.0938  -15.4767   23.8753 C   0  0  0  0  0  0  0  0  0  0  0  0
   11.1734  -14.8357   23.6277 O   0  0  0  0  0  0  0  0  0  0  0  0
   10.7414  -12.7507   27.9626 C   0  0  0  0  0  0  0  0  0  0  0  0
   11.0338  -13.7050   26.8161 C   0  0  0  0  0  0  0  0  0  0  0  0
   10.9770  -15.1410   27.2080 C   0  0  2  0  0  0  0  0  0  0  0  0
   12.0387  -15.3735   28.2622 C   0  0  0  0  0  0  0  0  0  0  0  0
   11.1495  -16.1168   26.0823 C   0  0  2  0  0  0  0  0  0  0  0  0
   10.0394  -16.0850   25.1498 N   0  0  0  0  0  0  0  0  0  0  0  0
   11.5091  -17.4770   26.4881 C   0  0  0  0  0  0  0  0  0  0  0  0
   10.7677  -18.4730   26.4008 O   0  0  0  0  0  0  0  0  0  0  0  0
   12.7906  -17.7097   27.0245 O   0  0  0  0  0  0  0  0  0  0  0  0
  2  1  1  1
  3  2  1  0
  4  3  1  0
  4  9  2  0
  5  4  1  0
  6  5  2  0
  6  7  1  0
  7  8  2  0
  8  9  1  0
 10  2  1  0
 11 10  2  0
 13 15  1  0
 13 12  1  6
 14 13  1  0
 15 16  1  1
 16 10  1  0
 17 18  2  0
 17 15  1  0
 19 20  1  0
 20 21  1  0
 21 23  1  0
 21 22  1  1
 23 24  1  1
 24 17  1  0
 25 27  1  0
 25 23  1  0
 26 25  2  0
M  END
$$$$
