FVI.pdb
     RDKit          3D

 27 27  0  0  1  0  0  0  0  0999 V2000
    6.3979  -20.4080   23.1397 N   0  0  0  0  0  0  0  0  0  0  0  0
    6.7922  -19.5022   24.2065 C   0  0  1  0  0  0  0  0  0  0  0  0
    7.6584  -20.3326   25.1618 C   0  0  0  0  0  0  0  0  0  0  0  0
    7.8293  -19.5274   26.3919 C   0  0  0  0  0  0  0  0  0  0  0  0
    8.9923  -18.8519   26.6693 C   0  0  0  0  0  0  0  0  0  0  0  0
    9.1673  -18.0988   27.8084 C   0  0  0  0  0  0  0  0  0  0  0  0
    8.1168  -18.0359   28.6919 C   0  0  0  0  0  0  0  0  0  0  0  0
    6.9394  -18.7051   28.4357 C   0  0  0  0  0  0  0  0  0  0  0  0
    6.7851  -19.4573   27.2827 C   0  0  0  0  0  0  0  0  0  0  0  0
    7.6245  -18.4135   23.6158 C   0  0  0  0  0  0  0  0  0  0  0  0
    8.8003  -18.6342   23.2341 O   0  0  0  0  0  0  0  0  0  0  0  0
    7.9906  -14.2908   20.9839 C   0  0  0  0  0  0  0  0  0  0  0  0
    7.1902  -15.3476   21.6693 C   0  0  2  0  0  0  0  0  0  0  0  0
    5.8396  -14.8282   22.1581 C   0  0  0  0  0  0  0  0  0  0  0  0
    7.9089  -16.1050   22.7245 C   0  0  2  0  0  0  0  0  0  0  0  0
    7.1889  -17.0964   23.4395 N   0  0  0  0  0  0  0  0  0  0  0  0
    8.4476  -15.1276   23.7226 C   0  0  0  0  0  0  0  0  0  0  0  0
    8.4988  -13.8749   23.4658 O   0  0  0  0  0  0  0  0  0  0  0  0
    5.9655  -12.2729   25.5998 C   0  0  0  0  0  0  0  0  0  0  0  0
    7.2884  -12.9594   25.3010 C   0  0  0  0  0  0  0  0  0  0  0  0
    7.7494  -13.8631   26.3918 C   0  0  2  0  0  0  0  0  0  0  0  0
    7.8750  -13.0356   27.6537 C   0  0  0  0  0  0  0  0  0  0  0  0
    9.0361  -14.5845   26.1214 C   0  0  2  0  0  0  0  0  0  0  0  0
    8.9319  -15.4959   24.9982 N   0  0  0  0  0  0  0  0  0  0  0  0
    9.6622  -15.1998   27.2934 C   0  0  0  0  0  0  0  0  0  0  0  0
   10.2621  -14.5847   28.1940 O   0  0  0  0  0  0  0  0  0  0  0  0
    9.5978  -16.5990   27.4423 O   0  0  0  0  0  0  0  0  0  0  0  0
  2  1  1  6
  3  2  1  0
  4  3  1  0
  4  9  2  0
  5  4  1  0
  6  5  2  0
  6  7  1  0
  7  8  2  0
  8  9  1  0
 10  2  1  0
 11 10  2  0
 13 15  1  0
 13 12  1  1
 14 13  1  0
 15 16  1  1
 16 10  1  0
 17 18  2  0
 17 15  1  0
 19 20  1  0
 20 21  1  0
 21 23  1  0
 21 22  1  1
 23 24  1  6
 24 17  1  0
 25 27  1  0
 25 23  1  0
 26 25  2  0
M  END
$$$$
