FVI.pdb
     RDKit          3D

 27 27  0  0  1  0  0  0  0  0999 V2000
    7.9355  -17.8488   18.9089 N   0  0  0  0  0  0  0  0  0  0  0  0
    8.1661  -16.6562   19.7079 C   0  0  1  0  0  0  0  0  0  0  0  0
    6.9722  -15.7326   19.4355 C   0  0  0  0  0  0  0  0  0  0  0  0
    7.1414  -14.5481   20.3068 C   0  0  0  0  0  0  0  0  0  0  0  0
    7.8823  -13.4571   19.9237 C   0  0  0  0  0  0  0  0  0  0  0  0
    8.0494  -12.3479   20.7219 C   0  0  0  0  0  0  0  0  0  0  0  0
    7.4379  -12.3569   21.9524 C   0  0  0  0  0  0  0  0  0  0  0  0
    6.6892  -13.4402   22.3593 C   0  0  0  0  0  0  0  0  0  0  0  0
    6.5342  -14.5461   21.5396 C   0  0  0  0  0  0  0  0  0  0  0  0
    8.1614  -17.0466   21.1483 C   0  0  0  0  0  0  0  0  0  0  0  0
    7.2060  -17.6980   21.6378 O   0  0  0  0  0  0  0  0  0  0  0  0
   11.6099  -18.0288   23.5122 C   0  0  0  0  0  0  0  0  0  0  0  0
   10.1591  -18.3262   23.6966 C   0  0  2  0  0  0  0  0  0  0  0  0
    9.7380  -19.6192   23.0011 C   0  0  0  0  0  0  0  0  0  0  0  0
    9.2364  -17.2046   23.3897 C   0  0  2  0  0  0  0  0  0  0  0  0
    9.1818  -16.7348   22.0522 N   0  0  0  0  0  0  0  0  0  0  0  0
    9.5980  -16.0438   24.2636 C   0  0  0  0  0  0  0  0  0  0  0  0
   10.6338  -15.3306   24.0270 O   0  0  0  0  0  0  0  0  0  0  0  0
    6.4406  -12.1201   25.8469 C   0  0  0  0  0  0  0  0  0  0  0  0
    7.6339  -12.9960   25.5013 C   0  0  0  0  0  0  0  0  0  0  0  0
    8.2529  -13.6529   26.6863 C   0  0  2  0  0  0  0  0  0  0  0  0
    8.8400  -12.5658   27.5617 C   0  0  0  0  0  0  0  0  0  0  0  0
    9.2999  -14.6797   26.3720 C   0  0  2  0  0  0  0  0  0  0  0  0
    8.8460  -15.6484   25.3930 N   0  0  0  0  0  0  0  0  0  0  0  0
    9.9275  -15.3047   27.5380 C   0  0  0  0  0  0  0  0  0  0  0  0
   10.8605  -14.8154   28.2009 O   0  0  0  0  0  0  0  0  0  0  0  0
    9.4602  -16.5617   27.9691 O   0  0  0  0  0  0  0  0  0  0  0  0
  2  1  1  6
  3  2  1  0
  4  3  1  0
  4  9  2  0
  5  4  1  0
  6  5  2  0
  6  7  1  0
  7  8  2  0
  8  9  1  0
 10  2  1  0
 11 10  2  0
 13 15  1  0
 13 12  1  6
 14 13  1  0
 15 16  1  6
 16 10  1  0
 17 18  2  0
 17 15  1  0
 19 20  1  0
 20 21  1  0
 21 23  1  0
 21 22  1  1
 23 24  1  6
 24 17  1  0
 25 27  1  0
 25 23  1  0
 26 25  2  0
M  END
$$$$
