FVI.pdb
     RDKit          3D

 27 27  0  0  1  0  0  0  0  0999 V2000
    5.5129  -18.7172   24.4972 N   0  0  0  0  0  0  0  0  0  0  0  0
    5.8309  -17.3071   24.6528 C   0  0  1  0  0  0  0  0  0  0  0  0
    5.9165  -17.0617   26.1645 C   0  0  0  0  0  0  0  0  0  0  0  0
    5.9826  -15.5955   26.3557 C   0  0  0  0  0  0  0  0  0  0  0  0
    4.9576  -14.7613   25.9822 C   0  0  0  0  0  0  0  0  0  0  0  0
    5.0034  -13.3960   26.1531 C   0  0  0  0  0  0  0  0  0  0  0  0
    6.1359  -12.8683   26.7252 C   0  0  0  0  0  0  0  0  0  0  0  0
    7.1779  -13.6850   27.1084 C   0  0  0  0  0  0  0  0  0  0  0  0
    7.1105  -15.0568   26.9270 C   0  0  0  0  0  0  0  0  0  0  0  0
    7.1691  -17.0561   24.0419 C   0  0  0  0  0  0  0  0  0  0  0  0
    8.0743  -17.9249   24.0901 O   0  0  0  0  0  0  0  0  0  0  0  0
    8.9729  -13.2223   22.3984 C   0  0  0  0  0  0  0  0  0  0  0  0
    8.7928  -14.5356   21.7128 C   0  0  2  0  0  0  0  0  0  0  0  0
    7.6565  -14.5076   20.6927 C   0  0  0  0  0  0  0  0  0  0  0  0
    8.7041  -15.7143   22.6108 C   0  0  2  0  0  0  0  0  0  0  0  0
    7.5255  -15.8746   23.3841 N   0  0  0  0  0  0  0  0  0  0  0  0
    9.8647  -15.6756   23.5560 C   0  0  0  0  0  0  0  0  0  0  0  0
   11.0594  -15.4936   23.1349 O   0  0  0  0  0  0  0  0  0  0  0  0
    9.7163  -12.8843   28.1680 C   0  0  0  0  0  0  0  0  0  0  0  0
   10.1648  -13.5954   26.9015 C   0  0  0  0  0  0  0  0  0  0  0  0
   10.5476  -15.0181   27.1219 C   0  0  2  0  0  0  0  0  0  0  0  0
   11.7389  -15.0355   28.0564 C   0  0  0  0  0  0  0  0  0  0  0  0
   10.8605  -15.7945   25.8775 C   0  0  2  0  0  0  0  0  0  0  0  0
    9.7421  -15.8324   24.9552 N   0  0  0  0  0  0  0  0  0  0  0  0
   11.4550  -17.1139   26.1008 C   0  0  0  0  0  0  0  0  0  0  0  0
   10.8376  -18.1943   26.0746 O   0  0  0  0  0  0  0  0  0  0  0  0
   12.8350  -17.2007   26.3697 O   0  0  0  0  0  0  0  0  0  0  0  0
  2  1  1  1
  3  2  1  0
  4  3  1  0
  4  9  2  0
  5  4  1  0
  6  5  2  0
  6  7  1  0
  7  8  2  0
  8  9  1  0
 10  2  1  0
 11 10  2  0
 13 15  1  0
 13 12  1  1
 14 13  1  0
 15 16  1  1
 16 10  1  0
 17 18  2  0
 17 15  1  0
 19 20  1  0
 20 21  1  0
 21 23  1  0
 21 22  1  1
 23 24  1  1
 24 17  1  0
 25 27  1  0
 25 23  1  0
 26 25  2  0
M  END
$$$$
