FVI.pdb
     RDKit          3D

 27 27  0  0  1  0  0  0  0  0999 V2000
    6.5871  -18.4439   19.4202 N   0  0  0  0  0  0  0  0  0  0  0  0
    6.9958  -17.2121   20.0756 C   0  0  1  0  0  0  0  0  0  0  0  0
    6.1811  -16.0947   19.4120 C   0  0  0  0  0  0  0  0  0  0  0  0
    6.9258  -14.8348   19.6329 C   0  0  0  0  0  0  0  0  0  0  0  0
    6.7104  -14.0398   20.7319 C   0  0  0  0  0  0  0  0  0  0  0  0
    7.3943  -12.8655   20.9521 C   0  0  0  0  0  0  0  0  0  0  0  0
    8.3291  -12.4935   20.0162 C   0  0  0  0  0  0  0  0  0  0  0  0
    8.5631  -13.2745   18.9049 C   0  0  0  0  0  0  0  0  0  0  0  0
    7.8631  -14.4529   18.7033 C   0  0  0  0  0  0  0  0  0  0  0  0
    6.6199  -17.2988   21.5172 C   0  0  0  0  0  0  0  0  0  0  0  0
    5.5282  -17.8088   21.8705 O   0  0  0  0  0  0  0  0  0  0  0  0
    8.4761  -19.0965   24.5274 C   0  0  0  0  0  0  0  0  0  0  0  0
    7.1345  -18.4481   24.4439 C   0  0  2  0  0  0  0  0  0  0  0  0
    6.1132  -19.3181   23.7140 C   0  0  0  0  0  0  0  0  0  0  0  0
    7.1340  -17.0512   23.9419 C   0  0  2  0  0  0  0  0  0  0  0  0
    7.4183  -16.8374   22.5685 N   0  0  0  0  0  0  0  0  0  0  0  0
    8.1272  -16.2633   24.7385 C   0  0  0  0  0  0  0  0  0  0  0  0
    9.3186  -16.0711   24.3127 O   0  0  0  0  0  0  0  0  0  0  0  0
    6.0784  -12.1096   27.5407 C   0  0  0  0  0  0  0  0  0  0  0  0
    6.9832  -12.9774   26.6811 C   0  0  0  0  0  0  0  0  0  0  0  0
    8.0071  -13.7259   27.4624 C   0  0  2  0  0  0  0  0  0  0  0  0
    8.9897  -12.7176   28.0196 C   0  0  0  0  0  0  0  0  0  0  0  0
    8.7401  -14.7889   26.6996 C   0  0  2  0  0  0  0  0  0  0  0  0
    7.8405  -15.6810   25.9939 N   0  0  0  0  0  0  0  0  0  0  0  0
    9.7657  -15.5052   27.4607 C   0  0  0  0  0  0  0  0  0  0  0  0
   10.9200  -15.0926   27.6764 O   0  0  0  0  0  0  0  0  0  0  0  0
    9.4514  -16.7655   28.0055 O   0  0  0  0  0  0  0  0  0  0  0  0
  2  1  1  6
  3  2  1  0
  4  3  1  0
  4  9  2  0
  5  4  1  0
  6  5  2  0
  6  7  1  0
  7  8  2  0
  8  9  1  0
 10  2  1  0
 11 10  2  0
 13 15  1  0
 13 12  1  6
 14 13  1  0
 15 16  1  6
 16 10  1  0
 17 18  2  0
 17 15  1  0
 19 20  1  0
 20 21  1  0
 21 23  1  0
 21 22  1  6
 23 24  1  1
 24 17  1  0
 25 27  1  0
 25 23  1  0
 26 25  2  0
M  END
$$$$
