FVI.pdb
     RDKit          3D

 27 27  0  0  1  0  0  0  0  0999 V2000
    7.6678  -17.7840   19.1523 N   0  0  0  0  0  0  0  0  0  0  0  0
    8.0534  -16.6056   19.9116 C   0  0  1  0  0  0  0  0  0  0  0  0
    6.9139  -15.5959   19.7248 C   0  0  0  0  0  0  0  0  0  0  0  0
    7.2650  -14.4029   20.5273 C   0  0  0  0  0  0  0  0  0  0  0  0
    6.8846  -14.2653   21.8398 C   0  0  0  0  0  0  0  0  0  0  0  0
    7.2028  -13.1625   22.5998 C   0  0  0  0  0  0  0  0  0  0  0  0
    7.9345  -12.1685   21.9959 C   0  0  0  0  0  0  0  0  0  0  0  0
    8.3280  -12.2835   20.6800 C   0  0  0  0  0  0  0  0  0  0  0  0
    7.9966  -13.4025   19.9335 C   0  0  0  0  0  0  0  0  0  0  0  0
    8.1394  -16.9819   21.3531 C   0  0  0  0  0  0  0  0  0  0  0  0
    7.2035  -17.6016   21.9159 O   0  0  0  0  0  0  0  0  0  0  0  0
   11.8635  -17.6701   23.5291 C   0  0  0  0  0  0  0  0  0  0  0  0
   10.4767  -18.1833   23.7310 C   0  0  2  0  0  0  0  0  0  0  0  0
   10.2281  -19.4938   22.9872 C   0  0  0  0  0  0  0  0  0  0  0  0
    9.3932  -17.1964   23.4948 C   0  0  2  0  0  0  0  0  0  0  0  0
    9.2292  -16.6903   22.1796 N   0  0  0  0  0  0  0  0  0  0  0  0
    9.6120  -16.0286   24.4059 C   0  0  0  0  0  0  0  0  0  0  0  0
   10.4531  -15.1084   24.1172 O   0  0  0  0  0  0  0  0  0  0  0  0
    6.0569  -12.6641   26.1572 C   0  0  0  0  0  0  0  0  0  0  0  0
    7.3342  -13.3944   25.7754 C   0  0  0  0  0  0  0  0  0  0  0  0
    8.0629  -13.9678   26.9412 C   0  0  2  0  0  0  0  0  0  0  0  0
    8.4904  -12.8179   27.8286 C   0  0  0  0  0  0  0  0  0  0  0  0
    9.2492  -14.8182   26.5965 C   0  0  2  0  0  0  0  0  0  0  0  0
    8.9265  -15.8488   25.6287 N   0  0  0  0  0  0  0  0  0  0  0  0
    9.9991  -15.3338   27.7437 C   0  0  0  0  0  0  0  0  0  0  0  0
    9.8717  -16.4709   28.2334 O   0  0  0  0  0  0  0  0  0  0  0  0
   10.9486  -14.4995   28.3653 O   0  0  0  0  0  0  0  0  0  0  0  0
  2  1  1  6
  3  2  1  0
  4  3  1  0
  4  9  2  0
  5  4  1  0
  6  5  2  0
  6  7  1  0
  7  8  2  0
  8  9  1  0
 10  2  1  0
 11 10  2  0
 13 15  1  0
 13 12  1  6
 14 13  1  0
 15 16  1  6
 16 10  1  0
 17 18  2  0
 17 15  1  0
 19 20  1  0
 20 21  1  0
 21 23  1  0
 21 22  1  1
 23 24  1  1
 24 17  1  0
 25 27  1  0
 25 23  1  0
 26 25  2  0
M  END
$$$$
