FVI.pdb
     RDKit          3D

 27 27  0  0  1  0  0  0  0  0999 V2000
    6.0837  -19.5750   23.0539 N   0  0  0  0  0  0  0  0  0  0  0  0
    6.1787  -18.3405   23.8160 C   0  0  1  0  0  0  0  0  0  0  0  0
    6.3399  -18.7646   25.2812 C   0  0  0  0  0  0  0  0  0  0  0  0
    6.2878  -17.5273   26.0918 C   0  0  0  0  0  0  0  0  0  0  0  0
    5.3527  -16.5460   25.8710 C   0  0  0  0  0  0  0  0  0  0  0  0
    5.2906  -15.3898   26.6156 C   0  0  0  0  0  0  0  0  0  0  0  0
    6.2165  -15.2338   27.6189 C   0  0  0  0  0  0  0  0  0  0  0  0
    7.1649  -16.2044   27.8598 C   0  0  0  0  0  0  0  0  0  0  0  0
    7.2089  -17.3606   27.0979 C   0  0  0  0  0  0  0  0  0  0  0  0
    7.4067  -17.6124   23.3816 C   0  0  0  0  0  0  0  0  0  0  0  0
    8.4801  -18.2275   23.1661 O   0  0  0  0  0  0  0  0  0  0  0  0
    7.9051  -13.1348   22.5294 C   0  0  0  0  0  0  0  0  0  0  0  0
    8.2503  -14.3548   21.7421 C   0  0  2  0  0  0  0  0  0  0  0  0
    7.2336  -14.6416   20.6391 C   0  0  0  0  0  0  0  0  0  0  0  0
    8.5537  -15.5652   22.5462 C   0  0  2  0  0  0  0  0  0  0  0  0
    7.4735  -16.2299   23.1817 N   0  0  0  0  0  0  0  0  0  0  0  0
    9.5429  -15.1914   23.6063 C   0  0  0  0  0  0  0  0  0  0  0  0
   10.5893  -14.5091   23.3285 O   0  0  0  0  0  0  0  0  0  0  0  0
    7.9701  -12.5986   27.8041 C   0  0  0  0  0  0  0  0  0  0  0  0
    8.8194  -13.1962   26.6940 C   0  0  0  0  0  0  0  0  0  0  0  0
    9.5968  -14.3938   27.1187 C   0  0  2  0  0  0  0  0  0  0  0  0
   10.5886  -13.9494   28.1730 C   0  0  0  0  0  0  0  0  0  0  0  0
   10.3106  -15.1154   26.0146 C   0  0  2  0  0  0  0  0  0  0  0  0
    9.4080  -15.5508   24.9665 N   0  0  0  0  0  0  0  0  0  0  0  0
   11.2230  -16.1740   26.4518 C   0  0  0  0  0  0  0  0  0  0  0  0
   11.0343  -17.3946   26.2979 O   0  0  0  0  0  0  0  0  0  0  0  0
   12.4194  -15.8140   27.1023 O   0  0  0  0  0  0  0  0  0  0  0  0
  2  1  1  6
  3  2  1  0
  4  3  1  0
  4  9  2  0
  5  4  1  0
  6  5  2  0
  6  7  1  0
  7  8  2  0
  8  9  1  0
 10  2  1  0
 11 10  2  0
 13 15  1  0
 13 12  1  1
 14 13  1  0
 15 16  1  1
 16 10  1  0
 17 18  2  0
 17 15  1  0
 19 20  1  0
 20 21  1  0
 21 23  1  0
 21 22  1  1
 23 24  1  6
 24 17  1  0
 25 27  1  0
 25 23  1  0
 26 25  2  0
M  END
$$$$
