FVI.pdb
     RDKit          3D

 27 27  0  0  1  0  0  0  0  0999 V2000
    5.7135  -18.7935   24.7076 N   0  0  0  0  0  0  0  0  0  0  0  0
    5.9205  -17.3592   24.8251 C   0  0  1  0  0  0  0  0  0  0  0  0
    6.0874  -17.0819   26.3244 C   0  0  0  0  0  0  0  0  0  0  0  0
    6.0668  -15.6114   26.4913 C   0  0  0  0  0  0  0  0  0  0  0  0
    7.0696  -14.9339   27.1405 C   0  0  0  0  0  0  0  0  0  0  0  0
    7.0655  -13.5670   27.3041 C   0  0  0  0  0  0  0  0  0  0  0  0
    5.9997  -12.8717   26.7859 C   0  0  0  0  0  0  0  0  0  0  0  0
    4.9811  -13.5291   26.1302 C   0  0  0  0  0  0  0  0  0  0  0  0
    5.0056  -14.9057   25.9769 C   0  0  0  0  0  0  0  0  0  0  0  0
    7.1881  -17.0074   24.1205 C   0  0  0  0  0  0  0  0  0  0  0  0
    8.1361  -17.8277   24.0485 O   0  0  0  0  0  0  0  0  0  0  0  0
    7.2940  -14.0195   21.0738 C   0  0  0  0  0  0  0  0  0  0  0  0
    8.5341  -14.2562   21.8698 C   0  0  2  0  0  0  0  0  0  0  0  0
    9.8011  -14.1007   21.0313 C   0  0  0  0  0  0  0  0  0  0  0  0
    8.5471  -15.5069   22.6692 C   0  0  2  0  0  0  0  0  0  0  0  0
    7.4286  -15.7781   23.4988 N   0  0  0  0  0  0  0  0  0  0  0  0
    9.7654  -15.4978   23.5395 C   0  0  0  0  0  0  0  0  0  0  0  0
   10.9414  -15.4516   23.0367 O   0  0  0  0  0  0  0  0  0  0  0  0
   10.1547  -12.8235   28.3864 C   0  0  0  0  0  0  0  0  0  0  0  0
   10.4367  -13.4651   27.0375 C   0  0  0  0  0  0  0  0  0  0  0  0
   10.6929  -14.9304   27.1176 C   0  0  2  0  0  0  0  0  0  0  0  0
   11.9052  -15.1388   28.0007 C   0  0  0  0  0  0  0  0  0  0  0  0
   10.8951  -15.6156   25.7990 C   0  0  2  0  0  0  0  0  0  0  0  0
    9.7209  -15.5381   24.9515 N   0  0  0  0  0  0  0  0  0  0  0  0
   11.4464  -16.9697   25.8799 C   0  0  0  0  0  0  0  0  0  0  0  0
   10.7951  -18.0208   25.7376 O   0  0  0  0  0  0  0  0  0  0  0  0
   12.8218  -17.1290   26.1387 O   0  0  0  0  0  0  0  0  0  0  0  0
  2  1  1  1
  3  2  1  0
  4  3  1  0
  4  9  2  0
  5  4  1  0
  6  5  2  0
  6  7  1  0
  7  8  2  0
  8  9  1  0
 10  2  1  0
 11 10  2  0
 13 15  1  0
 13 12  1  6
 14 13  1  0
 15 16  1  1
 16 10  1  0
 17 18  2  0
 17 15  1  0
 19 20  1  0
 20 21  1  0
 21 23  1  0
 21 22  1  1
 23 24  1  1
 24 17  1  0
 25 27  1  0
 25 23  1  0
 26 25  2  0
M  END
$$$$
