FVI.pdb
     RDKit          3D

 27 27  0  0  1  0  0  0  0  0999 V2000
    8.1204  -17.7656   18.2962 N   0  0  0  0  0  0  0  0  0  0  0  0
    8.3508  -16.5819   19.1085 C   0  0  1  0  0  0  0  0  0  0  0  0
    7.3133  -15.5501   18.6485 C   0  0  0  0  0  0  0  0  0  0  0  0
    7.4487  -14.3800   19.5446 C   0  0  0  0  0  0  0  0  0  0  0  0
    8.2666  -13.3184   19.2443 C   0  0  0  0  0  0  0  0  0  0  0  0
    8.4038  -12.2229   20.0667 C   0  0  0  0  0  0  0  0  0  0  0  0
    7.6796  -12.2147   21.2345 C   0  0  0  0  0  0  0  0  0  0  0  0
    6.8521  -13.2684   21.5579 C   0  0  0  0  0  0  0  0  0  0  0  0
    6.7292  -14.3611   20.7153 C   0  0  0  0  0  0  0  0  0  0  0  0
    8.0901  -16.9322   20.5355 C   0  0  0  0  0  0  0  0  0  0  0  0
    7.0508  -17.5534   20.8685 O   0  0  0  0  0  0  0  0  0  0  0  0
   11.0393  -18.1856   23.2774 C   0  0  0  0  0  0  0  0  0  0  0  0
    9.5532  -18.3216   23.2985 C   0  0  2  0  0  0  0  0  0  0  0  0
    9.0715  -19.5535   22.5349 C   0  0  0  0  0  0  0  0  0  0  0  0
    8.7980  -17.1017   22.9176 C   0  0  2  0  0  0  0  0  0  0  0  0
    8.9464  -16.6132   21.5940 N   0  0  0  0  0  0  0  0  0  0  0  0
    9.1816  -15.9980   23.8539 C   0  0  0  0  0  0  0  0  0  0  0  0
   10.2009  -15.2581   23.6275 O   0  0  0  0  0  0  0  0  0  0  0  0
    5.8731  -12.3700   25.9536 C   0  0  0  0  0  0  0  0  0  0  0  0
    7.0824  -13.1368   25.4433 C   0  0  0  0  0  0  0  0  0  0  0  0
    7.8360  -13.8424   26.5172 C   0  0  2  0  0  0  0  0  0  0  0  0
    8.4035  -12.7920   27.4485 C   0  0  0  0  0  0  0  0  0  0  0  0
    8.9308  -14.7486   26.0383 C   0  0  2  0  0  0  0  0  0  0  0  0
    8.4694  -15.6883   25.0347 N   0  0  0  0  0  0  0  0  0  0  0  0
    9.7147  -15.3895   27.0960 C   0  0  0  0  0  0  0  0  0  0  0  0
    9.4882  -16.5148   27.5772 O   0  0  0  0  0  0  0  0  0  0  0  0
   10.8209  -14.7025   27.6331 O   0  0  0  0  0  0  0  0  0  0  0  0
  2  1  1  6
  3  2  1  0
  4  3  1  0
  4  9  2  0
  5  4  1  0
  6  5  2  0
  6  7  1  0
  7  8  2  0
  8  9  1  0
 10  2  1  0
 11 10  2  0
 13 15  1  0
 13 12  1  6
 14 13  1  0
 15 16  1  6
 16 10  1  0
 17 18  2  0
 17 15  1  0
 19 20  1  0
 20 21  1  0
 21 23  1  0
 21 22  1  1
 23 24  1  1
 24 17  1  0
 25 27  1  0
 25 23  1  0
 26 25  2  0
M  END
$$$$
