FVI.pdb
     RDKit          3D

 27 27  0  0  1  0  0  0  0  0999 V2000
    7.2898  -17.7214   19.5580 N   0  0  0  0  0  0  0  0  0  0  0  0
    7.8138  -16.5634   20.2639 C   0  0  1  0  0  0  0  0  0  0  0  0
    6.6543  -15.5625   20.3448 C   0  0  0  0  0  0  0  0  0  0  0  0
    7.1813  -14.3520   21.0136 C   0  0  0  0  0  0  0  0  0  0  0  0
    7.9563  -13.4297   20.3542 C   0  0  0  0  0  0  0  0  0  0  0  0
    8.4542  -12.2989   20.9615 C   0  0  0  0  0  0  0  0  0  0  0  0
    8.1482  -12.1068   22.2873 C   0  0  0  0  0  0  0  0  0  0  0  0
    7.3722  -13.0182   22.9706 C   0  0  0  0  0  0  0  0  0  0  0  0
    6.8816  -14.1496   22.3395 C   0  0  0  0  0  0  0  0  0  0  0  0
    8.1909  -16.9849   21.6449 C   0  0  0  0  0  0  0  0  0  0  0  0
    7.3960  -17.6452   22.3583 O   0  0  0  0  0  0  0  0  0  0  0  0
   11.0676  -19.2157   22.5070 C   0  0  0  0  0  0  0  0  0  0  0  0
   11.0726  -18.0857   23.4819 C   0  0  2  0  0  0  0  0  0  0  0  0
   11.4603  -18.5343   24.8894 C   0  0  0  0  0  0  0  0  0  0  0  0
    9.8505  -17.2431   23.4844 C   0  0  2  0  0  0  0  0  0  0  0  0
    9.4179  -16.6945   22.2497 N   0  0  0  0  0  0  0  0  0  0  0  0
   10.0630  -16.1067   24.4358 C   0  0  0  0  0  0  0  0  0  0  0  0
   10.8834  -15.1612   24.1696 O   0  0  0  0  0  0  0  0  0  0  0  0
    6.6400  -12.7242   26.4475 C   0  0  0  0  0  0  0  0  0  0  0  0
    7.9057  -13.4441   26.0112 C   0  0  0  0  0  0  0  0  0  0  0  0
    8.5848  -14.1762   27.1165 C   0  0  2  0  0  0  0  0  0  0  0  0
    9.0284  -13.1543   28.1421 C   0  0  0  0  0  0  0  0  0  0  0  0
    9.7500  -15.0232   26.6993 C   0  0  2  0  0  0  0  0  0  0  0  0
    9.3935  -15.9853   25.6745 N   0  0  0  0  0  0  0  0  0  0  0  0
   10.5085  -15.6226   27.7991 C   0  0  0  0  0  0  0  0  0  0  0  0
   11.4706  -15.0905   28.3826 O   0  0  0  0  0  0  0  0  0  0  0  0
   10.1445  -16.9042   28.2564 O   0  0  0  0  0  0  0  0  0  0  0  0
  2  1  1  6
  3  2  1  0
  4  3  1  0
  4  9  2  0
  5  4  1  0
  6  5  2  0
  6  7  1  0
  7  8  2  0
  8  9  1  0
 10  2  1  0
 11 10  2  0
 13 15  1  0
 13 12  1  6
 14 13  1  0
 15 16  1  6
 16 10  1  0
 17 18  2  0
 17 15  1  0
 19 20  1  0
 20 21  1  0
 21 23  1  0
 21 22  1  1
 23 24  1  6
 24 17  1  0
 25 27  1  0
 25 23  1  0
 26 25  2  0
M  END
$$$$
