FVI.pdb
     RDKit          3D

 27 27  0  0  1  0  0  0  0  0999 V2000
    7.1290  -16.1758   26.2382 N   0  0  0  0  0  0  0  0  0  0  0  0
    6.3033  -16.7354   25.1804 C   0  0  1  0  0  0  0  0  0  0  0  0
    5.1639  -15.7317   24.9636 C   0  0  0  0  0  0  0  0  0  0  0  0
    5.6600  -14.4164   25.4266 C   0  0  0  0  0  0  0  0  0  0  0  0
    5.1635  -13.8002   26.5491 C   0  0  0  0  0  0  0  0  0  0  0  0
    5.6139  -12.5773   26.9930 C   0  0  0  0  0  0  0  0  0  0  0  0
    6.6050  -11.9660   26.2635 C   0  0  0  0  0  0  0  0  0  0  0  0
    7.1193  -12.5644   25.1335 C   0  0  0  0  0  0  0  0  0  0  0  0
    6.6511  -13.7957   24.7047 C   0  0  0  0  0  0  0  0  0  0  0  0
    7.1236  -16.8175   23.9365 C   0  0  0  0  0  0  0  0  0  0  0  0
    7.0180  -17.7958   23.1565 O   0  0  0  0  0  0  0  0  0  0  0  0
   10.1312  -13.9960   21.9734 C   0  0  0  0  0  0  0  0  0  0  0  0
    9.7740  -15.4338   21.7926 C   0  0  2  0  0  0  0  0  0  0  0  0
    8.7996  -15.6495   20.6366 C   0  0  0  0  0  0  0  0  0  0  0  0
    9.3402  -16.1404   23.0239 C   0  0  2  0  0  0  0  0  0  0  0  0
    8.0510  -15.8491   23.5392 N   0  0  0  0  0  0  0  0  0  0  0  0
   10.3357  -15.8570   24.1059 C   0  0  0  0  0  0  0  0  0  0  0  0
   10.9128  -14.7184   24.1969 O   0  0  0  0  0  0  0  0  0  0  0  0
   10.1088  -12.8687   27.2523 C   0  0  0  0  0  0  0  0  0  0  0  0
   10.9542  -13.9598   26.6154 C   0  0  0  0  0  0  0  0  0  0  0  0
   10.5802  -15.3337   27.0528 C   0  0  2  0  0  0  0  0  0  0  0  0
   10.8015  -15.4176   28.5484 C   0  0  0  0  0  0  0  0  0  0  0  0
   11.3140  -16.4447   26.3626 C   0  0  2  0  0  0  0  0  0  0  0  0
   10.7116  -16.7975   25.0915 N   0  0  0  0  0  0  0  0  0  0  0  0
   11.6003  -17.6134   27.1971 C   0  0  0  0  0  0  0  0  0  0  0  0
   12.4447  -17.6550   28.1106 O   0  0  0  0  0  0  0  0  0  0  0  0
   10.8787  -18.8020   26.9723 O   0  0  0  0  0  0  0  0  0  0  0  0
  2  1  1  1
  3  2  1  0
  4  3  1  0
  4  9  2  0
  5  4  1  0
  6  5  2  0
  6  7  1  0
  7  8  2  0
  8  9  1  0
 10  2  1  0
 11 10  2  0
 13 15  1  0
 13 12  1  1
 14 13  1  0
 15 16  1  1
 16 10  1  0
 17 18  2  0
 17 15  1  0
 19 20  1  0
 20 21  1  0
 21 23  1  0
 21 22  1  1
 23 24  1  6
 24 17  1  0
 25 27  1  0
 25 23  1  0
 26 25  2  0
M  END
$$$$
