FVI.pdb
     RDKit          3D

 27 27  0  0  1  0  0  0  0  0999 V2000
    5.7451  -18.9519   24.5468 N   0  0  0  0  0  0  0  0  0  0  0  0
    5.9523  -17.5309   24.7742 C   0  0  1  0  0  0  0  0  0  0  0  0
    6.0613  -17.3618   26.2948 C   0  0  0  0  0  0  0  0  0  0  0  0
    6.0115  -15.9079   26.5672 C   0  0  0  0  0  0  0  0  0  0  0  0
    5.0345  -15.0976   26.0427 C   0  0  0  0  0  0  0  0  0  0  0  0
    4.9740  -13.7440   26.2863 C   0  0  0  0  0  0  0  0  0  0  0  0
    5.9458  -13.2030   27.0932 C   0  0  0  0  0  0  0  0  0  0  0  0
    6.9367  -13.9956   27.6313 C   0  0  0  0  0  0  0  0  0  0  0  0
    6.9783  -15.3560   27.3729 C   0  0  0  0  0  0  0  0  0  0  0  0
    7.2477  -17.1377   24.1462 C   0  0  0  0  0  0  0  0  0  0  0  0
    8.1934  -17.9579   24.0486 O   0  0  0  0  0  0  0  0  0  0  0  0
    7.5358  -14.1011   21.1857 C   0  0  0  0  0  0  0  0  0  0  0  0
    8.6882  -14.2720   22.1186 C   0  0  2  0  0  0  0  0  0  0  0  0
   10.0309  -14.0215   21.4353 C   0  0  0  0  0  0  0  0  0  0  0  0
    8.6902  -15.5330   22.9017 C   0  0  2  0  0  0  0  0  0  0  0  0
    7.5182  -15.8674   23.6278 N   0  0  0  0  0  0  0  0  0  0  0  0
    9.8272  -15.4821   23.8747 C   0  0  0  0  0  0  0  0  0  0  0  0
   10.8489  -14.7406   23.6652 O   0  0  0  0  0  0  0  0  0  0  0  0
   10.4604  -12.2083   26.9589 C   0  0  0  0  0  0  0  0  0  0  0  0
   10.7683  -13.4627   26.1575 C   0  0  0  0  0  0  0  0  0  0  0  0
   10.5018  -14.7249   26.9024 C   0  0  2  0  0  0  0  0  0  0  0  0
   11.3030  -14.6802   28.1865 C   0  0  0  0  0  0  0  0  0  0  0  0
   10.8078  -15.9860   26.1506 C   0  0  2  0  0  0  0  0  0  0  0  0
    9.8669  -16.2285   25.0742 N   0  0  0  0  0  0  0  0  0  0  0  0
   11.0308  -17.1686   26.9847 C   0  0  0  0  0  0  0  0  0  0  0  0
   10.2337  -18.1153   27.1174 O   0  0  0  0  0  0  0  0  0  0  0  0
   12.2350  -17.2728   27.7080 O   0  0  0  0  0  0  0  0  0  0  0  0
  2  1  1  1
  3  2  1  0
  4  3  1  0
  4  9  2  0
  5  4  1  0
  6  5  2  0
  6  7  1  0
  7  8  2  0
  8  9  1  0
 10  2  1  0
 11 10  2  0
 13 15  1  0
 13 12  1  6
 14 13  1  0
 15 16  1  1
 16 10  1  0
 17 18  2  0
 17 15  1  0
 19 20  1  0
 20 21  1  0
 21 23  1  0
 21 22  1  1
 23 24  1  6
 24 17  1  0
 25 27  1  0
 25 23  1  0
 26 25  2  0
M  END
$$$$
