FVI.pdb
     RDKit          3D

 27 27  0  0  1  0  0  0  0  0999 V2000
    5.6916  -18.3672   24.5385 N   0  0  0  0  0  0  0  0  0  0  0  0
    6.2852  -17.0400   24.5311 C   0  0  1  0  0  0  0  0  0  0  0  0
    5.9354  -16.4174   25.8885 C   0  0  0  0  0  0  0  0  0  0  0  0
    6.0749  -14.9520   25.7346 C   0  0  0  0  0  0  0  0  0  0  0  0
    7.2846  -14.3142   25.8610 C   0  0  0  0  0  0  0  0  0  0  0  0
    7.4313  -12.9526   25.7209 C   0  0  0  0  0  0  0  0  0  0  0  0
    6.3022  -12.2206   25.4421 C   0  0  0  0  0  0  0  0  0  0  0  0
    5.0769  -12.8379   25.3106 C   0  0  0  0  0  0  0  0  0  0  0  0
    4.9523  -14.2099   25.4557 C   0  0  0  0  0  0  0  0  0  0  0  0
    7.7668  -17.1876   24.4301 C   0  0  0  0  0  0  0  0  0  0  0  0
    8.3620  -18.1341   25.0015 O   0  0  0  0  0  0  0  0  0  0  0  0
   10.6844  -14.3657   22.4408 C   0  0  0  0  0  0  0  0  0  0  0  0
   10.6149  -15.8528   22.3355 C   0  0  2  0  0  0  0  0  0  0  0  0
   10.0328  -16.3142   21.0010 C   0  0  0  0  0  0  0  0  0  0  0  0
    9.9799  -16.5424   23.4865 C   0  0  2  0  0  0  0  0  0  0  0  0
    8.5981  -16.3183   23.7168 N   0  0  0  0  0  0  0  0  0  0  0  0
   10.7156  -16.1560   24.7321 C   0  0  0  0  0  0  0  0  0  0  0  0
   11.6477  -15.2795   24.7090 O   0  0  0  0  0  0  0  0  0  0  0  0
    9.2424  -13.2629   28.4852 C   0  0  0  0  0  0  0  0  0  0  0  0
   10.1278  -14.1062   27.5821 C   0  0  0  0  0  0  0  0  0  0  0  0
   10.3949  -15.4706   28.1168 C   0  0  2  0  0  0  0  0  0  0  0  0
   11.1142  -15.3145   29.4401 C   0  0  0  0  0  0  0  0  0  0  0  0
   11.1809  -16.3689   27.2087 C   0  0  2  0  0  0  0  0  0  0  0  0
   10.4498  -16.7117   26.0041 N   0  0  0  0  0  0  0  0  0  0  0  0
   11.7826  -17.5359   27.8569 C   0  0  0  0  0  0  0  0  0  0  0  0
   12.6619  -17.4957   28.7370 O   0  0  0  0  0  0  0  0  0  0  0  0
   11.3531  -18.8220   27.4754 O   0  0  0  0  0  0  0  0  0  0  0  0
  2  1  1  1
  3  2  1  0
  4  3  1  0
  4  9  2  0
  5  4  1  0
  6  5  2  0
  6  7  1  0
  7  8  2  0
  8  9  1  0
 10  2  1  0
 11 10  2  0
 13 15  1  0
 13 12  1  1
 14 13  1  0
 15 16  1  1
 16 10  1  0
 17 18  2  0
 17 15  1  0
 19 20  1  0
 20 21  1  0
 21 23  1  0
 21 22  1  1
 23 24  1  6
 24 17  1  0
 25 27  1  0
 25 23  1  0
 26 25  2  0
M  END
$$$$
