FVI.pdb
     RDKit          3D

 27 27  0  0  1  0  0  0  0  0999 V2000
    5.5575  -18.6056   24.7664 N   0  0  0  0  0  0  0  0  0  0  0  0
    5.8061  -17.1764   24.8638 C   0  0  1  0  0  0  0  0  0  0  0  0
    5.8151  -16.8544   26.3635 C   0  0  0  0  0  0  0  0  0  0  0  0
    5.6513  -15.3886   26.4863 C   0  0  0  0  0  0  0  0  0  0  0  0
    6.6534  -14.5766   26.9580 C   0  0  0  0  0  0  0  0  0  0  0  0
    6.5171  -13.2120   27.0783 C   0  0  0  0  0  0  0  0  0  0  0  0
    5.3153  -12.6614   26.7032 C   0  0  0  0  0  0  0  0  0  0  0  0
    4.2945  -13.4555   26.2268 C   0  0  0  0  0  0  0  0  0  0  0  0
    4.4535  -14.8270   26.1140 C   0  0  0  0  0  0  0  0  0  0  0  0
    7.1573  -16.8939   24.2967 C   0  0  0  0  0  0  0  0  0  0  0  0
    8.0723  -17.7522   24.3498 O   0  0  0  0  0  0  0  0  0  0  0  0
    8.7209  -12.9974   22.6293 C   0  0  0  0  0  0  0  0  0  0  0  0
    8.7928  -14.3545   22.0125 C   0  0  2  0  0  0  0  0  0  0  0  0
    7.8079  -14.5205   20.8571 C   0  0  0  0  0  0  0  0  0  0  0  0
    8.7268  -15.4902   22.9660 C   0  0  2  0  0  0  0  0  0  0  0  0
    7.5161  -15.6927   23.6772 N   0  0  0  0  0  0  0  0  0  0  0  0
    9.8221  -15.3245   23.9734 C   0  0  0  0  0  0  0  0  0  0  0  0
   10.5974  -14.3067   23.9513 O   0  0  0  0  0  0  0  0  0  0  0  0
   10.7278  -12.3887   27.2532 C   0  0  0  0  0  0  0  0  0  0  0  0
   11.0423  -13.5486   26.3224 C   0  0  0  0  0  0  0  0  0  0  0  0
   10.7656  -14.8841   26.9215 C   0  0  2  0  0  0  0  0  0  0  0  0
   11.5493  -14.9810   28.2134 C   0  0  0  0  0  0  0  0  0  0  0  0
   11.0816  -16.0561   26.0407 C   0  0  2  0  0  0  0  0  0  0  0  0
   10.0848  -16.2530   25.0060 N   0  0  0  0  0  0  0  0  0  0  0  0
   11.4148  -17.2938   26.7486 C   0  0  0  0  0  0  0  0  0  0  0  0
   10.6862  -18.3006   26.8184 O   0  0  0  0  0  0  0  0  0  0  0  0
   12.6528  -17.3836   27.4145 O   0  0  0  0  0  0  0  0  0  0  0  0
  2  1  1  1
  3  2  1  0
  4  3  1  0
  4  9  2  0
  5  4  1  0
  6  5  2  0
  6  7  1  0
  7  8  2  0
  8  9  1  0
 10  2  1  0
 11 10  2  0
 13 15  1  0
 13 12  1  1
 14 13  1  0
 15 16  1  1
 16 10  1  0
 17 18  2  0
 17 15  1  0
 19 20  1  0
 20 21  1  0
 21 23  1  0
 21 22  1  1
 23 24  1  6
 24 17  1  0
 25 27  1  0
 25 23  1  0
 26 25  2  0
M  END
$$$$
