MCK.pdb
     RDKit          3D

 24 23  0  0  1  0  0  0  0  0999 V2000
    6.5995  -11.0761   26.6894 C   0  0  0  0  0  0  0  0  0  0  0  0
    6.2916  -12.4569   25.5504 S   0  0  0  0  0  0  0  0  0  0  0  0
    7.5002  -12.4027   24.2263 C   0  0  0  0  0  0  0  0  0  0  0  0
    7.3029  -13.4471   23.1743 C   0  0  0  0  0  0  0  0  0  0  0  0
    7.5411  -14.8438   23.6677 C   0  0  2  0  0  0  0  0  0  0  0  0
    6.4129  -15.3606   24.3959 N   0  0  0  0  0  0  0  0  0  0  0  0
    8.8021  -14.9736   24.4479 C   0  0  0  0  0  0  0  0  0  0  0  0
    9.9218  -14.6452   23.9875 O   0  0  0  0  0  0  0  0  0  0  0  0
    8.7450  -15.4865   25.7610 N   0  0  0  0  0  0  0  0  0  0  0  0
    9.9715  -15.5795   26.5244 C   0  0  1  0  0  0  0  0  0  0  0  0
    9.7646  -14.7227   27.7808 C   0  0  0  0  0  0  0  0  0  0  0  0
   11.2704  -14.7744   28.7633 S   0  0  0  0  0  0  0  0  0  0  0  0
   10.1814  -16.9842   27.0200 C   0  0  0  0  0  0  0  0  0  0  0  0
    9.2179  -17.5610   27.5318 O   0  0  0  0  0  0  0  0  0  0  0  0
   11.4450  -17.5973   26.8921 N   0  0  0  0  0  0  0  0  0  0  0  0
   11.7273  -18.9868   27.2799 C   0  0  1  0  0  0  0  0  0  0  0  0
   12.8655  -19.4425   26.4639 C   0  0  0  0  0  0  0  0  0  0  0  0
   12.8155  -19.3708   24.9948 C   0  0  0  0  0  0  0  0  0  0  0  0
   13.9622  -19.7112   24.1671 C   0  0  0  0  0  0  0  0  0  0  0  0
   13.9303  -19.7380   22.7035 C   0  0  0  0  0  0  0  0  0  0  0  0
   15.1190  -20.0605   22.0143 N   0  0  0  0  0  0  0  0  0  0  0  0
   12.0470  -18.9510   28.7405 C   0  0  0  0  0  0  0  0  0  0  0  0
   11.8218  -20.0703   29.5029 O   0  0  0  0  0  0  0  0  0  0  0  0
   12.5190  -17.9469   29.3288 O   0  0  0  0  0  0  0  0  0  0  0  0
  1  2  1  0
  2  3  1  0
  4  3  1  0
  5  4  1  0
  5  6  1  1
  7  8  2  0
  7  5  1  0
  9  7  1  0
 10  9  1  0
 10 11  1  1
 12 11  1  0
 13 15  1  0
 13 10  1  0
 14 13  2  0
 16 15  1  0
 16 22  1  0
 16 17  1  6
 17 18  1  0
 19 18  1  0
 20 19  1  0
 20 21  1  0
 22 23  1  0
 24 22  2  0
M  END
$$$$
