MCK.pdb
     RDKit          3D

 24 23  0  0  1  0  0  0  0  0999 V2000
    6.7924  -11.4420   19.1640 C   0  0  0  0  0  0  0  0  0  0  0  0
    8.4369  -12.2021   19.0346 S   0  0  0  0  0  0  0  0  0  0  0  0
    8.4658  -13.7027   20.0165 C   0  0  0  0  0  0  0  0  0  0  0  0
    7.1150  -14.1795   20.4459 C   0  0  0  0  0  0  0  0  0  0  0  0
    7.1545  -15.4592   21.2281 C   0  0  2  0  0  0  0  0  0  0  0  0
    5.8387  -15.9935   21.4588 N   0  0  0  0  0  0  0  0  0  0  0  0
    7.9260  -15.3380   22.4953 C   0  0  0  0  0  0  0  0  0  0  0  0
    9.1798  -15.3211   22.5275 O   0  0  0  0  0  0  0  0  0  0  0  0
    7.2258  -15.2375   23.7161 N   0  0  0  0  0  0  0  0  0  0  0  0
    7.9837  -15.1401   24.9456 C   0  0  1  0  0  0  0  0  0  0  0  0
    6.9861  -14.7282   26.0368 C   0  0  0  0  0  0  0  0  0  0  0  0
    6.5672  -12.9944   25.8044 S   0  0  0  0  0  0  0  0  0  0  0  0
    8.5015  -16.4912   25.3568 C   0  0  0  0  0  0  0  0  0  0  0  0
    7.6966  -17.4258   25.3948 O   0  0  0  0  0  0  0  0  0  0  0  0
    9.8638  -16.6568   25.6824 N   0  0  0  0  0  0  0  0  0  0  0  0
   10.5036  -17.9620   25.9010 C   0  0  1  0  0  0  0  0  0  0  0  0
   11.4318  -18.1836   24.7791 C   0  0  0  0  0  0  0  0  0  0  0  0
   10.9248  -18.4440   23.4223 C   0  0  0  0  0  0  0  0  0  0  0  0
   11.8171  -18.6380   22.2901 C   0  0  0  0  0  0  0  0  0  0  0  0
   11.3579  -18.9583   20.9372 C   0  0  0  0  0  0  0  0  0  0  0  0
   12.3273  -19.1494   19.9294 N   0  0  0  0  0  0  0  0  0  0  0  0
   11.2081  -17.8615   27.2164 C   0  0  0  0  0  0  0  0  0  0  0  0
   11.1885  -16.6693   27.8970 O   0  0  0  0  0  0  0  0  0  0  0  0
   11.8274  -18.8133   27.7528 O   0  0  0  0  0  0  0  0  0  0  0  0
  1  2  1  0
  2  3  1  0
  4  3  1  0
  5  4  1  0
  5  6  1  1
  7  8  2  0
  7  5  1  0
  9  7  1  0
 10  9  1  0
 10 11  1  1
 12 11  1  0
 13 15  1  0
 13 10  1  0
 14 13  2  0
 16 15  1  0
 16 22  1  0
 16 17  1  6
 17 18  1  0
 19 18  1  0
 20 19  1  0
 20 21  1  0
 22 23  1  0
 24 22  2  0
M  END
$$$$
