MCK.pdb
     RDKit          3D

 24 23  0  0  1  0  0  0  0  0999 V2000
    7.6466  -11.9982   20.8758 C   0  0  0  0  0  0  0  0  0  0  0  0
    8.6339  -12.9114   19.6551 S   0  0  0  0  0  0  0  0  0  0  0  0
    7.9015  -14.5292   19.4037 C   0  0  0  0  0  0  0  0  0  0  0  0
    7.7803  -15.3466   20.6501 C   0  0  0  0  0  0  0  0  0  0  0  0
    9.0601  -16.0206   21.0487 C   0  0  2  0  0  0  0  0  0  0  0  0
    9.6226  -16.7938   19.9735 N   0  0  0  0  0  0  0  0  0  0  0  0
    8.9247  -16.8287   22.2914 C   0  0  0  0  0  0  0  0  0  0  0  0
    8.3472  -16.4009   23.3195 O   0  0  0  0  0  0  0  0  0  0  0  0
    9.4655  -18.1314   22.3232 N   0  0  0  0  0  0  0  0  0  0  0  0
    9.3900  -18.8850   23.5570 C   0  0  1  0  0  0  0  0  0  0  0  0
    8.9626  -20.3072   23.1693 C   0  0  0  0  0  0  0  0  0  0  0  0
   10.2731  -21.0511   22.1871 S   0  0  0  0  0  0  0  0  0  0  0  0
   10.7538  -19.0247   24.1763 C   0  0  0  0  0  0  0  0  0  0  0  0
   11.7336  -18.9218   23.4332 O   0  0  0  0  0  0  0  0  0  0  0  0
   10.8802  -19.2647   25.5603 N   0  0  0  0  0  0  0  0  0  0  0  0
   12.1669  -19.4303   26.2514 C   0  0  1  0  0  0  0  0  0  0  0  0
   11.8732  -19.5694   27.6880 C   0  0  0  0  0  0  0  0  0  0  0  0
   12.9380  -19.9107   28.6448 C   0  0  0  0  0  0  0  0  0  0  0  0
   12.6895  -19.9994   30.0752 C   0  0  0  0  0  0  0  0  0  0  0  0
   13.6870  -20.4483   31.0484 C   0  0  0  0  0  0  0  0  0  0  0  0
   13.2779  -20.6403   32.3856 N   0  0  0  0  0  0  0  0  0  0  0  0
   12.7915  -20.6597   25.6724 C   0  0  0  0  0  0  0  0  0  0  0  0
   14.1500  -20.6922   25.4773 O   0  0  0  0  0  0  0  0  0  0  0  0
   12.1449  -21.6861   25.3475 O   0  0  0  0  0  0  0  0  0  0  0  0
  1  2  1  0
  2  3  1  0
  4  3  1  0
  5  4  1  0
  5  6  1  6
  7  8  2  0
  7  5  1  0
  9  7  1  0
 10  9  1  0
 10 11  1  6
 12 11  1  0
 13 15  1  0
 13 10  1  0
 14 13  2  0
 16 15  1  0
 16 22  1  0
 16 17  1  1
 17 18  1  0
 19 18  1  0
 20 19  1  0
 20 21  1  0
 22 23  1  0
 24 22  2  0
M  END
$$$$
