MCK.pdb
     RDKit          3D

 24 23  0  0  1  0  0  0  0  0999 V2000
    7.8631  -11.1317   20.2339 C   0  0  0  0  0  0  0  0  0  0  0  0
    7.3835  -12.4974   19.1368 S   0  0  0  0  0  0  0  0  0  0  0  0
    7.2217  -13.9972   20.1071 C   0  0  0  0  0  0  0  0  0  0  0  0
    8.1865  -14.0968   21.2453 C   0  0  0  0  0  0  0  0  0  0  0  0
    8.0563  -15.3699   22.0285 C   0  0  2  0  0  0  0  0  0  0  0  0
    6.6835  -15.7711   22.1853 N   0  0  0  0  0  0  0  0  0  0  0  0
    8.7643  -15.3183   23.3368 C   0  0  0  0  0  0  0  0  0  0  0  0
   10.0130  -15.2445   23.4302 O   0  0  0  0  0  0  0  0  0  0  0  0
    8.0071  -15.3533   24.5268 N   0  0  0  0  0  0  0  0  0  0  0  0
    8.7028  -15.2917   25.7949 C   0  0  1  0  0  0  0  0  0  0  0  0
    7.7299  -14.6456   26.7906 C   0  0  0  0  0  0  0  0  0  0  0  0
    7.5398  -12.9094   26.3606 S   0  0  0  0  0  0  0  0  0  0  0  0
    8.9654  -16.6758   26.3224 C   0  0  0  0  0  0  0  0  0  0  0  0
    7.9999  -17.4342   26.4466 O   0  0  0  0  0  0  0  0  0  0  0  0
   10.2785  -17.0676   26.6559 N   0  0  0  0  0  0  0  0  0  0  0  0
   10.6217  -18.3651   27.2555 C   0  0  1  0  0  0  0  0  0  0  0  0
   11.8021  -18.8761   26.5381 C   0  0  0  0  0  0  0  0  0  0  0  0
   11.7038  -19.3007   25.1325 C   0  0  0  0  0  0  0  0  0  0  0  0
   12.8673  -19.7351   24.3753 C   0  0  0  0  0  0  0  0  0  0  0  0
   12.8507  -19.9937   22.9343 C   0  0  0  0  0  0  0  0  0  0  0  0
   14.0474  -20.4158   22.3165 N   0  0  0  0  0  0  0  0  0  0  0  0
   10.9020  -18.0918   28.6990 C   0  0  0  0  0  0  0  0  0  0  0  0
   10.9323  -19.1397   29.5853 O   0  0  0  0  0  0  0  0  0  0  0  0
   11.1179  -16.9456   29.1648 O   0  0  0  0  0  0  0  0  0  0  0  0
  1  2  1  0
  2  3  1  0
  4  3  1  0
  5  4  1  0
  5  6  1  1
  7  8  2  0
  7  5  1  0
  9  7  1  0
 10  9  1  0
 10 11  1  1
 12 11  1  0
 13 15  1  0
 13 10  1  0
 14 13  2  0
 16 15  1  0
 16 22  1  0
 16 17  1  6
 17 18  1  0
 19 18  1  0
 20 19  1  0
 20 21  1  0
 22 23  1  0
 24 22  2  0
M  END
$$$$
