MCK.pdb
     RDKit          3D

 24 23  0  0  1  0  0  0  0  0999 V2000
    5.5568  -19.8200   23.9372 C   0  0  0  0  0  0  0  0  0  0  0  0
    5.4102  -19.8076   22.1268 S   0  0  0  0  0  0  0  0  0  0  0  0
    5.9042  -18.1968   21.5117 C   0  0  0  0  0  0  0  0  0  0  0  0
    6.7282  -17.4009   22.4730 C   0  0  0  0  0  0  0  0  0  0  0  0
    6.9923  -15.9974   22.0131 C   0  0  2  0  0  0  0  0  0  0  0  0
    7.6605  -15.9617   20.7394 N   0  0  0  0  0  0  0  0  0  0  0  0
    7.7097  -15.1815   23.0306 C   0  0  0  0  0  0  0  0  0  0  0  0
    8.9577  -15.0564   23.0431 O   0  0  0  0  0  0  0  0  0  0  0  0
    6.9625  -14.5176   24.0264 N   0  0  0  0  0  0  0  0  0  0  0  0
    7.6681  -13.9101   25.1349 C   0  0  1  0  0  0  0  0  0  0  0  0
    6.6595  -12.9912   25.8377 C   0  0  0  0  0  0  0  0  0  0  0  0
    7.4741  -12.2138   27.2404 S   0  0  0  0  0  0  0  0  0  0  0  0
    8.0496  -14.9495   26.1532 C   0  0  0  0  0  0  0  0  0  0  0  0
    7.1692  -15.7230   26.5396 O   0  0  0  0  0  0  0  0  0  0  0  0
    9.3742  -15.0160   26.6330 N   0  0  0  0  0  0  0  0  0  0  0  0
    9.8499  -16.0194   27.5960 C   0  0  1  0  0  0  0  0  0  0  0  0
   10.9943  -16.7083   26.9755 C   0  0  0  0  0  0  0  0  0  0  0  0
   11.1313  -18.1709   27.0640 C   0  0  0  0  0  0  0  0  0  0  0  0
   12.2228  -18.8833   26.4184 C   0  0  0  0  0  0  0  0  0  0  0  0
   12.3485  -20.3420   26.4066 C   0  0  0  0  0  0  0  0  0  0  0  0
   13.4789  -20.9109   25.7816 N   0  0  0  0  0  0  0  0  0  0  0  0
   10.2357  -15.2610   28.8260 C   0  0  0  0  0  0  0  0  0  0  0  0
   10.5755  -15.9543   29.9611 O   0  0  0  0  0  0  0  0  0  0  0  0
   10.2726  -14.0074   28.8920 O   0  0  0  0  0  0  0  0  0  0  0  0
  1  2  1  0
  2  3  1  0
  4  3  1  0
  5  4  1  0
  5  6  1  6
  7  8  2  0
  7  5  1  0
  9  7  1  0
 10  9  1  0
 10 11  1  1
 12 11  1  0
 13 15  1  0
 13 10  1  0
 14 13  2  0
 16 15  1  0
 16 22  1  0
 16 17  1  6
 17 18  1  0
 19 18  1  0
 20 19  1  0
 20 21  1  0
 22 23  1  0
 24 22  2  0
M  END
$$$$
