MCK.pdb
     RDKit          3D

 24 23  0  0  1  0  0  0  0  0999 V2000
    7.2127  -11.9511   20.6685 C   0  0  0  0  0  0  0  0  0  0  0  0
    8.3352  -12.7183   19.4642 S   0  0  0  0  0  0  0  0  0  0  0  0
    8.6374  -14.4187   19.9480 C   0  0  0  0  0  0  0  0  0  0  0  0
    7.4456  -15.1111   20.5282 C   0  0  0  0  0  0  0  0  0  0  0  0
    7.7677  -15.9446   21.7335 C   0  0  2  0  0  0  0  0  0  0  0  0
    6.6550  -16.7610   22.1403 N   0  0  0  0  0  0  0  0  0  0  0  0
    8.2993  -15.1397   22.8672 C   0  0  0  0  0  0  0  0  0  0  0  0
    9.4937  -14.7617   22.9297 O   0  0  0  0  0  0  0  0  0  0  0  0
    7.4305  -14.7825   23.9198 N   0  0  0  0  0  0  0  0  0  0  0  0
    7.9977  -14.2281   25.1309 C   0  0  1  0  0  0  0  0  0  0  0  0
    6.8783  -13.4206   25.8021 C   0  0  0  0  0  0  0  0  0  0  0  0
    7.5188  -12.7116   27.3261 S   0  0  0  0  0  0  0  0  0  0  0  0
    8.3475  -15.3231   26.1012 C   0  0  0  0  0  0  0  0  0  0  0  0
    7.4369  -16.0645   26.4807 O   0  0  0  0  0  0  0  0  0  0  0  0
    9.6773  -15.4751   26.5457 N   0  0  0  0  0  0  0  0  0  0  0  0
   10.1136  -16.5109   27.4931 C   0  0  1  0  0  0  0  0  0  0  0  0
   11.1701  -17.2913   26.8268 C   0  0  0  0  0  0  0  0  0  0  0  0
   10.8945  -18.0193   25.5778 C   0  0  0  0  0  0  0  0  0  0  0  0
   11.9344  -18.7402   24.8604 C   0  0  0  0  0  0  0  0  0  0  0  0
   11.7394  -19.3563   23.5466 C   0  0  0  0  0  0  0  0  0  0  0  0
   12.8283  -20.0340   22.9573 N   0  0  0  0  0  0  0  0  0  0  0  0
   10.6137  -15.7825   28.6999 C   0  0  0  0  0  0  0  0  0  0  0  0
   10.6429  -14.4100   28.6892 O   0  0  0  0  0  0  0  0  0  0  0  0
   11.0153  -16.3524   29.7444 O   0  0  0  0  0  0  0  0  0  0  0  0
  1  2  1  0
  2  3  1  0
  4  3  1  0
  5  4  1  0
  5  6  1  1
  7  8  2  0
  7  5  1  0
  9  7  1  0
 10  9  1  0
 10 11  1  1
 12 11  1  0
 13 15  1  0
 13 10  1  0
 14 13  2  0
 16 15  1  0
 16 22  1  0
 16 17  1  6
 17 18  1  0
 19 18  1  0
 20 19  1  0
 20 21  1  0
 22 23  1  0
 24 22  2  0
M  END
$$$$
