MCK.pdb
     RDKit          3D

 24 23  0  0  1  0  0  0  0  0999 V2000
    7.8273  -11.2193   20.1196 C   0  0  0  0  0  0  0  0  0  0  0  0
    7.3632  -12.6952   19.1681 S   0  0  0  0  0  0  0  0  0  0  0  0
    7.0896  -14.0585   20.3011 C   0  0  0  0  0  0  0  0  0  0  0  0
    8.1744  -14.2395   21.3143 C   0  0  0  0  0  0  0  0  0  0  0  0
    7.9268  -15.3804   22.2567 C   0  0  2  0  0  0  0  0  0  0  0  0
    6.5328  -15.5185   22.5852 N   0  0  0  0  0  0  0  0  0  0  0  0
    8.7733  -15.3141   23.4792 C   0  0  0  0  0  0  0  0  0  0  0  0
   10.0270  -15.3145   23.4374 O   0  0  0  0  0  0  0  0  0  0  0  0
    8.1479  -15.2477   24.7422 N   0  0  0  0  0  0  0  0  0  0  0  0
    8.9780  -15.2216   25.9279 C   0  0  1  0  0  0  0  0  0  0  0  0
    8.2072  -14.4093   26.9774 C   0  0  0  0  0  0  0  0  0  0  0  0
    8.1477  -12.6930   26.4423 S   0  0  0  0  0  0  0  0  0  0  0  0
    9.1189  -16.6033   26.5059 C   0  0  0  0  0  0  0  0  0  0  0  0
    8.0882  -17.2589   26.6809 O   0  0  0  0  0  0  0  0  0  0  0  0
   10.3961  -17.1078   26.8278 N   0  0  0  0  0  0  0  0  0  0  0  0
   10.6415  -18.4726   27.3153 C   0  0  1  0  0  0  0  0  0  0  0  0
   11.7606  -19.0195   26.5292 C   0  0  0  0  0  0  0  0  0  0  0  0
   12.3135  -20.3496   26.8307 C   0  0  0  0  0  0  0  0  0  0  0  0
   13.4124  -20.9188   26.0664 C   0  0  0  0  0  0  0  0  0  0  0  0
   13.9639  -22.2541   26.3044 C   0  0  0  0  0  0  0  0  0  0  0  0
   14.9091  -22.7608   25.3869 N   0  0  0  0  0  0  0  0  0  0  0  0
   10.9725  -18.3391   28.7677 C   0  0  0  0  0  0  0  0  0  0  0  0
   10.7326  -19.3970   29.6091 O   0  0  0  0  0  0  0  0  0  0  0  0
   11.4669  -17.3046   29.2802 O   0  0  0  0  0  0  0  0  0  0  0  0
  1  2  1  0
  2  3  1  0
  4  3  1  0
  5  4  1  0
  5  6  1  1
  7  8  2  0
  7  5  1  0
  9  7  1  0
 10  9  1  0
 10 11  1  1
 12 11  1  0
 13 15  1  0
 13 10  1  0
 14 13  2  0
 16 15  1  0
 16 22  1  0
 16 17  1  6
 17 18  1  0
 19 18  1  0
 20 19  1  0
 20 21  1  0
 22 23  1  0
 24 22  2  0
M  END
$$$$
