MCK.pdb
     RDKit          3D

 24 23  0  0  1  0  0  0  0  0999 V2000
    5.5116  -11.1517   27.5838 C   0  0  0  0  0  0  0  0  0  0  0  0
    6.0668  -12.4421   26.4323 S   0  0  0  0  0  0  0  0  0  0  0  0
    7.0773  -13.6255   27.3241 C   0  0  0  0  0  0  0  0  0  0  0  0
    7.6429  -14.7144   26.4692 C   0  0  0  0  0  0  0  0  0  0  0  0
    6.6469  -15.3003   25.5123 C   0  0  2  0  0  0  0  0  0  0  0  0
    5.7933  -16.2700   26.1456 N   0  0  0  0  0  0  0  0  0  0  0  0
    7.2811  -15.8494   24.2827 C   0  0  0  0  0  0  0  0  0  0  0  0
    7.7225  -17.0215   24.2123 O   0  0  0  0  0  0  0  0  0  0  0  0
    7.3948  -15.0241   23.1441 N   0  0  0  0  0  0  0  0  0  0  0  0
    8.1781  -15.4940   22.0209 C   0  0  1  0  0  0  0  0  0  0  0  0
    8.0936  -14.4004   20.9474 C   0  0  0  0  0  0  0  0  0  0  0  0
    8.9290  -14.9866   19.4662 S   0  0  0  0  0  0  0  0  0  0  0  0
    9.6327  -15.5881   22.3924 C   0  0  0  0  0  0  0  0  0  0  0  0
   10.1246  -14.6486   23.0235 O   0  0  0  0  0  0  0  0  0  0  0  0
   10.3853  -16.7213   22.0202 N   0  0  0  0  0  0  0  0  0  0  0  0
   11.7760  -16.9564   22.4341 C   0  0  1  0  0  0  0  0  0  0  0  0
   11.8177  -18.2768   23.0852 C   0  0  0  0  0  0  0  0  0  0  0  0
   12.9053  -18.6246   24.0138 C   0  0  0  0  0  0  0  0  0  0  0  0
   12.9778  -19.9238   24.6638 C   0  0  0  0  0  0  0  0  0  0  0  0
   13.9724  -20.2709   25.6806 C   0  0  0  0  0  0  0  0  0  0  0  0
   13.9566  -21.5780   26.2131 N   0  0  0  0  0  0  0  0  0  0  0  0
   12.5931  -16.9085   21.1823 C   0  0  0  0  0  0  0  0  0  0  0  0
   13.7984  -16.2513   21.1943 O   0  0  0  0  0  0  0  0  0  0  0  0
   12.2456  -17.4410   20.0993 O   0  0  0  0  0  0  0  0  0  0  0  0
  1  2  1  0
  2  3  1  0
  4  3  1  0
  5  4  1  0
  5  6  1  1
  7  8  2  0
  7  5  1  0
  9  7  1  0
 10  9  1  0
 10 11  1  6
 12 11  1  0
 13 15  1  0
 13 10  1  0
 14 13  2  0
 16 15  1  0
 16 22  1  0
 16 17  1  6
 17 18  1  0
 19 18  1  0
 20 19  1  0
 20 21  1  0
 22 23  1  0
 24 22  2  0
M  END
$$$$
