MCK.pdb
     RDKit          3D

 24 23  0  0  1  0  0  0  0  0999 V2000
    8.1290  -11.3277   19.7033 C   0  0  0  0  0  0  0  0  0  0  0  0
    7.7633  -12.9926   19.0763 S   0  0  0  0  0  0  0  0  0  0  0  0
    7.0616  -13.9754   20.4025 C   0  0  0  0  0  0  0  0  0  0  0  0
    7.7925  -13.8606   21.7021 C   0  0  0  0  0  0  0  0  0  0  0  0
    8.2809  -15.1771   22.2306 C   0  0  2  0  0  0  0  0  0  0  0  0
    7.2110  -16.1248   22.3957 N   0  0  0  0  0  0  0  0  0  0  0  0
    9.0853  -15.0374   23.4752 C   0  0  0  0  0  0  0  0  0  0  0  0
   10.2444  -14.5578   23.4839 O   0  0  0  0  0  0  0  0  0  0  0  0
    8.5287  -15.4595   24.7010 N   0  0  0  0  0  0  0  0  0  0  0  0
    9.2989  -15.2769   25.9131 C   0  0  1  0  0  0  0  0  0  0  0  0
    8.4859  -14.3266   26.8027 C   0  0  0  0  0  0  0  0  0  0  0  0
    9.3991  -14.0480   28.3272 S   0  0  0  0  0  0  0  0  0  0  0  0
    9.3952  -16.5682   26.6787 C   0  0  0  0  0  0  0  0  0  0  0  0
    8.4079  -17.3086   26.6796 O   0  0  0  0  0  0  0  0  0  0  0  0
   10.5838  -16.8972   27.3629 N   0  0  0  0  0  0  0  0  0  0  0  0
   10.9802  -18.2699   27.7080 C   0  0  1  0  0  0  0  0  0  0  0  0
   11.4957  -18.8950   26.4781 C   0  0  0  0  0  0  0  0  0  0  0  0
   10.8136  -20.0533   25.8790 C   0  0  0  0  0  0  0  0  0  0  0  0
   11.2841  -20.6744   24.6507 C   0  0  0  0  0  0  0  0  0  0  0  0
   10.6278  -21.8175   24.0133 C   0  0  0  0  0  0  0  0  0  0  0  0
   11.1717  -22.3156   22.8099 N   0  0  0  0  0  0  0  0  0  0  0  0
   12.0270  -18.1432   28.7687 C   0  0  0  0  0  0  0  0  0  0  0  0
   12.2480  -19.1968   29.6206 O   0  0  0  0  0  0  0  0  0  0  0  0
   12.7334  -17.1183   28.9354 O   0  0  0  0  0  0  0  0  0  0  0  0
  1  2  1  0
  2  3  1  0
  4  3  1  0
  5  4  1  0
  5  6  1  1
  7  8  2  0
  7  5  1  0
  9  7  1  0
 10  9  1  0
 10 11  1  1
 12 11  1  0
 13 15  1  0
 13 10  1  0
 14 13  2  0
 16 15  1  0
 16 22  1  0
 16 17  1  6
 17 18  1  0
 19 18  1  0
 20 19  1  0
 20 21  1  0
 22 23  1  0
 24 22  2  0
M  END
$$$$
