MCK.pdb
     RDKit          3D

 24 23  0  0  1  0  0  0  0  0999 V2000
    7.5926  -11.2098   26.7973 C   0  0  0  0  0  0  0  0  0  0  0  0
    5.8381  -11.5160   27.1537 S   0  0  0  0  0  0  0  0  0  0  0  0
    5.3924  -13.1415   26.5405 C   0  0  0  0  0  0  0  0  0  0  0  0
    6.4483  -13.7909   25.7041 C   0  0  0  0  0  0  0  0  0  0  0  0
    6.0354  -15.1223   25.1493 C   0  0  2  0  0  0  0  0  0  0  0  0
    5.7610  -16.0800   26.1874 N   0  0  0  0  0  0  0  0  0  0  0  0
    7.0024  -15.6577   24.1524 C   0  0  0  0  0  0  0  0  0  0  0  0
    7.7366  -16.6482   24.3832 O   0  0  0  0  0  0  0  0  0  0  0  0
    7.1042  -15.0310   22.8924 N   0  0  0  0  0  0  0  0  0  0  0  0
    8.1052  -15.5044   21.9599 C   0  0  1  0  0  0  0  0  0  0  0  0
    8.0721  -14.5419   20.7649 C   0  0  0  0  0  0  0  0  0  0  0  0
    9.2250  -15.1367   19.5188 S   0  0  0  0  0  0  0  0  0  0  0  0
    9.4826  -15.3731   22.5500 C   0  0  0  0  0  0  0  0  0  0  0  0
    9.7568  -14.3225   23.1365 O   0  0  0  0  0  0  0  0  0  0  0  0
   10.4093  -16.4288   22.4232 N   0  0  0  0  0  0  0  0  0  0  0  0
   11.7258  -16.4494   23.0767 C   0  0  1  0  0  0  0  0  0  0  0  0
   11.7519  -17.6251   23.9634 C   0  0  0  0  0  0  0  0  0  0  0  0
   11.9310  -17.4692   25.4158 C   0  0  0  0  0  0  0  0  0  0  0  0
   11.9844  -18.6129   26.3130 C   0  0  0  0  0  0  0  0  0  0  0  0
   12.0655  -18.5010   27.7706 C   0  0  0  0  0  0  0  0  0  0  0  0
   12.0300  -19.6866   28.5355 N   0  0  0  0  0  0  0  0  0  0  0  0
   12.7326  -16.5404   21.9744 C   0  0  0  0  0  0  0  0  0  0  0  0
   14.0597  -16.3371   22.2612 O   0  0  0  0  0  0  0  0  0  0  0  0
   12.4410  -16.7973   20.7802 O   0  0  0  0  0  0  0  0  0  0  0  0
  1  2  1  0
  2  3  1  0
  4  3  1  0
  5  4  1  0
  5  6  1  1
  7  8  2  0
  7  5  1  0
  9  7  1  0
 10  9  1  0
 10 11  1  6
 12 11  1  0
 13 15  1  0
 13 10  1  0
 14 13  2  0
 16 15  1  0
 16 22  1  0
 16 17  1  1
 17 18  1  0
 19 18  1  0
 20 19  1  0
 20 21  1  0
 22 23  1  0
 24 22  2  0
M  END
$$$$
