MCK.pdb
     RDKit          3D

 24 23  0  0  1  0  0  0  0  0999 V2000
    7.9667  -12.5646   19.6781 C   0  0  0  0  0  0  0  0  0  0  0  0
    6.4944  -13.5628   19.3111 S   0  0  0  0  0  0  0  0  0  0  0  0
    6.7356  -15.2189   19.9561 C   0  0  0  0  0  0  0  0  0  0  0  0
    7.1651  -15.2616   21.3879 C   0  0  0  0  0  0  0  0  0  0  0  0
    8.6009  -14.8772   21.5921 C   0  0  2  0  0  0  0  0  0  0  0  0
    9.4975  -15.7116   20.8372 N   0  0  0  0  0  0  0  0  0  0  0  0
    8.9849  -14.8209   23.0292 C   0  0  0  0  0  0  0  0  0  0  0  0
    9.8790  -15.5499   23.5217 O   0  0  0  0  0  0  0  0  0  0  0  0
    8.3208  -13.9124   23.8801 N   0  0  0  0  0  0  0  0  0  0  0  0
    8.7854  -13.7714   25.2439 C   0  0  1  0  0  0  0  0  0  0  0  0
    7.8657  -12.7384   25.9092 C   0  0  0  0  0  0  0  0  0  0  0  0
    8.3779  -12.5346   27.6214 S   0  0  0  0  0  0  0  0  0  0  0  0
    8.5802  -15.0507   26.0081 C   0  0  0  0  0  0  0  0  0  0  0  0
    7.4368  -15.5125   26.0554 O   0  0  0  0  0  0  0  0  0  0  0  0
    9.6733  -15.6800   26.6392 N   0  0  0  0  0  0  0  0  0  0  0  0
    9.5666  -16.9156   27.4283 C   0  0  1  0  0  0  0  0  0  0  0  0
   10.2569  -17.9744   26.6724 C   0  0  0  0  0  0  0  0  0  0  0  0
   10.4661  -19.3065   27.2618 C   0  0  0  0  0  0  0  0  0  0  0  0
   11.1859  -20.3564   26.5580 C   0  0  0  0  0  0  0  0  0  0  0  0
   11.5168  -21.6541   27.1499 C   0  0  0  0  0  0  0  0  0  0  0  0
   12.1190  -22.6304   26.3276 N   0  0  0  0  0  0  0  0  0  0  0  0
   10.2243  -16.6259   28.7400 C   0  0  0  0  0  0  0  0  0  0  0  0
   11.1172  -15.5867   28.8262 O   0  0  0  0  0  0  0  0  0  0  0  0
   10.0096  -17.2808   29.7898 O   0  0  0  0  0  0  0  0  0  0  0  0
  1  2  1  0
  2  3  1  0
  4  3  1  0
  5  4  1  0
  5  6  1  6
  7  8  2  0
  7  5  1  0
  9  7  1  0
 10  9  1  0
 10 11  1  1
 12 11  1  0
 13 15  1  0
 13 10  1  0
 14 13  2  0
 16 15  1  0
 16 22  1  0
 16 17  1  6
 17 18  1  0
 19 18  1  0
 20 19  1  0
 20 21  1  0
 22 23  1  0
 24 22  2  0
M  END
$$$$
