MCK.pdb
     RDKit          3D

 24 23  0  0  1  0  0  0  0  0999 V2000
    6.7639  -11.7124   26.9084 C   0  0  0  0  0  0  0  0  0  0  0  0
    7.6469  -13.1116   27.6577 S   0  0  0  0  0  0  0  0  0  0  0  0
    6.8593  -14.6402   27.1476 C   0  0  0  0  0  0  0  0  0  0  0  0
    6.3946  -14.6447   25.7262 C   0  0  0  0  0  0  0  0  0  0  0  0
    6.3348  -16.0167   25.1221 C   0  0  2  0  0  0  0  0  0  0  0  0
    6.2204  -17.0443   26.1226 N   0  0  0  0  0  0  0  0  0  0  0  0
    7.4614  -16.2859   24.1873 C   0  0  0  0  0  0  0  0  0  0  0  0
    8.2966  -17.2023   24.3772 O   0  0  0  0  0  0  0  0  0  0  0  0
    7.6036  -15.4814   23.0370 N   0  0  0  0  0  0  0  0  0  0  0  0
    8.7529  -15.6893   22.1816 C   0  0  1  0  0  0  0  0  0  0  0  0
    8.6216  -14.6839   21.0294 C   0  0  0  0  0  0  0  0  0  0  0  0
    6.9048  -14.1583   20.9212 S   0  0  0  0  0  0  0  0  0  0  0  0
   10.0216  -15.3206   22.9008 C   0  0  0  0  0  0  0  0  0  0  0  0
   10.0047  -14.3122   23.6118 O   0  0  0  0  0  0  0  0  0  0  0  0
   11.1761  -16.1168   22.7503 N   0  0  0  0  0  0  0  0  0  0  0  0
   12.3454  -16.0447   23.6381 C   0  0  1  0  0  0  0  0  0  0  0  0
   12.1854  -17.0998   24.6532 C   0  0  0  0  0  0  0  0  0  0  0  0
   13.2560  -17.3804   25.6231 C   0  0  0  0  0  0  0  0  0  0  0  0
   13.1149  -18.3964   26.6544 C   0  0  0  0  0  0  0  0  0  0  0  0
   14.1362  -18.6776   27.6652 C   0  0  0  0  0  0  0  0  0  0  0  0
   13.8779  -19.6908   28.6132 N   0  0  0  0  0  0  0  0  0  0  0  0
   13.5403  -16.2648   22.7660 C   0  0  0  0  0  0  0  0  0  0  0  0
   14.7708  -15.8328   23.1947 O   0  0  0  0  0  0  0  0  0  0  0  0
   13.4940  -16.8311   21.6461 O   0  0  0  0  0  0  0  0  0  0  0  0
  1  2  1  0
  2  3  1  0
  4  3  1  0
  5  4  1  0
  5  6  1  1
  7  8  2  0
  7  5  1  0
  9  7  1  0
 10  9  1  0
 10 11  1  6
 12 11  1  0
 13 15  1  0
 13 10  1  0
 14 13  2  0
 16 15  1  0
 16 22  1  0
 16 17  1  1
 17 18  1  0
 19 18  1  0
 20 19  1  0
 20 21  1  0
 22 23  1  0
 24 22  2  0
M  END
$$$$
