MCK.pdb
     RDKit          3D

 24 23  0  0  1  0  0  0  0  0999 V2000
    7.7439  -12.0460   18.9969 C   0  0  0  0  0  0  0  0  0  0  0  0
    7.8069  -13.6992   18.2475 S   0  0  0  0  0  0  0  0  0  0  0  0
    9.2390  -14.5737   18.8810 C   0  0  0  0  0  0  0  0  0  0  0  0
   10.4257  -13.7004   19.1368 C   0  0  0  0  0  0  0  0  0  0  0  0
   11.6413  -14.4599   19.5799 C   0  0  2  0  0  0  0  0  0  0  0  0
   12.0871  -15.3974   18.5836 N   0  0  0  0  0  0  0  0  0  0  0  0
   11.4627  -15.1134   20.9054 C   0  0  0  0  0  0  0  0  0  0  0  0
   12.2284  -16.0130   21.3271 O   0  0  0  0  0  0  0  0  0  0  0  0
   10.3899  -14.7104   21.7283 N   0  0  0  0  0  0  0  0  0  0  0  0
   10.2932  -15.2619   23.0633 C   0  0  1  0  0  0  0  0  0  0  0  0
    8.9447  -14.7943   23.6275 C   0  0  0  0  0  0  0  0  0  0  0  0
    8.8054  -15.3674   25.3268 S   0  0  0  0  0  0  0  0  0  0  0  0
   10.2140  -16.7632   23.0114 C   0  0  0  0  0  0  0  0  0  0  0  0
    9.5522  -17.2708   22.1019 O   0  0  0  0  0  0  0  0  0  0  0  0
   10.8819  -17.5400   23.9807 N   0  0  0  0  0  0  0  0  0  0  0  0
   11.0722  -18.9941   23.8799 C   0  0  1  0  0  0  0  0  0  0  0  0
   11.9467  -19.2380   22.7201 C   0  0  0  0  0  0  0  0  0  0  0  0
   12.4313  -20.5934   22.4141 C   0  0  0  0  0  0  0  0  0  0  0  0
   13.2607  -20.8714   21.2519 C   0  0  0  0  0  0  0  0  0  0  0  0
   13.6626  -22.2183   20.8420 C   0  0  0  0  0  0  0  0  0  0  0  0
   14.5100  -22.3515   19.7212 N   0  0  0  0  0  0  0  0  0  0  0  0
   11.6989  -19.4190   25.1697 C   0  0  0  0  0  0  0  0  0  0  0  0
   11.5322  -20.7116   25.6013 O   0  0  0  0  0  0  0  0  0  0  0  0
   12.3828  -18.6589   25.8989 O   0  0  0  0  0  0  0  0  0  0  0  0
  1  2  1  0
  2  3  1  0
  4  3  1  0
  5  4  1  0
  5  6  1  6
  7  8  2  0
  7  5  1  0
  9  7  1  0
 10  9  1  0
 10 11  1  6
 12 11  1  0
 13 15  1  0
 13 10  1  0
 14 13  2  0
 16 15  1  0
 16 22  1  0
 16 17  1  6
 17 18  1  0
 19 18  1  0
 20 19  1  0
 20 21  1  0
 22 23  1  0
 24 22  2  0
M  END
$$$$
