MCK.pdb
     RDKit          3D

 24 23  0  0  1  0  0  0  0  0999 V2000
    7.8100  -11.8338   28.1688 C   0  0  0  0  0  0  0  0  0  0  0  0
    6.5577  -12.2481   26.9202 S   0  0  0  0  0  0  0  0  0  0  0  0
    6.6839  -13.9925   26.5225 C   0  0  0  0  0  0  0  0  0  0  0  0
    5.7516  -14.4434   25.4437 C   0  0  0  0  0  0  0  0  0  0  0  0
    5.9036  -15.8938   25.0911 C   0  0  2  0  0  0  0  0  0  0  0  0
    6.1217  -16.7136   26.2532 N   0  0  0  0  0  0  0  0  0  0  0  0
    6.9428  -16.1297   24.0519 C   0  0  0  0  0  0  0  0  0  0  0  0
    7.8640  -16.9696   24.1918 O   0  0  0  0  0  0  0  0  0  0  0  0
    6.8977  -15.3819   22.8564 N   0  0  0  0  0  0  0  0  0  0  0  0
    7.9448  -15.5757   21.8758 C   0  0  1  0  0  0  0  0  0  0  0  0
    7.8015  -14.4348   20.8592 C   0  0  0  0  0  0  0  0  0  0  0  0
    9.0213  -14.6707   19.5584 S   0  0  0  0  0  0  0  0  0  0  0  0
    9.2992  -15.3928   22.5043 C   0  0  0  0  0  0  0  0  0  0  0  0
    9.4672  -14.4060   23.2260 O   0  0  0  0  0  0  0  0  0  0  0  0
   10.3237  -16.3310   22.2609 N   0  0  0  0  0  0  0  0  0  0  0  0
   11.6047  -16.3543   22.9816 C   0  0  1  0  0  0  0  0  0  0  0  0
   11.6270  -17.5871   23.7872 C   0  0  0  0  0  0  0  0  0  0  0  0
   11.8706  -17.5346   25.2376 C   0  0  0  0  0  0  0  0  0  0  0  0
   11.9759  -18.7396   26.0456 C   0  0  0  0  0  0  0  0  0  0  0  0
   12.2716  -18.7349   27.4795 C   0  0  0  0  0  0  0  0  0  0  0  0
   11.6249  -19.6847   28.2990 N   0  0  0  0  0  0  0  0  0  0  0  0
   12.6696  -16.3364   21.9316 C   0  0  0  0  0  0  0  0  0  0  0  0
   12.3659  -16.7630   20.6625 O   0  0  0  0  0  0  0  0  0  0  0  0
   13.8464  -15.9480   22.1353 O   0  0  0  0  0  0  0  0  0  0  0  0
  1  2  1  0
  2  3  1  0
  4  3  1  0
  5  4  1  0
  5  6  1  1
  7  8  2  0
  7  5  1  0
  9  7  1  0
 10  9  1  0
 10 11  1  6
 12 11  1  0
 13 15  1  0
 13 10  1  0
 14 13  2  0
 16 15  1  0
 16 22  1  0
 16 17  1  6
 17 18  1  0
 19 18  1  0
 20 19  1  0
 20 21  1  0
 22 23  1  0
 24 22  2  0
M  END
$$$$
