MCK.pdb
     RDKit          3D

 24 23  0  0  1  0  0  0  0  0999 V2000
    8.8100  -11.3477   20.0265 C   0  0  0  0  0  0  0  0  0  0  0  0
    7.3458  -12.1506   19.3121 S   0  0  0  0  0  0  0  0  0  0  0  0
    7.0528  -13.6994   20.1678 C   0  0  0  0  0  0  0  0  0  0  0  0
    8.2708  -14.5530   20.3228 C   0  0  0  0  0  0  0  0  0  0  0  0
    8.0268  -15.8029   21.1161 C   0  0  2  0  0  0  0  0  0  0  0  0
    6.6498  -16.2168   21.0645 N   0  0  0  0  0  0  0  0  0  0  0  0
    8.5157  -15.7016   22.5185 C   0  0  0  0  0  0  0  0  0  0  0  0
    9.7016  -15.9498   22.8433 O   0  0  0  0  0  0  0  0  0  0  0  0
    7.6144  -15.3108   23.5311 N   0  0  0  0  0  0  0  0  0  0  0  0
    8.1162  -15.1342   24.8775 C   0  0  1  0  0  0  0  0  0  0  0  0
    6.9424  -14.6003   25.7097 C   0  0  0  0  0  0  0  0  0  0  0  0
    7.0048  -12.8026   25.7000 S   0  0  0  0  0  0  0  0  0  0  0  0
    8.4762  -16.4617   25.4866 C   0  0  0  0  0  0  0  0  0  0  0  0
    7.5578  -17.2511   25.7237 O   0  0  0  0  0  0  0  0  0  0  0  0
    9.8240  -16.7682   25.7671 N   0  0  0  0  0  0  0  0  0  0  0  0
   10.3017  -18.1075   26.1399 C   0  0  1  0  0  0  0  0  0  0  0  0
   11.3509  -18.4782   25.1751 C   0  0  0  0  0  0  0  0  0  0  0  0
   12.1420  -19.7057   25.3573 C   0  0  0  0  0  0  0  0  0  0  0  0
   12.5489  -20.5344   24.2332 C   0  0  0  0  0  0  0  0  0  0  0  0
   13.3463  -21.7549   24.3683 C   0  0  0  0  0  0  0  0  0  0  0  0
   13.7206  -22.4428   23.1941 N   0  0  0  0  0  0  0  0  0  0  0  0
   10.8239  -17.9858   27.5361 C   0  0  0  0  0  0  0  0  0  0  0  0
   11.1339  -16.7425   28.0290 O   0  0  0  0  0  0  0  0  0  0  0  0
   11.0000  -18.9632   28.3047 O   0  0  0  0  0  0  0  0  0  0  0  0
  1  2  1  0
  2  3  1  0
  4  3  1  0
  5  4  1  0
  5  6  1  1
  7  8  2  0
  7  5  1  0
  9  7  1  0
 10  9  1  0
 10 11  1  1
 12 11  1  0
 13 15  1  0
 13 10  1  0
 14 13  2  0
 16 15  1  0
 16 22  1  0
 16 17  1  6
 17 18  1  0
 19 18  1  0
 20 19  1  0
 20 21  1  0
 22 23  1  0
 24 22  2  0
M  END
$$$$
