HWG.pdb
     RDKit          3D

 29 31  0  0  1  0  0  0  0  0999 V2000
   10.6362  -16.1465   21.2230 N   0  0  0  0  0  0  0  0  0  0  0  0
    9.9396  -17.0154   22.1163 C   0  0  1  0  0  0  0  0  0  0  0  0
   10.5979  -18.3996   22.0442 C   0  0  0  0  0  0  0  0  0  0  0  0
   10.3283  -18.9225   20.6760 C   0  0  0  0  0  0  0  0  0  0  0  0
    9.1881  -18.8314   19.9097 C   0  0  0  0  0  0  0  0  0  0  0  0
    9.4180  -19.4596   18.7348 N   0  0  0  0  0  0  0  0  0  0  0  0
   10.6635  -19.9372   18.7469 C   0  0  0  0  0  0  0  0  0  0  0  0
   11.2138  -19.6134   19.9186 N   0  0  0  0  0  0  0  0  0  0  0  0
   10.0651  -16.5821   23.5440 C   0  0  0  0  0  0  0  0  0  0  0  0
   10.8128  -15.6291   23.8768 O   0  0  0  0  0  0  0  0  0  0  0  0
    9.3055  -17.2933   24.5008 N   0  0  0  0  0  0  0  0  0  0  0  0
    9.3726  -16.8766   25.9178 C   0  0  1  0  0  0  0  0  0  0  0  0
    7.9764  -16.6282   26.3380 C   0  0  0  0  0  0  0  0  0  0  0  0
    7.2723  -15.4998   25.7310 C   0  0  0  0  0  0  0  0  0  0  0  0
    6.3744  -15.5768   24.6789 C   0  0  0  0  0  0  0  0  0  0  0  0
    5.9946  -14.3519   24.3621 N   0  0  0  0  0  0  0  0  0  0  0  0
    6.5941  -13.4349   25.1543 C   0  0  0  0  0  0  0  0  0  0  0  0
    6.5483  -12.0667   25.2692 C   0  0  0  0  0  0  0  0  0  0  0  0
    7.2868  -11.4202   26.2277 C   0  0  0  0  0  0  0  0  0  0  0  0
    8.0978  -12.0919   27.1099 C   0  0  0  0  0  0  0  0  0  0  0  0
    8.1335  -13.4766   26.9795 C   0  0  0  0  0  0  0  0  0  0  0  0
    7.4012  -14.1651   26.0200 C   0  0  0  0  0  0  0  0  0  0  0  0
   10.1802  -17.8775   26.6201 C   0  0  0  0  0  0  0  0  0  0  0  0
   10.2908  -17.9128   27.8840 O   0  0  0  0  0  0  0  0  0  0  0  0
   10.9177  -18.8919   25.9283 N   0  0  0  0  0  0  0  0  0  0  0  0
   11.6666  -19.9383   26.5144 C   0  0  0  0  0  0  0  0  0  0  0  0
   13.0251  -19.5166   26.8895 C   0  0  0  0  0  0  0  0  0  0  0  0
   13.4218  -18.3289   26.6752 O   0  0  0  0  0  0  0  0  0  0  0  0
   13.9077  -20.3866   27.4802 O   0  0  0  0  0  0  0  0  0  0  0  0
  2  1  1  6
  3  2  1  0
  3  4  1  0
  4  5  2  0
  5  6  1  0
  7  6  1  0
  8  4  1  0
  8  7  2  0
  9 10  2  0
  9  2  1  0
 11  9  1  0
 12 13  1  1
 12 11  1  0
 13 14  1  0
 14 15  2  0
 15 16  1  0
 17 18  2  0
 17 16  1  0
 19 18  1  0
 20 19  2  0
 21 20  1  0
 21 22  2  0
 22 14  1  0
 22 17  1  0
 23 12  1  0
 24 23  2  0
 25 23  1  0
 26 27  1  0
 26 25  1  0
 27 29  1  0
 28 27  2  0
M  END
$$$$
