HWG.pdb
     RDKit          3D

 29 31  0  0  1  0  0  0  0  0999 V2000
    7.2072  -15.4696   20.9646 N   0  0  0  0  0  0  0  0  0  0  0  0
    8.4323  -16.1277   21.2875 C   0  0  1  0  0  0  0  0  0  0  0  0
    9.4500  -15.8068   20.1847 C   0  0  0  0  0  0  0  0  0  0  0  0
    8.9697  -16.4976   18.9557 C   0  0  0  0  0  0  0  0  0  0  0  0
    8.1458  -17.5933   18.8291 C   0  0  0  0  0  0  0  0  0  0  0  0
    7.9924  -17.8559   17.5118 N   0  0  0  0  0  0  0  0  0  0  0  0
    8.6937  -16.9587   16.8169 C   0  0  0  0  0  0  0  0  0  0  0  0
    9.2842  -16.1383   17.6880 N   0  0  0  0  0  0  0  0  0  0  0  0
    9.0366  -15.6131   22.5571 C   0  0  0  0  0  0  0  0  0  0  0  0
    9.4088  -14.4185   22.6691 O   0  0  0  0  0  0  0  0  0  0  0  0
    9.1703  -16.5310   23.6238 N   0  0  0  0  0  0  0  0  0  0  0  0
    9.8865  -16.1058   24.8453 C   0  0  1  0  0  0  0  0  0  0  0  0
    8.8949  -16.1611   25.9414 C   0  0  0  0  0  0  0  0  0  0  0  0
    7.6725  -15.3725   25.7953 C   0  0  0  0  0  0  0  0  0  0  0  0
    6.4597  -15.8400   25.3165 C   0  0  0  0  0  0  0  0  0  0  0  0
    5.6111  -14.8287   25.2673 N   0  0  0  0  0  0  0  0  0  0  0  0
    6.1907  -13.6842   25.6940 C   0  0  0  0  0  0  0  0  0  0  0  0
    5.7764  -12.3852   25.8620 C   0  0  0  0  0  0  0  0  0  0  0  0
    6.6344  -11.4358   26.3564 C   0  0  0  0  0  0  0  0  0  0  0  0
    7.9313  -11.7253   26.7049 C   0  0  0  0  0  0  0  0  0  0  0  0
    8.3352  -13.0448   26.5278 C   0  0  0  0  0  0  0  0  0  0  0  0
    7.4950  -14.0324   26.0281 C   0  0  0  0  0  0  0  0  0  0  0  0
   11.1097  -16.9087   24.9251 C   0  0  0  0  0  0  0  0  0  0  0  0
   11.1899  -17.9802   25.6006 O   0  0  0  0  0  0  0  0  0  0  0  0
   12.3173  -16.5373   24.2503 N   0  0  0  0  0  0  0  0  0  0  0  0
   13.6012  -16.4077   24.8284 C   0  0  0  0  0  0  0  0  0  0  0  0
   14.1209  -17.6863   25.3377 C   0  0  0  0  0  0  0  0  0  0  0  0
   13.3539  -18.6873   25.4910 O   0  0  0  0  0  0  0  0  0  0  0  0
   15.4452  -17.8420   25.6642 O   0  0  0  0  0  0  0  0  0  0  0  0
  2  1  1  6
  3  2  1  0
  3  4  1  0
  4  5  2  0
  5  6  1  0
  7  6  1  0
  8  4  1  0
  8  7  2  0
  9 10  2  0
  9  2  1  0
 11  9  1  0
 12 13  1  1
 12 11  1  0
 13 14  1  0
 14 15  2  0
 15 16  1  0
 17 18  2  0
 17 16  1  0
 19 18  1  0
 20 19  2  0
 21 20  1  0
 21 22  2  0
 22 14  1  0
 22 17  1  0
 23 12  1  0
 24 23  2  0
 25 23  1  0
 26 27  1  0
 26 25  1  0
 27 29  1  0
 28 27  2  0
M  END
$$$$
