HWG.pdb
     RDKit          3D

 29 31  0  0  1  0  0  0  0  0999 V2000
    9.4567  -16.8909   19.5937 N   0  0  0  0  0  0  0  0  0  0  0  0
   10.5882  -16.1636   20.0721 C   0  0  1  0  0  0  0  0  0  0  0  0
   10.7997  -14.9533   19.1528 C   0  0  0  0  0  0  0  0  0  0  0  0
    9.4442  -14.5097   18.7236 C   0  0  0  0  0  0  0  0  0  0  0  0
    8.6207  -13.5500   19.2681 C   0  0  0  0  0  0  0  0  0  0  0  0
    7.4868  -13.5009   18.5335 N   0  0  0  0  0  0  0  0  0  0  0  0
    7.5799  -14.3984   17.5509 C   0  0  0  0  0  0  0  0  0  0  0  0
    8.7614  -15.0079   17.6650 N   0  0  0  0  0  0  0  0  0  0  0  0
   10.3634  -15.5976   21.4399 C   0  0  0  0  0  0  0  0  0  0  0  0
   11.0992  -14.6911   21.9036 O   0  0  0  0  0  0  0  0  0  0  0  0
    9.2872  -16.1291   22.1867 N   0  0  0  0  0  0  0  0  0  0  0  0
    9.0548  -15.6286   23.5583 C   0  0  1  0  0  0  0  0  0  0  0  0
    7.9094  -14.6973   23.4658 C   0  0  0  0  0  0  0  0  0  0  0  0
    7.1869  -14.3809   24.6968 C   0  0  0  0  0  0  0  0  0  0  0  0
    6.3257  -15.2307   25.3714 C   0  0  0  0  0  0  0  0  0  0  0  0
    5.8128  -14.5777   26.3989 N   0  0  0  0  0  0  0  0  0  0  0  0
    6.2872  -13.3131   26.4593 C   0  0  0  0  0  0  0  0  0  0  0  0
    6.1088  -12.2441   27.3036 C   0  0  0  0  0  0  0  0  0  0  0  0
    6.7810  -11.0668   27.0931 C   0  0  0  0  0  0  0  0  0  0  0  0
    7.6536  -10.8941   26.0463 C   0  0  0  0  0  0  0  0  0  0  0  0
    7.8221  -11.9857   25.2003 C   0  0  0  0  0  0  0  0  0  0  0  0
    7.1572  -13.1925   25.3811 C   0  0  0  0  0  0  0  0  0  0  0  0
    8.9745  -16.8011   24.4335 C   0  0  0  0  0  0  0  0  0  0  0  0
    8.2981  -17.8351   24.1429 O   0  0  0  0  0  0  0  0  0  0  0  0
    9.6498  -16.8653   25.6950 N   0  0  0  0  0  0  0  0  0  0  0  0
    9.5299  -17.8871   26.6650 C   0  0  0  0  0  0  0  0  0  0  0  0
   10.6939  -18.7866   26.6819 C   0  0  0  0  0  0  0  0  0  0  0  0
   11.8600  -18.3488   26.4324 O   0  0  0  0  0  0  0  0  0  0  0  0
   10.5620  -20.1233   26.9656 O   0  0  0  0  0  0  0  0  0  0  0  0
  2  1  1  6
  3  2  1  0
  3  4  1  0
  4  5  2  0
  5  6  1  0
  7  6  1  0
  8  4  1  0
  8  7  2  0
  9 10  2  0
  9  2  1  0
 11  9  1  0
 12 13  1  6
 12 11  1  0
 13 14  1  0
 14 15  2  0
 15 16  1  0
 17 18  2  0
 17 16  1  0
 19 18  1  0
 20 19  2  0
 21 20  1  0
 21 22  2  0
 22 14  1  0
 22 17  1  0
 23 12  1  0
 24 23  2  0
 25 23  1  0
 26 27  1  0
 26 25  1  0
 27 29  1  0
 28 27  2  0
M  END
$$$$
