HWG.pdb
     RDKit          3D

 29 31  0  0  1  0  0  0  0  0999 V2000
    9.8527  -16.4033   21.4885 N   0  0  0  0  0  0  0  0  0  0  0  0
   10.2417  -17.3624   22.4718 C   0  0  1  0  0  0  0  0  0  0  0  0
   11.6935  -17.7713   22.1899 C   0  0  0  0  0  0  0  0  0  0  0  0
   11.6986  -18.3989   20.8392 C   0  0  0  0  0  0  0  0  0  0  0  0
   10.6554  -18.6151   19.9671 C   0  0  0  0  0  0  0  0  0  0  0  0
   11.1478  -19.2172   18.8613 N   0  0  0  0  0  0  0  0  0  0  0  0
   12.4623  -19.3813   19.0185 C   0  0  0  0  0  0  0  0  0  0  0  0
   12.7956  -18.8876   20.2125 N   0  0  0  0  0  0  0  0  0  0  0  0
   10.2447  -16.7891   23.8550 C   0  0  0  0  0  0  0  0  0  0  0  0
   10.9172  -15.7670   24.1398 O   0  0  0  0  0  0  0  0  0  0  0  0
    9.4579  -17.4493   24.8263 N   0  0  0  0  0  0  0  0  0  0  0  0
    9.3614  -16.8672   26.1819 C   0  0  1  0  0  0  0  0  0  0  0  0
    7.9341  -16.5362   26.3847 C   0  0  0  0  0  0  0  0  0  0  0  0
    7.3783  -15.4195   25.6219 C   0  0  0  0  0  0  0  0  0  0  0  0
    6.9454  -15.4729   24.3071 C   0  0  0  0  0  0  0  0  0  0  0  0
    6.5712  -14.2603   23.9400 N   0  0  0  0  0  0  0  0  0  0  0  0
    6.7280  -13.3747   24.9495 C   0  0  0  0  0  0  0  0  0  0  0  0
    6.4869  -12.0325   25.1152 C   0  0  0  0  0  0  0  0  0  0  0  0
    6.7419  -11.4191   26.3155 C   0  0  0  0  0  0  0  0  0  0  0  0
    7.2429  -12.0996   27.3985 C   0  0  0  0  0  0  0  0  0  0  0  0
    7.4823  -13.4576   27.2138 C   0  0  0  0  0  0  0  0  0  0  0  0
    7.2382  -14.1121   26.0125 C   0  0  0  0  0  0  0  0  0  0  0  0
   10.0330  -17.7959   27.0949 C   0  0  0  0  0  0  0  0  0  0  0  0
   10.1057  -17.6023   28.3472 O   0  0  0  0  0  0  0  0  0  0  0  0
   10.6703  -18.9948   26.6388 N   0  0  0  0  0  0  0  0  0  0  0  0
   11.2122  -20.0216   27.4458 C   0  0  0  0  0  0  0  0  0  0  0  0
   12.5840  -19.7258   27.8874 C   0  0  0  0  0  0  0  0  0  0  0  0
   13.1584  -18.6440   27.5506 O   0  0  0  0  0  0  0  0  0  0  0  0
   13.2882  -20.6034   28.6738 O   0  0  0  0  0  0  0  0  0  0  0  0
  2  1  1  6
  3  2  1  0
  3  4  1  0
  4  5  2  0
  5  6  1  0
  7  6  1  0
  8  4  1  0
  8  7  2  0
  9 10  2  0
  9  2  1  0
 11  9  1  0
 12 13  1  1
 12 11  1  0
 13 14  1  0
 14 15  2  0
 15 16  1  0
 17 18  2  0
 17 16  1  0
 19 18  1  0
 20 19  2  0
 21 20  1  0
 21 22  2  0
 22 14  1  0
 22 17  1  0
 23 12  1  0
 24 23  2  0
 25 23  1  0
 26 27  1  0
 26 25  1  0
 27 29  1  0
 28 27  2  0
M  END
$$$$
