HWG.pdb
     RDKit          3D

 29 31  0  0  1  0  0  0  0  0999 V2000
    8.6643  -16.0233   18.8050 N   0  0  0  0  0  0  0  0  0  0  0  0
    8.8838  -14.6283   19.0146 C   0  0  1  0  0  0  0  0  0  0  0  0
    7.7480  -13.8589   18.3270 C   0  0  0  0  0  0  0  0  0  0  0  0
    7.9600  -14.0177   16.8613 C   0  0  0  0  0  0  0  0  0  0  0  0
    8.9374  -14.7129   16.1854 C   0  0  0  0  0  0  0  0  0  0  0  0
    8.7190  -14.5662   14.8593 N   0  0  0  0  0  0  0  0  0  0  0  0
    7.6379  -13.8031   14.6903 C   0  0  0  0  0  0  0  0  0  0  0  0
    7.1792  -13.4714   15.8986 N   0  0  0  0  0  0  0  0  0  0  0  0
    8.8083  -14.2521   20.4618 C   0  0  0  0  0  0  0  0  0  0  0  0
    8.8880  -13.0547   20.8332 O   0  0  0  0  0  0  0  0  0  0  0  0
    8.6442  -15.3040   21.3918 N   0  0  0  0  0  0  0  0  0  0  0  0
    8.5766  -14.9785   22.8324 C   0  0  1  0  0  0  0  0  0  0  0  0
    7.1656  -15.1742   23.2306 C   0  0  0  0  0  0  0  0  0  0  0  0
    6.7982  -14.8671   24.6120 C   0  0  0  0  0  0  0  0  0  0  0  0
    6.2342  -15.7524   25.5158 C   0  0  0  0  0  0  0  0  0  0  0  0
    5.9826  -15.1018   26.6377 N   0  0  0  0  0  0  0  0  0  0  0  0
    6.3517  -13.8047   26.5428 C   0  0  0  0  0  0  0  0  0  0  0  0
    6.3347  -12.7217   27.3880 C   0  0  0  0  0  0  0  0  0  0  0  0
    6.8231  -11.5070   26.9783 C   0  0  0  0  0  0  0  0  0  0  0  0
    7.3469  -11.3091   25.7239 C   0  0  0  0  0  0  0  0  0  0  0  0
    7.3559  -12.4153   24.8802 C   0  0  0  0  0  0  0  0  0  0  0  0
    6.8683  -13.6600   25.2598 C   0  0  0  0  0  0  0  0  0  0  0  0
    9.6358  -15.7449   23.4942 C   0  0  0  0  0  0  0  0  0  0  0  0
    9.8873  -15.6473   24.7344 O   0  0  0  0  0  0  0  0  0  0  0  0
   10.4784  -16.6607   22.7851 N   0  0  0  0  0  0  0  0  0  0  0  0
   11.4610  -17.5095   23.3448 C   0  0  0  0  0  0  0  0  0  0  0  0
   12.8232  -16.9793   23.1795 C   0  0  0  0  0  0  0  0  0  0  0  0
   13.1235  -16.2525   22.1818 O   0  0  0  0  0  0  0  0  0  0  0  0
   13.8129  -17.2502   24.0916 O   0  0  0  0  0  0  0  0  0  0  0  0
  2  1  1  1
  3  2  1  0
  3  4  1  0
  4  5  2  0
  5  6  1  0
  7  6  1  0
  8  4  1  0
  8  7  2  0
  9 10  2  0
  9  2  1  0
 11  9  1  0
 12 13  1  1
 12 11  1  0
 13 14  1  0
 14 15  2  0
 15 16  1  0
 17 18  2  0
 17 16  1  0
 19 18  1  0
 20 19  2  0
 21 20  1  0
 21 22  2  0
 22 14  1  0
 22 17  1  0
 23 12  1  0
 24 23  2  0
 25 23  1  0
 26 27  1  0
 26 25  1  0
 27 29  1  0
 28 27  2  0
M  END
$$$$
