HWG.pdb
     RDKit          3D

 29 31  0  0  1  0  0  0  0  0999 V2000
    8.8109  -14.2848   20.6986 N   0  0  0  0  0  0  0  0  0  0  0  0
    8.5961  -15.5417   21.3406 C   0  0  1  0  0  0  0  0  0  0  0  0
    9.1720  -16.6415   20.4388 C   0  0  0  0  0  0  0  0  0  0  0  0
    8.5071  -16.4903   19.1147 C   0  0  0  0  0  0  0  0  0  0  0  0
    7.6824  -15.4881   18.6552 C   0  0  0  0  0  0  0  0  0  0  0  0
    7.3223  -15.7864   17.3867 N   0  0  0  0  0  0  0  0  0  0  0  0
    7.8967  -16.9406   17.0439 C   0  0  0  0  0  0  0  0  0  0  0  0
    8.6121  -17.3663   18.0867 N   0  0  0  0  0  0  0  0  0  0  0  0
    9.3378  -15.6522   22.6365 C   0  0  0  0  0  0  0  0  0  0  0  0
   10.3539  -14.9521   22.8723 O   0  0  0  0  0  0  0  0  0  0  0  0
    8.8446  -16.5796   23.5826 N   0  0  0  0  0  0  0  0  0  0  0  0
    9.5856  -16.7705   24.8476 C   0  0  1  0  0  0  0  0  0  0  0  0
    8.5880  -16.6332   25.9311 C   0  0  0  0  0  0  0  0  0  0  0  0
    7.5777  -15.5848   25.7986 C   0  0  0  0  0  0  0  0  0  0  0  0
    6.3177  -15.7399   25.2441 C   0  0  0  0  0  0  0  0  0  0  0  0
    5.7155  -14.5641   25.2377 N   0  0  0  0  0  0  0  0  0  0  0  0
    6.5097  -13.6062   25.7665 C   0  0  0  0  0  0  0  0  0  0  0  0
    6.3827  -12.2607   26.0128 C   0  0  0  0  0  0  0  0  0  0  0  0
    7.4018  -11.5588   26.6049 C   0  0  0  0  0  0  0  0  0  0  0  0
    8.5841  -12.1507   26.9779 C   0  0  0  0  0  0  0  0  0  0  0  0
    8.6969  -13.5133   26.7206 C   0  0  0  0  0  0  0  0  0  0  0  0
    7.6870  -14.2560   26.1211 C   0  0  0  0  0  0  0  0  0  0  0  0
   10.3506  -18.0128   24.7118 C   0  0  0  0  0  0  0  0  0  0  0  0
    9.8247  -19.1131   24.3597 O   0  0  0  0  0  0  0  0  0  0  0  0
   11.7565  -18.0817   24.9768 N   0  0  0  0  0  0  0  0  0  0  0  0
   12.5931  -19.2086   24.8055 C   0  0  0  0  0  0  0  0  0  0  0  0
   14.0080  -18.9047   25.0699 C   0  0  0  0  0  0  0  0  0  0  0  0
   14.6299  -18.0405   24.3769 O   0  0  0  0  0  0  0  0  0  0  0  0
   14.7029  -19.5410   26.0683 O   0  0  0  0  0  0  0  0  0  0  0  0
  2  1  1  6
  3  2  1  0
  3  4  1  0
  4  5  2  0
  5  6  1  0
  7  6  1  0
  8  4  1  0
  8  7  2  0
  9 10  2  0
  9  2  1  0
 11  9  1  0
 12 13  1  1
 12 11  1  0
 13 14  1  0
 14 15  2  0
 15 16  1  0
 17 18  2  0
 17 16  1  0
 19 18  1  0
 20 19  2  0
 21 20  1  0
 21 22  2  0
 22 14  1  0
 22 17  1  0
 23 12  1  0
 24 23  2  0
 25 23  1  0
 26 27  1  0
 26 25  1  0
 27 29  1  0
 28 27  2  0
M  END
$$$$
