HWG.pdb
     RDKit          3D

 29 31  0  0  1  0  0  0  0  0999 V2000
    8.3536  -16.7219   20.2395 N   0  0  0  0  0  0  0  0  0  0  0  0
    8.5960  -17.4576   21.4387 C   0  0  1  0  0  0  0  0  0  0  0  0
    9.7151  -18.4694   21.1586 C   0  0  0  0  0  0  0  0  0  0  0  0
   10.3305  -18.0675   19.8632 C   0  0  0  0  0  0  0  0  0  0  0  0
    9.7804  -17.3786   18.8057 C   0  0  0  0  0  0  0  0  0  0  0  0
   10.7261  -17.2500   17.8482 N   0  0  0  0  0  0  0  0  0  0  0  0
   11.8451  -17.8361   18.2771 C   0  0  0  0  0  0  0  0  0  0  0  0
   11.6070  -18.3300   19.4936 N   0  0  0  0  0  0  0  0  0  0  0  0
    9.1055  -16.5879   22.5459 C   0  0  0  0  0  0  0  0  0  0  0  0
    9.3576  -15.3712   22.3610 O   0  0  0  0  0  0  0  0  0  0  0  0
    9.2908  -17.1966   23.8083 N   0  0  0  0  0  0  0  0  0  0  0  0
    9.7232  -16.3592   24.9474 C   0  0  1  0  0  0  0  0  0  0  0  0
    8.6498  -16.4599   25.9602 C   0  0  0  0  0  0  0  0  0  0  0  0
    7.5340  -15.5198   25.8665 C   0  0  0  0  0  0  0  0  0  0  0  0
    6.2339  -15.8392   25.5107 C   0  0  0  0  0  0  0  0  0  0  0  0
    5.5248  -14.7252   25.4721 N   0  0  0  0  0  0  0  0  0  0  0  0
    6.2842  -13.6522   25.7880 C   0  0  0  0  0  0  0  0  0  0  0  0
    6.0603  -12.3028   25.9156 C   0  0  0  0  0  0  0  0  0  0  0  0
    7.0747  -11.4576   26.2880 C   0  0  0  0  0  0  0  0  0  0  0  0
    8.3471  -11.9047   26.5495 C   0  0  0  0  0  0  0  0  0  0  0  0
    8.5572  -13.2734   26.4149 C   0  0  0  0  0  0  0  0  0  0  0  0
    7.5549  -14.1590   26.0379 C   0  0  0  0  0  0  0  0  0  0  0  0
   11.0884  -16.7699   25.2862 C   0  0  0  0  0  0  0  0  0  0  0  0
   11.7776  -16.2006   26.1872 O   0  0  0  0  0  0  0  0  0  0  0  0
   11.7555  -17.8452   24.6152 N   0  0  0  0  0  0  0  0  0  0  0  0
   13.0235  -18.3825   24.9359 C   0  0  0  0  0  0  0  0  0  0  0  0
   13.3863  -19.5205   24.0772 C   0  0  0  0  0  0  0  0  0  0  0  0
   12.5076  -20.1189   23.3818 O   0  0  0  0  0  0  0  0  0  0  0  0
   14.6796  -19.9741   23.9978 O   0  0  0  0  0  0  0  0  0  0  0  0
  2  1  1  6
  3  2  1  0
  3  4  1  0
  4  5  2  0
  5  6  1  0
  7  6  1  0
  8  4  1  0
  8  7  2  0
  9 10  2  0
  9  2  1  0
 11  9  1  0
 12 13  1  1
 12 11  1  0
 13 14  1  0
 14 15  2  0
 15 16  1  0
 17 18  2  0
 17 16  1  0
 19 18  1  0
 20 19  2  0
 21 20  1  0
 21 22  2  0
 22 14  1  0
 22 17  1  0
 23 12  1  0
 24 23  2  0
 25 23  1  0
 26 27  1  0
 26 25  1  0
 27 29  1  0
 28 27  2  0
M  END
$$$$
