HWG.pdb
     RDKit          3D

 29 31  0  0  1  0  0  0  0  0999 V2000
    8.2591  -16.5120   21.3280 N   0  0  0  0  0  0  0  0  0  0  0  0
    9.3193  -15.5688   21.4851 C   0  0  1  0  0  0  0  0  0  0  0  0
    8.7695  -14.1750   21.1539 C   0  0  0  0  0  0  0  0  0  0  0  0
    8.3614  -14.2136   19.7221 C   0  0  0  0  0  0  0  0  0  0  0  0
    8.3797  -15.2633   18.8314 C   0  0  0  0  0  0  0  0  0  0  0  0
    7.9142  -14.8168   17.6433 N   0  0  0  0  0  0  0  0  0  0  0  0
    7.6072  -13.5245   17.7677 C   0  0  0  0  0  0  0  0  0  0  0  0
    7.8770  -13.1595   19.0224 N   0  0  0  0  0  0  0  0  0  0  0  0
    9.8022  -15.4870   22.9000 C   0  0  0  0  0  0  0  0  0  0  0  0
   10.6160  -14.6023   23.2650 O   0  0  0  0  0  0  0  0  0  0  0  0
    9.3026  -16.4497   23.8066 N   0  0  0  0  0  0  0  0  0  0  0  0
    9.8188  -16.4603   25.1920 C   0  0  1  0  0  0  0  0  0  0  0  0
    8.6346  -16.5884   26.0691 C   0  0  0  0  0  0  0  0  0  0  0  0
    7.5793  -15.5848   25.9403 C   0  0  0  0  0  0  0  0  0  0  0  0
    6.3071  -15.8073   25.4393 C   0  0  0  0  0  0  0  0  0  0  0  0
    5.6588  -14.6564   25.4169 N   0  0  0  0  0  0  0  0  0  0  0  0
    6.4331  -13.6511   25.8834 C   0  0  0  0  0  0  0  0  0  0  0  0
    6.2618  -12.3037   26.0899 C   0  0  0  0  0  0  0  0  0  0  0  0
    7.2732  -11.5432   26.6196 C   0  0  0  0  0  0  0  0  0  0  0  0
    8.4908  -12.0760   26.9669 C   0  0  0  0  0  0  0  0  0  0  0  0
    8.6482  -13.4413   26.7506 C   0  0  0  0  0  0  0  0  0  0  0  0
    7.6474  -14.2425   26.2145 C   0  0  0  0  0  0  0  0  0  0  0  0
   10.8802  -17.4692   25.2452 C   0  0  0  0  0  0  0  0  0  0  0  0
   11.4584  -17.8075   26.3232 O   0  0  0  0  0  0  0  0  0  0  0  0
   11.3546  -18.1468   24.0759 N   0  0  0  0  0  0  0  0  0  0  0  0
   12.3305  -19.1690   24.0308 C   0  0  0  0  0  0  0  0  0  0  0  0
   13.6527  -18.7051   24.4788 C   0  0  0  0  0  0  0  0  0  0  0  0
   14.2739  -17.7958   23.8454 O   0  0  0  0  0  0  0  0  0  0  0  0
   14.2592  -19.2356   25.5902 O   0  0  0  0  0  0  0  0  0  0  0  0
  2  1  1  1
  3  2  1  0
  3  4  1  0
  4  5  2  0
  5  6  1  0
  7  6  1  0
  8  4  1  0
  8  7  2  0
  9 10  2  0
  9  2  1  0
 11  9  1  0
 12 13  1  1
 12 11  1  0
 13 14  1  0
 14 15  2  0
 15 16  1  0
 17 18  2  0
 17 16  1  0
 19 18  1  0
 20 19  2  0
 21 20  1  0
 21 22  2  0
 22 14  1  0
 22 17  1  0
 23 12  1  0
 24 23  2  0
 25 23  1  0
 26 27  1  0
 26 25  1  0
 27 29  1  0
 28 27  2  0
M  END
$$$$
