HWG.pdb
     RDKit          3D

 29 31  0  0  1  0  0  0  0  0999 V2000
   12.7472  -14.4776   19.5511 N   0  0  0  0  0  0  0  0  0  0  0  0
   11.3614  -14.3312   19.8616 C   0  0  1  0  0  0  0  0  0  0  0  0
   10.5837  -15.4020   19.0851 C   0  0  0  0  0  0  0  0  0  0  0  0
    9.5205  -14.6837   18.3289 C   0  0  0  0  0  0  0  0  0  0  0  0
    9.2683  -13.3334   18.2362 C   0  0  0  0  0  0  0  0  0  0  0  0
    8.1952  -13.1588   17.4326 N   0  0  0  0  0  0  0  0  0  0  0  0
    7.7736  -14.3565   17.0233 C   0  0  0  0  0  0  0  0  0  0  0  0
    8.5732  -15.2776   17.5641 N   0  0  0  0  0  0  0  0  0  0  0  0
   11.0724  -14.5909   21.3076 C   0  0  0  0  0  0  0  0  0  0  0  0
   11.9815  -14.5596   22.1740 O   0  0  0  0  0  0  0  0  0  0  0  0
    9.7314  -14.8735   21.6545 N   0  0  0  0  0  0  0  0  0  0  0  0
    9.3199  -14.7523   23.0694 C   0  0  1  0  0  0  0  0  0  0  0  0
    7.9547  -14.1834   23.0514 C   0  0  0  0  0  0  0  0  0  0  0  0
    7.2148  -14.1468   24.3118 C   0  0  0  0  0  0  0  0  0  0  0  0
    6.3987  -15.1535   24.8013 C   0  0  0  0  0  0  0  0  0  0  0  0
    5.8507  -14.7371   25.9289 N   0  0  0  0  0  0  0  0  0  0  0  0
    6.2575  -13.4849   26.2358 C   0  0  0  0  0  0  0  0  0  0  0  0
    6.0217  -12.6084   27.2671 C   0  0  0  0  0  0  0  0  0  0  0  0
    6.6310  -11.3795   27.2936 C   0  0  0  0  0  0  0  0  0  0  0  0
    7.4947  -10.9644   26.3094 C   0  0  0  0  0  0  0  0  0  0  0  0
    7.7218  -11.8632   25.2720 C   0  0  0  0  0  0  0  0  0  0  0  0
    7.1214  -13.1149   25.2107 C   0  0  0  0  0  0  0  0  0  0  0  0
    9.5611  -16.0538   23.6979 C   0  0  0  0  0  0  0  0  0  0  0  0
    9.2439  -16.3100   24.8999 O   0  0  0  0  0  0  0  0  0  0  0  0
   10.1855  -17.1387   23.0017 N   0  0  0  0  0  0  0  0  0  0  0  0
   10.3607  -18.4581   23.4791 C   0  0  0  0  0  0  0  0  0  0  0  0
   11.3887  -18.5453   24.5278 C   0  0  0  0  0  0  0  0  0  0  0  0
   12.0204  -17.5113   24.9094 O   0  0  0  0  0  0  0  0  0  0  0  0
   11.7006  -19.7403   25.1274 O   0  0  0  0  0  0  0  0  0  0  0  0
  2  1  1  1
  3  2  1  0
  3  4  1  0
  4  5  2  0
  5  6  1  0
  7  6  1  0
  8  4  1  0
  8  7  2  0
  9 10  2  0
  9  2  1  0
 11  9  1  0
 12 13  1  6
 12 11  1  0
 13 14  1  0
 14 15  2  0
 15 16  1  0
 17 18  2  0
 17 16  1  0
 19 18  1  0
 20 19  2  0
 21 20  1  0
 21 22  2  0
 22 14  1  0
 22 17  1  0
 23 12  1  0
 24 23  2  0
 25 23  1  0
 26 27  1  0
 26 25  1  0
 27 29  1  0
 28 27  2  0
M  END
$$$$
