HWG.pdb
     RDKit          3D

 29 31  0  0  1  0  0  0  0  0999 V2000
    8.7433  -16.4515   21.1175 N   0  0  0  0  0  0  0  0  0  0  0  0
    9.1469  -15.1355   21.4964 C   0  0  1  0  0  0  0  0  0  0  0  0
    7.9583  -14.1907   21.2745 C   0  0  0  0  0  0  0  0  0  0  0  0
    7.8387  -14.0046   19.8016 C   0  0  0  0  0  0  0  0  0  0  0  0
    8.7625  -13.5289   18.8984 C   0  0  0  0  0  0  0  0  0  0  0  0
    8.1975  -13.5423   17.6703 N   0  0  0  0  0  0  0  0  0  0  0  0
    6.9536  -14.0112   17.7818 C   0  0  0  0  0  0  0  0  0  0  0  0
    6.7361  -14.2904   19.0683 N   0  0  0  0  0  0  0  0  0  0  0  0
    9.4732  -15.0387   22.9545 C   0  0  0  0  0  0  0  0  0  0  0  0
    9.8736  -13.9639   23.4670 O   0  0  0  0  0  0  0  0  0  0  0  0
    9.3116  -16.2104   23.7287 N   0  0  0  0  0  0  0  0  0  0  0  0
    9.8238  -16.2253   25.1155 C   0  0  1  0  0  0  0  0  0  0  0  0
    8.6463  -16.4412   25.9844 C   0  0  0  0  0  0  0  0  0  0  0  0
    7.5565  -15.4695   25.9093 C   0  0  0  0  0  0  0  0  0  0  0  0
    6.2790  -15.7206   25.4362 C   0  0  0  0  0  0  0  0  0  0  0  0
    5.5940  -14.5912   25.4606 N   0  0  0  0  0  0  0  0  0  0  0  0
    6.3483  -13.5732   25.9323 C   0  0  0  0  0  0  0  0  0  0  0  0
    6.1399  -12.2376   26.1778 C   0  0  0  0  0  0  0  0  0  0  0  0
    7.1406  -11.4581   26.7002 C   0  0  0  0  0  0  0  0  0  0  0  0
    8.3835  -11.9596   27.0016 C   0  0  0  0  0  0  0  0  0  0  0  0
    8.5783  -13.3132   26.7461 C   0  0  0  0  0  0  0  0  0  0  0  0
    7.5893  -14.1329   26.2161 C   0  0  0  0  0  0  0  0  0  0  0  0
   10.9403  -17.1737   25.1489 C   0  0  0  0  0  0  0  0  0  0  0  0
   11.4924  -17.5533   26.2269 O   0  0  0  0  0  0  0  0  0  0  0  0
   11.5025  -17.7400   23.9594 N   0  0  0  0  0  0  0  0  0  0  0  0
   12.5447  -18.6930   23.8899 C   0  0  0  0  0  0  0  0  0  0  0  0
   13.8723  -18.0686   23.7820 C   0  0  0  0  0  0  0  0  0  0  0  0
   14.2271  -17.4703   22.7189 O   0  0  0  0  0  0  0  0  0  0  0  0
   14.7701  -18.1105   24.8197 O   0  0  0  0  0  0  0  0  0  0  0  0
  2  1  1  1
  3  2  1  0
  3  4  1  0
  4  5  2  0
  5  6  1  0
  7  6  1  0
  8  4  1  0
  8  7  2  0
  9 10  2  0
  9  2  1  0
 11  9  1  0
 12 13  1  1
 12 11  1  0
 13 14  1  0
 14 15  2  0
 15 16  1  0
 17 18  2  0
 17 16  1  0
 19 18  1  0
 20 19  2  0
 21 20  1  0
 21 22  2  0
 22 14  1  0
 22 17  1  0
 23 12  1  0
 24 23  2  0
 25 23  1  0
 26 27  1  0
 26 25  1  0
 27 29  1  0
 28 27  2  0
M  END
$$$$
