HWG.pdb
     RDKit          3D

 29 31  0  0  1  0  0  0  0  0999 V2000
   10.8326  -16.9420   21.0085 N   0  0  0  0  0  0  0  0  0  0  0  0
   10.1055  -17.6452   22.0160 C   0  0  1  0  0  0  0  0  0  0  0  0
   10.8351  -18.9659   22.2955 C   0  0  0  0  0  0  0  0  0  0  0  0
   10.1767  -19.9974   21.4466 C   0  0  0  0  0  0  0  0  0  0  0  0
    8.8686  -20.0850   21.0263 C   0  0  0  0  0  0  0  0  0  0  0  0
    8.7415  -21.1995   20.2717 N   0  0  0  0  0  0  0  0  0  0  0  0
    9.9280  -21.8061   20.2096 C   0  0  0  0  0  0  0  0  0  0  0  0
   10.7950  -21.0810   20.9188 N   0  0  0  0  0  0  0  0  0  0  0  0
   10.0862  -16.9103   23.3204 C   0  0  0  0  0  0  0  0  0  0  0  0
   10.9150  -16.0006   23.5729 O   0  0  0  0  0  0  0  0  0  0  0  0
    9.0947  -17.2860   24.2554 N   0  0  0  0  0  0  0  0  0  0  0  0
    9.0568  -16.6051   25.5672 C   0  0  1  0  0  0  0  0  0  0  0  0
    7.6863  -16.0673   25.7098 C   0  0  0  0  0  0  0  0  0  0  0  0
    7.3792  -14.7998   25.0491 C   0  0  0  0  0  0  0  0  0  0  0  0
    7.2559  -14.6079   23.6827 C   0  0  0  0  0  0  0  0  0  0  0  0
    7.0400  -13.3241   23.4581 N   0  0  0  0  0  0  0  0  0  0  0  0
    7.0085  -12.6249   24.6148 C   0  0  0  0  0  0  0  0  0  0  0  0
    6.8071  -11.3087   24.9533 C   0  0  0  0  0  0  0  0  0  0  0  0
    6.8130  -10.9159   26.2677 C   0  0  0  0  0  0  0  0  0  0  0  0
    7.0167  -11.7996   27.2995 C   0  0  0  0  0  0  0  0  0  0  0  0
    7.2201  -13.1281   26.9396 C   0  0  0  0  0  0  0  0  0  0  0  0
    7.2227  -13.5621   25.6195 C   0  0  0  0  0  0  0  0  0  0  0  0
    9.5764  -17.5531   26.5563 C   0  0  0  0  0  0  0  0  0  0  0  0
    9.5057  -17.3541   27.8078 O   0  0  0  0  0  0  0  0  0  0  0  0
   10.2159  -18.7791   26.1827 N   0  0  0  0  0  0  0  0  0  0  0  0
   10.6841  -19.7870   27.0569 C   0  0  0  0  0  0  0  0  0  0  0  0
   12.0483  -19.5237   27.5404 C   0  0  0  0  0  0  0  0  0  0  0  0
   12.6796  -18.4830   27.1766 O   0  0  0  0  0  0  0  0  0  0  0  0
   12.6843  -20.3884   28.3962 O   0  0  0  0  0  0  0  0  0  0  0  0
  2  1  1  6
  3  2  1  0
  3  4  1  0
  4  5  2  0
  5  6  1  0
  7  6  1  0
  8  4  1  0
  8  7  2  0
  9 10  2  0
  9  2  1  0
 11  9  1  0
 12 13  1  1
 12 11  1  0
 13 14  1  0
 14 15  2  0
 15 16  1  0
 17 18  2  0
 17 16  1  0
 19 18  1  0
 20 19  2  0
 21 20  1  0
 21 22  2  0
 22 14  1  0
 22 17  1  0
 23 12  1  0
 24 23  2  0
 25 23  1  0
 26 27  1  0
 26 25  1  0
 27 29  1  0
 28 27  2  0
M  END
$$$$
