HWG.pdb
     RDKit          3D

 29 31  0  0  1  0  0  0  0  0999 V2000
    7.5619  -13.9400   20.8150 N   0  0  0  0  0  0  0  0  0  0  0  0
    8.2280  -15.1047   21.3029 C   0  0  1  0  0  0  0  0  0  0  0  0
    9.3437  -15.4649   20.3128 C   0  0  0  0  0  0  0  0  0  0  0  0
    8.8110  -15.1694   18.9537 C   0  0  0  0  0  0  0  0  0  0  0  0
    8.5059  -13.9584   18.3740 C   0  0  0  0  0  0  0  0  0  0  0  0
    8.0516  -14.1924   17.1224 N   0  0  0  0  0  0  0  0  0  0  0  0
    8.0652  -15.5088   16.9063 C   0  0  0  0  0  0  0  0  0  0  0  0
    8.5235  -16.0993   18.0116 N   0  0  0  0  0  0  0  0  0  0  0  0
    8.9126  -14.8615   22.6121 C   0  0  0  0  0  0  0  0  0  0  0  0
    9.3699  -13.7308   22.9129 O   0  0  0  0  0  0  0  0  0  0  0  0
    9.0221  -15.9607   23.4942 N   0  0  0  0  0  0  0  0  0  0  0  0
    9.7823  -15.7935   24.7513 C   0  0  1  0  0  0  0  0  0  0  0  0
    8.8238  -16.0549   25.8471 C   0  0  0  0  0  0  0  0  0  0  0  0
    7.6124  -15.2382   25.9024 C   0  0  0  0  0  0  0  0  0  0  0  0
    6.3369  -15.6574   25.5611 C   0  0  0  0  0  0  0  0  0  0  0  0
    5.5140  -14.6303   25.6757 N   0  0  0  0  0  0  0  0  0  0  0  0
    6.1714  -13.5215   26.0831 C   0  0  0  0  0  0  0  0  0  0  0  0
    5.8140  -12.2267   26.3714 C   0  0  0  0  0  0  0  0  0  0  0  0
    6.7514  -11.3211   26.7995 C   0  0  0  0  0  0  0  0  0  0  0  0
    8.0748  -11.6519   26.9611 C   0  0  0  0  0  0  0  0  0  0  0  0
    8.4203  -12.9664   26.6641 C   0  0  0  0  0  0  0  0  0  0  0  0
    7.4990  -13.9102   26.2264 C   0  0  0  0  0  0  0  0  0  0  0  0
   10.9938  -16.6088   24.6300 C   0  0  0  0  0  0  0  0  0  0  0  0
   11.8632  -16.6954   25.5507 O   0  0  0  0  0  0  0  0  0  0  0  0
   11.2947  -17.3665   23.4524 N   0  0  0  0  0  0  0  0  0  0  0  0
   12.4024  -18.2242   23.2612 C   0  0  0  0  0  0  0  0  0  0  0  0
   12.4407  -19.3212   24.2407 C   0  0  0  0  0  0  0  0  0  0  0  0
   11.3731  -19.7572   24.7735 O   0  0  0  0  0  0  0  0  0  0  0  0
   13.6245  -19.9088   24.6122 O   0  0  0  0  0  0  0  0  0  0  0  0
  2  1  1  6
  3  2  1  0
  3  4  1  0
  4  5  2  0
  5  6  1  0
  7  6  1  0
  8  4  1  0
  8  7  2  0
  9 10  2  0
  9  2  1  0
 11  9  1  0
 12 13  1  1
 12 11  1  0
 13 14  1  0
 14 15  2  0
 15 16  1  0
 17 18  2  0
 17 16  1  0
 19 18  1  0
 20 19  2  0
 21 20  1  0
 21 22  2  0
 22 14  1  0
 22 17  1  0
 23 12  1  0
 24 23  2  0
 25 23  1  0
 26 27  1  0
 26 25  1  0
 27 29  1  0
 28 27  2  0
M  END
$$$$
