HWG.pdb
     RDKit          3D

 29 31  0  0  1  0  0  0  0  0999 V2000
   11.3591  -16.9159   19.4399 N   0  0  0  0  0  0  0  0  0  0  0  0
   10.2823  -16.0623   19.8273 C   0  0  1  0  0  0  0  0  0  0  0  0
    9.0280  -16.4996   19.0591 C   0  0  0  0  0  0  0  0  0  0  0  0
    8.5122  -15.2842   18.3699 C   0  0  0  0  0  0  0  0  0  0  0  0
    9.0202  -14.0047   18.3479 C   0  0  0  0  0  0  0  0  0  0  0  0
    8.2055  -13.2403   17.5864 N   0  0  0  0  0  0  0  0  0  0  0  0
    7.2090  -14.0037   17.1348 C   0  0  0  0  0  0  0  0  0  0  0  0
    7.3934  -15.2378   17.6075 N   0  0  0  0  0  0  0  0  0  0  0  0
    9.9379  -16.2041   21.2775 C   0  0  0  0  0  0  0  0  0  0  0  0
   10.4497  -17.1049   21.9880 O   0  0  0  0  0  0  0  0  0  0  0  0
    9.0109  -15.2800   21.8115 N   0  0  0  0  0  0  0  0  0  0  0  0
    8.6901  -15.3439   23.2534 C   0  0  1  0  0  0  0  0  0  0  0  0
    8.1239  -14.0236   23.6057 C   0  0  0  0  0  0  0  0  0  0  0  0
    7.3596  -13.9191   24.8476 C   0  0  0  0  0  0  0  0  0  0  0  0
    6.7360  -14.9668   25.5052 C   0  0  0  0  0  0  0  0  0  0  0  0
    6.0916  -14.4804   26.5509 N   0  0  0  0  0  0  0  0  0  0  0  0
    6.2475  -13.1404   26.6401 C   0  0  0  0  0  0  0  0  0  0  0  0
    5.8254  -12.1656   27.5113 C   0  0  0  0  0  0  0  0  0  0  0  0
    6.1913  -10.8564   27.3265 C   0  0  0  0  0  0  0  0  0  0  0  0
    6.9853  -10.4544   26.2801 C   0  0  0  0  0  0  0  0  0  0  0  0
    7.4033  -11.4535   25.4068 C   0  0  0  0  0  0  0  0  0  0  0  0
    7.0511  -12.7888   25.5610 C   0  0  0  0  0  0  0  0  0  0  0  0
    7.8969  -16.5583   23.4615 C   0  0  0  0  0  0  0  0  0  0  0  0
    6.8876  -16.8545   22.7511 O   0  0  0  0  0  0  0  0  0  0  0  0
    8.1969  -17.5036   24.4949 N   0  0  0  0  0  0  0  0  0  0  0  0
    7.5813  -18.7611   24.6927 C   0  0  0  0  0  0  0  0  0  0  0  0
    8.2202  -19.5380   25.7662 C   0  0  0  0  0  0  0  0  0  0  0  0
    9.4731  -19.7476   25.7625 O   0  0  0  0  0  0  0  0  0  0  0  0
    7.4894  -20.0618   26.8036 O   0  0  0  0  0  0  0  0  0  0  0  0
  2  1  1  6
  3  2  1  0
  3  4  1  0
  4  5  2  0
  5  6  1  0
  7  6  1  0
  8  4  1  0
  8  7  2  0
  9 10  2  0
  9  2  1  0
 11  9  1  0
 12 13  1  6
 12 11  1  0
 13 14  1  0
 14 15  2  0
 15 16  1  0
 17 18  2  0
 17 16  1  0
 19 18  1  0
 20 19  2  0
 21 20  1  0
 21 22  2  0
 22 14  1  0
 22 17  1  0
 23 12  1  0
 24 23  2  0
 25 23  1  0
 26 27  1  0
 26 25  1  0
 27 29  1  0
 28 27  2  0
M  END
$$$$
