TLC.pdb
     RDKit          3D

 22 21  0  0  1  0  0  0  0  0999 V2000
   28.7664  -19.0072  -17.4736 C   0  0  0  0  0  0  0  0  0  0  0  0
   27.6047  -19.4998  -16.6055 C   0  0  1  0  0  0  0  0  0  0  0  0
   26.4910  -19.5554  -17.4288 O   0  0  0  0  0  0  0  0  0  0  0  0
   27.8594  -20.8756  -16.0781 C   0  0  2  0  0  0  0  0  0  0  0  0
   27.9786  -21.8602  -17.1256 N   0  0  0  0  0  0  0  0  0  0  0  0
   26.8245  -21.2097  -15.0861 C   0  0  0  0  0  0  0  0  0  0  0  0
   25.8499  -21.9469  -15.3510 O   0  0  0  0  0  0  0  0  0  0  0  0
   25.5315  -19.9234   -9.1031 C   0  0  0  0  0  0  0  0  0  0  0  0
   25.1876  -20.6294  -10.4309 C   0  0  2  0  0  0  0  0  0  0  0  0
   24.9659  -22.0737  -10.0947 C   0  0  0  0  0  0  0  0  0  0  0  0
   26.2817  -20.4102  -11.4331 C   0  0  0  0  0  0  0  0  0  0  0  0
   25.8976  -20.8853  -12.7737 C   0  0  2  0  0  0  0  0  0  0  0  0
   26.9276  -20.6826  -13.7793 N   0  0  0  0  0  0  0  0  0  0  0  0
   24.6627  -20.2461  -13.2416 C   0  0  0  0  0  0  0  0  0  0  0  0
   24.5183  -19.0224  -13.4800 O   0  0  0  0  0  0  0  0  0  0  0  0
   23.4904  -21.0669  -13.4577 N   0  0  0  0  0  0  0  0  0  0  0  0
   22.2239  -20.5002  -13.8291 C   0  0  1  0  0  0  0  0  0  0  0  0
   21.8735  -21.0248  -15.2139 C   0  0  0  0  0  0  0  0  0  0  0  0
   21.4443  -22.7805  -15.1593 S   0  0  0  0  0  0  0  0  0  0  0  0
   21.1468  -20.7973  -12.8902 C   0  0  0  0  0  0  0  0  0  0  0  0
   20.0241  -20.2640  -13.0250 O   0  0  0  0  0  0  0  0  0  0  0  0
   21.3620  -21.6722  -11.8437 O   0  0  0  0  0  0  0  0  0  0  0  0
  2  1  1  6
  2  4  1  0
  2  3  1  0
  4  6  1  0
  4  5  1  6
  6  7  2  0
  9  8  1  1
  9 11  1  0
  9 10  1  0
 12 11  1  1
 12 14  1  0
 13 12  1  0
 13  6  1  0
 14 15  2  0
 16 14  1  0
 16 17  1  0
 17 20  1  0
 17 18  1  6
 19 18  1  0
 20 21  2  0
 20 22  1  0
M  END
$$$$
