TLC.pdb
     RDKit          3D

 22 21  0  0  1  0  0  0  0  0999 V2000
   28.2608  -18.1010  -16.1567 C   0  0  0  0  0  0  0  0  0  0  0  0
   27.0670  -18.9328  -15.6788 C   0  0  1  0  0  0  0  0  0  0  0  0
   26.3185  -19.2351  -16.8055 O   0  0  0  0  0  0  0  0  0  0  0  0
   27.5086  -20.2193  -15.0578 C   0  0  2  0  0  0  0  0  0  0  0  0
   28.1986  -21.0788  -15.9885 N   0  0  0  0  0  0  0  0  0  0  0  0
   26.3512  -20.8685  -14.4209 C   0  0  0  0  0  0  0  0  0  0  0  0
   25.8423  -21.9221  -14.8619 O   0  0  0  0  0  0  0  0  0  0  0  0
   26.3443  -22.1128  -10.4024 C   0  0  0  0  0  0  0  0  0  0  0  0
   25.9159  -20.6312  -10.4365 C   0  0  2  0  0  0  0  0  0  0  0  0
   25.8917  -20.1671   -9.0109 C   0  0  0  0  0  0  0  0  0  0  0  0
   24.5957  -20.4892  -11.1337 C   0  0  0  0  0  0  0  0  0  0  0  0
   24.6779  -20.8965  -12.5472 C   0  0  2  0  0  0  0  0  0  0  0  0
   25.7857  -20.2867  -13.2643 N   0  0  0  0  0  0  0  0  0  0  0  0
   23.4375  -20.5954  -13.2706 C   0  0  0  0  0  0  0  0  0  0  0  0
   23.1241  -19.4790  -13.7505 O   0  0  0  0  0  0  0  0  0  0  0  0
   22.4691  -21.6532  -13.4660 N   0  0  0  0  0  0  0  0  0  0  0  0
   21.2392  -21.4359  -14.1753 C   0  0  1  0  0  0  0  0  0  0  0  0
   21.1180  -22.5255  -15.2306 C   0  0  0  0  0  0  0  0  0  0  0  0
   21.1856  -24.1707  -14.4834 S   0  0  0  0  0  0  0  0  0  0  0  0
   20.0575  -21.4304  -13.3187 C   0  0  0  0  0  0  0  0  0  0  0  0
   20.1468  -21.7540  -12.1144 O   0  0  0  0  0  0  0  0  0  0  0  0
   18.8296  -21.0666  -13.8351 O   0  0  0  0  0  0  0  0  0  0  0  0
  2  1  1  6
  2  4  1  0
  2  3  1  0
  4  6  1  0
  4  5  1  6
  6  7  2  0
  9  8  1  1
  9 11  1  0
  9 10  1  0
 12 11  1  1
 12 14  1  0
 13 12  1  0
 13  6  1  0
 14 15  2  0
 16 14  1  0
 16 17  1  0
 17 20  1  0
 17 18  1  6
 19 18  1  0
 20 21  2  0
 20 22  1  0
M  END
$$$$
