TLC.pdb
     RDKit          3D

 22 21  0  0  1  0  0  0  0  0999 V2000
   28.7158  -31.0285  -19.3657 C   0  0  0  0  0  0  0  0  0  0  0  0
   28.4117  -29.6790  -18.7085 C   0  0  1  0  0  0  0  0  0  0  0  0
   27.0316  -29.5806  -18.6265 O   0  0  0  0  0  0  0  0  0  0  0  0
   28.9638  -29.6083  -17.3207 C   0  0  2  0  0  0  0  0  0  0  0  0
   28.4262  -30.6291  -16.4548 N   0  0  0  0  0  0  0  0  0  0  0  0
   28.7733  -28.2462  -16.7959 C   0  0  0  0  0  0  0  0  0  0  0  0
   27.9985  -27.9914  -15.8481 O   0  0  0  0  0  0  0  0  0  0  0  0
   31.6217  -25.2273  -15.0784 C   0  0  0  0  0  0  0  0  0  0  0  0
   31.7521  -25.3839  -16.6075 C   0  0  2  0  0  0  0  0  0  0  0  0
   32.9553  -24.5856  -17.0115 C   0  0  0  0  0  0  0  0  0  0  0  0
   30.4879  -24.9430  -17.2834 C   0  0  0  0  0  0  0  0  0  0  0  0
   29.3476  -25.8039  -16.9241 C   0  0  2  0  0  0  0  0  0  0  0  0
   29.4903  -27.1774  -17.3785 N   0  0  0  0  0  0  0  0  0  0  0  0
   28.0831  -25.2735  -17.4459 C   0  0  0  0  0  0  0  0  0  0  0  0
   27.6710  -25.3947  -18.6252 O   0  0  0  0  0  0  0  0  0  0  0  0
   27.2108  -24.5424  -16.5518 N   0  0  0  0  0  0  0  0  0  0  0  0
   26.0121  -23.9011  -17.0154 C   0  0  1  0  0  0  0  0  0  0  0  0
   24.8666  -24.3731  -16.1319 C   0  0  0  0  0  0  0  0  0  0  0  0
   24.5499  -26.1389  -16.3587 S   0  0  0  0  0  0  0  0  0  0  0  0
   26.0838  -22.4434  -17.0115 C   0  0  0  0  0  0  0  0  0  0  0  0
   25.1499  -21.7622  -17.4876 O   0  0  0  0  0  0  0  0  0  0  0  0
   27.1875  -21.8057  -16.4803 O   0  0  0  0  0  0  0  0  0  0  0  0
  2  1  1  1
  2  4  1  0
  2  3  1  0
  4  6  1  0
  4  5  1  1
  6  7  2  0
  9  8  1  1
  9 11  1  0
  9 10  1  0
 12 11  1  6
 12 14  1  0
 13 12  1  0
 13  6  1  0
 14 15  2  0
 16 14  1  0
 16 17  1  0
 17 20  1  0
 17 18  1  1
 19 18  1  0
 20 21  2  0
 20 22  1  0
M  END
$$$$
