TLC.pdb
     RDKit          3D

 22 21  0  0  1  0  0  0  0  0999 V2000
   25.7617  -16.8561  -14.5421 C   0  0  0  0  0  0  0  0  0  0  0  0
   26.4936  -17.7873  -15.5130 C   0  0  1  0  0  0  0  0  0  0  0  0
   27.5093  -18.3936  -14.7905 O   0  0  0  0  0  0  0  0  0  0  0  0
   25.5896  -18.8602  -16.0302 C   0  0  2  0  0  0  0  0  0  0  0  0
   26.2885  -19.8442  -16.8202 N   0  0  0  0  0  0  0  0  0  0  0  0
   24.4644  -18.2374  -16.7463 C   0  0  0  0  0  0  0  0  0  0  0  0
   24.5651  -17.8076  -17.9162 O   0  0  0  0  0  0  0  0  0  0  0  0
   18.4224  -18.1610  -17.3048 C   0  0  0  0  0  0  0  0  0  0  0  0
   19.7695  -17.4240  -17.4534 C   0  0  2  0  0  0  0  0  0  0  0  0
   20.0494  -17.3513  -18.9247 C   0  0  0  0  0  0  0  0  0  0  0  0
   20.8375  -18.1344  -16.6762 C   0  0  0  0  0  0  0  0  0  0  0  0
   22.1037  -17.3812  -16.6738 C   0  0  2  0  0  0  0  0  0  0  0  0
   23.2163  -18.1165  -16.0954 N   0  0  0  0  0  0  0  0  0  0  0  0
   21.9732  -16.1049  -15.9619 C   0  0  0  0  0  0  0  0  0  0  0  0
   22.0199  -15.9547  -14.7168 O   0  0  0  0  0  0  0  0  0  0  0  0
   21.7726  -14.8946  -16.7298 N   0  0  0  0  0  0  0  0  0  0  0  0
   21.8501  -13.5921  -16.1294 C   0  0  1  0  0  0  0  0  0  0  0  0
   23.2619  -13.4181  -15.5887 C   0  0  0  0  0  0  0  0  0  0  0  0
   23.5362  -11.7280  -15.0074 S   0  0  0  0  0  0  0  0  0  0  0  0
   21.5221  -12.5015  -17.0422 C   0  0  0  0  0  0  0  0  0  0  0  0
   21.7437  -12.6130  -18.2675 O   0  0  0  0  0  0  0  0  0  0  0  0
   20.9632  -11.3361  -16.5561 O   0  0  0  0  0  0  0  0  0  0  0  0
  2  1  1  1
  2  4  1  0
  2  3  1  0
  4  6  1  0
  4  5  1  6
  6  7  2  0
  9  8  1  6
  9 11  1  0
  9 10  1  0
 12 11  1  1
 12 14  1  0
 13 12  1  0
 13  6  1  0
 14 15  2  0
 16 14  1  0
 16 17  1  0
 17 20  1  0
 17 18  1  6
 19 18  1  0
 20 21  2  0
 20 22  1  0
M  END
$$$$
