TLC.pdb
     RDKit          3D

 22 21  0  0  1  0  0  0  0  0999 V2000
   21.7575  -11.5502  -20.6866 C   0  0  0  0  0  0  0  0  0  0  0  0
   20.8406  -12.7745  -20.6093 C   0  0  1  0  0  0  0  0  0  0  0  0
   20.7982  -13.3186  -21.8835 O   0  0  0  0  0  0  0  0  0  0  0  0
   21.3878  -13.8116  -19.6814 C   0  0  2  0  0  0  0  0  0  0  0  0
   20.6080  -15.0252  -19.6807 N   0  0  0  0  0  0  0  0  0  0  0  0
   21.5432  -13.2238  -18.3409 C   0  0  0  0  0  0  0  0  0  0  0  0
   20.5670  -12.9113  -17.6247 O   0  0  0  0  0  0  0  0  0  0  0  0
   23.6778  -14.4249  -14.5602 C   0  0  0  0  0  0  0  0  0  0  0  0
   24.6351  -13.9883  -15.6883 C   0  0  2  0  0  0  0  0  0  0  0  0
   26.0216  -14.2922  -15.2050 C   0  0  0  0  0  0  0  0  0  0  0  0
   24.4212  -12.5410  -16.0185 C   0  0  0  0  0  0  0  0  0  0  0  0
   23.0808  -12.3015  -16.5812 C   0  0  2  0  0  0  0  0  0  0  0  0
   22.8426  -13.0007  -17.8333 N   0  0  0  0  0  0  0  0  0  0  0  0
   22.8310  -10.8718  -16.7955 C   0  0  0  0  0  0  0  0  0  0  0  0
   23.3553  -10.1644  -17.6898 O   0  0  0  0  0  0  0  0  0  0  0  0
   21.9060  -10.1857  -15.9188 N   0  0  0  0  0  0  0  0  0  0  0  0
   21.6694   -8.7726  -16.0199 C   0  0  1  0  0  0  0  0  0  0  0  0
   20.3957   -8.5761  -16.8290 C   0  0  0  0  0  0  0  0  0  0  0  0
   19.8547   -6.8512  -16.7892 S   0  0  0  0  0  0  0  0  0  0  0  0
   21.5555   -8.1000  -14.7296 C   0  0  0  0  0  0  0  0  0  0  0  0
   21.5878   -6.8521  -14.6610 O   0  0  0  0  0  0  0  0  0  0  0  0
   21.4110   -8.8405  -13.5730 O   0  0  0  0  0  0  0  0  0  0  0  0
  2  1  1  6
  2  4  1  0
  2  3  1  0
  4  6  1  0
  4  5  1  1
  6  7  2  0
  9  8  1  1
  9 11  1  0
  9 10  1  0
 12 11  1  6
 12 14  1  0
 13 12  1  0
 13  6  1  0
 14 15  2  0
 16 14  1  0
 16 17  1  0
 17 20  1  0
 17 18  1  6
 19 18  1  0
 20 21  2  0
 20 22  1  0
M  END
$$$$
