TLC.pdb
     RDKit          3D

 22 21  0  0  1  0  0  0  0  0999 V2000
   17.3777  -12.8809  -19.1823 C   0  0  0  0  0  0  0  0  0  0  0  0
   17.7049  -11.7561  -18.1957 C   0  0  1  0  0  0  0  0  0  0  0  0
   16.4963  -11.1801  -17.8368 O   0  0  0  0  0  0  0  0  0  0  0  0
   18.3516  -12.2853  -16.9558 C   0  0  2  0  0  0  0  0  0  0  0  0
   17.5404  -13.2690  -16.2811 N   0  0  0  0  0  0  0  0  0  0  0  0
   18.7292  -11.1559  -16.0905 C   0  0  0  0  0  0  0  0  0  0  0  0
   18.0287  -10.7837  -15.1240 O   0  0  0  0  0  0  0  0  0  0  0  0
   22.0183   -9.9787  -13.1730 C   0  0  0  0  0  0  0  0  0  0  0  0
   22.4357  -10.1721  -14.6454 C   0  0  2  0  0  0  0  0  0  0  0  0
   23.9345  -10.1339  -14.6666 C   0  0  0  0  0  0  0  0  0  0  0  0
   21.7990   -9.1224  -15.5069 C   0  0  0  0  0  0  0  0  0  0  0  0
   20.3378   -9.2933  -15.5859 C   0  0  2  0  0  0  0  0  0  0  0  0
   19.9296  -10.4586  -16.3532 N   0  0  0  0  0  0  0  0  0  0  0  0
   19.6844   -8.1109  -16.1586 C   0  0  0  0  0  0  0  0  0  0  0  0
   19.4876   -7.9049  -17.3808 O   0  0  0  0  0  0  0  0  0  0  0  0
   19.2138   -7.0728  -15.2666 N   0  0  0  0  0  0  0  0  0  0  0  0
   18.5775   -5.8817  -15.7557 C   0  0  1  0  0  0  0  0  0  0  0  0
   17.1078   -5.9527  -15.3676 C   0  0  0  0  0  0  0  0  0  0  0  0
   16.2542   -4.4054  -15.7509 S   0  0  0  0  0  0  0  0  0  0  0  0
   19.1721   -4.6468  -15.2539 C   0  0  0  0  0  0  0  0  0  0  0  0
   19.7185   -4.6183  -14.1298 O   0  0  0  0  0  0  0  0  0  0  0  0
   19.1344   -3.4988  -16.0203 O   0  0  0  0  0  0  0  0  0  0  0  0
  2  1  1  6
  2  4  1  0
  2  3  1  0
  4  6  1  0
  4  5  1  1
  6  7  2  0
  9  8  1  1
  9 11  1  0
  9 10  1  0
 12 11  1  6
 12 14  1  0
 13 12  1  0
 13  6  1  0
 14 15  2  0
 16 14  1  0
 16 17  1  0
 17 20  1  0
 17 18  1  1
 19 18  1  0
 20 21  2  0
 20 22  1  0
M  END
$$$$
