TLC.pdb
     RDKit          3D

 22 21  0  0  1  0  0  0  0  0999 V2000
   21.4025  -11.5284  -21.5055 C   0  0  0  0  0  0  0  0  0  0  0  0
   20.9686  -10.5851  -20.3796 C   0  0  1  0  0  0  0  0  0  0  0  0
   19.7665  -10.0209  -20.7769 O   0  0  0  0  0  0  0  0  0  0  0  0
   20.7319  -11.3272  -19.1033 C   0  0  2  0  0  0  0  0  0  0  0  0
   19.7360  -12.3622  -19.2374 N   0  0  0  0  0  0  0  0  0  0  0  0
   20.4222  -10.3621  -18.0359 C   0  0  0  0  0  0  0  0  0  0  0  0
   19.2547  -10.1375  -17.6483 O   0  0  0  0  0  0  0  0  0  0  0  0
   21.1216   -9.9309  -13.5163 C   0  0  0  0  0  0  0  0  0  0  0  0
   22.3333   -9.9628  -14.4705 C   0  0  2  0  0  0  0  0  0  0  0  0
   23.5482  -10.1071  -13.6037 C   0  0  0  0  0  0  0  0  0  0  0  0
   22.3522   -8.7307  -15.3256 C   0  0  0  0  0  0  0  0  0  0  0  0
   21.2601   -8.7354  -16.3145 C   0  0  2  0  0  0  0  0  0  0  0  0
   21.4786   -9.6568  -17.4174 N   0  0  0  0  0  0  0  0  0  0  0  0
   21.0262   -7.3975  -16.8694 C   0  0  0  0  0  0  0  0  0  0  0  0
   21.7773   -6.8004  -17.6784 O   0  0  0  0  0  0  0  0  0  0  0  0
   19.8369   -6.6749  -16.4716 N   0  0  0  0  0  0  0  0  0  0  0  0
   19.5320   -5.3701  -16.9887 C   0  0  1  0  0  0  0  0  0  0  0  0
   18.1221   -5.4190  -17.5590 C   0  0  0  0  0  0  0  0  0  0  0  0
   17.6150   -3.8023  -18.1904 S   0  0  0  0  0  0  0  0  0  0  0  0
   19.6381   -4.3036  -15.9980 C   0  0  0  0  0  0  0  0  0  0  0  0
   19.3370   -4.5167  -14.8035 O   0  0  0  0  0  0  0  0  0  0  0  0
   20.0730   -3.0485  -16.3754 O   0  0  0  0  0  0  0  0  0  0  0  0
  2  1  1  6
  2  4  1  0
  2  3  1  0
  4  6  1  0
  4  5  1  6
  6  7  2  0
  9  8  1  1
  9 11  1  0
  9 10  1  0
 12 11  1  1
 12 14  1  0
 13 12  1  0
 13  6  1  0
 14 15  2  0
 16 14  1  0
 16 17  1  0
 17 20  1  0
 17 18  1  1
 19 18  1  0
 20 21  2  0
 20 22  1  0
M  END
$$$$
