TLC.pdb
     RDKit          3D

 22 21  0  0  1  0  0  0  0  0999 V2000
   28.2420  -17.7132  -16.3643 C   0  0  0  0  0  0  0  0  0  0  0  0
   27.0815  -18.5993  -15.9020 C   0  0  1  0  0  0  0  0  0  0  0  0
   26.3729  -18.9498  -17.0405 O   0  0  0  0  0  0  0  0  0  0  0  0
   27.5739  -19.8560  -15.2584 C   0  0  2  0  0  0  0  0  0  0  0  0
   28.3322  -20.6848  -16.1633 N   0  0  0  0  0  0  0  0  0  0  0  0
   26.4359  -20.5605  -14.6456 C   0  0  0  0  0  0  0  0  0  0  0  0
   26.0357  -21.6739  -15.0500 O   0  0  0  0  0  0  0  0  0  0  0  0
   26.0189  -22.2314  -10.7821 C   0  0  0  0  0  0  0  0  0  0  0  0
   25.8341  -20.7017  -10.7070 C   0  0  2  0  0  0  0  0  0  0  0  0
   25.8184  -20.3506   -9.2494 C   0  0  0  0  0  0  0  0  0  0  0  0
   24.5869  -20.2940  -11.4335 C   0  0  0  0  0  0  0  0  0  0  0  0
   24.6606  -20.6172  -12.8690 C   0  0  2  0  0  0  0  0  0  0  0  0
   25.7628  -19.9642  -13.5560 N   0  0  0  0  0  0  0  0  0  0  0  0
   23.4150  -20.2763  -13.5654 C   0  0  0  0  0  0  0  0  0  0  0  0
   23.0144  -19.1144  -13.8197 O   0  0  0  0  0  0  0  0  0  0  0  0
   22.5494  -21.3470  -14.0119 N   0  0  0  0  0  0  0  0  0  0  0  0
   21.2762  -21.0893  -14.6247 C   0  0  1  0  0  0  0  0  0  0  0  0
   20.9942  -22.2266  -15.5955 C   0  0  0  0  0  0  0  0  0  0  0  0
   22.3327  -22.4080  -16.7976 S   0  0  0  0  0  0  0  0  0  0  0  0
   20.1790  -20.9567  -13.6714 C   0  0  0  0  0  0  0  0  0  0  0  0
   20.3727  -21.1518  -12.4518 O   0  0  0  0  0  0  0  0  0  0  0  0
   18.9161  -20.6140  -14.1124 O   0  0  0  0  0  0  0  0  0  0  0  0
  2  1  1  6
  2  4  1  0
  2  3  1  0
  4  6  1  0
  4  5  1  6
  6  7  2  0
  9  8  1  1
  9 11  1  0
  9 10  1  0
 12 11  1  1
 12 14  1  0
 13 12  1  0
 13  6  1  0
 14 15  2  0
 16 14  1  0
 16 17  1  0
 17 20  1  0
 17 18  1  6
 19 18  1  0
 20 21  2  0
 20 22  1  0
M  END
$$$$
