TLC.pdb
     RDKit          3D

 22 21  0  0  1  0  0  0  0  0999 V2000
   19.0195  -11.9698  -19.5814 C   0  0  0  0  0  0  0  0  0  0  0  0
   19.8419  -11.1454  -18.5866 C   0  0  1  0  0  0  0  0  0  0  0  0
   18.9358  -10.4203  -17.8287 O   0  0  0  0  0  0  0  0  0  0  0  0
   20.6221  -12.0227  -17.6606 C   0  0  2  0  0  0  0  0  0  0  0  0
   19.7789  -12.8751  -16.8586 N   0  0  0  0  0  0  0  0  0  0  0  0
   21.5302  -11.1875  -16.8577 C   0  0  0  0  0  0  0  0  0  0  0  0
   21.1965  -10.6938  -15.7584 O   0  0  0  0  0  0  0  0  0  0  0  0
   27.5718   -9.7524  -16.5576 C   0  0  0  0  0  0  0  0  0  0  0  0
   26.1210   -9.6122  -16.0522 C   0  0  2  0  0  0  0  0  0  0  0  0
   26.1145  -10.1254  -14.6434 C   0  0  0  0  0  0  0  0  0  0  0  0
   25.1821  -10.3485  -16.9609 C   0  0  0  0  0  0  0  0  0  0  0  0
   23.7732  -10.0804  -16.6238 C   0  0  2  0  0  0  0  0  0  0  0  0
   22.8331  -10.9282  -17.3385 N   0  0  0  0  0  0  0  0  0  0  0  0
   23.4139   -8.6798  -16.8726 C   0  0  0  0  0  0  0  0  0  0  0  0
   23.3088   -8.1418  -18.0016 O   0  0  0  0  0  0  0  0  0  0  0  0
   23.1509   -7.8152  -15.7421 N   0  0  0  0  0  0  0  0  0  0  0  0
   22.8478   -6.4209  -15.9061 C   0  0  1  0  0  0  0  0  0  0  0  0
   21.8837   -6.0260  -14.7969 C   0  0  0  0  0  0  0  0  0  0  0  0
   20.3691   -7.0115  -14.8647 S   0  0  0  0  0  0  0  0  0  0  0  0
   24.0228   -5.5553  -15.8842 C   0  0  0  0  0  0  0  0  0  0  0  0
   25.1531   -6.0283  -15.6363 O   0  0  0  0  0  0  0  0  0  0  0  0
   23.8924   -4.2042  -16.1380 O   0  0  0  0  0  0  0  0  0  0  0  0
  2  1  1  6
  2  4  1  0
  2  3  1  0
  4  6  1  0
  4  5  1  1
  6  7  2  0
  9  8  1  6
  9 11  1  0
  9 10  1  0
 12 11  1  6
 12 14  1  0
 13 12  1  0
 13  6  1  0
 14 15  2  0
 16 14  1  0
 16 17  1  0
 17 20  1  0
 17 18  1  1
 19 18  1  0
 20 21  2  0
 20 22  1  0
M  END
$$$$
