TLC.pdb
     RDKit          3D

 22 21  0  0  1  0  0  0  0  0999 V2000
   19.2132  -23.5286  -14.6254 C   0  0  0  0  0  0  0  0  0  0  0  0
   19.7165  -22.1581  -15.0879 C   0  0  1  0  0  0  0  0  0  0  0  0
   18.7776  -21.6734  -15.9849 O   0  0  0  0  0  0  0  0  0  0  0  0
   19.8081  -21.1945  -13.9482 C   0  0  2  0  0  0  0  0  0  0  0  0
   18.7796  -20.1839  -13.9895 N   0  0  0  0  0  0  0  0  0  0  0  0
   21.1681  -20.6332  -13.9008 C   0  0  0  0  0  0  0  0  0  0  0  0
   21.4667  -19.5439  -14.4372 O   0  0  0  0  0  0  0  0  0  0  0  0
   26.6712  -21.8851  -11.2254 C   0  0  0  0  0  0  0  0  0  0  0  0
   25.8226  -21.1080  -12.2528 C   0  0  2  0  0  0  0  0  0  0  0  0
   26.0087  -19.6537  -11.9387 C   0  0  0  0  0  0  0  0  0  0  0  0
   24.3924  -21.5551  -12.1881 C   0  0  0  0  0  0  0  0  0  0  0  0
   23.5735  -20.9194  -13.2348 C   0  0  2  0  0  0  0  0  0  0  0  0
   22.1835  -21.3451  -13.2239 N   0  0  0  0  0  0  0  0  0  0  0  0
   24.1212  -21.1636  -14.5739 C   0  0  0  0  0  0  0  0  0  0  0  0
   23.9406  -22.1992  -15.2595 O   0  0  0  0  0  0  0  0  0  0  0  0
   24.9450  -20.1441  -15.1877 N   0  0  0  0  0  0  0  0  0  0  0  0
   25.2496  -20.1566  -16.5912 C   0  0  1  0  0  0  0  0  0  0  0  0
   23.9385  -20.0018  -17.3480 C   0  0  0  0  0  0  0  0  0  0  0  0
   24.2281  -19.7604  -19.1164 S   0  0  0  0  0  0  0  0  0  0  0  0
   26.1923  -19.1198  -16.9993 C   0  0  0  0  0  0  0  0  0  0  0  0
   27.1705  -19.4032  -17.7244 O   0  0  0  0  0  0  0  0  0  0  0  0
   26.0088  -17.8152  -16.5855 O   0  0  0  0  0  0  0  0  0  0  0  0
  2  1  1  1
  2  4  1  0
  2  3  1  0
  4  6  1  0
  4  5  1  6
  6  7  2  0
  9  8  1  1
  9 11  1  0
  9 10  1  0
 12 11  1  1
 12 14  1  0
 13 12  1  0
 13  6  1  0
 14 15  2  0
 16 14  1  0
 16 17  1  0
 17 20  1  0
 17 18  1  6
 19 18  1  0
 20 21  2  0
 20 22  1  0
M  END
$$$$
