TLC.pdb
     RDKit          3D

 22 21  0  0  1  0  0  0  0  0999 V2000
   18.8558  -11.4931  -20.3645 C   0  0  0  0  0  0  0  0  0  0  0  0
   18.7992  -10.5346  -19.1714 C   0  0  1  0  0  0  0  0  0  0  0  0
   17.4899  -10.0882  -19.0839 O   0  0  0  0  0  0  0  0  0  0  0  0
   19.1371  -11.2310  -17.8921 C   0  0  2  0  0  0  0  0  0  0  0  0
   18.2447  -12.3266  -17.6020 N   0  0  0  0  0  0  0  0  0  0  0  0
   19.2048  -10.2382  -16.8073 C   0  0  0  0  0  0  0  0  0  0  0  0
   18.2395  -10.0022  -16.0485 O   0  0  0  0  0  0  0  0  0  0  0  0
   21.2966   -9.8042  -12.8963 C   0  0  0  0  0  0  0  0  0  0  0  0
   22.1949   -9.7678  -14.1499 C   0  0  2  0  0  0  0  0  0  0  0  0
   23.6085   -9.8540  -13.6575 C   0  0  0  0  0  0  0  0  0  0  0  0
   21.9157   -8.5316  -14.9520 C   0  0  0  0  0  0  0  0  0  0  0  0
   20.5619   -8.5515  -15.5326 C   0  0  2  0  0  0  0  0  0  0  0  0
   20.4040   -9.5188  -16.6063 N   0  0  0  0  0  0  0  0  0  0  0  0
   20.1703   -7.2312  -16.0388 C   0  0  0  0  0  0  0  0  0  0  0  0
   20.4886   -6.7525  -17.1545 O   0  0  0  0  0  0  0  0  0  0  0  0
   19.3461   -6.3809  -15.2067 N   0  0  0  0  0  0  0  0  0  0  0  0
   18.8766   -5.1008  -15.6582 C   0  0  1  0  0  0  0  0  0  0  0  0
   18.1107   -5.3226  -16.9542 C   0  0  0  0  0  0  0  0  0  0  0  0
   17.4036   -3.7763  -17.5694 S   0  0  0  0  0  0  0  0  0  0  0  0
   18.0358   -4.4055  -14.6887 C   0  0  0  0  0  0  0  0  0  0  0  0
   17.4294   -5.0455  -13.8023 O   0  0  0  0  0  0  0  0  0  0  0  0
   17.9046   -3.0320  -14.7449 O   0  0  0  0  0  0  0  0  0  0  0  0
  2  1  1  6
  2  4  1  0
  2  3  1  0
  4  6  1  0
  4  5  1  1
  6  7  2  0
  9  8  1  1
  9 11  1  0
  9 10  1  0
 12 11  1  6
 12 14  1  0
 13 12  1  0
 13  6  1  0
 14 15  2  0
 16 14  1  0
 16 17  1  0
 17 20  1  0
 17 18  1  6
 19 18  1  0
 20 21  2  0
 20 22  1  0
M  END
$$$$
