TLC.pdb
     RDKit          3D

 22 21  0  0  1  0  0  0  0  0999 V2000
   28.4609  -18.7897  -16.5288 C   0  0  0  0  0  0  0  0  0  0  0  0
   27.3383  -19.3933  -15.6797 C   0  0  1  0  0  0  0  0  0  0  0  0
   26.2295  -19.4968  -16.5049 O   0  0  0  0  0  0  0  0  0  0  0  0
   27.6895  -20.7661  -15.2023 C   0  0  2  0  0  0  0  0  0  0  0  0
   27.8241  -21.7135  -16.2818 N   0  0  0  0  0  0  0  0  0  0  0  0
   26.7134  -21.1856  -14.1836 C   0  0  0  0  0  0  0  0  0  0  0  0
   25.8286  -22.0399  -14.4093 O   0  0  0  0  0  0  0  0  0  0  0  0
   25.2494  -19.7097   -8.2911 C   0  0  0  0  0  0  0  0  0  0  0  0
   25.0136  -20.5604   -9.5562 C   0  0  2  0  0  0  0  0  0  0  0  0
   24.9425  -21.9862   -9.0976 C   0  0  0  0  0  0  0  0  0  0  0  0
   26.0995  -20.3089  -10.5598 C   0  0  0  0  0  0  0  0  0  0  0  0
   25.7573  -20.8573  -11.8837 C   0  0  2  0  0  0  0  0  0  0  0  0
   26.7703  -20.6071  -12.8959 N   0  0  0  0  0  0  0  0  0  0  0  0
   24.4767  -20.3340  -12.3721 C   0  0  0  0  0  0  0  0  0  0  0  0
   24.2539  -19.1461  -12.7103 O   0  0  0  0  0  0  0  0  0  0  0  0
   23.3516  -21.2373  -12.4868 N   0  0  0  0  0  0  0  0  0  0  0  0
   22.0713  -20.7991  -12.9683 C   0  0  1  0  0  0  0  0  0  0  0  0
   21.5202  -21.8932  -13.8710 C   0  0  0  0  0  0  0  0  0  0  0  0
   21.1485  -23.3921  -12.9304 S   0  0  0  0  0  0  0  0  0  0  0  0
   21.1162  -20.4916  -11.9084 C   0  0  0  0  0  0  0  0  0  0  0  0
   21.3900  -20.7473  -10.7157 O   0  0  0  0  0  0  0  0  0  0  0  0
   19.9004  -19.9146  -12.2177 O   0  0  0  0  0  0  0  0  0  0  0  0
  2  1  1  6
  2  4  1  0
  2  3  1  0
  4  6  1  0
  4  5  1  6
  6  7  2  0
  9  8  1  1
  9 11  1  0
  9 10  1  0
 12 11  1  1
 12 14  1  0
 13 12  1  0
 13  6  1  0
 14 15  2  0
 16 14  1  0
 16 17  1  0
 17 20  1  0
 17 18  1  6
 19 18  1  0
 20 21  2  0
 20 22  1  0
M  END
$$$$
