TLC.pdb
     RDKit          3D

 22 21  0  0  1  0  0  0  0  0999 V2000
   21.2623  -12.3322  -20.8570 C   0  0  0  0  0  0  0  0  0  0  0  0
   21.5970  -11.4427  -19.6560 C   0  0  1  0  0  0  0  0  0  0  0  0
   20.3873  -11.0348  -19.1160 O   0  0  0  0  0  0  0  0  0  0  0  0
   22.3416  -12.2000  -18.6035 C   0  0  2  0  0  0  0  0  0  0  0  0
   21.6205  -13.3587  -18.1360 N   0  0  0  0  0  0  0  0  0  0  0  0
   22.7157  -11.2764  -17.5201 C   0  0  0  0  0  0  0  0  0  0  0  0
   22.0281  -11.1379  -16.4850 O   0  0  0  0  0  0  0  0  0  0  0  0
   26.4279  -11.2986  -15.1874 C   0  0  0  0  0  0  0  0  0  0  0  0
   26.6178  -10.6343  -16.5667 C   0  0  2  0  0  0  0  0  0  0  0  0
   28.0928  -10.4217  -16.7321 C   0  0  0  0  0  0  0  0  0  0  0  0
   25.8187   -9.3677  -16.6465 C   0  0  0  0  0  0  0  0  0  0  0  0
   24.3703   -9.6311  -16.5891 C   0  0  2  0  0  0  0  0  0  0  0  0
   23.8975  -10.5121  -17.6443 N   0  0  0  0  0  0  0  0  0  0  0  0
   23.5914   -8.3887  -16.6407 C   0  0  0  0  0  0  0  0  0  0  0  0
   23.1677   -7.8348  -17.6840 O   0  0  0  0  0  0  0  0  0  0  0  0
   23.2655   -7.7172  -15.4007 N   0  0  0  0  0  0  0  0  0  0  0  0
   22.4866   -6.5107  -15.3718 C   0  0  1  0  0  0  0  0  0  0  0  0
   21.7897   -6.4452  -14.0207 C   0  0  0  0  0  0  0  0  0  0  0  0
   20.9159   -4.8761  -13.8105 S   0  0  0  0  0  0  0  0  0  0  0  0
   23.2685   -5.2986  -15.5948 C   0  0  0  0  0  0  0  0  0  0  0  0
   24.4342   -5.2067  -15.1524 O   0  0  0  0  0  0  0  0  0  0  0  0
   22.7235   -4.2426  -16.2981 O   0  0  0  0  0  0  0  0  0  0  0  0
  2  1  1  6
  2  4  1  0
  2  3  1  0
  4  6  1  0
  4  5  1  1
  6  7  2  0
  9  8  1  1
  9 11  1  0
  9 10  1  0
 12 11  1  6
 12 14  1  0
 13 12  1  0
 13  6  1  0
 14 15  2  0
 16 14  1  0
 16 17  1  0
 17 20  1  0
 17 18  1  1
 19 18  1  0
 20 21  2  0
 20 22  1  0
M  END
$$$$
