TLC.pdb
     RDKit          3D

 22 21  0  0  1  0  0  0  0  0999 V2000
   27.9366  -18.1042  -16.9137 C   0  0  0  0  0  0  0  0  0  0  0  0
   27.0205  -18.9499  -16.0242 C   0  0  1  0  0  0  0  0  0  0  0  0
   26.0016  -19.4194  -16.8382 O   0  0  0  0  0  0  0  0  0  0  0  0
   27.7428  -20.1311  -15.4594 C   0  0  2  0  0  0  0  0  0  0  0  0
   28.2092  -21.0385  -16.4792 N   0  0  0  0  0  0  0  0  0  0  0  0
   26.8875  -20.7823  -14.4537 C   0  0  0  0  0  0  0  0  0  0  0  0
   26.3805  -21.9116  -14.6298 O   0  0  0  0  0  0  0  0  0  0  0  0
   25.3021  -19.9757   -8.4844 C   0  0  0  0  0  0  0  0  0  0  0  0
   25.1800  -20.7550   -9.8101 C   0  0  2  0  0  0  0  0  0  0  0  0
   25.5147  -22.1815   -9.4923 C   0  0  0  0  0  0  0  0  0  0  0  0
   26.0732  -20.1492  -10.8516 C   0  0  0  0  0  0  0  0  0  0  0  0
   25.7975  -20.6949  -12.1920 C   0  0  2  0  0  0  0  0  0  0  0  0
   26.6237  -20.1137  -13.2374 N   0  0  0  0  0  0  0  0  0  0  0  0
   24.3894  -20.5240  -12.5672 C   0  0  0  0  0  0  0  0  0  0  0  0
   23.8020  -19.4255  -12.7198 O   0  0  0  0  0  0  0  0  0  0  0  0
   23.5780  -21.7020  -12.7882 N   0  0  0  0  0  0  0  0  0  0  0  0
   22.1822  -21.6128  -13.1150 C   0  0  1  0  0  0  0  0  0  0  0  0
   21.6733  -23.0275  -13.3498 C   0  0  0  0  0  0  0  0  0  0  0  0
   19.8875  -23.0421  -13.6329 S   0  0  0  0  0  0  0  0  0  0  0  0
   21.3781  -20.9514  -12.0921 C   0  0  0  0  0  0  0  0  0  0  0  0
   21.5392  -21.2274  -10.8835 O   0  0  0  0  0  0  0  0  0  0  0  0
   20.4315  -20.0136  -12.4545 O   0  0  0  0  0  0  0  0  0  0  0  0
  2  1  1  6
  2  4  1  0
  2  3  1  0
  4  6  1  0
  4  5  1  6
  6  7  2  0
  9  8  1  1
  9 11  1  0
  9 10  1  0
 12 11  1  1
 12 14  1  0
 13 12  1  0
 13  6  1  0
 14 15  2  0
 16 14  1  0
 16 17  1  0
 17 20  1  0
 17 18  1  1
 19 18  1  0
 20 21  2  0
 20 22  1  0
M  END
$$$$
