TLC.pdb
     RDKit          3D

 22 21  0  0  1  0  0  0  0  0999 V2000
   21.4155  -33.7152   -3.2412 C   0  0  0  0  0  0  0  0  0  0  0  0
   20.9806  -34.9303   -4.0658 C   0  0  1  0  0  0  0  0  0  0  0  0
   19.5966  -34.8899   -4.1310 O   0  0  0  0  0  0  0  0  0  0  0  0
   21.5116  -34.8638   -5.4621 C   0  0  2  0  0  0  0  0  0  0  0  0
   20.9869  -35.9081   -6.3076 N   0  0  0  0  0  0  0  0  0  0  0  0
   22.9827  -34.8414   -5.4167 C   0  0  0  0  0  0  0  0  0  0  0  0
   23.6613  -35.8307   -5.0643 O   0  0  0  0  0  0  0  0  0  0  0  0
   26.5073  -33.9393   -8.2637 C   0  0  0  0  0  0  0  0  0  0  0  0
   25.5990  -32.7383   -7.9284 C   0  0  2  0  0  0  0  0  0  0  0  0
   26.0563  -31.6081   -8.8011 C   0  0  0  0  0  0  0  0  0  0  0  0
   25.6697  -32.4282   -6.4627 C   0  0  0  0  0  0  0  0  0  0  0  0
   25.1049  -33.5166   -5.6462 C   0  0  2  0  0  0  0  0  0  0  0  0
   23.6650  -33.6604   -5.7851 N   0  0  0  0  0  0  0  0  0  0  0  0
   25.4170  -33.3439   -4.2230 C   0  0  0  0  0  0  0  0  0  0  0  0
   24.9419  -32.4567   -3.4732 O   0  0  0  0  0  0  0  0  0  0  0  0
   26.3488  -34.2574   -3.5969 N   0  0  0  0  0  0  0  0  0  0  0  0
   26.6591  -34.1848   -2.1964 C   0  0  1  0  0  0  0  0  0  0  0  0
   25.3752  -34.4561   -1.4260 C   0  0  0  0  0  0  0  0  0  0  0  0
   25.2593  -36.1935   -0.9384 S   0  0  0  0  0  0  0  0  0  0  0  0
   27.7049  -35.1117   -1.7753 C   0  0  0  0  0  0  0  0  0  0  0  0
   28.1446  -35.9728   -2.5678 O   0  0  0  0  0  0  0  0  0  0  0  0
   28.2166  -35.0429   -0.4945 O   0  0  0  0  0  0  0  0  0  0  0  0
  2  1  1  1
  2  4  1  0
  2  3  1  0
  4  6  1  0
  4  5  1  6
  6  7  2  0
  9  8  1  1
  9 11  1  0
  9 10  1  0
 12 11  1  6
 12 14  1  0
 13 12  1  0
 13  6  1  0
 14 15  2  0
 16 14  1  0
 16 17  1  0
 17 20  1  0
 17 18  1  1
 19 18  1  0
 20 21  2  0
 20 22  1  0
M  END
$$$$
