QWG.pdb
     RDKit          3D

 28 29  0  0  1  0  0  0  0  0999 V2000
    9.0689  -21.0675   20.9831 N   0  0  0  0  0  0  0  0  0  0  0  0
    9.4385  -20.1039   19.9895 C   0  0  0  0  0  0  0  0  0  0  0  0
   10.2656  -20.4063   19.0950 O   0  0  0  0  0  0  0  0  0  0  0  0
    8.8024  -18.7863   20.0850 C   0  0  0  0  0  0  0  0  0  0  0  0
    7.9144  -18.6911   21.2615 C   0  0  0  0  0  0  0  0  0  0  0  0
    7.1387  -17.4469   21.4639 C   0  0  2  0  0  0  0  0  0  0  0  0
    6.3723  -16.9445   20.3930 N   0  0  0  0  0  0  0  0  0  0  0  0
    8.0039  -16.4249   22.1554 C   0  0  0  0  0  0  0  0  0  0  0  0
    8.0490  -15.3116   21.5785 O   0  0  0  0  0  0  0  0  0  0  0  0
    8.7203  -16.6325   23.3320 N   0  0  0  0  0  0  0  0  0  0  0  0
    9.4054  -15.5955   24.0743 C   0  0  1  0  0  0  0  0  0  0  0  0
    8.9702  -15.6282   25.4977 C   0  0  0  0  0  0  0  0  0  0  0  0
    7.6853  -14.9712   25.7426 C   0  0  0  0  0  0  0  0  0  0  0  0
    6.4367  -15.5514   25.7380 C   0  0  0  0  0  0  0  0  0  0  0  0
    5.5220  -14.5949   26.0093 N   0  0  0  0  0  0  0  0  0  0  0  0
    6.1279  -13.4137   26.1903 C   0  0  0  0  0  0  0  0  0  0  0  0
    5.6160  -12.1685   26.4832 C   0  0  0  0  0  0  0  0  0  0  0  0
    6.5226  -11.1250   26.6101 C   0  0  0  0  0  0  0  0  0  0  0  0
    7.8902  -11.3484   26.4444 C   0  0  0  0  0  0  0  0  0  0  0  0
    8.3837  -12.5993   26.1521 C   0  0  0  0  0  0  0  0  0  0  0  0
    7.4914  -13.6403   26.0243 C   0  0  0  0  0  0  0  0  0  0  0  0
   10.8720  -15.7767   23.9185 C   0  0  0  0  0  0  0  0  0  0  0  0
   11.7556  -15.2033   24.5884 O   0  0  0  0  0  0  0  0  0  0  0  0
   11.3102  -16.6955   22.9045 N   0  0  0  0  0  0  0  0  0  0  0  0
   12.7225  -16.9590   22.7841 C   0  0  0  0  0  0  0  0  0  0  0  0
   12.9424  -17.9563   21.7327 C   0  0  0  0  0  0  0  0  0  0  0  0
   12.3917  -19.0886   21.7786 O   0  0  0  0  0  0  0  0  0  0  0  0
   13.7625  -17.6708   20.6660 O   0  0  0  0  0  0  0  0  0  0  0  0
  1  2  1  0
  2  4  1  0
  3  2  2  0
  4  5  1  0
  5  6  1  0
  6  8  1  0
  6  7  1  6
  8  9  2  0
 10  8  1  0
 11 10  1  0
 11 12  1  1
 13 12  1  0
 13 21  1  0
 14 15  1  0
 14 13  2  0
 15 16  1  0
 16 21  2  0
 16 17  1  0
 17 18  2  0
 18 19  1  0
 20 19  2  0
 21 20  1  0
 22 11  1  0
 23 22  2  0
 24 22  1  0
 25 24  1  0
 25 26  1  0
 26 28  1  0
 27 26  2  0
M  END
$$$$
