QWG.pdb
     RDKit          3D

 28 29  0  0  1  0  0  0  0  0999 V2000
    7.8846  -12.4824   16.2240 N   0  0  0  0  0  0  0  0  0  0  0  0
    7.9299  -13.7725   15.6030 C   0  0  0  0  0  0  0  0  0  0  0  0
    7.3754  -13.9571   14.4920 O   0  0  0  0  0  0  0  0  0  0  0  0
    8.6474  -14.8252   16.3289 C   0  0  0  0  0  0  0  0  0  0  0  0
    8.4720  -14.6994   17.7902 C   0  0  0  0  0  0  0  0  0  0  0  0
    8.9878  -15.7797   18.6604 C   0  0  2  0  0  0  0  0  0  0  0  0
    8.5432  -17.0988   18.4389 N   0  0  0  0  0  0  0  0  0  0  0  0
    8.9395  -15.3301   20.0980 C   0  0  0  0  0  0  0  0  0  0  0  0
    9.5016  -14.2292   20.3136 O   0  0  0  0  0  0  0  0  0  0  0  0
    8.3427  -16.0277   21.1457 N   0  0  0  0  0  0  0  0  0  0  0  0
    8.3770  -15.6190   22.5341 C   0  0  1  0  0  0  0  0  0  0  0  0
    6.9961  -15.3160   23.0008 C   0  0  0  0  0  0  0  0  0  0  0  0
    6.9085  -14.9806   24.4230 C   0  0  0  0  0  0  0  0  0  0  0  0
    6.7019  -15.8461   25.4736 C   0  0  0  0  0  0  0  0  0  0  0  0
    6.6880  -15.1295   26.6188 N   0  0  0  0  0  0  0  0  0  0  0  0
    6.8777  -13.8300   26.3535 C   0  0  0  0  0  0  0  0  0  0  0  0
    6.9404  -12.7350   27.1873 C   0  0  0  0  0  0  0  0  0  0  0  0
    7.1523  -11.4983   26.5935 C   0  0  0  0  0  0  0  0  0  0  0  0
    7.2932  -11.3900   25.2092 C   0  0  0  0  0  0  0  0  0  0  0  0
    7.2277  -12.4950   24.3917 C   0  0  0  0  0  0  0  0  0  0  0  0
    7.0178  -13.7259   24.9724 C   0  0  0  0  0  0  0  0  0  0  0  0
    9.0333  -16.6836   23.3365 C   0  0  0  0  0  0  0  0  0  0  0  0
    8.5767  -17.8255   23.5502 O   0  0  0  0  0  0  0  0  0  0  0  0
   10.3088  -16.3676   23.9176 N   0  0  0  0  0  0  0  0  0  0  0  0
   10.9949  -17.3945   24.6616 C   0  0  0  0  0  0  0  0  0  0  0  0
   12.2524  -16.8551   25.1871 C   0  0  0  0  0  0  0  0  0  0  0  0
   12.6402  -15.6929   24.8931 O   0  0  0  0  0  0  0  0  0  0  0  0
   13.0399  -17.6162   26.0194 O   0  0  0  0  0  0  0  0  0  0  0  0
  1  2  1  0
  2  4  1  0
  3  2  2  0
  4  5  1  0
  5  6  1  0
  6  8  1  0
  6  7  1  1
  8  9  2  0
 10  8  1  0
 11 10  1  0
 11 12  1  1
 13 12  1  0
 13 21  1  0
 14 15  1  0
 14 13  2  0
 15 16  1  0
 16 21  2  0
 16 17  1  0
 17 18  2  0
 18 19  1  0
 20 19  2  0
 21 20  1  0
 22 11  1  0
 23 22  2  0
 24 22  1  0
 25 24  1  0
 25 26  1  0
 26 28  1  0
 27 26  2  0
M  END
$$$$
