QWG.pdb
     RDKit          3D

 28 29  0  0  1  0  0  0  0  0999 V2000
    7.7328  -12.6642   17.8424 N   0  0  0  0  0  0  0  0  0  0  0  0
    8.3407  -13.9612   17.8202 C   0  0  0  0  0  0  0  0  0  0  0  0
    9.2037  -14.2380   16.9517 O   0  0  0  0  0  0  0  0  0  0  0  0
    7.9020  -14.9090   18.8492 C   0  0  0  0  0  0  0  0  0  0  0  0
    8.7033  -14.7859   20.0841 C   0  0  0  0  0  0  0  0  0  0  0  0
    9.1497  -16.0222   20.7642 C   0  0  2  0  0  0  0  0  0  0  0  0
    8.3378  -17.1715   20.6826 N   0  0  0  0  0  0  0  0  0  0  0  0
    9.6282  -15.6844   22.1528 C   0  0  0  0  0  0  0  0  0  0  0  0
   10.2636  -14.6053   22.2315 O   0  0  0  0  0  0  0  0  0  0  0  0
    9.4207  -16.4586   23.2922 N   0  0  0  0  0  0  0  0  0  0  0  0
    9.7993  -16.0691   24.6341 C   0  0  1  0  0  0  0  0  0  0  0  0
    8.5933  -16.0434   25.5068 C   0  0  0  0  0  0  0  0  0  0  0  0
    7.6679  -14.9485   25.2113 C   0  0  0  0  0  0  0  0  0  0  0  0
    6.7586  -14.8793   24.1798 C   0  0  0  0  0  0  0  0  0  0  0  0
    6.1040  -13.7008   24.2678 N   0  0  0  0  0  0  0  0  0  0  0  0
    6.5528  -12.9999   25.3178 C   0  0  0  0  0  0  0  0  0  0  0  0
    6.1924  -11.7608   25.8005 C   0  0  0  0  0  0  0  0  0  0  0  0
    6.8579  -11.3030   26.9295 C   0  0  0  0  0  0  0  0  0  0  0  0
    7.8467  -12.0800   27.5348 C   0  0  0  0  0  0  0  0  0  0  0  0
    8.1936  -13.3157   27.0386 C   0  0  0  0  0  0  0  0  0  0  0  0
    7.5385  -13.7777   25.9189 C   0  0  0  0  0  0  0  0  0  0  0  0
   10.8472  -16.9982   25.1307 C   0  0  0  0  0  0  0  0  0  0  0  0
   11.2678  -17.0672   26.3040 O   0  0  0  0  0  0  0  0  0  0  0  0
   11.4270  -17.8976   24.1719 N   0  0  0  0  0  0  0  0  0  0  0  0
   12.4244  -18.8336   24.6278 C   0  0  0  0  0  0  0  0  0  0  0  0
   12.9159  -19.6128   23.4877 C   0  0  0  0  0  0  0  0  0  0  0  0
   13.6384  -19.0884   22.5987 O   0  0  0  0  0  0  0  0  0  0  0  0
   12.5935  -20.9445   23.3669 O   0  0  0  0  0  0  0  0  0  0  0  0
  1  2  1  0
  2  4  1  0
  3  2  2  0
  4  5  1  0
  5  6  1  0
  6  8  1  0
  6  7  1  1
  8  9  2  0
 10  8  1  0
 11 10  1  0
 11 12  1  1
 13 12  1  0
 13 21  1  0
 14 15  1  0
 14 13  2  0
 15 16  1  0
 16 21  2  0
 16 17  1  0
 17 18  2  0
 18 19  1  0
 20 19  2  0
 21 20  1  0
 22 11  1  0
 23 22  2  0
 24 22  1  0
 25 24  1  0
 25 26  1  0
 26 28  1  0
 27 26  2  0
M  END
$$$$
