QWG.pdb
     RDKit          3D

 28 29  0  0  1  0  0  0  0  0999 V2000
    8.2717  -12.7973   18.8485 N   0  0  0  0  0  0  0  0  0  0  0  0
    8.0366  -14.0087   18.1209 C   0  0  0  0  0  0  0  0  0  0  0  0
    7.7706  -13.9661   16.8948 O   0  0  0  0  0  0  0  0  0  0  0  0
    8.1284  -15.2590   18.8813 C   0  0  0  0  0  0  0  0  0  0  0  0
    8.3926  -15.0106   20.3132 C   0  0  0  0  0  0  0  0  0  0  0  0
    8.6227  -16.1714   21.2021 C   0  0  2  0  0  0  0  0  0  0  0  0
    7.5707  -17.0866   21.4075 N   0  0  0  0  0  0  0  0  0  0  0  0
    9.3124  -15.7093   22.4599 C   0  0  0  0  0  0  0  0  0  0  0  0
   10.0841  -14.7335   22.2967 O   0  0  0  0  0  0  0  0  0  0  0  0
    9.1548  -16.2726   23.7242 N   0  0  0  0  0  0  0  0  0  0  0  0
    9.8600  -15.8417   24.9129 C   0  0  1  0  0  0  0  0  0  0  0  0
    8.9477  -15.9073   26.0875 C   0  0  0  0  0  0  0  0  0  0  0  0
    7.7022  -15.1574   25.9166 C   0  0  0  0  0  0  0  0  0  0  0  0
    6.4761  -15.6517   25.5321 C   0  0  0  0  0  0  0  0  0  0  0  0
    5.5960  -14.6273   25.4977 N   0  0  0  0  0  0  0  0  0  0  0  0
    6.2029  -13.4845   25.8454 C   0  0  0  0  0  0  0  0  0  0  0  0
    5.7197  -12.1988   25.9531 C   0  0  0  0  0  0  0  0  0  0  0  0
    6.6182  -11.2153   26.3437 C   0  0  0  0  0  0  0  0  0  0  0  0
    7.9500  -11.5358   26.6111 C   0  0  0  0  0  0  0  0  0  0  0  0
    8.4151  -12.8261   26.4982 C   0  0  0  0  0  0  0  0  0  0  0  0
    7.5305  -13.8080   26.1113 C   0  0  0  0  0  0  0  0  0  0  0  0
   11.0767  -16.6774   25.0840 C   0  0  0  0  0  0  0  0  0  0  0  0
   11.9131  -16.5726   26.0047 O   0  0  0  0  0  0  0  0  0  0  0  0
   11.3092  -17.6978   24.0995 N   0  0  0  0  0  0  0  0  0  0  0  0
   12.5151  -18.4817   24.1983 C   0  0  0  0  0  0  0  0  0  0  0  0
   12.3127  -19.5639   25.1660 C   0  0  0  0  0  0  0  0  0  0  0  0
   11.1567  -19.9135   25.5252 O   0  0  0  0  0  0  0  0  0  0  0  0
   13.3925  -20.2238   25.7050 O   0  0  0  0  0  0  0  0  0  0  0  0
  1  2  1  0
  2  4  1  0
  3  2  2  0
  4  5  1  0
  5  6  1  0
  6  8  1  0
  6  7  1  1
  8  9  2  0
 10  8  1  0
 11 10  1  0
 11 12  1  1
 13 12  1  0
 13 21  1  0
 14 15  1  0
 14 13  2  0
 15 16  1  0
 16 21  2  0
 16 17  1  0
 17 18  2  0
 18 19  1  0
 20 19  2  0
 21 20  1  0
 22 11  1  0
 23 22  2  0
 24 22  1  0
 25 24  1  0
 25 26  1  0
 26 28  1  0
 27 26  2  0
M  END
$$$$
