QWG.pdb
     RDKit          3D

 28 29  0  0  1  0  0  0  0  0999 V2000
    7.6594  -12.6999   17.6476 N   0  0  0  0  0  0  0  0  0  0  0  0
    8.2091  -13.9987   17.8991 C   0  0  0  0  0  0  0  0  0  0  0  0
    9.1666  -14.4227   17.2069 O   0  0  0  0  0  0  0  0  0  0  0  0
    7.5985  -14.7702   18.9861 C   0  0  0  0  0  0  0  0  0  0  0  0
    8.4581  -14.7989   20.1870 C   0  0  0  0  0  0  0  0  0  0  0  0
    8.0423  -15.6351   21.3352 C   0  0  2  0  0  0  0  0  0  0  0  0
    6.6663  -15.8427   21.5591 N   0  0  0  0  0  0  0  0  0  0  0  0
    8.8275  -15.2331   22.5572 C   0  0  0  0  0  0  0  0  0  0  0  0
    9.1543  -14.0220   22.5852 O   0  0  0  0  0  0  0  0  0  0  0  0
    9.1946  -16.0810   23.5997 N   0  0  0  0  0  0  0  0  0  0  0  0
    9.9300  -15.6700   24.7770 C   0  0  1  0  0  0  0  0  0  0  0  0
    9.0976  -15.8945   25.9907 C   0  0  0  0  0  0  0  0  0  0  0  0
    7.8103  -15.1981   25.9670 C   0  0  0  0  0  0  0  0  0  0  0  0
    6.5638  -15.7537   25.7856 C   0  0  0  0  0  0  0  0  0  0  0  0
    5.6457  -14.7637   25.8319 N   0  0  0  0  0  0  0  0  0  0  0  0
    6.2475  -13.5842   26.0366 C   0  0  0  0  0  0  0  0  0  0  0  0
    5.7313  -12.3123   26.1545 C   0  0  0  0  0  0  0  0  0  0  0  0
    6.6343  -11.2796   26.3668 C   0  0  0  0  0  0  0  0  0  0  0  0
    8.0027  -11.5395   26.4541 C   0  0  0  0  0  0  0  0  0  0  0  0
    8.5005  -12.8168   26.3340 C   0  0  0  0  0  0  0  0  0  0  0  0
    7.6118  -13.8474   26.1231 C   0  0  0  0  0  0  0  0  0  0  0  0
   11.2209  -16.4045   24.8227 C   0  0  0  0  0  0  0  0  0  0  0  0
   11.9852  -16.4808   25.8067 O   0  0  0  0  0  0  0  0  0  0  0  0
   11.6235  -17.0880   23.6247 N   0  0  0  0  0  0  0  0  0  0  0  0
   12.8842  -17.7874   23.6269 C   0  0  0  0  0  0  0  0  0  0  0  0
   13.9678  -16.8355   23.3656 C   0  0  0  0  0  0  0  0  0  0  0  0
   14.9342  -16.7079   24.1640 O   0  0  0  0  0  0  0  0  0  0  0  0
   13.9487  -16.0564   22.2323 O   0  0  0  0  0  0  0  0  0  0  0  0
  1  2  1  0
  2  4  1  0
  3  2  2  0
  4  5  1  0
  5  6  1  0
  6  8  1  0
  6  7  1  1
  8  9  2  0
 10  8  1  0
 11 10  1  0
 11 12  1  1
 13 12  1  0
 13 21  1  0
 14 15  1  0
 14 13  2  0
 15 16  1  0
 16 21  2  0
 16 17  1  0
 17 18  2  0
 18 19  1  0
 20 19  2  0
 21 20  1  0
 22 11  1  0
 23 22  2  0
 24 22  1  0
 25 24  1  0
 25 26  1  0
 26 28  1  0
 27 26  2  0
M  END
$$$$
