QWG.pdb
     RDKit          3D

 28 29  0  0  1  0  0  0  0  0999 V2000
    8.2326  -12.6629   17.9495 N   0  0  0  0  0  0  0  0  0  0  0  0
    7.9917  -14.0726   18.0323 C   0  0  0  0  0  0  0  0  0  0  0  0
    8.3717  -14.8324   17.1082 O   0  0  0  0  0  0  0  0  0  0  0  0
    7.2972  -14.5500   19.2321 C   0  0  0  0  0  0  0  0  0  0  0  0
    8.1757  -14.5253   20.4194 C   0  0  0  0  0  0  0  0  0  0  0  0
    8.3583  -15.7752   21.1907 C   0  0  2  0  0  0  0  0  0  0  0  0
    7.2409  -16.6061   21.4091 N   0  0  0  0  0  0  0  0  0  0  0  0
    9.1821  -15.4887   22.4198 C   0  0  0  0  0  0  0  0  0  0  0  0
    9.9995  -14.5463   22.2850 O   0  0  0  0  0  0  0  0  0  0  0  0
    9.0967  -16.1728   23.6302 N   0  0  0  0  0  0  0  0  0  0  0  0
    9.8737  -15.8601   24.8110 C   0  0  1  0  0  0  0  0  0  0  0  0
    9.0275  -16.0244   26.0249 C   0  0  0  0  0  0  0  0  0  0  0  0
    7.7391  -15.3338   25.9504 C   0  0  0  0  0  0  0  0  0  0  0  0
    6.5084  -15.8894   25.6813 C   0  0  0  0  0  0  0  0  0  0  0  0
    5.5827  -14.9058   25.7069 N   0  0  0  0  0  0  0  0  0  0  0  0
    6.1641  -13.7306   25.9826 C   0  0  0  0  0  0  0  0  0  0  0  0
    5.6336  -12.4656   26.1113 C   0  0  0  0  0  0  0  0  0  0  0  0
    6.5163  -11.4358   26.4069 C   0  0  0  0  0  0  0  0  0  0  0  0
    7.8793  -11.6918   26.5632 C   0  0  0  0  0  0  0  0  0  0  0  0
    8.3916  -12.9622   26.4311 C   0  0  0  0  0  0  0  0  0  0  0  0
    7.5231  -13.9898   26.1377 C   0  0  0  0  0  0  0  0  0  0  0  0
   11.0853  -16.7199   24.8354 C   0  0  0  0  0  0  0  0  0  0  0  0
   11.8837  -16.8326   25.7884 O   0  0  0  0  0  0  0  0  0  0  0  0
   11.3604  -17.4905   23.6543 N   0  0  0  0  0  0  0  0  0  0  0  0
   12.4493  -18.4346   23.6917 C   0  0  0  0  0  0  0  0  0  0  0  0
   13.6808  -17.7729   23.2511 C   0  0  0  0  0  0  0  0  0  0  0  0
   14.7019  -17.7317   23.9882 O   0  0  0  0  0  0  0  0  0  0  0  0
   13.7443  -17.1789   22.0121 O   0  0  0  0  0  0  0  0  0  0  0  0
  1  2  1  0
  2  4  1  0
  3  2  2  0
  4  5  1  0
  5  6  1  0
  6  8  1  0
  6  7  1  1
  8  9  2  0
 10  8  1  0
 11 10  1  0
 11 12  1  1
 13 12  1  0
 13 21  1  0
 14 15  1  0
 14 13  2  0
 15 16  1  0
 16 21  2  0
 16 17  1  0
 17 18  2  0
 18 19  1  0
 20 19  2  0
 21 20  1  0
 22 11  1  0
 23 22  2  0
 24 22  1  0
 25 24  1  0
 25 26  1  0
 26 28  1  0
 27 26  2  0
M  END
$$$$
