QWG.pdb
     RDKit          3D

 28 29  0  0  1  0  0  0  0  0999 V2000
   10.9528  -17.7394   19.0133 N   0  0  0  0  0  0  0  0  0  0  0  0
    9.7324  -17.8613   18.2731 C   0  0  0  0  0  0  0  0  0  0  0  0
    9.6910  -18.5706   17.2382 O   0  0  0  0  0  0  0  0  0  0  0  0
    8.5740  -17.1277   18.7925 C   0  0  0  0  0  0  0  0  0  0  0  0
    8.8958  -16.4116   20.0438 C   0  0  0  0  0  0  0  0  0  0  0  0
    8.2183  -16.8285   21.2919 C   0  0  2  0  0  0  0  0  0  0  0  0
    6.8116  -16.9149   21.3030 N   0  0  0  0  0  0  0  0  0  0  0  0
    8.8145  -16.0823   22.4578 C   0  0  0  0  0  0  0  0  0  0  0  0
    8.9575  -14.8510   22.2638 O   0  0  0  0  0  0  0  0  0  0  0  0
    9.1981  -16.6485   23.6714 N   0  0  0  0  0  0  0  0  0  0  0  0
    9.8628  -15.9344   24.7410 C   0  0  1  0  0  0  0  0  0  0  0  0
    9.0125  -15.9582   25.9628 C   0  0  0  0  0  0  0  0  0  0  0  0
    7.7235  -15.2828   25.8043 C   0  0  0  0  0  0  0  0  0  0  0  0
    6.5247  -15.8486   25.4326 C   0  0  0  0  0  0  0  0  0  0  0  0
    5.5857  -14.8777   25.4068 N   0  0  0  0  0  0  0  0  0  0  0  0
    6.1280  -13.7008   25.7476 C   0  0  0  0  0  0  0  0  0  0  0  0
    5.5713  -12.4456   25.8597 C   0  0  0  0  0  0  0  0  0  0  0  0
    6.4145  -11.4106   26.2405 C   0  0  0  0  0  0  0  0  0  0  0  0
    7.7654  -11.6522   26.4944 C   0  0  0  0  0  0  0  0  0  0  0  0
    8.3043  -12.9131   26.3773 C   0  0  0  0  0  0  0  0  0  0  0  0
    7.4749  -13.9457   26.0000 C   0  0  0  0  0  0  0  0  0  0  0  0
   11.2040  -16.5343   24.9636 C   0  0  0  0  0  0  0  0  0  0  0  0
   11.5421  -17.2269   25.9456 O   0  0  0  0  0  0  0  0  0  0  0  0
   12.1997  -16.2942   23.9560 N   0  0  0  0  0  0  0  0  0  0  0  0
   13.4975  -16.9008   24.1184 C   0  0  0  0  0  0  0  0  0  0  0  0
   14.3483  -16.5387   22.9810 C   0  0  0  0  0  0  0  0  0  0  0  0
   15.2348  -15.6493   23.0833 O   0  0  0  0  0  0  0  0  0  0  0  0
   14.1923  -17.1702   21.7691 O   0  0  0  0  0  0  0  0  0  0  0  0
  1  2  1  0
  2  4  1  0
  3  2  2  0
  4  5  1  0
  5  6  1  0
  6  8  1  0
  6  7  1  6
  8  9  2  0
 10  8  1  0
 11 10  1  0
 11 12  1  1
 13 12  1  0
 13 21  1  0
 14 15  1  0
 14 13  2  0
 15 16  1  0
 16 21  2  0
 16 17  1  0
 17 18  2  0
 18 19  1  0
 20 19  2  0
 21 20  1  0
 22 11  1  0
 23 22  2  0
 24 22  1  0
 25 24  1  0
 25 26  1  0
 26 28  1  0
 27 26  2  0
M  END
$$$$
