QWG.pdb
     RDKit          3D

 28 29  0  0  1  0  0  0  0  0999 V2000
    9.3358  -19.7244   16.0010 N   0  0  0  0  0  0  0  0  0  0  0  0
   10.0646  -19.0698   17.0463 C   0  0  0  0  0  0  0  0  0  0  0  0
   11.3199  -19.0714   17.0359 O   0  0  0  0  0  0  0  0  0  0  0  0
    9.2695  -18.4174   18.0912 C   0  0  0  0  0  0  0  0  0  0  0  0
    9.5015  -19.0271   19.4165 C   0  0  0  0  0  0  0  0  0  0  0  0
    8.7003  -18.5491   20.5655 C   0  0  2  0  0  0  0  0  0  0  0  0
    7.2985  -18.4850   20.4341 N   0  0  0  0  0  0  0  0  0  0  0  0
    9.3383  -17.3101   21.1392 C   0  0  0  0  0  0  0  0  0  0  0  0
   10.2171  -16.7955   20.4063 O   0  0  0  0  0  0  0  0  0  0  0  0
    9.0289  -16.7349   22.3696 N   0  0  0  0  0  0  0  0  0  0  0  0
    9.5566  -15.4740   22.8466 C   0  0  1  0  0  0  0  0  0  0  0  0
    8.4590  -14.4716   22.9302 C   0  0  0  0  0  0  0  0  0  0  0  0
    7.6991  -14.5238   24.1802 C   0  0  0  0  0  0  0  0  0  0  0  0
    7.0501  -15.6125   24.7179 C   0  0  0  0  0  0  0  0  0  0  0  0
    6.4730  -15.2333   25.8790 N   0  0  0  0  0  0  0  0  0  0  0  0
    6.7218  -13.9386   26.1178 C   0  0  0  0  0  0  0  0  0  0  0  0
    6.3465  -13.1217   27.1618 C   0  0  0  0  0  0  0  0  0  0  0  0
    6.7719  -11.8010   27.1170 C   0  0  0  0  0  0  0  0  0  0  0  0
    7.5460  -11.3401   26.0511 C   0  0  0  0  0  0  0  0  0  0  0  0
    7.9115  -12.1708   25.0165 C   0  0  0  0  0  0  0  0  0  0  0  0
    7.4938  -13.4825   25.0529 C   0  0  0  0  0  0  0  0  0  0  0  0
   10.2330  -15.6944   24.1512 C   0  0  0  0  0  0  0  0  0  0  0  0
   10.8404  -14.8298   24.8160 O   0  0  0  0  0  0  0  0  0  0  0  0
   10.1817  -17.0235   24.6945 N   0  0  0  0  0  0  0  0  0  0  0  0
   11.0012  -17.3258   25.8415 C   0  0  0  0  0  0  0  0  0  0  0  0
   10.1417  -17.5382   27.0097 C   0  0  0  0  0  0  0  0  0  0  0  0
    9.3388  -16.6501   27.4022 O   0  0  0  0  0  0  0  0  0  0  0  0
   10.1972  -18.7233   27.7057 O   0  0  0  0  0  0  0  0  0  0  0  0
  1  2  1  0
  2  4  1  0
  3  2  2  0
  4  5  1  0
  5  6  1  0
  6  8  1  0
  6  7  1  6
  8  9  2  0
 10  8  1  0
 11 10  1  0
 11 12  1  1
 13 12  1  0
 13 21  1  0
 14 15  1  0
 14 13  2  0
 15 16  1  0
 16 21  2  0
 16 17  1  0
 17 18  2  0
 18 19  1  0
 20 19  2  0
 21 20  1  0
 22 11  1  0
 23 22  2  0
 24 22  1  0
 25 24  1  0
 25 26  1  0
 26 28  1  0
 27 26  2  0
M  END
$$$$
