QWG.pdb
     RDKit          3D

 28 29  0  0  1  0  0  0  0  0999 V2000
    8.4244  -15.9711   17.4682 N   0  0  0  0  0  0  0  0  0  0  0  0
    7.3848  -15.9907   18.4536 C   0  0  0  0  0  0  0  0  0  0  0  0
    6.6441  -16.9975   18.5685 O   0  0  0  0  0  0  0  0  0  0  0  0
    7.2532  -14.7951   19.2921 C   0  0  0  0  0  0  0  0  0  0  0  0
    7.3697  -15.1185   20.7287 C   0  0  0  0  0  0  0  0  0  0  0  0
    8.4802  -15.9920   21.1696 C   0  0  2  0  0  0  0  0  0  0  0  0
    8.3132  -17.3896   21.0956 N   0  0  0  0  0  0  0  0  0  0  0  0
    9.0208  -15.4892   22.4834 C   0  0  0  0  0  0  0  0  0  0  0  0
    9.2740  -14.2604   22.5010 O   0  0  0  0  0  0  0  0  0  0  0  0
    9.2466  -16.2662   23.6174 N   0  0  0  0  0  0  0  0  0  0  0  0
    9.9092  -15.8008   24.8175 C   0  0  1  0  0  0  0  0  0  0  0  0
    9.0343  -16.0415   25.9977 C   0  0  0  0  0  0  0  0  0  0  0  0
    7.7865  -15.2764   25.9797 C   0  0  0  0  0  0  0  0  0  0  0  0
    6.5236  -15.7456   25.6956 C   0  0  0  0  0  0  0  0  0  0  0  0
    5.6556  -14.7146   25.7894 N   0  0  0  0  0  0  0  0  0  0  0  0
    6.3057  -13.5918   26.1238 C   0  0  0  0  0  0  0  0  0  0  0  0
    5.8493  -12.3085   26.3313 C   0  0  0  0  0  0  0  0  0  0  0  0
    6.7920  -11.3487   26.6735 C   0  0  0  0  0  0  0  0  0  0  0  0
    8.1397  -11.6895   26.7970 C   0  0  0  0  0  0  0  0  0  0  0  0
    8.5776  -12.9769   26.5859 C   0  0  0  0  0  0  0  0  0  0  0  0
    7.6491  -13.9355   26.2460 C   0  0  0  0  0  0  0  0  0  0  0  0
   11.2286  -16.4742   24.9345 C   0  0  0  0  0  0  0  0  0  0  0  0
   12.0385  -16.3390   25.8747 O   0  0  0  0  0  0  0  0  0  0  0  0
   11.6037  -17.3608   23.8678 N   0  0  0  0  0  0  0  0  0  0  0  0
   12.9009  -17.9876   23.9234 C   0  0  0  0  0  0  0  0  0  0  0  0
   12.8306  -19.1732   24.7825 C   0  0  0  0  0  0  0  0  0  0  0  0
   11.7551  -19.5117   25.3449 O   0  0  0  0  0  0  0  0  0  0  0  0
   13.9494  -19.9453   24.9923 O   0  0  0  0  0  0  0  0  0  0  0  0
  1  2  1  0
  2  4  1  0
  3  2  2  0
  4  5  1  0
  5  6  1  0
  6  8  1  0
  6  7  1  1
  8  9  2  0
 10  8  1  0
 11 10  1  0
 11 12  1  1
 13 12  1  0
 13 21  1  0
 14 15  1  0
 14 13  2  0
 15 16  1  0
 16 21  2  0
 16 17  1  0
 17 18  2  0
 18 19  1  0
 20 19  2  0
 21 20  1  0
 22 11  1  0
 23 22  2  0
 24 22  1  0
 25 24  1  0
 25 26  1  0
 26 28  1  0
 27 26  2  0
M  END
$$$$
