QWG.pdb
     RDKit          3D

 28 29  0  0  1  0  0  0  0  0999 V2000
    7.7925  -12.5687   17.8526 N   0  0  0  0  0  0  0  0  0  0  0  0
    7.9958  -13.9706   18.0667 C   0  0  0  0  0  0  0  0  0  0  0  0
    8.5418  -14.6710   17.1795 O   0  0  0  0  0  0  0  0  0  0  0  0
    7.5404  -14.5109   19.3513 C   0  0  0  0  0  0  0  0  0  0  0  0
    8.6742  -14.8526   20.2343 C   0  0  0  0  0  0  0  0  0  0  0  0
    8.5035  -15.9500   21.2126 C   0  0  2  0  0  0  0  0  0  0  0  0
    7.2141  -16.4814   21.4167 N   0  0  0  0  0  0  0  0  0  0  0  0
    9.2562  -15.6163   22.4750 C   0  0  0  0  0  0  0  0  0  0  0  0
   10.0323  -14.6361   22.3693 O   0  0  0  0  0  0  0  0  0  0  0  0
    9.1493  -16.2965   23.6860 N   0  0  0  0  0  0  0  0  0  0  0  0
    9.8253  -15.9158   24.9082 C   0  0  1  0  0  0  0  0  0  0  0  0
    8.8964  -16.0668   26.0618 C   0  0  0  0  0  0  0  0  0  0  0  0
    7.6947  -15.2360   25.9712 C   0  0  0  0  0  0  0  0  0  0  0  0
    6.4108  -15.6520   25.6988 C   0  0  0  0  0  0  0  0  0  0  0  0
    5.6019  -14.5700   25.7079 N   0  0  0  0  0  0  0  0  0  0  0  0
    6.3107  -13.4651   25.9760 C   0  0  0  0  0  0  0  0  0  0  0  0
    5.9257  -12.1470   26.0881 C   0  0  0  0  0  0  0  0  0  0  0  0
    6.9172  -11.2203   26.3798 C   0  0  0  0  0  0  0  0  0  0  0  0
    8.2417  -11.6268   26.5484 C   0  0  0  0  0  0  0  0  0  0  0  0
    8.6080  -12.9482   26.4326 C   0  0  0  0  0  0  0  0  0  0  0  0
    7.6307  -13.8743   26.1435 C   0  0  0  0  0  0  0  0  0  0  0  0
   11.0586  -16.7317   25.0540 C   0  0  0  0  0  0  0  0  0  0  0  0
   11.8645  -16.6765   26.0058 O   0  0  0  0  0  0  0  0  0  0  0  0
   11.3474  -17.6682   24.0033 N   0  0  0  0  0  0  0  0  0  0  0  0
   12.5677  -18.4317   24.0837 C   0  0  0  0  0  0  0  0  0  0  0  0
   12.2859  -19.7346   24.6933 C   0  0  0  0  0  0  0  0  0  0  0  0
   11.3076  -19.8960   25.4708 O   0  0  0  0  0  0  0  0  0  0  0  0
   13.0929  -20.8155   24.4246 O   0  0  0  0  0  0  0  0  0  0  0  0
  1  2  1  0
  2  4  1  0
  3  2  2  0
  4  5  1  0
  5  6  1  0
  6  8  1  0
  6  7  1  1
  8  9  2  0
 10  8  1  0
 11 10  1  0
 11 12  1  1
 13 12  1  0
 13 21  1  0
 14 15  1  0
 14 13  2  0
 15 16  1  0
 16 21  2  0
 16 17  1  0
 17 18  2  0
 18 19  1  0
 20 19  2  0
 21 20  1  0
 22 11  1  0
 23 22  2  0
 24 22  1  0
 25 24  1  0
 25 26  1  0
 26 28  1  0
 27 26  2  0
M  END
$$$$
