QWG.pdb
     RDKit          3D

 28 29  0  0  1  0  0  0  0  0999 V2000
    9.0016  -12.5643   18.7247 N   0  0  0  0  0  0  0  0  0  0  0  0
    7.9505  -13.4604   18.3446 C   0  0  0  0  0  0  0  0  0  0  0  0
    7.4290  -13.3735   17.2060 O   0  0  0  0  0  0  0  0  0  0  0  0
    7.5427  -14.4541   19.3426 C   0  0  0  0  0  0  0  0  0  0  0  0
    8.3739  -14.3788   20.5613 C   0  0  0  0  0  0  0  0  0  0  0  0
    8.7260  -15.6370   21.2567 C   0  0  2  0  0  0  0  0  0  0  0  0
    7.7988  -16.6985   21.2477 N   0  0  0  0  0  0  0  0  0  0  0  0
    9.3046  -15.3153   22.6106 C   0  0  0  0  0  0  0  0  0  0  0  0
    9.8391  -14.1828   22.6875 O   0  0  0  0  0  0  0  0  0  0  0  0
    9.2848  -16.1564   23.7209 N   0  0  0  0  0  0  0  0  0  0  0  0
    9.8739  -15.8409   25.0051 C   0  0  1  0  0  0  0  0  0  0  0  0
    8.8729  -16.0663   26.0838 C   0  0  0  0  0  0  0  0  0  0  0  0
    7.6506  -15.2745   25.9367 C   0  0  0  0  0  0  0  0  0  0  0  0
    6.4111  -15.7193   25.5349 C   0  0  0  0  0  0  0  0  0  0  0  0
    5.5618  -14.6686   25.5337 N   0  0  0  0  0  0  0  0  0  0  0  0
    6.2016  -13.5565   25.9196 C   0  0  0  0  0  0  0  0  0  0  0  0
    5.7565  -12.2613   26.0695 C   0  0  0  0  0  0  0  0  0  0  0  0
    6.6830  -11.3183   26.4933 C   0  0  0  0  0  0  0  0  0  0  0  0
    8.0041  -11.6869   26.7512 C   0  0  0  0  0  0  0  0  0  0  0  0
    8.4310  -12.9859   26.5960 C   0  0  0  0  0  0  0  0  0  0  0  0
    7.5185  -13.9279   26.1759 C   0  0  0  0  0  0  0  0  0  0  0  0
   11.1051  -16.6530   25.1860 C   0  0  0  0  0  0  0  0  0  0  0  0
   11.7621  -16.7610   26.2419 O   0  0  0  0  0  0  0  0  0  0  0  0
   11.5801  -17.3787   24.0405 N   0  0  0  0  0  0  0  0  0  0  0  0
   12.7496  -18.2079   24.1928 C   0  0  0  0  0  0  0  0  0  0  0  0
   13.9182  -17.5017   23.6595 C   0  0  0  0  0  0  0  0  0  0  0  0
   13.8711  -16.2733   23.3830 O   0  0  0  0  0  0  0  0  0  0  0  0
   15.0993  -18.1745   23.4492 O   0  0  0  0  0  0  0  0  0  0  0  0
  1  2  1  0
  2  4  1  0
  3  2  2  0
  4  5  1  0
  5  6  1  0
  6  8  1  0
  6  7  1  1
  8  9  2  0
 10  8  1  0
 11 10  1  0
 11 12  1  1
 13 12  1  0
 13 21  1  0
 14 15  1  0
 14 13  2  0
 15 16  1  0
 16 21  2  0
 16 17  1  0
 17 18  2  0
 18 19  1  0
 20 19  2  0
 21 20  1  0
 22 11  1  0
 23 22  2  0
 24 22  1  0
 25 24  1  0
 25 26  1  0
 26 28  1  0
 27 26  2  0
M  END
$$$$
