QWG.pdb
     RDKit          3D

 28 29  0  0  1  0  0  0  0  0999 V2000
    7.3515  -12.7876   19.2325 N   0  0  0  0  0  0  0  0  0  0  0  0
    7.9895  -13.8901   18.5770 C   0  0  0  0  0  0  0  0  0  0  0  0
    7.6362  -14.2258   17.4201 O   0  0  0  0  0  0  0  0  0  0  0  0
    9.0497  -14.5733   19.3245 C   0  0  0  0  0  0  0  0  0  0  0  0
    8.6357  -14.8745   20.7100 C   0  0  0  0  0  0  0  0  0  0  0  0
    9.2502  -16.0330   21.3963 C   0  0  2  0  0  0  0  0  0  0  0  0
    8.6299  -17.2937   21.2850 N   0  0  0  0  0  0  0  0  0  0  0  0
    9.6314  -15.6384   22.8000 C   0  0  0  0  0  0  0  0  0  0  0  0
   10.1061  -14.4813   22.8999 O   0  0  0  0  0  0  0  0  0  0  0  0
    9.4978  -16.4398   23.9316 N   0  0  0  0  0  0  0  0  0  0  0  0
    9.9257  -16.0650   25.2628 C   0  0  1  0  0  0  0  0  0  0  0  0
    8.8001  -16.2469   26.2200 C   0  0  0  0  0  0  0  0  0  0  0  0
    7.6690  -15.3474   25.9869 C   0  0  0  0  0  0  0  0  0  0  0  0
    6.4253  -15.6793   25.4985 C   0  0  0  0  0  0  0  0  0  0  0  0
    5.6783  -14.5553   25.4373 N   0  0  0  0  0  0  0  0  0  0  0  0
    6.3888  -13.5039   25.8675 C   0  0  0  0  0  0  0  0  0  0  0  0
    6.0551  -12.1724   25.9856 C   0  0  0  0  0  0  0  0  0  0  0  0
    7.0321  -11.3156   26.4739 C   0  0  0  0  0  0  0  0  0  0  0  0
    8.2924  -11.8021   26.8245 C   0  0  0  0  0  0  0  0  0  0  0  0
    8.6080  -13.1357   26.6998 C   0  0  0  0  0  0  0  0  0  0  0  0
    7.6447  -13.9928   26.2162 C   0  0  0  0  0  0  0  0  0  0  0  0
   11.1247  -16.8626   25.6288 C   0  0  0  0  0  0  0  0  0  0  0  0
   11.7252  -16.8217   26.7225 O   0  0  0  0  0  0  0  0  0  0  0  0
   11.6373  -17.7618   24.6322 N   0  0  0  0  0  0  0  0  0  0  0  0
   12.8122  -18.5353   24.9481 C   0  0  0  0  0  0  0  0  0  0  0  0
   13.1057  -19.4473   23.8387 C   0  0  0  0  0  0  0  0  0  0  0  0
   12.3711  -19.4922   22.8160 O   0  0  0  0  0  0  0  0  0  0  0  0
   14.1996  -20.2792   23.8951 O   0  0  0  0  0  0  0  0  0  0  0  0
  1  2  1  0
  2  4  1  0
  3  2  2  0
  4  5  1  0
  5  6  1  0
  6  8  1  0
  6  7  1  1
  8  9  2  0
 10  8  1  0
 11 10  1  0
 11 12  1  1
 13 12  1  0
 13 21  1  0
 14 15  1  0
 14 13  2  0
 15 16  1  0
 16 21  2  0
 16 17  1  0
 17 18  2  0
 18 19  1  0
 20 19  2  0
 21 20  1  0
 22 11  1  0
 23 22  2  0
 24 22  1  0
 25 24  1  0
 25 26  1  0
 26 28  1  0
 27 26  2  0
M  END
$$$$
