KEL.pdb
     RDKit          3D

 27 26  0  0  1  0  0  0  0  0999 V2000
   18.9014  -12.2070  -18.8278 N   0  0  0  0  0  0  0  0  0  0  0  0
   18.2813  -10.9602  -18.4682 C   0  0  1  0  0  0  0  0  0  0  0  0
   17.4802  -11.1650  -17.1972 C   0  0  0  0  0  0  0  0  0  0  0  0
   16.2355  -11.9308  -17.4401 C   0  0  0  0  0  0  0  0  0  0  0  0
   15.3509  -12.1215  -16.2580 C   0  0  0  0  0  0  0  0  0  0  0  0
   14.0427  -12.8006  -16.5084 C   0  0  0  0  0  0  0  0  0  0  0  0
   13.3404  -13.1192  -15.3076 N   0  0  0  0  0  0  0  0  0  0  0  0
   19.2654   -9.8858  -18.2779 C   0  0  0  0  0  0  0  0  0  0  0  0
   20.4637  -10.2213  -17.9788 O   0  0  0  0  0  0  0  0  0  0  0  0
   18.9207   -8.5010  -18.4107 N   0  0  0  0  0  0  0  0  0  0  0  0
   19.8995   -7.4798  -18.2939 C   0  0  1  0  0  0  0  0  0  0  0  0
   19.6806   -6.1597  -18.8907 C   0  0  0  0  0  0  0  0  0  0  0  0
   20.6963   -5.1065  -18.8355 C   0  0  0  0  0  0  0  0  0  0  0  0
   20.3063   -3.8468  -19.4464 C   0  0  0  0  0  0  0  0  0  0  0  0
   20.6100   -3.4632  -20.5908 O   0  0  0  0  0  0  0  0  0  0  0  0
   20.2864   -7.2689  -16.8485 C   0  0  0  0  0  0  0  0  0  0  0  0
   19.3541   -7.1506  -16.0218 O   0  0  0  0  0  0  0  0  0  0  0  0
   19.5028   -2.9147  -18.7311 O   0  0  0  0  0  0  0  0  0  0  0  0
   21.5438   -9.9111  -13.6497 C   0  0  0  0  0  0  0  0  0  0  0  0
   22.6811   -9.4926  -14.5168 C   0  0  2  0  0  0  0  0  0  0  0  0
   23.9420  -10.2098  -13.9966 C   0  0  0  0  0  0  0  0  0  0  0  0
   23.0155   -8.0512  -14.5481 C   0  0  0  0  0  0  0  0  0  0  0  0
   21.9698   -7.0978  -14.9888 C   0  0  2  0  0  0  0  0  0  0  0  0
   21.6187   -7.2049  -16.4103 N   0  0  0  0  0  0  0  0  0  0  0  0
   22.2859   -5.6873  -14.6827 C   0  0  0  0  0  0  0  0  0  0  0  0
   22.5444   -4.8920  -15.6188 O   0  0  0  0  0  0  0  0  0  0  0  0
   22.3157   -5.1726  -13.3924 O   0  0  0  0  0  0  0  0  0  0  0  0
  2  8  1  0
  2  1  1  1
  3  2  1  0
  4  3  1  0
  5  4  1  0
  6  5  1  0
  7  6  1  0
  8  9  2  0
 10 11  1  0
 10  8  1  0
 12 13  1  0
 11 12  1  1
 13 14  1  0
 14 18  1  0
 14 15  2  0
 16 17  2  0
 16 11  1  0
 20 21  1  1
 20 19  1  0
 20 22  1  0
 23 22  1  6
 23 25  1  0
 23 24  1  0
 24 16  1  0
 25 27  1  0
 26 25  2  0
M  END
$$$$
