KEL.pdb
     RDKit          3D

 27 26  0  0  1  0  0  0  0  0999 V2000
   23.5227  -16.9758  -16.1359 N   0  0  0  0  0  0  0  0  0  0  0  0
   22.8255  -17.6607  -15.0809 C   0  0  1  0  0  0  0  0  0  0  0  0
   21.4491  -18.0518  -15.5825 C   0  0  0  0  0  0  0  0  0  0  0  0
   21.0098  -17.2095  -16.7192 C   0  0  0  0  0  0  0  0  0  0  0  0
   21.0035  -15.7413  -16.4733 C   0  0  0  0  0  0  0  0  0  0  0  0
   20.3648  -14.8930  -17.5258 C   0  0  0  0  0  0  0  0  0  0  0  0
   20.3759  -13.5026  -17.2047 N   0  0  0  0  0  0  0  0  0  0  0  0
   23.5518  -18.8509  -14.6175 C   0  0  0  0  0  0  0  0  0  0  0  0
   22.8645  -19.8839  -14.3035 O   0  0  0  0  0  0  0  0  0  0  0  0
   24.9804  -18.8794  -14.5056 N   0  0  0  0  0  0  0  0  0  0  0  0
   25.6656  -20.0416  -14.0647 C   0  0  1  0  0  0  0  0  0  0  0  0
   26.8040  -20.5723  -14.8191 C   0  0  0  0  0  0  0  0  0  0  0  0
   27.5304  -21.7677  -14.3867 C   0  0  0  0  0  0  0  0  0  0  0  0
   28.6030  -22.1869  -15.2734 C   0  0  0  0  0  0  0  0  0  0  0  0
   29.2824  -23.2237  -15.1612 O   0  0  0  0  0  0  0  0  0  0  0  0
   26.1003  -19.8956  -12.6249 C   0  0  0  0  0  0  0  0  0  0  0  0
   27.1753  -19.2901  -12.4141 O   0  0  0  0  0  0  0  0  0  0  0  0
   28.9667  -21.3899  -16.3951 O   0  0  0  0  0  0  0  0  0  0  0  0
   28.0836  -20.7993   -8.1506 C   0  0  0  0  0  0  0  0  0  0  0  0
   27.7644  -19.5145   -8.8347 C   0  0  2  0  0  0  0  0  0  0  0  0
   27.7198  -18.4181   -7.7527 C   0  0  0  0  0  0  0  0  0  0  0  0
   26.4733  -19.4312   -9.5533 C   0  0  0  0  0  0  0  0  0  0  0  0
   25.9670  -20.6489  -10.2298 C   0  0  2  0  0  0  0  0  0  0  0  0
   25.3604  -20.3991  -11.5432 N   0  0  0  0  0  0  0  0  0  0  0  0
   25.0196  -21.4324   -9.4103 C   0  0  0  0  0  0  0  0  0  0  0  0
   23.7891  -21.3642   -9.6488 O   0  0  0  0  0  0  0  0  0  0  0  0
   25.4140  -22.2607   -8.3667 O   0  0  0  0  0  0  0  0  0  0  0  0
  2  8  1  0
  2  1  1  6
  3  2  1  0
  4  3  1  0
  5  4  1  0
  6  5  1  0
  7  6  1  0
  8  9  2  0
 10 11  1  0
 10  8  1  0
 12 13  1  0
 11 12  1  6
 13 14  1  0
 14 18  1  0
 14 15  2  0
 16 17  2  0
 16 11  1  0
 20 21  1  1
 20 19  1  0
 20 22  1  0
 23 22  1  1
 23 25  1  0
 23 24  1  0
 24 16  1  0
 25 27  1  0
 26 25  2  0
M  END
$$$$
