KEL.pdb
     RDKit          3D

 27 26  0  0  1  0  0  0  0  0999 V2000
   19.1341  -13.3965  -19.1110 N   0  0  0  0  0  0  0  0  0  0  0  0
   20.1173  -12.4022  -19.4467 C   0  0  1  0  0  0  0  0  0  0  0  0
   20.1423  -12.2332  -20.9534 C   0  0  0  0  0  0  0  0  0  0  0  0
   20.6497  -13.4429  -21.6416 C   0  0  0  0  0  0  0  0  0  0  0  0
   22.1014  -13.7250  -21.4705 C   0  0  0  0  0  0  0  0  0  0  0  0
   22.6624  -14.8454  -22.2861 C   0  0  0  0  0  0  0  0  0  0  0  0
   24.0785  -14.9713  -22.1621 N   0  0  0  0  0  0  0  0  0  0  0  0
   19.8457  -11.1122  -18.7978 C   0  0  0  0  0  0  0  0  0  0  0  0
   18.6366  -10.6925  -18.7886 O   0  0  0  0  0  0  0  0  0  0  0  0
   20.8815  -10.3273  -18.1934 N   0  0  0  0  0  0  0  0  0  0  0  0
   20.6008   -9.0808  -17.5753 C   0  0  1  0  0  0  0  0  0  0  0  0
   20.8871   -8.8671  -16.1543 C   0  0  0  0  0  0  0  0  0  0  0  0
   20.6548   -7.5766  -15.5028 C   0  0  0  0  0  0  0  0  0  0  0  0
   21.0479   -7.5168  -14.1049 C   0  0  0  0  0  0  0  0  0  0  0  0
   21.4816   -8.4649  -13.4252 O   0  0  0  0  0  0  0  0  0  0  0  0
   21.2344   -7.9448  -18.3444 C   0  0  0  0  0  0  0  0  0  0  0  0
   22.4735   -7.9947  -18.5145 O   0  0  0  0  0  0  0  0  0  0  0  0
   20.9565   -6.2952  -13.3800 O   0  0  0  0  0  0  0  0  0  0  0  0
   19.8215   -2.9098  -21.8625 C   0  0  0  0  0  0  0  0  0  0  0  0
   20.7861   -3.7942  -21.1499 C   0  0  2  0  0  0  0  0  0  0  0  0
   21.7243   -4.3990  -22.2124 C   0  0  0  0  0  0  0  0  0  0  0  0
   20.2278   -4.9407  -20.3989 C   0  0  0  0  0  0  0  0  0  0  0  0
   21.1484   -5.7472  -19.5630 C   0  0  2  0  0  0  0  0  0  0  0  0
   20.5027   -6.8650  -18.8636 N   0  0  0  0  0  0  0  0  0  0  0  0
   21.9106   -4.9491  -18.5804 C   0  0  0  0  0  0  0  0  0  0  0  0
   22.8900   -4.2638  -18.9635 O   0  0  0  0  0  0  0  0  0  0  0  0
   21.6044   -4.9081  -17.2257 O   0  0  0  0  0  0  0  0  0  0  0  0
  2  8  1  0
  2  1  1  6
  3  2  1  0
  4  3  1  0
  5  4  1  0
  6  5  1  0
  7  6  1  0
  8  9  2  0
 10 11  1  0
 10  8  1  0
 12 13  1  0
 11 12  1  1
 13 14  1  0
 14 18  1  0
 14 15  2  0
 16 17  2  0
 16 11  1  0
 20 21  1  6
 20 19  1  0
 20 22  1  0
 23 22  1  1
 23 25  1  0
 23 24  1  0
 24 16  1  0
 25 27  1  0
 26 25  2  0
M  END
$$$$
