KEL.pdb
     RDKit          3D

 27 26  0  0  1  0  0  0  0  0999 V2000
   17.2195  -13.9565  -15.3500 N   0  0  0  0  0  0  0  0  0  0  0  0
   17.1731  -12.7963  -16.1985 C   0  0  1  0  0  0  0  0  0  0  0  0
   15.7224  -12.4176  -16.4245 C   0  0  0  0  0  0  0  0  0  0  0  0
   15.0151  -13.4026  -17.2753 C   0  0  0  0  0  0  0  0  0  0  0  0
   13.5721  -13.1301  -17.5196 C   0  0  0  0  0  0  0  0  0  0  0  0
   12.8415  -14.1222  -18.3666 C   0  0  0  0  0  0  0  0  0  0  0  0
   11.4650  -13.7931  -18.5498 N   0  0  0  0  0  0  0  0  0  0  0  0
   17.9088  -11.6606  -15.6259 C   0  0  0  0  0  0  0  0  0  0  0  0
   17.7216  -11.3920  -14.3887 O   0  0  0  0  0  0  0  0  0  0  0  0
   18.8069  -10.8603  -16.4052 N   0  0  0  0  0  0  0  0  0  0  0  0
   19.4340   -9.7088  -15.8618 C   0  0  1  0  0  0  0  0  0  0  0  0
   20.8687   -9.4777  -16.0487 C   0  0  0  0  0  0  0  0  0  0  0  0
   21.5485   -8.3176  -15.4692 C   0  0  0  0  0  0  0  0  0  0  0  0
   22.9641   -8.2174  -15.7829 C   0  0  0  0  0  0  0  0  0  0  0  0
   23.7190   -7.2793  -15.4681 O   0  0  0  0  0  0  0  0  0  0  0  0
   18.7102   -8.4520  -16.2860 C   0  0  0  0  0  0  0  0  0  0  0  0
   18.5178   -8.2931  -17.5125 O   0  0  0  0  0  0  0  0  0  0  0  0
   23.6171   -9.2489  -16.5148 O   0  0  0  0  0  0  0  0  0  0  0  0
   14.7763   -4.1770  -14.8899 C   0  0  0  0  0  0  0  0  0  0  0  0
   15.5499   -4.8299  -15.9834 C   0  0  2  0  0  0  0  0  0  0  0  0
   14.5630   -5.1247  -17.1298 C   0  0  0  0  0  0  0  0  0  0  0  0
   16.2096   -6.1175  -15.6720 C   0  0  0  0  0  0  0  0  0  0  0  0
   17.6817   -6.2054  -15.8200 C   0  0  2  0  0  0  0  0  0  0  0  0
   18.2555   -7.4826  -15.3780 N   0  0  0  0  0  0  0  0  0  0  0  0
   18.4113   -5.1032  -15.1597 C   0  0  0  0  0  0  0  0  0  0  0  0
   18.0795   -3.9145  -15.3885 O   0  0  0  0  0  0  0  0  0  0  0  0
   19.4676   -5.3042  -14.2795 O   0  0  0  0  0  0  0  0  0  0  0  0
  2  8  1  0
  2  1  1  1
  3  2  1  0
  4  3  1  0
  5  4  1  0
  6  5  1  0
  7  6  1  0
  8  9  2  0
 10 11  1  0
 10  8  1  0
 12 13  1  0
 11 12  1  6
 13 14  1  0
 14 18  1  0
 14 15  2  0
 16 17  2  0
 16 11  1  0
 20 21  1  6
 20 19  1  0
 20 22  1  0
 23 22  1  1
 23 25  1  0
 23 24  1  0
 24 16  1  0
 25 27  1  0
 26 25  2  0
M  END
$$$$
