KEL.pdb
     RDKit          3D

 27 26  0  0  1  0  0  0  0  0999 V2000
   24.2734  -19.7334  -16.2474 N   0  0  0  0  0  0  0  0  0  0  0  0
   23.2673  -18.7830  -16.6379 C   0  0  1  0  0  0  0  0  0  0  0  0
   23.5008  -18.3955  -18.0851 C   0  0  0  0  0  0  0  0  0  0  0  0
   24.7790  -18.9328  -18.6068 C   0  0  0  0  0  0  0  0  0  0  0  0
   24.6609  -19.9719  -19.6664 C   0  0  0  0  0  0  0  0  0  0  0  0
   24.3932  -19.4810  -21.0529 C   0  0  0  0  0  0  0  0  0  0  0  0
   24.2486  -20.5378  -22.0009 N   0  0  0  0  0  0  0  0  0  0  0  0
   21.9076  -19.3141  -16.4699 C   0  0  0  0  0  0  0  0  0  0  0  0
   20.9291  -18.5721  -16.8303 O   0  0  0  0  0  0  0  0  0  0  0  0
   21.6569  -20.6130  -15.9183 N   0  0  0  0  0  0  0  0  0  0  0  0
   20.3357  -21.0746  -15.6818 C   0  0  1  0  0  0  0  0  0  0  0  0
   19.7198  -22.0692  -16.5640 C   0  0  0  0  0  0  0  0  0  0  0  0
   19.4228  -21.7809  -17.9684 C   0  0  0  0  0  0  0  0  0  0  0  0
   18.1777  -22.3469  -18.4599 C   0  0  0  0  0  0  0  0  0  0  0  0
   17.6544  -22.1157  -19.5652 O   0  0  0  0  0  0  0  0  0  0  0  0
   20.1850  -21.5685  -14.2617 C   0  0  0  0  0  0  0  0  0  0  0  0
   20.7530  -22.6452  -13.9708 O   0  0  0  0  0  0  0  0  0  0  0  0
   17.4320  -23.2575  -17.6594 O   0  0  0  0  0  0  0  0  0  0  0  0
   21.8371  -20.8277   -9.8784 C   0  0  0  0  0  0  0  0  0  0  0  0
   20.9911  -19.7779  -10.5130 C   0  0  2  0  0  0  0  0  0  0  0  0
   20.8272  -18.6396   -9.4871 C   0  0  0  0  0  0  0  0  0  0  0  0
   19.6205  -20.1636  -10.9166 C   0  0  0  0  0  0  0  0  0  0  0  0
   19.4599  -21.2863  -11.8708 C   0  0  2  0  0  0  0  0  0  0  0  0
   19.4522  -20.8803  -13.2817 N   0  0  0  0  0  0  0  0  0  0  0  0
   18.2686  -22.1207  -11.6102 C   0  0  0  0  0  0  0  0  0  0  0  0
   17.1734  -21.8233  -12.1465 O   0  0  0  0  0  0  0  0  0  0  0  0
   18.2843  -23.2414  -10.7890 O   0  0  0  0  0  0  0  0  0  0  0  0
  2  8  1  0
  2  1  1  6
  3  2  1  0
  4  3  1  0
  5  4  1  0
  6  5  1  0
  7  6  1  0
  8  9  2  0
 10 11  1  0
 10  8  1  0
 12 13  1  0
 11 12  1  6
 13 14  1  0
 14 18  1  0
 14 15  2  0
 16 17  2  0
 16 11  1  0
 20 21  1  1
 20 19  1  0
 20 22  1  0
 23 22  1  1
 23 25  1  0
 23 24  1  0
 24 16  1  0
 25 27  1  0
 26 25  2  0
M  END
$$$$
