KEL.pdb
     RDKit          3D

 27 26  0  0  1  0  0  0  0  0999 V2000
   26.6991  -20.8171  -17.3020 N   0  0  0  0  0  0  0  0  0  0  0  0
   27.1385  -21.3755  -16.0517 C   0  0  1  0  0  0  0  0  0  0  0  0
   28.6513  -21.2937  -15.9883 C   0  0  0  0  0  0  0  0  0  0  0  0
   29.3010  -22.3962  -16.7346 C   0  0  0  0  0  0  0  0  0  0  0  0
   29.7728  -22.0605  -18.1061 C   0  0  0  0  0  0  0  0  0  0  0  0
   31.2533  -22.0324  -18.3123 C   0  0  0  0  0  0  0  0  0  0  0  0
   31.6281  -21.5475  -19.6011 N   0  0  0  0  0  0  0  0  0  0  0  0
   26.5461  -20.6858  -14.8974 C   0  0  0  0  0  0  0  0  0  0  0  0
   26.6206  -19.4086  -14.8636 O   0  0  0  0  0  0  0  0  0  0  0  0
   25.9061  -21.3951  -13.8289 N   0  0  0  0  0  0  0  0  0  0  0  0
   25.1633  -20.7147  -12.8289 C   0  0  1  0  0  0  0  0  0  0  0  0
   23.7014  -20.6456  -12.8976 C   0  0  0  0  0  0  0  0  0  0  0  0
   23.0004  -19.4130  -13.2621 C   0  0  0  0  0  0  0  0  0  0  0  0
   21.9103  -19.5851  -14.2078 C   0  0  0  0  0  0  0  0  0  0  0  0
   21.0409  -20.4748  -14.1687 O   0  0  0  0  0  0  0  0  0  0  0  0
   25.5325  -21.2148  -11.4516 C   0  0  0  0  0  0  0  0  0  0  0  0
   25.6047  -22.4548  -11.2974 O   0  0  0  0  0  0  0  0  0  0  0  0
   21.7583  -18.6923  -15.3060 O   0  0  0  0  0  0  0  0  0  0  0  0
   29.0116  -20.5401   -8.2266 C   0  0  0  0  0  0  0  0  0  0  0  0
   27.9664  -19.4804   -8.2989 C   0  0  2  0  0  0  0  0  0  0  0  0
   28.2933  -18.4394   -7.2106 C   0  0  0  0  0  0  0  0  0  0  0  0
   26.5651  -19.8926   -8.0613 C   0  0  0  0  0  0  0  0  0  0  0  0
   25.9511  -20.8640   -8.9973 C   0  0  2  0  0  0  0  0  0  0  0  0
   25.7930  -20.3614  -10.3677 N   0  0  0  0  0  0  0  0  0  0  0  0
   24.6528  -21.3956   -8.5337 C   0  0  0  0  0  0  0  0  0  0  0  0
   23.5936  -21.0228   -9.0946 O   0  0  0  0  0  0  0  0  0  0  0  0
   24.5269  -22.3046   -7.4903 O   0  0  0  0  0  0  0  0  0  0  0  0
  2  8  1  0
  2  1  1  6
  3  2  1  0
  4  3  1  0
  5  4  1  0
  6  5  1  0
  7  6  1  0
  8  9  2  0
 10 11  1  0
 10  8  1  0
 12 13  1  0
 11 12  1  6
 13 14  1  0
 14 18  1  0
 14 15  2  0
 16 17  2  0
 16 11  1  0
 20 21  1  1
 20 19  1  0
 20 22  1  0
 23 22  1  1
 23 25  1  0
 23 24  1  0
 24 16  1  0
 25 27  1  0
 26 25  2  0
M  END
$$$$
