KEL.pdb
     RDKit          3D

 27 26  0  0  1  0  0  0  0  0999 V2000
   18.2426  -14.1977  -19.3220 N   0  0  0  0  0  0  0  0  0  0  0  0
   17.5474  -13.1165  -18.6770 C   0  0  1  0  0  0  0  0  0  0  0  0
   16.9495  -13.6283  -17.3809 C   0  0  0  0  0  0  0  0  0  0  0  0
   16.3106  -14.9545  -17.5471 C   0  0  0  0  0  0  0  0  0  0  0  0
   15.5818  -15.4761  -16.3585 C   0  0  0  0  0  0  0  0  0  0  0  0
   15.0247  -16.8587  -16.4733 C   0  0  0  0  0  0  0  0  0  0  0  0
   14.4923  -17.3499  -15.2438 N   0  0  0  0  0  0  0  0  0  0  0  0
   18.4286  -11.9714  -18.4099 C   0  0  0  0  0  0  0  0  0  0  0  0
   19.6170  -12.2161  -18.0029 O   0  0  0  0  0  0  0  0  0  0  0  0
   17.9956  -10.6164  -18.5849 N   0  0  0  0  0  0  0  0  0  0  0  0
   18.9040   -9.5303  -18.4866 C   0  0  1  0  0  0  0  0  0  0  0  0
   18.5955   -8.2368  -19.1017 C   0  0  0  0  0  0  0  0  0  0  0  0
   18.3629   -8.0990  -20.5407 C   0  0  0  0  0  0  0  0  0  0  0  0
   17.8011   -6.8229  -20.9509 C   0  0  0  0  0  0  0  0  0  0  0  0
   17.5325   -5.8664  -20.2012 O   0  0  0  0  0  0  0  0  0  0  0  0
   19.2798   -9.2726  -17.0459 C   0  0  0  0  0  0  0  0  0  0  0  0
   18.3902   -9.4561  -16.1847 O   0  0  0  0  0  0  0  0  0  0  0  0
   17.5044   -6.5703  -22.3199 O   0  0  0  0  0  0  0  0  0  0  0  0
   23.8404  -10.0136  -13.0684 C   0  0  0  0  0  0  0  0  0  0  0  0
   22.5796   -9.3021  -13.4217 C   0  0  2  0  0  0  0  0  0  0  0  0
   21.4946   -9.7755  -12.4351 C   0  0  0  0  0  0  0  0  0  0  0  0
   22.0279   -9.5316  -14.7756 C   0  0  0  0  0  0  0  0  0  0  0  0
   20.9167   -8.6658  -15.2364 C   0  0  2  0  0  0  0  0  0  0  0  0
   20.5577   -8.8483  -16.6483 N   0  0  0  0  0  0  0  0  0  0  0  0
   21.1424   -7.2272  -14.9861 C   0  0  0  0  0  0  0  0  0  0  0  0
   21.6619   -6.5156  -15.8801 O   0  0  0  0  0  0  0  0  0  0  0  0
   20.8075   -6.5963  -13.7941 O   0  0  0  0  0  0  0  0  0  0  0  0
  2  8  1  0
  2  1  1  1
  3  2  1  0
  4  3  1  0
  5  4  1  0
  6  5  1  0
  7  6  1  0
  8  9  2  0
 10 11  1  0
 10  8  1  0
 12 13  1  0
 11 12  1  1
 13 14  1  0
 14 18  1  0
 14 15  2  0
 16 17  2  0
 16 11  1  0
 20 21  1  1
 20 19  1  0
 20 22  1  0
 23 22  1  6
 23 25  1  0
 23 24  1  0
 24 16  1  0
 25 27  1  0
 26 25  2  0
M  END
$$$$
