KEL.pdb
     RDKit          3D

 27 26  0  0  1  0  0  0  0  0999 V2000
   19.9948  -13.9141  -18.2571 N   0  0  0  0  0  0  0  0  0  0  0  0
   18.8154  -13.3885  -17.6238 C   0  0  1  0  0  0  0  0  0  0  0  0
   18.1081  -14.5181  -16.9007 C   0  0  0  0  0  0  0  0  0  0  0  0
   17.8696  -15.6828  -17.7845 C   0  0  0  0  0  0  0  0  0  0  0  0
   16.4648  -16.1716  -17.8476 C   0  0  0  0  0  0  0  0  0  0  0  0
   16.2176  -17.5542  -17.3355 C   0  0  0  0  0  0  0  0  0  0  0  0
   16.4433  -18.5626  -18.3197 N   0  0  0  0  0  0  0  0  0  0  0  0
   19.1276  -12.3034  -16.6835 C   0  0  0  0  0  0  0  0  0  0  0  0
   19.4331  -12.6247  -15.4828 O   0  0  0  0  0  0  0  0  0  0  0  0
   19.0929  -10.9236  -17.0695 N   0  0  0  0  0  0  0  0  0  0  0  0
   19.3600   -9.8870  -16.1374 C   0  0  1  0  0  0  0  0  0  0  0  0
   19.8834   -8.5935  -16.5842 C   0  0  0  0  0  0  0  0  0  0  0  0
   19.2120   -7.8007  -17.6159 C   0  0  0  0  0  0  0  0  0  0  0  0
   19.8385   -6.5229  -17.9110 C   0  0  0  0  0  0  0  0  0  0  0  0
   19.4570   -5.4096  -17.5057 O   0  0  0  0  0  0  0  0  0  0  0  0
   18.1501   -9.6161  -15.2736 C   0  0  0  0  0  0  0  0  0  0  0  0
   17.0271   -9.7473  -15.8106 O   0  0  0  0  0  0  0  0  0  0  0  0
   20.9994   -6.4595  -18.7322 O   0  0  0  0  0  0  0  0  0  0  0  0
   14.5397   -9.2011  -11.4557 C   0  0  0  0  0  0  0  0  0  0  0  0
   15.9109   -9.1813  -10.8728 C   0  0  2  0  0  0  0  0  0  0  0  0
   16.1736   -7.7491  -10.3681 C   0  0  0  0  0  0  0  0  0  0  0  0
   17.0367   -9.5083  -11.7761 C   0  0  0  0  0  0  0  0  0  0  0  0
   17.0501   -8.9019  -13.1284 C   0  0  2  0  0  0  0  0  0  0  0  0
   18.2374   -9.2349  -13.9252 N   0  0  0  0  0  0  0  0  0  0  0  0
   16.8786   -7.4344  -13.1224 C   0  0  0  0  0  0  0  0  0  0  0  0
   17.8895   -6.6915  -13.0809 O   0  0  0  0  0  0  0  0  0  0  0  0
   15.6384   -6.8089  -13.1608 O   0  0  0  0  0  0  0  0  0  0  0  0
  2  8  1  0
  2  1  1  1
  3  2  1  0
  4  3  1  0
  5  4  1  0
  6  5  1  0
  7  6  1  0
  8  9  2  0
 10 11  1  0
 10  8  1  0
 12 13  1  0
 11 12  1  6
 13 14  1  0
 14 18  1  0
 14 15  2  0
 16 17  2  0
 16 11  1  0
 20 21  1  6
 20 19  1  0
 20 22  1  0
 23 22  1  1
 23 25  1  0
 23 24  1  0
 24 16  1  0
 25 27  1  0
 26 25  2  0
M  END
$$$$
