KEL.pdb
     RDKit          3D

 27 26  0  0  1  0  0  0  0  0999 V2000
   22.8317  -19.8820  -17.7452 N   0  0  0  0  0  0  0  0  0  0  0  0
   23.1521  -19.2966  -16.4713 C   0  0  1  0  0  0  0  0  0  0  0  0
   21.9618  -19.4637  -15.5469 C   0  0  0  0  0  0  0  0  0  0  0  0
   20.8498  -20.1958  -16.1967 C   0  0  0  0  0  0  0  0  0  0  0  0
   19.5923  -20.2985  -15.4064 C   0  0  0  0  0  0  0  0  0  0  0  0
   18.4523  -21.0118  -16.0595 C   0  0  0  0  0  0  0  0  0  0  0  0
   17.3250  -21.1682  -15.1985 N   0  0  0  0  0  0  0  0  0  0  0  0
   24.3487  -19.9001  -15.8688 C   0  0  0  0  0  0  0  0  0  0  0  0
   24.2496  -21.0912  -15.4113 O   0  0  0  0  0  0  0  0  0  0  0  0
   25.5954  -19.1989  -15.7781 N   0  0  0  0  0  0  0  0  0  0  0  0
   26.7811  -19.8493  -15.3473 C   0  0  1  0  0  0  0  0  0  0  0  0
   28.0709  -19.5497  -15.9746 C   0  0  0  0  0  0  0  0  0  0  0  0
   28.3318  -19.8393  -17.3859 C   0  0  0  0  0  0  0  0  0  0  0  0
   28.4392  -18.6693  -18.2415 C   0  0  0  0  0  0  0  0  0  0  0  0
   29.0158  -17.6039  -17.9557 O   0  0  0  0  0  0  0  0  0  0  0  0
   26.9573  -19.7111  -13.8529 C   0  0  0  0  0  0  0  0  0  0  0  0
   26.7243  -18.5869  -13.3544 O   0  0  0  0  0  0  0  0  0  0  0  0
   27.8565  -18.6675  -19.5401 O   0  0  0  0  0  0  0  0  0  0  0  0
   26.2822  -19.1050   -9.0322 C   0  0  0  0  0  0  0  0  0  0  0  0
   25.6511  -19.9171  -10.1105 C   0  0  2  0  0  0  0  0  0  0  0  0
   24.4256  -20.6211   -9.4962 C   0  0  0  0  0  0  0  0  0  0  0  0
   26.4713  -20.9862  -10.7226 C   0  0  0  0  0  0  0  0  0  0  0  0
   27.6070  -20.5903  -11.5886 C   0  0  2  0  0  0  0  0  0  0  0  0
   27.3600  -20.7708  -13.0246 N   0  0  0  0  0  0  0  0  0  0  0  0
   28.8797  -21.2543  -11.2386 C   0  0  0  0  0  0  0  0  0  0  0  0
   29.3309  -21.1553  -10.0715 O   0  0  0  0  0  0  0  0  0  0  0  0
   29.6272  -22.0001  -12.1419 O   0  0  0  0  0  0  0  0  0  0  0  0
  2  8  1  0
  2  1  1  6
  3  2  1  0
  4  3  1  0
  5  4  1  0
  6  5  1  0
  7  6  1  0
  8  9  2  0
 10 11  1  0
 10  8  1  0
 12 13  1  0
 11 12  1  6
 13 14  1  0
 14 18  1  0
 14 15  2  0
 16 17  2  0
 16 11  1  0
 20 21  1  1
 20 19  1  0
 20 22  1  0
 23 22  1  1
 23 25  1  0
 23 24  1  0
 24 16  1  0
 25 27  1  0
 26 25  2  0
M  END
$$$$
