YPH.pdb
     RDKit          3D

 30 32  0  0  1  0  0  0  0  0999 V2000
   28.0075   -4.4690  -17.7064 O   0  0  0  0  0  0  0  0  0  0  0  0
   26.7927   -4.7686  -17.0575 C   0  0  0  0  0  0  0  0  0  0  0  0
   26.2916   -3.9387  -16.0799 C   0  0  0  0  0  0  0  0  0  0  0  0
   25.0987   -4.2296  -15.4403 C   0  0  0  0  0  0  0  0  0  0  0  0
   24.3604   -5.3501  -15.7450 C   0  0  0  0  0  0  0  0  0  0  0  0
   23.1001   -5.7022  -15.1099 C   0  0  0  0  0  0  0  0  0  0  0  0
   21.8893   -4.9425  -15.6018 C   0  0  2  0  0  0  0  0  0  0  0  0
   22.0138   -3.5638  -15.2019 N   0  0  0  0  0  0  0  0  0  0  0  0
   20.6077   -5.5817  -15.3619 C   0  0  0  0  0  0  0  0  0  0  0  0
   20.0899   -5.2739  -14.2002 O   0  0  0  0  0  0  0  0  0  0  0  0
   24.9023   -6.1602  -16.7370 C   0  0  0  0  0  0  0  0  0  0  0  0
   26.0800   -5.8970  -17.3861 C   0  0  0  0  0  0  0  0  0  0  0  0
   19.8407   -6.4426  -16.1299 N   0  0  0  0  0  0  0  0  0  0  0  0
   19.7681   -6.2902  -17.6341 C   0  0  0  0  0  0  0  0  0  0  0  0
   20.2524   -7.7130  -17.9792 C   0  0  0  0  0  0  0  0  0  0  0  0
   19.7883   -8.5905  -16.7885 C   0  0  0  0  0  0  0  0  0  0  0  0
   18.9774   -7.5616  -16.0086 C   0  0  1  0  0  0  0  0  0  0  0  0
   18.3571   -7.9645  -14.8009 C   0  0  0  0  0  0  0  0  0  0  0  0
   19.1137   -8.2388  -13.8011 O   0  0  0  0  0  0  0  0  0  0  0  0
   16.9769   -8.1183  -14.5380 N   0  0  0  0  0  0  0  0  0  0  0  0
   16.4765   -8.6330  -13.2663 C   0  0  1  0  0  0  0  0  0  0  0  0
   15.0799   -8.1925  -12.9729 C   0  0  0  0  0  0  0  0  0  0  0  0
   14.5598   -8.7966  -11.7191 C   0  0  0  0  0  0  0  0  0  0  0  0
   15.1743   -8.8240  -10.4816 C   0  0  0  0  0  0  0  0  0  0  0  0
   14.3991   -9.4585   -9.5892 N   0  0  0  0  0  0  0  0  0  0  0  0
   13.2827   -9.8442  -10.2404 C   0  0  0  0  0  0  0  0  0  0  0  0
   13.3833   -9.4434  -11.5240 N   0  0  0  0  0  0  0  0  0  0  0  0
   16.4365  -10.1313  -13.4102 C   0  0  0  0  0  0  0  0  0  0  0  0
   16.8395  -10.8006  -12.4319 O   0  0  0  0  0  0  0  0  0  0  0  0
   15.9854  -10.7604  -14.5466 O   0  0  0  0  0  0  0  0  0  0  0  0
  2  1  1  0
  3  2  2  0
  4  3  1  0
  5  4  2  0
  5 11  1  0
  6  5  1  0
  7  6  1  0
  7  8  1  1
  9 10  2  0
  9  7  1  0
 11 12  2  0
 12  2  1  0
 13  9  1  0
 14 13  1  0
 15 14  1  0
 16 15  1  0
 16 17  1  0
 17 13  1  0
 17 18  1  1
 19 18  2  0
 20 18  1  0
 21 28  1  0
 21 20  1  0
 21 22  1  6
 23 22  1  0
 24 23  2  0
 25 24  1  0
 26 25  1  0
 26 27  2  0
 27 23  1  0
 28 30  1  0
 29 28  2  0
M  END
$$$$
