YPH.pdb
     RDKit          3D

 30 32  0  0  1  0  0  0  0  0999 V2000
   24.6725  -13.5521  -21.2093 O   0  0  0  0  0  0  0  0  0  0  0  0
   24.5511  -14.7243  -20.4361 C   0  0  0  0  0  0  0  0  0  0  0  0
   24.8964  -14.7292  -19.1033 C   0  0  0  0  0  0  0  0  0  0  0  0
   24.7785  -15.8786  -18.3407 C   0  0  0  0  0  0  0  0  0  0  0  0
   24.3155  -17.0620  -18.8688 C   0  0  0  0  0  0  0  0  0  0  0  0
   24.1667  -18.2966  -18.1145 C   0  0  0  0  0  0  0  0  0  0  0  0
   25.3914  -19.1814  -18.0668 C   0  0  2  0  0  0  0  0  0  0  0  0
   25.4022  -20.0209  -19.2379 N   0  0  0  0  0  0  0  0  0  0  0  0
   25.6477  -19.8297  -16.7930 C   0  0  0  0  0  0  0  0  0  0  0  0
   24.6947  -20.6516  -16.4342 O   0  0  0  0  0  0  0  0  0  0  0  0
   23.9785  -17.0128  -20.2171 C   0  0  0  0  0  0  0  0  0  0  0  0
   24.0850  -15.8901  -20.9955 C   0  0  0  0  0  0  0  0  0  0  0  0
   26.7050  -19.7420  -15.9020 N   0  0  0  0  0  0  0  0  0  0  0  0
   28.1278  -19.9918  -16.3540 C   0  0  0  0  0  0  0  0  0  0  0  0
   28.6964  -18.6298  -15.9074 C   0  0  0  0  0  0  0  0  0  0  0  0
   27.8257  -18.2142  -14.6939 C   0  0  0  0  0  0  0  0  0  0  0  0
   26.9816  -19.4740  -14.5368 C   0  0  1  0  0  0  0  0  0  0  0  0
   26.0146  -19.5150  -13.5030 C   0  0  0  0  0  0  0  0  0  0  0  0
   25.0611  -18.6565  -13.5399 O   0  0  0  0  0  0  0  0  0  0  0  0
   25.9562  -20.3933  -12.3971 N   0  0  0  0  0  0  0  0  0  0  0  0
   24.8307  -20.4043  -11.4667 C   0  0  1  0  0  0  0  0  0  0  0  0
   23.5884  -20.9752  -12.0679 C   0  0  0  0  0  0  0  0  0  0  0  0
   22.4366  -20.9049  -11.1320 C   0  0  0  0  0  0  0  0  0  0  0  0
   22.4113  -20.3388   -9.8716 C   0  0  0  0  0  0  0  0  0  0  0  0
   21.1923  -20.4673   -9.3262 N   0  0  0  0  0  0  0  0  0  0  0  0
   20.4240  -21.1147  -10.2262 C   0  0  0  0  0  0  0  0  0  0  0  0
   21.1776  -21.3767  -11.3133 N   0  0  0  0  0  0  0  0  0  0  0  0
   25.2290  -21.3228  -10.3421 C   0  0  0  0  0  0  0  0  0  0  0  0
   25.8937  -22.3370  -10.6537 O   0  0  0  0  0  0  0  0  0  0  0  0
   24.8938  -21.0853   -9.0299 O   0  0  0  0  0  0  0  0  0  0  0  0
  2  1  1  0
  3  2  2  0
  4  3  1  0
  5  4  2  0
  5 11  1  0
  6  5  1  0
  7  6  1  0
  7  8  1  6
  9 10  2  0
  9  7  1  0
 11 12  2  0
 12  2  1  0
 13  9  1  0
 14 13  1  0
 15 14  1  0
 16 15  1  0
 16 17  1  0
 17 13  1  0
 17 18  1  1
 19 18  2  0
 20 18  1  0
 21 28  1  0
 21 20  1  0
 21 22  1  6
 23 22  1  0
 24 23  2  0
 25 24  1  0
 26 25  1  0
 26 27  2  0
 27 23  1  0
 28 30  1  0
 29 28  2  0
M  END
$$$$
