YPH.pdb
     RDKit          3D

 30 32  0  0  1  0  0  0  0  0999 V2000
    9.1671  -20.3891    1.3518 O   0  0  0  0  0  0  0  0  0  0  0  0
   10.4749  -20.2859    1.8673 C   0  0  0  0  0  0  0  0  0  0  0  0
   11.0073  -19.0606    2.2002 C   0  0  0  0  0  0  0  0  0  0  0  0
   12.2914  -18.9552    2.7069 C   0  0  0  0  0  0  0  0  0  0  0  0
   13.0929  -20.0567    2.9019 C   0  0  0  0  0  0  0  0  0  0  0  0
   14.4453  -20.0056    3.4348 C   0  0  0  0  0  0  0  0  0  0  0  0
   15.5311  -19.7084    2.4258 C   0  0  2  0  0  0  0  0  0  0  0  0
   15.4306  -20.6558    1.3448 N   0  0  0  0  0  0  0  0  0  0  0  0
   16.8549  -19.4813    2.9776 C   0  0  0  0  0  0  0  0  0  0  0  0
   17.5150  -20.5889    3.2012 O   0  0  0  0  0  0  0  0  0  0  0  0
   12.5165  -21.2732    2.5529 C   0  0  0  0  0  0  0  0  0  0  0  0
   11.2490  -21.4069    2.0496 C   0  0  0  0  0  0  0  0  0  0  0  0
   17.5398  -18.3215    3.3018 N   0  0  0  0  0  0  0  0  0  0  0  0
   17.6975  -17.2022    2.2951 C   0  0  0  0  0  0  0  0  0  0  0  0
   17.0526  -16.0979    3.1568 C   0  0  0  0  0  0  0  0  0  0  0  0
   17.3489  -16.5122    4.6209 C   0  0  0  0  0  0  0  0  0  0  0  0
   18.2483  -17.7179    4.3723 C   0  0  1  0  0  0  0  0  0  0  0  0
   18.7587  -18.4222    5.4899 C   0  0  0  0  0  0  0  0  0  0  0  0
   17.9196  -19.0171    6.2576 O   0  0  0  0  0  0  0  0  0  0  0  0
   20.1062  -18.5589    5.8940 N   0  0  0  0  0  0  0  0  0  0  0  0
   20.4937  -19.3248    7.0754 C   0  0  1  0  0  0  0  0  0  0  0  0
   21.3983  -20.4686    6.7526 C   0  0  0  0  0  0  0  0  0  0  0  0
   20.6690  -21.5837    6.0951 C   0  0  0  0  0  0  0  0  0  0  0  0
   20.2895  -21.6734    4.7693 C   0  0  0  0  0  0  0  0  0  0  0  0
   19.6480  -22.8301    4.5444 N   0  0  0  0  0  0  0  0  0  0  0  0
   19.6083  -23.4936    5.7180 C   0  0  0  0  0  0  0  0  0  0  0  0
   20.2247  -22.7390    6.6503 N   0  0  0  0  0  0  0  0  0  0  0  0
   21.2826  -18.3807    7.9435 C   0  0  0  0  0  0  0  0  0  0  0  0
   21.6631  -17.3133    7.4112 O   0  0  0  0  0  0  0  0  0  0  0  0
   21.5848  -18.6506    9.2574 O   0  0  0  0  0  0  0  0  0  0  0  0
  2  1  1  0
  3  2  2  0
  4  3  1  0
  5  4  2  0
  5 11  1  0
  6  5  1  0
  7  6  1  0
  7  8  1  6
  9 10  2  0
  9  7  1  0
 11 12  2  0
 12  2  1  0
 13  9  1  0
 14 13  1  0
 15 14  1  0
 16 15  1  0
 16 17  1  0
 17 13  1  0
 17 18  1  1
 19 18  2  0
 20 18  1  0
 21 28  1  0
 21 20  1  0
 21 22  1  6
 23 22  1  0
 24 23  2  0
 25 24  1  0
 26 25  1  0
 26 27  2  0
 27 23  1  0
 28 30  1  0
 29 28  2  0
M  END
$$$$
