YPH.pdb
     RDKit          3D

 30 32  0  0  1  0  0  0  0  0999 V2000
   21.2755  -21.7892   -8.0743 O   0  0  0  0  0  0  0  0  0  0  0  0
   22.1244  -21.3554   -9.1125 C   0  0  0  0  0  0  0  0  0  0  0  0
   23.2911  -20.6796   -8.8338 C   0  0  0  0  0  0  0  0  0  0  0  0
   24.1275  -20.2519   -9.8508 C   0  0  0  0  0  0  0  0  0  0  0  0
   23.8398  -20.4775  -11.1774 C   0  0  0  0  0  0  0  0  0  0  0  0
   24.6830  -20.0560  -12.2850 C   0  0  0  0  0  0  0  0  0  0  0  0
   25.9622  -20.8413  -12.4640 C   0  0  2  0  0  0  0  0  0  0  0  0
   26.5660  -21.0440  -11.1715 N   0  0  0  0  0  0  0  0  0  0  0  0
   26.8349  -20.3841  -13.5308 C   0  0  0  0  0  0  0  0  0  0  0  0
   27.3931  -19.2280  -13.2776 O   0  0  0  0  0  0  0  0  0  0  0  0
   22.6529  -21.1628  -11.4139 C   0  0  0  0  0  0  0  0  0  0  0  0
   21.8067  -21.5973  -10.4277 C   0  0  0  0  0  0  0  0  0  0  0  0
   27.1836  -20.9429  -14.7496 N   0  0  0  0  0  0  0  0  0  0  0  0
   27.9092  -22.2694  -14.8196 C   0  0  0  0  0  0  0  0  0  0  0  0
   26.8719  -22.9914  -15.7032 C   0  0  0  0  0  0  0  0  0  0  0  0
   26.2322  -21.8704  -16.5619 C   0  0  0  0  0  0  0  0  0  0  0  0
   27.1058  -20.6930  -16.1437 C   0  0  1  0  0  0  0  0  0  0  0  0
   26.8465  -19.4229  -16.7142 C   0  0  0  0  0  0  0  0  0  0  0  0
   27.7090  -18.9487  -17.5380 O   0  0  0  0  0  0  0  0  0  0  0  0
   25.7381  -18.5752  -16.4893 N   0  0  0  0  0  0  0  0  0  0  0  0
   24.8567  -18.1388  -17.5687 C   0  0  1  0  0  0  0  0  0  0  0  0
   25.0321  -18.9381  -18.8181 C   0  0  0  0  0  0  0  0  0  0  0  0
   24.2096  -18.4074  -19.9359 C   0  0  0  0  0  0  0  0  0  0  0  0
   24.4530  -17.2797  -20.6966 C   0  0  0  0  0  0  0  0  0  0  0  0
   23.4884  -17.1188  -21.6150 N   0  0  0  0  0  0  0  0  0  0  0  0
   22.6182  -18.1369  -21.4555 C   0  0  0  0  0  0  0  0  0  0  0  0
   23.0564  -18.9115  -20.4424 N   0  0  0  0  0  0  0  0  0  0  0  0
   23.4524  -18.3906  -17.0873 C   0  0  0  0  0  0  0  0  0  0  0  0
   23.2392  -19.4900  -16.5275 O   0  0  0  0  0  0  0  0  0  0  0  0
   22.4356  -17.4780  -17.2409 O   0  0  0  0  0  0  0  0  0  0  0  0
  2  1  1  0
  3  2  2  0
  4  3  1  0
  5  4  2  0
  5 11  1  0
  6  5  1  0
  7  6  1  0
  7  8  1  1
  9 10  2  0
  9  7  1  0
 11 12  2  0
 12  2  1  0
 13  9  1  0
 14 13  1  0
 15 14  1  0
 16 15  1  0
 16 17  1  0
 17 13  1  0
 17 18  1  1
 19 18  2  0
 20 18  1  0
 21 28  1  0
 21 20  1  0
 21 22  1  6
 23 22  1  0
 24 23  2  0
 25 24  1  0
 26 25  1  0
 26 27  2  0
 27 23  1  0
 28 30  1  0
 29 28  2  0
M  END
$$$$
