YPH.pdb
     RDKit          3D

 30 32  0  0  1  0  0  0  0  0999 V2000
   17.0694  -13.7140  -18.1083 O   0  0  0  0  0  0  0  0  0  0  0  0
   18.2636  -13.1557  -18.6071 C   0  0  0  0  0  0  0  0  0  0  0  0
   19.1763  -13.9324  -19.2847 C   0  0  0  0  0  0  0  0  0  0  0  0
   20.3504  -13.3877  -19.7761 C   0  0  0  0  0  0  0  0  0  0  0  0
   20.6625  -12.0572  -19.6148 C   0  0  0  0  0  0  0  0  0  0  0  0
   21.8769  -11.4311  -20.1135 C   0  0  0  0  0  0  0  0  0  0  0  0
   23.0778  -11.5217  -19.1998 C   0  0  2  0  0  0  0  0  0  0  0  0
   23.3047  -12.9057  -18.8691 N   0  0  0  0  0  0  0  0  0  0  0  0
   23.1032  -10.5724  -18.1013 C   0  0  0  0  0  0  0  0  0  0  0  0
   22.3922  -10.9583  -17.0727 O   0  0  0  0  0  0  0  0  0  0  0  0
   19.7140  -11.3096  -18.9252 C   0  0  0  0  0  0  0  0  0  0  0  0
   18.5444  -11.8222  -18.4282 C   0  0  0  0  0  0  0  0  0  0  0  0
   23.7380   -9.3511  -17.9432 N   0  0  0  0  0  0  0  0  0  0  0  0
   25.2421   -9.2331  -18.0654 C   0  0  0  0  0  0  0  0  0  0  0  0
   25.2454   -8.1739  -19.1861 C   0  0  0  0  0  0  0  0  0  0  0  0
   23.9420   -7.3629  -18.9704 C   0  0  0  0  0  0  0  0  0  0  0  0
   23.4604   -7.9880  -17.6659 C   0  0  1  0  0  0  0  0  0  0  0  0
   22.2511   -7.5188  -17.0976 C   0  0  0  0  0  0  0  0  0  0  0  0
   21.1611   -7.7465  -17.7359 O   0  0  0  0  0  0  0  0  0  0  0  0
   22.0733   -6.8055  -15.8904 N   0  0  0  0  0  0  0  0  0  0  0  0
   20.7648   -6.3305  -15.4491 C   0  0  1  0  0  0  0  0  0  0  0  0
   20.6364   -6.2870  -13.9617 C   0  0  0  0  0  0  0  0  0  0  0  0
   20.1506   -7.5779  -13.4093 C   0  0  0  0  0  0  0  0  0  0  0  0
   19.8097   -8.7177  -14.1123 C   0  0  0  0  0  0  0  0  0  0  0  0
   19.4139   -9.6847  -13.2708 N   0  0  0  0  0  0  0  0  0  0  0  0
   19.4956   -9.1792  -12.0229 C   0  0  0  0  0  0  0  0  0  0  0  0
   19.9401   -7.9090  -12.1106 N   0  0  0  0  0  0  0  0  0  0  0  0
   20.6519   -4.9098  -15.9350 C   0  0  0  0  0  0  0  0  0  0  0  0
   21.7074   -4.3668  -16.3335 O   0  0  0  0  0  0  0  0  0  0  0  0
   19.4634   -4.2187  -15.9518 O   0  0  0  0  0  0  0  0  0  0  0  0
  2  1  1  0
  3  2  2  0
  4  3  1  0
  5  4  2  0
  5 11  1  0
  6  5  1  0
  7  6  1  0
  7  8  1  1
  9 10  2  0
  9  7  1  0
 11 12  2  0
 12  2  1  0
 13  9  1  0
 14 13  1  0
 15 14  1  0
 16 15  1  0
 16 17  1  0
 17 13  1  0
 17 18  1  6
 19 18  2  0
 20 18  1  0
 21 28  1  0
 21 20  1  0
 21 22  1  1
 23 22  1  0
 24 23  2  0
 25 24  1  0
 26 25  1  0
 26 27  2  0
 27 23  1  0
 28 30  1  0
 29 28  2  0
M  END
$$$$
