YPH.pdb
     RDKit          3D

 30 32  0  0  1  0  0  0  0  0999 V2000
   19.5665  -25.5921  -15.5456 O   0  0  0  0  0  0  0  0  0  0  0  0
   19.6695  -24.2977  -16.0939 C   0  0  0  0  0  0  0  0  0  0  0  0
   18.5462  -23.6101  -16.4952 C   0  0  0  0  0  0  0  0  0  0  0  0
   18.6433  -22.3386  -17.0342 C   0  0  0  0  0  0  0  0  0  0  0  0
   19.8533  -21.7032  -17.1947 C   0  0  0  0  0  0  0  0  0  0  0  0
   20.0139  -20.3683  -17.7495 C   0  0  0  0  0  0  0  0  0  0  0  0
   19.8890  -19.2330  -16.7592 C   0  0  2  0  0  0  0  0  0  0  0  0
   19.9419  -17.9846  -17.4768 N   0  0  0  0  0  0  0  0  0  0  0  0
   20.7176  -19.3424  -15.5718 C   0  0  0  0  0  0  0  0  0  0  0  0
   21.9982  -19.3669  -15.8398 O   0  0  0  0  0  0  0  0  0  0  0  0
   20.9611  -22.4327  -16.7769 C   0  0  0  0  0  0  0  0  0  0  0  0
   20.8945  -23.6918  -16.2405 C   0  0  0  0  0  0  0  0  0  0  0  0
   20.4047  -19.4197  -14.2244 N   0  0  0  0  0  0  0  0  0  0  0  0
   19.2548  -18.6242  -13.6445 C   0  0  0  0  0  0  0  0  0  0  0  0
   18.4846  -19.8266  -13.0623 C   0  0  0  0  0  0  0  0  0  0  0  0
   19.5776  -20.8719  -12.7221 C   0  0  0  0  0  0  0  0  0  0  0  0
   20.8256  -20.0503  -13.0256 C   0  0  1  0  0  0  0  0  0  0  0  0
   22.0933  -20.6546  -12.8436 C   0  0  0  0  0  0  0  0  0  0  0  0
   22.5466  -21.3932  -13.7904 O   0  0  0  0  0  0  0  0  0  0  0  0
   22.9526  -20.5601  -11.7253 N   0  0  0  0  0  0  0  0  0  0  0  0
   24.3806  -20.8535  -11.8103 C   0  0  1  0  0  0  0  0  0  0  0  0
   25.1237  -19.8719  -12.6560 C   0  0  0  0  0  0  0  0  0  0  0  0
   26.5775  -20.1739  -12.7081 C   0  0  0  0  0  0  0  0  0  0  0  0
   27.2177  -21.3068  -12.2429 C   0  0  0  0  0  0  0  0  0  0  0  0
   28.5380  -21.2218  -12.4654 N   0  0  0  0  0  0  0  0  0  0  0  0
   28.7600  -20.0385  -13.0735 C   0  0  0  0  0  0  0  0  0  0  0  0
   27.5758  -19.4098  -13.2181 N   0  0  0  0  0  0  0  0  0  0  0  0
   24.9185  -20.7137  -10.4110 C   0  0  0  0  0  0  0  0  0  0  0  0
   24.3255  -19.9071   -9.6592 O   0  0  0  0  0  0  0  0  0  0  0  0
   26.0042  -21.4230   -9.9541 O   0  0  0  0  0  0  0  0  0  0  0  0
  2  1  1  0
  3  2  2  0
  4  3  1  0
  5  4  2  0
  5 11  1  0
  6  5  1  0
  7  6  1  0
  7  8  1  6
  9 10  2  0
  9  7  1  0
 11 12  2  0
 12  2  1  0
 13  9  1  0
 14 13  1  0
 15 14  1  0
 16 15  1  0
 16 17  1  0
 17 13  1  0
 17 18  1  6
 19 18  2  0
 20 18  1  0
 21 28  1  0
 21 20  1  0
 21 22  1  6
 23 22  1  0
 24 23  2  0
 25 24  1  0
 26 25  1  0
 26 27  2  0
 27 23  1  0
 28 30  1  0
 29 28  2  0
M  END
$$$$
