YPH.pdb
     RDKit          3D

 30 32  0  0  1  0  0  0  0  0999 V2000
   19.6880  -10.2959  -22.6960 O   0  0  0  0  0  0  0  0  0  0  0  0
   19.3787  -11.3992  -21.8752 C   0  0  0  0  0  0  0  0  0  0  0  0
   18.5423  -12.3977  -22.3211 C   0  0  0  0  0  0  0  0  0  0  0  0
   18.2360  -13.4829  -21.5178 C   0  0  0  0  0  0  0  0  0  0  0  0
   18.7459  -13.6185  -20.2469 C   0  0  0  0  0  0  0  0  0  0  0  0
   18.4627  -14.7378  -19.3623 C   0  0  0  0  0  0  0  0  0  0  0  0
   19.5490  -15.7849  -19.2701 C   0  0  2  0  0  0  0  0  0  0  0  0
   19.9522  -16.1526  -20.6038 N   0  0  0  0  0  0  0  0  0  0  0  0
   19.2968  -16.8702  -18.3388 C   0  0  0  0  0  0  0  0  0  0  0  0
   18.2940  -17.6310  -18.6963 O   0  0  0  0  0  0  0  0  0  0  0  0
   19.5853  -12.5884  -19.8366 C   0  0  0  0  0  0  0  0  0  0  0  0
   19.9053  -11.5034  -20.6099 C   0  0  0  0  0  0  0  0  0  0  0  0
   19.9186  -17.2452  -17.1589 N   0  0  0  0  0  0  0  0  0  0  0  0
   21.4173  -17.4479  -17.0981 C   0  0  0  0  0  0  0  0  0  0  0  0
   21.6870  -16.4324  -15.9694 C   0  0  0  0  0  0  0  0  0  0  0  0
   20.3910  -16.4302  -15.1187 C   0  0  0  0  0  0  0  0  0  0  0  0
   19.6277  -17.5569  -15.8060 C   0  0  1  0  0  0  0  0  0  0  0  0
   18.3397  -17.8934  -15.3231 C   0  0  0  0  0  0  0  0  0  0  0  0
   17.5020  -16.9392  -15.1351 O   0  0  0  0  0  0  0  0  0  0  0  0
   17.8352  -19.1741  -15.0023 N   0  0  0  0  0  0  0  0  0  0  0  0
   16.4328  -19.3988  -14.6626 C   0  0  1  0  0  0  0  0  0  0  0  0
   15.5189  -19.2220  -15.8306 C   0  0  0  0  0  0  0  0  0  0  0  0
   14.0933  -19.3975  -15.4507 C   0  0  0  0  0  0  0  0  0  0  0  0
   13.2403  -18.4456  -14.9252 C   0  0  0  0  0  0  0  0  0  0  0  0
   12.0267  -18.9747  -14.7086 N   0  0  0  0  0  0  0  0  0  0  0  0
   12.0858  -20.2668  -15.0908 C   0  0  0  0  0  0  0  0  0  0  0  0
   13.3332  -20.5179  -15.5376 N   0  0  0  0  0  0  0  0  0  0  0  0
   16.3309  -20.8427  -14.2479 C   0  0  0  0  0  0  0  0  0  0  0  0
   17.0817  -21.6513  -14.8395 O   0  0  0  0  0  0  0  0  0  0  0  0
   15.4664  -21.2801  -13.2723 O   0  0  0  0  0  0  0  0  0  0  0  0
  2  1  1  0
  3  2  2  0
  4  3  1  0
  5  4  2  0
  5 11  1  0
  6  5  1  0
  7  6  1  0
  7  8  1  6
  9 10  2  0
  9  7  1  0
 11 12  2  0
 12  2  1  0
 13  9  1  0
 14 13  1  0
 15 14  1  0
 16 15  1  0
 16 17  1  0
 17 13  1  0
 17 18  1  6
 19 18  2  0
 20 18  1  0
 21 28  1  0
 21 20  1  0
 21 22  1  6
 23 22  1  0
 24 23  2  0
 25 24  1  0
 26 25  1  0
 26 27  2  0
 27 23  1  0
 28 30  1  0
 29 28  2  0
M  END
$$$$
