YPH.pdb
     RDKit          3D

 30 32  0  0  1  0  0  0  0  0999 V2000
   18.0052  -15.4474  -21.8209 O   0  0  0  0  0  0  0  0  0  0  0  0
   18.3035  -14.4265  -20.8960 C   0  0  0  0  0  0  0  0  0  0  0  0
   17.3534  -13.9837  -20.0033 C   0  0  0  0  0  0  0  0  0  0  0  0
   17.6425  -12.9812  -19.0934 C   0  0  0  0  0  0  0  0  0  0  0  0
   18.8801  -12.3823  -19.0344 C   0  0  0  0  0  0  0  0  0  0  0  0
   19.2405  -11.3298  -18.0974 C   0  0  0  0  0  0  0  0  0  0  0  0
   19.9362  -11.7912  -16.8371 C   0  0  2  0  0  0  0  0  0  0  0  0
   19.1924  -12.8887  -16.2728 N   0  0  0  0  0  0  0  0  0  0  0  0
   20.3448  -10.7381  -15.9247 C   0  0  0  0  0  0  0  0  0  0  0  0
   19.3345  -10.1260  -15.3616 O   0  0  0  0  0  0  0  0  0  0  0  0
   19.8090  -12.8591  -19.9529 C   0  0  0  0  0  0  0  0  0  0  0  0
   19.5504  -13.8493  -20.8641 C   0  0  0  0  0  0  0  0  0  0  0  0
   21.5923  -10.2721  -15.5426 N   0  0  0  0  0  0  0  0  0  0  0  0
   22.6433  -11.2155  -14.9979 C   0  0  0  0  0  0  0  0  0  0  0  0
   23.7338  -10.8830  -16.0364 C   0  0  0  0  0  0  0  0  0  0  0  0
   23.4646   -9.4101  -16.4379 C   0  0  0  0  0  0  0  0  0  0  0  0
   22.3469   -9.0741  -15.4569 C   0  0  1  0  0  0  0  0  0  0  0  0
   21.7871   -7.7736  -15.4898 C   0  0  0  0  0  0  0  0  0  0  0  0
   21.1552   -7.4199  -16.5495 O   0  0  0  0  0  0  0  0  0  0  0  0
   21.8359   -6.7771  -14.4886 N   0  0  0  0  0  0  0  0  0  0  0  0
   21.2436   -5.4550  -14.6728 C   0  0  1  0  0  0  0  0  0  0  0  0
   20.1407   -5.1752  -13.7054 C   0  0  0  0  0  0  0  0  0  0  0  0
   18.9182   -5.9605  -14.0160 C   0  0  0  0  0  0  0  0  0  0  0  0
   18.5187   -7.1542  -13.4458 C   0  0  0  0  0  0  0  0  0  0  0  0
   17.3589   -7.5629  -13.9820 N   0  0  0  0  0  0  0  0  0  0  0  0
   17.0016   -6.6404  -14.8989 C   0  0  0  0  0  0  0  0  0  0  0  0
   17.9441   -5.6761  -14.9165 N   0  0  0  0  0  0  0  0  0  0  0  0
   22.3384   -4.4637  -14.3797 C   0  0  0  0  0  0  0  0  0  0  0  0
   23.3752   -4.9146  -13.8419 O   0  0  0  0  0  0  0  0  0  0  0  0
   22.2328   -3.1253  -14.6764 O   0  0  0  0  0  0  0  0  0  0  0  0
  2  1  1  0
  3  2  2  0
  4  3  1  0
  5  4  2  0
  5 11  1  0
  6  5  1  0
  7  6  1  0
  7  8  1  1
  9 10  2  0
  9  7  1  0
 11 12  2  0
 12  2  1  0
 13  9  1  0
 14 13  1  0
 15 14  1  0
 16 15  1  0
 16 17  1  0
 17 13  1  0
 17 18  1  6
 19 18  2  0
 20 18  1  0
 21 28  1  0
 21 20  1  0
 21 22  1  1
 23 22  1  0
 24 23  2  0
 25 24  1  0
 26 25  1  0
 26 27  2  0
 27 23  1  0
 28 30  1  0
 29 28  2  0
M  END
$$$$
