YPH.pdb
     RDKit          3D

 30 32  0  0  1  0  0  0  0  0999 V2000
   16.9523  -14.3674  -17.3571 O   0  0  0  0  0  0  0  0  0  0  0  0
   17.9629  -13.7316  -18.1061 C   0  0  0  0  0  0  0  0  0  0  0  0
   18.6479  -14.4125  -19.0873 C   0  0  0  0  0  0  0  0  0  0  0  0
   19.6412  -13.7915  -19.8251 C   0  0  0  0  0  0  0  0  0  0  0  0
   19.9913  -12.4768  -19.6188 C   0  0  0  0  0  0  0  0  0  0  0  0
   21.0216  -11.7731  -20.3663 C   0  0  0  0  0  0  0  0  0  0  0  0
   22.3802  -11.7164  -19.7059 C   0  0  2  0  0  0  0  0  0  0  0  0
   22.7014  -13.0246  -19.1945 N   0  0  0  0  0  0  0  0  0  0  0  0
   22.5972  -10.5920  -18.8130 C   0  0  0  0  0  0  0  0  0  0  0  0
   22.1971  -10.8237  -17.5889 O   0  0  0  0  0  0  0  0  0  0  0  0
   19.2751  -11.8270  -18.6193 C   0  0  0  0  0  0  0  0  0  0  0  0
   18.2879  -12.4165  -17.8740 C   0  0  0  0  0  0  0  0  0  0  0  0
   23.1475   -9.3369  -19.0164 N   0  0  0  0  0  0  0  0  0  0  0  0
   24.5246   -9.1790  -19.6246 C   0  0  0  0  0  0  0  0  0  0  0  0
   24.0935   -8.2907  -20.8091 C   0  0  0  0  0  0  0  0  0  0  0  0
   22.8594   -7.5086  -20.2908 C   0  0  0  0  0  0  0  0  0  0  0  0
   22.8591   -7.9600  -18.8346 C   0  0  1  0  0  0  0  0  0  0  0  0
   21.8515   -7.4621  -17.9730 C   0  0  0  0  0  0  0  0  0  0  0  0
   20.6302   -7.7345  -18.2588 O   0  0  0  0  0  0  0  0  0  0  0  0
   22.0089   -6.6758  -16.8091 N   0  0  0  0  0  0  0  0  0  0  0  0
   20.8713   -6.2139  -16.0185 C   0  0  1  0  0  0  0  0  0  0  0  0
   20.8617   -6.7762  -14.6349 C   0  0  0  0  0  0  0  0  0  0  0  0
   20.4498   -8.2037  -14.6195 C   0  0  0  0  0  0  0  0  0  0  0  0
   21.2647   -9.3147  -14.7253 C   0  0  0  0  0  0  0  0  0  0  0  0
   20.5328  -10.4377  -14.6711 N   0  0  0  0  0  0  0  0  0  0  0  0
   19.2449  -10.0625  -14.5304 C   0  0  0  0  0  0  0  0  0  0  0  0
   19.1989   -8.7152  -14.4998 N   0  0  0  0  0  0  0  0  0  0  0  0
   21.0385   -4.7240  -15.8791 C   0  0  0  0  0  0  0  0  0  0  0  0
   22.1245   -4.2413  -16.2731 O   0  0  0  0  0  0  0  0  0  0  0  0
   20.0652   -3.9098  -15.3497 O   0  0  0  0  0  0  0  0  0  0  0  0
  2  1  1  0
  3  2  2  0
  4  3  1  0
  5  4  2  0
  5 11  1  0
  6  5  1  0
  7  6  1  0
  7  8  1  1
  9 10  2  0
  9  7  1  0
 11 12  2  0
 12  2  1  0
 13  9  1  0
 14 13  1  0
 15 14  1  0
 16 15  1  0
 16 17  1  0
 17 13  1  0
 17 18  1  6
 19 18  2  0
 20 18  1  0
 21 28  1  0
 21 20  1  0
 21 22  1  1
 23 22  1  0
 24 23  2  0
 25 24  1  0
 26 25  1  0
 26 27  2  0
 27 23  1  0
 28 30  1  0
 29 28  2  0
M  END
$$$$
