YPH.pdb
     RDKit          3D

 30 32  0  0  1  0  0  0  0  0999 V2000
   28.9962  -19.2451   -4.6945 O   0  0  0  0  0  0  0  0  0  0  0  0
   28.4663  -19.7062   -5.9164 C   0  0  0  0  0  0  0  0  0  0  0  0
   27.1074  -19.8467   -6.0878 C   0  0  0  0  0  0  0  0  0  0  0  0
   26.5831  -20.2993   -7.2865 C   0  0  0  0  0  0  0  0  0  0  0  0
   27.3834  -20.6284   -8.3565 C   0  0  0  0  0  0  0  0  0  0  0  0
   26.8878  -21.1033   -9.6388 C   0  0  0  0  0  0  0  0  0  0  0  0
   25.8267  -20.2424  -10.2853 C   0  0  2  0  0  0  0  0  0  0  0  0
   24.6449  -20.2669   -9.4611 N   0  0  0  0  0  0  0  0  0  0  0  0
   25.6364  -20.4456  -11.7104 C   0  0  0  0  0  0  0  0  0  0  0  0
   24.5253  -21.0752  -11.9955 O   0  0  0  0  0  0  0  0  0  0  0  0
   28.7483  -20.4720   -8.1406 C   0  0  0  0  0  0  0  0  0  0  0  0
   29.2945  -20.0265   -6.9655 C   0  0  0  0  0  0  0  0  0  0  0  0
   26.4039  -20.0953  -12.8094 N   0  0  0  0  0  0  0  0  0  0  0  0
   27.3232  -18.8936  -12.7668 C   0  0  0  0  0  0  0  0  0  0  0  0
   28.6193  -19.6504  -13.1208 C   0  0  0  0  0  0  0  0  0  0  0  0
   28.1573  -20.8394  -14.0018 C   0  0  0  0  0  0  0  0  0  0  0  0
   26.6777  -20.4992  -14.1413 C   0  0  1  0  0  0  0  0  0  0  0  0
   25.8532  -21.3669  -14.8982 C   0  0  0  0  0  0  0  0  0  0  0  0
   26.0648  -22.6293  -14.8027 O   0  0  0  0  0  0  0  0  0  0  0  0
   24.8012  -21.0242  -15.7777 N   0  0  0  0  0  0  0  0  0  0  0  0
   23.4724  -21.6213  -15.6763 C   0  0  1  0  0  0  0  0  0  0  0  0
   22.9729  -21.6863  -14.2702 C   0  0  0  0  0  0  0  0  0  0  0  0
   21.6104  -22.2738  -14.1925 C   0  0  0  0  0  0  0  0  0  0  0  0
   20.8379  -22.7458  -15.2367 C   0  0  0  0  0  0  0  0  0  0  0  0
   19.6625  -23.2024  -14.7788 N   0  0  0  0  0  0  0  0  0  0  0  0
   19.6665  -23.0298  -13.4411 C   0  0  0  0  0  0  0  0  0  0  0  0
   20.8423  -22.4698  -13.0915 N   0  0  0  0  0  0  0  0  0  0  0  0
   22.5441  -20.7007  -16.4233 C   0  0  0  0  0  0  0  0  0  0  0  0
   21.9998  -21.1645  -17.4509 O   0  0  0  0  0  0  0  0  0  0  0  0
   22.2881  -19.4111  -16.0207 O   0  0  0  0  0  0  0  0  0  0  0  0
  2  1  1  0
  3  2  2  0
  4  3  1  0
  5  4  2  0
  5 11  1  0
  6  5  1  0
  7  6  1  0
  7  8  1  1
  9 10  2  0
  9  7  1  0
 11 12  2  0
 12  2  1  0
 13  9  1  0
 14 13  1  0
 15 14  1  0
 16 15  1  0
 16 17  1  0
 17 13  1  0
 17 18  1  1
 19 18  2  0
 20 18  1  0
 21 28  1  0
 21 20  1  0
 21 22  1  1
 23 22  1  0
 24 23  2  0
 25 24  1  0
 26 25  1  0
 26 27  2  0
 27 23  1  0
 28 30  1  0
 29 28  2  0
M  END
$$$$
