YPH.pdb
     RDKit          3D

 30 32  0  0  1  0  0  0  0  0999 V2000
    9.0485  -22.3430    0.3572 O   0  0  0  0  0  0  0  0  0  0  0  0
    9.5610  -21.3828    1.2528 C   0  0  0  0  0  0  0  0  0  0  0  0
    9.2384  -21.4228    2.5906 C   0  0  0  0  0  0  0  0  0  0  0  0
    9.7397  -20.4814    3.4733 C   0  0  0  0  0  0  0  0  0  0  0  0
   10.5769  -19.4687    3.0642 C   0  0  0  0  0  0  0  0  0  0  0  0
   11.1364  -18.4572    3.9470 C   0  0  0  0  0  0  0  0  0  0  0  0
   12.4153  -17.8101    3.4665 C   0  0  2  0  0  0  0  0  0  0  0  0
   12.0993  -16.8980    2.3968 N   0  0  0  0  0  0  0  0  0  0  0  0
   13.5321  -18.7126    3.2502 C   0  0  0  0  0  0  0  0  0  0  0  0
   13.5921  -19.1712    2.0260 O   0  0  0  0  0  0  0  0  0  0  0  0
   10.8767  -19.4655    1.7062 C   0  0  0  0  0  0  0  0  0  0  0  0
   10.3951  -20.3838    0.8105 C   0  0  0  0  0  0  0  0  0  0  0  0
   14.5354  -19.1673    4.0904 N   0  0  0  0  0  0  0  0  0  0  0  0
   15.4139  -18.1975    4.8512 C   0  0  0  0  0  0  0  0  0  0  0  0
   15.1020  -18.7441    6.2590 C   0  0  0  0  0  0  0  0  0  0  0  0
   14.7976  -20.2487    6.0428 C   0  0  0  0  0  0  0  0  0  0  0  0
   15.1258  -20.3690    4.5588 C   0  0  1  0  0  0  0  0  0  0  0  0
   14.9737  -21.6304    3.9332 C   0  0  0  0  0  0  0  0  0  0  0  0
   13.7925  -22.1285    3.8682 O   0  0  0  0  0  0  0  0  0  0  0  0
   15.9750  -22.4459    3.3588 N   0  0  0  0  0  0  0  0  0  0  0  0
   15.6834  -23.7615    2.7960 C   0  0  1  0  0  0  0  0  0  0  0  0
   16.4638  -24.0458    1.5546 C   0  0  0  0  0  0  0  0  0  0  0  0
   15.8687  -23.3876    0.3629 C   0  0  0  0  0  0  0  0  0  0  0  0
   16.0772  -22.0933   -0.0741 C   0  0  0  0  0  0  0  0  0  0  0  0
   15.3677  -21.8564   -1.1878 N   0  0  0  0  0  0  0  0  0  0  0  0
   14.6983  -22.9909   -1.4777 C   0  0  0  0  0  0  0  0  0  0  0  0
   15.0029  -23.9116   -0.5407 N   0  0  0  0  0  0  0  0  0  0  0  0
   16.1300  -24.7638    3.8271 C   0  0  0  0  0  0  0  0  0  0  0  0
   16.9239  -24.3525    4.7034 O   0  0  0  0  0  0  0  0  0  0  0  0
   15.7041  -26.0712    3.8309 O   0  0  0  0  0  0  0  0  0  0  0  0
  2  1  1  0
  3  2  2  0
  4  3  1  0
  5  4  2  0
  5 11  1  0
  6  5  1  0
  7  6  1  0
  7  8  1  6
  9 10  2  0
  9  7  1  0
 11 12  2  0
 12  2  1  0
 13  9  1  0
 14 13  1  0
 15 14  1  0
 16 15  1  0
 16 17  1  0
 17 13  1  0
 17 18  1  6
 19 18  2  0
 20 18  1  0
 21 28  1  0
 21 20  1  0
 21 22  1  6
 23 22  1  0
 24 23  2  0
 25 24  1  0
 26 25  1  0
 26 27  2  0
 27 23  1  0
 28 30  1  0
 29 28  2  0
M  END
$$$$
