QVP.pdb
     RDKit          3D

 24 24  0  0  1  0  0  0  0  0999 V2000
   19.9527  -16.6383  -19.0449 N   0  0  0  0  0  0  0  0  0  0  0  0
   21.1770  -16.9296  -18.4120 C   0  0  0  0  0  0  0  0  0  0  0  0
   21.5711  -18.1150  -18.3692 O   0  0  0  0  0  0  0  0  0  0  0  0
   21.9856  -15.8557  -17.8093 C   0  0  0  0  0  0  0  0  0  0  0  0
   21.3511  -14.4976  -17.8298 C   0  0  0  0  0  0  0  0  0  0  0  0
   22.2825  -13.4248  -18.3585 C   0  0  2  0  0  0  0  0  0  0  0  0
   23.4986  -14.0688  -18.8529 N   0  0  0  0  0  0  0  0  0  0  0  0
   22.6806  -12.4731  -17.2987 C   0  0  0  0  0  0  0  0  0  0  0  0
   21.8533  -12.1642  -16.4042 O   0  0  0  0  0  0  0  0  0  0  0  0
   26.4217   -9.8384  -15.3814 C   0  0  0  0  0  0  0  0  0  0  0  0
   25.8209  -11.0091  -16.1269 C   0  0  1  0  0  0  0  0  0  0  0  0
   26.3165  -12.3340  -15.6898 C   0  0  0  0  0  0  0  0  0  0  0  0
   24.2887  -10.8675  -16.1505 C   0  0  2  0  0  0  0  0  0  0  0  0
   23.9463  -11.8640  -17.2025 N   0  0  0  0  0  0  0  0  0  0  0  0
   23.8936   -9.5232  -16.5971 C   0  0  0  0  0  0  0  0  0  0  0  0
   24.3101   -9.1493  -17.7479 O   0  0  0  0  0  0  0  0  0  0  0  0
   23.1035   -8.5887  -15.9109 N   0  0  0  0  0  0  0  0  0  0  0  0
   22.5220   -8.8494  -14.5887 C   0  0  0  0  0  0  0  0  0  0  0  0
   21.1773   -8.1135  -14.7602 C   0  0  0  0  0  0  0  0  0  0  0  0
   21.7058   -6.8029  -15.2986 C   0  0  0  0  0  0  0  0  0  0  0  0
   22.7112   -7.2525  -16.3270 C   0  0  1  0  0  0  0  0  0  0  0  0
   23.8339   -6.2929  -16.2800 C   0  0  0  0  0  0  0  0  0  0  0  0
   23.6546   -5.0815  -16.9359 O   0  0  0  0  0  0  0  0  0  0  0  0
   24.9199   -6.4761  -15.7064 O   0  0  0  0  0  0  0  0  0  0  0  0
  2  1  1  0
  2  3  2  0
  4  2  1  0
  5  4  1  0
  5  6  1  0
  6  7  1  1
  8  6  1  0
  8 14  1  0
  9  8  2  0
 11 10  1  1
 12 11  1  0
 13 14  1  6
 13 11  1  0
 15 13  1  0
 16 15  2  0
 17 15  1  0
 18 17  1  0
 19 18  1  0
 20 19  1  0
 20 21  1  0
 21 22  1  1
 21 17  1  0
 22 23  1  0
 24 22  2  0
M  END
$$$$
