QVP.pdb
     RDKit          3D

 24 24  0  0  1  0  0  0  0  0999 V2000
   24.4474  -18.1498  -14.7488 N   0  0  0  0  0  0  0  0  0  0  0  0
   23.6644  -19.2847  -15.0370 C   0  0  0  0  0  0  0  0  0  0  0  0
   23.2782  -19.4735  -16.2107 O   0  0  0  0  0  0  0  0  0  0  0  0
   23.3048  -20.2394  -13.9741 C   0  0  0  0  0  0  0  0  0  0  0  0
   23.6498  -19.7983  -12.5835 C   0  0  0  0  0  0  0  0  0  0  0  0
   25.0810  -20.1242  -12.2045 C   0  0  2  0  0  0  0  0  0  0  0  0
   25.5946  -21.1191  -13.1449 N   0  0  0  0  0  0  0  0  0  0  0  0
   25.1703  -20.7049  -10.8472 C   0  0  0  0  0  0  0  0  0  0  0  0
   25.2593  -21.9516  -10.7140 O   0  0  0  0  0  0  0  0  0  0  0  0
   25.8828  -19.7470   -6.0436 C   0  0  0  0  0  0  0  0  0  0  0  0
   25.9374  -19.4417   -7.5239 C   0  0  1  0  0  0  0  0  0  0  0  0
   27.2770  -19.0543   -8.0212 C   0  0  0  0  0  0  0  0  0  0  0  0
   25.2623  -20.5824   -8.3058 C   0  0  2  0  0  0  0  0  0  0  0  0
   25.1636  -19.9578   -9.6538 N   0  0  0  0  0  0  0  0  0  0  0  0
   23.9129  -20.8476   -7.7849 C   0  0  0  0  0  0  0  0  0  0  0  0
   23.0072  -19.9854   -8.0566 O   0  0  0  0  0  0  0  0  0  0  0  0
   23.4886  -21.9447   -7.0202 N   0  0  0  0  0  0  0  0  0  0  0  0
   24.3784  -23.0490   -6.6419 C   0  0  0  0  0  0  0  0  0  0  0  0
   23.3775  -24.2184   -6.7404 C   0  0  0  0  0  0  0  0  0  0  0  0
   22.2500  -23.6175   -5.9314 C   0  0  0  0  0  0  0  0  0  0  0  0
   22.1689  -22.2141   -6.4741 C   0  0  1  0  0  0  0  0  0  0  0  0
   21.8361  -21.3311   -5.3370 C   0  0  0  0  0  0  0  0  0  0  0  0
   20.5034  -21.2803   -4.9482 O   0  0  0  0  0  0  0  0  0  0  0  0
   22.6431  -20.6331   -4.7015 O   0  0  0  0  0  0  0  0  0  0  0  0
  2  1  1  0
  2  3  2  0
  4  2  1  0
  5  4  1  0
  5  6  1  0
  6  7  1  6
  8  6  1  0
  8 14  1  0
  9  8  2  0
 11 10  1  1
 12 11  1  0
 13 14  1  6
 13 11  1  0
 15 13  1  0
 16 15  2  0
 17 15  1  0
 18 17  1  0
 19 18  1  0
 20 19  1  0
 20 21  1  0
 21 22  1  1
 21 17  1  0
 22 23  1  0
 24 22  2  0
M  END
$$$$
