QVP.pdb
     RDKit          3D

 24 24  0  0  1  0  0  0  0  0999 V2000
   21.1260  -22.2705  -11.9461 N   0  0  0  0  0  0  0  0  0  0  0  0
   20.8714  -21.1220  -12.7210 C   0  0  0  0  0  0  0  0  0  0  0  0
   19.9531  -21.1529  -13.5683 O   0  0  0  0  0  0  0  0  0  0  0  0
   21.6723  -19.8991  -12.5377 C   0  0  0  0  0  0  0  0  0  0  0  0
   22.6173  -19.9294  -11.3744 C   0  0  0  0  0  0  0  0  0  0  0  0
   24.0662  -20.0595  -11.8010 C   0  0  2  0  0  0  0  0  0  0  0  0
   24.1218  -20.8804  -13.0098 N   0  0  0  0  0  0  0  0  0  0  0  0
   24.8841  -20.7306  -10.7675 C   0  0  0  0  0  0  0  0  0  0  0  0
   24.6079  -21.9099  -10.4317 O   0  0  0  0  0  0  0  0  0  0  0  0
   27.8866  -22.1627  -10.8633 C   0  0  0  0  0  0  0  0  0  0  0  0
   28.0885  -21.0800   -9.8267 C   0  0  1  0  0  0  0  0  0  0  0  0
   28.7299  -19.8494  -10.3422 C   0  0  0  0  0  0  0  0  0  0  0  0
   26.7717  -20.8519   -9.0634 C   0  0  2  0  0  0  0  0  0  0  0  0
   25.9798  -20.1435  -10.1064 N   0  0  0  0  0  0  0  0  0  0  0  0
   26.9810  -19.9605   -7.9126 C   0  0  0  0  0  0  0  0  0  0  0  0
   26.6613  -18.7310   -8.0665 O   0  0  0  0  0  0  0  0  0  0  0  0
   27.4907  -20.2956   -6.6492 N   0  0  0  0  0  0  0  0  0  0  0  0
   27.8908  -21.6596   -6.2833 C   0  0  0  0  0  0  0  0  0  0  0  0
   27.4366  -21.6638   -4.8093 C   0  0  0  0  0  0  0  0  0  0  0  0
   28.0733  -20.3628   -4.3746 C   0  0  0  0  0  0  0  0  0  0  0  0
   27.7174  -19.4304   -5.5035 C   0  0  1  0  0  0  0  0  0  0  0  0
   28.8709  -18.5272   -5.6961 C   0  0  0  0  0  0  0  0  0  0  0  0
   29.0327  -17.5059   -4.7684 O   0  0  0  0  0  0  0  0  0  0  0  0
   29.7049  -18.6028   -6.6130 O   0  0  0  0  0  0  0  0  0  0  0  0
  2  1  1  0
  2  3  2  0
  4  2  1  0
  5  4  1  0
  5  6  1  0
  6  7  1  6
  8  6  1  0
  8 14  1  0
  9  8  2  0
 11 10  1  6
 12 11  1  0
 13 14  1  6
 13 11  1  0
 15 13  1  0
 16 15  2  0
 17 15  1  0
 18 17  1  0
 19 18  1  0
 20 19  1  0
 20 21  1  0
 21 22  1  6
 21 17  1  0
 22 23  1  0
 24 22  2  0
M  END
$$$$
