QVP.pdb
     RDKit          3D

 24 24  0  0  1  0  0  0  0  0999 V2000
   27.2967  -26.7352  -16.3136 N   0  0  0  0  0  0  0  0  0  0  0  0
   26.4147  -26.8388  -17.4070 C   0  0  0  0  0  0  0  0  0  0  0  0
   26.3633  -27.9120  -18.0457 O   0  0  0  0  0  0  0  0  0  0  0  0
   25.5620  -25.7019  -17.7951 C   0  0  0  0  0  0  0  0  0  0  0  0
   25.6154  -24.5248  -16.8682 C   0  0  0  0  0  0  0  0  0  0  0  0
   26.5470  -23.4348  -17.3600 C   0  0  2  0  0  0  0  0  0  0  0  0
   27.7588  -24.0624  -17.8851 N   0  0  0  0  0  0  0  0  0  0  0  0
   26.9531  -22.5257  -16.2663 C   0  0  0  0  0  0  0  0  0  0  0  0
   27.9181  -22.8432  -15.5262 O   0  0  0  0  0  0  0  0  0  0  0  0
   26.4172  -18.0113  -14.3496 C   0  0  0  0  0  0  0  0  0  0  0  0
   26.5288  -19.0400  -15.4526 C   0  0  1  0  0  0  0  0  0  0  0  0
   27.4823  -18.6851  -16.5281 C   0  0  0  0  0  0  0  0  0  0  0  0
   26.7423  -20.4324  -14.8326 C   0  0  2  0  0  0  0  0  0  0  0  0
   26.3320  -21.2965  -15.9735 N   0  0  0  0  0  0  0  0  0  0  0  0
   25.8307  -20.6464  -13.6988 C   0  0  0  0  0  0  0  0  0  0  0  0
   24.5917  -20.8099  -13.9744 O   0  0  0  0  0  0  0  0  0  0  0  0
   26.1550  -20.6979  -12.3347 N   0  0  0  0  0  0  0  0  0  0  0  0
   27.5172  -20.4939  -11.8275 C   0  0  0  0  0  0  0  0  0  0  0  0
   27.5033  -21.5085  -10.6658 C   0  0  0  0  0  0  0  0  0  0  0  0
   26.2012  -21.0917  -10.0195 C   0  0  0  0  0  0  0  0  0  0  0  0
   25.2790  -20.9489  -11.2025 C   0  0  1  0  0  0  0  0  0  0  0  0
   24.3841  -19.8085  -10.9158 C   0  0  0  0  0  0  0  0  0  0  0  0
   23.2583  -20.0698  -10.1450 O   0  0  0  0  0  0  0  0  0  0  0  0
   24.5518  -18.6408  -11.3037 O   0  0  0  0  0  0  0  0  0  0  0  0
  2  1  1  0
  2  3  2  0
  4  2  1  0
  5  4  1  0
  5  6  1  0
  6  7  1  1
  8  6  1  0
  8 14  1  0
  9  8  2  0
 11 10  1  1
 12 11  1  0
 13 14  1  6
 13 11  1  0
 15 13  1  0
 16 15  2  0
 17 15  1  0
 18 17  1  0
 19 18  1  0
 20 19  1  0
 20 21  1  0
 21 22  1  1
 21 17  1  0
 22 23  1  0
 24 22  2  0
M  END
$$$$
