QVP.pdb
     RDKit          3D

 24 24  0  0  1  0  0  0  0  0999 V2000
   19.6709  -21.2013  -13.7662 N   0  0  0  0  0  0  0  0  0  0  0  0
   19.8321  -19.8446  -14.1091 C   0  0  0  0  0  0  0  0  0  0  0  0
   18.9940  -19.3056  -14.8637 O   0  0  0  0  0  0  0  0  0  0  0  0
   20.9695  -19.0674  -13.5869 C   0  0  0  0  0  0  0  0  0  0  0  0
   21.8406  -19.7983  -12.6099 C   0  0  0  0  0  0  0  0  0  0  0  0
   23.1575  -20.2401  -13.2170 C   0  0  2  0  0  0  0  0  0  0  0  0
   22.8840  -21.2681  -14.2201 N   0  0  0  0  0  0  0  0  0  0  0  0
   24.0569  -20.8332  -12.2037 C   0  0  0  0  0  0  0  0  0  0  0  0
   23.6704  -21.8304  -11.5435 O   0  0  0  0  0  0  0  0  0  0  0  0
   28.7265  -21.3787  -10.8370 C   0  0  0  0  0  0  0  0  0  0  0  0
   27.5757  -21.0111  -11.7469 C   0  0  1  0  0  0  0  0  0  0  0  0
   27.5450  -21.7535  -13.0274 C   0  0  0  0  0  0  0  0  0  0  0  0
   26.2611  -21.0461  -10.9474 C   0  0  2  0  0  0  0  0  0  0  0  0
   25.3497  -20.3617  -11.9053 N   0  0  0  0  0  0  0  0  0  0  0  0
   26.3744  -20.2475   -9.7178 C   0  0  0  0  0  0  0  0  0  0  0  0
   26.4780  -18.9797   -9.8578 O   0  0  0  0  0  0  0  0  0  0  0  0
   26.3792  -20.7083   -8.3926 N   0  0  0  0  0  0  0  0  0  0  0  0
   26.2545  -22.1271   -8.0380 C   0  0  0  0  0  0  0  0  0  0  0  0
   25.4100  -21.9883   -6.7548 C   0  0  0  0  0  0  0  0  0  0  0  0
   26.2326  -20.9274   -6.0585 C   0  0  0  0  0  0  0  0  0  0  0  0
   26.4976  -19.9394   -7.1649 C   0  0  1  0  0  0  0  0  0  0  0  0
   27.8628  -19.4143   -6.9556 C   0  0  0  0  0  0  0  0  0  0  0  0
   28.0039  -18.3698   -6.0506 O   0  0  0  0  0  0  0  0  0  0  0  0
   28.8911  -19.8254   -7.5175 O   0  0  0  0  0  0  0  0  0  0  0  0
  2  1  1  0
  2  3  2  0
  4  2  1  0
  5  4  1  0
  5  6  1  0
  6  7  1  6
  8  6  1  0
  8 14  1  0
  9  8  2  0
 11 10  1  1
 12 11  1  0
 13 14  1  6
 13 11  1  0
 15 13  1  0
 16 15  2  0
 17 15  1  0
 18 17  1  0
 19 18  1  0
 20 19  1  0
 20 21  1  0
 21 22  1  1
 21 17  1  0
 22 23  1  0
 24 22  2  0
M  END
$$$$
