QVP.pdb
     RDKit          3D

 24 24  0  0  1  0  0  0  0  0999 V2000
   16.4935  -23.6742   -3.1313 N   0  0  0  0  0  0  0  0  0  0  0  0
   15.5243  -23.7329   -4.1517 C   0  0  0  0  0  0  0  0  0  0  0  0
   15.8234  -24.2638   -5.2431 O   0  0  0  0  0  0  0  0  0  0  0  0
   14.1755  -23.1796   -3.9398 C   0  0  0  0  0  0  0  0  0  0  0  0
   13.9424  -22.5800   -2.5857 C   0  0  0  0  0  0  0  0  0  0  0  0
   13.7508  -23.6278   -1.5071 C   0  0  2  0  0  0  0  0  0  0  0  0
   12.5247  -24.3708   -1.7949 N   0  0  0  0  0  0  0  0  0  0  0  0
   13.5985  -23.0162   -0.1691 C   0  0  0  0  0  0  0  0  0  0  0  0
   12.4477  -22.7492    0.2601 O   0  0  0  0  0  0  0  0  0  0  0  0
   15.6319  -22.7838    4.2390 C   0  0  0  0  0  0  0  0  0  0  0  0
   15.3670  -23.2718    2.8322 C   0  0  1  0  0  0  0  0  0  0  0  0
   14.9177  -24.6798    2.7459 C   0  0  0  0  0  0  0  0  0  0  0  0
   14.4667  -22.2598    2.1016 C   0  0  2  0  0  0  0  0  0  0  0  0
   14.6655  -22.6969    0.6923 N   0  0  0  0  0  0  0  0  0  0  0  0
   14.9746  -20.8900    2.2696 C   0  0  0  0  0  0  0  0  0  0  0  0
   16.1580  -20.6545    1.8433 O   0  0  0  0  0  0  0  0  0  0  0  0
   14.3131  -19.7938    2.8434 N   0  0  0  0  0  0  0  0  0  0  0  0
   12.9052  -19.8350    3.2563 C   0  0  0  0  0  0  0  0  0  0  0  0
   12.4946  -18.3966    2.8800 C   0  0  0  0  0  0  0  0  0  0  0  0
   13.6343  -17.6570    3.5441 C   0  0  0  0  0  0  0  0  0  0  0  0
   14.8354  -18.4689    3.1334 C   0  0  1  0  0  0  0  0  0  0  0  0
   15.7687  -18.4670    4.2791 C   0  0  0  0  0  0  0  0  0  0  0  0
   16.5003  -17.3057    4.4933 O   0  0  0  0  0  0  0  0  0  0  0  0
   15.9542  -19.4114    5.0638 O   0  0  0  0  0  0  0  0  0  0  0  0
  2  1  1  0
  2  3  2  0
  4  2  1  0
  5  4  1  0
  5  6  1  0
  6  7  1  6
  8  6  1  0
  8 14  1  0
  9  8  2  0
 11 10  1  1
 12 11  1  0
 13 14  1  6
 13 11  1  0
 15 13  1  0
 16 15  2  0
 17 15  1  0
 18 17  1  0
 19 18  1  0
 20 19  1  0
 20 21  1  0
 21 22  1  1
 21 17  1  0
 22 23  1  0
 24 22  2  0
M  END
$$$$
