QVP.pdb
     RDKit          3D

 24 24  0  0  1  0  0  0  0  0999 V2000
   16.8437  -16.2980  -13.9953 N   0  0  0  0  0  0  0  0  0  0  0  0
   15.8784  -15.7176  -14.8412 C   0  0  0  0  0  0  0  0  0  0  0  0
   14.7048  -15.5954  -14.4288 O   0  0  0  0  0  0  0  0  0  0  0  0
   16.2425  -15.2580  -16.1928 C   0  0  0  0  0  0  0  0  0  0  0  0
   17.7149  -15.2107  -16.4704 C   0  0  0  0  0  0  0  0  0  0  0  0
   18.0380  -14.5709  -17.8062 C   0  0  2  0  0  0  0  0  0  0  0  0
   18.2784  -15.6323  -18.7828 N   0  0  0  0  0  0  0  0  0  0  0  0
   19.2617  -13.7432  -17.7361 C   0  0  0  0  0  0  0  0  0  0  0  0
   20.3866  -14.2949  -17.8374 O   0  0  0  0  0  0  0  0  0  0  0  0
   20.7237  -11.4572  -19.8854 C   0  0  0  0  0  0  0  0  0  0  0  0
   20.4375  -10.6480  -18.6402 C   0  0  1  0  0  0  0  0  0  0  0  0
   19.2097   -9.8240  -18.7130 C   0  0  0  0  0  0  0  0  0  0  0  0
   20.5310  -11.5612  -17.4050 C   0  0  2  0  0  0  0  0  0  0  0  0
   19.2755  -12.3464  -17.5599 N   0  0  0  0  0  0  0  0  0  0  0  0
   20.4702  -10.7730  -16.1649 C   0  0  0  0  0  0  0  0  0  0  0  0
   19.3138  -10.3758  -15.7871 O   0  0  0  0  0  0  0  0  0  0  0  0
   21.5357  -10.4005  -15.3317 N   0  0  0  0  0  0  0  0  0  0  0  0
   22.9331  -10.7488  -15.6151 C   0  0  0  0  0  0  0  0  0  0  0  0
   23.4241  -10.9952  -14.1738 C   0  0  0  0  0  0  0  0  0  0  0  0
   22.8948   -9.7297  -13.5371 C   0  0  0  0  0  0  0  0  0  0  0  0
   21.4961   -9.6442  -14.0912 C   0  0  1  0  0  0  0  0  0  0  0  0
   21.2068   -8.2119  -14.3109 C   0  0  0  0  0  0  0  0  0  0  0  0
   20.8109   -7.4724  -13.2035 O   0  0  0  0  0  0  0  0  0  0  0  0
   21.2869   -7.6149  -15.3969 O   0  0  0  0  0  0  0  0  0  0  0  0
  2  1  1  0
  2  3  2  0
  4  2  1  0
  5  4  1  0
  5  6  1  0
  6  7  1  6
  8  6  1  0
  8 14  1  0
  9  8  2  0
 11 10  1  6
 12 11  1  0
 13 14  1  1
 13 11  1  0
 15 13  1  0
 16 15  2  0
 17 15  1  0
 18 17  1  0
 19 18  1  0
 20 19  1  0
 20 21  1  0
 21 22  1  6
 21 17  1  0
 22 23  1  0
 24 22  2  0
M  END
$$$$
