QVP.pdb
     RDKit          3D

 24 24  0  0  1  0  0  0  0  0999 V2000
   20.0115  -17.7546  -17.0509 N   0  0  0  0  0  0  0  0  0  0  0  0
   19.8195  -19.1328  -17.2704 C   0  0  0  0  0  0  0  0  0  0  0  0
   19.1730  -19.5033  -18.2739 O   0  0  0  0  0  0  0  0  0  0  0  0
   20.3724  -20.1270  -16.3343 C   0  0  0  0  0  0  0  0  0  0  0  0
   21.6572  -20.7633  -16.7722 C   0  0  0  0  0  0  0  0  0  0  0  0
   22.7245  -19.7453  -17.1224 C   0  0  2  0  0  0  0  0  0  0  0  0
   23.0317  -19.8667  -18.5468 N   0  0  0  0  0  0  0  0  0  0  0  0
   23.9773  -19.9844  -16.3735 C   0  0  0  0  0  0  0  0  0  0  0  0
   24.6359  -21.0325  -16.5912 O   0  0  0  0  0  0  0  0  0  0  0  0
   26.9017  -17.7356  -16.0492 C   0  0  0  0  0  0  0  0  0  0  0  0
   26.4313  -18.0441  -14.6453 C   0  0  1  0  0  0  0  0  0  0  0  0
   25.6604  -16.9552  -14.0036 C   0  0  0  0  0  0  0  0  0  0  0  0
   25.7431  -19.4205  -14.6282 C   0  0  2  0  0  0  0  0  0  0  0  0
   24.5124  -19.1114  -15.4070 N   0  0  0  0  0  0  0  0  0  0  0  0
   25.3757  -19.8056  -13.2573 C   0  0  0  0  0  0  0  0  0  0  0  0
   24.2418  -19.3989  -12.8255 O   0  0  0  0  0  0  0  0  0  0  0  0
   26.1219  -20.5766  -12.3534 N   0  0  0  0  0  0  0  0  0  0  0  0
   27.4141  -21.1831  -12.6950 C   0  0  0  0  0  0  0  0  0  0  0  0
   27.2841  -22.5030  -11.9075 C   0  0  0  0  0  0  0  0  0  0  0  0
   26.8522  -21.9287  -10.5768 C   0  0  0  0  0  0  0  0  0  0  0  0
   25.8039  -20.9236  -10.9783 C   0  0  1  0  0  0  0  0  0  0  0  0
   25.9356  -19.7736  -10.0597 C   0  0  0  0  0  0  0  0  0  0  0  0
   25.2710  -19.8604   -8.8429 O   0  0  0  0  0  0  0  0  0  0  0  0
   26.5872  -18.7401  -10.2817 O   0  0  0  0  0  0  0  0  0  0  0  0
  2  1  1  0
  2  3  2  0
  4  2  1  0
  5  4  1  0
  5  6  1  0
  6  7  1  6
  8  6  1  0
  8 14  1  0
  9  8  2  0
 11 10  1  6
 12 11  1  0
 13 14  1  6
 13 11  1  0
 15 13  1  0
 16 15  2  0
 17 15  1  0
 18 17  1  0
 19 18  1  0
 20 19  1  0
 20 21  1  0
 21 22  1  1
 21 17  1  0
 22 23  1  0
 24 22  2  0
M  END
$$$$
