QVP.pdb
     RDKit          3D

 24 24  0  0  1  0  0  0  0  0999 V2000
   30.2546  -21.0694  -14.0053 N   0  0  0  0  0  0  0  0  0  0  0  0
   30.3717  -19.7114  -13.6495 C   0  0  0  0  0  0  0  0  0  0  0  0
   31.4958  -19.1668  -13.6952 O   0  0  0  0  0  0  0  0  0  0  0  0
   29.1888  -18.9396  -13.2306 C   0  0  0  0  0  0  0  0  0  0  0  0
   27.8846  -19.6709  -13.3388 C   0  0  0  0  0  0  0  0  0  0  0  0
   27.4852  -20.3494  -12.0434 C   0  0  2  0  0  0  0  0  0  0  0  0
   28.3567  -21.5053  -11.8374 N   0  0  0  0  0  0  0  0  0  0  0  0
   26.0919  -20.8435  -12.0899 C   0  0  0  0  0  0  0  0  0  0  0  0
   25.8418  -21.9311  -12.6681 O   0  0  0  0  0  0  0  0  0  0  0  0
   21.5492  -20.4110  -10.2030 C   0  0  0  0  0  0  0  0  0  0  0  0
   23.0439  -20.1854  -10.2488 C   0  0  1  0  0  0  0  0  0  0  0  0
   23.7704  -20.6430   -9.0428 C   0  0  0  0  0  0  0  0  0  0  0  0
   23.6005  -20.7196  -11.5805 C   0  0  2  0  0  0  0  0  0  0  0  0
   24.9867  -20.1791  -11.5246 N   0  0  0  0  0  0  0  0  0  0  0  0
   22.8861  -20.1281  -12.7218 C   0  0  0  0  0  0  0  0  0  0  0  0
   22.9478  -18.8561  -12.8478 O   0  0  0  0  0  0  0  0  0  0  0  0
   22.1384  -20.7940  -13.7046 N   0  0  0  0  0  0  0  0  0  0  0  0
   22.0192  -22.2557  -13.7664 C   0  0  0  0  0  0  0  0  0  0  0  0
   22.0125  -22.4390  -15.2979 C   0  0  0  0  0  0  0  0  0  0  0  0
   20.9615  -21.4077  -15.6427 C   0  0  0  0  0  0  0  0  0  0  0  0
   21.3731  -20.2266  -14.8022 C   0  0  1  0  0  0  0  0  0  0  0  0
   20.1310  -19.5693  -14.3455 C   0  0  0  0  0  0  0  0  0  0  0  0
   19.5001  -18.7204  -15.2462 O   0  0  0  0  0  0  0  0  0  0  0  0
   19.6050  -19.7103  -13.2295 O   0  0  0  0  0  0  0  0  0  0  0  0
  2  1  1  0
  2  3  2  0
  4  2  1  0
  5  4  1  0
  5  6  1  0
  6  7  1  6
  8  6  1  0
  8 14  1  0
  9  8  2  0
 11 10  1  1
 12 11  1  0
 13 14  1  6
 13 11  1  0
 15 13  1  0
 16 15  2  0
 17 15  1  0
 18 17  1  0
 19 18  1  0
 20 19  1  0
 20 21  1  0
 21 22  1  1
 21 17  1  0
 22 23  1  0
 24 22  2  0
M  END
$$$$
