QVP.pdb
     RDKit          3D

 24 24  0  0  1  0  0  0  0  0999 V2000
   21.6552  -22.2509  -15.0036 N   0  0  0  0  0  0  0  0  0  0  0  0
   20.3660  -22.4623  -14.4769 C   0  0  0  0  0  0  0  0  0  0  0  0
   19.6886  -23.4248  -14.8979 O   0  0  0  0  0  0  0  0  0  0  0  0
   19.8202  -21.5657  -13.4431 C   0  0  0  0  0  0  0  0  0  0  0  0
   20.7471  -20.4752  -12.9970 C   0  0  0  0  0  0  0  0  0  0  0  0
   21.8006  -20.9649  -12.0231 C   0  0  2  0  0  0  0  0  0  0  0  0
   21.3699  -20.6294  -10.6666 N   0  0  0  0  0  0  0  0  0  0  0  0
   23.1063  -20.3091  -12.2520 C   0  0  0  0  0  0  0  0  0  0  0  0
   23.2720  -19.1188  -11.8840 O   0  0  0  0  0  0  0  0  0  0  0  0
   27.8856  -21.0896  -12.8605 C   0  0  0  0  0  0  0  0  0  0  0  0
   26.4570  -21.3726  -12.4526 C   0  0  1  0  0  0  0  0  0  0  0  0
   26.2793  -21.6816  -11.0157 C   0  0  0  0  0  0  0  0  0  0  0  0
   25.5416  -20.2596  -12.9927 C   0  0  2  0  0  0  0  0  0  0  0  0
   24.2146  -20.9228  -12.8663 N   0  0  0  0  0  0  0  0  0  0  0  0
   25.8254  -19.9897  -14.4102 C   0  0  0  0  0  0  0  0  0  0  0  0
   25.4672  -20.8835  -15.2531 O   0  0  0  0  0  0  0  0  0  0  0  0
   26.4448  -18.8577  -14.9610 N   0  0  0  0  0  0  0  0  0  0  0  0
   27.0227  -17.7842  -14.1438 C   0  0  0  0  0  0  0  0  0  0  0  0
   26.6604  -16.5754  -15.0308 C   0  0  0  0  0  0  0  0  0  0  0  0
   27.1649  -17.1082  -16.3532 C   0  0  0  0  0  0  0  0  0  0  0  0
   26.6360  -18.5191  -16.3614 C   0  0  1  0  0  0  0  0  0  0  0  0
   27.6624  -19.3601  -17.0117 C   0  0  0  0  0  0  0  0  0  0  0  0
   28.4704  -20.1241  -16.1791 O   0  0  0  0  0  0  0  0  0  0  0  0
   27.8637  -19.4418  -18.2344 O   0  0  0  0  0  0  0  0  0  0  0  0
  2  1  1  0
  2  3  2  0
  4  2  1  0
  5  4  1  0
  5  6  1  0
  6  7  1  1
  8  6  1  0
  8 14  1  0
  9  8  2  0
 11 10  1  1
 12 11  1  0
 13 14  1  6
 13 11  1  0
 15 13  1  0
 16 15  2  0
 17 15  1  0
 18 17  1  0
 19 18  1  0
 20 19  1  0
 20 21  1  0
 21 22  1  1
 21 17  1  0
 22 23  1  0
 24 22  2  0
M  END
$$$$
