QVP.pdb
     RDKit          3D

 24 24  0  0  1  0  0  0  0  0999 V2000
   19.7026  -18.4758  -13.8034 N   0  0  0  0  0  0  0  0  0  0  0  0
   20.3447  -18.7894  -15.0173 C   0  0  0  0  0  0  0  0  0  0  0  0
   20.0722  -18.1217  -16.0382 O   0  0  0  0  0  0  0  0  0  0  0  0
   21.3254  -19.8866  -15.0872 C   0  0  0  0  0  0  0  0  0  0  0  0
   21.5919  -20.5817  -13.7859 C   0  0  0  0  0  0  0  0  0  0  0  0
   22.8220  -20.0479  -13.0788 C   0  0  2  0  0  0  0  0  0  0  0  0
   23.9774  -20.2318  -13.9558 N   0  0  0  0  0  0  0  0  0  0  0  0
   23.0937  -20.7802  -11.8229 C   0  0  0  0  0  0  0  0  0  0  0  0
   23.4661  -21.9795  -11.8760 O   0  0  0  0  0  0  0  0  0  0  0  0
   23.7703  -20.6042   -6.9496 C   0  0  0  0  0  0  0  0  0  0  0  0
   23.7860  -20.0671   -8.3633 C   0  0  1  0  0  0  0  0  0  0  0  0
   25.1196  -19.6372   -8.8414 C   0  0  0  0  0  0  0  0  0  0  0  0
   23.0527  -21.0514   -9.2917 C   0  0  2  0  0  0  0  0  0  0  0  0
   22.9668  -20.2323  -10.5321 N   0  0  0  0  0  0  0  0  0  0  0  0
   21.6986  -21.3332   -8.7919 C   0  0  0  0  0  0  0  0  0  0  0  0
   20.8399  -20.3886   -8.8810 O   0  0  0  0  0  0  0  0  0  0  0  0
   21.2239  -22.5258   -8.2254 N   0  0  0  0  0  0  0  0  0  0  0  0
   22.0505  -23.7307   -8.0867 C   0  0  0  0  0  0  0  0  0  0  0  0
   20.9749  -24.8017   -8.3611 C   0  0  0  0  0  0  0  0  0  0  0  0
   19.9080  -24.2954   -7.4164 C   0  0  0  0  0  0  0  0  0  0  0  0
   19.9034  -22.8138   -7.6910 C   0  0  1  0  0  0  0  0  0  0  0  0
   19.6554  -22.1375   -6.4008 C   0  0  0  0  0  0  0  0  0  0  0  0
   18.3398  -22.0907   -5.9571 O   0  0  0  0  0  0  0  0  0  0  0  0
   20.5193  -21.6092   -5.6820 O   0  0  0  0  0  0  0  0  0  0  0  0
  2  1  1  0
  2  3  2  0
  4  2  1  0
  5  4  1  0
  5  6  1  0
  6  7  1  6
  8  6  1  0
  8 14  1  0
  9  8  2  0
 11 10  1  1
 12 11  1  0
 13 14  1  6
 13 11  1  0
 15 13  1  0
 16 15  2  0
 17 15  1  0
 18 17  1  0
 19 18  1  0
 20 19  1  0
 20 21  1  0
 21 22  1  1
 21 17  1  0
 22 23  1  0
 24 22  2  0
M  END
$$$$
