QVP.pdb
     RDKit          3D

 24 24  0  0  1  0  0  0  0  0999 V2000
   22.2054  -19.6861   -9.8305 N   0  0  0  0  0  0  0  0  0  0  0  0
   22.8901  -20.1601  -10.9666 C   0  0  0  0  0  0  0  0  0  0  0  0
   22.9316  -19.4464  -11.9919 O   0  0  0  0  0  0  0  0  0  0  0  0
   23.5509  -21.4767  -10.9507 C   0  0  0  0  0  0  0  0  0  0  0  0
   24.7398  -21.5777  -10.0431 C   0  0  0  0  0  0  0  0  0  0  0  0
   25.7984  -20.5361  -10.3476 C   0  0  2  0  0  0  0  0  0  0  0  0
   26.3853  -20.8390  -11.6521 N   0  0  0  0  0  0  0  0  0  0  0  0
   26.8909  -20.5568   -9.3509 C   0  0  0  0  0  0  0  0  0  0  0  0
   27.8219  -21.3923   -9.4729 O   0  0  0  0  0  0  0  0  0  0  0  0
   27.3837  -17.6020   -6.1390 C   0  0  0  0  0  0  0  0  0  0  0  0
   28.3112  -18.0758   -7.2356 C   0  0  1  0  0  0  0  0  0  0  0  0
   29.6976  -17.5677   -7.1283 C   0  0  0  0  0  0  0  0  0  0  0  0
   28.1918  -19.6033   -7.3810 C   0  0  2  0  0  0  0  0  0  0  0  0
   26.9804  -19.6939   -8.2419 N   0  0  0  0  0  0  0  0  0  0  0  0
   27.9210  -20.2337   -6.0803 C   0  0  0  0  0  0  0  0  0  0  0  0
   26.6928  -20.3977   -5.7605 O   0  0  0  0  0  0  0  0  0  0  0  0
   28.8539  -20.6871   -5.1356 N   0  0  0  0  0  0  0  0  0  0  0  0
   30.3023  -20.6796   -5.3734 C   0  0  0  0  0  0  0  0  0  0  0  0
   30.6796  -21.9858   -4.6450 C   0  0  0  0  0  0  0  0  0  0  0  0
   29.9525  -21.7347   -3.3430 C   0  0  0  0  0  0  0  0  0  0  0  0
   28.6118  -21.2283   -3.8086 C   0  0  1  0  0  0  0  0  0  0  0  0
   28.1840  -20.1931   -2.8448 C   0  0  0  0  0  0  0  0  0  0  0  0
   27.5892  -20.6343   -1.6695 O   0  0  0  0  0  0  0  0  0  0  0  0
   28.3103  -18.9669   -2.9952 O   0  0  0  0  0  0  0  0  0  0  0  0
  2  1  1  0
  2  3  2  0
  4  2  1  0
  5  4  1  0
  5  6  1  0
  6  7  1  6
  8  6  1  0
  8 14  1  0
  9  8  2  0
 11 10  1  1
 12 11  1  0
 13 14  1  6
 13 11  1  0
 15 13  1  0
 16 15  2  0
 17 15  1  0
 18 17  1  0
 19 18  1  0
 20 19  1  0
 20 21  1  0
 21 22  1  1
 21 17  1  0
 22 23  1  0
 24 22  2  0
M  END
$$$$
