QVP.pdb
     RDKit          3D

 24 24  0  0  1  0  0  0  0  0999 V2000
   14.4487  -13.9804  -14.5494 N   0  0  0  0  0  0  0  0  0  0  0  0
   15.0497  -14.8422  -15.4876 C   0  0  0  0  0  0  0  0  0  0  0  0
   15.0132  -16.0757  -15.2892 O   0  0  0  0  0  0  0  0  0  0  0  0
   15.7115  -14.3022  -16.6880 C   0  0  0  0  0  0  0  0  0  0  0  0
   16.8163  -13.3257  -16.4169 C   0  0  0  0  0  0  0  0  0  0  0  0
   18.0023  -13.5125  -17.3424 C   0  0  2  0  0  0  0  0  0  0  0  0
   18.4868  -14.8852  -17.2040 N   0  0  0  0  0  0  0  0  0  0  0  0
   19.1187  -12.6076  -16.9927 C   0  0  0  0  0  0  0  0  0  0  0  0
   20.0485  -13.0294  -16.2596 O   0  0  0  0  0  0  0  0  0  0  0  0
   21.3876  -11.3254  -19.3165 C   0  0  0  0  0  0  0  0  0  0  0  0
   20.8304  -10.0957  -18.6347 C   0  0  1  0  0  0  0  0  0  0  0  0
   19.7791   -9.3917  -19.4035 C   0  0  0  0  0  0  0  0  0  0  0  0
   20.4476  -10.4446  -17.1855 C   0  0  2  0  0  0  0  0  0  0  0  0
   19.2331  -11.2721  -17.4237 N   0  0  0  0  0  0  0  0  0  0  0  0
   20.0806   -9.2344  -16.4348 C   0  0  0  0  0  0  0  0  0  0  0  0
   18.9323   -8.7259  -16.6810 O   0  0  0  0  0  0  0  0  0  0  0  0
   20.8412   -8.5613  -15.4669 N   0  0  0  0  0  0  0  0  0  0  0  0
   22.1692   -9.0137  -15.0355 C   0  0  0  0  0  0  0  0  0  0  0  0
   22.0842   -8.6413  -13.5411 C   0  0  0  0  0  0  0  0  0  0  0  0
   21.5930   -7.2190  -13.6919 C   0  0  0  0  0  0  0  0  0  0  0  0
   20.5072   -7.3553  -14.7278 C   0  0  1  0  0  0  0  0  0  0  0  0
   20.5608   -6.1424  -15.5701 C   0  0  0  0  0  0  0  0  0  0  0  0
   20.0159   -4.9810  -15.0370 O   0  0  0  0  0  0  0  0  0  0  0  0
   21.0496   -6.0728  -16.7095 O   0  0  0  0  0  0  0  0  0  0  0  0
  2  1  1  0
  2  3  2  0
  4  2  1  0
  5  4  1  0
  5  6  1  0
  6  7  1  1
  8  6  1  0
  8 14  1  0
  9  8  2  0
 11 10  1  6
 12 11  1  0
 13 14  1  6
 13 11  1  0
 15 13  1  0
 16 15  2  0
 17 15  1  0
 18 17  1  0
 19 18  1  0
 20 19  1  0
 20 21  1  0
 21 22  1  6
 21 17  1  0
 22 23  1  0
 24 22  2  0
M  END
$$$$
