QVP.pdb
     RDKit          3D

 24 24  0  0  1  0  0  0  0  0999 V2000
   20.5722  -21.4559  -11.5445 N   0  0  0  0  0  0  0  0  0  0  0  0
   21.3033  -20.4108  -12.1423 C   0  0  0  0  0  0  0  0  0  0  0  0
   21.2370  -20.2547  -13.3807 O   0  0  0  0  0  0  0  0  0  0  0  0
   22.1341  -19.5108  -11.3237 C   0  0  0  0  0  0  0  0  0  0  0  0
   23.0658  -20.1995  -10.3724 C   0  0  0  0  0  0  0  0  0  0  0  0
   24.4507  -20.4033  -10.9545 C   0  0  2  0  0  0  0  0  0  0  0  0
   24.3661  -21.4109  -12.0107 N   0  0  0  0  0  0  0  0  0  0  0  0
   25.4047  -20.8996   -9.9392 C   0  0  0  0  0  0  0  0  0  0  0  0
   25.1457  -21.9593   -9.3149 O   0  0  0  0  0  0  0  0  0  0  0  0
   30.0501  -21.0283   -8.5191 C   0  0  0  0  0  0  0  0  0  0  0  0
   28.8626  -20.8411   -9.4367 C   0  0  1  0  0  0  0  0  0  0  0  0
   28.8380  -21.7540  -10.6020 C   0  0  0  0  0  0  0  0  0  0  0  0
   27.5698  -20.8234   -8.6019 C   0  0  2  0  0  0  0  0  0  0  0  0
   26.6164  -20.2672   -9.6011 N   0  0  0  0  0  0  0  0  0  0  0  0
   27.6918  -19.8961   -7.4670 C   0  0  0  0  0  0  0  0  0  0  0  0
   27.5857  -18.6472   -7.7253 O   0  0  0  0  0  0  0  0  0  0  0  0
   27.9093  -20.2147   -6.1180 N   0  0  0  0  0  0  0  0  0  0  0  0
   28.0121  -21.5944   -5.6279 C   0  0  0  0  0  0  0  0  0  0  0  0
   27.3102  -21.4259   -4.2648 C   0  0  0  0  0  0  0  0  0  0  0  0
   28.0623  -20.2091   -3.7741 C   0  0  0  0  0  0  0  0  0  0  0  0
   28.0671  -19.3154   -4.9873 C   0  0  1  0  0  0  0  0  0  0  0  0
   29.3673  -18.6134   -4.9999 C   0  0  0  0  0  0  0  0  0  0  0  0
   29.5207  -17.5560   -4.1120 O   0  0  0  0  0  0  0  0  0  0  0  0
   30.3311  -18.8868   -5.7337 O   0  0  0  0  0  0  0  0  0  0  0  0
  2  1  1  0
  2  3  2  0
  4  2  1  0
  5  4  1  0
  5  6  1  0
  6  7  1  6
  8  6  1  0
  8 14  1  0
  9  8  2  0
 11 10  1  1
 12 11  1  0
 13 14  1  6
 13 11  1  0
 15 13  1  0
 16 15  2  0
 17 15  1  0
 18 17  1  0
 19 18  1  0
 20 19  1  0
 20 21  1  0
 21 22  1  6
 21 17  1  0
 22 23  1  0
 24 22  2  0
M  END
$$$$
