SSD.pdb
     RDKit          3D

 21 20  0  0  1  0  0  0  0  0999 V2000
    9.3488  -20.1440   18.9322 O   0  0  0  0  0  0  0  0  0  0  0  0
   10.0610  -19.1562   19.5866 C   0  0  0  0  0  0  0  0  0  0  0  0
    9.4426  -17.7707   19.4319 C   0  0  2  0  0  0  0  0  0  0  0  0
    9.5998  -17.3623   18.0372 N   0  0  0  0  0  0  0  0  0  0  0  0
   10.1593  -16.8252   20.3208 C   0  0  0  0  0  0  0  0  0  0  0  0
   11.1648  -16.1952   19.8629 O   0  0  0  0  0  0  0  0  0  0  0  0
    9.1073  -16.4819   24.4017 O   0  0  0  0  0  0  0  0  0  0  0  0
    9.5057  -15.3536   23.6771 C   0  0  0  0  0  0  0  0  0  0  0  0
   10.4172  -15.7813   22.5861 C   0  0  2  0  0  0  0  0  0  0  0  0
    9.7224  -16.6363   21.6500 N   0  0  0  0  0  0  0  0  0  0  0  0
   11.6505  -16.4445   23.0267 C   0  0  0  0  0  0  0  0  0  0  0  0
   11.6813  -17.6974   23.0661 O   0  0  0  0  0  0  0  0  0  0  0  0
   12.8244  -15.7120   23.4149 N   0  0  0  0  0  0  0  0  0  0  0  0
   13.9658  -16.4510   23.8908 C   0  0  1  0  0  0  0  0  0  0  0  0
   15.1991  -15.5785   23.8287 C   0  0  0  0  0  0  0  0  0  0  0  0
   16.4351  -16.3157   24.1707 C   0  0  0  0  0  0  0  0  0  0  0  0
   16.6895  -17.3496   23.5026 O   0  0  0  0  0  0  0  0  0  0  0  0
   13.7490  -16.9957   25.2568 C   0  0  0  0  0  0  0  0  0  0  0  0
   12.9665  -16.4671   26.0850 O   0  0  0  0  0  0  0  0  0  0  0  0
   17.3232  -15.9519   25.1645 O   0  0  0  0  0  0  0  0  0  0  0  0
   14.4347  -18.1364   25.6449 O   0  0  0  0  0  0  0  0  0  0  0  0
  1  2  1  0
  2  3  1  0
  3  5  1  0
  3  4  1  6
  5  6  2  0
  7  8  1  0
  9  8  1  1
 10  9  1  0
 10  5  1  0
 11 13  1  0
 11  9  1  0
 12 11  2  0
 14 13  1  0
 14 15  1  1
 15 16  1  0
 16 20  1  0
 17 16  2  0
 18 14  1  0
 19 18  2  0
 21 18  1  0
M  END
$$$$
