SSD.pdb
     RDKit          3D

 21 20  0  0  1  0  0  0  0  0999 V2000
    9.0407  -15.5384   18.2490 O   0  0  0  0  0  0  0  0  0  0  0  0
    7.7504  -15.1292   18.5300 C   0  0  0  0  0  0  0  0  0  0  0  0
    7.6881  -13.7498   19.1777 C   0  0  2  0  0  0  0  0  0  0  0  0
    8.3822  -12.8099   18.2995 N   0  0  0  0  0  0  0  0  0  0  0  0
    8.3665  -13.8088   20.4946 C   0  0  0  0  0  0  0  0  0  0  0  0
    9.5551  -13.3667   20.5925 O   0  0  0  0  0  0  0  0  0  0  0  0
    6.6226  -13.7065   24.2618 O   0  0  0  0  0  0  0  0  0  0  0  0
    7.3321  -14.8673   23.9363 C   0  0  0  0  0  0  0  0  0  0  0  0
    8.3361  -14.5393   22.8931 C   0  0  2  0  0  0  0  0  0  0  0  0
    7.6935  -14.3480   21.6124 N   0  0  0  0  0  0  0  0  0  0  0  0
    9.4271  -15.5108   22.7491 C   0  0  0  0  0  0  0  0  0  0  0  0
    9.2262  -16.5485   22.0744 O   0  0  0  0  0  0  0  0  0  0  0  0
   10.7172  -15.3178   23.3520 N   0  0  0  0  0  0  0  0  0  0  0  0
   11.6944  -16.3692   23.2289 C   0  0  1  0  0  0  0  0  0  0  0  0
   13.0822  -15.7714   23.1819 C   0  0  0  0  0  0  0  0  0  0  0  0
   14.1403  -16.7985   23.0654 C   0  0  0  0  0  0  0  0  0  0  0  0
   14.5224  -17.3512   24.1279 O   0  0  0  0  0  0  0  0  0  0  0  0
   11.5694  -17.3779   24.3137 C   0  0  0  0  0  0  0  0  0  0  0  0
   12.2300  -18.4460   24.3305 O   0  0  0  0  0  0  0  0  0  0  0  0
   14.7342  -17.1911   21.8814 O   0  0  0  0  0  0  0  0  0  0  0  0
   10.6884  -17.1404   25.3575 O   0  0  0  0  0  0  0  0  0  0  0  0
  1  2  1  0
  2  3  1  0
  3  5  1  0
  3  4  1  6
  5  6  2  0
  7  8  1  0
  9  8  1  1
 10  9  1  0
 10  5  1  0
 11 13  1  0
 11  9  1  0
 12 11  2  0
 14 13  1  0
 14 15  1  1
 15 16  1  0
 16 20  1  0
 17 16  2  0
 18 14  1  0
 19 18  2  0
 21 18  1  0
M  END
$$$$
