SSD.pdb
     RDKit          3D

 21 20  0  0  1  0  0  0  0  0999 V2000
    9.2143  -15.7984   17.9644 O   0  0  0  0  0  0  0  0  0  0  0  0
    7.8911  -15.4678   18.1902 C   0  0  0  0  0  0  0  0  0  0  0  0
    7.7156  -14.0734   18.7825 C   0  0  2  0  0  0  0  0  0  0  0  0
    8.2180  -13.1058   17.8088 N   0  0  0  0  0  0  0  0  0  0  0  0
    8.5005  -13.9845   20.0370 C   0  0  0  0  0  0  0  0  0  0  0  0
    9.6503  -13.4415   20.0039 O   0  0  0  0  0  0  0  0  0  0  0  0
    6.7223  -15.0625   23.6353 O   0  0  0  0  0  0  0  0  0  0  0  0
    7.7278  -14.0906   23.6023 C   0  0  0  0  0  0  0  0  0  0  0  0
    8.6706  -14.4129   22.5018 C   0  0  2  0  0  0  0  0  0  0  0  0
    7.9691  -14.4967   21.2405 N   0  0  0  0  0  0  0  0  0  0  0  0
    9.4657  -15.6314   22.6973 C   0  0  0  0  0  0  0  0  0  0  0  0
    9.0810  -16.6962   22.1584 O   0  0  0  0  0  0  0  0  0  0  0  0
   10.6686  -15.6502   23.4833 N   0  0  0  0  0  0  0  0  0  0  0  0
   11.2765  -16.9237   23.7736 C   0  0  1  0  0  0  0  0  0  0  0  0
   12.7766  -16.7617   23.8696 C   0  0  0  0  0  0  0  0  0  0  0  0
   13.3707  -16.2198   22.6280 C   0  0  0  0  0  0  0  0  0  0  0  0
   14.3237  -15.4098   22.7544 O   0  0  0  0  0  0  0  0  0  0  0  0
   10.7134  -17.5447   25.0012 C   0  0  0  0  0  0  0  0  0  0  0  0
    9.8701  -16.9677   25.7316 O   0  0  0  0  0  0  0  0  0  0  0  0
   12.9563  -16.5377   21.3490 O   0  0  0  0  0  0  0  0  0  0  0  0
   11.1297  -18.8158   25.3660 O   0  0  0  0  0  0  0  0  0  0  0  0
  1  2  1  0
  2  3  1  0
  3  5  1  0
  3  4  1  6
  5  6  2  0
  7  8  1  0
  9  8  1  1
 10  9  1  0
 10  5  1  0
 11 13  1  0
 11  9  1  0
 12 11  2  0
 14 13  1  0
 14 15  1  1
 15 16  1  0
 16 20  1  0
 17 16  2  0
 18 14  1  0
 19 18  2  0
 21 18  1  0
M  END
$$$$
