SSD.pdb
     RDKit          3D

 21 20  0  0  1  0  0  0  0  0999 V2000
    7.7497  -18.3631   20.1975 O   0  0  0  0  0  0  0  0  0  0  0  0
    6.8151  -17.3850   19.9124 C   0  0  0  0  0  0  0  0  0  0  0  0
    7.4444  -16.0434   19.5518 C   0  0  2  0  0  0  0  0  0  0  0  0
    8.1976  -16.2199   18.3115 N   0  0  0  0  0  0  0  0  0  0  0  0
    8.3576  -15.6342   20.6456 C   0  0  0  0  0  0  0  0  0  0  0  0
    9.6120  -15.6502   20.4357 O   0  0  0  0  0  0  0  0  0  0  0  0
    6.8148  -14.6680   24.4138 O   0  0  0  0  0  0  0  0  0  0  0  0
    7.8623  -13.8985   23.8967 C   0  0  0  0  0  0  0  0  0  0  0  0
    8.6605  -14.7373   22.9676 C   0  0  2  0  0  0  0  0  0  0  0  0
    7.8310  -15.2351   21.8932 N   0  0  0  0  0  0  0  0  0  0  0  0
    9.3706  -15.8596   23.5931 C   0  0  0  0  0  0  0  0  0  0  0  0
    8.8638  -17.0048   23.5305 O   0  0  0  0  0  0  0  0  0  0  0  0
   10.6251  -15.6956   24.2747 N   0  0  0  0  0  0  0  0  0  0  0  0
   11.1832  -16.8311   24.9636 C   0  0  1  0  0  0  0  0  0  0  0  0
   12.6924  -16.7808   24.8884 C   0  0  0  0  0  0  0  0  0  0  0  0
   13.1866  -16.5726   23.5099 C   0  0  0  0  0  0  0  0  0  0  0  0
   12.7576  -17.3533   22.6229 O   0  0  0  0  0  0  0  0  0  0  0  0
   10.7078  -16.9209   26.3692 C   0  0  0  0  0  0  0  0  0  0  0  0
    9.9581  -16.0591   26.8915 O   0  0  0  0  0  0  0  0  0  0  0  0
   14.0793  -15.5889   23.1301 O   0  0  0  0  0  0  0  0  0  0  0  0
   11.1026  -17.9983   27.1472 O   0  0  0  0  0  0  0  0  0  0  0  0
  1  2  1  0
  2  3  1  0
  3  5  1  0
  3  4  1  6
  5  6  2  0
  7  8  1  0
  9  8  1  1
 10  9  1  0
 10  5  1  0
 11 13  1  0
 11  9  1  0
 12 11  2  0
 14 13  1  0
 14 15  1  1
 15 16  1  0
 16 20  1  0
 17 16  2  0
 18 14  1  0
 19 18  2  0
 21 18  1  0
M  END
$$$$
