SSD.pdb
     RDKit          3D

 21 20  0  0  1  0  0  0  0  0999 V2000
    8.9835  -15.5779   18.4109 O   0  0  0  0  0  0  0  0  0  0  0  0
    7.7118  -15.0382   18.3576 C   0  0  0  0  0  0  0  0  0  0  0  0
    7.6166  -13.6654   19.0151 C   0  0  2  0  0  0  0  0  0  0  0  0
    8.2460  -12.6951   18.1212 N   0  0  0  0  0  0  0  0  0  0  0  0
    8.3379  -13.7042   20.3098 C   0  0  0  0  0  0  0  0  0  0  0  0
    9.5713  -13.3946   20.3342 O   0  0  0  0  0  0  0  0  0  0  0  0
    6.5162  -15.3532   23.7564 O   0  0  0  0  0  0  0  0  0  0  0  0
    7.3384  -14.2273   23.8705 C   0  0  0  0  0  0  0  0  0  0  0  0
    8.3234  -14.2379   22.7598 C   0  0  2  0  0  0  0  0  0  0  0  0
    7.6555  -14.0792   21.4875 N   0  0  0  0  0  0  0  0  0  0  0  0
    9.1932  -15.4193   22.7079 C   0  0  0  0  0  0  0  0  0  0  0  0
    9.3747  -15.9872   21.6048 O   0  0  0  0  0  0  0  0  0  0  0  0
    9.8450  -15.9498   23.8736 N   0  0  0  0  0  0  0  0  0  0  0  0
   10.8265  -16.9892   23.6955 C   0  0  1  0  0  0  0  0  0  0  0  0
   11.8947  -16.5211   22.7334 C   0  0  0  0  0  0  0  0  0  0  0  0
   13.0029  -17.4914   22.5980 C   0  0  0  0  0  0  0  0  0  0  0  0
   12.7272  -18.6103   22.0958 O   0  0  0  0  0  0  0  0  0  0  0  0
   11.4108  -17.4334   24.9881 C   0  0  0  0  0  0  0  0  0  0  0  0
   11.4497  -16.6994   26.0066 O   0  0  0  0  0  0  0  0  0  0  0  0
   14.3096  -17.2578   22.9811 O   0  0  0  0  0  0  0  0  0  0  0  0
   11.9388  -18.7116   25.0859 O   0  0  0  0  0  0  0  0  0  0  0  0
  1  2  1  0
  2  3  1  0
  3  5  1  0
  3  4  1  6
  5  6  2  0
  7  8  1  0
  9  8  1  1
 10  9  1  0
 10  5  1  0
 11 13  1  0
 11  9  1  0
 12 11  2  0
 14 13  1  0
 14 15  1  6
 15 16  1  0
 16 20  1  0
 17 16  2  0
 18 14  1  0
 19 18  2  0
 21 18  1  0
M  END
$$$$
