SSD.pdb
     RDKit          3D

 21 20  0  0  1  0  0  0  0  0999 V2000
    8.5009  -19.0548   19.5129 O   0  0  0  0  0  0  0  0  0  0  0  0
    7.3732  -18.2965   19.2584 C   0  0  0  0  0  0  0  0  0  0  0  0
    7.6971  -16.8837   18.7838 C   0  0  2  0  0  0  0  0  0  0  0  0
    8.3763  -16.9884   17.4937 N   0  0  0  0  0  0  0  0  0  0  0  0
    8.5900  -16.2389   19.7761 C   0  0  0  0  0  0  0  0  0  0  0  0
    9.8309  -16.1432   19.5136 O   0  0  0  0  0  0  0  0  0  0  0  0
    7.1955  -15.1982   23.5754 O   0  0  0  0  0  0  0  0  0  0  0  0
    7.9524  -14.2526   22.8756 C   0  0  0  0  0  0  0  0  0  0  0  0
    8.8396  -14.9608   21.9190 C   0  0  2  0  0  0  0  0  0  0  0  0
    8.0593  -15.7434   20.9869 N   0  0  0  0  0  0  0  0  0  0  0  0
    9.8639  -15.8151   22.5323 C   0  0  0  0  0  0  0  0  0  0  0  0
    9.6525  -17.0484   22.6123 O   0  0  0  0  0  0  0  0  0  0  0  0
   11.1001  -15.2913   23.0448 N   0  0  0  0  0  0  0  0  0  0  0  0
   12.0276  -16.2055   23.6608 C   0  0  1  0  0  0  0  0  0  0  0  0
   13.3543  -15.5143   23.8796 C   0  0  0  0  0  0  0  0  0  0  0  0
   14.5011  -16.4447   23.7944 C   0  0  0  0  0  0  0  0  0  0  0  0
   14.5488  -17.2061   22.7953 O   0  0  0  0  0  0  0  0  0  0  0  0
   11.4929  -16.7767   24.9248 C   0  0  0  0  0  0  0  0  0  0  0  0
   11.4227  -18.0124   25.1383 O   0  0  0  0  0  0  0  0  0  0  0  0
   15.5161  -16.5360   24.7273 O   0  0  0  0  0  0  0  0  0  0  0  0
   11.0494  -15.9177   25.9186 O   0  0  0  0  0  0  0  0  0  0  0  0
  1  2  1  0
  2  3  1  0
  3  5  1  0
  3  4  1  6
  5  6  2  0
  7  8  1  0
  9  8  1  1
 10  9  1  0
 10  5  1  0
 11 13  1  0
 11  9  1  0
 12 11  2  0
 14 13  1  0
 14 15  1  1
 15 16  1  0
 16 20  1  0
 17 16  2  0
 18 14  1  0
 19 18  2  0
 21 18  1  0
M  END
$$$$
