SSD.pdb
     RDKit          3D

 21 20  0  0  1  0  0  0  0  0999 V2000
    7.9088  -19.5727   17.4107 O   0  0  0  0  0  0  0  0  0  0  0  0
    8.4778  -18.8318   18.4298 C   0  0  0  0  0  0  0  0  0  0  0  0
    8.8315  -17.4091   18.0093 C   0  0  2  0  0  0  0  0  0  0  0  0
    9.8699  -17.4893   16.9836 N   0  0  0  0  0  0  0  0  0  0  0  0
    9.3422  -16.6742   19.1913 C   0  0  0  0  0  0  0  0  0  0  0  0
   10.5963  -16.6471   19.4019 O   0  0  0  0  0  0  0  0  0  0  0  0
    6.7355  -15.1522   22.1164 O   0  0  0  0  0  0  0  0  0  0  0  0
    7.7730  -14.3385   21.6493 C   0  0  0  0  0  0  0  0  0  0  0  0
    8.8805  -15.2021   21.1680 C   0  0  2  0  0  0  0  0  0  0  0  0
    8.4416  -16.0196   20.0593 N   0  0  0  0  0  0  0  0  0  0  0  0
    9.4940  -16.0585   22.1902 C   0  0  0  0  0  0  0  0  0  0  0  0
    9.0900  -17.2395   22.3101 O   0  0  0  0  0  0  0  0  0  0  0  0
   10.5406  -15.5948   23.0590 N   0  0  0  0  0  0  0  0  0  0  0  0
   11.0662  -16.5055   24.0438 C   0  0  1  0  0  0  0  0  0  0  0  0
   12.5052  -16.1536   24.3460 C   0  0  0  0  0  0  0  0  0  0  0  0
   13.3670  -16.2025   23.1448 C   0  0  0  0  0  0  0  0  0  0  0  0
   14.2664  -15.3296   23.0484 O   0  0  0  0  0  0  0  0  0  0  0  0
   10.2384  -16.5322   25.2783 C   0  0  0  0  0  0  0  0  0  0  0  0
    9.2896  -15.7343   25.4801 O   0  0  0  0  0  0  0  0  0  0  0  0
   13.2551  -17.1320   22.1288 O   0  0  0  0  0  0  0  0  0  0  0  0
   10.5164  -17.4744   26.2566 O   0  0  0  0  0  0  0  0  0  0  0  0
  1  2  1  0
  2  3  1  0
  3  5  1  0
  3  4  1  6
  5  6  2  0
  7  8  1  0
  9  8  1  1
 10  9  1  0
 10  5  1  0
 11 13  1  0
 11  9  1  0
 12 11  2  0
 14 13  1  0
 14 15  1  1
 15 16  1  0
 16 20  1  0
 17 16  2  0
 18 14  1  0
 19 18  2  0
 21 18  1  0
M  END
$$$$
