SSD.pdb
     RDKit          3D

 21 20  0  0  1  0  0  0  0  0999 V2000
   -0.4408  -25.9972   27.1407 O   0  0  0  0  0  0  0  0  0  0  0  0
   -1.3811  -27.0089   27.2007 C   0  0  0  0  0  0  0  0  0  0  0  0
   -2.7872  -26.5406   26.8405 C   0  0  2  0  0  0  0  0  0  0  0  0
   -2.7653  -26.0805   25.4532 N   0  0  0  0  0  0  0  0  0  0  0  0
   -3.1641  -25.4235   27.7392 C   0  0  0  0  0  0  0  0  0  0  0  0
   -3.1463  -25.6151   28.9965 O   0  0  0  0  0  0  0  0  0  0  0  0
   -4.2571  -21.7056   26.1247 O   0  0  0  0  0  0  0  0  0  0  0  0
   -3.6483  -21.7752   27.3821 C   0  0  0  0  0  0  0  0  0  0  0  0
   -3.9957  -23.0737   28.0122 C   0  0  2  0  0  0  0  0  0  0  0  0
   -3.5334  -24.1738   27.1961 N   0  0  0  0  0  0  0  0  0  0  0  0
   -5.4198  -23.2591   28.3162 C   0  0  0  0  0  0  0  0  0  0  0  0
   -6.1320  -23.8974   27.5053 O   0  0  0  0  0  0  0  0  0  0  0  0
   -6.0290  -22.7366   29.5083 N   0  0  0  0  0  0  0  0  0  0  0  0
   -7.4415  -22.9434   29.7020 C   0  0  1  0  0  0  0  0  0  0  0  0
   -7.6613  -24.1013   30.6490 C   0  0  0  0  0  0  0  0  0  0  0  0
   -9.0949  -24.3758   30.8886 C   0  0  0  0  0  0  0  0  0  0  0  0
   -9.9232  -23.7833   30.1516 O   0  0  0  0  0  0  0  0  0  0  0  0
   -8.1269  -21.7119   30.1749 C   0  0  0  0  0  0  0  0  0  0  0  0
   -9.3750  -21.5744   30.1503 O   0  0  0  0  0  0  0  0  0  0  0  0
   -9.5852  -25.2304   31.8571 O   0  0  0  0  0  0  0  0  0  0  0  0
   -7.3655  -20.6629   30.6667 O   0  0  0  0  0  0  0  0  0  0  0  0
  1  2  1  0
  2  3  1  0
  3  5  1  0
  3  4  1  6
  5  6  2  0
  7  8  1  0
  9  8  1  6
 10  9  1  0
 10  5  1  0
 11 13  1  0
 11  9  1  0
 12 11  2  0
 14 13  1  0
 14 15  1  1
 15 16  1  0
 16 20  1  0
 17 16  2  0
 18 14  1  0
 19 18  2  0
 21 18  1  0
M  END
$$$$
