SSD.pdb
     RDKit          3D

 21 20  0  0  1  0  0  0  0  0999 V2000
    7.8305  -19.5458   18.6398 O   0  0  0  0  0  0  0  0  0  0  0  0
    7.0138  -18.6420   17.9859 C   0  0  0  0  0  0  0  0  0  0  0  0
    7.7471  -17.3759   17.5554 C   0  0  2  0  0  0  0  0  0  0  0  0
    8.7611  -17.7564   16.5736 N   0  0  0  0  0  0  0  0  0  0  0  0
    8.3942  -16.7705   18.7439 C   0  0  0  0  0  0  0  0  0  0  0  0
    9.6415  -16.9473   18.9199 O   0  0  0  0  0  0  0  0  0  0  0  0
    6.1767  -15.1850   21.9568 O   0  0  0  0  0  0  0  0  0  0  0  0
    7.2248  -14.4272   21.4237 C   0  0  0  0  0  0  0  0  0  0  0  0
    8.2103  -15.3445   20.7983 C   0  0  2  0  0  0  0  0  0  0  0  0
    7.6281  -16.0127   19.6561 N   0  0  0  0  0  0  0  0  0  0  0  0
    8.7931  -16.3445   21.7012 C   0  0  0  0  0  0  0  0  0  0  0  0
    8.2052  -17.4425   21.8461 O   0  0  0  0  0  0  0  0  0  0  0  0
   10.0125  -16.1129   22.4256 N   0  0  0  0  0  0  0  0  0  0  0  0
   10.4869  -17.1430   23.3139 C   0  0  1  0  0  0  0  0  0  0  0  0
   11.2724  -18.1695   22.5297 C   0  0  0  0  0  0  0  0  0  0  0  0
   11.7911  -19.2615   23.3821 C   0  0  0  0  0  0  0  0  0  0  0  0
   11.4610  -19.2483   24.5949 O   0  0  0  0  0  0  0  0  0  0  0  0
   11.2835  -16.5871   24.4393 C   0  0  0  0  0  0  0  0  0  0  0  0
   11.8326  -17.3094   25.3077 O   0  0  0  0  0  0  0  0  0  0  0  0
   12.6063  -20.2872   22.9439 O   0  0  0  0  0  0  0  0  0  0  0  0
   11.4337  -15.2130   24.5452 O   0  0  0  0  0  0  0  0  0  0  0  0
  1  2  1  0
  2  3  1  0
  3  5  1  0
  3  4  1  6
  5  6  2  0
  7  8  1  0
  9  8  1  1
 10  9  1  0
 10  5  1  0
 11 13  1  0
 11  9  1  0
 12 11  2  0
 14 13  1  0
 14 15  1  6
 15 16  1  0
 16 20  1  0
 17 16  2  0
 18 14  1  0
 19 18  2  0
 21 18  1  0
M  END
$$$$
