SSD.pdb
     RDKit          3D

 21 20  0  0  1  0  0  0  0  0999 V2000
   11.2521  -18.7565   18.6766 O   0  0  0  0  0  0  0  0  0  0  0  0
    9.9382  -18.9325   19.0691 C   0  0  0  0  0  0  0  0  0  0  0  0
    9.1581  -17.6246   19.1511 C   0  0  2  0  0  0  0  0  0  0  0  0
    9.0007  -17.1100   17.7920 N   0  0  0  0  0  0  0  0  0  0  0  0
    9.9275  -16.6596   19.9725 C   0  0  0  0  0  0  0  0  0  0  0  0
   10.5857  -15.7428   19.3860 O   0  0  0  0  0  0  0  0  0  0  0  0
    9.0838  -16.0222   23.9477 O   0  0  0  0  0  0  0  0  0  0  0  0
    9.7760  -15.1207   23.1321 C   0  0  0  0  0  0  0  0  0  0  0  0
   10.6804  -15.8826   22.2346 C   0  0  2  0  0  0  0  0  0  0  0  0
    9.9205  -16.7673   21.3802 N   0  0  0  0  0  0  0  0  0  0  0  0
   11.7335  -16.6481   22.9128 C   0  0  0  0  0  0  0  0  0  0  0  0
   11.5381  -17.8636   23.1508 O   0  0  0  0  0  0  0  0  0  0  0  0
   12.9803  -16.0572   23.3145 N   0  0  0  0  0  0  0  0  0  0  0  0
   13.9404  -16.8844   23.9996 C   0  0  1  0  0  0  0  0  0  0  0  0
   15.3286  -16.3160   23.8111 C   0  0  0  0  0  0  0  0  0  0  0  0
   15.6742  -16.1198   22.3862 C   0  0  0  0  0  0  0  0  0  0  0  0
   15.3697  -17.0436   21.5899 O   0  0  0  0  0  0  0  0  0  0  0  0
   13.6081  -17.0512   25.4389 C   0  0  0  0  0  0  0  0  0  0  0  0
   14.2842  -17.7702   26.2157 O   0  0  0  0  0  0  0  0  0  0  0  0
   16.3028  -15.0023   21.8718 O   0  0  0  0  0  0  0  0  0  0  0  0
   12.5061  -16.3890   25.9578 O   0  0  0  0  0  0  0  0  0  0  0  0
  1  2  1  0
  2  3  1  0
  3  5  1  0
  3  4  1  6
  5  6  2  0
  7  8  1  0
  9  8  1  1
 10  9  1  0
 10  5  1  0
 11 13  1  0
 11  9  1  0
 12 11  2  0
 14 13  1  0
 14 15  1  1
 15 16  1  0
 16 20  1  0
 17 16  2  0
 18 14  1  0
 19 18  2  0
 21 18  1  0
M  END
$$$$
