SSD.pdb
     RDKit          3D

 21 20  0  0  1  0  0  0  0  0999 V2000
    7.6910  -18.6525   18.0481 O   0  0  0  0  0  0  0  0  0  0  0  0
    7.3300  -17.8506   19.1149 C   0  0  0  0  0  0  0  0  0  0  0  0
    7.5973  -16.3696   18.8673 C   0  0  2  0  0  0  0  0  0  0  0  0
    8.3091  -16.2484   17.5964 N   0  0  0  0  0  0  0  0  0  0  0  0
    8.4367  -15.8443   19.9706 C   0  0  0  0  0  0  0  0  0  0  0  0
    9.7005  -15.8318   19.8273 O   0  0  0  0  0  0  0  0  0  0  0  0
    6.6884  -14.8360   23.6269 O   0  0  0  0  0  0  0  0  0  0  0  0
    7.7180  -14.0200   23.1463 C   0  0  0  0  0  0  0  0  0  0  0  0
    8.5921  -14.8248   22.2562 C   0  0  2  0  0  0  0  0  0  0  0  0
    7.8312  -15.3686   21.1539 N   0  0  0  0  0  0  0  0  0  0  0  0
    9.3301  -15.9074   22.9182 C   0  0  0  0  0  0  0  0  0  0  0  0
    8.8706  -17.0728   22.8629 O   0  0  0  0  0  0  0  0  0  0  0  0
   10.5595  -15.6824   23.6275 N   0  0  0  0  0  0  0  0  0  0  0  0
   11.1598  -16.7908   24.3250 C   0  0  1  0  0  0  0  0  0  0  0  0
   12.6557  -16.5884   24.4106 C   0  0  0  0  0  0  0  0  0  0  0  0
   13.2866  -16.4412   23.0808 C   0  0  0  0  0  0  0  0  0  0  0  0
   12.8916  -17.2125   22.1702 O   0  0  0  0  0  0  0  0  0  0  0  0
   10.5578  -16.9977   25.6684 C   0  0  0  0  0  0  0  0  0  0  0  0
    9.6713  -16.2441   26.1414 O   0  0  0  0  0  0  0  0  0  0  0  0
   14.2717  -15.5236   22.7703 O   0  0  0  0  0  0  0  0  0  0  0  0
   10.9856  -18.0657   26.4420 O   0  0  0  0  0  0  0  0  0  0  0  0
  1  2  1  0
  2  3  1  0
  3  5  1  0
  3  4  1  6
  5  6  2  0
  7  8  1  0
  9  8  1  1
 10  9  1  0
 10  5  1  0
 11 13  1  0
 11  9  1  0
 12 11  2  0
 14 13  1  0
 14 15  1  1
 15 16  1  0
 16 20  1  0
 17 16  2  0
 18 14  1  0
 19 18  2  0
 21 18  1  0
M  END
$$$$
