SSD.pdb
     RDKit          3D

 21 20  0  0  1  0  0  0  0  0999 V2000
    9.9387  -19.8673   19.2174 O   0  0  0  0  0  0  0  0  0  0  0  0
    8.7115  -19.2407   19.1048 C   0  0  0  0  0  0  0  0  0  0  0  0
    8.8246  -17.7672   18.7278 C   0  0  2  0  0  0  0  0  0  0  0  0
    9.2550  -17.6926   17.3329 N   0  0  0  0  0  0  0  0  0  0  0  0
    9.8331  -17.1254   19.6046 C   0  0  0  0  0  0  0  0  0  0  0  0
   11.0456  -17.0912   19.2219 O   0  0  0  0  0  0  0  0  0  0  0  0
    8.7858  -15.6947   23.4366 O   0  0  0  0  0  0  0  0  0  0  0  0
    9.6308  -14.9448   22.6117 C   0  0  0  0  0  0  0  0  0  0  0  0
   10.3627  -15.8682   21.7085 C   0  0  2  0  0  0  0  0  0  0  0  0
    9.4411  -16.5651   20.8397 N   0  0  0  0  0  0  0  0  0  0  0  0
   11.2285  -16.8441   22.3814 C   0  0  0  0  0  0  0  0  0  0  0  0
   10.7655  -17.9782   22.6492 O   0  0  0  0  0  0  0  0  0  0  0  0
   12.5871  -16.5491   22.7451 N   0  0  0  0  0  0  0  0  0  0  0  0
   13.3238  -17.5335   23.4959 C   0  0  1  0  0  0  0  0  0  0  0  0
   14.7830  -17.4862   23.1032 C   0  0  0  0  0  0  0  0  0  0  0  0
   15.2635  -16.1076   22.8652 C   0  0  0  0  0  0  0  0  0  0  0  0
   15.0440  -15.2601   23.7673 O   0  0  0  0  0  0  0  0  0  0  0  0
   13.1459  -17.3659   24.9623 C   0  0  0  0  0  0  0  0  0  0  0  0
   12.5313  -16.3942   25.4676 O   0  0  0  0  0  0  0  0  0  0  0  0
   15.9312  -15.6878   21.7309 O   0  0  0  0  0  0  0  0  0  0  0  0
   13.6774  -18.3174   25.8193 O   0  0  0  0  0  0  0  0  0  0  0  0
  1  2  1  0
  2  3  1  0
  3  5  1  0
  3  4  1  6
  5  6  2  0
  7  8  1  0
  9  8  1  1
 10  9  1  0
 10  5  1  0
 11 13  1  0
 11  9  1  0
 12 11  2  0
 14 13  1  0
 14 15  1  1
 15 16  1  0
 16 20  1  0
 17 16  2  0
 18 14  1  0
 19 18  2  0
 21 18  1  0
M  END
$$$$
