SSD.pdb
     RDKit          3D

 21 20  0  0  1  0  0  0  0  0999 V2000
   10.9277  -19.5819   19.8933 O   0  0  0  0  0  0  0  0  0  0  0  0
   10.1200  -18.7750   19.1137 C   0  0  0  0  0  0  0  0  0  0  0  0
   10.7635  -17.4346   18.7737 C   0  0  2  0  0  0  0  0  0  0  0  0
   11.9132  -17.6952   17.9094 N   0  0  0  0  0  0  0  0  0  0  0  0
   11.2102  -16.7864   20.0299 C   0  0  0  0  0  0  0  0  0  0  0  0
   12.4574  -16.6593   20.2446 O   0  0  0  0  0  0  0  0  0  0  0  0
    8.3892  -15.6262   22.9323 O   0  0  0  0  0  0  0  0  0  0  0  0
    9.5526  -14.8709   22.7510 C   0  0  0  0  0  0  0  0  0  0  0  0
   10.6273  -15.7597   22.2421 C   0  0  2  0  0  0  0  0  0  0  0  0
   10.2575  -16.3221   20.9626 N   0  0  0  0  0  0  0  0  0  0  0  0
   11.0260  -16.8411   23.1512 C   0  0  0  0  0  0  0  0  0  0  0  0
   10.5815  -17.9957   22.9474 O   0  0  0  0  0  0  0  0  0  0  0  0
   11.9068  -16.6268   24.2662 N   0  0  0  0  0  0  0  0  0  0  0  0
   12.1768  -17.7338   25.1477 C   0  0  1  0  0  0  0  0  0  0  0  0
   13.5650  -17.5939   25.7302 C   0  0  0  0  0  0  0  0  0  0  0  0
   14.6060  -18.1983   24.8706 C   0  0  0  0  0  0  0  0  0  0  0  0
   14.2571  -18.5672   23.7207 O   0  0  0  0  0  0  0  0  0  0  0  0
   11.1473  -17.8646   26.2120 C   0  0  0  0  0  0  0  0  0  0  0  0
   10.2462  -17.0094   26.3974 O   0  0  0  0  0  0  0  0  0  0  0  0
   15.9246  -18.3851   25.2383 O   0  0  0  0  0  0  0  0  0  0  0  0
   11.1727  -18.9745   27.0424 O   0  0  0  0  0  0  0  0  0  0  0  0
  1  2  1  0
  2  3  1  0
  3  5  1  0
  3  4  1  6
  5  6  2  0
  7  8  1  0
  9  8  1  1
 10  9  1  0
 10  5  1  0
 11 13  1  0
 11  9  1  0
 12 11  2  0
 14 13  1  0
 14 15  1  1
 15 16  1  0
 16 20  1  0
 17 16  2  0
 18 14  1  0
 19 18  2  0
 21 18  1  0
M  END
$$$$
