SSD.pdb
     RDKit          3D

 21 20  0  0  1  0  0  0  0  0999 V2000
    9.7622  -16.0915   17.5636 O   0  0  0  0  0  0  0  0  0  0  0  0
    9.0785  -15.0052   17.0501 C   0  0  0  0  0  0  0  0  0  0  0  0
    7.9442  -14.5312   17.9528 C   0  0  2  0  0  0  0  0  0  0  0  0
    7.3287  -13.3637   17.3244 N   0  0  0  0  0  0  0  0  0  0  0  0
    8.5072  -14.1587   19.2726 C   0  0  0  0  0  0  0  0  0  0  0  0
    8.9694  -12.9846   19.4330 O   0  0  0  0  0  0  0  0  0  0  0  0
    8.2720  -14.2249   23.8333 O   0  0  0  0  0  0  0  0  0  0  0  0
    7.8070  -14.4778   22.5385 C   0  0  0  0  0  0  0  0  0  0  0  0
    8.9676  -14.7704   21.6604 C   0  0  2  0  0  0  0  0  0  0  0  0
    8.5234  -15.1000   20.3247 N   0  0  0  0  0  0  0  0  0  0  0  0
    9.8686  -15.8227   22.1462 C   0  0  0  0  0  0  0  0  0  0  0  0
    9.5688  -17.0210   21.9307 O   0  0  0  0  0  0  0  0  0  0  0  0
   11.0815  -15.5316   22.8597 N   0  0  0  0  0  0  0  0  0  0  0  0
   11.8248  -16.6298   23.4227 C   0  0  1  0  0  0  0  0  0  0  0  0
   13.2887  -16.2622   23.5100 C   0  0  0  0  0  0  0  0  0  0  0  0
   13.9045  -16.0594   22.1804 C   0  0  0  0  0  0  0  0  0  0  0  0
   13.4089  -16.6954   21.2160 O   0  0  0  0  0  0  0  0  0  0  0  0
   11.2864  -17.0505   24.7429 C   0  0  0  0  0  0  0  0  0  0  0  0
   10.3360  -16.4580   25.3115 O   0  0  0  0  0  0  0  0  0  0  0  0
   14.9772  -15.2273   21.9246 O   0  0  0  0  0  0  0  0  0  0  0  0
   11.8498  -18.1429   25.3841 O   0  0  0  0  0  0  0  0  0  0  0  0
  1  2  1  0
  2  3  1  0
  3  5  1  0
  3  4  1  6
  5  6  2  0
  7  8  1  0
  9  8  1  1
 10  9  1  0
 10  5  1  0
 11 13  1  0
 11  9  1  0
 12 11  2  0
 14 13  1  0
 14 15  1  1
 15 16  1  0
 16 20  1  0
 17 16  2  0
 18 14  1  0
 19 18  2  0
 21 18  1  0
M  END
$$$$
