SSD.pdb
     RDKit          3D

 21 20  0  0  1  0  0  0  0  0999 V2000
    9.1804  -19.8389   19.8960 O   0  0  0  0  0  0  0  0  0  0  0  0
    8.2745  -18.7947   19.8773 C   0  0  0  0  0  0  0  0  0  0  0  0
    8.7884  -17.5704   19.1269 C   0  0  2  0  0  0  0  0  0  0  0  0
    9.4871  -18.0376   17.9310 N   0  0  0  0  0  0  0  0  0  0  0  0
    9.7259  -16.8300   20.0049 C   0  0  0  0  0  0  0  0  0  0  0  0
   10.8343  -16.4339   19.5231 O   0  0  0  0  0  0  0  0  0  0  0  0
    8.7503  -16.0200   24.0527 O   0  0  0  0  0  0  0  0  0  0  0  0
    9.2634  -15.0371   23.1999 C   0  0  0  0  0  0  0  0  0  0  0  0
   10.1446  -15.6852   22.1962 C   0  0  2  0  0  0  0  0  0  0  0  0
    9.3816  -16.5752   21.3502 N   0  0  0  0  0  0  0  0  0  0  0  0
   11.2953  -16.4090   22.7502 C   0  0  0  0  0  0  0  0  0  0  0  0
   11.2420  -17.6594   22.8267 O   0  0  0  0  0  0  0  0  0  0  0  0
   12.4811  -15.7387   23.2084 N   0  0  0  0  0  0  0  0  0  0  0  0
   13.5651  -16.5383   23.7192 C   0  0  1  0  0  0  0  0  0  0  0  0
   14.8744  -15.8099   23.5169 C   0  0  0  0  0  0  0  0  0  0  0  0
   16.0450  -16.6242   23.9100 C   0  0  0  0  0  0  0  0  0  0  0  0
   16.5559  -16.3887   25.0341 O   0  0  0  0  0  0  0  0  0  0  0  0
   13.3610  -16.9118   25.1435 C   0  0  0  0  0  0  0  0  0  0  0  0
   12.5918  -16.2808   25.9101 O   0  0  0  0  0  0  0  0  0  0  0  0
   16.6128  -17.6177   23.1359 O   0  0  0  0  0  0  0  0  0  0  0  0
   14.0441  -18.0023   25.6594 O   0  0  0  0  0  0  0  0  0  0  0  0
  1  2  1  0
  2  3  1  0
  3  5  1  0
  3  4  1  6
  5  6  2  0
  7  8  1  0
  9  8  1  1
 10  9  1  0
 10  5  1  0
 11 13  1  0
 11  9  1  0
 12 11  2  0
 14 13  1  0
 14 15  1  1
 15 16  1  0
 16 20  1  0
 17 16  2  0
 18 14  1  0
 19 18  2  0
 21 18  1  0
M  END
$$$$
