SSD.pdb
     RDKit          3D

 21 20  0  0  1  0  0  0  0  0999 V2000
   11.8512  -20.3185   19.6503 O   0  0  0  0  0  0  0  0  0  0  0  0
   10.5037  -20.0200   19.5699 C   0  0  0  0  0  0  0  0  0  0  0  0
   10.2332  -18.6060   19.0663 C   0  0  2  0  0  0  0  0  0  0  0  0
   10.7302  -18.5156   17.6946 N   0  0  0  0  0  0  0  0  0  0  0  0
   10.9560  -17.6437   19.9319 C   0  0  0  0  0  0  0  0  0  0  0  0
   12.0372  -17.1271   19.5052 O   0  0  0  0  0  0  0  0  0  0  0  0
   10.0100  -16.5672   24.1301 O   0  0  0  0  0  0  0  0  0  0  0  0
    9.9928  -15.7593   22.9883 C   0  0  0  0  0  0  0  0  0  0  0  0
   11.0038  -16.2663   22.0266 C   0  0  2  0  0  0  0  0  0  0  0  0
   10.4420  -17.3146   21.2049 N   0  0  0  0  0  0  0  0  0  0  0  0
   12.2562  -16.7394   22.6287 C   0  0  0  0  0  0  0  0  0  0  0  0
   12.3711  -17.9572   22.9046 O   0  0  0  0  0  0  0  0  0  0  0  0
   13.3561  -15.8597   22.9141 N   0  0  0  0  0  0  0  0  0  0  0  0
   14.5608  -16.4265   23.4646 C   0  0  1  0  0  0  0  0  0  0  0  0
   15.7357  -15.5282   23.1507 C   0  0  0  0  0  0  0  0  0  0  0  0
   17.0325  -16.1403   23.5137 C   0  0  0  0  0  0  0  0  0  0  0  0
   17.2342  -17.3224   23.1366 O   0  0  0  0  0  0  0  0  0  0  0  0
   14.4419  -16.6822   24.9241 C   0  0  0  0  0  0  0  0  0  0  0  0
   13.6503  -16.0480   25.6648 O   0  0  0  0  0  0  0  0  0  0  0  0
   18.0305  -15.5105   24.2322 O   0  0  0  0  0  0  0  0  0  0  0  0
   15.2341  -17.6609   25.5042 O   0  0  0  0  0  0  0  0  0  0  0  0
  1  2  1  0
  2  3  1  0
  3  5  1  0
  3  4  1  6
  5  6  2  0
  7  8  1  0
  9  8  1  1
 10  9  1  0
 10  5  1  0
 11 13  1  0
 11  9  1  0
 12 11  2  0
 14 13  1  0
 14 15  1  1
 15 16  1  0
 16 20  1  0
 17 16  2  0
 18 14  1  0
 19 18  2  0
 21 18  1  0
M  END
$$$$
