WIL.pdb
     RDKit          3D

 31 32  0  0  1  0  0  0  0  0999 V2000
    5.7280  -18.9877   24.2464 N   0  0  0  0  0  0  0  0  0  0  0  0
    6.0353  -17.5803   24.3110 C   0  0  1  0  0  0  0  0  0  0  0  0
    6.3476  -17.1889   25.7352 C   0  0  0  0  0  0  0  0  0  0  0  0
    6.1167  -15.7438   25.9668 C   0  0  0  0  0  0  0  0  0  0  0  0
    4.9133  -15.0888   25.8288 C   0  0  0  0  0  0  0  0  0  0  0  0
    5.1072  -13.7906   26.1255 N   0  0  0  0  0  0  0  0  0  0  0  0
    6.3745  -13.5520   26.4523 C   0  0  0  0  0  0  0  0  0  0  0  0
    7.0551  -12.4153   26.8250 C   0  0  0  0  0  0  0  0  0  0  0  0
    8.4189  -12.4819   27.1136 C   0  0  0  0  0  0  0  0  0  0  0  0
    9.0413  -13.7122   27.0107 C   0  0  0  0  0  0  0  0  0  0  0  0
    8.3682  -14.8612   26.6371 C   0  0  0  0  0  0  0  0  0  0  0  0
    7.0167  -14.7798   26.3542 C   0  0  0  0  0  0  0  0  0  0  0  0
    7.2002  -17.3052   23.4075 C   0  0  0  0  0  0  0  0  0  0  0  0
    8.0911  -18.1852   23.3970 O   0  0  0  0  0  0  0  0  0  0  0  0
    8.6442  -12.6929   19.3723 C   0  0  0  0  0  0  0  0  0  0  0  0
    9.0072  -13.9620   20.0854 C   0  0  0  0  0  0  0  0  0  0  0  0
    7.9625  -14.3658   21.1042 C   0  0  2  0  0  0  0  0  0  0  0  0
    7.5369  -13.1375   21.8572 C   0  0  0  0  0  0  0  0  0  0  0  0
    8.3587  -15.5386   21.9409 C   0  0  2  0  0  0  0  0  0  0  0  0
    7.2494  -16.1345   22.6460 N   0  0  0  0  0  0  0  0  0  0  0  0
    9.5330  -15.4015   22.7924 C   0  0  0  0  0  0  0  0  0  0  0  0
   10.7025  -15.2229   22.2498 O   0  0  0  0  0  0  0  0  0  0  0  0
   10.5188  -12.9492   28.1395 C   0  0  0  0  0  0  0  0  0  0  0  0
   11.2540  -14.0144   27.2560 C   0  0  1  0  0  0  0  0  0  0  0  0
   11.6795  -15.0826   28.2171 C   0  0  0  0  0  0  0  0  0  0  0  0
   10.3518  -14.4093   26.1617 C   0  0  0  0  0  0  0  0  0  0  0  0
   10.8403  -15.0967   24.9520 C   0  0  2  0  0  0  0  0  0  0  0  0
    9.5781  -15.4304   24.2021 N   0  0  0  0  0  0  0  0  0  0  0  0
   11.5691  -16.3443   25.2097 C   0  0  0  0  0  0  0  0  0  0  0  0
   10.9153  -17.5609   25.2554 O   0  0  0  0  0  0  0  0  0  0  0  0
   12.8203  -16.3195   25.4028 O   0  0  0  0  0  0  0  0  0  0  0  0
  2  1  1  1
  2  3  1  0
  3  4  1  0
  4 12  1  0
  4  5  2  0
  5  6  1  0
  7  6  1  0
  7  8  2  0
  9  8  1  0
 10  9  2  0
 11 10  1  0
 11 12  2  0
 12  7  1  0
 13  2  1  0
 13 20  1  0
 14 13  2  0
 15 16  1  0
 16 17  1  0
 17 18  1  1
 19 17  1  0
 19 20  1  1
 21 19  1  0
 22 21  2  0
 24 26  1  0
 24 23  1  1
 24 25  1  0
 27 26  1  1
 27 28  1  0
 28 21  1  0
 29 27  1  0
 29 30  1  0
 31 29  2  0
M  END
$$$$
