WIL.pdb
     RDKit          3D

 31 32  0  0  1  0  0  0  0  0999 V2000
    6.0923  -18.5581   25.0814 N   0  0  0  0  0  0  0  0  0  0  0  0
    6.4085  -17.1732   24.8340 C   0  0  1  0  0  0  0  0  0  0  0  0
    6.8025  -16.4988   26.1259 C   0  0  0  0  0  0  0  0  0  0  0  0
    6.0841  -15.2164   26.3128 C   0  0  0  0  0  0  0  0  0  0  0  0
    4.7191  -15.0658   26.4131 C   0  0  0  0  0  0  0  0  0  0  0  0
    4.4535  -13.7565   26.5752 N   0  0  0  0  0  0  0  0  0  0  0  0
    5.5700  -13.0332   26.5875 C   0  0  0  0  0  0  0  0  0  0  0  0
    5.8208  -11.6867   26.7222 C   0  0  0  0  0  0  0  0  0  0  0  0
    7.1342  -11.2155   26.6946 C   0  0  0  0  0  0  0  0  0  0  0  0
    8.1485  -12.1404   26.5295 C   0  0  0  0  0  0  0  0  0  0  0  0
    7.9091  -13.4957   26.3930 C   0  0  0  0  0  0  0  0  0  0  0  0
    6.6022  -13.9480   26.4225 C   0  0  0  0  0  0  0  0  0  0  0  0
    7.5215  -17.1105   23.8309 C   0  0  0  0  0  0  0  0  0  0  0  0
    8.1121  -18.1938   23.6158 O   0  0  0  0  0  0  0  0  0  0  0  0
    7.1428  -13.0354   20.1249 C   0  0  0  0  0  0  0  0  0  0  0  0
    7.4286  -14.3585   20.7719 C   0  0  0  0  0  0  0  0  0  0  0  0
    8.7418  -14.3559   21.5254 C   0  0  2  0  0  0  0  0  0  0  0  0
    9.8395  -14.0061   20.5613 C   0  0  0  0  0  0  0  0  0  0  0  0
    8.9653  -15.5814   22.3507 C   0  0  2  0  0  0  0  0  0  0  0  0
    7.8457  -15.9056   23.2016 N   0  0  0  0  0  0  0  0  0  0  0  0
   10.2356  -15.7065   23.0531 C   0  0  0  0  0  0  0  0  0  0  0  0
   11.3426  -15.7722   22.3717 O   0  0  0  0  0  0  0  0  0  0  0  0
   11.0033  -13.7032   28.2189 C   0  0  0  0  0  0  0  0  0  0  0  0
   11.2529  -15.0462   27.4510 C   0  0  1  0  0  0  0  0  0  0  0  0
    9.9599  -15.7961   27.5590 C   0  0  0  0  0  0  0  0  0  0  0  0
   11.7360  -14.7223   26.0986 C   0  0  0  0  0  0  0  0  0  0  0  0
   11.8288  -15.7392   25.0346 C   0  0  2  0  0  0  0  0  0  0  0  0
   10.4427  -15.7625   24.4474 N   0  0  0  0  0  0  0  0  0  0  0  0
   12.1543  -17.0902   25.5066 C   0  0  0  0  0  0  0  0  0  0  0  0
   13.4118  -17.3978   25.9901 O   0  0  0  0  0  0  0  0  0  0  0  0
   11.2779  -18.0033   25.4690 O   0  0  0  0  0  0  0  0  0  0  0  0
  2  1  1  1
  2  3  1  0
  3  4  1  0
  4 12  1  0
  4  5  2  0
  5  6  1  0
  7  6  1  0
  7  8  2  0
  9  8  1  0
 10  9  2  0
 11 10  1  0
 11 12  2  0
 12  7  1  0
 13  2  1  0
 13 20  1  0
 14 13  2  0
 15 16  1  0
 16 17  1  0
 17 18  1  6
 19 17  1  0
 19 20  1  1
 21 19  1  0
 22 21  2  0
 24 26  1  0
 24 23  1  1
 24 25  1  0
 27 26  1  1
 27 28  1  0
 28 21  1  0
 29 27  1  0
 29 30  1  0
 31 29  2  0
M  END
$$$$
