WIL.pdb
     RDKit          3D

 31 32  0  0  1  0  0  0  0  0999 V2000
    5.4399  -18.2439   24.4804 N   0  0  0  0  0  0  0  0  0  0  0  0
    6.1398  -16.9834   24.4540 C   0  0  1  0  0  0  0  0  0  0  0  0
    6.7021  -16.6809   25.8219 C   0  0  0  0  0  0  0  0  0  0  0  0
    6.2636  -15.3525   26.3103 C   0  0  0  0  0  0  0  0  0  0  0  0
    5.0213  -15.0538   26.8238 C   0  0  0  0  0  0  0  0  0  0  0  0
    5.0085  -13.7496   27.1556 N   0  0  0  0  0  0  0  0  0  0  0  0
    6.1758  -13.1700   26.8890 C   0  0  0  0  0  0  0  0  0  0  0  0
    6.6498  -11.8871   27.0438 C   0  0  0  0  0  0  0  0  0  0  0  0
    7.9551  -11.5749   26.6615 C   0  0  0  0  0  0  0  0  0  0  0  0
    8.7329  -12.5883   26.1326 C   0  0  0  0  0  0  0  0  0  0  0  0
    8.2680  -13.8809   25.9722 C   0  0  0  0  0  0  0  0  0  0  0  0
    6.9720  -14.1755   26.3556 C   0  0  0  0  0  0  0  0  0  0  0  0
    7.2302  -17.0655   23.4279 C   0  0  0  0  0  0  0  0  0  0  0  0
    7.6396  -18.2207   23.1705 O   0  0  0  0  0  0  0  0  0  0  0  0
    7.5072  -13.3350   19.4611 C   0  0  0  0  0  0  0  0  0  0  0  0
    7.5924  -14.5330   20.3602 C   0  0  0  0  0  0  0  0  0  0  0  0
    8.8993  -14.5852   21.1229 C   0  0  2  0  0  0  0  0  0  0  0  0
   10.0274  -14.5214   20.1329 C   0  0  0  0  0  0  0  0  0  0  0  0
    8.9702  -15.6946   22.1213 C   0  0  2  0  0  0  0  0  0  0  0  0
    7.7277  -15.9077   22.8237 N   0  0  0  0  0  0  0  0  0  0  0  0
   10.1155  -15.7281   23.0213 C   0  0  0  0  0  0  0  0  0  0  0  0
   11.3199  -15.6795   22.5302 O   0  0  0  0  0  0  0  0  0  0  0  0
    9.4769  -14.6470   28.4724 C   0  0  0  0  0  0  0  0  0  0  0  0
    9.8163  -14.5029   26.9493 C   0  0  1  0  0  0  0  0  0  0  0  0
   10.1381  -13.0511   26.7635 C   0  0  0  0  0  0  0  0  0  0  0  0
   10.8686  -15.4770   26.6162 C   0  0  0  0  0  0  0  0  0  0  0  0
   11.3598  -15.6601   25.2378 C   0  0  2  0  0  0  0  0  0  0  0  0
   10.0975  -15.8031   24.4298 N   0  0  0  0  0  0  0  0  0  0  0  0
   12.1779  -16.8615   25.0346 C   0  0  0  0  0  0  0  0  0  0  0  0
   11.6956  -17.9472   24.3286 O   0  0  0  0  0  0  0  0  0  0  0  0
   13.3475  -16.9210   25.5161 O   0  0  0  0  0  0  0  0  0  0  0  0
  2  1  1  1
  2  3  1  0
  3  4  1  0
  4 12  1  0
  4  5  2  0
  5  6  1  0
  7  6  1  0
  7  8  2  0
  9  8  1  0
 10  9  2  0
 11 10  1  0
 11 12  2  0
 12  7  1  0
 13  2  1  0
 13 20  1  0
 14 13  2  0
 15 16  1  0
 16 17  1  0
 17 18  1  6
 19 17  1  0
 19 20  1  1
 21 19  1  0
 22 21  2  0
 24 26  1  0
 24 23  1  1
 24 25  1  0
 27 26  1  1
 27 28  1  0
 28 21  1  0
 29 27  1  0
 29 30  1  0
 31 29  2  0
M  END
$$$$
