WIL.pdb
     RDKit          3D

 31 32  0  0  1  0  0  0  0  0999 V2000
    5.9027  -18.6345   24.6811 N   0  0  0  0  0  0  0  0  0  0  0  0
    6.3342  -17.2593   24.6344 C   0  0  1  0  0  0  0  0  0  0  0  0
    6.6378  -16.7699   26.0299 C   0  0  0  0  0  0  0  0  0  0  0  0
    6.0167  -15.4505   26.2921 C   0  0  0  0  0  0  0  0  0  0  0  0
    4.6858  -15.2276   26.5660 C   0  0  0  0  0  0  0  0  0  0  0  0
    4.5113  -13.9053   26.7449 N   0  0  0  0  0  0  0  0  0  0  0  0
    5.6557  -13.2417   26.6040 C   0  0  0  0  0  0  0  0  0  0  0  0
    5.9908  -11.9095   26.6886 C   0  0  0  0  0  0  0  0  0  0  0  0
    7.3120  -11.5084   26.4858 C   0  0  0  0  0  0  0  0  0  0  0  0
    8.2475  -12.4863   26.2025 C   0  0  0  0  0  0  0  0  0  0  0  0
    7.9228  -13.8279   26.1148 C   0  0  0  0  0  0  0  0  0  0  0  0
    6.6093  -14.2105   26.3183 C   0  0  0  0  0  0  0  0  0  0  0  0
    7.5457  -17.1698   23.7552 C   0  0  0  0  0  0  0  0  0  0  0  0
    8.1783  -18.2398   23.6021 O   0  0  0  0  0  0  0  0  0  0  0  0
    7.3791  -13.2146   19.8927 C   0  0  0  0  0  0  0  0  0  0  0  0
    7.6208  -14.4921   20.6412 C   0  0  0  0  0  0  0  0  0  0  0  0
    8.8625  -14.4241   21.5049 C   0  0  2  0  0  0  0  0  0  0  0  0
   10.0240  -14.0388   20.6334 C   0  0  0  0  0  0  0  0  0  0  0  0
    9.0647  -15.6288   22.3652 C   0  0  2  0  0  0  0  0  0  0  0  0
    7.9094  -15.9560   23.1659 N   0  0  0  0  0  0  0  0  0  0  0  0
   10.3001  -15.7177   23.1325 C   0  0  0  0  0  0  0  0  0  0  0  0
   11.4397  -15.7934   22.5083 O   0  0  0  0  0  0  0  0  0  0  0  0
   10.5633  -14.3280   28.5362 C   0  0  0  0  0  0  0  0  0  0  0  0
   10.3332  -15.0236   27.1510 C   0  0  1  0  0  0  0  0  0  0  0  0
    9.2513  -14.2216   26.4937 C   0  0  0  0  0  0  0  0  0  0  0  0
   11.6283  -15.1097   26.4563 C   0  0  0  0  0  0  0  0  0  0  0  0
   11.7908  -15.8453   25.1885 C   0  0  2  0  0  0  0  0  0  0  0  0
   10.4391  -15.7264   24.5363 N   0  0  0  0  0  0  0  0  0  0  0  0
   12.1058  -17.2702   25.3442 C   0  0  0  0  0  0  0  0  0  0  0  0
   13.3196  -17.6848   25.8586 O   0  0  0  0  0  0  0  0  0  0  0  0
   11.2612  -18.1478   24.9979 O   0  0  0  0  0  0  0  0  0  0  0  0
  2  1  1  1
  2  3  1  0
  3  4  1  0
  4 12  1  0
  4  5  2  0
  5  6  1  0
  7  6  1  0
  7  8  2  0
  9  8  1  0
 10  9  2  0
 11 10  1  0
 11 12  2  0
 12  7  1  0
 13  2  1  0
 13 20  1  0
 14 13  2  0
 15 16  1  0
 16 17  1  0
 17 18  1  6
 19 17  1  0
 19 20  1  1
 21 19  1  0
 22 21  2  0
 24 26  1  0
 24 23  1  1
 24 25  1  0
 27 26  1  1
 27 28  1  0
 28 21  1  0
 29 27  1  0
 29 30  1  0
 31 29  2  0
M  END
$$$$
