WIL.pdb
     RDKit          3D

 31 32  0  0  1  0  0  0  0  0999 V2000
    5.5498  -17.9730   24.2147 N   0  0  0  0  0  0  0  0  0  0  0  0
    6.2756  -16.7328   24.0947 C   0  0  1  0  0  0  0  0  0  0  0  0
    6.8591  -16.3491   25.4331 C   0  0  0  0  0  0  0  0  0  0  0  0
    6.2144  -15.1324   25.9804 C   0  0  0  0  0  0  0  0  0  0  0  0
    4.9577  -15.0699   26.5400 C   0  0  0  0  0  0  0  0  0  0  0  0
    4.7309  -13.7983   26.9177 N   0  0  0  0  0  0  0  0  0  0  0  0
    5.7703  -13.0166   26.6379 C   0  0  0  0  0  0  0  0  0  0  0  0
    6.0202  -11.6760   26.8239 C   0  0  0  0  0  0  0  0  0  0  0  0
    7.2377  -11.1300   26.4152 C   0  0  0  0  0  0  0  0  0  0  0  0
    8.1604  -11.9764   25.8286 C   0  0  0  0  0  0  0  0  0  0  0  0
    7.9209  -13.3249   25.6363 C   0  0  0  0  0  0  0  0  0  0  0  0
    6.7095  -13.8519   26.0466 C   0  0  0  0  0  0  0  0  0  0  0  0
    7.3529  -16.9090   23.0665 C   0  0  0  0  0  0  0  0  0  0  0  0
    7.8744  -18.0468   23.0247 O   0  0  0  0  0  0  0  0  0  0  0  0
    7.6046  -12.7054   19.5023 C   0  0  0  0  0  0  0  0  0  0  0  0
    7.7844  -14.1008   20.0232 C   0  0  0  0  0  0  0  0  0  0  0  0
    9.0023  -14.2275   20.9137 C   0  0  2  0  0  0  0  0  0  0  0  0
   10.2259  -13.9714   20.0806 C   0  0  0  0  0  0  0  0  0  0  0  0
    9.0219  -15.4765   21.7336 C   0  0  2  0  0  0  0  0  0  0  0  0
    7.7198  -15.8502   22.2314 N   0  0  0  0  0  0  0  0  0  0  0  0
   10.0514  -15.6029   22.7568 C   0  0  0  0  0  0  0  0  0  0  0  0
   11.3008  -15.6919   22.4031 O   0  0  0  0  0  0  0  0  0  0  0  0
   10.4458  -13.6569   28.4335 C   0  0  0  0  0  0  0  0  0  0  0  0
   11.2488  -14.6332   27.5073 C   0  0  1  0  0  0  0  0  0  0  0  0
   11.5220  -15.8344   28.3608 C   0  0  0  0  0  0  0  0  0  0  0  0
   10.4733  -14.8423   26.2735 C   0  0  0  0  0  0  0  0  0  0  0  0
   11.0395  -15.5305   25.0986 C   0  0  2  0  0  0  0  0  0  0  0  0
    9.8708  -15.6372   24.1554 N   0  0  0  0  0  0  0  0  0  0  0  0
   11.5434  -16.8828   25.3659 C   0  0  0  0  0  0  0  0  0  0  0  0
   10.7069  -17.9819   25.3221 O   0  0  0  0  0  0  0  0  0  0  0  0
   12.7645  -17.0596   25.6505 O   0  0  0  0  0  0  0  0  0  0  0  0
  2  1  1  1
  2  3  1  0
  3  4  1  0
  4 12  1  0
  4  5  2  0
  5  6  1  0
  7  6  1  0
  7  8  2  0
  9  8  1  0
 10  9  2  0
 11 10  1  0
 11 12  2  0
 12  7  1  0
 13  2  1  0
 13 20  1  0
 14 13  2  0
 15 16  1  0
 16 17  1  0
 17 18  1  6
 19 17  1  0
 19 20  1  1
 21 19  1  0
 22 21  2  0
 24 26  1  0
 24 23  1  1
 24 25  1  0
 27 26  1  1
 27 28  1  0
 28 21  1  0
 29 27  1  0
 29 30  1  0
 31 29  2  0
M  END
$$$$
