WIL.pdb
     RDKit          3D

 31 32  0  0  1  0  0  0  0  0999 V2000
    5.2919  -18.2289   24.2737 N   0  0  0  0  0  0  0  0  0  0  0  0
    5.9982  -16.9751   24.3656 C   0  0  1  0  0  0  0  0  0  0  0  0
    6.4359  -16.7368   25.7906 C   0  0  0  0  0  0  0  0  0  0  0  0
    6.0679  -15.3785   26.2543 C   0  0  0  0  0  0  0  0  0  0  0  0
    4.8794  -15.0276   26.8548 C   0  0  0  0  0  0  0  0  0  0  0  0
    4.9220  -13.7107   27.1286 N   0  0  0  0  0  0  0  0  0  0  0  0
    6.0751  -13.1719   26.7412 C   0  0  0  0  0  0  0  0  0  0  0  0
    6.5874  -11.8958   26.7995 C   0  0  0  0  0  0  0  0  0  0  0  0
    7.8626  -11.6325   26.2974 C   0  0  0  0  0  0  0  0  0  0  0  0
    8.5718  -12.6863   25.7515 C   0  0  0  0  0  0  0  0  0  0  0  0
    8.0678  -13.9727   25.6873 C   0  0  0  0  0  0  0  0  0  0  0  0
    6.8024  -14.2186   26.1889 C   0  0  0  0  0  0  0  0  0  0  0  0
    7.1767  -17.0233   23.4396 C   0  0  0  0  0  0  0  0  0  0  0  0
    7.6130  -18.1693   23.1850 O   0  0  0  0  0  0  0  0  0  0  0  0
    7.5130  -13.2021   19.5798 C   0  0  0  0  0  0  0  0  0  0  0  0
    7.6396  -14.4714   20.3695 C   0  0  0  0  0  0  0  0  0  0  0  0
    8.8785  -14.4837   21.2398 C   0  0  2  0  0  0  0  0  0  0  0  0
   10.0782  -14.2867   20.3573 C   0  0  0  0  0  0  0  0  0  0  0  0
    8.9437  -15.6441   22.1788 C   0  0  2  0  0  0  0  0  0  0  0  0
    7.7209  -15.8465   22.9182 N   0  0  0  0  0  0  0  0  0  0  0  0
   10.1197  -15.7653   23.0303 C   0  0  0  0  0  0  0  0  0  0  0  0
   11.3064  -15.6852   22.5018 O   0  0  0  0  0  0  0  0  0  0  0  0
    9.7229  -15.0024   28.5569 C   0  0  0  0  0  0  0  0  0  0  0  0
   10.0031  -14.7904   27.0297 C   0  0  1  0  0  0  0  0  0  0  0  0
   10.3733  -13.3436   26.9046 C   0  0  0  0  0  0  0  0  0  0  0  0
   11.0015  -15.7837   26.6008 C   0  0  0  0  0  0  0  0  0  0  0  0
   11.4422  -15.8973   25.1981 C   0  0  2  0  0  0  0  0  0  0  0  0
   10.1507  -15.9614   24.4270 N   0  0  0  0  0  0  0  0  0  0  0  0
   12.2210  -17.1045   24.8976 C   0  0  0  0  0  0  0  0  0  0  0  0
   13.5501  -17.2099   25.2612 O   0  0  0  0  0  0  0  0  0  0  0  0
   11.6795  -18.0729   24.2875 O   0  0  0  0  0  0  0  0  0  0  0  0
  2  1  1  1
  2  3  1  0
  3  4  1  0
  4 12  1  0
  4  5  2  0
  5  6  1  0
  7  6  1  0
  7  8  2  0
  9  8  1  0
 10  9  2  0
 11 10  1  0
 11 12  2  0
 12  7  1  0
 13  2  1  0
 13 20  1  0
 14 13  2  0
 15 16  1  0
 16 17  1  0
 17 18  1  6
 19 17  1  0
 19 20  1  1
 21 19  1  0
 22 21  2  0
 24 26  1  0
 24 23  1  1
 24 25  1  0
 27 26  1  1
 27 28  1  0
 28 21  1  0
 29 27  1  0
 29 30  1  0
 31 29  2  0
M  END
$$$$
