WIL.pdb
     RDKit          3D

 31 32  0  0  1  0  0  0  0  0999 V2000
   11.4563  -17.2141   19.2506 N   0  0  0  0  0  0  0  0  0  0  0  0
   11.0139  -17.8824   20.4493 C   0  0  1  0  0  0  0  0  0  0  0  0
   12.0434  -18.8997   20.8784 C   0  0  0  0  0  0  0  0  0  0  0  0
   11.4080  -20.1182   21.4326 C   0  0  0  0  0  0  0  0  0  0  0  0
   10.6587  -21.0292   20.7222 C   0  0  0  0  0  0  0  0  0  0  0  0
   10.2564  -21.9926   21.5713 N   0  0  0  0  0  0  0  0  0  0  0  0
   10.6996  -21.7674   22.8053 C   0  0  0  0  0  0  0  0  0  0  0  0
   10.5619  -22.4441   23.9958 C   0  0  0  0  0  0  0  0  0  0  0  0
   11.1594  -21.9461   25.1545 C   0  0  0  0  0  0  0  0  0  0  0  0
   11.8791  -20.7697   25.0553 C   0  0  0  0  0  0  0  0  0  0  0  0
   12.0246  -20.0808   23.8649 C   0  0  0  0  0  0  0  0  0  0  0  0
   11.4267  -20.5866   22.7247 C   0  0  0  0  0  0  0  0  0  0  0  0
   10.7957  -16.8516   21.5164 C   0  0  0  0  0  0  0  0  0  0  0  0
   11.7540  -16.0691   21.7111 O   0  0  0  0  0  0  0  0  0  0  0  0
    6.4355  -13.9802   21.3403 C   0  0  0  0  0  0  0  0  0  0  0  0
    7.8181  -14.4446   21.6917 C   0  0  0  0  0  0  0  0  0  0  0  0
    7.8429  -15.2532   22.9715 C   0  0  2  0  0  0  0  0  0  0  0  0
    7.2707  -14.4095   24.0750 C   0  0  0  0  0  0  0  0  0  0  0  0
    9.1642  -15.8899   23.2564 C   0  0  2  0  0  0  0  0  0  0  0  0
    9.5906  -16.8018   22.2222 N   0  0  0  0  0  0  0  0  0  0  0  0
    9.3822  -16.4390   24.5882 C   0  0  0  0  0  0  0  0  0  0  0  0
    9.3665  -17.7288   24.7617 O   0  0  0  0  0  0  0  0  0  0  0  0
   10.0026  -13.0891   29.0138 C   0  0  0  0  0  0  0  0  0  0  0  0
   10.2605  -13.9641   27.7395 C   0  0  1  0  0  0  0  0  0  0  0  0
   11.6678  -13.6464   27.3342 C   0  0  0  0  0  0  0  0  0  0  0  0
    9.9517  -15.3649   28.0706 C   0  0  0  0  0  0  0  0  0  0  0  0
    9.9876  -16.4362   27.0579 C   0  0  2  0  0  0  0  0  0  0  0  0
    9.6284  -15.7256   25.7801 N   0  0  0  0  0  0  0  0  0  0  0  0
    9.0176  -17.5161   27.2753 C   0  0  0  0  0  0  0  0  0  0  0  0
    9.2919  -18.5652   28.1320 O   0  0  0  0  0  0  0  0  0  0  0  0
    7.9070  -17.5027   26.6673 O   0  0  0  0  0  0  0  0  0  0  0  0
  2  1  1  6
  2  3  1  0
  3  4  1  0
  4 12  1  0
  4  5  2  0
  5  6  1  0
  7  6  1  0
  7  8  2  0
  9  8  1  0
 10  9  2  0
 11 10  1  0
 11 12  2  0
 12  7  1  0
 13  2  1  0
 13 20  1  0
 14 13  2  0
 15 16  1  0
 16 17  1  0
 17 18  1  1
 19 17  1  0
 19 20  1  6
 21 19  1  0
 22 21  2  0
 24 26  1  0
 24 23  1  1
 24 25  1  0
 27 26  1  1
 27 28  1  0
 28 21  1  0
 29 27  1  0
 29 30  1  0
 31 29  2  0
M  END
$$$$
