WIL.pdb
     RDKit          3D

 31 32  0  0  1  0  0  0  0  0999 V2000
    9.0179  -16.2988   24.8022 N   0  0  0  0  0  0  0  0  0  0  0  0
    7.6845  -16.7512   24.4911 C   0  0  1  0  0  0  0  0  0  0  0  0
    6.6842  -16.0413   25.3711 C   0  0  0  0  0  0  0  0  0  0  0  0
    7.3131  -14.9334   26.1277 C   0  0  0  0  0  0  0  0  0  0  0  0
    8.5150  -14.9962   26.7967 C   0  0  0  0  0  0  0  0  0  0  0  0
    8.7449  -13.7946   27.3573 N   0  0  0  0  0  0  0  0  0  0  0  0
    7.7594  -12.9404   27.0947 C   0  0  0  0  0  0  0  0  0  0  0  0
    7.5345  -11.6256   27.4338 C   0  0  0  0  0  0  0  0  0  0  0  0
    6.3764  -10.9809   26.9971 C   0  0  0  0  0  0  0  0  0  0  0  0
    5.4857  -11.7051   26.2265 C   0  0  0  0  0  0  0  0  0  0  0  0
    5.7006  -13.0265   25.8794 C   0  0  0  0  0  0  0  0  0  0  0  0
    6.8530  -13.6524   26.3195 C   0  0  0  0  0  0  0  0  0  0  0  0
    7.4159  -16.4804   23.0408 C   0  0  0  0  0  0  0  0  0  0  0  0
    6.3176  -16.9012   22.6104 O   0  0  0  0  0  0  0  0  0  0  0  0
    8.0622  -11.8642   21.0670 C   0  0  0  0  0  0  0  0  0  0  0  0
    7.5731  -13.2824   21.0501 C   0  0  0  0  0  0  0  0  0  0  0  0
    8.5623  -14.2219   20.3936 C   0  0  2  0  0  0  0  0  0  0  0  0
    8.5321  -13.9799   18.9112 C   0  0  0  0  0  0  0  0  0  0  0  0
    8.4186  -15.6453   20.8247 C   0  0  2  0  0  0  0  0  0  0  0  0
    8.3534  -15.8015   22.2579 N   0  0  0  0  0  0  0  0  0  0  0  0
    9.2940  -16.6344   20.2098 C   0  0  0  0  0  0  0  0  0  0  0  0
    9.1977  -16.8724   18.9338 O   0  0  0  0  0  0  0  0  0  0  0  0
   13.3827  -15.2674   18.3093 C   0  0  0  0  0  0  0  0  0  0  0  0
   13.4629  -15.6554   19.8255 C   0  0  1  0  0  0  0  0  0  0  0  0
   14.0805  -14.4649   20.4941 C   0  0  0  0  0  0  0  0  0  0  0  0
   12.1193  -16.0599   20.2707 C   0  0  0  0  0  0  0  0  0  0  0  0
   11.6935  -17.4715   20.2960 C   0  0  2  0  0  0  0  0  0  0  0  0
   10.2914  -17.4071   20.8407 N   0  0  0  0  0  0  0  0  0  0  0  0
   12.4917  -18.3355   21.1737 C   0  0  0  0  0  0  0  0  0  0  0  0
   12.0316  -18.7124   22.4211 O   0  0  0  0  0  0  0  0  0  0  0  0
   13.6290  -18.7449   20.7966 O   0  0  0  0  0  0  0  0  0  0  0  0
  2  1  1  1
  2  3  1  0
  3  4  1  0
  4 12  1  0
  4  5  2  0
  5  6  1  0
  7  6  1  0
  7  8  2  0
  9  8  1  0
 10  9  2  0
 11 10  1  0
 11 12  2  0
 12  7  1  0
 13  2  1  0
 13 20  1  0
 14 13  2  0
 15 16  1  0
 16 17  1  0
 17 18  1  6
 19 17  1  0
 19 20  1  1
 21 19  1  0
 22 21  2  0
 24 26  1  0
 24 23  1  6
 24 25  1  0
 27 26  1  1
 27 28  1  0
 28 21  1  0
 29 27  1  0
 29 30  1  0
 31 29  2  0
M  END
$$$$
