WIL.pdb
     RDKit          3D

 31 32  0  0  1  0  0  0  0  0999 V2000
    5.6083  -18.2240   24.5517 N   0  0  0  0  0  0  0  0  0  0  0  0
    6.1772  -16.9026   24.4549 C   0  0  1  0  0  0  0  0  0  0  0  0
    6.5623  -16.4086   25.8285 C   0  0  0  0  0  0  0  0  0  0  0  0
    5.8727  -15.1412   26.1654 C   0  0  0  0  0  0  0  0  0  0  0  0
    4.5627  -15.0212   26.5723 C   0  0  0  0  0  0  0  0  0  0  0  0
    4.3076  -13.7166   26.7819 N   0  0  0  0  0  0  0  0  0  0  0  0
    5.3789  -12.9673   26.5353 C   0  0  0  0  0  0  0  0  0  0  0  0
    5.6194  -11.6138   26.6007 C   0  0  0  0  0  0  0  0  0  0  0  0
    6.8797  -11.1125   26.2722 C   0  0  0  0  0  0  0  0  0  0  0  0
    7.8534  -12.0155   25.8870 C   0  0  0  0  0  0  0  0  0  0  0  0
    7.6238  -13.3775   25.8174 C   0  0  0  0  0  0  0  0  0  0  0  0
    6.3697  -13.8598   26.1460 C   0  0  0  0  0  0  0  0  0  0  0  0
    7.3705  -16.9629   23.5486 C   0  0  0  0  0  0  0  0  0  0  0  0
    7.9086  -18.0889   23.4435 O   0  0  0  0  0  0  0  0  0  0  0  0
    7.5554  -12.9373   19.7865 C   0  0  0  0  0  0  0  0  0  0  0  0
    7.6733  -14.2648   20.4753 C   0  0  0  0  0  0  0  0  0  0  0  0
    8.9673  -14.3953   21.2504 C   0  0  2  0  0  0  0  0  0  0  0  0
   10.1116  -14.2217   20.2926 C   0  0  0  0  0  0  0  0  0  0  0  0
    9.0269  -15.6059   22.1242 C   0  0  2  0  0  0  0  0  0  0  0  0
    7.8190  -15.8177   22.8851 N   0  0  0  0  0  0  0  0  0  0  0  0
   10.2212  -15.8018   22.9353 C   0  0  0  0  0  0  0  0  0  0  0  0
   11.3940  -15.7594   22.3723 O   0  0  0  0  0  0  0  0  0  0  0  0
    9.9808  -15.1642   28.4987 C   0  0  0  0  0  0  0  0  0  0  0  0
   10.3340  -14.8359   27.0077 C   0  0  1  0  0  0  0  0  0  0  0  0
   10.9234  -13.4586   27.0473 C   0  0  0  0  0  0  0  0  0  0  0  0
   11.1817  -15.9196   26.4842 C   0  0  0  0  0  0  0  0  0  0  0  0
   11.5925  -15.9799   25.0691 C   0  0  2  0  0  0  0  0  0  0  0  0
   10.2852  -16.0373   24.3247 N   0  0  0  0  0  0  0  0  0  0  0  0
   12.3813  -17.1647   24.7113 C   0  0  0  0  0  0  0  0  0  0  0  0
   11.8456  -18.1764   23.9371 O   0  0  0  0  0  0  0  0  0  0  0  0
   13.5747  -17.2788   25.1188 O   0  0  0  0  0  0  0  0  0  0  0  0
  2  1  1  1
  2  3  1  0
  3  4  1  0
  4 12  1  0
  4  5  2  0
  5  6  1  0
  7  6  1  0
  7  8  2  0
  9  8  1  0
 10  9  2  0
 11 10  1  0
 11 12  2  0
 12  7  1  0
 13  2  1  0
 13 20  1  0
 14 13  2  0
 15 16  1  0
 16 17  1  0
 17 18  1  6
 19 17  1  0
 19 20  1  1
 21 19  1  0
 22 21  2  0
 24 26  1  0
 24 23  1  1
 24 25  1  0
 27 26  1  1
 27 28  1  0
 28 21  1  0
 29 27  1  0
 29 30  1  0
 31 29  2  0
M  END
$$$$
