WIL.pdb
     RDKit          3D

 31 32  0  0  1  0  0  0  0  0999 V2000
    5.8751  -18.2988   25.3184 N   0  0  0  0  0  0  0  0  0  0  0  0
    6.3928  -17.0001   24.9652 C   0  0  1  0  0  0  0  0  0  0  0  0
    6.8566  -16.2783   26.2073 C   0  0  0  0  0  0  0  0  0  0  0  0
    6.1601  -14.9815   26.3766 C   0  0  0  0  0  0  0  0  0  0  0  0
    4.8050  -14.8128   26.5534 C   0  0  0  0  0  0  0  0  0  0  0  0
    4.5591  -13.4947   26.6687 N   0  0  0  0  0  0  0  0  0  0  0  0
    5.6791  -12.7827   26.5777 C   0  0  0  0  0  0  0  0  0  0  0  0
    5.9471  -11.4339   26.6323 C   0  0  0  0  0  0  0  0  0  0  0  0
    7.2595  -10.9775   26.5014 C   0  0  0  0  0  0  0  0  0  0  0  0
    8.2552  -11.9192   26.3186 C   0  0  0  0  0  0  0  0  0  0  0  0
    7.9984  -13.2770   26.2620 C   0  0  0  0  0  0  0  0  0  0  0  0
    6.6928  -13.7144   26.3934 C   0  0  0  0  0  0  0  0  0  0  0  0
    7.5211  -17.1848   23.9949 C   0  0  0  0  0  0  0  0  0  0  0  0
    8.1887  -18.2343   24.1411 O   0  0  0  0  0  0  0  0  0  0  0  0
    7.0784  -14.0193   19.7152 C   0  0  0  0  0  0  0  0  0  0  0  0
    7.6395  -15.2426   20.3783 C   0  0  0  0  0  0  0  0  0  0  0  0
    8.8518  -14.9281   21.2291 C   0  0  2  0  0  0  0  0  0  0  0  0
   10.0415  -14.7866   20.3228 C   0  0  0  0  0  0  0  0  0  0  0  0
    9.0254  -15.8478   22.3938 C   0  0  2  0  0  0  0  0  0  0  0  0
    7.7766  -16.2273   23.0096 N   0  0  0  0  0  0  0  0  0  0  0  0
   10.0383  -15.5079   23.3843 C   0  0  0  0  0  0  0  0  0  0  0  0
   10.1886  -14.2677   23.7496 O   0  0  0  0  0  0  0  0  0  0  0  0
    9.1794  -15.8422   27.5638 C   0  0  0  0  0  0  0  0  0  0  0  0
   10.3347  -15.0614   26.8487 C   0  0  1  0  0  0  0  0  0  0  0  0
   10.8283  -14.0843   27.8721 C   0  0  0  0  0  0  0  0  0  0  0  0
   11.3016  -16.0416   26.3277 C   0  0  0  0  0  0  0  0  0  0  0  0
   11.9537  -15.8784   25.0151 C   0  0  2  0  0  0  0  0  0  0  0  0
   10.9225  -16.3875   24.0434 N   0  0  0  0  0  0  0  0  0  0  0  0
   13.1815  -16.6633   24.8404 C   0  0  0  0  0  0  0  0  0  0  0  0
   13.1960  -17.8112   24.0711 O   0  0  0  0  0  0  0  0  0  0  0  0
   14.2538  -16.2973   25.4057 O   0  0  0  0  0  0  0  0  0  0  0  0
  2  1  1  1
  2  3  1  0
  3  4  1  0
  4 12  1  0
  4  5  2  0
  5  6  1  0
  7  6  1  0
  7  8  2  0
  9  8  1  0
 10  9  2  0
 11 10  1  0
 11 12  2  0
 12  7  1  0
 13  2  1  0
 13 20  1  0
 14 13  2  0
 15 16  1  0
 16 17  1  0
 17 18  1  6
 19 17  1  0
 19 20  1  1
 21 19  1  0
 22 21  2  0
 24 26  1  0
 24 23  1  1
 24 25  1  0
 27 26  1  1
 27 28  1  0
 28 21  1  0
 29 27  1  0
 29 30  1  0
 31 29  2  0
M  END
$$$$
