QVK.pdb
     RDKit          3D

 26 25  0  0  1  0  0  0  0  0999 V2000
   27.8671  -17.4140  -15.5115 N   0  0  0  0  0  0  0  0  0  0  0  0
   28.3569  -17.5953  -16.8542 C   0  0  0  0  0  0  0  0  0  0  0  0
   29.1073  -16.7259  -17.3390 O   0  0  0  0  0  0  0  0  0  0  0  0
   27.9641  -18.7942  -17.6242 C   0  0  0  0  0  0  0  0  0  0  0  0
   27.1525  -19.7635  -16.8280 C   0  0  0  0  0  0  0  0  0  0  0  0
   27.8624  -20.2728  -15.6023 C   0  0  2  0  0  0  0  0  0  0  0  0
   28.9140  -21.1694  -16.1232 N   0  0  0  0  0  0  0  0  0  0  0  0
   26.9883  -21.0471  -14.6871 C   0  0  0  0  0  0  0  0  0  0  0  0
   26.7739  -22.2702  -14.9716 O   0  0  0  0  0  0  0  0  0  0  0  0
   24.9548  -21.7540  -10.2441 C   0  0  0  0  0  0  0  0  0  0  0  0
   25.6789  -20.9337  -11.2630 C   0  0  2  0  0  0  0  0  0  0  0  0
   25.2390  -19.4828  -11.1701 C   0  0  0  0  0  0  0  0  0  0  0  0
   25.5470  -21.4193  -12.6889 C   0  0  2  0  0  0  0  0  0  0  0  0
   26.3763  -20.5411  -13.5251 N   0  0  0  0  0  0  0  0  0  0  0  0
   24.1329  -21.2917  -13.1176 C   0  0  0  0  0  0  0  0  0  0  0  0
   23.7387  -20.2456  -13.7558 O   0  0  0  0  0  0  0  0  0  0  0  0
   23.1020  -22.2423  -12.8998 N   0  0  0  0  0  0  0  0  0  0  0  0
   21.7543  -22.0331  -13.3646 C   0  0  1  0  0  0  0  0  0  0  0  0
   20.9052  -23.2258  -13.1116 C   0  0  0  0  0  0  0  0  0  0  0  0
   19.4823  -23.2079  -13.4711 C   0  0  0  0  0  0  0  0  0  0  0  0
   18.7478  -24.4694  -13.2024 C   0  0  0  0  0  0  0  0  0  0  0  0
   17.3173  -24.4004  -13.7887 C   0  0  0  0  0  0  0  0  0  0  0  0
   16.6355  -25.6535  -13.5905 N   0  0  0  0  0  0  0  0  0  0  0  0
   21.0935  -20.9140  -12.6064 C   0  0  0  0  0  0  0  0  0  0  0  0
   20.2027  -20.0926  -13.2353 O   0  0  0  0  0  0  0  0  0  0  0  0
   21.3781  -20.7661  -11.4190 O   0  0  0  0  0  0  0  0  0  0  0  0
  2  3  2  0
  2  1  1  0
  4  2  1  0
  5  4  1  0
  6  5  1  0
  6  7  1  6
  8  9  2  0
  8  6  1  0
 11 10  1  1
 11 12  1  0
 11 13  1  0
 13 14  1  6
 14  8  1  0
 15 16  2  0
 15 13  1  0
 17 15  1  0
 18 19  1  1
 18 17  1  0
 20 21  1  0
 20 19  1  0
 22 21  1  0
 23 22  1  0
 24 18  1  0
 25 24  1  0
 26 24  2  0
M  END
$$$$
