QVK.pdb
     RDKit          3D

 26 25  0  0  1  0  0  0  0  0999 V2000
   17.8511  -20.8305  -16.0117 N   0  0  0  0  0  0  0  0  0  0  0  0
   18.4684  -19.5376  -16.1630 C   0  0  0  0  0  0  0  0  0  0  0  0
   18.2025  -18.8635  -17.1772 O   0  0  0  0  0  0  0  0  0  0  0  0
   19.3963  -19.0403  -15.1255 C   0  0  0  0  0  0  0  0  0  0  0  0
   19.5800  -19.9986  -13.9940 C   0  0  0  0  0  0  0  0  0  0  0  0
   21.0013  -20.0822  -13.5060 C   0  0  2  0  0  0  0  0  0  0  0  0
   21.7549  -20.6525  -14.6410 N   0  0  0  0  0  0  0  0  0  0  0  0
   21.1749  -20.9672  -12.3279 C   0  0  0  0  0  0  0  0  0  0  0  0
   21.3645  -22.2079  -12.5459 O   0  0  0  0  0  0  0  0  0  0  0  0
   22.3630  -21.5806   -7.5639 C   0  0  0  0  0  0  0  0  0  0  0  0
   22.1463  -20.7922   -8.8157 C   0  0  2  0  0  0  0  0  0  0  0  0
   21.4512  -19.4814   -8.4905 C   0  0  0  0  0  0  0  0  0  0  0  0
   21.3907  -21.5164   -9.9071 C   0  0  2  0  0  0  0  0  0  0  0  0
   21.1498  -20.5475  -10.9848 N   0  0  0  0  0  0  0  0  0  0  0  0
   20.0842  -21.9729   -9.3738 C   0  0  0  0  0  0  0  0  0  0  0  0
   19.0715  -21.1781   -9.3658 O   0  0  0  0  0  0  0  0  0  0  0  0
   19.7978  -23.2579   -8.8440 N   0  0  0  0  0  0  0  0  0  0  0  0
   18.4908  -23.6110   -8.3511 C   0  0  1  0  0  0  0  0  0  0  0  0
   18.1372  -25.0080   -8.7129 C   0  0  0  0  0  0  0  0  0  0  0  0
   16.8060  -25.5380   -8.3949 C   0  0  0  0  0  0  0  0  0  0  0  0
   16.5544  -26.9277   -8.8516 C   0  0  0  0  0  0  0  0  0  0  0  0
   15.0958  -27.3443   -8.5455 C   0  0  0  0  0  0  0  0  0  0  0  0
   14.8787  -28.7168   -8.9243 N   0  0  0  0  0  0  0  0  0  0  0  0
   18.4576  -23.5758   -6.8472 C   0  0  0  0  0  0  0  0  0  0  0  0
   19.6168  -23.6786   -6.1336 O   0  0  0  0  0  0  0  0  0  0  0  0
   17.3677  -23.4532   -6.2906 O   0  0  0  0  0  0  0  0  0  0  0  0
  2  3  2  0
  2  1  1  0
  4  2  1  0
  5  4  1  0
  6  5  1  0
  6  7  1  6
  8  9  2  0
  8  6  1  0
 11 10  1  1
 11 12  1  0
 11 13  1  0
 13 14  1  6
 14  8  1  0
 15 16  2  0
 15 13  1  0
 17 15  1  0
 18 19  1  1
 18 17  1  0
 20 21  1  0
 20 19  1  0
 22 21  1  0
 23 22  1  0
 24 18  1  0
 25 24  1  0
 26 24  2  0
M  END
$$$$
