QVK.pdb
     RDKit          3D

 26 25  0  0  1  0  0  0  0  0999 V2000
   14.8685   -9.9447  -17.2415 N   0  0  0  0  0  0  0  0  0  0  0  0
   15.9095   -9.8008  -18.2270 C   0  0  0  0  0  0  0  0  0  0  0  0
   15.5978   -9.8275  -19.4336 O   0  0  0  0  0  0  0  0  0  0  0  0
   17.3121   -9.6275  -17.7944 C   0  0  0  0  0  0  0  0  0  0  0  0
   17.4818   -9.6950  -16.3115 C   0  0  0  0  0  0  0  0  0  0  0  0
   18.9107   -9.5378  -15.8654 C   0  0  2  0  0  0  0  0  0  0  0  0
   19.5757  -10.7866  -16.2893 N   0  0  0  0  0  0  0  0  0  0  0  0
   19.0630   -9.3935  -14.3966 C   0  0  0  0  0  0  0  0  0  0  0  0
   18.9228  -10.4401  -13.6840 O   0  0  0  0  0  0  0  0  0  0  0  0
   20.8330   -6.0775  -12.5119 C   0  0  0  0  0  0  0  0  0  0  0  0
   20.6777   -7.4220  -11.8766 C   0  0  2  0  0  0  0  0  0  0  0  0
   21.8953   -8.2805  -12.1730 C   0  0  0  0  0  0  0  0  0  0  0  0
   19.4189   -8.1690  -12.2559 C   0  0  2  0  0  0  0  0  0  0  0  0
   19.3531   -8.1921  -13.7233 N   0  0  0  0  0  0  0  0  0  0  0  0
   18.2409   -7.4329  -11.7361 C   0  0  0  0  0  0  0  0  0  0  0  0
   17.7014   -6.4942  -12.4325 O   0  0  0  0  0  0  0  0  0  0  0  0
   17.5960   -7.6548  -10.4916 N   0  0  0  0  0  0  0  0  0  0  0  0
   16.4695   -6.8671  -10.0597 C   0  0  1  0  0  0  0  0  0  0  0  0
   15.3810   -7.7281   -9.5291 C   0  0  0  0  0  0  0  0  0  0  0  0
   14.1787   -7.1215   -8.9454 C   0  0  0  0  0  0  0  0  0  0  0  0
   13.1904   -8.0827   -8.3956 C   0  0  0  0  0  0  0  0  0  0  0  0
   11.9756   -7.3316   -7.7998 C   0  0  0  0  0  0  0  0  0  0  0  0
   11.0701   -8.2620   -7.1764 N   0  0  0  0  0  0  0  0  0  0  0  0
   16.8511   -5.9685   -8.9149 C   0  0  0  0  0  0  0  0  0  0  0  0
   16.1286   -4.8385   -8.6604 O   0  0  0  0  0  0  0  0  0  0  0  0
   17.8211   -6.2811   -8.2262 O   0  0  0  0  0  0  0  0  0  0  0  0
  2  3  2  0
  2  1  1  0
  4  2  1  0
  5  4  1  0
  6  5  1  0
  6  7  1  1
  8  9  2  0
  8  6  1  0
 11 10  1  6
 11 12  1  0
 11 13  1  0
 13 14  1  6
 14  8  1  0
 15 16  2  0
 15 13  1  0
 17 15  1  0
 18 19  1  1
 18 17  1  0
 20 21  1  0
 20 19  1  0
 22 21  1  0
 23 22  1  0
 24 18  1  0
 25 24  1  0
 26 24  2  0
M  END
$$$$
