QVK.pdb
     RDKit          3D

 26 25  0  0  1  0  0  0  0  0999 V2000
   30.0789  -24.4034  -18.9038 N   0  0  0  0  0  0  0  0  0  0  0  0
   28.9666  -24.3123  -19.8149 C   0  0  0  0  0  0  0  0  0  0  0  0
   29.1867  -24.4077  -21.0381 O   0  0  0  0  0  0  0  0  0  0  0  0
   27.6005  -24.1084  -19.2889 C   0  0  0  0  0  0  0  0  0  0  0  0
   27.5388  -24.1172  -17.7961 C   0  0  0  0  0  0  0  0  0  0  0  0
   28.3244  -23.0029  -17.1585 C   0  0  2  0  0  0  0  0  0  0  0  0
   29.3924  -23.6837  -16.3988 N   0  0  0  0  0  0  0  0  0  0  0  0
   27.5279  -22.1746  -16.2199 C   0  0  0  0  0  0  0  0  0  0  0  0
   27.3269  -22.6378  -15.0504 O   0  0  0  0  0  0  0  0  0  0  0  0
   25.7695  -17.7768  -14.7935 C   0  0  0  0  0  0  0  0  0  0  0  0
   26.4678  -18.7011  -15.7387 C   0  0  2  0  0  0  0  0  0  0  0  0
   26.0900  -18.3630  -17.1706 C   0  0  0  0  0  0  0  0  0  0  0  0
   26.2393  -20.1736  -15.4821 C   0  0  2  0  0  0  0  0  0  0  0  0
   26.9762  -20.9139  -16.5152 N   0  0  0  0  0  0  0  0  0  0  0  0
   24.7932  -20.4729  -15.6195 C   0  0  0  0  0  0  0  0  0  0  0  0
   24.2690  -20.6280  -16.7851 O   0  0  0  0  0  0  0  0  0  0  0  0
   23.8634  -20.6219  -14.5578 N   0  0  0  0  0  0  0  0  0  0  0  0
   22.4812  -20.9561  -14.7893 C   0  0  1  0  0  0  0  0  0  0  0  0
   21.8942  -21.6629  -13.6215 C   0  0  0  0  0  0  0  0  0  0  0  0
   20.4805  -22.0571  -13.6320 C   0  0  0  0  0  0  0  0  0  0  0  0
   19.9973  -22.7064  -12.3879 C   0  0  0  0  0  0  0  0  0  0  0  0
   18.5434  -23.2058  -12.5653 C   0  0  0  0  0  0  0  0  0  0  0  0
   18.1259  -23.9498  -11.4049 N   0  0  0  0  0  0  0  0  0  0  0  0
   21.6493  -19.7132  -14.9531 C   0  0  0  0  0  0  0  0  0  0  0  0
   20.4985  -19.7506  -15.6866 O   0  0  0  0  0  0  0  0  0  0  0  0
   22.0348  -18.6778  -14.4125 O   0  0  0  0  0  0  0  0  0  0  0  0
  2  3  2  0
  2  1  1  0
  4  2  1  0
  5  4  1  0
  6  5  1  0
  6  7  1  1
  8  9  2  0
  8  6  1  0
 11 10  1  1
 11 12  1  0
 11 13  1  0
 13 14  1  6
 14  8  1  0
 15 16  2  0
 15 13  1  0
 17 15  1  0
 18 19  1  1
 18 17  1  0
 20 21  1  0
 20 19  1  0
 22 21  1  0
 23 22  1  0
 24 18  1  0
 25 24  1  0
 26 24  2  0
M  END
$$$$
