QVK.pdb
     RDKit          3D

 26 25  0  0  1  0  0  0  0  0999 V2000
   25.3062  -27.6786  -19.6322 N   0  0  0  0  0  0  0  0  0  0  0  0
   26.3701  -28.6396  -19.7739 C   0  0  0  0  0  0  0  0  0  0  0  0
   26.6724  -29.0320  -20.9178 O   0  0  0  0  0  0  0  0  0  0  0  0
   27.0750  -29.1381  -18.5742 C   0  0  0  0  0  0  0  0  0  0  0  0
   26.5423  -28.5668  -17.3006 C   0  0  0  0  0  0  0  0  0  0  0  0
   26.9829  -27.1495  -17.0505 C   0  0  2  0  0  0  0  0  0  0  0  0
   28.3883  -27.2654  -16.6115 N   0  0  0  0  0  0  0  0  0  0  0  0
   26.2080  -26.4643  -15.9869 C   0  0  0  0  0  0  0  0  0  0  0  0
   26.6797  -26.4915  -14.8038 O   0  0  0  0  0  0  0  0  0  0  0  0
   23.9488  -23.1015  -16.6584 C   0  0  0  0  0  0  0  0  0  0  0  0
   24.5664  -23.5608  -15.3766 C   0  0  2  0  0  0  0  0  0  0  0  0
   26.0430  -23.2051  -15.3544 C   0  0  0  0  0  0  0  0  0  0  0  0
   24.3883  -25.0306  -15.0693 C   0  0  2  0  0  0  0  0  0  0  0  0
   24.9918  -25.7822  -16.1779 N   0  0  0  0  0  0  0  0  0  0  0  0
   22.9397  -25.3438  -15.0122 C   0  0  0  0  0  0  0  0  0  0  0  0
   22.2843  -25.5891  -16.0928 O   0  0  0  0  0  0  0  0  0  0  0  0
   22.1428  -25.4139  -13.8401 N   0  0  0  0  0  0  0  0  0  0  0  0
   20.7528  -25.7913  -13.8785 C   0  0  1  0  0  0  0  0  0  0  0  0
   20.3379  -26.4512  -12.6136 C   0  0  0  0  0  0  0  0  0  0  0  0
   20.9701  -27.7080  -12.1954 C   0  0  0  0  0  0  0  0  0  0  0  0
   20.6028  -28.1773  -10.8360 C   0  0  0  0  0  0  0  0  0  0  0  0
   21.3113  -29.5146  -10.5132 C   0  0  0  0  0  0  0  0  0  0  0  0
   20.9823  -29.9445   -9.1786 N   0  0  0  0  0  0  0  0  0  0  0  0
   19.8710  -24.5777  -13.9944 C   0  0  0  0  0  0  0  0  0  0  0  0
   18.5771  -24.7080  -14.4098 O   0  0  0  0  0  0  0  0  0  0  0  0
   20.3474  -23.4808  -13.7068 O   0  0  0  0  0  0  0  0  0  0  0  0
  2  3  2  0
  2  1  1  0
  4  2  1  0
  5  4  1  0
  6  5  1  0
  6  7  1  1
  8  9  2  0
  8  6  1  0
 11 10  1  6
 11 12  1  0
 11 13  1  0
 13 14  1  6
 14  8  1  0
 15 16  2  0
 15 13  1  0
 17 15  1  0
 18 19  1  1
 18 17  1  0
 20 21  1  0
 20 19  1  0
 22 21  1  0
 23 22  1  0
 24 18  1  0
 25 24  1  0
 26 24  2  0
M  END
$$$$
