QVK.pdb
     RDKit          3D

 26 25  0  0  1  0  0  0  0  0999 V2000
   29.3711  -20.0183  -18.0719 N   0  0  0  0  0  0  0  0  0  0  0  0
   28.3789  -19.0749  -17.6236 C   0  0  0  0  0  0  0  0  0  0  0  0
   28.6419  -17.8579  -17.6823 O   0  0  0  0  0  0  0  0  0  0  0  0
   27.0825  -19.5617  -17.1067 C   0  0  0  0  0  0  0  0  0  0  0  0
   26.9913  -21.0522  -17.0604 C   0  0  0  0  0  0  0  0  0  0  0  0
   27.5325  -21.6451  -15.7872 C   0  0  2  0  0  0  0  0  0  0  0  0
   28.1769  -22.9066  -16.2049 N   0  0  0  0  0  0  0  0  0  0  0  0
   26.4851  -21.9564  -14.7835 C   0  0  0  0  0  0  0  0  0  0  0  0
   25.7345  -22.9611  -15.0074 O   0  0  0  0  0  0  0  0  0  0  0  0
   24.6842  -21.4994  -10.1743 C   0  0  0  0  0  0  0  0  0  0  0  0
   25.6293  -21.1631  -11.2830 C   0  0  2  0  0  0  0  0  0  0  0  0
   25.8331  -19.6595  -11.3540 C   0  0  0  0  0  0  0  0  0  0  0  0
   25.2358  -21.6920  -12.6438 C   0  0  2  0  0  0  0  0  0  0  0  0
   26.2529  -21.2325  -13.5991 N   0  0  0  0  0  0  0  0  0  0  0  0
   23.9240  -21.1169  -13.0288 C   0  0  0  0  0  0  0  0  0  0  0  0
   23.8212  -19.8659  -13.3151 O   0  0  0  0  0  0  0  0  0  0  0  0
   22.6966  -21.8220  -13.1298 N   0  0  0  0  0  0  0  0  0  0  0  0
   21.4583  -21.1639  -13.4605 C   0  0  1  0  0  0  0  0  0  0  0  0
   20.5371  -22.0792  -14.1827 C   0  0  0  0  0  0  0  0  0  0  0  0
   19.1891  -21.6301  -14.5502 C   0  0  0  0  0  0  0  0  0  0  0  0
   18.3538  -22.6424  -15.2434 C   0  0  0  0  0  0  0  0  0  0  0  0
   17.0368  -22.0061  -15.7487 C   0  0  0  0  0  0  0  0  0  0  0  0
   16.2709  -22.9703  -16.4957 N   0  0  0  0  0  0  0  0  0  0  0  0
   20.7151  -20.7630  -12.2153 C   0  0  0  0  0  0  0  0  0  0  0  0
   19.9069  -19.6628  -12.2239 O   0  0  0  0  0  0  0  0  0  0  0  0
   20.8578  -21.4491  -11.2044 O   0  0  0  0  0  0  0  0  0  0  0  0
  2  3  2  0
  2  1  1  0
  4  2  1  0
  5  4  1  0
  6  5  1  0
  6  7  1  6
  8  9  2  0
  8  6  1  0
 11 10  1  1
 11 12  1  0
 11 13  1  0
 13 14  1  6
 14  8  1  0
 15 16  2  0
 15 13  1  0
 17 15  1  0
 18 19  1  1
 18 17  1  0
 20 21  1  0
 20 19  1  0
 22 21  1  0
 23 22  1  0
 24 18  1  0
 25 24  1  0
 26 24  2  0
M  END
$$$$
