QVK.pdb
     RDKit          3D

 26 25  0  0  1  0  0  0  0  0999 V2000
   22.7717   -8.8503  -13.4243 N   0  0  0  0  0  0  0  0  0  0  0  0
   23.1793  -10.1254  -13.9566 C   0  0  0  0  0  0  0  0  0  0  0  0
   24.3165  -10.5534  -13.6780 O   0  0  0  0  0  0  0  0  0  0  0  0
   22.2530  -10.8937  -14.8147 C   0  0  0  0  0  0  0  0  0  0  0  0
   20.9381  -10.2134  -15.0156 C   0  0  0  0  0  0  0  0  0  0  0  0
   19.9027  -11.0927  -15.6637 C   0  0  2  0  0  0  0  0  0  0  0  0
   20.5349  -11.5572  -16.9150 N   0  0  0  0  0  0  0  0  0  0  0  0
   18.6455  -10.3813  -16.0023 C   0  0  0  0  0  0  0  0  0  0  0  0
   18.5370   -9.9040  -17.1785 O   0  0  0  0  0  0  0  0  0  0  0  0
   13.8939   -9.9877  -15.0213 C   0  0  0  0  0  0  0  0  0  0  0  0
   15.2080  -10.5674  -15.4369 C   0  0  2  0  0  0  0  0  0  0  0  0
   15.6370  -11.6413  -14.4520 C   0  0  0  0  0  0  0  0  0  0  0  0
   16.3235   -9.5629  -15.6183 C   0  0  2  0  0  0  0  0  0  0  0  0
   17.5579  -10.1917  -15.1294 N   0  0  0  0  0  0  0  0  0  0  0  0
   16.0382   -8.3643  -14.7927 C   0  0  0  0  0  0  0  0  0  0  0  0
   16.4140   -8.3177  -13.5622 O   0  0  0  0  0  0  0  0  0  0  0  0
   15.3647   -7.1914  -15.2222 N   0  0  0  0  0  0  0  0  0  0  0  0
   15.1415   -6.0699  -14.3457 C   0  0  1  0  0  0  0  0  0  0  0  0
   15.3751   -4.7815  -15.0480 C   0  0  0  0  0  0  0  0  0  0  0  0
   15.2090   -3.5108  -14.3328 C   0  0  0  0  0  0  0  0  0  0  0  0
   15.4993   -2.2942  -15.1320 C   0  0  0  0  0  0  0  0  0  0  0  0
   15.3204   -1.0220  -14.2693 C   0  0  0  0  0  0  0  0  0  0  0  0
   15.7607    0.1405  -14.9966 N   0  0  0  0  0  0  0  0  0  0  0  0
   13.7060   -6.0169  -13.8978 C   0  0  0  0  0  0  0  0  0  0  0  0
   13.3709   -5.3631  -12.7473 O   0  0  0  0  0  0  0  0  0  0  0  0
   12.8574   -6.5740  -14.5923 O   0  0  0  0  0  0  0  0  0  0  0  0
  2  3  2  0
  2  1  1  0
  4  2  1  0
  5  4  1  0
  6  5  1  0
  6  7  1  6
  8  9  2  0
  8  6  1  0
 11 10  1  1
 11 12  1  0
 11 13  1  0
 13 14  1  1
 14  8  1  0
 15 16  2  0
 15 13  1  0
 17 15  1  0
 18 19  1  6
 18 17  1  0
 20 21  1  0
 20 19  1  0
 22 21  1  0
 23 22  1  0
 24 18  1  0
 25 24  1  0
 26 24  2  0
M  END
$$$$
