QVK.pdb
     RDKit          3D

 26 25  0  0  1  0  0  0  0  0999 V2000
   18.7790  -21.5278  -15.7157 N   0  0  0  0  0  0  0  0  0  0  0  0
   18.3357  -22.2446  -14.5474 C   0  0  0  0  0  0  0  0  0  0  0  0
   17.2933  -22.9240  -14.6229 O   0  0  0  0  0  0  0  0  0  0  0  0
   19.1151  -22.1614  -13.2943 C   0  0  0  0  0  0  0  0  0  0  0  0
   20.3143  -21.2772  -13.4065 C   0  0  0  0  0  0  0  0  0  0  0  0
   21.2636  -21.4070  -12.2458 C   0  0  2  0  0  0  0  0  0  0  0  0
   20.5368  -20.8247  -11.0995 N   0  0  0  0  0  0  0  0  0  0  0  0
   22.5341  -20.6631  -12.4301 C   0  0  0  0  0  0  0  0  0  0  0  0
   22.5400  -19.4244  -12.1328 O   0  0  0  0  0  0  0  0  0  0  0  0
   26.3151  -22.4808  -13.0564 C   0  0  0  0  0  0  0  0  0  0  0  0
   26.1014  -21.1081  -12.5036 C   0  0  2  0  0  0  0  0  0  0  0  0
   25.9823  -21.1700  -10.9906 C   0  0  0  0  0  0  0  0  0  0  0  0
   24.9203  -20.3609  -13.0808 C   0  0  2  0  0  0  0  0  0  0  0  0
   23.7382  -21.2154  -12.9056 N   0  0  0  0  0  0  0  0  0  0  0  0
   25.1429  -20.1446  -14.5311 C   0  0  0  0  0  0  0  0  0  0  0  0
   24.6335  -20.9520  -15.3948 O   0  0  0  0  0  0  0  0  0  0  0  0
   25.8905  -19.0899  -15.1163 N   0  0  0  0  0  0  0  0  0  0  0  0
   26.1016  -18.9959  -16.5385 C   0  0  1  0  0  0  0  0  0  0  0  0
   25.5155  -17.7466  -17.0894 C   0  0  0  0  0  0  0  0  0  0  0  0
   25.6317  -17.4462  -18.5213 C   0  0  0  0  0  0  0  0  0  0  0  0
   25.0091  -16.1690  -18.9506 C   0  0  0  0  0  0  0  0  0  0  0  0
   25.2067  -15.9522  -20.4700 C   0  0  0  0  0  0  0  0  0  0  0  0
   24.7641  -14.6349  -20.8481 N   0  0  0  0  0  0  0  0  0  0  0  0
   27.5696  -18.9137  -16.8582 C   0  0  0  0  0  0  0  0  0  0  0  0
   28.0263  -19.3000  -18.0853 O   0  0  0  0  0  0  0  0  0  0  0  0
   28.3329  -18.4932  -15.9903 O   0  0  0  0  0  0  0  0  0  0  0  0
  2  3  2  0
  2  1  1  0
  4  2  1  0
  5  4  1  0
  6  5  1  0
  6  7  1  1
  8  9  2  0
  8  6  1  0
 11 10  1  6
 11 12  1  0
 11 13  1  0
 13 14  1  6
 14  8  1  0
 15 16  2  0
 15 13  1  0
 17 15  1  0
 18 19  1  1
 18 17  1  0
 20 21  1  0
 20 19  1  0
 22 21  1  0
 23 22  1  0
 24 18  1  0
 25 24  1  0
 26 24  2  0
M  END
$$$$
