QVK.pdb
     RDKit          3D

 26 25  0  0  1  0  0  0  0  0999 V2000
   27.1104  -24.7903  -16.5317 N   0  0  0  0  0  0  0  0  0  0  0  0
   26.4465  -23.5119  -16.5553 C   0  0  0  0  0  0  0  0  0  0  0  0
   27.0614  -22.5276  -17.0102 O   0  0  0  0  0  0  0  0  0  0  0  0
   25.0648  -23.3917  -16.0444 C   0  0  0  0  0  0  0  0  0  0  0  0
   24.5382  -24.6666  -15.4702 C   0  0  0  0  0  0  0  0  0  0  0  0
   24.6743  -24.7496  -13.9736 C   0  0  2  0  0  0  0  0  0  0  0  0
   24.0461  -26.0360  -13.6105 N   0  0  0  0  0  0  0  0  0  0  0  0
   23.9748  -23.6588  -13.2510 C   0  0  0  0  0  0  0  0  0  0  0  0
   22.7066  -23.7333  -13.1564 O   0  0  0  0  0  0  0  0  0  0  0  0
   25.8813  -20.0831  -11.8619 C   0  0  0  0  0  0  0  0  0  0  0  0
   24.7215  -20.6909  -11.1400 C   0  0  2  0  0  0  0  0  0  0  0  0
   25.2166  -21.5294   -9.9742 C   0  0  0  0  0  0  0  0  0  0  0  0
   23.7881  -21.5110  -12.0017 C   0  0  2  0  0  0  0  0  0  0  0  0
   24.5990  -22.5458  -12.6572 N   0  0  0  0  0  0  0  0  0  0  0  0
   23.1942  -20.6379  -13.0433 C   0  0  0  0  0  0  0  0  0  0  0  0
   23.9492  -20.0331  -13.8928 O   0  0  0  0  0  0  0  0  0  0  0  0
   21.8119  -20.3769  -13.2301 N   0  0  0  0  0  0  0  0  0  0  0  0
   21.3328  -19.4568  -14.2300 C   0  0  1  0  0  0  0  0  0  0  0  0
   20.8679  -20.1746  -15.4450 C   0  0  0  0  0  0  0  0  0  0  0  0
   20.3858  -19.4204  -16.6082 C   0  0  0  0  0  0  0  0  0  0  0  0
   19.8388  -20.2466  -17.7133 C   0  0  0  0  0  0  0  0  0  0  0  0
   19.4496  -19.3549  -18.9167 C   0  0  0  0  0  0  0  0  0  0  0  0
   18.9870  -20.1681  -20.0117 N   0  0  0  0  0  0  0  0  0  0  0  0
   20.1272  -18.7058  -13.7336 C   0  0  0  0  0  0  0  0  0  0  0  0
   19.6610  -17.6246  -14.4245 O   0  0  0  0  0  0  0  0  0  0  0  0
   19.5838  -19.0925  -12.7002 O   0  0  0  0  0  0  0  0  0  0  0  0
  2  3  2  0
  2  1  1  0
  4  2  1  0
  5  4  1  0
  6  5  1  0
  6  7  1  1
  8  9  2  0
  8  6  1  0
 11 10  1  6
 11 12  1  0
 11 13  1  0
 13 14  1  6
 14  8  1  0
 15 16  2  0
 15 13  1  0
 17 15  1  0
 18 19  1  6
 18 17  1  0
 20 21  1  0
 20 19  1  0
 22 21  1  0
 23 22  1  0
 24 18  1  0
 25 24  1  0
 26 24  2  0
M  END
$$$$
