QVK.pdb
     RDKit          3D

 26 25  0  0  1  0  0  0  0  0999 V2000
   26.8057  -22.8818  -18.2047 N   0  0  0  0  0  0  0  0  0  0  0  0
   28.0498  -23.2868  -17.6016 C   0  0  0  0  0  0  0  0  0  0  0  0
   28.8309  -23.9981  -18.2632 O   0  0  0  0  0  0  0  0  0  0  0  0
   28.3730  -22.8577  -16.2247 C   0  0  0  0  0  0  0  0  0  0  0  0
   27.2824  -22.0601  -15.5870 C   0  0  0  0  0  0  0  0  0  0  0  0
   27.4106  -20.5786  -15.8197 C   0  0  2  0  0  0  0  0  0  0  0  0
   28.5892  -20.1748  -15.0265 N   0  0  0  0  0  0  0  0  0  0  0  0
   26.2362  -19.7995  -15.3558 C   0  0  0  0  0  0  0  0  0  0  0  0
   26.1731  -19.5104  -14.1168 O   0  0  0  0  0  0  0  0  0  0  0  0
   25.0858  -16.3251  -16.0308 C   0  0  0  0  0  0  0  0  0  0  0  0
   23.9736  -17.2826  -16.3166 C   0  0  2  0  0  0  0  0  0  0  0  0
   22.6349  -16.6248  -16.0297 C   0  0  0  0  0  0  0  0  0  0  0  0
   24.0621  -18.6044  -15.5877 C   0  0  2  0  0  0  0  0  0  0  0  0
   25.1836  -19.3498  -16.1748 N   0  0  0  0  0  0  0  0  0  0  0  0
   22.8108  -19.3685  -15.8118 C   0  0  0  0  0  0  0  0  0  0  0  0
   22.5201  -19.8105  -16.9855 O   0  0  0  0  0  0  0  0  0  0  0  0
   21.8400  -19.6941  -14.8293 N   0  0  0  0  0  0  0  0  0  0  0  0
   20.6274  -20.4015  -15.1533 C   0  0  1  0  0  0  0  0  0  0  0  0
   19.9351  -20.8752  -13.9269 C   0  0  0  0  0  0  0  0  0  0  0  0
   18.6782  -21.6257  -14.0326 C   0  0  0  0  0  0  0  0  0  0  0  0
   18.1581  -22.1688  -12.7529 C   0  0  0  0  0  0  0  0  0  0  0  0
   16.9366  -23.0840  -13.0078 C   0  0  0  0  0  0  0  0  0  0  0  0
   16.5419  -23.7410  -11.7884 N   0  0  0  0  0  0  0  0  0  0  0  0
   19.6409  -19.4910  -15.8328 C   0  0  0  0  0  0  0  0  0  0  0  0
   18.8237  -19.9755  -16.8131 O   0  0  0  0  0  0  0  0  0  0  0  0
   19.5959  -18.3133  -15.4809 O   0  0  0  0  0  0  0  0  0  0  0  0
  2  3  2  0
  2  1  1  0
  4  2  1  0
  5  4  1  0
  6  5  1  0
  6  7  1  1
  8  9  2  0
  8  6  1  0
 11 10  1  1
 11 12  1  0
 11 13  1  0
 13 14  1  6
 14  8  1  0
 15 16  2  0
 15 13  1  0
 17 15  1  0
 18 19  1  1
 18 17  1  0
 20 21  1  0
 20 19  1  0
 22 21  1  0
 23 22  1  0
 24 18  1  0
 25 24  1  0
 26 24  2  0
M  END
$$$$
