QVK.pdb
     RDKit          3D

 26 25  0  0  1  0  0  0  0  0999 V2000
   27.0976  -21.0771  -19.3253 N   0  0  0  0  0  0  0  0  0  0  0  0
   28.0942  -20.1693  -18.8174 C   0  0  0  0  0  0  0  0  0  0  0  0
   28.9469  -19.7161  -19.6056 O   0  0  0  0  0  0  0  0  0  0  0  0
   28.0885  -19.7970  -17.3870 C   0  0  0  0  0  0  0  0  0  0  0  0
   27.0256  -20.4954  -16.6028 C   0  0  0  0  0  0  0  0  0  0  0  0
   27.5032  -21.0041  -15.2692 C   0  0  2  0  0  0  0  0  0  0  0  0
   28.2568  -22.2344  -15.5849 N   0  0  0  0  0  0  0  0  0  0  0  0
   26.4031  -21.3474  -14.3347 C   0  0  0  0  0  0  0  0  0  0  0  0
   25.7948  -22.4511  -14.5208 O   0  0  0  0  0  0  0  0  0  0  0  0
   26.4999  -21.0913  -10.3396 C   0  0  0  0  0  0  0  0  0  0  0  0
   25.2662  -20.5206  -10.9624 C   0  0  2  0  0  0  0  0  0  0  0  0
   24.0774  -20.7202  -10.0382 C   0  0  0  0  0  0  0  0  0  0  0  0
   24.9392  -21.0506  -12.3403 C   0  0  2  0  0  0  0  0  0  0  0  0
   25.9761  -20.5529  -13.2543 N   0  0  0  0  0  0  0  0  0  0  0  0
   23.6254  -20.5126  -12.7695 C   0  0  0  0  0  0  0  0  0  0  0  0
   23.4585  -19.2445  -12.9163 O   0  0  0  0  0  0  0  0  0  0  0  0
   22.4625  -21.2726  -13.0591 N   0  0  0  0  0  0  0  0  0  0  0  0
   21.1978  -20.6539  -13.3651 C   0  0  1  0  0  0  0  0  0  0  0  0
   20.3161  -21.5764  -14.1263 C   0  0  0  0  0  0  0  0  0  0  0  0
   18.9195  -21.2112  -14.3912 C   0  0  0  0  0  0  0  0  0  0  0  0
   18.1328  -22.2250  -15.1371 C   0  0  0  0  0  0  0  0  0  0  0  0
   16.6841  -21.7299  -15.3628 C   0  0  0  0  0  0  0  0  0  0  0  0
   15.9129  -22.7370  -16.0449 N   0  0  0  0  0  0  0  0  0  0  0  0
   20.4379  -20.3363  -12.1059 C   0  0  0  0  0  0  0  0  0  0  0  0
   19.6587  -19.2173  -12.0395 O   0  0  0  0  0  0  0  0  0  0  0  0
   20.5405  -21.1068  -11.1526 O   0  0  0  0  0  0  0  0  0  0  0  0
  2  3  2  0
  2  1  1  0
  4  2  1  0
  5  4  1  0
  6  5  1  0
  6  7  1  6
  8  9  2  0
  8  6  1  0
 11 10  1  1
 11 12  1  0
 11 13  1  0
 13 14  1  6
 14  8  1  0
 15 16  2  0
 15 13  1  0
 17 15  1  0
 18 19  1  6
 18 17  1  0
 20 21  1  0
 20 19  1  0
 22 21  1  0
 23 22  1  0
 24 18  1  0
 25 24  1  0
 26 24  2  0
M  END
$$$$
