QVK.pdb
     RDKit          3D

 26 25  0  0  1  0  0  0  0  0999 V2000
   19.0860  -13.7306  -19.3408 N   0  0  0  0  0  0  0  0  0  0  0  0
   20.1584  -14.1934  -20.1842 C   0  0  0  0  0  0  0  0  0  0  0  0
   19.8819  -14.6207  -21.3221 O   0  0  0  0  0  0  0  0  0  0  0  0
   21.5509  -14.1550  -19.6901 C   0  0  0  0  0  0  0  0  0  0  0  0
   21.6731  -13.5615  -18.3244 C   0  0  0  0  0  0  0  0  0  0  0  0
   23.0937  -13.4765  -17.8343 C   0  0  2  0  0  0  0  0  0  0  0  0
   23.4044  -14.8355  -17.3466 N   0  0  0  0  0  0  0  0  0  0  0  0
   23.2817  -12.5168  -16.7185 C   0  0  0  0  0  0  0  0  0  0  0  0
   22.9070  -12.8828  -15.5572 O   0  0  0  0  0  0  0  0  0  0  0  0
   26.0824   -9.3982  -16.6481 C   0  0  0  0  0  0  0  0  0  0  0  0
   25.4251  -10.0491  -15.4735 C   0  0  2  0  0  0  0  0  0  0  0  0
   26.1816  -11.3080  -15.0862 C   0  0  0  0  0  0  0  0  0  0  0  0
   23.9580  -10.3676  -15.6545 C   0  0  2  0  0  0  0  0  0  0  0  0
   23.8441  -11.2321  -16.8368 N   0  0  0  0  0  0  0  0  0  0  0  0
   23.2147   -9.1096  -15.9088 C   0  0  0  0  0  0  0  0  0  0  0  0
   23.2056   -8.5860  -17.0849 O   0  0  0  0  0  0  0  0  0  0  0  0
   22.4643   -8.3722  -14.9565 N   0  0  0  0  0  0  0  0  0  0  0  0
   21.8491   -7.1090  -15.2756 C   0  0  1  0  0  0  0  0  0  0  0  0
   20.3842   -7.2574  -15.4747 C   0  0  0  0  0  0  0  0  0  0  0  0
   19.5518   -6.0770  -15.7350 C   0  0  0  0  0  0  0  0  0  0  0  0
   18.0901   -6.3322  -15.7763 C   0  0  0  0  0  0  0  0  0  0  0  0
   17.3315   -5.0695  -16.2501 C   0  0  0  0  0  0  0  0  0  0  0  0
   15.9161   -5.3295  -16.3074 N   0  0  0  0  0  0  0  0  0  0  0  0
   21.9928   -6.1392  -14.1342 C   0  0  0  0  0  0  0  0  0  0  0  0
   21.8536   -4.7988  -14.3523 O   0  0  0  0  0  0  0  0  0  0  0  0
   22.2361   -6.5876  -13.0151 O   0  0  0  0  0  0  0  0  0  0  0  0
  2  3  2  0
  2  1  1  0
  4  2  1  0
  5  4  1  0
  6  5  1  0
  6  7  1  1
  8  9  2  0
  8  6  1  0
 11 10  1  6
 11 12  1  0
 11 13  1  0
 13 14  1  6
 14  8  1  0
 15 16  2  0
 15 13  1  0
 17 15  1  0
 18 19  1  1
 18 17  1  0
 20 21  1  0
 20 19  1  0
 22 21  1  0
 23 22  1  0
 24 18  1  0
 25 24  1  0
 26 24  2  0
M  END
$$$$
