QVK.pdb
     RDKit          3D

 26 25  0  0  1  0  0  0  0  0999 V2000
   21.3405  -21.1893  -11.2300 N   0  0  0  0  0  0  0  0  0  0  0  0
   21.3981  -21.5030   -9.8251 C   0  0  0  0  0  0  0  0  0  0  0  0
   20.4549  -22.1392   -9.3157 O   0  0  0  0  0  0  0  0  0  0  0  0
   22.5604  -21.0687   -9.0221 C   0  0  0  0  0  0  0  0  0  0  0  0
   23.5474  -20.2653   -9.8048 C   0  0  0  0  0  0  0  0  0  0  0  0
   24.8025  -21.0242  -10.1427 C   0  0  2  0  0  0  0  0  0  0  0  0
   25.5676  -21.0652   -8.8801 N   0  0  0  0  0  0  0  0  0  0  0  0
   25.6340  -20.3670  -11.1810 C   0  0  0  0  0  0  0  0  0  0  0  0
   26.3694  -19.3925  -10.8171 O   0  0  0  0  0  0  0  0  0  0  0  0
   26.9528  -21.8867  -14.8570 C   0  0  0  0  0  0  0  0  0  0  0  0
   27.3864  -20.6051  -14.2206 C   0  0  2  0  0  0  0  0  0  0  0  0
   28.5273  -20.8656  -13.2523 C   0  0  0  0  0  0  0  0  0  0  0  0
   26.2895  -19.8314  -13.5245 C   0  0  2  0  0  0  0  0  0  0  0  0
   25.6796  -20.7341  -12.5389 N   0  0  0  0  0  0  0  0  0  0  0  0
   25.2599  -19.4445  -14.5196 C   0  0  0  0  0  0  0  0  0  0  0  0
   24.1949  -20.1534  -14.6626 O   0  0  0  0  0  0  0  0  0  0  0  0
   25.3084  -18.3179  -15.3811 N   0  0  0  0  0  0  0  0  0  0  0  0
   24.3123  -18.0840  -16.3955 C   0  0  1  0  0  0  0  0  0  0  0  0
   23.9755  -16.6405  -16.4982 C   0  0  0  0  0  0  0  0  0  0  0  0
   22.6486  -16.2242  -16.9672 C   0  0  0  0  0  0  0  0  0  0  0  0
   22.3493  -16.5497  -18.3841 C   0  0  0  0  0  0  0  0  0  0  0  0
   20.9587  -16.0018  -18.7851 C   0  0  0  0  0  0  0  0  0  0  0  0
   20.6305  -16.4074  -20.1275 N   0  0  0  0  0  0  0  0  0  0  0  0
   24.8332  -18.4622  -17.7555 C   0  0  0  0  0  0  0  0  0  0  0  0
   23.9944  -19.0110  -18.6823 O   0  0  0  0  0  0  0  0  0  0  0  0
   26.0220  -18.2634  -18.0008 O   0  0  0  0  0  0  0  0  0  0  0  0
  2  3  2  0
  2  1  1  0
  4  2  1  0
  5  4  1  0
  6  5  1  0
  6  7  1  1
  8  9  2  0
  8  6  1  0
 11 10  1  1
 11 12  1  0
 11 13  1  0
 13 14  1  1
 14  8  1  0
 15 16  2  0
 15 13  1  0
 17 15  1  0
 18 19  1  6
 18 17  1  0
 20 21  1  0
 20 19  1  0
 22 21  1  0
 23 22  1  0
 24 18  1  0
 25 24  1  0
 26 24  2  0
M  END
$$$$
