QVK.pdb
     RDKit          3D

 26 25  0  0  1  0  0  0  0  0999 V2000
   25.5376  -24.4329  -14.4824 N   0  0  0  0  0  0  0  0  0  0  0  0
   26.3917  -23.7905  -15.4484 C   0  0  0  0  0  0  0  0  0  0  0  0
   27.0820  -24.5030  -16.2031 O   0  0  0  0  0  0  0  0  0  0  0  0
   26.4346  -22.3150  -15.5252 C   0  0  0  0  0  0  0  0  0  0  0  0
   25.4838  -21.6502  -14.5838 C   0  0  0  0  0  0  0  0  0  0  0  0
   24.1077  -21.4558  -15.1618 C   0  0  2  0  0  0  0  0  0  0  0  0
   24.2748  -20.4009  -16.1818 N   0  0  0  0  0  0  0  0  0  0  0  0
   23.1038  -21.0014  -14.1684 C   0  0  0  0  0  0  0  0  0  0  0  0
   23.2114  -19.8126  -13.7235 O   0  0  0  0  0  0  0  0  0  0  0  0
   19.5670  -20.5971  -14.7153 C   0  0  0  0  0  0  0  0  0  0  0  0
   20.3148  -20.1143  -13.5139 C   0  0  2  0  0  0  0  0  0  0  0  0
   21.2696  -19.0008  -13.9089 C   0  0  0  0  0  0  0  0  0  0  0  0
   21.0626  -21.1844  -12.7510 C   0  0  2  0  0  0  0  0  0  0  0  0
   22.0371  -21.7770  -13.6770 N   0  0  0  0  0  0  0  0  0  0  0  0
   20.1073  -22.2360  -12.3251 C   0  0  0  0  0  0  0  0  0  0  0  0
   19.7647  -23.1721  -13.1399 O   0  0  0  0  0  0  0  0  0  0  0  0
   19.4922  -22.3434  -11.0508 N   0  0  0  0  0  0  0  0  0  0  0  0
   18.6935  -23.4830  -10.6776 C   0  0  1  0  0  0  0  0  0  0  0  0
   18.7370  -23.7151   -9.2107 C   0  0  0  0  0  0  0  0  0  0  0  0
   17.9375  -24.7893   -8.6098 C   0  0  0  0  0  0  0  0  0  0  0  0
   18.0486  -24.9089   -7.1345 C   0  0  0  0  0  0  0  0  0  0  0  0
   17.1806  -26.0811   -6.6177 C   0  0  0  0  0  0  0  0  0  0  0  0
   17.2799  -26.1818   -5.1844 N   0  0  0  0  0  0  0  0  0  0  0  0
   17.2415  -23.2466  -10.9937 C   0  0  0  0  0  0  0  0  0  0  0  0
   16.4023  -24.3048  -11.1919 O   0  0  0  0  0  0  0  0  0  0  0  0
   16.8419  -22.0856  -11.0663 O   0  0  0  0  0  0  0  0  0  0  0  0
  2  3  2  0
  2  1  1  0
  4  2  1  0
  5  4  1  0
  6  5  1  0
  6  7  1  6
  8  9  2  0
  8  6  1  0
 11 10  1  6
 11 12  1  0
 11 13  1  0
 13 14  1  6
 14  8  1  0
 15 16  2  0
 15 13  1  0
 17 15  1  0
 18 19  1  1
 18 17  1  0
 20 21  1  0
 20 19  1  0
 22 21  1  0
 23 22  1  0
 24 18  1  0
 25 24  1  0
 26 24  2  0
M  END
$$$$
