RKG.pdb
     RDKit          3D

 25 24  0  0  1  0  0  0  0  0999 V2000
    5.6303  -19.2714   15.4670 N   0  0  0  0  0  0  0  0  0  0  0  0
    6.9159  -18.6191   15.4262 C   0  0  0  0  0  0  0  0  0  0  0  0
    7.6791  -18.7356   14.3974 N   0  0  0  0  0  0  0  0  0  0  0  0
    7.3683  -17.8346   16.5184 N   0  0  0  0  0  0  0  0  0  0  0  0
    8.1160  -16.6345   16.3135 C   0  0  0  0  0  0  0  0  0  0  0  0
    7.5714  -15.4156   16.9834 C   0  0  0  0  0  0  0  0  0  0  0  0
    8.2521  -15.1211   18.2966 C   0  0  0  0  0  0  0  0  0  0  0  0
    7.7367  -13.8845   18.9675 C   0  0  2  0  0  0  0  0  0  0  0  0
    7.7912  -12.6962   18.1710 N   0  0  0  0  0  0  0  0  0  0  0  0
    8.3226  -13.6959   20.3237 C   0  0  0  0  0  0  0  0  0  0  0  0
    9.4457  -13.1375   20.4084 O   0  0  0  0  0  0  0  0  0  0  0  0
    8.5459  -18.1546   14.3506 N   0  0  0  0  0  0  0  0  0  0  0  0
    7.6962  -14.1040   21.5070 C   0  0  2  0  0  0  0  0  0  0  0  0
    8.2909  -13.9076   22.8335 C   0  0  0  0  0  0  0  0  0  0  0  0
    7.1818  -13.3474   23.6951 C   0  0  0  0  0  0  0  0  0  0  0  0
    7.6277  -12.9932   25.0915 C   0  0  0  0  0  0  0  0  0  0  0  0
    6.4164  -12.3940   25.8033 C   0  0  0  0  0  0  0  0  0  0  0  0
    6.7805  -11.9556   27.2056 N   0  0  0  0  0  0  0  0  0  0  0  0
    5.6753  -11.4009   27.9305 C   0  0  0  0  0  0  0  0  0  0  0  0
    8.7725  -15.2309   23.3008 O   0  0  0  0  0  0  0  0  0  0  0  0
    7.9532  -16.1590   23.5187 N   0  0  0  0  0  0  0  0  0  0  0  0
   10.1448  -15.4790   23.5104 C   0  0  0  0  0  0  0  0  0  0  0  0
   10.6658  -16.6343   24.1847 C   0  0  0  0  0  0  0  0  0  0  0  0
   12.1141  -16.5827   24.3947 O   0  0  0  0  0  0  0  0  0  0  0  0
   12.8387  -17.5068   23.9554 O   0  0  0  0  0  0  0  0  0  0  0  0
  1  2  1  0
  2  3  2  0
  4  2  1  0
  4  5  1  0
  6  5  1  0
  6  7  1  0
  7  8  1  0
  8  9  1  6
 10  8  1  0
 11 10  2  0
 12 10  1  0
 13 19  1  0
 13 12  1  0
 13 14  1  6
 15 14  1  0
 16 15  1  0
 17 16  1  0
 18 17  1  0
 19 21  1  0
 20 19  2  0
 21 22  1  0
 22 23  1  0
 23 24  2  0
 23 25  1  0
M  END
$$$$
