RKG.pdb
     RDKit          3D

 25 24  0  0  1  0  0  0  0  0999 V2000
    7.8336  -12.0111   18.6115 N   0  0  0  0  0  0  0  0  0  0  0  0
    7.6169  -13.3668   18.1701 C   0  0  0  0  0  0  0  0  0  0  0  0
    7.9432  -13.7302   16.9801 N   0  0  0  0  0  0  0  0  0  0  0  0
    7.0396  -14.3303   19.0368 N   0  0  0  0  0  0  0  0  0  0  0  0
    7.0692  -15.7243   18.7253 C   0  0  0  0  0  0  0  0  0  0  0  0
    8.3584  -16.4206   19.0154 C   0  0  0  0  0  0  0  0  0  0  0  0
    8.5594  -16.6818   20.4872 C   0  0  0  0  0  0  0  0  0  0  0  0
    9.7734  -16.0069   21.0489 C   0  0  2  0  0  0  0  0  0  0  0  0
   11.0237  -16.5718   20.6400 N   0  0  0  0  0  0  0  0  0  0  0  0
    9.6806  -15.8210   22.5236 C   0  0  0  0  0  0  0  0  0  0  0  0
   10.4350  -16.5124   23.2538 O   0  0  0  0  0  0  0  0  0  0  0  0
    7.7915  -14.7258   16.7030 N   0  0  0  0  0  0  0  0  0  0  0  0
    8.8033  -14.9228   23.1423 C   0  0  2  0  0  0  0  0  0  0  0  0
    8.6977  -14.7857   24.5990 C   0  0  0  0  0  0  0  0  0  0  0  0
    7.7217  -13.6540   24.8291 C   0  0  0  0  0  0  0  0  0  0  0  0
    7.4316  -13.3990   26.2868 C   0  0  0  0  0  0  0  0  0  0  0  0
    6.5069  -12.1850   26.3474 C   0  0  0  0  0  0  0  0  0  0  0  0
    6.1496  -11.8533   27.7804 N   0  0  0  0  0  0  0  0  0  0  0  0
    5.1941  -10.7909   27.8946 C   0  0  0  0  0  0  0  0  0  0  0  0
    8.2121  -16.0835   25.1296 O   0  0  0  0  0  0  0  0  0  0  0  0
    7.1213  -16.5609   24.7269 N   0  0  0  0  0  0  0  0  0  0  0  0
    8.9524  -16.8064   26.0878 C   0  0  0  0  0  0  0  0  0  0  0  0
    8.5041  -18.0190   26.7120 C   0  0  0  0  0  0  0  0  0  0  0  0
    9.3804  -18.4766   27.7923 O   0  0  0  0  0  0  0  0  0  0  0  0
    9.0474  -19.4674   28.4847 O   0  0  0  0  0  0  0  0  0  0  0  0
  1  2  1  0
  2  3  2  0
  4  2  1  0
  4  5  1  0
  6  5  1  0
  6  7  1  0
  7  8  1  0
  8  9  1  1
 10  8  1  0
 11 10  2  0
 12 10  1  0
 13 19  1  0
 13 12  1  0
 13 14  1  6
 15 14  1  0
 16 15  1  0
 17 16  1  0
 18 17  1  0
 19 21  1  0
 20 19  2  0
 21 22  1  0
 22 23  1  0
 23 24  2  0
 23 25  1  0
M  END
$$$$
