RKG.pdb
     RDKit          3D

 25 24  0  0  1  0  0  0  0  0999 V2000
    7.7049  -12.3378   16.5834 N   0  0  0  0  0  0  0  0  0  0  0  0
    7.8333  -13.6987   16.1237 C   0  0  0  0  0  0  0  0  0  0  0  0
    8.6916  -14.0074   15.2168 N   0  0  0  0  0  0  0  0  0  0  0  0
    7.0171  -14.7276   16.6604 N   0  0  0  0  0  0  0  0  0  0  0  0
    7.0117  -15.0202   18.0588 C   0  0  0  0  0  0  0  0  0  0  0  0
    8.2273  -14.5867   18.8109 C   0  0  0  0  0  0  0  0  0  0  0  0
    8.2231  -15.0581   20.2436 C   0  0  0  0  0  0  0  0  0  0  0  0
    9.0947  -16.2542   20.4769 C   0  0  2  0  0  0  0  0  0  0  0  0
    8.4099  -17.5114   20.4775 N   0  0  0  0  0  0  0  0  0  0  0  0
    9.9806  -16.0808   21.6614 C   0  0  0  0  0  0  0  0  0  0  0  0
   10.4652  -14.9404   21.8734 O   0  0  0  0  0  0  0  0  0  0  0  0
    8.7430  -14.9999   14.8953 N   0  0  0  0  0  0  0  0  0  0  0  0
   10.3045  -17.1125   22.5502 C   0  0  2  0  0  0  0  0  0  0  0  0
   11.1326  -16.9072   23.7434 C   0  0  0  0  0  0  0  0  0  0  0  0
   10.9548  -18.1549   24.5788 C   0  0  0  0  0  0  0  0  0  0  0  0
   11.8194  -18.1780   25.8141 C   0  0  0  0  0  0  0  0  0  0  0  0
   11.0670  -18.9926   26.8646 C   0  0  0  0  0  0  0  0  0  0  0  0
   11.9063  -19.1649   28.1124 N   0  0  0  0  0  0  0  0  0  0  0  0
   11.2727  -19.9710   29.1143 C   0  0  0  0  0  0  0  0  0  0  0  0
   12.5299  -16.7154   23.2825 O   0  0  0  0  0  0  0  0  0  0  0  0
   13.4000  -16.2733   24.0746 N   0  0  0  0  0  0  0  0  0  0  0  0
   12.9135  -17.0202   21.9602 C   0  0  0  0  0  0  0  0  0  0  0  0
   14.2126  -16.7521   21.4109 C   0  0  0  0  0  0  0  0  0  0  0  0
   15.2368  -17.7042   21.8456 O   0  0  0  0  0  0  0  0  0  0  0  0
   14.9220  -18.6524   22.6030 O   0  0  0  0  0  0  0  0  0  0  0  0
  1  2  1  0
  2  3  2  0
  4  2  1  0
  4  5  1  0
  6  5  1  0
  6  7  1  0
  7  8  1  0
  8  9  1  1
 10  8  1  0
 11 10  2  0
 12 10  1  0
 13 19  1  0
 13 12  1  0
 13 14  1  1
 15 14  1  0
 16 15  1  0
 17 16  1  0
 18 17  1  0
 19 21  1  0
 20 19  2  0
 21 22  1  0
 22 23  1  0
 23 24  2  0
 23 25  1  0
M  END
$$$$
