RKG.pdb
     RDKit          3D

 25 24  0  0  1  0  0  0  0  0999 V2000
   18.7126  -22.1516   23.4815 N   0  0  0  0  0  0  0  0  0  0  0  0
   20.0229  -22.6367   23.8387 C   0  0  0  0  0  0  0  0  0  0  0  0
   20.7972  -23.1520   22.9502 N   0  0  0  0  0  0  0  0  0  0  0  0
   20.4880  -22.5571   25.1767 N   0  0  0  0  0  0  0  0  0  0  0  0
   19.6809  -21.9952   26.2130 C   0  0  0  0  0  0  0  0  0  0  0  0
   18.2123  -22.2376   26.0870 C   0  0  0  0  0  0  0  0  0  0  0  0
   17.4245  -21.6365   27.2239 C   0  0  0  0  0  0  0  0  0  0  0  0
   17.7285  -22.2609   28.5515 C   0  0  2  0  0  0  0  0  0  0  0  0
   17.5138  -23.6747   28.6189 N   0  0  0  0  0  0  0  0  0  0  0  0
   17.0868  -21.5269   29.6773 C   0  0  0  0  0  0  0  0  0  0  0  0
   17.2888  -20.2893   29.7657 O   0  0  0  0  0  0  0  0  0  0  0  0
   21.7308  -23.5119   23.2499 N   0  0  0  0  0  0  0  0  0  0  0  0
   16.2737  -22.1346   30.6410 C   0  0  1  0  0  0  0  0  0  0  0  0
   15.6782  -21.3987   31.7616 C   0  0  0  0  0  0  0  0  0  0  0  0
   14.1881  -21.6299   31.6512 C   0  0  0  0  0  0  0  0  0  0  0  0
   13.8069  -23.0888   31.6352 C   0  0  0  0  0  0  0  0  0  0  0  0
   12.2829  -23.1463   31.5505 C   0  0  0  0  0  0  0  0  0  0  0  0
   11.7955  -24.5780   31.6112 N   0  0  0  0  0  0  0  0  0  0  0  0
   10.3698  -24.6953   31.5208 C   0  0  0  0  0  0  0  0  0  0  0  0
   16.2574  -21.9531   33.0102 O   0  0  0  0  0  0  0  0  0  0  0  0
   16.5958  -23.1624   33.0655 N   0  0  0  0  0  0  0  0  0  0  0  0
   16.4409  -21.1479   34.1533 C   0  0  0  0  0  0  0  0  0  0  0  0
   17.3976  -20.0818   34.2485 C   0  0  0  0  0  0  0  0  0  0  0  0
   18.7836  -20.5480   34.3268 O   0  0  0  0  0  0  0  0  0  0  0  0
   19.0369  -21.7685   34.1922 O   0  0  0  0  0  0  0  0  0  0  0  0
  1  2  1  0
  2  3  2  0
  4  2  1  0
  4  5  1  0
  6  5  1  0
  6  7  1  0
  7  8  1  0
  8  9  1  6
 10  8  1  0
 11 10  2  0
 12 10  1  0
 13 19  1  0
 13 12  1  0
 13 14  1  6
 15 14  1  0
 16 15  1  0
 17 16  1  0
 18 17  1  0
 19 21  1  0
 20 19  2  0
 21 22  1  0
 22 23  1  0
 23 24  2  0
 23 25  1  0
M  END
$$$$
