RKG.pdb
     RDKit          3D

 25 24  0  0  1  0  0  0  0  0999 V2000
    7.9137  -13.5895   17.0244 N   0  0  0  0  0  0  0  0  0  0  0  0
    9.0835  -14.2003   17.6059 C   0  0  0  0  0  0  0  0  0  0  0  0
   10.1497  -13.5113   17.8137 N   0  0  0  0  0  0  0  0  0  0  0  0
    9.0859  -15.5736   17.9621 N   0  0  0  0  0  0  0  0  0  0  0  0
    7.8769  -16.3339   18.0032 C   0  0  0  0  0  0  0  0  0  0  0  0
    7.0742  -16.1976   19.2556 C   0  0  0  0  0  0  0  0  0  0  0  0
    7.2534  -17.3671   20.1909 C   0  0  0  0  0  0  0  0  0  0  0  0
    6.4463  -17.2504   21.4477 C   0  0  2  0  0  0  0  0  0  0  0  0
    5.0277  -17.2281   21.2563 N   0  0  0  0  0  0  0  0  0  0  0  0
    6.9265  -16.1451   22.3228 C   0  0  0  0  0  0  0  0  0  0  0  0
    6.4758  -14.9901   22.1149 O   0  0  0  0  0  0  0  0  0  0  0  0
   10.9956  -14.0000   18.1832 N   0  0  0  0  0  0  0  0  0  0  0  0
    7.8492  -16.3177   23.3610 C   0  0  1  0  0  0  0  0  0  0  0  0
    8.4202  -15.1969   24.1157 C   0  0  0  0  0  0  0  0  0  0  0  0
    7.4851  -14.9774   25.2835 C   0  0  0  0  0  0  0  0  0  0  0  0
    7.3340  -13.5267   25.6665 C   0  0  0  0  0  0  0  0  0  0  0  0
    6.4043  -13.4842   26.8776 C   0  0  0  0  0  0  0  0  0  0  0  0
    6.2214  -12.0626   27.3642 N   0  0  0  0  0  0  0  0  0  0  0  0
    5.3415  -11.9584   28.4910 C   0  0  0  0  0  0  0  0  0  0  0  0
    9.7850  -15.5990   24.5368 O   0  0  0  0  0  0  0  0  0  0  0  0
    9.9465  -16.6019   25.2772 N   0  0  0  0  0  0  0  0  0  0  0  0
   10.9225  -14.8757   24.1226 C   0  0  0  0  0  0  0  0  0  0  0  0
   12.2552  -15.1197   24.5973 C   0  0  0  0  0  0  0  0  0  0  0  0
   12.9984  -16.0805   23.7794 O   0  0  0  0  0  0  0  0  0  0  0  0
   12.3883  -17.0207   23.2175 O   0  0  0  0  0  0  0  0  0  0  0  0
  1  2  1  0
  2  3  2  0
  4  2  1  0
  4  5  1  0
  6  5  1  0
  6  7  1  0
  7  8  1  0
  8  9  1  6
 10  8  1  0
 11 10  2  0
 12 10  1  0
 13 19  1  0
 13 12  1  0
 13 14  1  1
 15 14  1  0
 16 15  1  0
 17 16  1  0
 18 17  1  0
 19 21  1  0
 20 19  2  0
 21 22  1  0
 22 23  1  0
 23 24  2  0
 23 25  1  0
M  END
$$$$
