RKG.pdb
     RDKit          3D

 25 24  0  0  1  0  0  0  0  0999 V2000
    7.6847  -12.7110   16.8707 N   0  0  0  0  0  0  0  0  0  0  0  0
    8.1520  -14.0598   16.6651 C   0  0  0  0  0  0  0  0  0  0  0  0
    8.0161  -14.6350   15.5227 N   0  0  0  0  0  0  0  0  0  0  0  0
    8.7717  -14.7829   17.7167 N   0  0  0  0  0  0  0  0  0  0  0  0
    8.5811  -14.4173   19.0846 C   0  0  0  0  0  0  0  0  0  0  0  0
    7.1985  -14.6121   19.6154 C   0  0  0  0  0  0  0  0  0  0  0  0
    7.1455  -14.5862   21.1225 C   0  0  0  0  0  0  0  0  0  0  0  0
    7.8893  -15.7190   21.7615 C   0  0  2  0  0  0  0  0  0  0  0  0
    7.0637  -16.7500   22.3139 N   0  0  0  0  0  0  0  0  0  0  0  0
    8.9288  -15.2412   22.7150 C   0  0  0  0  0  0  0  0  0  0  0  0
    9.7536  -14.3845   22.3075 O   0  0  0  0  0  0  0  0  0  0  0  0
    8.2912  -15.6387   15.4333 N   0  0  0  0  0  0  0  0  0  0  0  0
    9.0403  -15.6904   24.0359 C   0  0  1  0  0  0  0  0  0  0  0  0
   10.1032  -15.2447   24.9434 C   0  0  0  0  0  0  0  0  0  0  0  0
    9.4815  -15.2367   26.3216 C   0  0  0  0  0  0  0  0  0  0  0  0
   10.4547  -14.8796   27.4168 C   0  0  0  0  0  0  0  0  0  0  0  0
    9.6530  -14.8104   28.7149 C   0  0  0  0  0  0  0  0  0  0  0  0
   10.5513  -14.4631   29.8827 N   0  0  0  0  0  0  0  0  0  0  0  0
    9.8528  -14.3893   31.1323 C   0  0  0  0  0  0  0  0  0  0  0  0
   11.2219  -16.2116   24.8204 O   0  0  0  0  0  0  0  0  0  0  0  0
   10.9879  -17.4463   24.7933 N   0  0  0  0  0  0  0  0  0  0  0  0
   12.5603  -15.7762   24.7318 C   0  0  0  0  0  0  0  0  0  0  0  0
   13.6946  -16.6530   24.6585 C   0  0  0  0  0  0  0  0  0  0  0  0
   14.4541  -16.5204   23.4134 O   0  0  0  0  0  0  0  0  0  0  0  0
   13.8450  -16.4162   22.3225 O   0  0  0  0  0  0  0  0  0  0  0  0
  1  2  1  0
  2  3  2  0
  4  2  1  0
  4  5  1  0
  6  5  1  0
  6  7  1  0
  7  8  1  0
  8  9  1  1
 10  8  1  0
 11 10  2  0
 12 10  1  0
 13 19  1  0
 13 12  1  0
 13 14  1  6
 15 14  1  0
 16 15  1  0
 17 16  1  0
 18 17  1  0
 19 21  1  0
 20 19  2  0
 21 22  1  0
 22 23  1  0
 23 24  2  0
 23 25  1  0
M  END
$$$$
