RKG.pdb
     RDKit          3D

 25 24  0  0  1  0  0  0  0  0999 V2000
    8.5870  -13.6055   16.8435 N   0  0  0  0  0  0  0  0  0  0  0  0
    8.3692  -13.0848   18.1706 C   0  0  0  0  0  0  0  0  0  0  0  0
    8.6942  -11.8752   18.4631 N   0  0  0  0  0  0  0  0  0  0  0  0
    7.7920  -13.8936   19.1834 N   0  0  0  0  0  0  0  0  0  0  0  0
    7.3626  -15.2295   18.9145 C   0  0  0  0  0  0  0  0  0  0  0  0
    8.4553  -16.2236   18.6929 C   0  0  0  0  0  0  0  0  0  0  0  0
    9.6298  -16.0113   19.6150 C   0  0  0  0  0  0  0  0  0  0  0  0
    9.5647  -16.8432   20.8594 C   0  0  2  0  0  0  0  0  0  0  0  0
    8.4995  -17.7992   20.8934 N   0  0  0  0  0  0  0  0  0  0  0  0
    9.6327  -16.0131   22.0940 C   0  0  0  0  0  0  0  0  0  0  0  0
   10.1510  -14.8709   22.0088 O   0  0  0  0  0  0  0  0  0  0  0  0
    8.5196  -11.5323   19.4342 N   0  0  0  0  0  0  0  0  0  0  0  0
    9.1542  -16.4306   23.3413 C   0  0  1  0  0  0  0  0  0  0  0  0
    9.4407  -15.7115   24.5874 C   0  0  0  0  0  0  0  0  0  0  0  0
    8.0999  -15.2302   25.0941 C   0  0  0  0  0  0  0  0  0  0  0  0
    8.2029  -14.0811   26.0653 C   0  0  0  0  0  0  0  0  0  0  0  0
    6.7749  -13.6948   26.4455 C   0  0  0  0  0  0  0  0  0  0  0  0
    6.7751  -12.5813   27.4709 N   0  0  0  0  0  0  0  0  0  0  0  0
    5.4583  -12.1685   27.8589 C   0  0  0  0  0  0  0  0  0  0  0  0
   10.0954  -16.6718   25.5098 O   0  0  0  0  0  0  0  0  0  0  0  0
   10.7394  -17.6485   25.0500 N   0  0  0  0  0  0  0  0  0  0  0  0
   10.0135  -16.5159   26.9089 C   0  0  0  0  0  0  0  0  0  0  0  0
   10.5997  -17.4169   27.8605 C   0  0  0  0  0  0  0  0  0  0  0  0
   10.3864  -17.0142   29.2522 O   0  0  0  0  0  0  0  0  0  0  0  0
    9.8154  -15.9268   29.5036 O   0  0  0  0  0  0  0  0  0  0  0  0
  1  2  1  0
  2  3  2  0
  4  2  1  0
  4  5  1  0
  6  5  1  0
  6  7  1  0
  7  8  1  0
  8  9  1  1
 10  8  1  0
 11 10  2  0
 12 10  1  0
 13 19  1  0
 13 12  1  0
 13 14  1  1
 15 14  1  0
 16 15  1  0
 17 16  1  0
 18 17  1  0
 19 21  1  0
 20 19  2  0
 21 22  1  0
 22 23  1  0
 23 24  2  0
 23 25  1  0
M  END
$$$$
