RKG.pdb
     RDKit          3D

 25 24  0  0  1  0  0  0  0  0999 V2000
    8.7465  -15.5127   18.0895 N   0  0  0  0  0  0  0  0  0  0  0  0
    8.1074  -14.3133   17.6071 C   0  0  0  0  0  0  0  0  0  0  0  0
    7.6688  -14.2429   16.4000 N   0  0  0  0  0  0  0  0  0  0  0  0
    7.9477  -13.1845   18.4515 N   0  0  0  0  0  0  0  0  0  0  0  0
    7.0807  -13.2207   19.5865 C   0  0  0  0  0  0  0  0  0  0  0  0
    7.1969  -14.4372   20.4456 C   0  0  0  0  0  0  0  0  0  0  0  0
    8.3995  -14.3937   21.3548 C   0  0  0  0  0  0  0  0  0  0  0  0
    8.1164  -14.8976   22.7371 C   0  0  2  0  0  0  0  0  0  0  0  0
    7.1769  -14.1181   23.4849 N   0  0  0  0  0  0  0  0  0  0  0  0
    9.3648  -15.1803   23.4982 C   0  0  0  0  0  0  0  0  0  0  0  0
    9.8001  -14.2882   24.2695 O   0  0  0  0  0  0  0  0  0  0  0  0
    7.2846  -13.3327   16.0608 N   0  0  0  0  0  0  0  0  0  0  0  0
   10.0803  -16.3797   23.4042 C   0  0  2  0  0  0  0  0  0  0  0  0
   11.3889  -16.5799   24.0361 C   0  0  0  0  0  0  0  0  0  0  0  0
   11.4113  -18.0283   24.4697 C   0  0  0  0  0  0  0  0  0  0  0  0
   10.9223  -18.2398   25.8805 C   0  0  0  0  0  0  0  0  0  0  0  0
   10.9328  -19.7466   26.1303 C   0  0  0  0  0  0  0  0  0  0  0  0
   10.4349  -20.0630   27.5243 N   0  0  0  0  0  0  0  0  0  0  0  0
   10.2880  -21.4679   27.7680 C   0  0  0  0  0  0  0  0  0  0  0  0
   12.4222  -16.2660   23.0186 O   0  0  0  0  0  0  0  0  0  0  0  0
   12.1152  -16.2238   21.8004 N   0  0  0  0  0  0  0  0  0  0  0  0
   13.7591  -16.0098   23.3870 C   0  0  0  0  0  0  0  0  0  0  0  0
   14.7978  -15.6445   22.4657 C   0  0  0  0  0  0  0  0  0  0  0  0
   16.0992  -15.4414   23.1056 O   0  0  0  0  0  0  0  0  0  0  0  0
   16.2162  -15.6097   24.3425 O   0  0  0  0  0  0  0  0  0  0  0  0
  1  2  1  0
  2  3  2  0
  4  2  1  0
  4  5  1  0
  6  5  1  0
  6  7  1  0
  7  8  1  0
  8  9  1  1
 10  8  1  0
 11 10  2  0
 12 10  1  0
 13 19  1  0
 13 12  1  0
 13 14  1  1
 15 14  1  0
 16 15  1  0
 17 16  1  0
 18 17  1  0
 19 21  1  0
 20 19  2  0
 21 22  1  0
 22 23  1  0
 23 24  2  0
 23 25  1  0
M  END
$$$$
