RKG.pdb
     RDKit          3D

 25 24  0  0  1  0  0  0  0  0999 V2000
    7.2362  -17.4773   16.1239 N   0  0  0  0  0  0  0  0  0  0  0  0
    6.8442  -18.7570   16.6611 C   0  0  0  0  0  0  0  0  0  0  0  0
    6.5834  -19.7451   15.8801 N   0  0  0  0  0  0  0  0  0  0  0  0
    6.7371  -18.9556   18.0619 N   0  0  0  0  0  0  0  0  0  0  0  0
    7.3759  -18.0764   18.9893 C   0  0  0  0  0  0  0  0  0  0  0  0
    8.8104  -17.7728   18.7037 C   0  0  0  0  0  0  0  0  0  0  0  0
    9.4305  -16.8693   19.7400 C   0  0  0  0  0  0  0  0  0  0  0  0
    9.8648  -17.5956   20.9764 C   0  0  2  0  0  0  0  0  0  0  0  0
    8.8588  -18.4141   21.5825 N   0  0  0  0  0  0  0  0  0  0  0  0
   10.5364  -16.6922   21.9514 C   0  0  0  0  0  0  0  0  0  0  0  0
   11.3867  -15.8774   21.5116 O   0  0  0  0  0  0  0  0  0  0  0  0
    6.2577  -20.6431   16.3029 N   0  0  0  0  0  0  0  0  0  0  0  0
   10.2763  -16.6983   23.3268 C   0  0  1  0  0  0  0  0  0  0  0  0
   11.0144  -15.8652   24.2822 C   0  0  0  0  0  0  0  0  0  0  0  0
   10.0604  -15.6247   25.4305 C   0  0  0  0  0  0  0  0  0  0  0  0
   10.6600  -14.8082   26.5476 C   0  0  0  0  0  0  0  0  0  0  0  0
    9.5836  -14.6731   27.6228 C   0  0  0  0  0  0  0  0  0  0  0  0
   10.1010  -13.8797   28.8035 N   0  0  0  0  0  0  0  0  0  0  0  0
   10.1275  -14.6319   30.0234 C   0  0  0  0  0  0  0  0  0  0  0  0
   12.2239  -16.6238   24.6860 O   0  0  0  0  0  0  0  0  0  0  0  0
   12.1196  -17.6171   25.4492 N   0  0  0  0  0  0  0  0  0  0  0  0
   13.5063  -16.2550   24.2298 C   0  0  0  0  0  0  0  0  0  0  0  0
   14.7265  -16.8892   24.6419 C   0  0  0  0  0  0  0  0  0  0  0  0
   15.9272  -16.2530   24.0958 O   0  0  0  0  0  0  0  0  0  0  0  0
   15.8128  -15.3108   23.2767 O   0  0  0  0  0  0  0  0  0  0  0  0
  1  2  1  0
  2  3  2  0
  4  2  1  0
  4  5  1  0
  6  5  1  0
  6  7  1  0
  7  8  1  0
  8  9  1  1
 10  8  1  0
 11 10  2  0
 12 10  1  0
 13 19  1  0
 13 12  1  0
 13 14  1  6
 15 14  1  0
 16 15  1  0
 17 16  1  0
 18 17  1  0
 19 21  1  0
 20 19  2  0
 21 22  1  0
 22 23  1  0
 23 24  2  0
 23 25  1  0
M  END
$$$$
