RKG.pdb
     RDKit          3D

 25 24  0  0  1  0  0  0  0  0999 V2000
    6.4168  -13.5209   14.8074 N   0  0  0  0  0  0  0  0  0  0  0  0
    7.3323  -13.5073   15.9216 C   0  0  0  0  0  0  0  0  0  0  0  0
    8.6023  -13.5760   15.7290 N   0  0  0  0  0  0  0  0  0  0  0  0
    6.8545  -13.4180   17.2544 N   0  0  0  0  0  0  0  0  0  0  0  0
    7.7517  -13.3755   18.3655 C   0  0  0  0  0  0  0  0  0  0  0  0
    8.1950  -14.7039   18.8850 C   0  0  0  0  0  0  0  0  0  0  0  0
    9.0271  -14.5897   20.1377 C   0  0  0  0  0  0  0  0  0  0  0  0
    9.3947  -15.9166   20.7285 C   0  0  2  0  0  0  0  0  0  0  0  0
    8.2935  -16.8010   20.9625 N   0  0  0  0  0  0  0  0  0  0  0  0
   10.2824  -15.7759   21.9160 C   0  0  0  0  0  0  0  0  0  0  0  0
   11.2970  -15.0412   21.8101 O   0  0  0  0  0  0  0  0  0  0  0  0
    9.2378  -13.4825   16.5526 N   0  0  0  0  0  0  0  0  0  0  0  0
   10.0528  -16.4135   23.1407 C   0  0  1  0  0  0  0  0  0  0  0  0
   10.9924  -16.3443   24.2650 C   0  0  0  0  0  0  0  0  0  0  0  0
   10.3099  -17.0619   25.4075 C   0  0  0  0  0  0  0  0  0  0  0  0
   11.1797  -17.2055   26.6310 C   0  0  0  0  0  0  0  0  0  0  0  0
   10.3478  -17.9394   27.6807 C   0  0  0  0  0  0  0  0  0  0  0  0
   11.1555  -18.1713   28.9397 N   0  0  0  0  0  0  0  0  0  0  0  0
   10.5000  -19.0282   29.8835 C   0  0  0  0  0  0  0  0  0  0  0  0
   12.2466  -17.0091   23.8327 O   0  0  0  0  0  0  0  0  0  0  0  0
   12.2101  -17.9273   22.9751 N   0  0  0  0  0  0  0  0  0  0  0  0
   13.4966  -16.6329   24.3661 C   0  0  0  0  0  0  0  0  0  0  0  0
   14.3844  -15.6827   23.7579 C   0  0  0  0  0  0  0  0  0  0  0  0
   15.3474  -16.2911   22.8376 O   0  0  0  0  0  0  0  0  0  0  0  0
   15.1978  -17.4838   22.4812 O   0  0  0  0  0  0  0  0  0  0  0  0
  1  2  1  0
  2  3  2  0
  4  2  1  0
  4  5  1  0
  6  5  1  0
  6  7  1  0
  7  8  1  0
  8  9  1  1
 10  8  1  0
 11 10  2  0
 12 10  1  0
 13 19  1  0
 13 12  1  0
 13 14  1  1
 15 14  1  0
 16 15  1  0
 17 16  1  0
 18 17  1  0
 19 21  1  0
 20 19  2  0
 21 22  1  0
 22 23  1  0
 23 24  2  0
 23 25  1  0
M  END
$$$$
