RKG.pdb
     RDKit          3D

 25 24  0  0  1  0  0  0  0  0999 V2000
    7.3669  -15.1841   15.4610 N   0  0  0  0  0  0  0  0  0  0  0  0
    7.8621  -13.8410   15.6364 C   0  0  0  0  0  0  0  0  0  0  0  0
    8.2498  -13.1466   14.6255 N   0  0  0  0  0  0  0  0  0  0  0  0
    7.9331  -13.2549   16.9265 N   0  0  0  0  0  0  0  0  0  0  0  0
    7.2111  -13.7998   18.0324 C   0  0  0  0  0  0  0  0  0  0  0  0
    7.4198  -15.2579   18.2806 C   0  0  0  0  0  0  0  0  0  0  0  0
    8.7767  -15.5593   18.8660 C   0  0  0  0  0  0  0  0  0  0  0  0
    8.7120  -16.3517   20.1359 C   0  0  2  0  0  0  0  0  0  0  0  0
    7.5199  -17.1259   20.3063 N   0  0  0  0  0  0  0  0  0  0  0  0
    9.0368  -15.5245   21.3310 C   0  0  0  0  0  0  0  0  0  0  0  0
   10.0991  -14.8525   21.3120 O   0  0  0  0  0  0  0  0  0  0  0  0
    8.6171  -12.1833   14.7930 N   0  0  0  0  0  0  0  0  0  0  0  0
    8.2292  -15.4525   22.4720 C   0  0  1  0  0  0  0  0  0  0  0  0
    8.6204  -14.7207   23.6816 C   0  0  0  0  0  0  0  0  0  0  0  0
    7.3459  -14.1020   24.2101 C   0  0  0  0  0  0  0  0  0  0  0  0
    7.5704  -13.1626   25.3682 C   0  0  0  0  0  0  0  0  0  0  0  0
    6.2016  -12.6099   25.7603 C   0  0  0  0  0  0  0  0  0  0  0  0
    6.3166  -11.6916   26.9580 N   0  0  0  0  0  0  0  0  0  0  0  0
    5.0511  -11.2011   27.4193 C   0  0  0  0  0  0  0  0  0  0  0  0
    9.2160  -15.7049   24.6188 O   0  0  0  0  0  0  0  0  0  0  0  0
    8.5010  -16.2542   25.4945 N   0  0  0  0  0  0  0  0  0  0  0  0
   10.5829  -16.0455   24.5524 C   0  0  0  0  0  0  0  0  0  0  0  0
   11.3572  -16.5110   25.6681 C   0  0  0  0  0  0  0  0  0  0  0  0
   12.7772  -16.6895   25.3579 O   0  0  0  0  0  0  0  0  0  0  0  0
   13.5590  -17.1066   26.2448 O   0  0  0  0  0  0  0  0  0  0  0  0
  1  2  1  0
  2  3  2  0
  4  2  1  0
  4  5  1  0
  6  5  1  0
  6  7  1  0
  7  8  1  0
  8  9  1  1
 10  8  1  0
 11 10  2  0
 12 10  1  0
 13 19  1  0
 13 12  1  0
 13 14  1  1
 15 14  1  0
 16 15  1  0
 17 16  1  0
 18 17  1  0
 19 21  1  0
 20 19  2  0
 21 22  1  0
 22 23  1  0
 23 24  2  0
 23 25  1  0
M  END
$$$$
