CDA.pdb
     RDKit          3D

 20 19  0  0  1  0  0  0  0  0999 V2000
   17.4650  -13.6905  -15.5364 N   0  0  0  0  0  0  0  0  0  0  0  0
   16.6587  -12.4890  -15.6620 C   0  0  1  0  0  0  0  0  0  0  0  0
   15.3790  -12.6904  -14.9002 C   0  0  0  0  0  0  0  0  0  0  0  0
   14.3212  -13.8423  -15.8158 S   0  0  0  0  0  0  0  0  0  0  0  0
   17.3641  -11.2974  -15.1532 C   0  0  0  0  0  0  0  0  0  0  0  0
   17.8727  -11.2883  -14.0096 O   0  0  0  0  0  0  0  0  0  0  0  0
   17.4555  -10.1564  -15.9890 N   0  0  0  0  0  0  0  0  0  0  0  0
   18.1026   -8.9370  -15.5541 C   0  0  1  0  0  0  0  0  0  0  0  0
   19.3780   -8.6364  -16.2699 C   0  0  0  0  0  0  0  0  0  0  0  0
   20.0179   -7.3920  -15.8287 C   0  0  0  0  0  0  0  0  0  0  0  0
   20.2030   -7.1896  -14.5870 O   0  0  0  0  0  0  0  0  0  0  0  0
   17.1573   -7.7978  -15.8361 C   0  0  0  0  0  0  0  0  0  0  0  0
   16.6690   -7.6076  -16.9799 O   0  0  0  0  0  0  0  0  0  0  0  0
   20.4450   -6.3995  -16.6788 O   0  0  0  0  0  0  0  0  0  0  0  0
   15.5690   -5.1544  -13.6827 C   0  0  0  0  0  0  0  0  0  0  0  0
   15.9329   -5.7363  -15.0336 C   0  0  2  0  0  0  0  0  0  0  0  0
   16.7803   -6.8888  -14.8086 N   0  0  0  0  0  0  0  0  0  0  0  0
   16.6335   -4.6792  -15.8022 C   0  0  0  0  0  0  0  0  0  0  0  0
   17.8780   -4.5955  -15.6628 O   0  0  0  0  0  0  0  0  0  0  0  0
   15.9819   -3.7985  -16.6506 O   0  0  0  0  0  0  0  0  0  0  0  0
  2  5  1  0
  2  1  1  1
  3  2  1  0
  4  3  1  0
  5  6  2  0
  7  8  1  0
  7  5  1  0
  8  9  1  6
  9 10  1  0
 10 14  1  0
 11 10  2  0
 12 13  2  0
 12  8  1  0
 16 15  1  1
 16 18  1  0
 16 17  1  0
 17 12  1  0
 18 20  1  0
 19 18  2  0
M  END
$$$$
