CDA.pdb
     RDKit          3D

 20 19  0  0  1  0  0  0  0  0999 V2000
   19.0097  -13.6085  -16.3635 N   0  0  0  0  0  0  0  0  0  0  0  0
   18.6299  -12.3319  -16.9425 C   0  0  1  0  0  0  0  0  0  0  0  0
   17.1835  -12.4011  -17.3450 C   0  0  0  0  0  0  0  0  0  0  0  0
   17.0350  -13.4059  -18.8457 S   0  0  0  0  0  0  0  0  0  0  0  0
   18.8361  -11.2166  -15.9991 C   0  0  0  0  0  0  0  0  0  0  0  0
   18.5486  -11.3359  -14.7867 O   0  0  0  0  0  0  0  0  0  0  0  0
   19.3692  -10.0004  -16.4946 N   0  0  0  0  0  0  0  0  0  0  0  0
   19.5894   -8.8544  -15.6384 C   0  0  1  0  0  0  0  0  0  0  0  0
   20.9806   -8.3149  -15.6901 C   0  0  0  0  0  0  0  0  0  0  0  0
   21.2043   -7.1841  -14.7824 C   0  0  0  0  0  0  0  0  0  0  0  0
   21.1618   -7.3726  -13.5255 O   0  0  0  0  0  0  0  0  0  0  0  0
   18.6706   -7.7561  -16.1076 C   0  0  0  0  0  0  0  0  0  0  0  0
   18.7383   -7.2859  -17.2726 O   0  0  0  0  0  0  0  0  0  0  0  0
   21.4635   -5.8995  -15.1981 O   0  0  0  0  0  0  0  0  0  0  0  0
   15.5883   -6.1589  -14.7421 C   0  0  0  0  0  0  0  0  0  0  0  0
   16.8325   -6.0944  -15.6046 C   0  0  2  0  0  0  0  0  0  0  0  0
   17.6849   -7.2071  -15.2408 N   0  0  0  0  0  0  0  0  0  0  0  0
   17.4890   -4.7901  -15.3461 C   0  0  0  0  0  0  0  0  0  0  0  0
   16.8722   -3.7556  -15.6989 O   0  0  0  0  0  0  0  0  0  0  0  0
   18.7309   -4.6710  -14.7430 O   0  0  0  0  0  0  0  0  0  0  0  0
  2  5  1  0
  2  1  1  1
  3  2  1  0
  4  3  1  0
  5  6  2  0
  7  8  1  0
  7  5  1  0
  8  9  1  6
  9 10  1  0
 10 14  1  0
 11 10  2  0
 12 13  2  0
 12  8  1  0
 16 15  1  1
 16 18  1  0
 16 17  1  0
 17 12  1  0
 18 20  1  0
 19 18  2  0
M  END
$$$$
