CDA.pdb
     RDKit          3D

 20 19  0  0  1  0  0  0  0  0999 V2000
   19.8672  -10.0354  -13.6729 N   0  0  0  0  0  0  0  0  0  0  0  0
   20.4833   -8.7309  -13.8404 C   0  0  1  0  0  0  0  0  0  0  0  0
   21.7987   -8.7267  -13.1133 C   0  0  0  0  0  0  0  0  0  0  0  0
   21.4873   -8.7278  -11.3281 S   0  0  0  0  0  0  0  0  0  0  0  0
   20.6942   -8.4005  -15.2626 C   0  0  0  0  0  0  0  0  0  0  0  0
   21.0142   -9.2841  -16.0894 O   0  0  0  0  0  0  0  0  0  0  0  0
   20.5266   -7.0556  -15.6773 N   0  0  0  0  0  0  0  0  0  0  0  0
   20.6538   -6.6590  -17.0634 C   0  0  1  0  0  0  0  0  0  0  0  0
   19.3577   -6.6083  -17.8031 C   0  0  0  0  0  0  0  0  0  0  0  0
   19.5169   -6.4562  -19.2536 C   0  0  0  0  0  0  0  0  0  0  0  0
   19.5467   -7.4912  -19.9919 O   0  0  0  0  0  0  0  0  0  0  0  0
   21.2306   -5.2670  -17.0845 C   0  0  0  0  0  0  0  0  0  0  0  0
   20.9142   -4.4039  -16.2256 O   0  0  0  0  0  0  0  0  0  0  0  0
   19.6399   -5.2461  -19.8945 O   0  0  0  0  0  0  0  0  0  0  0  0
   23.6834   -3.5241  -19.3513 C   0  0  0  0  0  0  0  0  0  0  0  0
   22.7183   -3.5430  -18.1832 C   0  0  2  0  0  0  0  0  0  0  0  0
   22.1622   -4.8766  -18.0864 N   0  0  0  0  0  0  0  0  0  0  0  0
   21.6713   -2.5278  -18.4515 C   0  0  0  0  0  0  0  0  0  0  0  0
   20.6361   -2.9125  -19.0478 O   0  0  0  0  0  0  0  0  0  0  0  0
   21.7883   -1.1987  -18.0774 O   0  0  0  0  0  0  0  0  0  0  0  0
  2  5  1  0
  2  1  1  6
  3  2  1  0
  4  3  1  0
  5  6  2  0
  7  8  1  0
  7  5  1  0
  8  9  1  1
  9 10  1  0
 10 14  1  0
 11 10  2  0
 12 13  2  0
 12  8  1  0
 16 15  1  6
 16 18  1  0
 16 17  1  0
 17 12  1  0
 18 20  1  0
 19 18  2  0
M  END
$$$$
