CDA.pdb
     RDKit          3D

 20 19  0  0  1  0  0  0  0  0999 V2000
   20.3049  -15.0221  -17.8234 N   0  0  0  0  0  0  0  0  0  0  0  0
   19.8562  -14.1014  -16.7937 C   0  0  1  0  0  0  0  0  0  0  0  0
   20.7154  -14.2914  -15.5753 C   0  0  0  0  0  0  0  0  0  0  0  0
   20.3340  -15.8976  -14.8278 S   0  0  0  0  0  0  0  0  0  0  0  0
   19.9246  -12.6978  -17.2428 C   0  0  0  0  0  0  0  0  0  0  0  0
   20.8344  -12.3096  -18.0097 O   0  0  0  0  0  0  0  0  0  0  0  0
   18.9346  -11.7920  -16.7865 N   0  0  0  0  0  0  0  0  0  0  0  0
   18.8548  -10.4324  -17.2765 C   0  0  1  0  0  0  0  0  0  0  0  0
   17.4783   -9.8549  -17.2469 C   0  0  0  0  0  0  0  0  0  0  0  0
   16.8253   -9.9643  -15.9376 C   0  0  0  0  0  0  0  0  0  0  0  0
   16.4692   -8.9080  -15.3257 O   0  0  0  0  0  0  0  0  0  0  0  0
   19.7132   -9.5775  -16.3803 C   0  0  0  0  0  0  0  0  0  0  0  0
   19.8138   -9.8013  -15.1463 O   0  0  0  0  0  0  0  0  0  0  0  0
   16.5613  -11.1551  -15.3032 O   0  0  0  0  0  0  0  0  0  0  0  0
   22.0084   -6.6626  -17.0222 C   0  0  0  0  0  0  0  0  0  0  0  0
   21.2970   -7.6273  -16.0954 C   0  0  2  0  0  0  0  0  0  0  0  0
   20.4469   -8.4766  -16.9036 N   0  0  0  0  0  0  0  0  0  0  0  0
   20.5119   -6.8224  -15.1285 C   0  0  0  0  0  0  0  0  0  0  0  0
   19.2613   -6.8674  -15.2240 O   0  0  0  0  0  0  0  0  0  0  0  0
   21.0927   -6.0387  -14.1443 O   0  0  0  0  0  0  0  0  0  0  0  0
  2  5  1  0
  2  1  1  6
  3  2  1  0
  4  3  1  0
  5  6  2  0
  7  8  1  0
  7  5  1  0
  8  9  1  1
  9 10  1  0
 10 14  1  0
 11 10  2  0
 12 13  2  0
 12  8  1  0
 16 15  1  6
 16 18  1  0
 16 17  1  0
 17 12  1  0
 18 20  1  0
 19 18  2  0
M  END
$$$$
