CDA.pdb
     RDKit          3D

 20 19  0  0  1  0  0  0  0  0999 V2000
   15.4100  -21.5217    0.7600 N   0  0  0  0  0  0  0  0  0  0  0  0
   15.6738  -21.8248    2.1557 C   0  0  1  0  0  0  0  0  0  0  0  0
   16.4639  -23.1013    2.2263 C   0  0  0  0  0  0  0  0  0  0  0  0
   15.6104  -24.3787    1.2653 S   0  0  0  0  0  0  0  0  0  0  0  0
   16.4141  -20.7380    2.8243 C   0  0  0  0  0  0  0  0  0  0  0  0
   17.1003  -19.9245    2.1654 O   0  0  0  0  0  0  0  0  0  0  0  0
   16.3331  -20.6319    4.2353 N   0  0  0  0  0  0  0  0  0  0  0  0
   16.8361  -19.4767    4.9477 C   0  0  1  0  0  0  0  0  0  0  0  0
   15.8303  -18.8263    5.8391 C   0  0  0  0  0  0  0  0  0  0  0  0
   16.3356  -17.6253    6.5138 C   0  0  0  0  0  0  0  0  0  0  0  0
   17.3120  -16.9871    6.0074 O   0  0  0  0  0  0  0  0  0  0  0  0
   17.9688  -19.9440    5.8247 C   0  0  0  0  0  0  0  0  0  0  0  0
   17.8522  -20.9384    6.5866 O   0  0  0  0  0  0  0  0  0  0  0  0
   15.8199  -17.1226    7.6849 O   0  0  0  0  0  0  0  0  0  0  0  0
   21.5769  -18.9283    6.1047 C   0  0  0  0  0  0  0  0  0  0  0  0
   20.3756  -19.7271    6.5682 C   0  0  2  0  0  0  0  0  0  0  0  0
   19.2219  -19.2703    5.8218 N   0  0  0  0  0  0  0  0  0  0  0  0
   20.2176  -19.4934    8.0241 C   0  0  0  0  0  0  0  0  0  0  0  0
   19.3399  -18.6712    8.3828 O   0  0  0  0  0  0  0  0  0  0  0  0
   20.9849  -20.1337    8.9840 O   0  0  0  0  0  0  0  0  0  0  0  0
  2  5  1  0
  2  1  1  6
  3  2  1  0
  4  3  1  0
  5  6  2  0
  7  8  1  0
  7  5  1  0
  8  9  1  1
  9 10  1  0
 10 14  1  0
 11 10  2  0
 12 13  2  0
 12  8  1  0
 16 15  1  6
 16 18  1  0
 16 17  1  0
 17 12  1  0
 18 20  1  0
 19 18  2  0
M  END
$$$$
