CDA.pdb
     RDKit          3D

 20 19  0  0  1  0  0  0  0  0999 V2000
   17.5827  -13.1703  -16.0867 N   0  0  0  0  0  0  0  0  0  0  0  0
   17.2886  -11.7511  -15.9927 C   0  0  1  0  0  0  0  0  0  0  0  0
   16.5635  -11.4978  -14.7009 C   0  0  0  0  0  0  0  0  0  0  0  0
   14.8407  -12.0319  -14.8755 S   0  0  0  0  0  0  0  0  0  0  0  0
   18.5131  -10.9304  -16.0509 C   0  0  0  0  0  0  0  0  0  0  0  0
   19.5464  -11.2688  -15.4310 O   0  0  0  0  0  0  0  0  0  0  0  0
   18.4969   -9.7444  -16.8268 N   0  0  0  0  0  0  0  0  0  0  0  0
   19.6603   -8.8921  -16.9491 C   0  0  1  0  0  0  0  0  0  0  0  0
   19.7141   -8.1151  -18.2230 C   0  0  0  0  0  0  0  0  0  0  0  0
   19.9057   -8.9528  -19.4122 C   0  0  0  0  0  0  0  0  0  0  0  0
   19.0152   -8.9638  -20.3200 O   0  0  0  0  0  0  0  0  0  0  0  0
   19.6093   -7.8927  -15.8225 C   0  0  0  0  0  0  0  0  0  0  0  0
   18.5371   -7.3288  -15.4829 O   0  0  0  0  0  0  0  0  0  0  0  0
   21.0053   -9.7497  -19.6267 O   0  0  0  0  0  0  0  0  0  0  0  0
   22.1065   -6.6631  -13.3052 C   0  0  0  0  0  0  0  0  0  0  0  0
   20.8269   -6.4987  -14.0999 C   0  0  2  0  0  0  0  0  0  0  0  0
   20.7835   -7.5485  -15.0965 N   0  0  0  0  0  0  0  0  0  0  0  0
   20.8549   -5.1518  -14.7196 C   0  0  0  0  0  0  0  0  0  0  0  0
   21.1390   -5.0859  -15.9403 O   0  0  0  0  0  0  0  0  0  0  0  0
   20.5854   -3.9873  -14.0186 O   0  0  0  0  0  0  0  0  0  0  0  0
  2  5  1  0
  2  1  1  1
  3  2  1  0
  4  3  1  0
  5  6  2  0
  7  8  1  0
  7  5  1  0
  8  9  1  6
  9 10  1  0
 10 14  1  0
 11 10  2  0
 12 13  2  0
 12  8  1  0
 16 15  1  6
 16 18  1  0
 16 17  1  0
 17 12  1  0
 18 20  1  0
 19 18  2  0
M  END
$$$$
