CDA.pdb
     RDKit          3D

 20 19  0  0  1  0  0  0  0  0999 V2000
   23.4707  -13.3949  -17.4643 N   0  0  0  0  0  0  0  0  0  0  0  0
   23.4966  -12.4542  -16.3580 C   0  0  1  0  0  0  0  0  0  0  0  0
   24.9197  -12.0316  -16.1233 C   0  0  0  0  0  0  0  0  0  0  0  0
   25.8023  -13.3705  -15.2794 S   0  0  0  0  0  0  0  0  0  0  0  0
   22.6579  -11.2699  -16.6230 C   0  0  0  0  0  0  0  0  0  0  0  0
   22.6076  -10.7574  -17.7639 O   0  0  0  0  0  0  0  0  0  0  0  0
   21.9058  -10.7202  -15.5549 N   0  0  0  0  0  0  0  0  0  0  0  0
   21.0544   -9.5632  -15.7322 C   0  0  1  0  0  0  0  0  0  0  0  0
   19.7125   -9.6914  -15.0902 C   0  0  0  0  0  0  0  0  0  0  0  0
   18.8549   -8.5171  -15.2863 C   0  0  0  0  0  0  0  0  0  0  0  0
   18.5415   -7.7970  -14.2862 O   0  0  0  0  0  0  0  0  0  0  0  0
   21.7447   -8.3902  -15.0855 C   0  0  0  0  0  0  0  0  0  0  0  0
   22.2658   -8.4733  -13.9434 O   0  0  0  0  0  0  0  0  0  0  0  0
   18.3496   -8.1243  -16.5031 O   0  0  0  0  0  0  0  0  0  0  0  0
   22.4450   -4.8649  -16.2105 C   0  0  0  0  0  0  0  0  0  0  0  0
   22.4568   -5.9656  -15.1692 C   0  0  2  0  0  0  0  0  0  0  0  0
   21.8319   -7.1355  -15.7505 N   0  0  0  0  0  0  0  0  0  0  0  0
   21.7093   -5.4717  -13.9875 C   0  0  0  0  0  0  0  0  0  0  0  0
   22.2579   -4.5851  -13.2889 O   0  0  0  0  0  0  0  0  0  0  0  0
   20.4549   -5.9409  -13.6316 O   0  0  0  0  0  0  0  0  0  0  0  0
  2  5  1  0
  2  1  1  6
  3  2  1  0
  4  3  1  0
  5  6  2  0
  7  8  1  0
  7  5  1  0
  8  9  1  1
  9 10  1  0
 10 14  1  0
 11 10  2  0
 12 13  2  0
 12  8  1  0
 16 15  1  6
 16 18  1  0
 16 17  1  0
 17 12  1  0
 18 20  1  0
 19 18  2  0
M  END
$$$$
