CDA.pdb
     RDKit          3D

 20 19  0  0  1  0  0  0  0  0999 V2000
   20.4958  -40.2847   -2.1377 N   0  0  0  0  0  0  0  0  0  0  0  0
   21.7444  -39.5626   -1.9680 C   0  0  1  0  0  0  0  0  0  0  0  0
   22.7624  -40.1399   -2.9111 C   0  0  0  0  0  0  0  0  0  0  0  0
   22.2127  -39.8631   -4.6156 S   0  0  0  0  0  0  0  0  0  0  0  0
   21.5841  -38.1186   -2.2241 C   0  0  0  0  0  0  0  0  0  0  0  0
   20.4939  -37.6517   -2.6244 O   0  0  0  0  0  0  0  0  0  0  0  0
   22.6946  -37.2652   -2.0071 N   0  0  0  0  0  0  0  0  0  0  0  0
   22.5925  -35.8268   -2.1322 C   0  0  1  0  0  0  0  0  0  0  0  0
   22.2185  -35.1310   -0.8652 C   0  0  0  0  0  0  0  0  0  0  0  0
   22.0556  -33.6811   -1.0195 C   0  0  0  0  0  0  0  0  0  0  0  0
   22.5226  -32.9008   -0.1305 O   0  0  0  0  0  0  0  0  0  0  0  0
   23.9489  -35.3105   -2.5374 C   0  0  0  0  0  0  0  0  0  0  0  0
   25.0043  -35.7063   -1.9785 O   0  0  0  0  0  0  0  0  0  0  0  0
   21.4186  -33.0840   -2.0815 O   0  0  0  0  0  0  0  0  0  0  0  0
   25.0972  -32.8304   -5.1302 C   0  0  0  0  0  0  0  0  0  0  0  0
   25.3570  -33.7941   -3.9901 C   0  0  2  0  0  0  0  0  0  0  0  0
   24.0846  -34.3479   -3.5763 N   0  0  0  0  0  0  0  0  0  0  0  0
   26.0066  -33.0301   -2.8976 C   0  0  0  0  0  0  0  0  0  0  0  0
   25.3409  -32.8455   -1.8498 O   0  0  0  0  0  0  0  0  0  0  0  0
   27.2929  -32.5224   -2.9863 O   0  0  0  0  0  0  0  0  0  0  0  0
  2  5  1  0
  2  1  1  6
  3  2  1  0
  4  3  1  0
  5  6  2  0
  7  8  1  0
  7  5  1  0
  8  9  1  1
  9 10  1  0
 10 14  1  0
 11 10  2  0
 12 13  2  0
 12  8  1  0
 16 15  1  6
 16 18  1  0
 16 17  1  0
 17 12  1  0
 18 20  1  0
 19 18  2  0
M  END
$$$$
