CDA.pdb
     RDKit          3D

 20 19  0  0  1  0  0  0  0  0999 V2000
   25.4711  -22.4343  -11.1107 N   0  0  0  0  0  0  0  0  0  0  0  0
   25.2685  -21.0312  -11.4265 C   0  0  1  0  0  0  0  0  0  0  0  0
   26.3677  -20.2331  -10.7834 C   0  0  0  0  0  0  0  0  0  0  0  0
   25.9010  -19.8552   -9.0736 S   0  0  0  0  0  0  0  0  0  0  0  0
   25.2585  -20.7908  -12.8820 C   0  0  0  0  0  0  0  0  0  0  0  0
   26.0879  -21.3505  -13.6340 O   0  0  0  0  0  0  0  0  0  0  0  0
   24.2860  -19.9087  -13.4158 N   0  0  0  0  0  0  0  0  0  0  0  0
   24.0999  -19.7444  -14.8418 C   0  0  1  0  0  0  0  0  0  0  0  0
   22.6840  -19.4977  -15.2461 C   0  0  0  0  0  0  0  0  0  0  0  0
   21.7776  -20.6006  -14.9073 C   0  0  0  0  0  0  0  0  0  0  0  0
   21.9903  -21.7569  -15.3918 O   0  0  0  0  0  0  0  0  0  0  0  0
   24.8983  -18.5389  -15.2662 C   0  0  0  0  0  0  0  0  0  0  0  0
   24.5681  -17.3720  -14.9310 O   0  0  0  0  0  0  0  0  0  0  0  0
   20.6845  -20.4764  -14.0827 O   0  0  0  0  0  0  0  0  0  0  0  0
   28.3582  -18.0000  -16.2130 C   0  0  0  0  0  0  0  0  0  0  0  0
   26.9217  -17.5707  -16.4328 C   0  0  2  0  0  0  0  0  0  0  0  0
   26.0647  -18.6797  -16.0686 N   0  0  0  0  0  0  0  0  0  0  0  0
   26.7767  -17.2092  -17.8636 C   0  0  0  0  0  0  0  0  0  0  0  0
   26.0183  -17.9235  -18.5635 O   0  0  0  0  0  0  0  0  0  0  0  0
   27.4318  -16.1361  -18.4463 O   0  0  0  0  0  0  0  0  0  0  0  0
  2  5  1  0
  2  1  1  6
  3  2  1  0
  4  3  1  0
  5  6  2  0
  7  8  1  0
  7  5  1  0
  8  9  1  1
  9 10  1  0
 10 14  1  0
 11 10  2  0
 12 13  2  0
 12  8  1  0
 16 15  1  6
 16 18  1  0
 16 17  1  0
 17 12  1  0
 18 20  1  0
 19 18  2  0
M  END
$$$$
