CDA.pdb
     RDKit          3D

 20 19  0  0  1  0  0  0  0  0999 V2000
   21.5717  -11.0581  -16.2574 N   0  0  0  0  0  0  0  0  0  0  0  0
   20.1373  -10.8299  -16.2557 C   0  0  1  0  0  0  0  0  0  0  0  0
   19.4422  -12.1581  -16.1490 C   0  0  0  0  0  0  0  0  0  0  0  0
   19.4200  -12.9463  -17.7806 S   0  0  0  0  0  0  0  0  0  0  0  0
   19.7209   -9.9540  -15.1440 C   0  0  0  0  0  0  0  0  0  0  0  0
   20.3293   -9.9667  -14.0502 O   0  0  0  0  0  0  0  0  0  0  0  0
   18.6121   -9.0930  -15.3392 N   0  0  0  0  0  0  0  0  0  0  0  0
   18.1293   -8.2154  -14.2944 C   0  0  1  0  0  0  0  0  0  0  0  0
   17.5774   -6.9211  -14.7939 C   0  0  0  0  0  0  0  0  0  0  0  0
   18.0369   -5.7552  -14.0308 C   0  0  0  0  0  0  0  0  0  0  0  0
   18.6068   -5.9277  -12.9072 O   0  0  0  0  0  0  0  0  0  0  0  0
   17.0086   -8.9306  -13.5850 C   0  0  0  0  0  0  0  0  0  0  0  0
   16.1144   -9.5529  -14.2143 O   0  0  0  0  0  0  0  0  0  0  0  0
   17.8944   -4.4533  -14.4491 O   0  0  0  0  0  0  0  0  0  0  0  0
   16.2251   -9.5393   -9.9553 C   0  0  0  0  0  0  0  0  0  0  0  0
   15.8714   -9.5977  -11.4276 C   0  0  2  0  0  0  0  0  0  0  0  0
   16.9217   -8.9267  -12.1649 N   0  0  0  0  0  0  0  0  0  0  0  0
   14.5612   -8.9250  -11.6001 C   0  0  0  0  0  0  0  0  0  0  0  0
   14.5729   -7.7393  -12.0113 O   0  0  0  0  0  0  0  0  0  0  0  0
   13.3496   -9.5411  -11.3306 O   0  0  0  0  0  0  0  0  0  0  0  0
  2  5  1  0
  2  1  1  1
  3  2  1  0
  4  3  1  0
  5  6  2  0
  7  8  1  0
  7  5  1  0
  8  9  1  6
  9 10  1  0
 10 14  1  0
 11 10  2  0
 12 13  2  0
 12  8  1  0
 16 15  1  1
 16 18  1  0
 16 17  1  0
 17 12  1  0
 18 20  1  0
 19 18  2  0
M  END
$$$$
