CDA.pdb
     RDKit          3D

 20 19  0  0  1  0  0  0  0  0999 V2000
   24.7624  -31.7234   -9.6498 N   0  0  0  0  0  0  0  0  0  0  0  0
   24.9225  -32.9612   -8.9070 C   0  0  1  0  0  0  0  0  0  0  0  0
   25.6353  -33.9544   -9.7811 C   0  0  0  0  0  0  0  0  0  0  0  0
   24.5043  -34.5168  -11.0805 S   0  0  0  0  0  0  0  0  0  0  0  0
   25.6787  -32.7586   -7.6566 C   0  0  0  0  0  0  0  0  0  0  0  0
   26.3472  -31.7172   -7.4686 O   0  0  0  0  0  0  0  0  0  0  0  0
   25.6335  -33.7716   -6.6664 N   0  0  0  0  0  0  0  0  0  0  0  0
   26.2180  -33.5888   -5.3549 C   0  0  1  0  0  0  0  0  0  0  0  0
   25.2649  -33.8124   -4.2276 C   0  0  0  0  0  0  0  0  0  0  0  0
   25.8171  -33.4588   -2.9150 C   0  0  0  0  0  0  0  0  0  0  0  0
   26.7719  -32.6220   -2.8426 O   0  0  0  0  0  0  0  0  0  0  0  0
   27.3240  -34.6015   -5.2074 C   0  0  0  0  0  0  0  0  0  0  0  0
   27.1237  -35.8326   -5.3724 O   0  0  0  0  0  0  0  0  0  0  0  0
   25.3689  -33.9776   -1.7233 O   0  0  0  0  0  0  0  0  0  0  0  0
   31.0116  -34.3278   -4.5107 C   0  0  0  0  0  0  0  0  0  0  0  0
   29.7310  -35.1274   -4.6395 C   0  0  2  0  0  0  0  0  0  0  0  0
   28.6464  -34.1968   -4.8731 N   0  0  0  0  0  0  0  0  0  0  0  0
   29.5463  -35.8829   -3.3769 C   0  0  0  0  0  0  0  0  0  0  0  0
   28.8921  -35.3246   -2.4628 O   0  0  0  0  0  0  0  0  0  0  0  0
   30.0569  -37.1544   -3.1707 O   0  0  0  0  0  0  0  0  0  0  0  0
  2  5  1  0
  2  1  1  6
  3  2  1  0
  4  3  1  0
  5  6  2  0
  7  8  1  0
  7  5  1  0
  8  9  1  1
  9 10  1  0
 10 14  1  0
 11 10  2  0
 12 13  2  0
 12  8  1  0
 16 15  1  1
 16 18  1  0
 16 17  1  0
 17 12  1  0
 18 20  1  0
 19 18  2  0
M  END
$$$$
