CDA.pdb
     RDKit          3D

 20 19  0  0  1  0  0  0  0  0999 V2000
   17.6019  -12.1750  -15.4924 N   0  0  0  0  0  0  0  0  0  0  0  0
   17.3177  -10.7580  -15.6375 C   0  0  1  0  0  0  0  0  0  0  0  0
   16.4930  -10.3132  -14.4624 C   0  0  0  0  0  0  0  0  0  0  0  0
   14.7775  -10.8421  -14.7103 S   0  0  0  0  0  0  0  0  0  0  0  0
   18.5525   -9.9547  -15.7176 C   0  0  0  0  0  0  0  0  0  0  0  0
   19.5484  -10.2305  -15.0114 O   0  0  0  0  0  0  0  0  0  0  0  0
   18.5897   -8.8582  -16.6149 N   0  0  0  0  0  0  0  0  0  0  0  0
   19.7714   -8.0379  -16.7748 C   0  0  1  0  0  0  0  0  0  0  0  0
   19.8317   -7.3047  -18.0740 C   0  0  0  0  0  0  0  0  0  0  0  0
   20.0889   -8.1755  -19.2265 C   0  0  0  0  0  0  0  0  0  0  0  0
   19.4245   -8.0083  -20.2978 O   0  0  0  0  0  0  0  0  0  0  0  0
   19.7536   -7.0010  -15.6814 C   0  0  0  0  0  0  0  0  0  0  0  0
   18.6937   -6.4175  -15.3366 O   0  0  0  0  0  0  0  0  0  0  0  0
   21.0194   -9.1876  -19.2375 O   0  0  0  0  0  0  0  0  0  0  0  0
   22.2531   -5.9637  -13.1033 C   0  0  0  0  0  0  0  0  0  0  0  0
   20.9802   -5.7113  -13.8856 C   0  0  2  0  0  0  0  0  0  0  0  0
   20.9467   -6.6423  -14.9943 N   0  0  0  0  0  0  0  0  0  0  0  0
   21.0118   -4.3032  -14.3496 C   0  0  0  0  0  0  0  0  0  0  0  0
   21.2750   -4.1021  -15.5602 O   0  0  0  0  0  0  0  0  0  0  0  0
   20.7673   -3.2232  -13.5166 O   0  0  0  0  0  0  0  0  0  0  0  0
  2  5  1  0
  2  1  1  1
  3  2  1  0
  4  3  1  0
  5  6  2  0
  7  8  1  0
  7  5  1  0
  8  9  1  6
  9 10  1  0
 10 14  1  0
 11 10  2  0
 12 13  2  0
 12  8  1  0
 16 15  1  6
 16 18  1  0
 16 17  1  0
 17 12  1  0
 18 20  1  0
 19 18  2  0
M  END
$$$$
