CDA.pdb
     RDKit          3D

 20 19  0  0  1  0  0  0  0  0999 V2000
   25.7908  -12.0628  -17.6143 N   0  0  0  0  0  0  0  0  0  0  0  0
   25.5099  -11.1310  -16.5361 C   0  0  1  0  0  0  0  0  0  0  0  0
   26.7416  -10.3080  -16.2827 C   0  0  0  0  0  0  0  0  0  0  0  0
   28.0059  -11.3565  -15.5173 S   0  0  0  0  0  0  0  0  0  0  0  0
   24.3721  -10.2477  -16.8548 C   0  0  0  0  0  0  0  0  0  0  0  0
   24.1268   -9.9125  -18.0356 O   0  0  0  0  0  0  0  0  0  0  0  0
   23.5574   -9.7831  -15.7922 N   0  0  0  0  0  0  0  0  0  0  0  0
   22.3939   -8.9539  -16.0239 C   0  0  1  0  0  0  0  0  0  0  0  0
   21.1236   -9.5236  -15.4846 C   0  0  0  0  0  0  0  0  0  0  0  0
   19.9378   -8.7237  -15.8113 C   0  0  0  0  0  0  0  0  0  0  0  0
   19.1090   -8.4294  -14.8929 O   0  0  0  0  0  0  0  0  0  0  0  0
   22.6256   -7.6423  -15.3190 C   0  0  0  0  0  0  0  0  0  0  0  0
   22.9023   -7.5871  -14.0929 O   0  0  0  0  0  0  0  0  0  0  0  0
   19.6454   -8.2546  -17.0701 O   0  0  0  0  0  0  0  0  0  0  0  0
   22.8205   -4.0833  -16.5288 C   0  0  0  0  0  0  0  0  0  0  0  0
   22.8704   -5.1284  -15.4327 C   0  0  2  0  0  0  0  0  0  0  0  0
   22.5385   -6.4086  -16.0224 N   0  0  0  0  0  0  0  0  0  0  0  0
   21.8923   -4.7315  -14.3911 C   0  0  0  0  0  0  0  0  0  0  0  0
   20.7410   -5.2256  -14.4649 O   0  0  0  0  0  0  0  0  0  0  0  0
   22.1932   -3.8548  -13.3611 O   0  0  0  0  0  0  0  0  0  0  0  0
  2  5  1  0
  2  1  1  6
  3  2  1  0
  4  3  1  0
  5  6  2  0
  7  8  1  0
  7  5  1  0
  8  9  1  1
  9 10  1  0
 10 14  1  0
 11 10  2  0
 12 13  2  0
 12  8  1  0
 16 15  1  6
 16 18  1  0
 16 17  1  0
 17 12  1  0
 18 20  1  0
 19 18  2  0
M  END
$$$$
