CDA.pdb
     RDKit          3D

 20 19  0  0  1  0  0  0  0  0999 V2000
   21.3068  -11.7962  -16.4604 N   0  0  0  0  0  0  0  0  0  0  0  0
   21.7287  -10.7394  -15.5579 C   0  0  1  0  0  0  0  0  0  0  0  0
   23.2273  -10.6369  -15.6094 C   0  0  0  0  0  0  0  0  0  0  0  0
   23.9458  -11.9847  -14.6341 S   0  0  0  0  0  0  0  0  0  0  0  0
   21.1238   -9.4408  -15.9103 C   0  0  0  0  0  0  0  0  0  0  0  0
   21.0942   -9.0440  -17.0970 O   0  0  0  0  0  0  0  0  0  0  0  0
   20.5737   -8.6465  -14.8733 N   0  0  0  0  0  0  0  0  0  0  0  0
   19.9230   -7.3814  -15.1394 C   0  0  1  0  0  0  0  0  0  0  0  0
   18.5520   -7.2685  -14.5590 C   0  0  0  0  0  0  0  0  0  0  0  0
   17.8870   -5.9983  -14.8703 C   0  0  0  0  0  0  0  0  0  0  0  0
   18.3817   -5.2341  -15.7582 O   0  0  0  0  0  0  0  0  0  0  0  0
   20.7616   -6.2999  -14.5087 C   0  0  0  0  0  0  0  0  0  0  0  0
   21.0760   -6.3286  -13.2908 O   0  0  0  0  0  0  0  0  0  0  0  0
   16.7373   -5.5580  -14.2584 O   0  0  0  0  0  0  0  0  0  0  0  0
   22.5192   -3.2649  -15.8665 C   0  0  0  0  0  0  0  0  0  0  0  0
   22.0048   -4.1082  -14.7175 C   0  0  2  0  0  0  0  0  0  0  0  0
   21.2315   -5.1978  -15.2759 N   0  0  0  0  0  0  0  0  0  0  0  0
   21.1772   -3.2313  -13.8543 C   0  0  0  0  0  0  0  0  0  0  0  0
   19.9314   -3.3012  -13.9890 O   0  0  0  0  0  0  0  0  0  0  0  0
   21.7141   -2.3558  -12.9240 O   0  0  0  0  0  0  0  0  0  0  0  0
  2  5  1  0
  2  1  1  6
  3  2  1  0
  4  3  1  0
  5  6  2  0
  7  8  1  0
  7  5  1  0
  8  9  1  1
  9 10  1  0
 10 14  1  0
 11 10  2  0
 12 13  2  0
 12  8  1  0
 16 15  1  6
 16 18  1  0
 16 17  1  0
 17 12  1  0
 18 20  1  0
 19 18  2  0
M  END
$$$$
