FSC.pdb
     RDKit          3D

 24 24  0  0  1  0  0  0  0  0999 V2000
    8.1685  -17.3515   21.4519 N   0  0  0  0  0  0  0  0  0  0  0  0
    9.2967  -16.6565   20.9186 C   0  0  1  0  0  0  0  0  0  0  0  0
    9.3838  -15.2785   21.5343 C   0  0  0  0  0  0  0  0  0  0  0  0
    8.4593  -14.3437   20.8397 C   0  0  0  0  0  0  0  0  0  0  0  0
    8.8550  -13.6176   19.7403 C   0  0  0  0  0  0  0  0  0  0  0  0
    8.0250  -12.7474   19.0785 C   0  0  0  0  0  0  0  0  0  0  0  0
    6.7235  -12.6181   19.5726 C   0  0  0  0  0  0  0  0  0  0  0  0
    6.3048  -13.3317   20.6683 C   0  0  0  0  0  0  0  0  0  0  0  0
    7.1764  -14.1872   21.2908 C   0  0  0  0  0  0  0  0  0  0  0  0
   10.5852  -17.3669   21.2075 C   0  0  0  0  0  0  0  0  0  0  0  0
   10.7700  -17.8928   22.3319 O   0  0  0  0  0  0  0  0  0  0  0  0
   13.7965  -16.7938   18.6846 O   0  0  0  0  0  0  0  0  0  0  0  0
   13.7980  -18.0553   19.2773 C   0  0  0  0  0  0  0  0  0  0  0  0
   12.9495  -17.9489   20.5435 C   0  0  2  0  0  0  0  0  0  0  0  0
   11.6210  -17.4679   20.2388 N   0  0  0  0  0  0  0  0  0  0  0  0
   13.6485  -17.0636   21.5164 C   0  0  0  0  0  0  0  0  0  0  0  0
   13.1877  -15.9553   21.8941 O   0  0  0  0  0  0  0  0  0  0  0  0
   14.8961  -17.5223   22.0252 N   0  0  0  0  0  0  0  0  0  0  0  0
   15.6380  -16.7755   22.9937 C   0  0  1  0  0  0  0  0  0  0  0  0
   14.9761  -16.7534   24.3536 C   0  0  0  0  0  0  0  0  0  0  0  0
   16.0222  -15.7853   25.4916 S   0  0  0  0  0  0  0  0  0  0  0  0
   17.0565  -17.2140   23.0856 C   0  0  0  0  0  0  0  0  0  0  0  0
   18.1166  -16.3382   23.0928 O   0  0  0  0  0  0  0  0  0  0  0  0
   17.3212  -18.4523   23.1617 O   0  0  0  0  0  0  0  0  0  0  0  0
  2  1  1  1
  2 10  1  0
  3  2  1  0
  4  3  1  0
  5  4  2  0
  6  5  1  0
  7  6  2  0
  7  8  1  0
  8  9  2  0
  9  4  1  0
 10 15  1  0
 10 11  2  0
 12 13  1  0
 14 13  1  6
 14 16  1  0
 15 14  1  0
 16 17  2  0
 18 19  1  0
 18 16  1  0
 19 20  1  1
 21 20  1  0
 22 19  1  0
 22 23  1  0
 24 22  2  0
M  END
$$$$
