FSC.pdb
     RDKit          3D

 24 24  0  0  1  0  0  0  0  0999 V2000
    6.0066  -16.7568   25.0467 N   0  0  0  0  0  0  0  0  0  0  0  0
    7.1984  -16.0508   24.6980 C   0  0  1  0  0  0  0  0  0  0  0  0
    7.7384  -15.3316   25.9132 C   0  0  0  0  0  0  0  0  0  0  0  0
    7.2493  -13.9277   25.9417 C   0  0  0  0  0  0  0  0  0  0  0  0
    7.7404  -12.9724   25.0824 C   0  0  0  0  0  0  0  0  0  0  0  0
    7.3090  -11.6692   25.0849 C   0  0  0  0  0  0  0  0  0  0  0  0
    6.3236  -11.3329   26.0179 C   0  0  0  0  0  0  0  0  0  0  0  0
    5.8176  -12.2684   26.8862 C   0  0  0  0  0  0  0  0  0  0  0  0
    6.2852  -13.5561   26.8396 C   0  0  0  0  0  0  0  0  0  0  0  0
    8.2724  -16.9695   24.1974 C   0  0  0  0  0  0  0  0  0  0  0  0
    8.4817  -18.0615   24.7795 O   0  0  0  0  0  0  0  0  0  0  0  0
   10.8655  -15.4963   21.4614 O   0  0  0  0  0  0  0  0  0  0  0  0
   10.8141  -16.8854   21.3597 C   0  0  0  0  0  0  0  0  0  0  0  0
   10.2398  -17.4033   22.6774 C   0  0  2  0  0  0  0  0  0  0  0  0
    9.0747  -16.6434   23.0698 N   0  0  0  0  0  0  0  0  0  0  0  0
   11.3061  -17.3571   23.7165 C   0  0  0  0  0  0  0  0  0  0  0  0
   11.8301  -16.2863   24.1189 O   0  0  0  0  0  0  0  0  0  0  0  0
   11.7308  -18.6017   24.2610 N   0  0  0  0  0  0  0  0  0  0  0  0
   12.7825  -18.6846   25.2271 C   0  0  1  0  0  0  0  0  0  0  0  0
   12.3195  -19.2405   26.5554 C   0  0  0  0  0  0  0  0  0  0  0  0
   10.9779  -18.1810   27.1911 S   0  0  0  0  0  0  0  0  0  0  0  0
   13.9701  -19.4186   24.7137 C   0  0  0  0  0  0  0  0  0  0  0  0
   14.0055  -20.0249   23.4800 O   0  0  0  0  0  0  0  0  0  0  0  0
   15.0106  -19.5000   25.4348 O   0  0  0  0  0  0  0  0  0  0  0  0
  2  1  1  1
  2 10  1  0
  3  2  1  0
  4  3  1  0
  5  4  2  0
  6  5  1  0
  7  6  2  0
  7  8  1  0
  8  9  2  0
  9  4  1  0
 10 15  1  0
 10 11  2  0
 12 13  1  0
 14 13  1  6
 14 16  1  0
 15 14  1  0
 16 17  2  0
 18 19  1  0
 18 16  1  0
 19 20  1  1
 21 20  1  0
 22 19  1  0
 22 23  1  0
 24 22  2  0
M  END
$$$$
