FSC.pdb
     RDKit          3D

 24 24  0  0  1  0  0  0  0  0999 V2000
    9.9794  -16.2767   18.7443 N   0  0  0  0  0  0  0  0  0  0  0  0
   10.9621  -15.2481   18.8734 C   0  0  1  0  0  0  0  0  0  0  0  0
   10.6181  -14.3594   20.0470 C   0  0  0  0  0  0  0  0  0  0  0  0
    9.3215  -13.6709   19.8104 C   0  0  0  0  0  0  0  0  0  0  0  0
    8.2438  -13.8497   20.6463 C   0  0  0  0  0  0  0  0  0  0  0  0
    7.0349  -13.2284   20.4539 C   0  0  0  0  0  0  0  0  0  0  0  0
    6.9303  -12.3815   19.3465 C   0  0  0  0  0  0  0  0  0  0  0  0
    7.9916  -12.1867   18.4975 C   0  0  0  0  0  0  0  0  0  0  0  0
    9.1764  -12.8330   18.7377 C   0  0  0  0  0  0  0  0  0  0  0  0
   12.3339  -15.8049   19.1101 C   0  0  0  0  0  0  0  0  0  0  0  0
   12.4711  -16.8799   19.7429 O   0  0  0  0  0  0  0  0  0  0  0  0
   15.4098  -13.4899   18.0146 O   0  0  0  0  0  0  0  0  0  0  0  0
   15.8877  -14.7860   18.1997 C   0  0  0  0  0  0  0  0  0  0  0  0
   14.8412  -15.5278   19.0298 C   0  0  2  0  0  0  0  0  0  0  0  0
   13.5030  -15.1490   18.6362 N   0  0  0  0  0  0  0  0  0  0  0  0
   15.0916  -15.2546   20.4725 C   0  0  0  0  0  0  0  0  0  0  0  0
   14.5485  -14.3081   21.0990 O   0  0  0  0  0  0  0  0  0  0  0  0
   15.9940  -16.1246   21.1468 N   0  0  0  0  0  0  0  0  0  0  0  0
   16.3663  -15.9168   22.5123 C   0  0  1  0  0  0  0  0  0  0  0  0
   15.5216  -16.7143   23.4810 C   0  0  0  0  0  0  0  0  0  0  0  0
   16.1593  -16.4401   25.1676 S   0  0  0  0  0  0  0  0  0  0  0  0
   17.8185  -16.1381   22.7460 C   0  0  0  0  0  0  0  0  0  0  0  0
   18.5686  -15.3705   23.6058 O   0  0  0  0  0  0  0  0  0  0  0  0
   18.4118  -17.0759   22.1314 O   0  0  0  0  0  0  0  0  0  0  0  0
  2  1  1  1
  2 10  1  0
  3  2  1  0
  4  3  1  0
  5  4  2  0
  6  5  1  0
  7  6  2  0
  7  8  1  0
  8  9  2  0
  9  4  1  0
 10 15  1  0
 10 11  2  0
 12 13  1  0
 14 13  1  6
 14 16  1  0
 15 14  1  0
 16 17  2  0
 18 19  1  0
 18 16  1  0
 19 20  1  1
 21 20  1  0
 22 19  1  0
 22 23  1  0
 24 22  2  0
M  END
$$$$
