FSC.pdb
     RDKit          3D

 24 24  0  0  1  0  0  0  0  0999 V2000
    5.7603  -17.2830   25.3752 N   0  0  0  0  0  0  0  0  0  0  0  0
    6.5780  -16.1982   24.9337 C   0  0  1  0  0  0  0  0  0  0  0  0
    7.3134  -15.6021   26.1125 C   0  0  0  0  0  0  0  0  0  0  0  0
    7.0503  -14.1411   26.1996 C   0  0  0  0  0  0  0  0  0  0  0  0
    7.9844  -13.2125   25.8027 C   0  0  0  0  0  0  0  0  0  0  0  0
    7.7708  -11.8582   25.8712 C   0  0  0  0  0  0  0  0  0  0  0  0
    6.5349  -11.4393   26.3729 C   0  0  0  0  0  0  0  0  0  0  0  0
    5.5864  -12.3466   26.7755 C   0  0  0  0  0  0  0  0  0  0  0  0
    5.8533  -13.6882   26.6849 C   0  0  0  0  0  0  0  0  0  0  0  0
    7.6032  -16.6360   23.9311 C   0  0  0  0  0  0  0  0  0  0  0  0
    8.3410  -17.6199   24.1811 O   0  0  0  0  0  0  0  0  0  0  0  0
    8.0788  -14.2868   20.7547 O   0  0  0  0  0  0  0  0  0  0  0  0
    8.6572  -15.5170   20.4468 C   0  0  0  0  0  0  0  0  0  0  0  0
    8.8495  -16.2575   21.7693 C   0  0  2  0  0  0  0  0  0  0  0  0
    7.7724  -15.9665   22.6882 N   0  0  0  0  0  0  0  0  0  0  0  0
   10.1760  -15.8882   22.3374 C   0  0  0  0  0  0  0  0  0  0  0  0
   10.4522  -14.7311   22.7473 O   0  0  0  0  0  0  0  0  0  0  0  0
   11.1573  -16.9169   22.4063 N   0  0  0  0  0  0  0  0  0  0  0  0
   12.4540  -16.6884   22.9657 C   0  0  1  0  0  0  0  0  0  0  0  0
   12.7617  -17.6015   24.1316 C   0  0  0  0  0  0  0  0  0  0  0  0
   11.5414  -17.2885   25.4506 S   0  0  0  0  0  0  0  0  0  0  0  0
   13.5313  -16.7317   21.9410 C   0  0  0  0  0  0  0  0  0  0  0  0
   14.8206  -16.3208   22.1858 O   0  0  0  0  0  0  0  0  0  0  0  0
   13.2672  -17.1656   20.7785 O   0  0  0  0  0  0  0  0  0  0  0  0
  2  1  1  1
  2 10  1  0
  3  2  1  0
  4  3  1  0
  5  4  2  0
  6  5  1  0
  7  6  2  0
  7  8  1  0
  8  9  2  0
  9  4  1  0
 10 15  1  0
 10 11  2  0
 12 13  1  0
 14 13  1  6
 14 16  1  0
 15 14  1  0
 16 17  2  0
 18 19  1  0
 18 16  1  0
 19 20  1  1
 21 20  1  0
 22 19  1  0
 22 23  1  0
 24 22  2  0
M  END
$$$$
