FSC.pdb
     RDKit          3D

 24 24  0  0  1  0  0  0  0  0999 V2000
    5.6207  -18.1613   21.3479 N   0  0  0  0  0  0  0  0  0  0  0  0
    6.6560  -17.1906   21.1860 C   0  0  1  0  0  0  0  0  0  0  0  0
    6.3992  -16.0145   22.1006 C   0  0  0  0  0  0  0  0  0  0  0  0
    7.0685  -14.7955   21.5741 C   0  0  0  0  0  0  0  0  0  0  0  0
    7.0751  -14.4960   20.2314 C   0  0  0  0  0  0  0  0  0  0  0  0
    7.6841  -13.3791   19.7157 C   0  0  0  0  0  0  0  0  0  0  0  0
    8.3175  -12.5287   20.6269 C   0  0  0  0  0  0  0  0  0  0  0  0
    8.3248  -12.8058   21.9716 C   0  0  0  0  0  0  0  0  0  0  0  0
    7.7004  -13.9361   22.4318 C   0  0  0  0  0  0  0  0  0  0  0  0
    8.0073  -17.7449   21.5250 C   0  0  0  0  0  0  0  0  0  0  0  0
    8.1906  -18.3122   22.6293 O   0  0  0  0  0  0  0  0  0  0  0  0
   11.3684  -16.5405   19.4983 O   0  0  0  0  0  0  0  0  0  0  0  0
   11.3867  -17.9078   19.7681 C   0  0  0  0  0  0  0  0  0  0  0  0
   10.4294  -18.1400   20.9359 C   0  0  2  0  0  0  0  0  0  0  0  0
    9.1053  -17.6497   20.6268 N   0  0  0  0  0  0  0  0  0  0  0  0
   10.9901  -17.4889   22.1527 C   0  0  0  0  0  0  0  0  0  0  0  0
   10.8141  -16.2735   22.4270 O   0  0  0  0  0  0  0  0  0  0  0  0
   11.7575  -18.3084   23.0275 N   0  0  0  0  0  0  0  0  0  0  0  0
   11.8315  -18.0519   24.4328 C   0  0  1  0  0  0  0  0  0  0  0  0
   10.4729  -18.0115   25.0965 C   0  0  0  0  0  0  0  0  0  0  0  0
   10.2931  -16.4107   25.9519 S   0  0  0  0  0  0  0  0  0  0  0  0
   12.7526  -18.9859   25.1340 C   0  0  0  0  0  0  0  0  0  0  0  0
   13.7757  -18.5639   25.9502 O   0  0  0  0  0  0  0  0  0  0  0  0
   12.6030  -20.2367   24.9840 O   0  0  0  0  0  0  0  0  0  0  0  0
  2  1  1  1
  2 10  1  0
  3  2  1  0
  4  3  1  0
  5  4  2  0
  6  5  1  0
  7  6  2  0
  7  8  1  0
  8  9  2  0
  9  4  1  0
 10 15  1  0
 10 11  2  0
 12 13  1  0
 14 13  1  6
 14 16  1  0
 15 14  1  0
 16 17  2  0
 18 19  1  0
 18 16  1  0
 19 20  1  1
 21 20  1  0
 22 19  1  0
 22 23  1  0
 24 22  2  0
M  END
$$$$
