FSC.pdb
     RDKit          3D

 24 24  0  0  1  0  0  0  0  0999 V2000
    5.6662  -17.0216   25.4682 N   0  0  0  0  0  0  0  0  0  0  0  0
    6.5199  -16.0071   24.9370 C   0  0  1  0  0  0  0  0  0  0  0  0
    7.3643  -15.4201   26.0452 C   0  0  0  0  0  0  0  0  0  0  0  0
    7.0796  -13.9685   26.1972 C   0  0  0  0  0  0  0  0  0  0  0  0
    5.9644  -13.5154   26.8630 C   0  0  0  0  0  0  0  0  0  0  0  0
    5.6749  -12.1826   27.0193 C   0  0  0  0  0  0  0  0  0  0  0  0
    6.5778  -11.2716   26.4629 C   0  0  0  0  0  0  0  0  0  0  0  0
    7.6978  -11.6991   25.7938 C   0  0  0  0  0  0  0  0  0  0  0  0
    7.9377  -13.0429   25.6675 C   0  0  0  0  0  0  0  0  0  0  0  0
    7.4503  -16.5434   23.8906 C   0  0  0  0  0  0  0  0  0  0  0  0
    8.0198  -17.6476   24.0680 O   0  0  0  0  0  0  0  0  0  0  0  0
    8.1749  -14.1653   20.7316 O   0  0  0  0  0  0  0  0  0  0  0  0
    8.6611  -15.4428   20.4594 C   0  0  0  0  0  0  0  0  0  0  0  0
    8.8148  -16.1522   21.8038 C   0  0  2  0  0  0  0  0  0  0  0  0
    7.7147  -15.8355   22.6862 N   0  0  0  0  0  0  0  0  0  0  0  0
   10.1272  -15.7741   22.3984 C   0  0  0  0  0  0  0  0  0  0  0  0
   10.3682  -14.6311   22.8660 O   0  0  0  0  0  0  0  0  0  0  0  0
   11.1368  -16.7771   22.4241 N   0  0  0  0  0  0  0  0  0  0  0  0
   12.4467  -16.5181   22.9372 C   0  0  1  0  0  0  0  0  0  0  0  0
   12.8286  -17.4432   24.0713 C   0  0  0  0  0  0  0  0  0  0  0  0
   11.7069  -17.1321   25.4755 S   0  0  0  0  0  0  0  0  0  0  0  0
   13.4836  -16.5071   21.8707 C   0  0  0  0  0  0  0  0  0  0  0  0
   14.7865  -16.1265   22.0908 O   0  0  0  0  0  0  0  0  0  0  0  0
   13.1697  -16.8629   20.6942 O   0  0  0  0  0  0  0  0  0  0  0  0
  2  1  1  1
  2 10  1  0
  3  2  1  0
  4  3  1  0
  5  4  2  0
  6  5  1  0
  7  6  2  0
  7  8  1  0
  8  9  2  0
  9  4  1  0
 10 15  1  0
 10 11  2  0
 12 13  1  0
 14 13  1  6
 14 16  1  0
 15 14  1  0
 16 17  2  0
 18 19  1  0
 18 16  1  0
 19 20  1  1
 21 20  1  0
 22 19  1  0
 22 23  1  0
 24 22  2  0
M  END
$$$$
