FSC.pdb
     RDKit          3D

 24 24  0  0  1  0  0  0  0  0999 V2000
    6.0071  -16.9783   25.6478 N   0  0  0  0  0  0  0  0  0  0  0  0
    6.6407  -15.8945   24.9665 C   0  0  1  0  0  0  0  0  0  0  0  0
    7.4934  -15.1108   25.9383 C   0  0  0  0  0  0  0  0  0  0  0  0
    6.9458  -13.7397   26.1157 C   0  0  0  0  0  0  0  0  0  0  0  0
    7.5908  -12.6323   25.6155 C   0  0  0  0  0  0  0  0  0  0  0  0
    7.1105  -11.3549   25.7633 C   0  0  0  0  0  0  0  0  0  0  0  0
    5.9071  -11.2102   26.4602 C   0  0  0  0  0  0  0  0  0  0  0  0
    5.2446  -12.2999   26.9689 C   0  0  0  0  0  0  0  0  0  0  0  0
    5.7702  -13.5535   26.7917 C   0  0  0  0  0  0  0  0  0  0  0  0
    7.5321  -16.3688   23.8581 C   0  0  0  0  0  0  0  0  0  0  0  0
    8.3260  -17.3199   24.0586 O   0  0  0  0  0  0  0  0  0  0  0  0
    8.4028  -14.0492   20.4222 O   0  0  0  0  0  0  0  0  0  0  0  0
    8.0890  -15.3915   20.2167 C   0  0  0  0  0  0  0  0  0  0  0  0
    8.4296  -16.1275   21.5116 C   0  0  2  0  0  0  0  0  0  0  0  0
    7.5100  -15.7710   22.5682 N   0  0  0  0  0  0  0  0  0  0  0  0
    9.8403  -15.8224   21.8800 C   0  0  0  0  0  0  0  0  0  0  0  0
   10.2720  -14.6520   22.0442 O   0  0  0  0  0  0  0  0  0  0  0  0
   10.7176  -16.9308   22.0471 N   0  0  0  0  0  0  0  0  0  0  0  0
   12.0962  -16.7589   22.3881 C   0  0  1  0  0  0  0  0  0  0  0  0
   12.4886  -17.5007   23.6465 C   0  0  0  0  0  0  0  0  0  0  0  0
   11.4501  -16.9006   25.0206 S   0  0  0  0  0  0  0  0  0  0  0  0
   13.0067  -17.0843   21.2577 C   0  0  0  0  0  0  0  0  0  0  0  0
   14.3713  -16.9268   21.3204 O   0  0  0  0  0  0  0  0  0  0  0  0
   12.5192  -17.5302   20.1748 O   0  0  0  0  0  0  0  0  0  0  0  0
  2  1  1  1
  2 10  1  0
  3  2  1  0
  4  3  1  0
  5  4  2  0
  6  5  1  0
  7  6  2  0
  7  8  1  0
  8  9  2  0
  9  4  1  0
 10 15  1  0
 10 11  2  0
 12 13  1  0
 14 13  1  6
 14 16  1  0
 15 14  1  0
 16 17  2  0
 18 19  1  0
 18 16  1  0
 19 20  1  1
 21 20  1  0
 22 19  1  0
 22 23  1  0
 24 22  2  0
M  END
$$$$
