FSC.pdb
     RDKit          3D

 24 24  0  0  1  0  0  0  0  0999 V2000
    6.3736  -16.0083   25.7493 N   0  0  0  0  0  0  0  0  0  0  0  0
    6.4600  -15.7585   24.3455 C   0  0  1  0  0  0  0  0  0  0  0  0
    6.4993  -14.2681   24.0949 C   0  0  0  0  0  0  0  0  0  0  0  0
    6.8930  -13.5466   25.3341 C   0  0  0  0  0  0  0  0  0  0  0  0
    8.2039  -13.2241   25.5983 C   0  0  0  0  0  0  0  0  0  0  0  0
    8.5980  -12.5591   26.7328 C   0  0  0  0  0  0  0  0  0  0  0  0
    7.5933  -12.2090   27.6398 C   0  0  0  0  0  0  0  0  0  0  0  0
    6.2778  -12.5198   27.3986 C   0  0  0  0  0  0  0  0  0  0  0  0
    5.9407  -13.1853   26.2486 C   0  0  0  0  0  0  0  0  0  0  0  0
    7.6957  -16.3550   23.7413 C   0  0  0  0  0  0  0  0  0  0  0  0
    8.5121  -16.9709   24.4688 O   0  0  0  0  0  0  0  0  0  0  0  0
    8.9158  -15.1785   20.0498 O   0  0  0  0  0  0  0  0  0  0  0  0
    9.1816  -16.5341   20.2351 C   0  0  0  0  0  0  0  0  0  0  0  0
    9.1762  -16.7827   21.7426 C   0  0  2  0  0  0  0  0  0  0  0  0
    7.9806  -16.2464   22.3525 N   0  0  0  0  0  0  0  0  0  0  0  0
   10.4102  -16.1911   22.3308 C   0  0  0  0  0  0  0  0  0  0  0  0
   10.4880  -14.9932   22.7079 O   0  0  0  0  0  0  0  0  0  0  0  0
   11.5390  -17.0486   22.4591 N   0  0  0  0  0  0  0  0  0  0  0  0
   12.7513  -16.6143   23.0819 C   0  0  1  0  0  0  0  0  0  0  0  0
   12.5886  -16.3407   24.5606 C   0  0  0  0  0  0  0  0  0  0  0  0
   11.7996  -17.7915   25.3349 S   0  0  0  0  0  0  0  0  0  0  0  0
   13.8877  -17.5379   22.8208 C   0  0  0  0  0  0  0  0  0  0  0  0
   15.1688  -17.2988   23.2596 O   0  0  0  0  0  0  0  0  0  0  0  0
   13.6849  -18.6033   22.1627 O   0  0  0  0  0  0  0  0  0  0  0  0
  2  1  1  1
  2 10  1  0
  3  2  1  0
  4  3  1  0
  5  4  2  0
  6  5  1  0
  7  6  2  0
  7  8  1  0
  8  9  2  0
  9  4  1  0
 10 15  1  0
 10 11  2  0
 12 13  1  0
 14 13  1  6
 14 16  1  0
 15 14  1  0
 16 17  2  0
 18 19  1  0
 18 16  1  0
 19 20  1  1
 21 20  1  0
 22 19  1  0
 22 23  1  0
 24 22  2  0
M  END
$$$$
