FSC.pdb
     RDKit          3D

 24 24  0  0  1  0  0  0  0  0999 V2000
    6.8024  -16.2628   25.9074 N   0  0  0  0  0  0  0  0  0  0  0  0
    6.9536  -15.4534   24.7402 C   0  0  1  0  0  0  0  0  0  0  0  0
    7.8485  -14.2750   25.0499 C   0  0  0  0  0  0  0  0  0  0  0  0
    7.1605  -13.3329   25.9721 C   0  0  0  0  0  0  0  0  0  0  0  0
    7.7940  -12.8058   27.0735 C   0  0  0  0  0  0  0  0  0  0  0  0
    7.1856  -11.9346   27.9425 C   0  0  0  0  0  0  0  0  0  0  0  0
    5.8598  -11.5890   27.6640 C   0  0  0  0  0  0  0  0  0  0  0  0
    5.2059  -12.1017   26.5711 C   0  0  0  0  0  0  0  0  0  0  0  0
    5.8624  -12.9683   25.7361 C   0  0  0  0  0  0  0  0  0  0  0  0
    7.5742  -16.2109   23.6048 C   0  0  0  0  0  0  0  0  0  0  0  0
    8.2759  -17.2245   23.8397 O   0  0  0  0  0  0  0  0  0  0  0  0
    7.4920  -14.5024   19.8644 O   0  0  0  0  0  0  0  0  0  0  0  0
    7.6269  -15.8886   19.8117 C   0  0  0  0  0  0  0  0  0  0  0  0
    8.1931  -16.3285   21.1609 C   0  0  2  0  0  0  0  0  0  0  0  0
    7.3938  -15.8164   22.2508 N   0  0  0  0  0  0  0  0  0  0  0  0
    9.6102  -15.8794   21.2558 C   0  0  0  0  0  0  0  0  0  0  0  0
    9.9414  -14.6934   21.5143 O   0  0  0  0  0  0  0  0  0  0  0  0
   10.6149  -16.8639   21.0385 N   0  0  0  0  0  0  0  0  0  0  0  0
   11.8707  -16.8262   21.7225 C   0  0  1  0  0  0  0  0  0  0  0  0
   11.7210  -16.7940   23.2273 C   0  0  0  0  0  0  0  0  0  0  0  0
   13.3842  -16.7433   23.9742 S   0  0  0  0  0  0  0  0  0  0  0  0
   12.7873  -17.9148   21.2896 C   0  0  0  0  0  0  0  0  0  0  0  0
   14.1479  -17.7524   21.1741 O   0  0  0  0  0  0  0  0  0  0  0  0
   12.3092  -19.0558   21.0089 O   0  0  0  0  0  0  0  0  0  0  0  0
  2  1  1  1
  2 10  1  0
  3  2  1  0
  4  3  1  0
  5  4  2  0
  6  5  1  0
  7  6  2  0
  7  8  1  0
  8  9  2  0
  9  4  1  0
 10 15  1  0
 10 11  2  0
 12 13  1  0
 14 13  1  6
 14 16  1  0
 15 14  1  0
 16 17  2  0
 18 19  1  0
 18 16  1  0
 19 20  1  1
 21 20  1  0
 22 19  1  0
 22 23  1  0
 24 22  2  0
M  END
$$$$
