FSC.pdb
     RDKit          3D

 24 24  0  0  1  0  0  0  0  0999 V2000
    5.8711  -17.0221   25.1310 N   0  0  0  0  0  0  0  0  0  0  0  0
    7.0103  -16.2309   24.7896 C   0  0  1  0  0  0  0  0  0  0  0  0
    7.4478  -15.4231   25.9903 C   0  0  0  0  0  0  0  0  0  0  0  0
    7.0347  -14.0031   25.8353 C   0  0  0  0  0  0  0  0  0  0  0  0
    6.0252  -13.4561   26.5930 C   0  0  0  0  0  0  0  0  0  0  0  0
    5.6216  -12.1496   26.4727 C   0  0  0  0  0  0  0  0  0  0  0  0
    6.2901  -11.3677   25.5259 C   0  0  0  0  0  0  0  0  0  0  0  0
    7.3008  -11.8905   24.7577 C   0  0  0  0  0  0  0  0  0  0  0  0
    7.6631  -13.2026   24.9199 C   0  0  0  0  0  0  0  0  0  0  0  0
    8.1735  -17.0730   24.3584 C   0  0  0  0  0  0  0  0  0  0  0  0
    8.4900  -18.0887   25.0241 O   0  0  0  0  0  0  0  0  0  0  0  0
   10.7315  -15.6060   21.5680 O   0  0  0  0  0  0  0  0  0  0  0  0
   10.6565  -16.9942   21.4684 C   0  0  0  0  0  0  0  0  0  0  0  0
   10.1135  -17.5035   22.8026 C   0  0  2  0  0  0  0  0  0  0  0  0
    8.9427  -16.7576   23.2049 N   0  0  0  0  0  0  0  0  0  0  0  0
   11.1963  -17.4255   23.8225 C   0  0  0  0  0  0  0  0  0  0  0  0
   11.8257  -16.3667   24.0797 O   0  0  0  0  0  0  0  0  0  0  0  0
   11.5106  -18.6241   24.5229 N   0  0  0  0  0  0  0  0  0  0  0  0
   12.5865  -18.6901   25.4633 C   0  0  1  0  0  0  0  0  0  0  0  0
   12.1309  -19.0741   26.8535 C   0  0  0  0  0  0  0  0  0  0  0  0
   10.5714  -18.1998   27.2144 S   0  0  0  0  0  0  0  0  0  0  0  0
   13.6988  -19.5598   24.9951 C   0  0  0  0  0  0  0  0  0  0  0  0
   14.8667  -19.7337   25.6997 O   0  0  0  0  0  0  0  0  0  0  0  0
   13.5828  -20.1794   23.8942 O   0  0  0  0  0  0  0  0  0  0  0  0
  2  1  1  1
  2 10  1  0
  3  2  1  0
  4  3  1  0
  5  4  2  0
  6  5  1  0
  7  6  2  0
  7  8  1  0
  8  9  2  0
  9  4  1  0
 10 15  1  0
 10 11  2  0
 12 13  1  0
 14 13  1  6
 14 16  1  0
 15 14  1  0
 16 17  2  0
 18 19  1  0
 18 16  1  0
 19 20  1  1
 21 20  1  0
 22 19  1  0
 22 23  1  0
 24 22  2  0
M  END
$$$$
