FSC.pdb
     RDKit          3D

 24 24  0  0  1  0  0  0  0  0999 V2000
    6.0080  -16.7638   25.1302 N   0  0  0  0  0  0  0  0  0  0  0  0
    7.0867  -15.9306   24.7031 C   0  0  1  0  0  0  0  0  0  0  0  0
    7.7287  -15.2732   25.9036 C   0  0  0  0  0  0  0  0  0  0  0  0
    7.1861  -13.9017   26.0926 C   0  0  0  0  0  0  0  0  0  0  0  0
    7.7035  -12.8194   25.4194 C   0  0  0  0  0  0  0  0  0  0  0  0
    7.2242  -11.5422   25.5729 C   0  0  0  0  0  0  0  0  0  0  0  0
    6.1600  -11.3708   26.4633 C   0  0  0  0  0  0  0  0  0  0  0  0
    5.6263  -12.4351   27.1470 C   0  0  0  0  0  0  0  0  0  0  0  0
    6.1444  -13.6897   26.9550 C   0  0  0  0  0  0  0  0  0  0  0  0
    8.1499  -16.7074   23.9860 C   0  0  0  0  0  0  0  0  0  0  0  0
    8.5727  -17.7840   24.4730 O   0  0  0  0  0  0  0  0  0  0  0  0
   10.2549  -14.8790   20.9564 O   0  0  0  0  0  0  0  0  0  0  0  0
   10.1415  -16.2554   20.7690 C   0  0  0  0  0  0  0  0  0  0  0  0
    9.8657  -16.8664   22.1420 C   0  0  2  0  0  0  0  0  0  0  0  0
    8.7051  -16.2615   22.7553 N   0  0  0  0  0  0  0  0  0  0  0  0
   11.0818  -16.7127   22.9885 C   0  0  0  0  0  0  0  0  0  0  0  0
   11.5160  -15.5967   23.3748 O   0  0  0  0  0  0  0  0  0  0  0  0
   11.7631  -17.9054   23.3616 N   0  0  0  0  0  0  0  0  0  0  0  0
   12.9841  -17.8770   24.1064 C   0  0  1  0  0  0  0  0  0  0  0  0
   12.7619  -17.7457   25.5968 C   0  0  0  0  0  0  0  0  0  0  0  0
   11.6539  -19.0895   26.1381 S   0  0  0  0  0  0  0  0  0  0  0  0
   13.8721  -19.0269   23.7873 C   0  0  0  0  0  0  0  0  0  0  0  0
   15.1681  -19.1250   24.2363 O   0  0  0  0  0  0  0  0  0  0  0  0
   13.4301  -19.9731   23.0671 O   0  0  0  0  0  0  0  0  0  0  0  0
  2  1  1  1
  2 10  1  0
  3  2  1  0
  4  3  1  0
  5  4  2  0
  6  5  1  0
  7  6  2  0
  7  8  1  0
  8  9  2  0
  9  4  1  0
 10 15  1  0
 10 11  2  0
 12 13  1  0
 14 13  1  6
 14 16  1  0
 15 14  1  0
 16 17  2  0
 18 19  1  0
 18 16  1  0
 19 20  1  1
 21 20  1  0
 22 19  1  0
 22 23  1  0
 24 22  2  0
M  END
$$$$
