GCD.pdb
     RDKit          3D

 19 18  0  0  1  0  0  0  0  0999 V2000
    7.1937  -14.2252   19.4332 N   0  0  0  0  0  0  0  0  0  0  0  0
    6.4333  -14.2525   20.6535 C   0  0  0  0  0  0  0  0  0  0  0  0
    7.3408  -14.1396   21.8019 C   0  0  0  0  0  0  0  0  0  0  0  0
    8.5753  -14.1546   21.6226 O   0  0  0  0  0  0  0  0  0  0  0  0
    6.8892  -14.0100   23.1518 N   0  0  0  0  0  0  0  0  0  0  0  0
    7.7911  -13.8803   24.2615 C   0  0  1  0  0  0  0  0  0  0  0  0
    7.1095  -13.2774   25.4782 C   0  0  0  0  0  0  0  0  0  0  0  0
    5.5537  -14.1182   25.8460 S   0  0  0  0  0  0  0  0  0  0  0  0
    8.3948  -15.1913   24.6402 C   0  0  0  0  0  0  0  0  0  0  0  0
    7.6945  -16.2330   24.5565 O   0  0  0  0  0  0  0  0  0  0  0  0
    9.7379  -15.2471   25.0856 N   0  0  0  0  0  0  0  0  0  0  0  0
   10.3651  -16.5598   25.2130 C   0  0  1  0  0  0  0  0  0  0  0  0
   11.7593  -16.5447   24.6341 C   0  0  0  0  0  0  0  0  0  0  0  0
   12.3161  -17.9094   24.7044 C   0  0  0  0  0  0  0  0  0  0  0  0
   11.6950  -18.9312   25.0386 O   0  0  0  0  0  0  0  0  0  0  0  0
   10.2924  -16.9760   26.6155 C   0  0  0  0  0  0  0  0  0  0  0  0
   10.4653  -18.2885   27.0140 O   0  0  0  0  0  0  0  0  0  0  0  0
   13.6663  -18.0798   24.3659 O   0  0  0  0  0  0  0  0  0  0  0  0
   10.0637  -16.1411   27.5385 O   0  0  0  0  0  0  0  0  0  0  0  0
  2  1  1  0
  3  2  1  0
  3  4  2  0
  5  3  1  0
  6  5  1  0
  6  7  1  1
  8  7  1  0
  9  6  1  0
 10  9  2  0
 11  9  1  0
 12 11  1  0
 12 13  1  1
 14 13  1  0
 14 15  2  0
 16 12  1  0
 17 16  1  0
 18 14  1  0
 19 16  2  0
M  END
$$$$
