GCD.pdb
     RDKit          3D

 19 18  0  0  1  0  0  0  0  0999 V2000
    7.2483  -14.1137   20.2629 N   0  0  0  0  0  0  0  0  0  0  0  0
    6.3924  -14.0752   21.4179 C   0  0  0  0  0  0  0  0  0  0  0  0
    7.2105  -14.0022   22.6347 C   0  0  0  0  0  0  0  0  0  0  0  0
    8.4547  -14.0339   22.5503 O   0  0  0  0  0  0  0  0  0  0  0  0
    6.6582  -13.8939   23.9487 N   0  0  0  0  0  0  0  0  0  0  0  0
    7.4729  -13.8465   25.1301 C   0  0  1  0  0  0  0  0  0  0  0  0
    6.7071  -13.3045   26.3251 C   0  0  0  0  0  0  0  0  0  0  0  0
    6.9644  -11.5274   26.5216 S   0  0  0  0  0  0  0  0  0  0  0  0
    8.0279  -15.1883   25.4740 C   0  0  0  0  0  0  0  0  0  0  0  0
    7.2592  -16.1840   25.4790 O   0  0  0  0  0  0  0  0  0  0  0  0
    9.4021  -15.3239   25.7881 N   0  0  0  0  0  0  0  0  0  0  0  0
    9.9430  -16.6725   25.9350 C   0  0  1  0  0  0  0  0  0  0  0  0
   11.1231  -16.8783   25.0163 C   0  0  0  0  0  0  0  0  0  0  0  0
   11.6936  -18.2152   25.2703 C   0  0  0  0  0  0  0  0  0  0  0  0
   11.0481  -19.2420   25.5369 O   0  0  0  0  0  0  0  0  0  0  0  0
   10.2262  -16.9082   27.3527 C   0  0  0  0  0  0  0  0  0  0  0  0
   10.4428  -18.1719   27.8700 O   0  0  0  0  0  0  0  0  0  0  0  0
   13.0879  -18.3507   25.2079 O   0  0  0  0  0  0  0  0  0  0  0  0
   10.2851  -15.9522   28.1797 O   0  0  0  0  0  0  0  0  0  0  0  0
  2  1  1  0
  3  2  1  0
  3  4  2  0
  5  3  1  0
  6  5  1  0
  6  7  1  1
  8  7  1  0
  9  6  1  0
 10  9  2  0
 11  9  1  0
 12 11  1  0
 12 13  1  6
 14 13  1  0
 14 15  2  0
 16 12  1  0
 17 16  1  0
 18 14  1  0
 19 16  2  0
M  END
$$$$
