GCD.pdb
     RDKit          3D

 19 18  0  0  1  0  0  0  0  0999 V2000
    8.8456  -15.5765   20.3528 N   0  0  0  0  0  0  0  0  0  0  0  0
    7.8384  -15.2877   21.3380 C   0  0  0  0  0  0  0  0  0  0  0  0
    8.4800  -14.9694   22.6194 C   0  0  0  0  0  0  0  0  0  0  0  0
    9.7202  -15.0468   22.7300 O   0  0  0  0  0  0  0  0  0  0  0  0
    7.7552  -14.5648   23.7831 N   0  0  0  0  0  0  0  0  0  0  0  0
    8.3926  -14.3166   25.0455 C   0  0  1  0  0  0  0  0  0  0  0  0
    7.5256  -13.4690   25.9611 C   0  0  0  0  0  0  0  0  0  0  0  0
    8.3760  -13.0905   27.5092 S   0  0  0  0  0  0  0  0  0  0  0  0
    8.7465  -15.5857   25.7460 C   0  0  0  0  0  0  0  0  0  0  0  0
    7.8819  -16.4949   25.8362 O   0  0  0  0  0  0  0  0  0  0  0  0
   10.0409  -15.7504   26.2964 N   0  0  0  0  0  0  0  0  0  0  0  0
   10.3667  -17.0336   26.9128 C   0  0  1  0  0  0  0  0  0  0  0  0
   11.5097  -17.7008   26.1866 C   0  0  0  0  0  0  0  0  0  0  0  0
   11.2162  -19.1417   26.0639 C   0  0  0  0  0  0  0  0  0  0  0  0
   10.7475  -19.8663   26.9567 O   0  0  0  0  0  0  0  0  0  0  0  0
   10.5971  -16.8174   28.3432 C   0  0  0  0  0  0  0  0  0  0  0  0
   10.5529  -15.5639   28.9247 O   0  0  0  0  0  0  0  0  0  0  0  0
   11.4865  -19.7588   24.8340 O   0  0  0  0  0  0  0  0  0  0  0  0
   10.8515  -17.7820   29.1217 O   0  0  0  0  0  0  0  0  0  0  0  0
  2  1  1  0
  3  2  1  0
  3  4  2  0
  5  3  1  0
  6  5  1  0
  6  7  1  1
  8  7  1  0
  9  6  1  0
 10  9  2  0
 11  9  1  0
 12 11  1  0
 12 13  1  6
 14 13  1  0
 14 15  2  0
 16 12  1  0
 17 16  1  0
 18 14  1  0
 19 16  2  0
M  END
$$$$
