GCD.pdb
     RDKit          3D

 19 18  0  0  1  0  0  0  0  0999 V2000
    4.6953  -18.8844   22.8297 N   0  0  0  0  0  0  0  0  0  0  0  0
    4.9857  -18.2963   24.1096 C   0  0  0  0  0  0  0  0  0  0  0  0
    5.8984  -17.1601   23.9337 C   0  0  0  0  0  0  0  0  0  0  0  0
    6.4789  -16.9920   22.8424 O   0  0  0  0  0  0  0  0  0  0  0  0
    6.1734  -16.2055   24.9615 N   0  0  0  0  0  0  0  0  0  0  0  0
    7.2738  -15.2859   24.8904 C   0  0  1  0  0  0  0  0  0  0  0  0
    7.2083  -14.2378   25.9885 C   0  0  0  0  0  0  0  0  0  0  0  0
    5.6143  -13.3880   25.9937 S   0  0  0  0  0  0  0  0  0  0  0  0
    8.5881  -15.9885   24.9645 C   0  0  0  0  0  0  0  0  0  0  0  0
    8.7125  -16.9710   25.7401 O   0  0  0  0  0  0  0  0  0  0  0  0
    9.6712  -15.5447   24.1673 N   0  0  0  0  0  0  0  0  0  0  0  0
   10.7623  -16.4804   23.9090 C   0  0  1  0  0  0  0  0  0  0  0  0
   11.4061  -16.1956   22.5736 C   0  0  0  0  0  0  0  0  0  0  0  0
   12.5768  -17.0795   22.4140 C   0  0  0  0  0  0  0  0  0  0  0  0
   12.6957  -18.2206   22.8889 O   0  0  0  0  0  0  0  0  0  0  0  0
   11.6826  -16.4479   25.0483 C   0  0  0  0  0  0  0  0  0  0  0  0
   12.5408  -17.4907   25.3438 O   0  0  0  0  0  0  0  0  0  0  0  0
   13.6578  -16.5988   21.6611 O   0  0  0  0  0  0  0  0  0  0  0  0
   11.7332  -15.4500   25.8247 O   0  0  0  0  0  0  0  0  0  0  0  0
  2  1  1  0
  3  2  1  0
  3  4  2  0
  5  3  1  0
  6  5  1  0
  6  7  1  1
  8  7  1  0
  9  6  1  0
 10  9  2  0
 11  9  1  0
 12 11  1  0
 12 13  1  6
 14 13  1  0
 14 15  2  0
 16 12  1  0
 17 16  1  0
 18 14  1  0
 19 16  2  0
M  END
$$$$
