GCD.pdb
     RDKit          3D

 19 18  0  0  1  0  0  0  0  0999 V2000
    8.1840  -16.6633   17.9663 N   0  0  0  0  0  0  0  0  0  0  0  0
    7.3164  -16.6253   19.1126 C   0  0  0  0  0  0  0  0  0  0  0  0
    8.0444  -16.0766   20.2633 C   0  0  0  0  0  0  0  0  0  0  0  0
    9.2920  -16.0730   20.2654 O   0  0  0  0  0  0  0  0  0  0  0  0
    7.3984  -15.5301   21.4152 N   0  0  0  0  0  0  0  0  0  0  0  0
    8.1259  -15.0364   22.5504 C   0  0  1  0  0  0  0  0  0  0  0  0
    7.2245  -14.2927   23.5214 C   0  0  0  0  0  0  0  0  0  0  0  0
    8.1424  -13.7261   24.9703 S   0  0  0  0  0  0  0  0  0  0  0  0
    8.8270  -16.1340   23.2786 C   0  0  0  0  0  0  0  0  0  0  0  0
    8.2163  -17.2128   23.4918 O   0  0  0  0  0  0  0  0  0  0  0  0
   10.1608  -15.9499   23.7175 N   0  0  0  0  0  0  0  0  0  0  0  0
   10.8728  -17.1064   24.2546 C   0  0  1  0  0  0  0  0  0  0  0  0
   12.3365  -17.0499   23.8896 C   0  0  0  0  0  0  0  0  0  0  0  0
   13.0181  -18.2161   24.4836 C   0  0  0  0  0  0  0  0  0  0  0  0
   13.2504  -18.3843   25.6917 O   0  0  0  0  0  0  0  0  0  0  0  0
   10.6062  -17.1902   25.6925 C   0  0  0  0  0  0  0  0  0  0  0  0
   10.1633  -16.1101   26.4332 O   0  0  0  0  0  0  0  0  0  0  0  0
   13.4462  -19.2315   23.6163 O   0  0  0  0  0  0  0  0  0  0  0  0
   10.7727  -18.2701   26.3306 O   0  0  0  0  0  0  0  0  0  0  0  0
  2  1  1  0
  3  2  1  0
  3  4  2  0
  5  3  1  0
  6  5  1  0
  6  7  1  1
  8  7  1  0
  9  6  1  0
 10  9  2  0
 11  9  1  0
 12 11  1  0
 12 13  1  1
 14 13  1  0
 14 15  2  0
 16 12  1  0
 17 16  1  0
 18 14  1  0
 19 16  2  0
M  END
$$$$
