GCD.pdb
     RDKit          3D

 19 18  0  0  1  0  0  0  0  0999 V2000
    7.4013  -14.5884   19.9507 N   0  0  0  0  0  0  0  0  0  0  0  0
    6.6328  -14.7174   21.1594 C   0  0  0  0  0  0  0  0  0  0  0  0
    7.4844  -14.4222   22.3182 C   0  0  0  0  0  0  0  0  0  0  0  0
    8.7223  -14.3544   22.1789 O   0  0  0  0  0  0  0  0  0  0  0  0
    6.9729  -14.2011   23.6344 N   0  0  0  0  0  0  0  0  0  0  0  0
    7.8226  -13.9399   24.7621 C   0  0  1  0  0  0  0  0  0  0  0  0
    7.0998  -13.1603   25.8476 C   0  0  0  0  0  0  0  0  0  0  0  0
    8.2239  -12.6923   27.1819 S   0  0  0  0  0  0  0  0  0  0  0  0
    8.3684  -15.1994   25.3473 C   0  0  0  0  0  0  0  0  0  0  0  0
    7.5897  -16.1665   25.5494 O   0  0  0  0  0  0  0  0  0  0  0  0
    9.7453  -15.2905   25.6657 N   0  0  0  0  0  0  0  0  0  0  0  0
   10.2491  -16.5622   26.1773 C   0  0  1  0  0  0  0  0  0  0  0  0
   11.6762  -16.7871   25.7394 C   0  0  0  0  0  0  0  0  0  0  0  0
   11.6861  -17.0914   24.2955 C   0  0  0  0  0  0  0  0  0  0  0  0
   11.0706  -18.0182   23.7441 O   0  0  0  0  0  0  0  0  0  0  0  0
   10.0446  -16.5940   27.6275 C   0  0  0  0  0  0  0  0  0  0  0  0
   10.2978  -17.7177   28.3920 O   0  0  0  0  0  0  0  0  0  0  0  0
   12.4558  -16.2674   23.4617 O   0  0  0  0  0  0  0  0  0  0  0  0
    9.6200  -15.5801   28.2543 O   0  0  0  0  0  0  0  0  0  0  0  0
  2  1  1  0
  3  2  1  0
  3  4  2  0
  5  3  1  0
  6  5  1  0
  6  7  1  1
  8  7  1  0
  9  6  1  0
 10  9  2  0
 11  9  1  0
 12 11  1  0
 12 13  1  1
 14 13  1  0
 14 15  2  0
 16 12  1  0
 17 16  1  0
 18 14  1  0
 19 16  2  0
M  END
$$$$
