GCD.pdb
     RDKit          3D

 19 18  0  0  1  0  0  0  0  0999 V2000
    5.0478  -18.9982   20.7671 N   0  0  0  0  0  0  0  0  0  0  0  0
    5.3462  -19.0464   22.1731 C   0  0  0  0  0  0  0  0  0  0  0  0
    6.2267  -17.9267   22.5283 C   0  0  0  0  0  0  0  0  0  0  0  0
    6.8970  -17.3578   21.6432 O   0  0  0  0  0  0  0  0  0  0  0  0
    6.3704  -17.4311   23.8613 N   0  0  0  0  0  0  0  0  0  0  0  0
    7.2693  -16.3632   24.1981 C   0  0  1  0  0  0  0  0  0  0  0  0
    6.7700  -15.5552   25.3839 C   0  0  0  0  0  0  0  0  0  0  0  0
    7.8259  -14.1234   25.6969 S   0  0  0  0  0  0  0  0  0  0  0  0
    8.6418  -16.8678   24.4947 C   0  0  0  0  0  0  0  0  0  0  0  0
    8.7749  -17.8778   25.2326 O   0  0  0  0  0  0  0  0  0  0  0  0
    9.7693  -16.2091   23.9466 N   0  0  0  0  0  0  0  0  0  0  0  0
   11.0955  -16.7059   24.3036 C   0  0  1  0  0  0  0  0  0  0  0  0
   12.1722  -15.8284   23.7121 C   0  0  0  0  0  0  0  0  0  0  0  0
   13.2677  -16.6875   23.2231 C   0  0  0  0  0  0  0  0  0  0  0  0
   13.5752  -17.8017   23.6769 O   0  0  0  0  0  0  0  0  0  0  0  0
   11.1609  -16.8528   25.7595 C   0  0  0  0  0  0  0  0  0  0  0  0
   10.7178  -15.8732   26.6287 O   0  0  0  0  0  0  0  0  0  0  0  0
   14.0372  -16.2141   22.1506 O   0  0  0  0  0  0  0  0  0  0  0  0
   11.6335  -17.8975   26.2947 O   0  0  0  0  0  0  0  0  0  0  0  0
  2  1  1  0
  3  2  1  0
  3  4  2  0
  5  3  1  0
  6  5  1  0
  6  7  1  1
  8  7  1  0
  9  6  1  0
 10  9  2  0
 11  9  1  0
 12 11  1  0
 12 13  1  1
 14 13  1  0
 14 15  2  0
 16 12  1  0
 17 16  1  0
 18 14  1  0
 19 16  2  0
M  END
$$$$
