GCD.pdb
     RDKit          3D

 19 18  0  0  1  0  0  0  0  0999 V2000
    7.4566  -15.0159   20.0603 N   0  0  0  0  0  0  0  0  0  0  0  0
    6.6356  -14.8238   21.2253 C   0  0  0  0  0  0  0  0  0  0  0  0
    7.4884  -14.5604   22.3908 C   0  0  0  0  0  0  0  0  0  0  0  0
    8.7298  -14.6066   22.2760 O   0  0  0  0  0  0  0  0  0  0  0  0
    6.9743  -14.2453   23.6867 N   0  0  0  0  0  0  0  0  0  0  0  0
    7.8234  -13.9915   24.8165 C   0  0  1  0  0  0  0  0  0  0  0  0
    7.0979  -13.2259   25.9100 C   0  0  0  0  0  0  0  0  0  0  0  0
    8.2149  -12.7894   27.2608 S   0  0  0  0  0  0  0  0  0  0  0  0
    8.3752  -15.2543   25.3889 C   0  0  0  0  0  0  0  0  0  0  0  0
    7.5870  -16.1949   25.6656 O   0  0  0  0  0  0  0  0  0  0  0  0
    9.7681  -15.3780   25.6122 N   0  0  0  0  0  0  0  0  0  0  0  0
   10.2638  -16.6279   26.1823 C   0  0  1  0  0  0  0  0  0  0  0  0
   11.6590  -16.9247   25.6882 C   0  0  0  0  0  0  0  0  0  0  0  0
   11.6226  -17.0594   24.2192 C   0  0  0  0  0  0  0  0  0  0  0  0
   11.0670  -17.9722   23.5868 O   0  0  0  0  0  0  0  0  0  0  0  0
   10.1357  -16.5574   27.6398 C   0  0  0  0  0  0  0  0  0  0  0  0
    9.9500  -15.3656   28.3155 O   0  0  0  0  0  0  0  0  0  0  0  0
   12.2697  -16.0747   23.4588 O   0  0  0  0  0  0  0  0  0  0  0  0
   10.1912  -17.5990   28.3562 O   0  0  0  0  0  0  0  0  0  0  0  0
  2  1  1  0
  3  2  1  0
  3  4  2  0
  5  3  1  0
  6  5  1  0
  6  7  1  1
  8  7  1  0
  9  6  1  0
 10  9  2  0
 11  9  1  0
 12 11  1  0
 12 13  1  1
 14 13  1  0
 14 15  2  0
 16 12  1  0
 17 16  1  0
 18 14  1  0
 19 16  2  0
M  END
$$$$
