GCD.pdb
     RDKit          3D

 19 18  0  0  1  0  0  0  0  0999 V2000
    6.7216  -16.1480   21.0331 N   0  0  0  0  0  0  0  0  0  0  0  0
    6.1878  -15.8522   22.3354 C   0  0  0  0  0  0  0  0  0  0  0  0
    7.2176  -15.1997   23.1531 C   0  0  0  0  0  0  0  0  0  0  0  0
    8.3953  -15.1478   22.7448 O   0  0  0  0  0  0  0  0  0  0  0  0
    6.9514  -14.6023   24.4241 N   0  0  0  0  0  0  0  0  0  0  0  0
    7.9835  -14.0328   25.2440 C   0  0  1  0  0  0  0  0  0  0  0  0
    7.4191  -13.0830   26.2869 C   0  0  0  0  0  0  0  0  0  0  0  0
    5.9052  -13.7374   27.0235 S   0  0  0  0  0  0  0  0  0  0  0  0
    8.7905  -15.0850   25.9282 C   0  0  0  0  0  0  0  0  0  0  0  0
    8.2111  -16.1146   26.3602 O   0  0  0  0  0  0  0  0  0  0  0  0
   10.1878  -14.9135   26.0821 N   0  0  0  0  0  0  0  0  0  0  0  0
   10.9180  -15.9017   26.8715 C   0  0  1  0  0  0  0  0  0  0  0  0
   12.3407  -16.0307   26.3832 C   0  0  0  0  0  0  0  0  0  0  0  0
   12.3209  -16.3012   24.9327 C   0  0  0  0  0  0  0  0  0  0  0  0
   11.5992  -17.1325   24.3584 O   0  0  0  0  0  0  0  0  0  0  0  0
   10.7895  -15.5525   28.2882 C   0  0  0  0  0  0  0  0  0  0  0  0
   10.3051  -14.3297   28.7141 O   0  0  0  0  0  0  0  0  0  0  0  0
   13.1902  -15.5592   24.1202 O   0  0  0  0  0  0  0  0  0  0  0  0
   11.1218  -16.3658   29.1990 O   0  0  0  0  0  0  0  0  0  0  0  0
  2  1  1  0
  3  2  1  0
  3  4  2  0
  5  3  1  0
  6  5  1  0
  6  7  1  1
  8  7  1  0
  9  6  1  0
 10  9  2  0
 11  9  1  0
 12 11  1  0
 12 13  1  6
 14 13  1  0
 14 15  2  0
 16 12  1  0
 17 16  1  0
 18 14  1  0
 19 16  2  0
M  END
$$$$
