GCD.pdb
     RDKit          3D

 19 18  0  0  1  0  0  0  0  0999 V2000
    7.1691  -14.0947   20.1701 N   0  0  0  0  0  0  0  0  0  0  0  0
    6.4363  -14.0527   21.4068 C   0  0  0  0  0  0  0  0  0  0  0  0
    7.3745  -13.9626   22.5323 C   0  0  0  0  0  0  0  0  0  0  0  0
    8.5979  -14.1066   22.3350 O   0  0  0  0  0  0  0  0  0  0  0  0
    6.9659  -13.7132   23.8791 N   0  0  0  0  0  0  0  0  0  0  0  0
    7.8823  -13.7394   24.9843 C   0  0  1  0  0  0  0  0  0  0  0  0
    7.2805  -13.1198   26.2342 C   0  0  0  0  0  0  0  0  0  0  0  0
    5.6432  -12.4313   25.9053 S   0  0  0  0  0  0  0  0  0  0  0  0
    8.3336  -15.1270   25.2964 C   0  0  0  0  0  0  0  0  0  0  0  0
    7.5097  -16.0729   25.2018 O   0  0  0  0  0  0  0  0  0  0  0  0
    9.6730  -15.3610   25.6922 N   0  0  0  0  0  0  0  0  0  0  0  0
   10.1622  -16.7370   25.6801 C   0  0  1  0  0  0  0  0  0  0  0  0
   11.3084  -16.8884   24.7094 C   0  0  0  0  0  0  0  0  0  0  0  0
   11.8631  -18.2496   24.8402 C   0  0  0  0  0  0  0  0  0  0  0  0
   11.2309  -19.3086   24.6968 O   0  0  0  0  0  0  0  0  0  0  0  0
   10.4727  -17.1324   27.0559 C   0  0  0  0  0  0  0  0  0  0  0  0
   10.3920  -16.2543   28.1207 O   0  0  0  0  0  0  0  0  0  0  0  0
   13.2244  -18.3704   25.1542 O   0  0  0  0  0  0  0  0  0  0  0  0
   10.8348  -18.3122   27.3355 O   0  0  0  0  0  0  0  0  0  0  0  0
  2  1  1  0
  3  2  1  0
  3  4  2  0
  5  3  1  0
  6  5  1  0
  6  7  1  1
  8  7  1  0
  9  6  1  0
 10  9  2  0
 11  9  1  0
 12 11  1  0
 12 13  1  6
 14 13  1  0
 14 15  2  0
 16 12  1  0
 17 16  1  0
 18 14  1  0
 19 16  2  0
M  END
$$$$
