GCD.pdb
     RDKit          3D

 19 18  0  0  1  0  0  0  0  0999 V2000
   -5.2419  -23.4094   24.5404 N   0  0  0  0  0  0  0  0  0  0  0  0
   -4.4994  -22.4857   25.3551 C   0  0  0  0  0  0  0  0  0  0  0  0
   -4.7412  -22.7759   26.7737 C   0  0  0  0  0  0  0  0  0  0  0  0
   -4.4350  -23.8913   27.2412 O   0  0  0  0  0  0  0  0  0  0  0  0
   -5.3215  -21.8363   27.6811 N   0  0  0  0  0  0  0  0  0  0  0  0
   -5.6492  -22.1709   29.0385 C   0  0  1  0  0  0  0  0  0  0  0  0
   -5.6711  -20.9444   29.9349 C   0  0  0  0  0  0  0  0  0  0  0  0
   -4.0072  -20.2945   30.2030 S   0  0  0  0  0  0  0  0  0  0  0  0
   -6.9645  -22.8689   29.1345 C   0  0  0  0  0  0  0  0  0  0  0  0
   -7.9798  -22.3316   28.6217 O   0  0  0  0  0  0  0  0  0  0  0  0
   -7.0537  -24.1178   29.7962 N   0  0  0  0  0  0  0  0  0  0  0  0
   -8.3236  -24.8366   29.7378 C   0  0  1  0  0  0  0  0  0  0  0  0
   -8.1774  -26.1171   28.9517 C   0  0  0  0  0  0  0  0  0  0  0  0
   -9.4914  -26.4777   28.3852 C   0  0  0  0  0  0  0  0  0  0  0  0
  -10.5950  -26.1048   28.8151 O   0  0  0  0  0  0  0  0  0  0  0  0
   -8.8211  -25.0140   31.1041 C   0  0  0  0  0  0  0  0  0  0  0  0
   -8.0065  -24.8993   32.2153 O   0  0  0  0  0  0  0  0  0  0  0  0
   -9.5079  -27.3158   27.2610 O   0  0  0  0  0  0  0  0  0  0  0  0
  -10.0360  -25.2849   31.3318 O   0  0  0  0  0  0  0  0  0  0  0  0
  2  1  1  0
  3  2  1  0
  3  4  2  0
  5  3  1  0
  6  5  1  0
  6  7  1  1
  8  7  1  0
  9  6  1  0
 10  9  2  0
 11  9  1  0
 12 11  1  0
 12 13  1  1
 14 13  1  0
 14 15  2  0
 16 12  1  0
 17 16  1  0
 18 14  1  0
 19 16  2  0
M  END
$$$$
