GCD.pdb
     RDKit          3D

 19 18  0  0  1  0  0  0  0  0999 V2000
    7.5610  -16.3967   18.5146 N   0  0  0  0  0  0  0  0  0  0  0  0
    6.9302  -16.2345   19.7968 C   0  0  0  0  0  0  0  0  0  0  0  0
    7.8770  -15.6230   20.7374 C   0  0  0  0  0  0  0  0  0  0  0  0
    9.0412  -15.3667   20.3695 O   0  0  0  0  0  0  0  0  0  0  0  0
    7.5423  -15.2924   22.0872 N   0  0  0  0  0  0  0  0  0  0  0  0
    8.4945  -14.7382   23.0080 C   0  0  1  0  0  0  0  0  0  0  0  0
    7.8150  -14.0331   24.1697 C   0  0  0  0  0  0  0  0  0  0  0  0
    6.4880  -15.0409   24.8669 S   0  0  0  0  0  0  0  0  0  0  0  0
    9.4184  -15.7806   23.5431 C   0  0  0  0  0  0  0  0  0  0  0  0
    9.0373  -16.9791   23.5693 O   0  0  0  0  0  0  0  0  0  0  0  0
   10.7029  -15.4115   24.0114 N   0  0  0  0  0  0  0  0  0  0  0  0
   11.6776  -16.4724   24.2505 C   0  0  1  0  0  0  0  0  0  0  0  0
   13.0788  -15.9837   23.9730 C   0  0  0  0  0  0  0  0  0  0  0  0
   14.0202  -17.1003   24.1836 C   0  0  0  0  0  0  0  0  0  0  0  0
   14.6550  -17.3287   25.2260 O   0  0  0  0  0  0  0  0  0  0  0  0
   11.4720  -16.9969   25.6027 C   0  0  0  0  0  0  0  0  0  0  0  0
   10.8570  -16.2647   26.6012 O   0  0  0  0  0  0  0  0  0  0  0  0
   14.2244  -17.9894   23.1185 O   0  0  0  0  0  0  0  0  0  0  0  0
   11.8544  -18.1600   25.9223 O   0  0  0  0  0  0  0  0  0  0  0  0
  2  1  1  0
  3  2  1  0
  3  4  2  0
  5  3  1  0
  6  5  1  0
  6  7  1  1
  8  7  1  0
  9  6  1  0
 10  9  2  0
 11  9  1  0
 12 11  1  0
 12 13  1  1
 14 13  1  0
 14 15  2  0
 16 12  1  0
 17 16  1  0
 18 14  1  0
 19 16  2  0
M  END
$$$$
