HFQ.pdb
     RDKit          3D

 31 32  0  0  1  0  0  0  0  0999 V2000
    7.0406  -18.3726   20.6338 N   0  0  0  0  0  0  0  0  0  0  0  0
    6.7001  -17.4888   21.7025 C   0  0  1  0  0  0  0  0  0  0  0  0
    5.5471  -18.0237   22.5259 C   0  0  0  0  0  0  0  0  0  0  0  0
    4.3876  -18.1980   21.6306 C   0  0  0  0  0  0  0  0  0  0  0  0
    4.3878  -17.9132   20.2874 C   0  0  0  0  0  0  0  0  0  0  0  0
    3.1589  -18.1981   19.8108 N   0  0  0  0  0  0  0  0  0  0  0  0
    2.3931  -18.6499   20.8081 C   0  0  0  0  0  0  0  0  0  0  0  0
    3.1607  -18.6440   21.9169 N   0  0  0  0  0  0  0  0  0  0  0  0
    7.8991  -17.2474   22.5755 C   0  0  0  0  0  0  0  0  0  0  0  0
    8.8453  -18.0465   22.6390 O   0  0  0  0  0  0  0  0  0  0  0  0
    7.9885  -16.0756   23.3697 N   0  0  0  0  0  0  0  0  0  0  0  0
    9.0658  -15.7274   24.2113 C   0  0  1  0  0  0  0  0  0  0  0  0
    9.2681  -14.2636   24.4768 C   0  0  0  0  0  0  0  0  0  0  0  0
    8.2118  -13.7596   25.3823 C   0  0  0  0  0  0  0  0  0  0  0  0
    6.9102  -13.5195   25.0344 C   0  0  0  0  0  0  0  0  0  0  0  0
    6.0331  -13.0293   26.0040 C   0  0  0  0  0  0  0  0  0  0  0  0
    6.4493  -12.7862   27.2897 C   0  0  0  0  0  0  0  0  0  0  0  0
    7.7578  -13.0232   27.6570 C   0  0  0  0  0  0  0  0  0  0  0  0
    8.5930  -13.5012   26.6919 C   0  0  0  0  0  0  0  0  0  0  0  0
    9.1411  -16.4853   25.4663 C   0  0  0  0  0  0  0  0  0  0  0  0
    8.0625  -16.6839   26.0882 O   0  0  0  0  0  0  0  0  0  0  0  0
   11.1346  -22.1548   26.1435 N   0  0  0  0  0  0  0  0  0  0  0  0
   11.1968  -21.0141   25.3030 C   0  0  0  0  0  0  0  0  0  0  0  0
   11.8985  -21.0419   24.2729 O   0  0  0  0  0  0  0  0  0  0  0  0
   10.4301  -19.8082   25.6584 C   0  0  0  0  0  0  0  0  0  0  0  0
   11.1693  -19.0565   26.7494 C   0  0  0  0  0  0  0  0  0  0  0  0
   10.3802  -17.8091   27.1110 C   0  0  2  0  0  0  0  0  0  0  0  0
   10.3902  -16.9608   25.9310 N   0  0  0  0  0  0  0  0  0  0  0  0
   11.0543  -17.0760   28.1903 C   0  0  0  0  0  0  0  0  0  0  0  0
   11.1149  -17.5176   29.4936 O   0  0  0  0  0  0  0  0  0  0  0  0
   11.6086  -15.9750   27.8940 O   0  0  0  0  0  0  0  0  0  0  0  0
  2  3  1  0
  2  1  1  6
  3  4  1  0
  4  8  1  0
  4  5  2  0
  5  6  1  0
  7  6  1  0
  8  7  2  0
  9  2  1  0
 10  9  2  0
 11  9  1  0
 12 11  1  0
 12 13  1  1
 13 14  1  0
 14 15  2  0
 15 16  1  0
 17 16  2  0
 18 17  1  0
 19 14  1  0
 19 18  2  0
 20 28  1  0
 20 12  1  0
 21 20  2  0
 23 22  1  0
 24 23  2  0
 25 23  1  0
 27 26  1  6
 26 25  1  0
 27 29  1  0
 27 28  1  0
 29 30  1  0
 31 29  2  0
M  END
$$$$
