HFQ.pdb
     RDKit          3D

 31 32  0  0  1  0  0  0  0  0999 V2000
    9.2822  -15.4445   20.1394 N   0  0  0  0  0  0  0  0  0  0  0  0
    8.3494  -16.1054   20.9953 C   0  0  1  0  0  0  0  0  0  0  0  0
    8.2494  -17.5832   20.6796 C   0  0  0  0  0  0  0  0  0  0  0  0
    7.7253  -17.7236   19.3078 C   0  0  0  0  0  0  0  0  0  0  0  0
    7.5515  -16.6842   18.4275 C   0  0  0  0  0  0  0  0  0  0  0  0
    7.0571  -17.1985   17.2832 N   0  0  0  0  0  0  0  0  0  0  0  0
    6.9165  -18.5202   17.4183 C   0  0  0  0  0  0  0  0  0  0  0  0
    7.3303  -18.8266   18.6647 N   0  0  0  0  0  0  0  0  0  0  0  0
    8.7340  -15.9022   22.4336 C   0  0  0  0  0  0  0  0  0  0  0  0
    9.9164  -15.8645   22.8054 O   0  0  0  0  0  0  0  0  0  0  0  0
    7.7378  -15.7439   23.4308 N   0  0  0  0  0  0  0  0  0  0  0  0
    7.9619  -15.6933   24.8227 C   0  0  1  0  0  0  0  0  0  0  0  0
    6.8345  -15.1760   25.6687 C   0  0  0  0  0  0  0  0  0  0  0  0
    6.8959  -13.6998   25.7514 C   0  0  0  0  0  0  0  0  0  0  0  0
    8.0393  -12.9479   25.7626 C   0  0  0  0  0  0  0  0  0  0  0  0
    7.9315  -11.5591   25.8592 C   0  0  0  0  0  0  0  0  0  0  0  0
    6.7091  -10.9393   25.9422 C   0  0  0  0  0  0  0  0  0  0  0  0
    5.5469  -11.6823   25.9319 C   0  0  0  0  0  0  0  0  0  0  0  0
    5.6801  -13.0354   25.8369 C   0  0  0  0  0  0  0  0  0  0  0  0
    8.5106  -16.9233   25.4066 C   0  0  0  0  0  0  0  0  0  0  0  0
    7.8639  -17.9899   25.2229 O   0  0  0  0  0  0  0  0  0  0  0  0
   13.1074  -19.3488   24.1434 N   0  0  0  0  0  0  0  0  0  0  0  0
   13.1299  -20.0122   25.3967 C   0  0  0  0  0  0  0  0  0  0  0  0
   13.7637  -21.0786   25.5212 O   0  0  0  0  0  0  0  0  0  0  0  0
   12.4028  -19.4319   26.5381 C   0  0  0  0  0  0  0  0  0  0  0  0
   11.7381  -18.1418   26.0961 C   0  0  0  0  0  0  0  0  0  0  0  0
   10.2900  -18.1495   26.5569 C   0  0  2  0  0  0  0  0  0  0  0  0
    9.7201  -16.8793   26.1398 N   0  0  0  0  0  0  0  0  0  0  0  0
   10.2231  -18.2059   28.0229 C   0  0  0  0  0  0  0  0  0  0  0  0
   10.4948  -19.3384   28.7583 O   0  0  0  0  0  0  0  0  0  0  0  0
    9.8954  -17.1457   28.6360 O   0  0  0  0  0  0  0  0  0  0  0  0
  2  3  1  0
  2  1  1  6
  3  4  1  0
  4  8  1  0
  4  5  2  0
  5  6  1  0
  7  6  1  0
  8  7  2  0
  9  2  1  0
 10  9  2  0
 11  9  1  0
 12 11  1  0
 12 13  1  1
 13 14  1  0
 14 15  2  0
 15 16  1  0
 17 16  2  0
 18 17  1  0
 19 14  1  0
 19 18  2  0
 20 28  1  0
 20 12  1  0
 21 20  2  0
 23 22  1  0
 24 23  2  0
 25 23  1  0
 27 26  1  1
 26 25  1  0
 27 29  1  0
 27 28  1  0
 29 30  1  0
 31 29  2  0
M  END
$$$$
