HFQ.pdb
     RDKit          3D

 31 32  0  0  1  0  0  0  0  0999 V2000
    8.0024  -16.8065   19.7584 N   0  0  0  0  0  0  0  0  0  0  0  0
    9.3394  -16.6868   20.2458 C   0  0  1  0  0  0  0  0  0  0  0  0
   10.2339  -15.9693   19.2566 C   0  0  0  0  0  0  0  0  0  0  0  0
    9.4869  -14.8180   18.7157 C   0  0  0  0  0  0  0  0  0  0  0  0
    8.1852  -14.5138   19.0297 C   0  0  0  0  0  0  0  0  0  0  0  0
    7.8512  -13.4006   18.3460 N   0  0  0  0  0  0  0  0  0  0  0  0
    8.8970  -13.0000   17.6175 C   0  0  0  0  0  0  0  0  0  0  0  0
    9.8918  -13.8791   17.8549 N   0  0  0  0  0  0  0  0  0  0  0  0
    9.3453  -15.9749   21.5691 C   0  0  0  0  0  0  0  0  0  0  0  0
   10.3953  -15.6836   22.1612 O   0  0  0  0  0  0  0  0  0  0  0  0
    8.1270  -15.6063   22.1949 N   0  0  0  0  0  0  0  0  0  0  0  0
    7.9968  -15.0286   23.4753 C   0  0  1  0  0  0  0  0  0  0  0  0
    6.8632  -14.0631   23.6672 C   0  0  0  0  0  0  0  0  0  0  0  0
    6.9663  -13.4139   24.9930 C   0  0  0  0  0  0  0  0  0  0  0  0
    6.3156  -13.8118   26.1293 C   0  0  0  0  0  0  0  0  0  0  0  0
    6.5067  -13.0835   27.3052 C   0  0  0  0  0  0  0  0  0  0  0  0
    7.3292  -11.9846   27.3419 C   0  0  0  0  0  0  0  0  0  0  0  0
    7.9927  -11.5703   26.2056 C   0  0  0  0  0  0  0  0  0  0  0  0
    7.7888  -12.2983   25.0716 C   0  0  0  0  0  0  0  0  0  0  0  0
    8.0466  -15.9803   24.5919 C   0  0  0  0  0  0  0  0  0  0  0  0
    7.0520  -16.7388   24.7507 O   0  0  0  0  0  0  0  0  0  0  0  0
   11.2904  -20.1459   24.1345 N   0  0  0  0  0  0  0  0  0  0  0  0
   12.0919  -19.1092   24.6769 C   0  0  0  0  0  0  0  0  0  0  0  0
   13.3189  -19.0955   24.4561 O   0  0  0  0  0  0  0  0  0  0  0  0
   11.4635  -18.0592   25.4961 C   0  0  0  0  0  0  0  0  0  0  0  0
    9.9609  -18.2685   25.4996 C   0  0  0  0  0  0  0  0  0  0  0  0
    9.3110  -17.1667   26.3201 C   0  0  2  0  0  0  0  0  0  0  0  0
    9.1809  -16.0199   25.4369 N   0  0  0  0  0  0  0  0  0  0  0  0
   10.1885  -16.7745   27.4304 C   0  0  0  0  0  0  0  0  0  0  0  0
   10.9365  -15.6179   27.4428 O   0  0  0  0  0  0  0  0  0  0  0  0
   10.2533  -17.5523   28.4294 O   0  0  0  0  0  0  0  0  0  0  0  0
  2  3  1  0
  2  1  1  6
  3  4  1  0
  4  8  1  0
  4  5  2  0
  5  6  1  0
  7  6  1  0
  8  7  2  0
  9  2  1  0
 10  9  2  0
 11  9  1  0
 12 11  1  0
 12 13  1  6
 13 14  1  0
 14 15  2  0
 15 16  1  0
 17 16  2  0
 18 17  1  0
 19 14  1  0
 19 18  2  0
 20 28  1  0
 20 12  1  0
 21 20  2  0
 23 22  1  0
 24 23  2  0
 25 23  1  0
 27 26  1  6
 26 25  1  0
 27 29  1  0
 27 28  1  0
 29 30  1  0
 31 29  2  0
M  END
$$$$
