HFQ.pdb
     RDKit          3D

 31 32  0  0  1  0  0  0  0  0999 V2000
   10.0272  -17.3878   20.0452 N   0  0  0  0  0  0  0  0  0  0  0  0
    8.8777  -17.4201   20.8919 C   0  0  1  0  0  0  0  0  0  0  0  0
    8.6093  -18.8142   21.4189 C   0  0  0  0  0  0  0  0  0  0  0  0
    8.1968  -19.6611   20.2837 C   0  0  0  0  0  0  0  0  0  0  0  0
    7.5745  -19.1994   19.1500 C   0  0  0  0  0  0  0  0  0  0  0  0
    7.3560  -20.2592   18.3454 N   0  0  0  0  0  0  0  0  0  0  0  0
    7.8194  -21.3643   18.9362 C   0  0  0  0  0  0  0  0  0  0  0  0
    8.3317  -20.9811   20.1234 N   0  0  0  0  0  0  0  0  0  0  0  0
    9.0470  -16.4537   22.0301 C   0  0  0  0  0  0  0  0  0  0  0  0
   10.1596  -16.0422   22.3913 O   0  0  0  0  0  0  0  0  0  0  0  0
    7.9180  -15.9723   22.7411 N   0  0  0  0  0  0  0  0  0  0  0  0
    7.9402  -15.0177   23.7795 C   0  0  1  0  0  0  0  0  0  0  0  0
    6.7179  -14.1593   23.9325 C   0  0  0  0  0  0  0  0  0  0  0  0
    6.9016  -13.2063   25.0496 C   0  0  0  0  0  0  0  0  0  0  0  0
    7.8620  -12.2338   25.1192 C   0  0  0  0  0  0  0  0  0  0  0  0
    7.9144  -11.4186   26.2516 C   0  0  0  0  0  0  0  0  0  0  0  0
    7.0269  -11.5734   27.2878 C   0  0  0  0  0  0  0  0  0  0  0  0
    6.0527  -12.5486   27.2334 C   0  0  0  0  0  0  0  0  0  0  0  0
    6.0235  -13.3305   26.1175 C   0  0  0  0  0  0  0  0  0  0  0  0
    8.3633  -15.5346   25.0867 C   0  0  0  0  0  0  0  0  0  0  0  0
    8.4964  -14.7011   26.0233 O   0  0  0  0  0  0  0  0  0  0  0  0
    6.7037  -20.3684   27.7101 N   0  0  0  0  0  0  0  0  0  0  0  0
    7.8936  -20.2535   28.4732 C   0  0  0  0  0  0  0  0  0  0  0  0
    7.9813  -20.8324   29.5739 O   0  0  0  0  0  0  0  0  0  0  0  0
    9.0134  -19.4499   27.9548 C   0  0  0  0  0  0  0  0  0  0  0  0
    8.6294  -18.8829   26.6011 C   0  0  0  0  0  0  0  0  0  0  0  0
    8.8830  -17.3846   26.6035 C   0  0  2  0  0  0  0  0  0  0  0  0
    8.6029  -16.9189   25.2556 N   0  0  0  0  0  0  0  0  0  0  0  0
   10.2980  -17.1086   26.8832 C   0  0  0  0  0  0  0  0  0  0  0  0
   10.8410  -17.1043   28.1491 O   0  0  0  0  0  0  0  0  0  0  0  0
   11.0536  -16.8617   25.8957 O   0  0  0  0  0  0  0  0  0  0  0  0
  2  3  1  0
  2  1  1  1
  3  4  1  0
  4  8  1  0
  4  5  2  0
  5  6  1  0
  7  6  1  0
  8  7  2  0
  9  2  1  0
 10  9  2  0
 11  9  1  0
 12 11  1  0
 12 13  1  1
 13 14  1  0
 14 15  2  0
 15 16  1  0
 17 16  2  0
 18 17  1  0
 19 14  1  0
 19 18  2  0
 20 28  1  0
 20 12  1  0
 21 20  2  0
 23 22  1  0
 24 23  2  0
 25 23  1  0
 27 26  1  6
 26 25  1  0
 27 29  1  0
 27 28  1  0
 29 30  1  0
 31 29  2  0
M  END
$$$$
