HFQ.pdb
     RDKit          3D

 31 32  0  0  1  0  0  0  0  0999 V2000
   11.2296  -16.7296   19.9042 N   0  0  0  0  0  0  0  0  0  0  0  0
    9.9134  -16.8217   20.4506 C   0  0  1  0  0  0  0  0  0  0  0  0
    9.4414  -18.2583   20.5352 C   0  0  0  0  0  0  0  0  0  0  0  0
    9.3632  -18.7958   19.1637 C   0  0  0  0  0  0  0  0  0  0  0  0
    8.7850  -18.1456   18.1014 C   0  0  0  0  0  0  0  0  0  0  0  0
    8.9055  -18.9439   17.0213 N   0  0  0  0  0  0  0  0  0  0  0  0
    9.5376  -20.0676   17.3717 C   0  0  0  0  0  0  0  0  0  0  0  0
    9.8115  -19.9616   18.6879 N   0  0  0  0  0  0  0  0  0  0  0  0
    9.8704  -16.1758   21.8067 C   0  0  0  0  0  0  0  0  0  0  0  0
   10.7621  -16.3464   22.6515 O   0  0  0  0  0  0  0  0  0  0  0  0
    8.7880  -15.3344   22.1705 N   0  0  0  0  0  0  0  0  0  0  0  0
    8.5670  -14.7771   23.4475 C   0  0  1  0  0  0  0  0  0  0  0  0
    7.4932  -13.7329   23.5507 C   0  0  0  0  0  0  0  0  0  0  0  0
    7.4491  -13.1819   24.9234 C   0  0  0  0  0  0  0  0  0  0  0  0
    8.4488  -12.4716   25.5307 C   0  0  0  0  0  0  0  0  0  0  0  0
    8.2604  -12.0292   26.8416 C   0  0  0  0  0  0  0  0  0  0  0  0
    7.0996  -12.2913   27.5266 C   0  0  0  0  0  0  0  0  0  0  0  0
    6.0819  -13.0056   26.9289 C   0  0  0  0  0  0  0  0  0  0  0  0
    6.2914  -13.4258   25.6495 C   0  0  0  0  0  0  0  0  0  0  0  0
    8.4296  -15.7545   24.5342 C   0  0  0  0  0  0  0  0  0  0  0  0
    7.4721  -16.5715   24.4603 O   0  0  0  0  0  0  0  0  0  0  0  0
   12.3617  -19.3752   24.3731 N   0  0  0  0  0  0  0  0  0  0  0  0
   11.9275  -19.8191   25.6482 C   0  0  0  0  0  0  0  0  0  0  0  0
   12.3717  -20.8858   26.1164 O   0  0  0  0  0  0  0  0  0  0  0  0
   10.9553  -19.0127   26.4051 C   0  0  0  0  0  0  0  0  0  0  0  0
   10.5747  -17.7967   25.5817 C   0  0  0  0  0  0  0  0  0  0  0  0
    9.5241  -16.9988   26.3361 C   0  0  2  0  0  0  0  0  0  0  0  0
    9.3527  -15.7535   25.6067 N   0  0  0  0  0  0  0  0  0  0  0  0
   10.0095  -16.6623   27.6806 C   0  0  0  0  0  0  0  0  0  0  0  0
   10.0678  -17.5634   28.7208 O   0  0  0  0  0  0  0  0  0  0  0  0
   10.3943  -15.4717   27.8841 O   0  0  0  0  0  0  0  0  0  0  0  0
  2  3  1  0
  2  1  1  1
  3  4  1  0
  4  8  1  0
  4  5  2  0
  5  6  1  0
  7  6  1  0
  8  7  2  0
  9  2  1  0
 10  9  2  0
 11  9  1  0
 12 11  1  0
 12 13  1  6
 13 14  1  0
 14 15  2  0
 15 16  1  0
 17 16  2  0
 18 17  1  0
 19 14  1  0
 19 18  2  0
 20 28  1  0
 20 12  1  0
 21 20  2  0
 23 22  1  0
 24 23  2  0
 25 23  1  0
 27 26  1  6
 26 25  1  0
 27 29  1  0
 27 28  1  0
 29 30  1  0
 31 29  2  0
M  END
$$$$
