HFQ.pdb
     RDKit          3D

 31 32  0  0  1  0  0  0  0  0999 V2000
    9.8085  -16.2131   20.1005 N   0  0  0  0  0  0  0  0  0  0  0  0
    9.0374  -17.0484   20.9649 C   0  0  1  0  0  0  0  0  0  0  0  0
    9.4185  -18.5069   20.8207 C   0  0  0  0  0  0  0  0  0  0  0  0
    9.1656  -18.9100   19.4243 C   0  0  0  0  0  0  0  0  0  0  0  0
    8.0661  -19.6157   19.0017 C   0  0  0  0  0  0  0  0  0  0  0  0
    8.1846  -19.7948   17.6704 N   0  0  0  0  0  0  0  0  0  0  0  0
    9.3177  -19.2266   17.2482 C   0  0  0  0  0  0  0  0  0  0  0  0
    9.9077  -18.6886   18.3350 N   0  0  0  0  0  0  0  0  0  0  0  0
    9.1980  -16.6039   22.3913 C   0  0  0  0  0  0  0  0  0  0  0  0
   10.2898  -16.2417   22.8546 O   0  0  0  0  0  0  0  0  0  0  0  0
    8.0847  -16.5842   23.2700 N   0  0  0  0  0  0  0  0  0  0  0  0
    8.1153  -16.2311   24.6355 C   0  0  1  0  0  0  0  0  0  0  0  0
    6.8616  -15.6331   25.2055 C   0  0  0  0  0  0  0  0  0  0  0  0
    7.0383  -14.1779   25.4083 C   0  0  0  0  0  0  0  0  0  0  0  0
    7.2976  -13.2610   24.4261 C   0  0  0  0  0  0  0  0  0  0  0  0
    7.4525  -11.9194   24.7808 C   0  0  0  0  0  0  0  0  0  0  0  0
    7.3500  -11.5069   26.0865 C   0  0  0  0  0  0  0  0  0  0  0  0
    7.0887  -12.4182   27.0885 C   0  0  0  0  0  0  0  0  0  0  0  0
    6.9420  -13.7208   26.7155 C   0  0  0  0  0  0  0  0  0  0  0  0
    8.6339  -17.2712   25.5324 C   0  0  0  0  0  0  0  0  0  0  0  0
    7.9714  -18.3401   25.6233 O   0  0  0  0  0  0  0  0  0  0  0  0
   14.1218  -19.5147   25.0800 N   0  0  0  0  0  0  0  0  0  0  0  0
   13.9631  -19.5077   26.4892 C   0  0  0  0  0  0  0  0  0  0  0  0
   14.9642  -19.6085   27.2253 O   0  0  0  0  0  0  0  0  0  0  0  0
   12.6145  -19.3811   27.0670 C   0  0  0  0  0  0  0  0  0  0  0  0
   11.8454  -18.3228   26.2990 C   0  0  0  0  0  0  0  0  0  0  0  0
   10.4480  -18.2056   26.8847 C   0  0  2  0  0  0  0  0  0  0  0  0
    9.8329  -17.0515   26.2509 N   0  0  0  0  0  0  0  0  0  0  0  0
   10.5219  -17.9335   28.3260 C   0  0  0  0  0  0  0  0  0  0  0  0
   10.1841  -16.7255   28.8950 O   0  0  0  0  0  0  0  0  0  0  0  0
   10.9206  -18.8714   29.0800 O   0  0  0  0  0  0  0  0  0  0  0  0
  2  3  1  0
  2  1  1  6
  3  4  1  0
  4  8  1  0
  4  5  2  0
  5  6  1  0
  7  6  1  0
  8  7  2  0
  9  2  1  0
 10  9  2  0
 11  9  1  0
 12 11  1  0
 12 13  1  1
 13 14  1  0
 14 15  2  0
 15 16  1  0
 17 16  2  0
 18 17  1  0
 19 14  1  0
 19 18  2  0
 20 28  1  0
 20 12  1  0
 21 20  2  0
 23 22  1  0
 24 23  2  0
 25 23  1  0
 27 26  1  6
 26 25  1  0
 27 29  1  0
 27 28  1  0
 29 30  1  0
 31 29  2  0
M  END
$$$$
