HFQ.pdb
     RDKit          3D

 31 32  0  0  1  0  0  0  0  0999 V2000
   10.3024  -17.0956   19.5505 N   0  0  0  0  0  0  0  0  0  0  0  0
    9.0118  -16.9476   20.1437 C   0  0  1  0  0  0  0  0  0  0  0  0
    8.2732  -18.2678   20.2142 C   0  0  0  0  0  0  0  0  0  0  0  0
    7.9950  -18.7108   18.8348 C   0  0  0  0  0  0  0  0  0  0  0  0
    7.6979  -17.8714   17.7895 C   0  0  0  0  0  0  0  0  0  0  0  0
    7.5076  -18.6360   16.6952 N   0  0  0  0  0  0  0  0  0  0  0  0
    7.6752  -19.9210   17.0204 C   0  0  0  0  0  0  0  0  0  0  0  0
    7.9735  -19.9503   18.3353 N   0  0  0  0  0  0  0  0  0  0  0  0
    9.1391  -16.3451   21.5144 C   0  0  0  0  0  0  0  0  0  0  0  0
   10.0756  -16.6245   22.2777 O   0  0  0  0  0  0  0  0  0  0  0  0
    8.1736  -15.4200   21.9877 N   0  0  0  0  0  0  0  0  0  0  0  0
    8.1562  -14.8248   23.2666 C   0  0  1  0  0  0  0  0  0  0  0  0
    7.1792  -13.7041   23.4755 C   0  0  0  0  0  0  0  0  0  0  0  0
    7.3181  -13.1558   24.8429 C   0  0  0  0  0  0  0  0  0  0  0  0
    8.4407  -12.5641   25.3553 C   0  0  0  0  0  0  0  0  0  0  0  0
    8.4190  -12.1073   26.6746 C   0  0  0  0  0  0  0  0  0  0  0  0
    7.3009  -12.2396   27.4606 C   0  0  0  0  0  0  0  0  0  0  0  0
    6.1610  -12.8333   26.9594 C   0  0  0  0  0  0  0  0  0  0  0  0
    6.2087  -13.2704   25.6695 C   0  0  0  0  0  0  0  0  0  0  0  0
    8.0911  -15.7696   24.3883 C   0  0  0  0  0  0  0  0  0  0  0  0
    7.0730  -16.5095   24.4636 O   0  0  0  0  0  0  0  0  0  0  0  0
    9.4815  -20.5898   24.0887 N   0  0  0  0  0  0  0  0  0  0  0  0
   10.5164  -20.3644   25.0318 C   0  0  0  0  0  0  0  0  0  0  0  0
   11.5284  -21.0925   25.0261 O   0  0  0  0  0  0  0  0  0  0  0  0
   10.3826  -19.2705   26.0085 C   0  0  0  0  0  0  0  0  0  0  0  0
   10.1864  -17.9639   25.2630 C   0  0  0  0  0  0  0  0  0  0  0  0
    9.2954  -17.0524   26.0904 C   0  0  2  0  0  0  0  0  0  0  0  0
    9.1464  -15.8232   25.3295 N   0  0  0  0  0  0  0  0  0  0  0  0
    9.9534  -16.7123   27.3585 C   0  0  0  0  0  0  0  0  0  0  0  0
   10.8278  -15.6586   27.5084 O   0  0  0  0  0  0  0  0  0  0  0  0
    9.6945  -17.4368   28.3662 O   0  0  0  0  0  0  0  0  0  0  0  0
  2  3  1  0
  2  1  1  1
  3  4  1  0
  4  8  1  0
  4  5  2  0
  5  6  1  0
  7  6  1  0
  8  7  2  0
  9  2  1  0
 10  9  2  0
 11  9  1  0
 12 11  1  0
 12 13  1  6
 13 14  1  0
 14 15  2  0
 15 16  1  0
 17 16  2  0
 18 17  1  0
 19 14  1  0
 19 18  2  0
 20 28  1  0
 20 12  1  0
 21 20  2  0
 23 22  1  0
 24 23  2  0
 25 23  1  0
 27 26  1  6
 26 25  1  0
 27 29  1  0
 27 28  1  0
 29 30  1  0
 31 29  2  0
M  END
$$$$
