HFQ.pdb
     RDKit          3D

 31 32  0  0  1  0  0  0  0  0999 V2000
   10.6691  -14.7105   19.2257 N   0  0  0  0  0  0  0  0  0  0  0  0
    9.3154  -14.6481   19.6761 C   0  0  1  0  0  0  0  0  0  0  0  0
    8.4725  -15.7514   19.0712 C   0  0  0  0  0  0  0  0  0  0  0  0
    8.2161  -15.4096   17.6593 C   0  0  0  0  0  0  0  0  0  0  0  0
    8.7561  -14.3290   17.0064 C   0  0  0  0  0  0  0  0  0  0  0  0
    8.2945  -14.3467   15.7396 N   0  0  0  0  0  0  0  0  0  0  0  0
    7.4868  -15.3988   15.5792 C   0  0  0  0  0  0  0  0  0  0  0  0
    7.4490  -16.0403   16.7648 N   0  0  0  0  0  0  0  0  0  0  0  0
    9.2664  -14.7146   21.1765 C   0  0  0  0  0  0  0  0  0  0  0  0
   10.1491  -15.2726   21.8452 O   0  0  0  0  0  0  0  0  0  0  0  0
    8.1883  -14.1301   21.8892 N   0  0  0  0  0  0  0  0  0  0  0  0
    8.0878  -14.0194   23.2920 C   0  0  1  0  0  0  0  0  0  0  0  0
    7.0459  -13.0767   23.8210 C   0  0  0  0  0  0  0  0  0  0  0  0
    7.1919  -12.9266   25.2859 C   0  0  0  0  0  0  0  0  0  0  0  0
    8.3422  -12.5814   25.9420 C   0  0  0  0  0  0  0  0  0  0  0  0
    8.3226  -12.4939   27.3355 C   0  0  0  0  0  0  0  0  0  0  0  0
    7.1795  -12.7455   28.0534 C   0  0  0  0  0  0  0  0  0  0  0  0
    6.0115  -13.0943   27.4075 C   0  0  0  0  0  0  0  0  0  0  0  0
    6.0578  -13.1727   26.0476 C   0  0  0  0  0  0  0  0  0  0  0  0
    8.0267  -15.2978   24.0111 C   0  0  0  0  0  0  0  0  0  0  0  0
    7.0279  -16.0363   23.7949 O   0  0  0  0  0  0  0  0  0  0  0  0
   11.0160  -19.7838   22.6857 N   0  0  0  0  0  0  0  0  0  0  0  0
   11.1211  -19.9333   24.0920 C   0  0  0  0  0  0  0  0  0  0  0  0
   11.9987  -20.6779   24.5714 O   0  0  0  0  0  0  0  0  0  0  0  0
   10.1901  -19.2057   24.9708 C   0  0  0  0  0  0  0  0  0  0  0  0
   10.0467  -17.7817   24.4675 C   0  0  0  0  0  0  0  0  0  0  0  0
    9.0872  -17.0313   25.3761 C   0  0  2  0  0  0  0  0  0  0  0  0
    9.0644  -15.6572   24.9034 N   0  0  0  0  0  0  0  0  0  0  0  0
    9.5961  -17.0183   26.7536 C   0  0  0  0  0  0  0  0  0  0  0  0
   10.4679  -16.0685   27.2384 O   0  0  0  0  0  0  0  0  0  0  0  0
    9.2040  -17.9388   27.5322 O   0  0  0  0  0  0  0  0  0  0  0  0
  2  3  1  0
  2  1  1  6
  3  4  1  0
  4  8  1  0
  4  5  2  0
  5  6  1  0
  7  6  1  0
  8  7  2  0
  9  2  1  0
 10  9  2  0
 11  9  1  0
 12 11  1  0
 12 13  1  6
 13 14  1  0
 14 15  2  0
 15 16  1  0
 17 16  2  0
 18 17  1  0
 19 14  1  0
 19 18  2  0
 20 28  1  0
 20 12  1  0
 21 20  2  0
 23 22  1  0
 24 23  2  0
 25 23  1  0
 27 26  1  6
 26 25  1  0
 27 29  1  0
 27 28  1  0
 29 30  1  0
 31 29  2  0
M  END
$$$$
