HFQ.pdb
     RDKit          3D

 31 32  0  0  1  0  0  0  0  0999 V2000
    9.3371  -16.0580   19.5882 N   0  0  0  0  0  0  0  0  0  0  0  0
    8.8992  -16.9930   20.5747 C   0  0  1  0  0  0  0  0  0  0  0  0
    9.5910  -18.3317   20.4235 C   0  0  0  0  0  0  0  0  0  0  0  0
    9.2155  -18.8954   19.1130 C   0  0  0  0  0  0  0  0  0  0  0  0
    8.0191  -18.6682   18.4784 C   0  0  0  0  0  0  0  0  0  0  0  0
    8.0418  -19.3454   17.3126 N   0  0  0  0  0  0  0  0  0  0  0  0
    9.2085  -19.9862   17.1975 C   0  0  0  0  0  0  0  0  0  0  0  0
    9.9168  -19.7004   18.3089 N   0  0  0  0  0  0  0  0  0  0  0  0
    9.1296  -16.4373   21.9517 C   0  0  0  0  0  0  0  0  0  0  0  0
   10.2229  -15.9705   22.3046 O   0  0  0  0  0  0  0  0  0  0  0  0
    8.0838  -16.4289   22.9100 N   0  0  0  0  0  0  0  0  0  0  0  0
    8.2049  -16.0468   24.2626 C   0  0  1  0  0  0  0  0  0  0  0  0
    6.9750  -15.4884   24.9181 C   0  0  0  0  0  0  0  0  0  0  0  0
    7.2383  -14.1182   25.4111 C   0  0  0  0  0  0  0  0  0  0  0  0
    7.6025  -13.0486   24.6390 C   0  0  0  0  0  0  0  0  0  0  0  0
    7.8297  -11.8175   25.2576 C   0  0  0  0  0  0  0  0  0  0  0  0
    7.6952  -11.6620   26.6152 C   0  0  0  0  0  0  0  0  0  0  0  0
    7.3285  -12.7299   27.4077 C   0  0  0  0  0  0  0  0  0  0  0  0
    7.1130  -13.9198   26.7793 C   0  0  0  0  0  0  0  0  0  0  0  0
    8.8344  -17.0463   25.1343 C   0  0  0  0  0  0  0  0  0  0  0  0
    8.2533  -18.1589   25.2532 O   0  0  0  0  0  0  0  0  0  0  0  0
   14.8629  -17.3552   26.1087 N   0  0  0  0  0  0  0  0  0  0  0  0
   14.4140  -18.4134   26.9394 C   0  0  0  0  0  0  0  0  0  0  0  0
   15.2448  -19.1421   27.5166 O   0  0  0  0  0  0  0  0  0  0  0  0
   12.9689  -18.6389   27.1101 C   0  0  0  0  0  0  0  0  0  0  0  0
   12.2086  -17.5862   26.3257 C   0  0  0  0  0  0  0  0  0  0  0  0
   10.7176  -17.8312   26.4874 C   0  0  2  0  0  0  0  0  0  0  0  0
   10.0457  -16.7416   25.7993 N   0  0  0  0  0  0  0  0  0  0  0  0
   10.3412  -17.7599   27.9051 C   0  0  0  0  0  0  0  0  0  0  0  0
    9.7578  -16.6563   28.4873 O   0  0  0  0  0  0  0  0  0  0  0  0
   10.5710  -18.7780   28.6246 O   0  0  0  0  0  0  0  0  0  0  0  0
  2  3  1  0
  2  1  1  6
  3  4  1  0
  4  8  1  0
  4  5  2  0
  5  6  1  0
  7  6  1  0
  8  7  2  0
  9  2  1  0
 10  9  2  0
 11  9  1  0
 12 11  1  0
 12 13  1  1
 13 14  1  0
 14 15  2  0
 15 16  1  0
 17 16  2  0
 18 17  1  0
 19 14  1  0
 19 18  2  0
 20 28  1  0
 20 12  1  0
 21 20  2  0
 23 22  1  0
 24 23  2  0
 25 23  1  0
 27 26  1  1
 26 25  1  0
 27 29  1  0
 27 28  1  0
 29 30  1  0
 31 29  2  0
M  END
$$$$
