HFQ.pdb
     RDKit          3D

 31 32  0  0  1  0  0  0  0  0999 V2000
    7.9900  -16.1066   20.5271 N   0  0  0  0  0  0  0  0  0  0  0  0
    8.6788  -14.9109   20.8950 C   0  0  1  0  0  0  0  0  0  0  0  0
    7.9693  -13.6754   20.3816 C   0  0  0  0  0  0  0  0  0  0  0  0
    7.9045  -13.7630   18.9104 C   0  0  0  0  0  0  0  0  0  0  0  0
    8.7444  -13.0994   18.0504 C   0  0  0  0  0  0  0  0  0  0  0  0
    8.3804  -13.4256   16.7936 N   0  0  0  0  0  0  0  0  0  0  0  0
    7.3445  -14.2681   16.8392 C   0  0  0  0  0  0  0  0  0  0  0  0
    7.0647  -14.4651   18.1436 N   0  0  0  0  0  0  0  0  0  0  0  0
    8.8346  -14.8428   22.3880 C   0  0  0  0  0  0  0  0  0  0  0  0
    9.6047  -14.0421   22.9390 O   0  0  0  0  0  0  0  0  0  0  0  0
    8.0916  -15.7087   23.2306 N   0  0  0  0  0  0  0  0  0  0  0  0
    8.2093  -15.7990   24.6336 C   0  0  1  0  0  0  0  0  0  0  0  0
    6.9890  -15.4518   25.4363 C   0  0  0  0  0  0  0  0  0  0  0  0
    6.9663  -14.0009   25.7264 C   0  0  0  0  0  0  0  0  0  0  0  0
    6.1050  -13.0905   25.1766 C   0  0  0  0  0  0  0  0  0  0  0  0
    6.2195  -11.7480   25.5431 C   0  0  0  0  0  0  0  0  0  0  0  0
    7.1725  -11.3283   26.4381 C   0  0  0  0  0  0  0  0  0  0  0  0
    8.0481  -12.2330   27.0018 C   0  0  0  0  0  0  0  0  0  0  0  0
    7.9151  -13.5366   26.6271 C   0  0  0  0  0  0  0  0  0  0  0  0
    8.8012  -17.0488   25.1260 C   0  0  0  0  0  0  0  0  0  0  0  0
    8.1621  -18.1148   24.9143 O   0  0  0  0  0  0  0  0  0  0  0  0
   15.0403  -20.5554   25.8399 N   0  0  0  0  0  0  0  0  0  0  0  0
   14.1318  -19.5389   25.4491 C   0  0  0  0  0  0  0  0  0  0  0  0
   14.5198  -18.6127   24.7102 O   0  0  0  0  0  0  0  0  0  0  0  0
   12.7382  -19.5902   25.9219 C   0  0  0  0  0  0  0  0  0  0  0  0
   12.0670  -18.2622   25.6262 C   0  0  0  0  0  0  0  0  0  0  0  0
   10.6393  -18.3043   26.1450 C   0  0  2  0  0  0  0  0  0  0  0  0
   10.0417  -17.0236   25.8063 N   0  0  0  0  0  0  0  0  0  0  0  0
   10.6334  -18.4236   27.6088 C   0  0  0  0  0  0  0  0  0  0  0  0
   10.9368  -19.5857   28.2830 O   0  0  0  0  0  0  0  0  0  0  0  0
   10.3301  -17.3917   28.2798 O   0  0  0  0  0  0  0  0  0  0  0  0
  2  3  1  0
  2  1  1  1
  3  4  1  0
  4  8  1  0
  4  5  2  0
  5  6  1  0
  7  6  1  0
  8  7  2  0
  9  2  1  0
 10  9  2  0
 11  9  1  0
 12 11  1  0
 12 13  1  1
 13 14  1  0
 14 15  2  0
 15 16  1  0
 17 16  2  0
 18 17  1  0
 19 14  1  0
 19 18  2  0
 20 28  1  0
 20 12  1  0
 21 20  2  0
 23 22  1  0
 24 23  2  0
 25 23  1  0
 27 26  1  1
 26 25  1  0
 27 29  1  0
 27 28  1  0
 29 30  1  0
 31 29  2  0
M  END
$$$$
