HFQ.pdb
     RDKit          3D

 31 32  0  0  1  0  0  0  0  0999 V2000
   10.1828  -16.5577   19.2993 N   0  0  0  0  0  0  0  0  0  0  0  0
    8.8819  -16.3404   19.8468 C   0  0  1  0  0  0  0  0  0  0  0  0
    8.0212  -17.5831   19.7558 C   0  0  0  0  0  0  0  0  0  0  0  0
    7.8115  -17.8911   18.3284 C   0  0  0  0  0  0  0  0  0  0  0  0
    7.6474  -16.9501   17.3419 C   0  0  0  0  0  0  0  0  0  0  0  0
    7.4829  -17.6073   16.1760 N   0  0  0  0  0  0  0  0  0  0  0  0
    7.5386  -18.9232   16.4000 C   0  0  0  0  0  0  0  0  0  0  0  0
    7.7404  -19.0810   17.7240 N   0  0  0  0  0  0  0  0  0  0  0  0
    8.9916  -15.8829   21.2739 C   0  0  0  0  0  0  0  0  0  0  0  0
    9.8889  -16.2814   22.0314 O   0  0  0  0  0  0  0  0  0  0  0  0
    8.0544  -14.9631   21.8101 N   0  0  0  0  0  0  0  0  0  0  0  0
    8.0147  -14.5063   23.1443 C   0  0  1  0  0  0  0  0  0  0  0  0
    7.0113  -13.4352   23.4607 C   0  0  0  0  0  0  0  0  0  0  0  0
    7.1059  -13.0544   24.8875 C   0  0  0  0  0  0  0  0  0  0  0  0
    8.1904  -12.4754   25.4887 C   0  0  0  0  0  0  0  0  0  0  0  0
    8.1301  -12.1872   26.8536 C   0  0  0  0  0  0  0  0  0  0  0  0
    7.0114  -12.4715   27.5973 C   0  0  0  0  0  0  0  0  0  0  0  0
    5.9095  -13.0547   27.0067 C   0  0  0  0  0  0  0  0  0  0  0  0
    5.9946  -13.3257   25.6738 C   0  0  0  0  0  0  0  0  0  0  0  0
    7.9630  -15.5651   24.1599 C   0  0  0  0  0  0  0  0  0  0  0  0
    6.9327  -16.2913   24.1871 O   0  0  0  0  0  0  0  0  0  0  0  0
   12.0285  -19.4412   23.9866 N   0  0  0  0  0  0  0  0  0  0  0  0
   11.3330  -19.9734   25.1021 C   0  0  0  0  0  0  0  0  0  0  0  0
   11.5328  -21.1537   25.4504 O   0  0  0  0  0  0  0  0  0  0  0  0
   10.3812  -19.1233   25.8369 C   0  0  0  0  0  0  0  0  0  0  0  0
   10.1719  -17.8344   25.0646 C   0  0  0  0  0  0  0  0  0  0  0  0
    9.1172  -17.0003   25.7726 C   0  0  2  0  0  0  0  0  0  0  0  0
    9.0439  -15.7378   25.0566 N   0  0  0  0  0  0  0  0  0  0  0  0
    9.5400  -16.7067   27.1480 C   0  0  0  0  0  0  0  0  0  0  0  0
    9.3195  -17.5516   28.2133 O   0  0  0  0  0  0  0  0  0  0  0  0
   10.1415  -15.6100   27.3550 O   0  0  0  0  0  0  0  0  0  0  0  0
  2  3  1  0
  2  1  1  1
  3  4  1  0
  4  8  1  0
  4  5  2  0
  5  6  1  0
  7  6  1  0
  8  7  2  0
  9  2  1  0
 10  9  2  0
 11  9  1  0
 12 11  1  0
 12 13  1  6
 13 14  1  0
 14 15  2  0
 15 16  1  0
 17 16  2  0
 18 17  1  0
 19 14  1  0
 19 18  2  0
 20 28  1  0
 20 12  1  0
 21 20  2  0
 23 22  1  0
 24 23  2  0
 25 23  1  0
 27 26  1  6
 26 25  1  0
 27 29  1  0
 27 28  1  0
 29 30  1  0
 31 29  2  0
M  END
$$$$
