HFQ.pdb
     RDKit          3D

 31 32  0  0  1  0  0  0  0  0999 V2000
    8.4736  -17.8754   20.4462 N   0  0  0  0  0  0  0  0  0  0  0  0
    8.6722  -16.4618   20.4030 C   0  0  1  0  0  0  0  0  0  0  0  0
    8.4555  -15.9082   19.0101 C   0  0  0  0  0  0  0  0  0  0  0  0
    8.9495  -16.9036   18.0400 C   0  0  0  0  0  0  0  0  0  0  0  0
    9.9286  -17.8303   18.3012 C   0  0  0  0  0  0  0  0  0  0  0  0
   10.1079  -18.5595   17.1813 N   0  0  0  0  0  0  0  0  0  0  0  0
    9.2765  -18.1211   16.2318 C   0  0  0  0  0  0  0  0  0  0  0  0
    8.5732  -17.1060   16.7736 N   0  0  0  0  0  0  0  0  0  0  0  0
    7.7601  -15.7816   21.3845 C   0  0  0  0  0  0  0  0  0  0  0  0
    6.8140  -15.0651   21.0247 O   0  0  0  0  0  0  0  0  0  0  0  0
    7.9560  -15.9404   22.7803 N   0  0  0  0  0  0  0  0  0  0  0  0
    8.5416  -14.9930   23.6461 C   0  0  1  0  0  0  0  0  0  0  0  0
    7.9146  -13.6292   23.6764 C   0  0  0  0  0  0  0  0  0  0  0  0
    7.7227  -13.1880   25.0758 C   0  0  0  0  0  0  0  0  0  0  0  0
    8.6704  -12.5895   25.8610 C   0  0  0  0  0  0  0  0  0  0  0  0
    8.3380  -12.2427   27.1721 C   0  0  0  0  0  0  0  0  0  0  0  0
    7.0877  -12.4889   27.6835 C   0  0  0  0  0  0  0  0  0  0  0  0
    6.1208  -13.0911   26.9053 C   0  0  0  0  0  0  0  0  0  0  0  0
    6.4711  -13.4195   25.6298 C   0  0  0  0  0  0  0  0  0  0  0  0
    8.7836  -15.4700   25.0132 C   0  0  0  0  0  0  0  0  0  0  0  0
    7.7766  -15.6491   25.7505 O   0  0  0  0  0  0  0  0  0  0  0  0
   13.7582  -19.3069   24.4229 N   0  0  0  0  0  0  0  0  0  0  0  0
   12.9269  -18.4663   23.6395 C   0  0  0  0  0  0  0  0  0  0  0  0
   13.3266  -18.0603   22.5306 O   0  0  0  0  0  0  0  0  0  0  0  0
   11.5988  -18.0827   24.1468 C   0  0  0  0  0  0  0  0  0  0  0  0
   11.7598  -17.4230   25.5034 C   0  0  0  0  0  0  0  0  0  0  0  0
   10.3896  -17.0184   26.0213 C   0  0  2  0  0  0  0  0  0  0  0  0
   10.1064  -15.7106   25.4542 N   0  0  0  0  0  0  0  0  0  0  0  0
   10.4211  -16.8713   27.4821 C   0  0  0  0  0  0  0  0  0  0  0  0
   10.4490  -17.9342   28.3578 O   0  0  0  0  0  0  0  0  0  0  0  0
   10.4223  -15.6942   27.9530 O   0  0  0  0  0  0  0  0  0  0  0  0
  2  3  1  0
  2  1  1  6
  3  4  1  0
  4  8  1  0
  4  5  2  0
  5  6  1  0
  7  6  1  0
  8  7  2  0
  9  2  1  0
 10  9  2  0
 11  9  1  0
 12 11  1  0
 12 13  1  1
 13 14  1  0
 14 15  2  0
 15 16  1  0
 17 16  2  0
 18 17  1  0
 19 14  1  0
 19 18  2  0
 20 28  1  0
 20 12  1  0
 21 20  2  0
 23 22  1  0
 24 23  2  0
 25 23  1  0
 27 26  1  6
 26 25  1  0
 27 29  1  0
 27 28  1  0
 29 30  1  0
 31 29  2  0
M  END
$$$$
