HFQ.pdb
     RDKit          3D

 31 32  0  0  1  0  0  0  0  0999 V2000
    9.6111  -17.0858   17.1688 N   0  0  0  0  0  0  0  0  0  0  0  0
    9.8909  -17.9213   18.2927 C   0  0  1  0  0  0  0  0  0  0  0  0
   11.0567  -18.8498   18.0238 C   0  0  0  0  0  0  0  0  0  0  0  0
   10.6825  -19.7442   16.9120 C   0  0  0  0  0  0  0  0  0  0  0  0
   10.4779  -21.0967   17.0320 C   0  0  0  0  0  0  0  0  0  0  0  0
   10.1532  -21.5690   15.8114 N   0  0  0  0  0  0  0  0  0  0  0  0
   10.1479  -20.5603   14.9353 C   0  0  0  0  0  0  0  0  0  0  0  0
   10.4743  -19.4485   15.6253 N   0  0  0  0  0  0  0  0  0  0  0  0
   10.1614  -17.0796   19.5077 C   0  0  0  0  0  0  0  0  0  0  0  0
   11.1257  -16.3029   19.5756 O   0  0  0  0  0  0  0  0  0  0  0  0
    9.3060  -17.1480   20.6371 N   0  0  0  0  0  0  0  0  0  0  0  0
    9.4732  -16.4387   21.8451 C   0  0  1  0  0  0  0  0  0  0  0  0
    8.2443  -15.8052   22.4305 C   0  0  0  0  0  0  0  0  0  0  0  0
    7.8203  -14.6551   21.6015 C   0  0  0  0  0  0  0  0  0  0  0  0
    7.0414  -14.7249   20.4784 C   0  0  0  0  0  0  0  0  0  0  0  0
    6.7379  -13.5459   19.7946 C   0  0  0  0  0  0  0  0  0  0  0  0
    7.2027  -12.3278   20.2252 C   0  0  0  0  0  0  0  0  0  0  0  0
    7.9886  -12.2398   21.3555 C   0  0  0  0  0  0  0  0  0  0  0  0
    8.2701  -13.4050   22.0040 C   0  0  0  0  0  0  0  0  0  0  0  0
   10.2184  -17.1565   22.8864 C   0  0  0  0  0  0  0  0  0  0  0  0
    9.8154  -18.3106   23.1955 O   0  0  0  0  0  0  0  0  0  0  0  0
   16.6584  -16.8533   24.1243 N   0  0  0  0  0  0  0  0  0  0  0  0
   15.5462  -16.1702   23.5696 C   0  0  0  0  0  0  0  0  0  0  0  0
   15.6625  -14.9789   23.2209 O   0  0  0  0  0  0  0  0  0  0  0  0
   14.2647  -16.8782   23.4119 C   0  0  0  0  0  0  0  0  0  0  0  0
   13.4205  -16.6539   24.6523 C   0  0  0  0  0  0  0  0  0  0  0  0
   12.0784  -17.3424   24.4672 C   0  0  2  0  0  0  0  0  0  0  0  0
   11.3406  -16.5494   23.4983 N   0  0  0  0  0  0  0  0  0  0  0  0
   11.3201  -17.3248   25.7247 C   0  0  0  0  0  0  0  0  0  0  0  0
   11.2894  -16.2494   26.5848 O   0  0  0  0  0  0  0  0  0  0  0  0
   10.6596  -18.3642   26.0257 O   0  0  0  0  0  0  0  0  0  0  0  0
  2  3  1  0
  2  1  1  6
  3  4  1  0
  4  8  1  0
  4  5  2  0
  5  6  1  0
  7  6  1  0
  8  7  2  0
  9  2  1  0
 10  9  2  0
 11  9  1  0
 12 11  1  0
 12 13  1  1
 13 14  1  0
 14 15  2  0
 15 16  1  0
 17 16  2  0
 18 17  1  0
 19 14  1  0
 19 18  2  0
 20 28  1  0
 20 12  1  0
 21 20  2  0
 23 22  1  0
 24 23  2  0
 25 23  1  0
 27 26  1  1
 26 25  1  0
 27 29  1  0
 27 28  1  0
 29 30  1  0
 31 29  2  0
M  END
$$$$
