IDH.pdb
     RDKit          3D

 27 27  0  0  1  0  0  0  0  0999 V2000
   27.7001  -14.7557  -17.1857 C   0  0  0  0  0  0  0  0  0  0  0  0
   27.9816  -16.0187  -16.4327 C   0  0  0  0  0  0  0  0  0  0  0  0
   26.6831  -16.7604  -16.2283 C   0  0  2  0  0  0  0  0  0  0  0  0
   25.7784  -15.9285  -15.3468 C   0  0  0  0  0  0  0  0  0  0  0  0
   26.8841  -18.1494  -15.6831 C   0  0  2  0  0  0  0  0  0  0  0  0
   27.9127  -18.8281  -16.4448 N   0  0  0  0  0  0  0  0  0  0  0  0
   25.6464  -18.9446  -15.5927 C   0  0  0  0  0  0  0  0  0  0  0  0
   25.1073  -19.5411  -16.5338 O   0  0  0  0  0  0  0  0  0  0  0  0
   25.0180  -19.0331  -14.3119 N   0  0  0  0  0  0  0  0  0  0  0  0
   23.7609  -19.7399  -14.1900 C   0  0  1  0  0  0  0  0  0  0  0  0
   23.8834  -20.8436  -13.1539 C   0  0  0  0  0  0  0  0  0  0  0  0
   22.8610  -21.8991  -13.3150 C   0  0  0  0  0  0  0  0  0  0  0  0
   22.9211  -22.8646  -14.1025 O   0  0  0  0  0  0  0  0  0  0  0  0
   22.6423  -18.8192  -13.8545 C   0  0  0  0  0  0  0  0  0  0  0  0
   22.9409  -17.6756  -13.4263 O   0  0  0  0  0  0  0  0  0  0  0  0
   21.7324  -21.8010  -12.5134 O   0  0  0  0  0  0  0  0  0  0  0  0
   21.2788  -19.1514  -13.9877 N   0  0  0  0  0  0  0  0  0  0  0  0
   20.3787  -18.4299  -14.9017 C   0  0  1  0  0  0  0  0  0  0  0  0
   20.9738  -18.3046  -16.2608 C   0  0  0  0  0  0  0  0  0  0  0  0
   20.1259  -17.4380  -17.1076 C   0  0  0  0  0  0  0  0  0  0  0  0
   18.9885  -16.7563  -16.6625 C   0  0  0  0  0  0  0  0  0  0  0  0
   18.4579  -16.0653  -17.6840 N   0  0  0  0  0  0  0  0  0  0  0  0
   19.2181  -16.2830  -18.7649 C   0  0  0  0  0  0  0  0  0  0  0  0
   20.2182  -17.1086  -18.4114 N   0  0  0  0  0  0  0  0  0  0  0  0
   19.0833  -19.1572  -14.9730 C   0  0  0  0  0  0  0  0  0  0  0  0
   17.9756  -18.6478  -14.7508 O   0  0  0  0  0  0  0  0  0  0  0  0
   19.0733  -20.5249  -15.3144 O   0  0  0  0  0  0  0  0  0  0  0  0
  2  1  1  0
  3  2  1  0
  3  4  1  1
  5  7  1  0
  5  3  1  0
  5  6  1  6
  7  8  2  0
  9 10  1  0
  9  7  1  0
 10 11  1  1
 12 11  1  0
 13 12  2  0
 14 10  1  0
 14 15  2  0
 16 12  1  0
 17 14  1  0
 18 17  1  0
 18 25  1  0
 18 19  1  6
 20 19  1  0
 21 20  2  0
 22 23  1  0
 22 21  1  0
 23 24  2  0
 24 20  1  0
 25 27  1  0
 26 25  2  0
M  END
$$$$
