IDH.pdb
     RDKit          3D

 27 27  0  0  1  0  0  0  0  0999 V2000
   28.2893  -13.8100  -15.6421 C   0  0  0  0  0  0  0  0  0  0  0  0
   26.9479  -14.4579  -15.7915 C   0  0  0  0  0  0  0  0  0  0  0  0
   25.9176  -13.3850  -16.0477 C   0  0  2  0  0  0  0  0  0  0  0  0
   25.8820  -12.4481  -14.8609 C   0  0  0  0  0  0  0  0  0  0  0  0
   24.5577  -13.9465  -16.3674 C   0  0  2  0  0  0  0  0  0  0  0  0
   24.6875  -15.0192  -17.3324 N   0  0  0  0  0  0  0  0  0  0  0  0
   23.5745  -12.9343  -16.7933 C   0  0  0  0  0  0  0  0  0  0  0  0
   23.5807  -12.3419  -17.8801 O   0  0  0  0  0  0  0  0  0  0  0  0
   22.5284  -12.6114  -15.8744 N   0  0  0  0  0  0  0  0  0  0  0  0
   21.5567  -11.6020  -16.2375 C   0  0  1  0  0  0  0  0  0  0  0  0
   20.1733  -12.0207  -15.7714 C   0  0  0  0  0  0  0  0  0  0  0  0
   19.6795  -13.2348  -16.4553 C   0  0  0  0  0  0  0  0  0  0  0  0
   19.8699  -13.5314  -17.6518 O   0  0  0  0  0  0  0  0  0  0  0  0
   21.9193  -10.2673  -15.6910 C   0  0  0  0  0  0  0  0  0  0  0  0
   22.1624  -10.1912  -14.4600 O   0  0  0  0  0  0  0  0  0  0  0  0
   18.9363  -14.1223  -15.6900 O   0  0  0  0  0  0  0  0  0  0  0  0
   22.0055   -9.0931  -16.4663 N   0  0  0  0  0  0  0  0  0  0  0  0
   22.4310   -7.8041  -15.8975 C   0  0  1  0  0  0  0  0  0  0  0  0
   23.4446   -7.1390  -16.7620 C   0  0  0  0  0  0  0  0  0  0  0  0
   24.6619   -7.9740  -16.8503 C   0  0  0  0  0  0  0  0  0  0  0  0
   25.3396   -8.5132  -15.7518 C   0  0  0  0  0  0  0  0  0  0  0  0
   26.3984   -9.2156  -16.1855 N   0  0  0  0  0  0  0  0  0  0  0  0
   26.4188   -9.1427  -17.5227 C   0  0  0  0  0  0  0  0  0  0  0  0
   25.3729   -8.3953  -17.9152 N   0  0  0  0  0  0  0  0  0  0  0  0
   21.2371   -6.9312  -15.7407 C   0  0  0  0  0  0  0  0  0  0  0  0
   20.0927   -7.2288  -16.1118 O   0  0  0  0  0  0  0  0  0  0  0  0
   21.3764   -5.6677  -15.1315 O   0  0  0  0  0  0  0  0  0  0  0  0
  2  1  1  0
  3  2  1  0
  3  4  1  1
  5  7  1  0
  5  3  1  0
  5  6  1  6
  7  8  2  0
  9 10  1  0
  9  7  1  0
 10 11  1  1
 12 11  1  0
 13 12  2  0
 14 10  1  0
 14 15  2  0
 16 12  1  0
 17 14  1  0
 18 17  1  0
 18 25  1  0
 18 19  1  6
 20 19  1  0
 21 20  2  0
 22 23  1  0
 22 21  1  0
 23 24  2  0
 24 20  1  0
 25 27  1  0
 26 25  2  0
M  END
$$$$
