IDH.pdb
     RDKit          3D

 27 27  0  0  1  0  0  0  0  0999 V2000
   29.1684  -19.2814  -17.2039 C   0  0  0  0  0  0  0  0  0  0  0  0
   28.0446  -18.5474  -16.5408 C   0  0  0  0  0  0  0  0  0  0  0  0
   27.1416  -19.5514  -15.8663 C   0  0  2  0  0  0  0  0  0  0  0  0
   26.8157  -20.6536  -16.8494 C   0  0  0  0  0  0  0  0  0  0  0  0
   25.9016  -18.9241  -15.2869 C   0  0  2  0  0  0  0  0  0  0  0  0
   26.2736  -17.9062  -14.3255 N   0  0  0  0  0  0  0  0  0  0  0  0
   24.9442  -19.8935  -14.7246 C   0  0  0  0  0  0  0  0  0  0  0  0
   24.4905  -20.8799  -15.3189 O   0  0  0  0  0  0  0  0  0  0  0  0
   24.5044  -19.6749  -13.3822 N   0  0  0  0  0  0  0  0  0  0  0  0
   23.5350  -20.5791  -12.8012 C   0  0  1  0  0  0  0  0  0  0  0  0
   23.8497  -20.8049  -11.3327 C   0  0  0  0  0  0  0  0  0  0  0  0
   25.1909  -21.3877  -11.1155 C   0  0  0  0  0  0  0  0  0  0  0  0
   25.6079  -22.4646  -11.5872 O   0  0  0  0  0  0  0  0  0  0  0  0
   22.1446  -20.0810  -12.9753 C   0  0  0  0  0  0  0  0  0  0  0  0
   21.8270  -19.0249  -12.3719 O   0  0  0  0  0  0  0  0  0  0  0  0
   26.0615  -20.6653  -10.3119 O   0  0  0  0  0  0  0  0  0  0  0  0
   21.1708  -20.7187  -13.7704 N   0  0  0  0  0  0  0  0  0  0  0  0
   19.8197  -20.1649  -13.9550 C   0  0  1  0  0  0  0  0  0  0  0  0
   19.6172  -19.6853  -15.3500 C   0  0  0  0  0  0  0  0  0  0  0  0
   20.3779  -18.4367  -15.5723 C   0  0  0  0  0  0  0  0  0  0  0  0
   19.8868  -17.1502  -15.3269 C   0  0  0  0  0  0  0  0  0  0  0  0
   20.8325  -16.2486  -15.6355 N   0  0  0  0  0  0  0  0  0  0  0  0
   21.9095  -16.9162  -16.0692 C   0  0  0  0  0  0  0  0  0  0  0  0
   21.6293  -18.2302  -16.0286 N   0  0  0  0  0  0  0  0  0  0  0  0
   18.8208  -21.2156  -13.6227 C   0  0  0  0  0  0  0  0  0  0  0  0
   19.0115  -22.4339  -13.7465 O   0  0  0  0  0  0  0  0  0  0  0  0
   17.5554  -20.8386  -13.1291 O   0  0  0  0  0  0  0  0  0  0  0  0
  2  1  1  0
  3  2  1  0
  3  4  1  6
  5  7  1  0
  5  3  1  0
  5  6  1  1
  7  8  2  0
  9 10  1  0
  9  7  1  0
 10 11  1  1
 12 11  1  0
 13 12  2  0
 14 10  1  0
 14 15  2  0
 16 12  1  0
 17 14  1  0
 18 17  1  0
 18 25  1  0
 18 19  1  6
 20 19  1  0
 21 20  2  0
 22 23  1  0
 22 21  1  0
 23 24  2  0
 24 20  1  0
 25 27  1  0
 26 25  2  0
M  END
$$$$
