IDH.pdb
     RDKit          3D

 27 27  0  0  1  0  0  0  0  0999 V2000
   27.4381  -16.2334  -15.2416 C   0  0  0  0  0  0  0  0  0  0  0  0
   26.1772  -16.4974  -16.0044 C   0  0  0  0  0  0  0  0  0  0  0  0
   25.5357  -15.1760  -16.3518 C   0  0  2  0  0  0  0  0  0  0  0  0
   25.1884  -14.4495  -15.0715 C   0  0  0  0  0  0  0  0  0  0  0  0
   24.3435  -15.3268  -17.2590 C   0  0  2  0  0  0  0  0  0  0  0  0
   24.7160  -16.0936  -18.4304 N   0  0  0  0  0  0  0  0  0  0  0  0
   23.6939  -14.0525  -17.6147 C   0  0  0  0  0  0  0  0  0  0  0  0
   24.1450  -13.2145  -18.4063 O   0  0  0  0  0  0  0  0  0  0  0  0
   22.4398  -13.7619  -16.9936 N   0  0  0  0  0  0  0  0  0  0  0  0
   21.8016  -12.4891  -17.2535 C   0  0  1  0  0  0  0  0  0  0  0  0
   20.3041  -12.6821  -17.4167 C   0  0  0  0  0  0  0  0  0  0  0  0
   19.5836  -11.4131  -17.6532 C   0  0  0  0  0  0  0  0  0  0  0  0
   18.8789  -10.8041  -16.8235 O   0  0  0  0  0  0  0  0  0  0  0  0
   22.0955  -11.4978  -16.1846 C   0  0  0  0  0  0  0  0  0  0  0  0
   21.9940  -11.8832  -14.9924 O   0  0  0  0  0  0  0  0  0  0  0  0
   19.7065  -10.8529  -18.9169 O   0  0  0  0  0  0  0  0  0  0  0  0
   22.4777  -10.1630  -16.4285 N   0  0  0  0  0  0  0  0  0  0  0  0
   22.6802   -9.1913  -15.3418 C   0  0  1  0  0  0  0  0  0  0  0  0
   24.0032   -9.3807  -14.6855 C   0  0  0  0  0  0  0  0  0  0  0  0
   25.0808   -9.3461  -15.6977 C   0  0  0  0  0  0  0  0  0  0  0  0
   24.8854   -9.1041  -17.0615 C   0  0  0  0  0  0  0  0  0  0  0  0
   26.0696   -9.1438  -17.6928 N   0  0  0  0  0  0  0  0  0  0  0  0
   27.0132   -9.4028  -16.7782 C   0  0  0  0  0  0  0  0  0  0  0  0
   26.4120   -9.5232  -15.5820 N   0  0  0  0  0  0  0  0  0  0  0  0
   22.5760   -7.8172  -15.9012 C   0  0  0  0  0  0  0  0  0  0  0  0
   22.3420   -7.5558  -17.0898 O   0  0  0  0  0  0  0  0  0  0  0  0
   22.7496   -6.7067  -15.0505 O   0  0  0  0  0  0  0  0  0  0  0  0
  2  1  1  0
  3  2  1  0
  3  4  1  1
  5  7  1  0
  5  3  1  0
  5  6  1  6
  7  8  2  0
  9 10  1  0
  9  7  1  0
 10 11  1  1
 12 11  1  0
 13 12  2  0
 14 10  1  0
 14 15  2  0
 16 12  1  0
 17 14  1  0
 18 17  1  0
 18 25  1  0
 18 19  1  6
 20 19  1  0
 21 20  2  0
 22 23  1  0
 22 21  1  0
 23 24  2  0
 24 20  1  0
 25 27  1  0
 26 25  2  0
M  END
$$$$
