IDH.pdb
     RDKit          3D

 27 27  0  0  1  0  0  0  0  0999 V2000
   18.3532  -16.4121  -16.1713 C   0  0  0  0  0  0  0  0  0  0  0  0
   17.6193  -15.4160  -17.0143 C   0  0  0  0  0  0  0  0  0  0  0  0
   18.3038  -14.0767  -16.8880 C   0  0  2  0  0  0  0  0  0  0  0  0
   18.3463  -13.6853  -15.4277 C   0  0  0  0  0  0  0  0  0  0  0  0
   17.6662  -13.0128  -17.7416 C   0  0  2  0  0  0  0  0  0  0  0  0
   17.5882  -13.4704  -19.1139 N   0  0  0  0  0  0  0  0  0  0  0  0
   18.3092  -11.6909  -17.6342 C   0  0  0  0  0  0  0  0  0  0  0  0
   19.4105  -11.3886  -18.1117 O   0  0  0  0  0  0  0  0  0  0  0  0
   17.6012  -10.6754  -16.9196 N   0  0  0  0  0  0  0  0  0  0  0  0
   18.2023   -9.3670  -16.7719 C   0  0  1  0  0  0  0  0  0  0  0  0
   17.1418   -8.3475  -16.3942 C   0  0  0  0  0  0  0  0  0  0  0  0
   17.6728   -6.9703  -16.3105 C   0  0  0  0  0  0  0  0  0  0  0  0
   18.4972   -6.4533  -17.0908 O   0  0  0  0  0  0  0  0  0  0  0  0
   19.3064   -9.3780  -15.7758 C   0  0  0  0  0  0  0  0  0  0  0  0
   19.3085  -10.3011  -14.9225 O   0  0  0  0  0  0  0  0  0  0  0  0
   17.2070   -6.1855  -15.2651 O   0  0  0  0  0  0  0  0  0  0  0  0
   20.3414   -8.4219  -15.7333 N   0  0  0  0  0  0  0  0  0  0  0  0
   21.7200   -8.7710  -15.3541 C   0  0  1  0  0  0  0  0  0  0  0  0
   22.2935   -9.7902  -16.2757 C   0  0  0  0  0  0  0  0  0  0  0  0
   23.6934  -10.0833  -15.8995 C   0  0  0  0  0  0  0  0  0  0  0  0
   24.1546  -10.2138  -14.5854 C   0  0  0  0  0  0  0  0  0  0  0  0
   25.4707  -10.4784  -14.6019 N   0  0  0  0  0  0  0  0  0  0  0  0
   25.8643  -10.5211  -15.8813 C   0  0  0  0  0  0  0  0  0  0  0  0
   24.7915  -10.2829  -16.6553 N   0  0  0  0  0  0  0  0  0  0  0  0
   22.5499   -7.5369  -15.3723 C   0  0  0  0  0  0  0  0  0  0  0  0
   23.7513   -7.4908  -15.0715 O   0  0  0  0  0  0  0  0  0  0  0  0
   21.9644   -6.3125  -15.7531 O   0  0  0  0  0  0  0  0  0  0  0  0
  2  1  1  0
  3  2  1  0
  3  4  1  1
  5  7  1  0
  5  3  1  0
  5  6  1  6
  7  8  2  0
  9 10  1  0
  9  7  1  0
 10 11  1  1
 12 11  1  0
 13 12  2  0
 14 10  1  0
 14 15  2  0
 16 12  1  0
 17 14  1  0
 18 17  1  0
 18 25  1  0
 18 19  1  6
 20 19  1  0
 21 20  2  0
 22 23  1  0
 22 21  1  0
 23 24  2  0
 24 20  1  0
 25 27  1  0
 26 25  2  0
M  END
$$$$
