IDH.pdb
     RDKit          3D

 27 27  0  0  1  0  0  0  0  0999 V2000
   30.3431  -33.8124   -6.5732 C   0  0  0  0  0  0  0  0  0  0  0  0
   31.0972  -34.5963   -5.5446 C   0  0  0  0  0  0  0  0  0  0  0  0
   32.2288  -33.7457   -5.0210 C   0  0  2  0  0  0  0  0  0  0  0  0
   33.1458  -33.3908   -6.1703 C   0  0  0  0  0  0  0  0  0  0  0  0
   32.9709  -34.3973   -3.8845 C   0  0  2  0  0  0  0  0  0  0  0  0
   33.4845  -35.6831   -4.3109 N   0  0  0  0  0  0  0  0  0  0  0  0
   32.1919  -34.4980   -2.6373 C   0  0  0  0  0  0  0  0  0  0  0  0
   31.5948  -33.5634   -2.0878 O   0  0  0  0  0  0  0  0  0  0  0  0
   32.1211  -35.7815   -2.0123 N   0  0  0  0  0  0  0  0  0  0  0  0
   31.4521  -35.9086   -0.7351 C   0  0  1  0  0  0  0  0  0  0  0  0
   30.8541  -37.2978   -0.5974 C   0  0  0  0  0  0  0  0  0  0  0  0
   30.0620  -37.4624    0.6399 C   0  0  0  0  0  0  0  0  0  0  0  0
   30.2758  -38.2967    1.5422 O   0  0  0  0  0  0  0  0  0  0  0  0
   32.3682  -35.6106    0.3979 C   0  0  0  0  0  0  0  0  0  0  0  0
   33.3805  -36.3436    0.5334 O   0  0  0  0  0  0  0  0  0  0  0  0
   28.9823  -36.6067    0.8071 O   0  0  0  0  0  0  0  0  0  0  0  0
   32.1691  -34.5634    1.3204 N   0  0  0  0  0  0  0  0  0  0  0  0
   33.0630  -34.3461    2.4692 C   0  0  1  0  0  0  0  0  0  0  0  0
   33.4651  -32.9168    2.5796 C   0  0  0  0  0  0  0  0  0  0  0  0
   34.6017  -32.6385    1.6753 C   0  0  0  0  0  0  0  0  0  0  0  0
   35.2192  -33.5894    0.8559 C   0  0  0  0  0  0  0  0  0  0  0  0
   36.2125  -33.0037    0.1683 N   0  0  0  0  0  0  0  0  0  0  0  0
   36.2495  -31.7122    0.5213 C   0  0  0  0  0  0  0  0  0  0  0  0
   35.2791  -31.5000    1.4268 N   0  0  0  0  0  0  0  0  0  0  0  0
   32.3658  -34.7810    3.7088 C   0  0  0  0  0  0  0  0  0  0  0  0
   31.2292  -35.2739    3.7424 O   0  0  0  0  0  0  0  0  0  0  0  0
   33.0108  -34.6387    4.9541 O   0  0  0  0  0  0  0  0  0  0  0  0
  2  1  1  0
  3  2  1  0
  3  4  1  6
  5  7  1  0
  5  3  1  0
  5  6  1  6
  7  8  2  0
  9 10  1  0
  9  7  1  0
 10 11  1  1
 12 11  1  0
 13 12  2  0
 14 10  1  0
 14 15  2  0
 16 12  1  0
 17 14  1  0
 18 17  1  0
 18 25  1  0
 18 19  1  1
 20 19  1  0
 21 20  2  0
 22 23  1  0
 22 21  1  0
 23 24  2  0
 24 20  1  0
 25 27  1  0
 26 25  2  0
M  END
$$$$
