IDH.pdb
     RDKit          3D

 27 27  0  0  1  0  0  0  0  0999 V2000
   16.4785  -15.5328  -16.7783 C   0  0  0  0  0  0  0  0  0  0  0  0
   17.9401  -15.5280  -17.1023 C   0  0  0  0  0  0  0  0  0  0  0  0
   18.5410  -14.2336  -16.6105 C   0  0  2  0  0  0  0  0  0  0  0  0
   17.8209  -13.0787  -17.2703 C   0  0  0  0  0  0  0  0  0  0  0  0
   20.0306  -14.1656  -16.8185 C   0  0  2  0  0  0  0  0  0  0  0  0
   20.6630  -15.3094  -16.1932 N   0  0  0  0  0  0  0  0  0  0  0  0
   20.6398  -12.8935  -16.3907 C   0  0  0  0  0  0  0  0  0  0  0  0
   20.7769  -12.5231  -15.2176 O   0  0  0  0  0  0  0  0  0  0  0  0
   21.1105  -12.0163  -17.4164 N   0  0  0  0  0  0  0  0  0  0  0  0
   21.7431  -10.7692  -17.0430 C   0  0  1  0  0  0  0  0  0  0  0  0
   22.8371  -10.4229  -18.0379 C   0  0  0  0  0  0  0  0  0  0  0  0
   23.9487  -11.3975  -18.0319 C   0  0  0  0  0  0  0  0  0  0  0  0
   24.5839  -11.7796  -17.0286 O   0  0  0  0  0  0  0  0  0  0  0  0
   20.7558   -9.6625  -16.9337 C   0  0  0  0  0  0  0  0  0  0  0  0
   19.9873   -9.4722  -17.9102 O   0  0  0  0  0  0  0  0  0  0  0  0
   24.3145  -11.9331  -19.2587 O   0  0  0  0  0  0  0  0  0  0  0  0
   20.6327   -8.8220  -15.8087 N   0  0  0  0  0  0  0  0  0  0  0  0
   19.6068   -7.7703  -15.7206 C   0  0  1  0  0  0  0  0  0  0  0  0
   18.8899   -7.8211  -14.4166 C   0  0  0  0  0  0  0  0  0  0  0  0
   17.8984   -6.7265  -14.3401 C   0  0  0  0  0  0  0  0  0  0  0  0
   16.6305   -6.7574  -14.9301 C   0  0  0  0  0  0  0  0  0  0  0  0
   15.9913   -5.6064  -14.6673 N   0  0  0  0  0  0  0  0  0  0  0  0
   16.8081   -4.8430  -13.9300 C   0  0  0  0  0  0  0  0  0  0  0  0
   17.9520   -5.5221  -13.7374 N   0  0  0  0  0  0  0  0  0  0  0  0
   20.2606   -6.4461  -15.8964 C   0  0  0  0  0  0  0  0  0  0  0  0
   21.4340   -6.1928  -15.5883 O   0  0  0  0  0  0  0  0  0  0  0  0
   19.5262   -5.3775  -16.4494 O   0  0  0  0  0  0  0  0  0  0  0  0
  2  1  1  0
  3  2  1  0
  3  4  1  6
  5  7  1  0
  5  3  1  0
  5  6  1  1
  7  8  2  0
  9 10  1  0
  9  7  1  0
 10 11  1  6
 12 11  1  0
 13 12  2  0
 14 10  1  0
 14 15  2  0
 16 12  1  0
 17 14  1  0
 18 17  1  0
 18 25  1  0
 18 19  1  1
 20 19  1  0
 21 20  2  0
 22 23  1  0
 22 21  1  0
 23 24  2  0
 24 20  1  0
 25 27  1  0
 26 25  2  0
M  END
$$$$
