IDH.pdb
     RDKit          3D

 27 27  0  0  1  0  0  0  0  0999 V2000
   13.8697   -5.4678   -6.5800 C   0  0  0  0  0  0  0  0  0  0  0  0
   13.1549   -6.5420   -7.3392 C   0  0  0  0  0  0  0  0  0  0  0  0
   14.1745   -7.3687   -8.0845 C   0  0  2  0  0  0  0  0  0  0  0  0
   15.1420   -7.9667   -7.0876 C   0  0  0  0  0  0  0  0  0  0  0  0
   14.8807   -6.5908   -9.1629 C   0  0  2  0  0  0  0  0  0  0  0  0
   13.9057   -5.9188   -9.9976 N   0  0  0  0  0  0  0  0  0  0  0  0
   15.8316   -7.3903   -9.9561 C   0  0  0  0  0  0  0  0  0  0  0  0
   16.8796   -7.8904   -9.5276 O   0  0  0  0  0  0  0  0  0  0  0  0
   15.5158   -7.6049  -11.3335 N   0  0  0  0  0  0  0  0  0  0  0  0
   16.3763   -8.4526  -12.1310 C   0  0  1  0  0  0  0  0  0  0  0  0
   15.5408   -9.3035  -13.0715 C   0  0  0  0  0  0  0  0  0  0  0  0
   16.3609  -10.1765  -13.9380 C   0  0  0  0  0  0  0  0  0  0  0  0
   17.2145  -11.0000  -13.5519 O   0  0  0  0  0  0  0  0  0  0  0  0
   17.3832   -7.6600  -12.8857 C   0  0  0  0  0  0  0  0  0  0  0  0
   16.9896   -6.6062  -13.4468 O   0  0  0  0  0  0  0  0  0  0  0  0
   16.1574  -10.0648  -15.3062 O   0  0  0  0  0  0  0  0  0  0  0  0
   18.7410   -8.0187  -13.0075 N   0  0  0  0  0  0  0  0  0  0  0  0
   19.6951   -7.2294  -13.8030 C   0  0  1  0  0  0  0  0  0  0  0  0
   21.0971   -7.6660  -13.5564 C   0  0  0  0  0  0  0  0  0  0  0  0
   22.0371   -6.7901  -14.2886 C   0  0  0  0  0  0  0  0  0  0  0  0
   22.3707   -5.4857  -13.9091 C   0  0  0  0  0  0  0  0  0  0  0  0
   23.2466   -4.9779  -14.7908 N   0  0  0  0  0  0  0  0  0  0  0  0
   23.4828   -5.9138  -15.7193 C   0  0  0  0  0  0  0  0  0  0  0  0
   22.7529   -6.9997  -15.4113 N   0  0  0  0  0  0  0  0  0  0  0  0
   19.3567   -7.3774  -15.2437 C   0  0  0  0  0  0  0  0  0  0  0  0
   19.0614   -8.4489  -15.7920 O   0  0  0  0  0  0  0  0  0  0  0  0
   19.3612   -6.2411  -16.0778 O   0  0  0  0  0  0  0  0  0  0  0  0
  2  1  1  0
  3  2  1  0
  3  4  1  1
  5  7  1  0
  5  3  1  0
  5  6  1  6
  7  8  2  0
  9 10  1  0
  9  7  1  0
 10 11  1  6
 12 11  1  0
 13 12  2  0
 14 10  1  0
 14 15  2  0
 16 12  1  0
 17 14  1  0
 18 17  1  0
 18 25  1  0
 18 19  1  6
 20 19  1  0
 21 20  2  0
 22 23  1  0
 22 21  1  0
 23 24  2  0
 24 20  1  0
 25 27  1  0
 26 25  2  0
M  END
$$$$
