IDH.pdb
     RDKit          3D

 27 27  0  0  1  0  0  0  0  0999 V2000
   20.4861  -20.9359  -15.3940 C   0  0  0  0  0  0  0  0  0  0  0  0
   20.7249  -19.6163  -14.7284 C   0  0  0  0  0  0  0  0  0  0  0  0
   20.4698  -18.5157  -15.7294 C   0  0  2  0  0  0  0  0  0  0  0  0
   21.3739  -18.7224  -16.9242 C   0  0  0  0  0  0  0  0  0  0  0  0
   20.6210  -17.1404  -15.1356 C   0  0  2  0  0  0  0  0  0  0  0  0
   20.1030  -17.1337  -13.7826 N   0  0  0  0  0  0  0  0  0  0  0  0
   20.0389  -16.0638  -15.9569 C   0  0  0  0  0  0  0  0  0  0  0  0
   20.2647  -15.8780  -17.1596 O   0  0  0  0  0  0  0  0  0  0  0  0
   19.1397  -15.1609  -15.3095 N   0  0  0  0  0  0  0  0  0  0  0  0
   18.6638  -14.0001  -16.0314 C   0  0  1  0  0  0  0  0  0  0  0  0
   17.4214  -13.4429  -15.3587 C   0  0  0  0  0  0  0  0  0  0  0  0
   16.3208  -14.4266  -15.2794 C   0  0  0  0  0  0  0  0  0  0  0  0
   15.5276  -14.7156  -16.1978 O   0  0  0  0  0  0  0  0  0  0  0  0
   19.7163  -12.9562  -16.1500 C   0  0  0  0  0  0  0  0  0  0  0  0
   20.5910  -12.9095  -15.2483 O   0  0  0  0  0  0  0  0  0  0  0  0
   16.1604  -15.0861  -14.0689 O   0  0  0  0  0  0  0  0  0  0  0  0
   19.7895  -12.0245  -17.2053 N   0  0  0  0  0  0  0  0  0  0  0  0
   21.0493  -11.7250  -17.9047 C   0  0  1  0  0  0  0  0  0  0  0  0
   21.6550  -12.9571  -18.4808 C   0  0  0  0  0  0  0  0  0  0  0  0
   22.9386  -12.6312  -19.1389 C   0  0  0  0  0  0  0  0  0  0  0  0
   23.5243  -11.3610  -19.1576 C   0  0  0  0  0  0  0  0  0  0  0  0
   24.6802  -11.4161  -19.8383 N   0  0  0  0  0  0  0  0  0  0  0  0
   24.8514  -12.6776  -20.2541 C   0  0  0  0  0  0  0  0  0  0  0  0
   23.8015  -13.4020  -19.8304 N   0  0  0  0  0  0  0  0  0  0  0  0
   20.7773  -10.7347  -18.9805 C   0  0  0  0  0  0  0  0  0  0  0  0
   19.6593  -10.2695  -19.2442 O   0  0  0  0  0  0  0  0  0  0  0  0
   21.8410  -10.2677  -19.7790 O   0  0  0  0  0  0  0  0  0  0  0  0
  2  1  1  0
  3  2  1  0
  3  4  1  6
  5  7  1  0
  5  3  1  0
  5  6  1  1
  7  8  2  0
  9 10  1  0
  9  7  1  0
 10 11  1  1
 12 11  1  0
 13 12  2  0
 14 10  1  0
 14 15  2  0
 16 12  1  0
 17 14  1  0
 18 17  1  0
 18 25  1  0
 18 19  1  6
 20 19  1  0
 21 20  2  0
 22 23  1  0
 22 21  1  0
 23 24  2  0
 24 20  1  0
 25 27  1  0
 26 25  2  0
M  END
$$$$
