CFV.pdb
     RDKit          3D

 25 25  0  0  1  0  0  0  0  0999 V2000
   11.6447  -16.7481   19.9326 N   0  0  0  0  0  0  0  0  0  0  0  0
   10.9332  -17.3718   21.0039 C   0  0  1  0  0  0  0  0  0  0  0  0
   11.8077  -18.4605   21.5946 C   0  0  0  0  0  0  0  0  0  0  0  0
   10.9277  -19.2512   22.9949 S   0  0  0  0  0  0  0  0  0  0  0  0
   10.5276  -16.3858   22.0096 C   0  0  0  0  0  0  0  0  0  0  0  0
   11.3727  -15.5146   22.4061 O   0  0  0  0  0  0  0  0  0  0  0  0
    9.2304  -16.3325   22.5854 N   0  0  0  0  0  0  0  0  0  0  0  0
    8.9226  -15.4159   23.6460 C   0  0  1  0  0  0  0  0  0  0  0  0
    7.4465  -15.0697   23.6989 C   0  0  0  0  0  0  0  0  0  0  0  0
    7.1345  -14.0036   24.6379 C   0  0  0  0  0  0  0  0  0  0  0  0
    7.6125  -12.7246   24.4711 C   0  0  0  0  0  0  0  0  0  0  0  0
    7.3002  -11.7126   25.3869 C   0  0  0  0  0  0  0  0  0  0  0  0
    6.5033  -11.9883   26.4756 C   0  0  0  0  0  0  0  0  0  0  0  0
    6.0261  -13.2529   26.6475 C   0  0  0  0  0  0  0  0  0  0  0  0
    6.3416  -14.2502   25.7334 C   0  0  0  0  0  0  0  0  0  0  0  0
    9.2707  -15.9579   24.9843 C   0  0  0  0  0  0  0  0  0  0  0  0
    9.1809  -17.1965   25.1568 O   0  0  0  0  0  0  0  0  0  0  0  0
    9.4519  -13.9960   28.8365 C   0  0  0  0  0  0  0  0  0  0  0  0
   10.6853  -14.6134   28.2471 C   0  0  2  0  0  0  0  0  0  0  0  0
   11.5418  -13.6151   27.5304 C   0  0  0  0  0  0  0  0  0  0  0  0
   10.2666  -15.7062   27.2901 C   0  0  2  0  0  0  0  0  0  0  0  0
    9.6962  -15.1541   26.0685 N   0  0  0  0  0  0  0  0  0  0  0  0
    9.2680  -16.6207   27.9009 C   0  0  0  0  0  0  0  0  0  0  0  0
    8.0655  -16.6174   27.5282 O   0  0  0  0  0  0  0  0  0  0  0  0
    9.5978  -17.5228   28.9072 O   0  0  0  0  0  0  0  0  0  0  0  0
  2  5  1  0
  2  1  1  6
  3  2  1  0
  4  3  1  0
  5  6  2  0
  7  5  1  0
  7  8  1  0
  8  9  1  1
  9 10  1  0
 10 15  2  0
 11 12  2  0
 11 10  1  0
 12 13  1  0
 13 14  2  0
 15 14  1  0
 16 17  2  0
 16  8  1  0
 19 18  1  6
 19 21  1  0
 20 19  1  0
 21 22  1  6
 22 16  1  0
 23 25  1  0
 23 21  1  0
 24 23  2  0
M  END
$$$$
