CFV.pdb
     RDKit          3D

 25 25  0  0  1  0  0  0  0  0999 V2000
   10.1731  -17.2220   19.4377 N   0  0  0  0  0  0  0  0  0  0  0  0
   10.0105  -17.7459   20.7576 C   0  0  1  0  0  0  0  0  0  0  0  0
   11.2215  -18.5946   21.0924 C   0  0  0  0  0  0  0  0  0  0  0  0
   10.9484  -19.4323   22.6999 S   0  0  0  0  0  0  0  0  0  0  0  0
    9.8087  -16.6677   21.7296 C   0  0  0  0  0  0  0  0  0  0  0  0
   10.5895  -15.6575   21.7126 O   0  0  0  0  0  0  0  0  0  0  0  0
    8.7814  -16.6703   22.7103 N   0  0  0  0  0  0  0  0  0  0  0  0
    8.6559  -15.6030   23.6615 C   0  0  1  0  0  0  0  0  0  0  0  0
    7.2585  -15.5115   24.2448 C   0  0  0  0  0  0  0  0  0  0  0  0
    6.9848  -14.2408   24.8975 C   0  0  0  0  0  0  0  0  0  0  0  0
    6.1915  -14.1547   26.0180 C   0  0  0  0  0  0  0  0  0  0  0  0
    5.9405  -12.9213   26.6311 C   0  0  0  0  0  0  0  0  0  0  0  0
    6.4899  -11.7690   26.1148 C   0  0  0  0  0  0  0  0  0  0  0  0
    7.2767  -11.8463   25.0052 C   0  0  0  0  0  0  0  0  0  0  0  0
    7.5199  -13.0748   24.4040 C   0  0  0  0  0  0  0  0  0  0  0  0
    9.5785  -15.7584   24.8150 C   0  0  0  0  0  0  0  0  0  0  0  0
   10.7956  -15.9368   24.5725 O   0  0  0  0  0  0  0  0  0  0  0  0
    9.9777  -13.2195   27.4800 C   0  0  0  0  0  0  0  0  0  0  0  0
    9.7595  -14.5089   28.2147 C   0  0  2  0  0  0  0  0  0  0  0  0
   10.5910  -14.6109   29.4564 C   0  0  0  0  0  0  0  0  0  0  0  0
   10.0887  -15.6545   27.2849 C   0  0  2  0  0  0  0  0  0  0  0  0
    9.1583  -15.7158   26.1656 N   0  0  0  0  0  0  0  0  0  0  0  0
   10.0593  -16.9619   27.9896 C   0  0  0  0  0  0  0  0  0  0  0  0
    9.0639  -17.7277   27.9040 O   0  0  0  0  0  0  0  0  0  0  0  0
   11.1158  -17.4114   28.7751 O   0  0  0  0  0  0  0  0  0  0  0  0
  2  5  1  0
  2  1  1  6
  3  2  1  0
  4  3  1  0
  5  6  2  0
  7  5  1  0
  7  8  1  0
  8  9  1  1
  9 10  1  0
 10 15  2  0
 11 12  2  0
 11 10  1  0
 12 13  1  0
 13 14  2  0
 15 14  1  0
 16 17  2  0
 16  8  1  0
 19 18  1  6
 19 21  1  0
 20 19  1  0
 21 22  1  6
 22 16  1  0
 23 25  1  0
 23 21  1  0
 24 23  2  0
M  END
$$$$
