CFV.pdb
     RDKit          3D

 25 25  0  0  1  0  0  0  0  0999 V2000
    8.7229  -15.0343   19.7582 N   0  0  0  0  0  0  0  0  0  0  0  0
    8.1360  -15.9837   20.6510 C   0  0  1  0  0  0  0  0  0  0  0  0
    8.4974  -17.3781   20.1781 C   0  0  0  0  0  0  0  0  0  0  0  0
    7.8148  -18.6112   21.3503 S   0  0  0  0  0  0  0  0  0  0  0  0
    8.5657  -15.7423   22.0313 C   0  0  0  0  0  0  0  0  0  0  0  0
    9.7496  -15.3176   22.2514 O   0  0  0  0  0  0  0  0  0  0  0  0
    7.7367  -15.9533   23.1650 N   0  0  0  0  0  0  0  0  0  0  0  0
    8.2273  -15.7419   24.4971 C   0  0  1  0  0  0  0  0  0  0  0  0
    7.1134  -15.4342   25.4800 C   0  0  0  0  0  0  0  0  0  0  0  0
    7.0197  -14.0248   25.8272 C   0  0  0  0  0  0  0  0  0  0  0  0
    5.8252  -13.3438   25.7870 C   0  0  0  0  0  0  0  0  0  0  0  0
    5.7567  -11.9870   26.1252 C   0  0  0  0  0  0  0  0  0  0  0  0
    6.8949  -11.3117   26.5056 C   0  0  0  0  0  0  0  0  0  0  0  0
    8.0818  -11.9795   26.5478 C   0  0  0  0  0  0  0  0  0  0  0  0
    8.1396  -13.3259   26.2104 C   0  0  0  0  0  0  0  0  0  0  0  0
    8.9404  -16.9285   25.0350 C   0  0  0  0  0  0  0  0  0  0  0  0
    8.3380  -18.0281   25.0270 O   0  0  0  0  0  0  0  0  0  0  0  0
   12.5872  -17.7936   24.1853 C   0  0  0  0  0  0  0  0  0  0  0  0
   12.4454  -17.9845   25.6663 C   0  0  2  0  0  0  0  0  0  0  0  0
   13.1473  -19.2134   26.1574 C   0  0  0  0  0  0  0  0  0  0  0  0
   10.9739  -18.0691   26.0022 C   0  0  2  0  0  0  0  0  0  0  0  0
   10.2565  -16.8834   25.5530 N   0  0  0  0  0  0  0  0  0  0  0  0
   10.7502  -18.2260   27.4623 C   0  0  0  0  0  0  0  0  0  0  0  0
   10.3945  -17.2525   28.1768 O   0  0  0  0  0  0  0  0  0  0  0  0
   10.9182  -19.4415   28.1178 O   0  0  0  0  0  0  0  0  0  0  0  0
  2  5  1  0
  2  1  1  6
  3  2  1  0
  4  3  1  0
  5  6  2  0
  7  5  1  0
  7  8  1  0
  8  9  1  1
  9 10  1  0
 10 15  2  0
 11 12  2  0
 11 10  1  0
 12 13  1  0
 13 14  2  0
 15 14  1  0
 16 17  2  0
 16  8  1  0
 19 18  1  6
 19 21  1  0
 20 19  1  0
 21 22  1  1
 22 16  1  0
 23 25  1  0
 23 21  1  0
 24 23  2  0
M  END
$$$$
