CFV.pdb
     RDKit          3D

 25 25  0  0  1  0  0  0  0  0999 V2000
    7.5617  -14.1919   19.4598 N   0  0  0  0  0  0  0  0  0  0  0  0
    7.1302  -15.2085   20.3672 C   0  0  1  0  0  0  0  0  0  0  0  0
    7.2881  -16.5568   19.6918 C   0  0  0  0  0  0  0  0  0  0  0  0
    6.6915  -17.8729   20.8197 S   0  0  0  0  0  0  0  0  0  0  0  0
    7.8717  -15.1354   21.6294 C   0  0  0  0  0  0  0  0  0  0  0  0
    9.0905  -14.7547   21.6163 O   0  0  0  0  0  0  0  0  0  0  0  0
    7.3146  -15.4663   22.8931 N   0  0  0  0  0  0  0  0  0  0  0  0
    8.0933  -15.3837   24.0959 C   0  0  1  0  0  0  0  0  0  0  0  0
    7.2281  -15.2577   25.3357 C   0  0  0  0  0  0  0  0  0  0  0  0
    7.0631  -13.8859   25.7904 C   0  0  0  0  0  0  0  0  0  0  0  0
    6.2181  -13.0059   25.1549 C   0  0  0  0  0  0  0  0  0  0  0  0
    6.0737  -11.6893   25.6088 C   0  0  0  0  0  0  0  0  0  0  0  0
    6.7825  -11.2558   26.7070 C   0  0  0  0  0  0  0  0  0  0  0  0
    7.6214  -12.1218   27.3416 C   0  0  0  0  0  0  0  0  0  0  0  0
    7.7579  -13.4262   26.8837 C   0  0  0  0  0  0  0  0  0  0  0  0
    8.9461  -16.5818   24.3041 C   0  0  0  0  0  0  0  0  0  0  0  0
    8.4133  -17.7098   24.1784 O   0  0  0  0  0  0  0  0  0  0  0  0
   12.5091  -16.9520   22.8582 C   0  0  0  0  0  0  0  0  0  0  0  0
   12.5713  -17.4254   24.2801 C   0  0  2  0  0  0  0  0  0  0  0  0
   13.4076  -18.6579   24.4398 C   0  0  0  0  0  0  0  0  0  0  0  0
   11.1636  -17.6989   24.7586 C   0  0  2  0  0  0  0  0  0  0  0  0
   10.3204  -16.5172   24.6349 N   0  0  0  0  0  0  0  0  0  0  0  0
   11.1399  -18.1441   26.1756 C   0  0  0  0  0  0  0  0  0  0  0  0
   10.9078  -17.3341   27.1108 O   0  0  0  0  0  0  0  0  0  0  0  0
   11.3697  -19.4646   26.5480 O   0  0  0  0  0  0  0  0  0  0  0  0
  2  5  1  0
  2  1  1  6
  3  2  1  0
  4  3  1  0
  5  6  2  0
  7  5  1  0
  7  8  1  0
  8  9  1  1
  9 10  1  0
 10 15  2  0
 11 12  2  0
 11 10  1  0
 12 13  1  0
 13 14  2  0
 15 14  1  0
 16 17  2  0
 16  8  1  0
 19 18  1  6
 19 21  1  0
 20 19  1  0
 21 22  1  1
 22 16  1  0
 23 25  1  0
 23 21  1  0
 24 23  2  0
M  END
$$$$
