CFV.pdb
     RDKit          3D

 25 25  0  0  1  0  0  0  0  0999 V2000
    9.4162  -16.8596   18.6975 N   0  0  0  0  0  0  0  0  0  0  0  0
    8.4116  -17.1157   19.6814 C   0  0  1  0  0  0  0  0  0  0  0  0
    8.3566  -18.6091   19.9375 C   0  0  0  0  0  0  0  0  0  0  0  0
   10.0068  -19.1912   20.4837 S   0  0  0  0  0  0  0  0  0  0  0  0
    8.6718  -16.3565   20.9078 C   0  0  0  0  0  0  0  0  0  0  0  0
    9.8662  -15.9931   21.1756 O   0  0  0  0  0  0  0  0  0  0  0  0
    7.6637  -15.9898   21.8387 N   0  0  0  0  0  0  0  0  0  0  0  0
    7.9822  -15.2641   23.0352 C   0  0  1  0  0  0  0  0  0  0  0  0
    6.7691  -14.5769   23.6332 C   0  0  0  0  0  0  0  0  0  0  0  0
    7.0577  -13.8603   24.8657 C   0  0  0  0  0  0  0  0  0  0  0  0
    7.7321  -12.6615   24.8690 C   0  0  0  0  0  0  0  0  0  0  0  0
    7.9998  -11.9878   26.0668 C   0  0  0  0  0  0  0  0  0  0  0  0
    7.5872  -12.5223   27.2669 C   0  0  0  0  0  0  0  0  0  0  0  0
    6.9186  -13.7095   27.2715 C   0  0  0  0  0  0  0  0  0  0  0  0
    6.6577  -14.3704   26.0778 C   0  0  0  0  0  0  0  0  0  0  0  0
    8.5316  -16.1398   24.1016 C   0  0  0  0  0  0  0  0  0  0  0  0
    7.9312  -17.2129   24.3465 O   0  0  0  0  0  0  0  0  0  0  0  0
   11.9534  -17.3381   23.8126 C   0  0  0  0  0  0  0  0  0  0  0  0
   11.8711  -16.8829   25.2394 C   0  0  2  0  0  0  0  0  0  0  0  0
   12.6117  -17.7881   26.1753 C   0  0  0  0  0  0  0  0  0  0  0  0
   10.4150  -16.8159   25.6402 C   0  0  2  0  0  0  0  0  0  0  0  0
    9.6907  -15.8283   24.8513 N   0  0  0  0  0  0  0  0  0  0  0  0
   10.2542  -16.4758   27.0773 C   0  0  0  0  0  0  0  0  0  0  0  0
   10.1464  -15.2806   27.4574 O   0  0  0  0  0  0  0  0  0  0  0  0
   10.2137  -17.4448   28.0746 O   0  0  0  0  0  0  0  0  0  0  0  0
  2  5  1  0
  2  1  1  6
  3  2  1  0
  4  3  1  0
  5  6  2  0
  7  5  1  0
  7  8  1  0
  8  9  1  1
  9 10  1  0
 10 15  2  0
 11 12  2  0
 11 10  1  0
 12 13  1  0
 13 14  2  0
 15 14  1  0
 16 17  2  0
 16  8  1  0
 19 18  1  6
 19 21  1  0
 20 19  1  0
 21 22  1  6
 22 16  1  0
 23 25  1  0
 23 21  1  0
 24 23  2  0
M  END
$$$$
