CFV.pdb
     RDKit          3D

 25 25  0  0  1  0  0  0  0  0999 V2000
   11.5190  -16.2708   19.7928 N   0  0  0  0  0  0  0  0  0  0  0  0
   10.9227  -17.0155   20.8570 C   0  0  1  0  0  0  0  0  0  0  0  0
   11.9081  -18.0714   21.3183 C   0  0  0  0  0  0  0  0  0  0  0  0
   11.0963  -19.1616   22.5483 S   0  0  0  0  0  0  0  0  0  0  0  0
   10.5117  -16.1312   21.9512 C   0  0  0  0  0  0  0  0  0  0  0  0
   11.2972  -15.1979   22.3283 O   0  0  0  0  0  0  0  0  0  0  0  0
    9.2722  -16.2445   22.6353 N   0  0  0  0  0  0  0  0  0  0  0  0
    8.9493  -15.3872   23.7401 C   0  0  1  0  0  0  0  0  0  0  0  0
    7.4720  -15.0461   23.7930 C   0  0  0  0  0  0  0  0  0  0  0  0
    7.1484  -14.0217   24.7736 C   0  0  0  0  0  0  0  0  0  0  0  0
    7.5037  -12.7049   24.5941 C   0  0  0  0  0  0  0  0  0  0  0  0
    7.1825  -11.7343   25.5505 C   0  0  0  0  0  0  0  0  0  0  0  0
    6.5007  -12.0896   26.6930 C   0  0  0  0  0  0  0  0  0  0  0  0
    6.1454  -13.3918   26.8778 C   0  0  0  0  0  0  0  0  0  0  0  0
    6.4687  -14.3477   25.9230 C   0  0  0  0  0  0  0  0  0  0  0  0
    9.2815  -16.0007   25.0513 C   0  0  0  0  0  0  0  0  0  0  0  0
    9.1688  -17.2445   25.1621 O   0  0  0  0  0  0  0  0  0  0  0  0
    9.3675  -14.3798   29.0070 C   0  0  0  0  0  0  0  0  0  0  0  0
   10.6580  -14.8485   28.4029 C   0  0  2  0  0  0  0  0  0  0  0  0
   11.4551  -13.7280   27.8088 C   0  0  0  0  0  0  0  0  0  0  0  0
   10.3461  -15.8737   27.3365 C   0  0  2  0  0  0  0  0  0  0  0  0
    9.7160  -15.2592   26.1755 N   0  0  0  0  0  0  0  0  0  0  0  0
    9.4482  -16.9422   27.8452 C   0  0  0  0  0  0  0  0  0  0  0  0
    8.2462  -17.0148   27.4782 O   0  0  0  0  0  0  0  0  0  0  0  0
    9.8766  -17.9128   28.7450 O   0  0  0  0  0  0  0  0  0  0  0  0
  2  5  1  0
  2  1  1  6
  3  2  1  0
  4  3  1  0
  5  6  2  0
  7  5  1  0
  7  8  1  0
  8  9  1  1
  9 10  1  0
 10 15  2  0
 11 12  2  0
 11 10  1  0
 12 13  1  0
 13 14  2  0
 15 14  1  0
 16 17  2  0
 16  8  1  0
 19 18  1  6
 19 21  1  0
 20 19  1  0
 21 22  1  6
 22 16  1  0
 23 25  1  0
 23 21  1  0
 24 23  2  0
M  END
$$$$
