CFV.pdb
     RDKit          3D

 25 25  0  0  1  0  0  0  0  0999 V2000
   11.4818  -16.3671   19.8860 N   0  0  0  0  0  0  0  0  0  0  0  0
   10.7150  -17.0991   20.8447 C   0  0  1  0  0  0  0  0  0  0  0  0
   11.5061  -18.3232   21.2623 C   0  0  0  0  0  0  0  0  0  0  0  0
   10.5332  -19.2867   22.4811 S   0  0  0  0  0  0  0  0  0  0  0  0
   10.3619  -16.2553   21.9899 C   0  0  0  0  0  0  0  0  0  0  0  0
   11.2420  -15.4733   22.4841 O   0  0  0  0  0  0  0  0  0  0  0  0
    9.0796  -16.2483   22.6004 N   0  0  0  0  0  0  0  0  0  0  0  0
    8.7583  -15.3232   23.6495 C   0  0  1  0  0  0  0  0  0  0  0  0
    7.2816  -14.9773   23.6814 C   0  0  0  0  0  0  0  0  0  0  0  0
    6.9467  -13.9547   24.6602 C   0  0  0  0  0  0  0  0  0  0  0  0
    7.3274  -12.6426   24.5003 C   0  0  0  0  0  0  0  0  0  0  0  0
    6.9948  -11.6737   25.4546 C   0  0  0  0  0  0  0  0  0  0  0  0
    6.2758  -12.0260   26.5750 C   0  0  0  0  0  0  0  0  0  0  0  0
    5.8952  -13.3238   26.7402 C   0  0  0  0  0  0  0  0  0  0  0  0
    6.2300  -14.2780   25.7877 C   0  0  0  0  0  0  0  0  0  0  0  0
    9.0901  -15.8539   24.9964 C   0  0  0  0  0  0  0  0  0  0  0  0
    9.0745  -17.0973   25.1570 O   0  0  0  0  0  0  0  0  0  0  0  0
   11.3914  -14.9177   29.2924 C   0  0  0  0  0  0  0  0  0  0  0  0
   10.5767  -14.3669   28.1598 C   0  0  2  0  0  0  0  0  0  0  0  0
    9.3215  -13.6962   28.6275 C   0  0  0  0  0  0  0  0  0  0  0  0
   10.2300  -15.4995   27.2206 C   0  0  2  0  0  0  0  0  0  0  0  0
    9.4213  -15.0345   26.1016 N   0  0  0  0  0  0  0  0  0  0  0  0
    9.4888  -16.5837   27.9147 C   0  0  0  0  0  0  0  0  0  0  0  0
   10.0447  -17.2989   28.7889 O   0  0  0  0  0  0  0  0  0  0  0  0
    8.1545  -16.8691   27.6435 O   0  0  0  0  0  0  0  0  0  0  0  0
  2  5  1  0
  2  1  1  6
  3  2  1  0
  4  3  1  0
  5  6  2  0
  7  5  1  0
  7  8  1  0
  8  9  1  1
  9 10  1  0
 10 15  2  0
 11 12  2  0
 11 10  1  0
 12 13  1  0
 13 14  2  0
 15 14  1  0
 16 17  2  0
 16  8  1  0
 19 18  1  1
 19 21  1  0
 20 19  1  0
 21 22  1  6
 22 16  1  0
 23 25  1  0
 23 21  1  0
 24 23  2  0
M  END
$$$$
