CFV.pdb
     RDKit          3D

 25 25  0  0  1  0  0  0  0  0999 V2000
    8.4449  -17.2529   19.5108 N   0  0  0  0  0  0  0  0  0  0  0  0
    7.8518  -17.6807   20.7389 C   0  0  1  0  0  0  0  0  0  0  0  0
    8.2954  -19.1031   21.0192 C   0  0  0  0  0  0  0  0  0  0  0  0
    7.0033  -20.2663   20.4379 S   0  0  0  0  0  0  0  0  0  0  0  0
    8.1977  -16.7705   21.8344 C   0  0  0  0  0  0  0  0  0  0  0  0
    9.3526  -16.2262   21.8528 O   0  0  0  0  0  0  0  0  0  0  0  0
    7.3165  -16.4460   22.8999 N   0  0  0  0  0  0  0  0  0  0  0  0
    7.7340  -15.5997   23.9812 C   0  0  1  0  0  0  0  0  0  0  0  0
    6.5603  -15.0510   24.7704 C   0  0  0  0  0  0  0  0  0  0  0  0
    6.9466  -14.0871   25.7890 C   0  0  0  0  0  0  0  0  0  0  0  0
    7.1580  -14.4566   27.0970 C   0  0  0  0  0  0  0  0  0  0  0  0
    7.5294  -13.5130   28.0622 C   0  0  0  0  0  0  0  0  0  0  0  0
    7.6890  -12.1912   27.7102 C   0  0  0  0  0  0  0  0  0  0  0  0
    7.4814  -11.8176   26.4165 C   0  0  0  0  0  0  0  0  0  0  0  0
    7.1131  -12.7614   25.4660 C   0  0  0  0  0  0  0  0  0  0  0  0
    8.5964  -16.3110   24.9591 C   0  0  0  0  0  0  0  0  0  0  0  0
    8.1785  -17.3955   25.4295 O   0  0  0  0  0  0  0  0  0  0  0  0
   12.2580  -16.6636   24.0363 C   0  0  0  0  0  0  0  0  0  0  0  0
   12.2408  -16.3987   25.5126 C   0  0  2  0  0  0  0  0  0  0  0  0
   13.2372  -17.2327   26.2580 C   0  0  0  0  0  0  0  0  0  0  0  0
   10.8500  -16.6771   26.0356 C   0  0  2  0  0  0  0  0  0  0  0  0
    9.8578  -15.8316   25.3853 N   0  0  0  0  0  0  0  0  0  0  0  0
   10.7595  -16.4610   27.5025 C   0  0  0  0  0  0  0  0  0  0  0  0
   11.3345  -17.2336   28.3131 O   0  0  0  0  0  0  0  0  0  0  0  0
   10.0436  -15.4065   28.0598 O   0  0  0  0  0  0  0  0  0  0  0  0
  2  5  1  0
  2  1  1  6
  3  2  1  0
  4  3  1  0
  5  6  2  0
  7  5  1  0
  7  8  1  0
  8  9  1  1
  9 10  1  0
 10 15  2  0
 11 12  2  0
 11 10  1  0
 12 13  1  0
 13 14  2  0
 15 14  1  0
 16 17  2  0
 16  8  1  0
 19 18  1  6
 19 21  1  0
 20 19  1  0
 21 22  1  6
 22 16  1  0
 23 25  1  0
 23 21  1  0
 24 23  2  0
M  END
$$$$
