CFV.pdb
     RDKit          3D

 25 25  0  0  1  0  0  0  0  0999 V2000
   11.9655  -16.7634   20.3631 N   0  0  0  0  0  0  0  0  0  0  0  0
   10.6636  -17.0651   20.8701 C   0  0  1  0  0  0  0  0  0  0  0  0
   10.6184  -18.5348   21.2397 C   0  0  0  0  0  0  0  0  0  0  0  0
   11.6312  -18.8131   22.7421 S   0  0  0  0  0  0  0  0  0  0  0  0
   10.3292  -16.2016   22.0063 C   0  0  0  0  0  0  0  0  0  0  0  0
   11.2052  -15.3847   22.4487 O   0  0  0  0  0  0  0  0  0  0  0  0
    9.0698  -16.2121   22.6626 N   0  0  0  0  0  0  0  0  0  0  0  0
    8.7844  -15.3113   23.7428 C   0  0  1  0  0  0  0  0  0  0  0  0
    7.2984  -15.0476   23.8967 C   0  0  0  0  0  0  0  0  0  0  0  0
    6.9904  -14.0251   24.8843 C   0  0  0  0  0  0  0  0  0  0  0  0
    7.4285  -12.7281   24.7492 C   0  0  0  0  0  0  0  0  0  0  0  0
    7.1208  -11.7589   25.7116 C   0  0  0  0  0  0  0  0  0  0  0  0
    6.3689  -12.0957   26.8150 C   0  0  0  0  0  0  0  0  0  0  0  0
    5.9314  -13.3783   26.9557 C   0  0  0  0  0  0  0  0  0  0  0  0
    6.2419  -14.3329   25.9954 C   0  0  0  0  0  0  0  0  0  0  0  0
    9.2526  -15.8295   25.0536 C   0  0  0  0  0  0  0  0  0  0  0  0
    9.2947  -17.0726   25.2116 O   0  0  0  0  0  0  0  0  0  0  0  0
   10.8520  -13.2224   27.9560 C   0  0  0  0  0  0  0  0  0  0  0  0
   10.2215  -14.4875   28.4577 C   0  0  2  0  0  0  0  0  0  0  0  0
   10.9111  -15.0316   29.6711 C   0  0  0  0  0  0  0  0  0  0  0  0
   10.2545  -15.5146   27.3490 C   0  0  2  0  0  0  0  0  0  0  0  0
    9.6515  -14.9985   26.1273 N   0  0  0  0  0  0  0  0  0  0  0  0
    9.5430  -16.7613   27.7313 C   0  0  0  0  0  0  0  0  0  0  0  0
   10.1135  -17.6582   28.4056 O   0  0  0  0  0  0  0  0  0  0  0  0
    8.2220  -17.0081   27.3718 O   0  0  0  0  0  0  0  0  0  0  0  0
  2  5  1  0
  2  1  1  1
  3  2  1  0
  4  3  1  0
  5  6  2  0
  7  5  1  0
  7  8  1  0
  8  9  1  1
  9 10  1  0
 10 15  2  0
 11 12  2  0
 11 10  1  0
 12 13  1  0
 13 14  2  0
 15 14  1  0
 16 17  2  0
 16  8  1  0
 19 18  1  6
 19 21  1  0
 20 19  1  0
 21 22  1  6
 22 16  1  0
 23 25  1  0
 23 21  1  0
 24 23  2  0
M  END
$$$$
