CFV.pdb
     RDKit          3D

 25 25  0  0  1  0  0  0  0  0999 V2000
   12.0013  -16.7627   20.2301 N   0  0  0  0  0  0  0  0  0  0  0  0
   10.7587  -17.1343   20.8306 C   0  0  1  0  0  0  0  0  0  0  0  0
   10.8741  -18.5589   21.3365 C   0  0  0  0  0  0  0  0  0  0  0  0
   11.8820  -18.5782   22.8675 S   0  0  0  0  0  0  0  0  0  0  0  0
   10.3907  -16.1996   21.8979 C   0  0  0  0  0  0  0  0  0  0  0  0
   11.2663  -15.3835   22.3424 O   0  0  0  0  0  0  0  0  0  0  0  0
    9.0984  -16.1389   22.4839 N   0  0  0  0  0  0  0  0  0  0  0  0
    8.7958  -15.1999   23.5263 C   0  0  1  0  0  0  0  0  0  0  0  0
    7.3255  -14.8275   23.5582 C   0  0  0  0  0  0  0  0  0  0  0  0
    6.9852  -13.9012   24.6268 C   0  0  0  0  0  0  0  0  0  0  0  0
    7.4621  -12.6112   24.6503 C   0  0  0  0  0  0  0  0  0  0  0  0
    7.1224  -11.7354   25.6884 C   0  0  0  0  0  0  0  0  0  0  0  0
    6.2991  -12.1590   26.7078 C   0  0  0  0  0  0  0  0  0  0  0  0
    5.8229  -13.4354   26.6914 C   0  0  0  0  0  0  0  0  0  0  0  0
    6.1656  -14.2970   25.6570 C   0  0  0  0  0  0  0  0  0  0  0  0
    9.1209  -15.7258   24.8767 C   0  0  0  0  0  0  0  0  0  0  0  0
    9.0615  -16.9657   25.0531 O   0  0  0  0  0  0  0  0  0  0  0  0
   11.1830  -14.9080   29.3171 C   0  0  0  0  0  0  0  0  0  0  0  0
   10.5832  -14.3049   28.0816 C   0  0  2  0  0  0  0  0  0  0  0  0
    9.4211  -13.4097   28.3848 C   0  0  0  0  0  0  0  0  0  0  0  0
   10.1400  -15.4233   27.1662 C   0  0  2  0  0  0  0  0  0  0  0  0
    9.4921  -14.9056   25.9684 N   0  0  0  0  0  0  0  0  0  0  0  0
    9.1975  -16.3498   27.8444 C   0  0  0  0  0  0  0  0  0  0  0  0
    7.9519  -16.2294   27.7082 O   0  0  0  0  0  0  0  0  0  0  0  0
    9.6297  -17.3913   28.6591 O   0  0  0  0  0  0  0  0  0  0  0  0
  2  5  1  0
  2  1  1  1
  3  2  1  0
  4  3  1  0
  5  6  2  0
  7  5  1  0
  7  8  1  0
  8  9  1  1
  9 10  1  0
 10 15  2  0
 11 12  2  0
 11 10  1  0
 12 13  1  0
 13 14  2  0
 15 14  1  0
 16 17  2  0
 16  8  1  0
 19 18  1  1
 19 21  1  0
 20 19  1  0
 21 22  1  6
 22 16  1  0
 23 25  1  0
 23 21  1  0
 24 23  2  0
M  END
$$$$
