CFV.pdb
     RDKit          3D

 25 25  0  0  1  0  0  0  0  0999 V2000
    4.7718  -20.2683   22.1227 N   0  0  0  0  0  0  0  0  0  0  0  0
    5.1511  -20.0438   23.4824 C   0  0  1  0  0  0  0  0  0  0  0  0
    6.0522  -21.1797   23.9258 C   0  0  0  0  0  0  0  0  0  0  0  0
    7.2646  -21.5440   22.6001 S   0  0  0  0  0  0  0  0  0  0  0  0
    5.7960  -18.7369   23.6390 C   0  0  0  0  0  0  0  0  0  0  0  0
    6.1402  -18.0819   22.5984 O   0  0  0  0  0  0  0  0  0  0  0  0
    6.0697  -18.1368   24.8967 N   0  0  0  0  0  0  0  0  0  0  0  0
    6.7285  -16.8650   24.9885 C   0  0  1  0  0  0  0  0  0  0  0  0
    6.5746  -16.2332   26.3591 C   0  0  0  0  0  0  0  0  0  0  0  0
    6.9592  -14.8310   26.3975 C   0  0  0  0  0  0  0  0  0  0  0  0
    8.2126  -14.4314   26.7994 C   0  0  0  0  0  0  0  0  0  0  0  0
    8.5627  -13.0762   26.8292 C   0  0  0  0  0  0  0  0  0  0  0  0
    7.6478  -12.1182   26.4529 C   0  0  0  0  0  0  0  0  0  0  0  0
    6.4043  -12.5063   26.0535 C   0  0  0  0  0  0  0  0  0  0  0  0
    6.0664  -13.8535   26.0274 C   0  0  0  0  0  0  0  0  0  0  0  0
    8.1891  -16.9623   24.7371 C   0  0  0  0  0  0  0  0  0  0  0  0
    8.8215  -17.8847   25.3039 O   0  0  0  0  0  0  0  0  0  0  0  0
   10.3756  -14.2039   22.2375 C   0  0  0  0  0  0  0  0  0  0  0  0
   10.5048  -15.6901   22.0810 C   0  0  2  0  0  0  0  0  0  0  0  0
    9.5557  -16.2458   21.0640 C   0  0  0  0  0  0  0  0  0  0  0  0
   10.2520  -16.3393   23.4226 C   0  0  2  0  0  0  0  0  0  0  0  0
    8.9002  -16.0736   23.8962 N   0  0  0  0  0  0  0  0  0  0  0  0
   11.2105  -15.8650   24.4536 C   0  0  0  0  0  0  0  0  0  0  0  0
   10.8301  -15.1568   25.4224 O   0  0  0  0  0  0  0  0  0  0  0  0
   12.5669  -16.1711   24.4102 O   0  0  0  0  0  0  0  0  0  0  0  0
  2  5  1  0
  2  1  1  6
  3  2  1  0
  4  3  1  0
  5  6  2  0
  7  5  1  0
  7  8  1  0
  8  9  1  1
  9 10  1  0
 10 15  2  0
 11 12  2  0
 11 10  1  0
 12 13  1  0
 13 14  2  0
 15 14  1  0
 16 17  2  0
 16  8  1  0
 19 18  1  1
 19 21  1  0
 20 19  1  0
 21 22  1  1
 22 16  1  0
 23 25  1  0
 23 21  1  0
 24 23  2  0
M  END
$$$$
