CFV.pdb
     RDKit          3D

 25 25  0  0  1  0  0  0  0  0999 V2000
   10.5229  -16.2920   19.3077 N   0  0  0  0  0  0  0  0  0  0  0  0
    9.7149  -16.9435   20.2903 C   0  0  1  0  0  0  0  0  0  0  0  0
   10.2451  -18.3489   20.4963 C   0  0  0  0  0  0  0  0  0  0  0  0
    9.2334  -19.1978   21.7676 S   0  0  0  0  0  0  0  0  0  0  0  0
    9.6871  -16.1774   21.5396 C   0  0  0  0  0  0  0  0  0  0  0  0
   10.7822  -15.7370   22.0263 O   0  0  0  0  0  0  0  0  0  0  0  0
    8.4990  -15.8856   22.2610 N   0  0  0  0  0  0  0  0  0  0  0  0
    8.5326  -15.1198   23.4743 C   0  0  1  0  0  0  0  0  0  0  0  0
    7.1939  -14.4795   23.7895 C   0  0  0  0  0  0  0  0  0  0  0  0
    7.2245  -13.6192   24.9619 C   0  0  0  0  0  0  0  0  0  0  0  0
    7.8061  -12.3729   24.9345 C   0  0  0  0  0  0  0  0  0  0  0  0
    7.8249  -11.5604   26.0745 C   0  0  0  0  0  0  0  0  0  0  0  0
    7.2560  -12.0034   27.2477 C   0  0  0  0  0  0  0  0  0  0  0  0
    6.6780  -13.2367   27.2826 C   0  0  0  0  0  0  0  0  0  0  0  0
    6.6644  -14.0355   26.1462 C   0  0  0  0  0  0  0  0  0  0  0  0
    8.8876  -15.9447   24.6572 C   0  0  0  0  0  0  0  0  0  0  0  0
    8.2600  -17.0153   24.8353 O   0  0  0  0  0  0  0  0  0  0  0  0
   12.1397  -17.2908   25.0402 C   0  0  0  0  0  0  0  0  0  0  0  0
   11.8983  -16.7333   26.4116 C   0  0  2  0  0  0  0  0  0  0  0  0
   12.4062  -17.6335   27.4958 C   0  0  0  0  0  0  0  0  0  0  0  0
   10.4132  -16.5117   26.5867 C   0  0  2  0  0  0  0  0  0  0  0  0
    9.8916  -15.5877   25.5884 N   0  0  0  0  0  0  0  0  0  0  0  0
   10.0912  -15.9752   27.9340 C   0  0  0  0  0  0  0  0  0  0  0  0
    9.9478  -14.7397   28.1278 O   0  0  0  0  0  0  0  0  0  0  0  0
    9.9313  -16.7953   29.0463 O   0  0  0  0  0  0  0  0  0  0  0  0
  2  5  1  0
  2  1  1  6
  3  2  1  0
  4  3  1  0
  5  6  2  0
  7  5  1  0
  7  8  1  0
  8  9  1  1
  9 10  1  0
 10 15  2  0
 11 12  2  0
 11 10  1  0
 12 13  1  0
 13 14  2  0
 15 14  1  0
 16 17  2  0
 16  8  1  0
 19 18  1  6
 19 21  1  0
 20 19  1  0
 21 22  1  6
 22 16  1  0
 23 25  1  0
 23 21  1  0
 24 23  2  0
M  END
$$$$
