ATH.pdb
     RDKit          3D

 23 23  0  0  1  0  0  0  0  0999 V2000
    7.8000  -12.1345   18.5936 C   0  0  0  0  0  0  0  0  0  0  0  0
    8.8564  -13.2417   18.6278 C   0  0  2  0  0  0  0  0  0  0  0  0
    8.3830  -14.2769   17.7339 N   0  0  0  0  0  0  0  0  0  0  0  0
    8.9325  -13.7925   19.9971 C   0  0  0  0  0  0  0  0  0  0  0  0
    9.3442  -13.0569   20.9236 O   0  0  0  0  0  0  0  0  0  0  0  0
    6.2288  -16.2339   21.7272 C   0  0  0  0  0  0  0  0  0  0  0  0
    7.6137  -16.7894   21.8356 C   0  0  1  0  0  0  0  0  0  0  0  0
    7.7504  -17.8081   20.9049 O   0  0  0  0  0  0  0  0  0  0  0  0
    8.6777  -15.7039   21.6228 C   0  0  2  0  0  0  0  0  0  0  0  0
    8.5593  -15.1247   20.3188 N   0  0  0  0  0  0  0  0  0  0  0  0
   10.0086  -16.3893   21.7962 C   0  0  0  0  0  0  0  0  0  0  0  0
   10.7693  -16.5940   20.8039 O   0  0  0  0  0  0  0  0  0  0  0  0
   10.4431  -16.8231   23.0773 N   0  0  0  0  0  0  0  0  0  0  0  0
   11.8454  -17.2135   23.3105 C   0  0  1  0  0  0  0  0  0  0  0  0
   12.6516  -15.9427   23.2082 C   0  0  0  0  0  0  0  0  0  0  0  0
   14.0803  -16.2071   23.3428 C   0  0  0  0  0  0  0  0  0  0  0  0
   14.7723  -17.2435   22.7786 C   0  0  0  0  0  0  0  0  0  0  0  0
   16.0681  -17.1659   23.1207 N   0  0  0  0  0  0  0  0  0  0  0  0
   16.1833  -16.0804   23.8985 C   0  0  0  0  0  0  0  0  0  0  0  0
   14.9733  -15.4865   24.0408 N   0  0  0  0  0  0  0  0  0  0  0  0
   11.9950  -17.7364   24.6945 C   0  0  0  0  0  0  0  0  0  0  0  0
   11.3227  -17.1482   25.7738 O   0  0  0  0  0  0  0  0  0  0  0  0
   12.7181  -18.7193   24.9852 O   0  0  0  0  0  0  0  0  0  0  0  0
  2  3  1  0
  2  1  1  1
  4  2  1  0
  5  4  2  0
  7  6  1  6
  7  9  1  0
  8  7  1  0
  9 11  1  0
  9 10  1  6
 10  4  1  0
 11 13  1  0
 12 11  2  0
 13 14  1  0
 14 15  1  1
 14 21  1  0
 16 15  1  0
 17 16  2  0
 18 17  1  0
 19 18  1  0
 19 20  2  0
 20 16  1  0
 21 23  2  0
 21 22  1  0
M  END
$$$$
