ATH.pdb
     RDKit          3D

 23 23  0  0  1  0  0  0  0  0999 V2000
    7.6512  -13.3425   18.2344 C   0  0  0  0  0  0  0  0  0  0  0  0
    8.3130  -14.6307   18.7301 C   0  0  2  0  0  0  0  0  0  0  0  0
    7.2526  -15.6091   18.8447 N   0  0  0  0  0  0  0  0  0  0  0  0
    8.8880  -14.3916   20.0703 C   0  0  0  0  0  0  0  0  0  0  0  0
    9.8725  -13.6247   20.1788 O   0  0  0  0  0  0  0  0  0  0  0  0
    7.1070  -13.3174   23.3950 C   0  0  0  0  0  0  0  0  0  0  0  0
    7.8320  -14.6096   23.6017 C   0  0  1  0  0  0  0  0  0  0  0  0
    6.9078  -15.6422   23.5535 O   0  0  0  0  0  0  0  0  0  0  0  0
    8.9377  -14.8123   22.5566 C   0  0  2  0  0  0  0  0  0  0  0  0
    8.3769  -14.9922   21.2517 N   0  0  0  0  0  0  0  0  0  0  0  0
    9.7023  -16.0347   22.9949 C   0  0  0  0  0  0  0  0  0  0  0  0
    9.3539  -17.1916   22.6134 O   0  0  0  0  0  0  0  0  0  0  0  0
   10.8332  -15.9199   23.8471 N   0  0  0  0  0  0  0  0  0  0  0  0
   11.5232  -17.1186   24.3572 C   0  0  1  0  0  0  0  0  0  0  0  0
   12.9766  -16.7363   24.4868 C   0  0  0  0  0  0  0  0  0  0  0  0
   13.6067  -16.5905   23.1788 C   0  0  0  0  0  0  0  0  0  0  0  0
   13.0806  -16.9733   21.9754 C   0  0  0  0  0  0  0  0  0  0  0  0
   13.9426  -16.6826   20.9882 N   0  0  0  0  0  0  0  0  0  0  0  0
   15.0063  -16.1184   21.5771 C   0  0  0  0  0  0  0  0  0  0  0  0
   14.8112  -16.0572   22.9169 N   0  0  0  0  0  0  0  0  0  0  0  0
   11.0166  -17.4462   25.7165 C   0  0  0  0  0  0  0  0  0  0  0  0
   11.4130  -18.6141   26.3813 O   0  0  0  0  0  0  0  0  0  0  0  0
   10.2165  -16.7155   26.3482 O   0  0  0  0  0  0  0  0  0  0  0  0
  2  3  1  0
  2  1  1  1
  4  2  1  0
  5  4  2  0
  7  6  1  6
  7  9  1  0
  8  7  1  0
  9 11  1  0
  9 10  1  6
 10  4  1  0
 11 13  1  0
 12 11  2  0
 13 14  1  0
 14 15  1  1
 14 21  1  0
 16 15  1  0
 17 16  2  0
 18 17  1  0
 19 18  1  0
 19 20  2  0
 20 16  1  0
 21 23  2  0
 21 22  1  0
M  END
$$$$
