ATH.pdb
     RDKit          3D

 23 23  0  0  1  0  0  0  0  0999 V2000
    7.6088  -11.1878   26.1643 C   0  0  0  0  0  0  0  0  0  0  0  0
    6.5208  -12.1374   25.6567 C   0  0  2  0  0  0  0  0  0  0  0  0
    5.5613  -12.2615   26.7332 N   0  0  0  0  0  0  0  0  0  0  0  0
    7.1210  -13.4629   25.3980 C   0  0  0  0  0  0  0  0  0  0  0  0
    7.3941  -14.2040   26.3702 O   0  0  0  0  0  0  0  0  0  0  0  0
    6.3843  -15.4249   21.8273 C   0  0  0  0  0  0  0  0  0  0  0  0
    7.7935  -15.5671   22.3091 C   0  0  1  0  0  0  0  0  0  0  0  0
    8.5999  -14.7267   21.5567 O   0  0  0  0  0  0  0  0  0  0  0  0
    7.9151  -15.2507   23.8061 C   0  0  2  0  0  0  0  0  0  0  0  0
    7.4062  -13.9434   24.0922 N   0  0  0  0  0  0  0  0  0  0  0  0
    9.3833  -15.3477   24.1316 C   0  0  0  0  0  0  0  0  0  0  0  0
   10.2012  -14.4740   23.7155 O   0  0  0  0  0  0  0  0  0  0  0  0
    9.8867  -16.4217   24.9134 N   0  0  0  0  0  0  0  0  0  0  0  0
   11.2939  -16.4460   25.3520 C   0  0  1  0  0  0  0  0  0  0  0  0
   11.2899  -17.0765   26.7224 C   0  0  0  0  0  0  0  0  0  0  0  0
   10.5925  -16.2378   27.6915 C   0  0  0  0  0  0  0  0  0  0  0  0
   10.1425  -14.9621   27.4881 C   0  0  0  0  0  0  0  0  0  0  0  0
    9.5492  -14.5052   28.6023 N   0  0  0  0  0  0  0  0  0  0  0  0
    9.6297  -15.4970   29.5002 C   0  0  0  0  0  0  0  0  0  0  0  0
   10.2661  -16.5615   28.9534 N   0  0  0  0  0  0  0  0  0  0  0  0
   12.0834  -17.3255   24.4494 C   0  0  0  0  0  0  0  0  0  0  0  0
   13.4761  -17.4270   24.5639 O   0  0  0  0  0  0  0  0  0  0  0  0
   11.5682  -18.0224   23.5426 O   0  0  0  0  0  0  0  0  0  0  0  0
  2  3  1  0
  2  1  1  1
  4  2  1  0
  5  4  2  0
  7  6  1  6
  7  9  1  0
  8  7  1  0
  9 11  1  0
  9 10  1  6
 10  4  1  0
 11 13  1  0
 12 11  2  0
 13 14  1  0
 14 15  1  1
 14 21  1  0
 16 15  1  0
 17 16  2  0
 18 17  1  0
 19 18  1  0
 19 20  2  0
 20 16  1  0
 21 23  2  0
 21 22  1  0
M  END
$$$$
