ATH.pdb
     RDKit          3D

 23 23  0  0  1  0  0  0  0  0999 V2000
    8.3868  -12.0821   19.5126 C   0  0  0  0  0  0  0  0  0  0  0  0
    8.7059  -13.4861   18.9927 C   0  0  2  0  0  0  0  0  0  0  0  0
    7.9143  -13.6602   17.7935 N   0  0  0  0  0  0  0  0  0  0  0  0
    8.2749  -14.4808   19.9970 C   0  0  0  0  0  0  0  0  0  0  0  0
    7.0935  -14.8966   19.9692 O   0  0  0  0  0  0  0  0  0  0  0  0
    8.9132  -17.8773   20.2796 C   0  0  0  0  0  0  0  0  0  0  0  0
    9.4214  -17.3489   21.5837 C   0  0  1  0  0  0  0  0  0  0  0  0
   10.7998  -17.2253   21.4983 O   0  0  0  0  0  0  0  0  0  0  0  0
    8.7702  -16.0064   21.9434 C   0  0  2  0  0  0  0  0  0  0  0  0
    9.1390  -14.9939   21.0007 N   0  0  0  0  0  0  0  0  0  0  0  0
    9.2596  -15.6668   23.3277 C   0  0  0  0  0  0  0  0  0  0  0  0
   10.4009  -15.1459   23.5049 O   0  0  0  0  0  0  0  0  0  0  0  0
    8.4527  -15.9226   24.4687 N   0  0  0  0  0  0  0  0  0  0  0  0
    8.9144  -15.5597   25.8208 C   0  0  1  0  0  0  0  0  0  0  0  0
    7.6667  -15.3391   26.6394 C   0  0  0  0  0  0  0  0  0  0  0  0
    7.1547  -13.9828   26.4732 C   0  0  0  0  0  0  0  0  0  0  0  0
    7.7930  -12.9425   25.8555 C   0  0  0  0  0  0  0  0  0  0  0  0
    7.0189  -11.8464   25.8926 N   0  0  0  0  0  0  0  0  0  0  0  0
    5.8976  -12.2043   26.5338 C   0  0  0  0  0  0  0  0  0  0  0  0
    5.9703  -13.5091   26.8933 N   0  0  0  0  0  0  0  0  0  0  0  0
    9.6546  -16.7021   26.4195 C   0  0  0  0  0  0  0  0  0  0  0  0
    9.7822  -17.9233   25.7447 O   0  0  0  0  0  0  0  0  0  0  0  0
   10.2041  -16.6526   27.5460 O   0  0  0  0  0  0  0  0  0  0  0  0
  2  3  1  0
  2  1  1  1
  4  2  1  0
  5  4  2  0
  7  6  1  6
  7  9  1  0
  8  7  1  0
  9 11  1  0
  9 10  1  6
 10  4  1  0
 11 13  1  0
 12 11  2  0
 13 14  1  0
 14 15  1  1
 14 21  1  0
 16 15  1  0
 17 16  2  0
 18 17  1  0
 19 18  1  0
 19 20  2  0
 20 16  1  0
 21 23  2  0
 21 22  1  0
M  END
$$$$
