ATH.pdb
     RDKit          3D

 23 23  0  0  1  0  0  0  0  0999 V2000
    9.7519  -16.9711   16.7244 C   0  0  0  0  0  0  0  0  0  0  0  0
    9.5064  -17.6792   18.0591 C   0  0  2  0  0  0  0  0  0  0  0  0
    8.1199  -18.0942   18.0449 N   0  0  0  0  0  0  0  0  0  0  0  0
    9.7036  -16.7132   19.1600 C   0  0  0  0  0  0  0  0  0  0  0  0
   10.8540  -16.2664   19.3746 O   0  0  0  0  0  0  0  0  0  0  0  0
    7.5095  -13.4796   20.0201 C   0  0  0  0  0  0  0  0  0  0  0  0
    7.5987  -14.4077   21.1902 C   0  0  1  0  0  0  0  0  0  0  0  0
    6.4181  -15.1309   21.2658 O   0  0  0  0  0  0  0  0  0  0  0  0
    8.8105  -15.3433   21.0801 C   0  0  2  0  0  0  0  0  0  0  0  0
    8.6464  -16.2619   19.9942 N   0  0  0  0  0  0  0  0  0  0  0  0
    8.8953  -16.0675   22.3989 C   0  0  0  0  0  0  0  0  0  0  0  0
    8.1266  -17.0409   22.6574 O   0  0  0  0  0  0  0  0  0  0  0  0
    9.8398  -15.6763   23.3854 N   0  0  0  0  0  0  0  0  0  0  0  0
    9.9719  -16.4253   24.6482 C   0  0  1  0  0  0  0  0  0  0  0  0
   11.4212  -16.8337   24.7380 C   0  0  0  0  0  0  0  0  0  0  0  0
   11.7639  -17.8081   23.7073 C   0  0  0  0  0  0  0  0  0  0  0  0
   12.4222  -17.5549   22.5353 C   0  0  0  0  0  0  0  0  0  0  0  0
   12.5608  -18.6922   21.8357 N   0  0  0  0  0  0  0  0  0  0  0  0
   11.9886  -19.6545   22.5725 C   0  0  0  0  0  0  0  0  0  0  0  0
   11.4979  -19.1245   23.7194 N   0  0  0  0  0  0  0  0  0  0  0  0
    9.6814  -15.5253   25.7958 C   0  0  0  0  0  0  0  0  0  0  0  0
    9.3817  -14.1703   25.6032 O   0  0  0  0  0  0  0  0  0  0  0  0
    9.6845  -15.9088   26.9901 O   0  0  0  0  0  0  0  0  0  0  0  0
  2  3  1  0
  2  1  1  6
  4  2  1  0
  5  4  2  0
  7  6  1  6
  7  9  1  0
  8  7  1  0
  9 11  1  0
  9 10  1  6
 10  4  1  0
 11 13  1  0
 12 11  2  0
 13 14  1  0
 14 15  1  1
 14 21  1  0
 16 15  1  0
 17 16  2  0
 18 17  1  0
 19 18  1  0
 19 20  2  0
 20 16  1  0
 21 23  2  0
 21 22  1  0
M  END
$$$$
