ATH.pdb
     RDKit          3D

 23 23  0  0  1  0  0  0  0  0999 V2000
    8.4512  -12.2668   18.8909 C   0  0  0  0  0  0  0  0  0  0  0  0
    8.7014  -13.6698   18.3321 C   0  0  2  0  0  0  0  0  0  0  0  0
    7.7983  -13.8232   17.2115 N   0  0  0  0  0  0  0  0  0  0  0  0
    8.3538  -14.6683   19.3646 C   0  0  0  0  0  0  0  0  0  0  0  0
    7.1584  -15.0227   19.4861 O   0  0  0  0  0  0  0  0  0  0  0  0
    8.9520  -18.1046   19.4765 C   0  0  0  0  0  0  0  0  0  0  0  0
    9.5958  -17.6247   20.7388 C   0  0  1  0  0  0  0  0  0  0  0  0
   10.9631  -17.5355   20.5260 O   0  0  0  0  0  0  0  0  0  0  0  0
    9.0205  -16.2753   21.1906 C   0  0  2  0  0  0  0  0  0  0  0  0
    9.3140  -15.2517   20.2336 N   0  0  0  0  0  0  0  0  0  0  0  0
    9.6611  -15.9772   22.5217 C   0  0  0  0  0  0  0  0  0  0  0  0
   10.7914  -15.4085   22.5872 O   0  0  0  0  0  0  0  0  0  0  0  0
    9.0128  -16.3268   23.7366 N   0  0  0  0  0  0  0  0  0  0  0  0
    9.6156  -15.9951   25.0404 C   0  0  1  0  0  0  0  0  0  0  0  0
    8.4783  -15.9820   26.0312 C   0  0  0  0  0  0  0  0  0  0  0  0
    7.5732  -14.8638   25.7870 C   0  0  0  0  0  0  0  0  0  0  0  0
    7.9047  -13.6529   25.2439 C   0  0  0  0  0  0  0  0  0  0  0  0
    6.8147  -12.8726   25.1709 N   0  0  0  0  0  0  0  0  0  0  0  0
    5.8037  -13.5980   25.6689 C   0  0  0  0  0  0  0  0  0  0  0  0
    6.2567  -14.8177   26.0487 N   0  0  0  0  0  0  0  0  0  0  0  0
   10.5575  -17.0727   25.4440 C   0  0  0  0  0  0  0  0  0  0  0  0
   11.4807  -16.8848   26.4811 O   0  0  0  0  0  0  0  0  0  0  0  0
   10.5901  -18.2004   24.8957 O   0  0  0  0  0  0  0  0  0  0  0  0
  2  3  1  0
  2  1  1  1
  4  2  1  0
  5  4  2  0
  7  6  1  6
  7  9  1  0
  8  7  1  0
  9 11  1  0
  9 10  1  6
 10  4  1  0
 11 13  1  0
 12 11  2  0
 13 14  1  0
 14 15  1  1
 14 21  1  0
 16 15  1  0
 17 16  2  0
 18 17  1  0
 19 18  1  0
 19 20  2  0
 20 16  1  0
 21 23  2  0
 21 22  1  0
M  END
$$$$
