ATH.pdb
     RDKit          3D

 23 23  0  0  1  0  0  0  0  0999 V2000
    8.3793  -12.2377   18.9717 C   0  0  0  0  0  0  0  0  0  0  0  0
    8.7027  -13.6392   18.4480 C   0  0  2  0  0  0  0  0  0  0  0  0
    7.8896  -13.8238   17.2649 N   0  0  0  0  0  0  0  0  0  0  0  0
    8.3021  -14.6365   19.4622 C   0  0  0  0  0  0  0  0  0  0  0  0
    7.1144  -15.0342   19.4843 O   0  0  0  0  0  0  0  0  0  0  0  0
    8.9597  -18.0561   19.6649 C   0  0  0  0  0  0  0  0  0  0  0  0
    9.5193  -17.5352   20.9508 C   0  0  1  0  0  0  0  0  0  0  0  0
   10.8909  -17.3928   20.8052 O   0  0  0  0  0  0  0  0  0  0  0  0
    8.8683  -16.2051   21.3544 C   0  0  2  0  0  0  0  0  0  0  0  0
    9.2026  -15.1718   20.4214 N   0  0  0  0  0  0  0  0  0  0  0  0
    9.3938  -15.8879   22.7307 C   0  0  0  0  0  0  0  0  0  0  0  0
   10.4671  -15.2317   22.8822 O   0  0  0  0  0  0  0  0  0  0  0  0
    8.6983  -16.3171   23.8928 N   0  0  0  0  0  0  0  0  0  0  0  0
    9.2595  -16.0949   25.2377 C   0  0  1  0  0  0  0  0  0  0  0  0
    8.0759  -15.9336   26.1589 C   0  0  0  0  0  0  0  0  0  0  0  0
    7.4058  -14.6552   25.9446 C   0  0  0  0  0  0  0  0  0  0  0  0
    7.9178  -13.5681   25.2911 C   0  0  0  0  0  0  0  0  0  0  0  0
    7.0175  -12.5722   25.2889 N   0  0  0  0  0  0  0  0  0  0  0  0
    5.9441  -13.0394   25.9415 C   0  0  0  0  0  0  0  0  0  0  0  0
    6.1710  -14.3127   26.3469 N   0  0  0  0  0  0  0  0  0  0  0  0
   10.0114  -17.3025   25.6712 C   0  0  0  0  0  0  0  0  0  0  0  0
   10.0919  -18.4423   24.8605 O   0  0  0  0  0  0  0  0  0  0  0  0
   10.6127  -17.3824   26.7691 O   0  0  0  0  0  0  0  0  0  0  0  0
  2  3  1  0
  2  1  1  1
  4  2  1  0
  5  4  2  0
  7  6  1  6
  7  9  1  0
  8  7  1  0
  9 11  1  0
  9 10  1  6
 10  4  1  0
 11 13  1  0
 12 11  2  0
 13 14  1  0
 14 15  1  1
 14 21  1  0
 16 15  1  0
 17 16  2  0
 18 17  1  0
 19 18  1  0
 19 20  2  0
 20 16  1  0
 21 23  2  0
 21 22  1  0
M  END
$$$$
