ATH.pdb
     RDKit          3D

 23 23  0  0  1  0  0  0  0  0999 V2000
    5.3678  -18.5949   22.4816 C   0  0  0  0  0  0  0  0  0  0  0  0
    5.2691  -17.9842   21.0814 C   0  0  2  0  0  0  0  0  0  0  0  0
    4.8920  -19.0659   20.1967 N   0  0  0  0  0  0  0  0  0  0  0  0
    6.5998  -17.4822   20.6802 C   0  0  0  0  0  0  0  0  0  0  0  0
    7.5455  -18.2960   20.5683 O   0  0  0  0  0  0  0  0  0  0  0  0
    7.2775  -13.2301   20.1932 C   0  0  0  0  0  0  0  0  0  0  0  0
    8.0702  -14.2355   19.4193 C   0  0  1  0  0  0  0  0  0  0  0  0
    9.3303  -13.7085   19.1798 O   0  0  0  0  0  0  0  0  0  0  0  0
    8.1667  -15.5748   20.1628 C   0  0  2  0  0  0  0  0  0  0  0  0
    6.8635  -16.1124   20.4126 N   0  0  0  0  0  0  0  0  0  0  0  0
    8.8918  -15.2816   21.4510 C   0  0  0  0  0  0  0  0  0  0  0  0
    8.3752  -14.5324   22.3325 O   0  0  0  0  0  0  0  0  0  0  0  0
   10.1731  -15.8384   21.7087 N   0  0  0  0  0  0  0  0  0  0  0  0
   10.8819  -15.5582   22.9705 C   0  0  1  0  0  0  0  0  0  0  0  0
   10.3851  -16.5818   23.9609 C   0  0  0  0  0  0  0  0  0  0  0  0
    9.0499  -16.2482   24.4457 C   0  0  0  0  0  0  0  0  0  0  0  0
    8.5273  -14.9924   24.5900 C   0  0  0  0  0  0  0  0  0  0  0  0
    7.2729  -15.0723   25.0614 N   0  0  0  0  0  0  0  0  0  0  0  0
    7.0141  -16.3789   25.2108 C   0  0  0  0  0  0  0  0  0  0  0  0
    8.0944  -17.1071   24.8370 N   0  0  0  0  0  0  0  0  0  0  0  0
   12.3408  -15.7775   22.7835 C   0  0  0  0  0  0  0  0  0  0  0  0
   13.2563  -15.5137   23.8108 O   0  0  0  0  0  0  0  0  0  0  0  0
   12.8421  -16.2046   21.7159 O   0  0  0  0  0  0  0  0  0  0  0  0
  2  3  1  0
  2  1  1  1
  4  2  1  0
  5  4  2  0
  7  6  1  1
  7  9  1  0
  8  7  1  0
  9 11  1  0
  9 10  1  1
 10  4  1  0
 11 13  1  0
 12 11  2  0
 13 14  1  0
 14 15  1  1
 14 21  1  0
 16 15  1  0
 17 16  2  0
 18 17  1  0
 19 18  1  0
 19 20  2  0
 20 16  1  0
 21 23  2  0
 21 22  1  0
M  END
$$$$
