ATH.pdb
     RDKit          3D

 23 23  0  0  1  0  0  0  0  0999 V2000
    8.3099  -12.1440   19.4004 C   0  0  0  0  0  0  0  0  0  0  0  0
    8.7630  -13.4272   18.6995 C   0  0  2  0  0  0  0  0  0  0  0  0
    7.9522  -13.5411   17.5060 N   0  0  0  0  0  0  0  0  0  0  0  0
    8.4817  -14.5812   19.5788 C   0  0  0  0  0  0  0  0  0  0  0  0
    7.3370  -15.0899   19.5626 O   0  0  0  0  0  0  0  0  0  0  0  0
    9.4537  -18.0067   19.5505 C   0  0  0  0  0  0  0  0  0  0  0  0
    9.9678  -17.4992   20.8606 C   0  0  1  0  0  0  0  0  0  0  0  0
   11.3210  -17.2293   20.7245 O   0  0  0  0  0  0  0  0  0  0  0  0
    9.2025  -16.2523   21.3248 C   0  0  2  0  0  0  0  0  0  0  0  0
    9.4511  -15.1478   20.4486 N   0  0  0  0  0  0  0  0  0  0  0  0
    9.6917  -15.9622   22.7204 C   0  0  0  0  0  0  0  0  0  0  0  0
   10.7338  -15.2678   22.9134 O   0  0  0  0  0  0  0  0  0  0  0  0
    8.9962  -16.4605   23.8545 N   0  0  0  0  0  0  0  0  0  0  0  0
    9.4520  -16.1482   25.2212 C   0  0  1  0  0  0  0  0  0  0  0  0
    8.2031  -16.0456   26.0610 C   0  0  0  0  0  0  0  0  0  0  0  0
    7.4962  -14.7937   25.8117 C   0  0  0  0  0  0  0  0  0  0  0  0
    8.0072  -13.6772   25.2090 C   0  0  0  0  0  0  0  0  0  0  0  0
    7.0676  -12.7201   25.1514 N   0  0  0  0  0  0  0  0  0  0  0  0
    5.9706  -13.2409   25.7186 C   0  0  0  0  0  0  0  0  0  0  0  0
    6.2218  -14.5089   26.1261 N   0  0  0  0  0  0  0  0  0  0  0  0
   10.2624  -17.2783   25.7481 C   0  0  0  0  0  0  0  0  0  0  0  0
   10.9513  -17.1779   26.9639 O   0  0  0  0  0  0  0  0  0  0  0  0
   10.3827  -18.3761   25.1533 O   0  0  0  0  0  0  0  0  0  0  0  0
  2  3  1  0
  2  1  1  1
  4  2  1  0
  5  4  2  0
  7  6  1  6
  7  9  1  0
  8  7  1  0
  9 11  1  0
  9 10  1  6
 10  4  1  0
 11 13  1  0
 12 11  2  0
 13 14  1  0
 14 15  1  1
 14 21  1  0
 16 15  1  0
 17 16  2  0
 18 17  1  0
 19 18  1  0
 19 20  2  0
 20 16  1  0
 21 23  2  0
 21 22  1  0
M  END
$$$$
