ATH.pdb
     RDKit          3D

 23 23  0  0  1  0  0  0  0  0999 V2000
    8.3715  -12.0654   19.5204 C   0  0  0  0  0  0  0  0  0  0  0  0
    8.7417  -13.4514   18.9866 C   0  0  2  0  0  0  0  0  0  0  0  0
    8.0375  -13.5999   17.7308 N   0  0  0  0  0  0  0  0  0  0  0  0
    8.2532  -14.4775   19.9313 C   0  0  0  0  0  0  0  0  0  0  0  0
    7.0542  -14.8350   19.8701 O   0  0  0  0  0  0  0  0  0  0  0  0
    8.6267  -17.9367   20.2174 C   0  0  0  0  0  0  0  0  0  0  0  0
    9.1595  -17.4471   21.5268 C   0  0  1  0  0  0  0  0  0  0  0  0
   10.5447  -17.4484   21.4634 O   0  0  0  0  0  0  0  0  0  0  0  0
    8.6261  -16.0490   21.8684 C   0  0  2  0  0  0  0  0  0  0  0  0
    9.0808  -15.0842   20.9134 N   0  0  0  0  0  0  0  0  0  0  0  0
    9.1425  -15.7350   23.2489 C   0  0  0  0  0  0  0  0  0  0  0  0
   10.2626  -15.1655   23.4108 O   0  0  0  0  0  0  0  0  0  0  0  0
    8.3855  -16.0702   24.4035 N   0  0  0  0  0  0  0  0  0  0  0  0
    8.8332  -15.6642   25.7480 C   0  0  1  0  0  0  0  0  0  0  0  0
    7.5771  -15.4330   26.5507 C   0  0  0  0  0  0  0  0  0  0  0  0
    7.0407  -14.0950   26.3251 C   0  0  0  0  0  0  0  0  0  0  0  0
    7.6568  -13.0741   25.6546 C   0  0  0  0  0  0  0  0  0  0  0  0
    6.8640  -11.9908   25.6462 N   0  0  0  0  0  0  0  0  0  0  0  0
    5.7535  -12.3371   26.3119 C   0  0  0  0  0  0  0  0  0  0  0  0
    5.8511  -13.6221   26.7315 N   0  0  0  0  0  0  0  0  0  0  0  0
    9.5801  -16.7815   26.3846 C   0  0  0  0  0  0  0  0  0  0  0  0
    9.7449  -18.0124   25.7360 O   0  0  0  0  0  0  0  0  0  0  0  0
   10.1031  -16.7010   27.5219 O   0  0  0  0  0  0  0  0  0  0  0  0
  2  3  1  0
  2  1  1  1
  4  2  1  0
  5  4  2  0
  7  6  1  6
  7  9  1  0
  8  7  1  0
  9 11  1  0
  9 10  1  6
 10  4  1  0
 11 13  1  0
 12 11  2  0
 13 14  1  0
 14 15  1  1
 14 21  1  0
 16 15  1  0
 17 16  2  0
 18 17  1  0
 19 18  1  0
 19 20  2  0
 20 16  1  0
 21 23  2  0
 21 22  1  0
M  END
$$$$
