ATH.pdb
     RDKit          3D

 23 23  0  0  1  0  0  0  0  0999 V2000
    8.6419  -12.1843   19.2689 C   0  0  0  0  0  0  0  0  0  0  0  0
    8.8820  -13.6415   18.8664 C   0  0  2  0  0  0  0  0  0  0  0  0
    8.1644  -13.8391   17.6250 N   0  0  0  0  0  0  0  0  0  0  0  0
    8.3032  -14.5275   19.8978 C   0  0  0  0  0  0  0  0  0  0  0  0
    7.0926  -14.8395   19.8180 O   0  0  0  0  0  0  0  0  0  0  0  0
    8.3648  -17.8231   20.2392 C   0  0  0  0  0  0  0  0  0  0  0  0
    8.9504  -17.4203   21.5556 C   0  0  1  0  0  0  0  0  0  0  0  0
   10.3289  -17.5482   21.4786 O   0  0  0  0  0  0  0  0  0  0  0  0
    8.5517  -15.9884   21.9387 C   0  0  2  0  0  0  0  0  0  0  0  0
    9.0558  -15.0479   20.9842 N   0  0  0  0  0  0  0  0  0  0  0  0
    9.1393  -15.7468   23.3052 C   0  0  0  0  0  0  0  0  0  0  0  0
   10.3138  -15.2901   23.4370 O   0  0  0  0  0  0  0  0  0  0  0  0
    8.3904  -16.0252   24.4799 N   0  0  0  0  0  0  0  0  0  0  0  0
    8.9301  -15.7118   25.8154 C   0  0  1  0  0  0  0  0  0  0  0  0
    7.7331  -15.5612   26.7210 C   0  0  0  0  0  0  0  0  0  0  0  0
    7.1026  -14.2557   26.5561 C   0  0  0  0  0  0  0  0  0  0  0  0
    7.7359  -13.0762   26.2753 C   0  0  0  0  0  0  0  0  0  0  0  0
    6.8359  -12.0834   26.1960 N   0  0  0  0  0  0  0  0  0  0  0  0
    5.6411  -12.6448   26.4277 C   0  0  0  0  0  0  0  0  0  0  0  0
    5.7928  -13.9733   26.6491 N   0  0  0  0  0  0  0  0  0  0  0  0
    9.7338  -16.8603   26.3117 C   0  0  0  0  0  0  0  0  0  0  0  0
   10.5018  -16.7634   27.4795 O   0  0  0  0  0  0  0  0  0  0  0  0
    9.7788  -17.9716   25.7316 O   0  0  0  0  0  0  0  0  0  0  0  0
  2  3  1  0
  2  1  1  1
  4  2  1  0
  5  4  2  0
  7  6  1  6
  7  9  1  0
  8  7  1  0
  9 11  1  0
  9 10  1  6
 10  4  1  0
 11 13  1  0
 12 11  2  0
 13 14  1  0
 14 15  1  1
 14 21  1  0
 16 15  1  0
 17 16  2  0
 18 17  1  0
 19 18  1  0
 19 20  2  0
 20 16  1  0
 21 23  2  0
 21 22  1  0
M  END
$$$$
