ATH.pdb
     RDKit          3D

 23 23  0  0  1  0  0  0  0  0999 V2000
    8.6165  -19.4074   18.1185 C   0  0  0  0  0  0  0  0  0  0  0  0
    8.3533  -17.9253   17.8406 C   0  0  2  0  0  0  0  0  0  0  0  0
    9.0657  -17.6126   16.6200 N   0  0  0  0  0  0  0  0  0  0  0  0
    8.9202  -17.1206   18.9428 C   0  0  0  0  0  0  0  0  0  0  0  0
   10.1494  -16.8798   18.9467 O   0  0  0  0  0  0  0  0  0  0  0  0
    6.9410  -13.9301   20.7122 C   0  0  0  0  0  0  0  0  0  0  0  0
    7.5038  -14.9301   21.6721 C   0  0  1  0  0  0  0  0  0  0  0  0
    6.4744  -15.7567   22.0962 O   0  0  0  0  0  0  0  0  0  0  0  0
    8.6390  -15.7464   21.0389 C   0  0  2  0  0  0  0  0  0  0  0  0
    8.1356  -16.6020   20.0072 N   0  0  0  0  0  0  0  0  0  0  0  0
    9.2492  -16.5461   22.1611 C   0  0  0  0  0  0  0  0  0  0  0  0
    8.8772  -17.7355   22.3897 O   0  0  0  0  0  0  0  0  0  0  0  0
   10.2572  -15.9857   22.9906 N   0  0  0  0  0  0  0  0  0  0  0  0
   10.8523  -16.7640   24.0921 C   0  0  1  0  0  0  0  0  0  0  0  0
   12.1964  -16.1357   24.3643 C   0  0  0  0  0  0  0  0  0  0  0  0
   13.1626  -16.4760   23.3252 C   0  0  0  0  0  0  0  0  0  0  0  0
   12.9967  -17.4021   22.3322 C   0  0  0  0  0  0  0  0  0  0  0  0
   14.0947  -17.4446   21.5609 N   0  0  0  0  0  0  0  0  0  0  0  0
   14.9449  -16.5445   22.0739 C   0  0  0  0  0  0  0  0  0  0  0  0
   14.3848  -15.9462   23.1534 N   0  0  0  0  0  0  0  0  0  0  0  0
   10.0228  -16.6112   25.3169 C   0  0  0  0  0  0  0  0  0  0  0  0
    8.9244  -15.7422   25.3510 O   0  0  0  0  0  0  0  0  0  0  0  0
   10.2444  -17.2365   26.3815 O   0  0  0  0  0  0  0  0  0  0  0  0
  2  3  1  0
  2  1  1  1
  4  2  1  0
  5  4  2  0
  7  6  1  6
  7  9  1  0
  8  7  1  0
  9 11  1  0
  9 10  1  6
 10  4  1  0
 11 13  1  0
 12 11  2  0
 13 14  1  0
 14 15  1  1
 14 21  1  0
 16 15  1  0
 17 16  2  0
 18 17  1  0
 19 18  1  0
 19 20  2  0
 20 16  1  0
 21 23  2  0
 21 22  1  0
M  END
$$$$
