AHE.pdb
     RDKit          3D

 25 25  0  0  1  0  0  0  0  0999 V2000
    8.7630  -11.8629   19.5614 C   0  0  0  0  0  0  0  0  0  0  0  0
    8.4598  -13.2483   19.0077 C   0  0  2  0  0  0  0  0  0  0  0  0
    7.0721  -13.6054   19.2053 N   0  0  0  0  0  0  0  0  0  0  0  0
    9.3050  -14.2093   19.7725 C   0  0  0  0  0  0  0  0  0  0  0  0
    8.8242  -14.6953   20.8424 O   0  0  0  0  0  0  0  0  0  0  0  0
   10.5987  -14.5685   19.3227 N   0  0  0  0  0  0  0  0  0  0  0  0
   11.3067  -15.5995   20.1267 C   0  0  1  0  0  0  0  0  0  0  0  0
   11.2548  -16.8877   19.3465 C   0  0  0  0  0  0  0  0  0  0  0  0
   10.0189  -17.6618   19.4513 C   0  0  0  0  0  0  0  0  0  0  0  0
    8.8924  -17.3433   20.1619 C   0  0  0  0  0  0  0  0  0  0  0  0
    8.0142  -18.3444   20.0132 N   0  0  0  0  0  0  0  0  0  0  0  0
    8.5647  -19.2842   19.2249 C   0  0  0  0  0  0  0  0  0  0  0  0
    9.7795  -18.8745   18.8821 N   0  0  0  0  0  0  0  0  0  0  0  0
   12.6723  -15.0882   20.3338 C   0  0  0  0  0  0  0  0  0  0  0  0
   13.2179  -14.2990   19.4794 O   0  0  0  0  0  0  0  0  0  0  0  0
   13.4641  -15.4106   21.4622 N   0  0  0  0  0  0  0  0  0  0  0  0
   14.8797  -14.9639   21.4682 C   0  0  1  0  0  0  0  0  0  0  0  0
   15.4688  -15.3851   22.8291 C   0  0  0  0  0  0  0  0  0  0  0  0
   16.9180  -15.0144   22.8509 C   0  0  0  0  0  0  0  0  0  0  0  0
   17.5281  -15.4857   24.1355 C   0  0  0  0  0  0  0  0  0  0  0  0
   17.9297  -16.6516   24.2038 O   0  0  0  0  0  0  0  0  0  0  0  0
   15.5961  -15.7065   20.4332 C   0  0  0  0  0  0  0  0  0  0  0  0
   15.3691  -16.9030   20.0938 O   0  0  0  0  0  0  0  0  0  0  0  0
   17.6182  -14.6058   25.1883 O   0  0  0  0  0  0  0  0  0  0  0  0
   16.6252  -15.0575   19.7422 O   0  0  0  0  0  0  0  0  0  0  0  0
  2  1  1  1
  2  4  1  0
  3  2  1  0
  4  5  2  0
  6  7  1  0
  6  4  1  0
  7  8  1  6
  9  8  1  0
 10  9  2  0
 11 12  1  0
 11 10  1  0
 12 13  2  0
 13  9  1  0
 14  7  1  0
 14 15  2  0
 16 14  1  0
 17 16  1  0
 17 22  1  0
 17 18  1  1
 19 20  1  0
 19 18  1  0
 20 24  1  0
 20 21  2  0
 22 23  2  0
 22 25  1  0
M  END
$$$$
