AHE.pdb
     RDKit          3D

 25 25  0  0  1  0  0  0  0  0999 V2000
    8.8140  -15.7786   18.5600 C   0  0  0  0  0  0  0  0  0  0  0  0
    8.6213  -16.7902   19.6812 C   0  0  2  0  0  0  0  0  0  0  0  0
    7.2674  -17.2986   19.7088 N   0  0  0  0  0  0  0  0  0  0  0  0
    8.8769  -16.0666   20.9594 C   0  0  0  0  0  0  0  0  0  0  0  0
   10.0151  -15.5251   21.1128 O   0  0  0  0  0  0  0  0  0  0  0  0
    7.8862  -15.9851   21.9677 N   0  0  0  0  0  0  0  0  0  0  0  0
    8.2515  -15.2069   23.1808 C   0  0  1  0  0  0  0  0  0  0  0  0
    6.9768  -14.6351   23.7454 C   0  0  0  0  0  0  0  0  0  0  0  0
    7.1061  -13.8345   24.9619 C   0  0  0  0  0  0  0  0  0  0  0  0
    8.2370  -13.6214   25.7044 C   0  0  0  0  0  0  0  0  0  0  0  0
    7.9029  -12.8602   26.7554 N   0  0  0  0  0  0  0  0  0  0  0  0
    6.5874  -12.5910   26.6890 C   0  0  0  0  0  0  0  0  0  0  0  0
    6.1007  -13.1795   25.6037 N   0  0  0  0  0  0  0  0  0  0  0  0
    8.9263  -16.1538   24.0848 C   0  0  0  0  0  0  0  0  0  0  0  0
    8.4089  -17.3006   24.3446 O   0  0  0  0  0  0  0  0  0  0  0  0
   10.1661  -15.8850   24.7131 N   0  0  0  0  0  0  0  0  0  0  0  0
   10.7632  -16.9508   25.5564 C   0  0  1  0  0  0  0  0  0  0  0  0
   12.2200  -17.1232   25.0826 C   0  0  0  0  0  0  0  0  0  0  0  0
   12.4755  -16.1473   23.9779 C   0  0  0  0  0  0  0  0  0  0  0  0
   13.9275  -16.1871   23.6111 C   0  0  0  0  0  0  0  0  0  0  0  0
   14.6924  -16.8625   24.3069 O   0  0  0  0  0  0  0  0  0  0  0  0
   10.8061  -16.4700   26.9357 C   0  0  0  0  0  0  0  0  0  0  0  0
   11.2496  -17.1158   27.9279 O   0  0  0  0  0  0  0  0  0  0  0  0
   14.3542  -15.4725   22.5165 O   0  0  0  0  0  0  0  0  0  0  0  0
   10.3222  -15.1854   27.2065 O   0  0  0  0  0  0  0  0  0  0  0  0
  2  1  1  6
  2  4  1  0
  3  2  1  0
  4  5  2  0
  6  7  1  0
  6  4  1  0
  7  8  1  1
  9  8  1  0
 10  9  2  0
 11 12  1  0
 11 10  1  0
 12 13  2  0
 13  9  1  0
 14  7  1  0
 14 15  2  0
 16 14  1  0
 17 16  1  0
 17 22  1  0
 17 18  1  6
 19 20  1  0
 19 18  1  0
 20 24  1  0
 20 21  2  0
 22 23  2  0
 22 25  1  0
M  END
$$$$
