AHE.pdb
     RDKit          3D

 25 25  0  0  1  0  0  0  0  0999 V2000
   12.6333  -17.7762   14.9389 C   0  0  0  0  0  0  0  0  0  0  0  0
   11.9253  -16.5711   14.3355 C   0  0  2  0  0  0  0  0  0  0  0  0
   12.7993  -15.8313   13.4516 N   0  0  0  0  0  0  0  0  0  0  0  0
   11.5469  -15.6834   15.4720 C   0  0  0  0  0  0  0  0  0  0  0  0
   12.4460  -14.9278   15.9545 O   0  0  0  0  0  0  0  0  0  0  0  0
   10.2315  -15.6820   15.9960 N   0  0  0  0  0  0  0  0  0  0  0  0
   10.0080  -14.8348   17.1972 C   0  0  1  0  0  0  0  0  0  0  0  0
    8.5227  -14.6093   17.3147 C   0  0  0  0  0  0  0  0  0  0  0  0
    8.0600  -13.9470   18.5332 C   0  0  0  0  0  0  0  0  0  0  0  0
    8.1500  -12.6166   18.8456 C   0  0  0  0  0  0  0  0  0  0  0  0
    7.6381  -12.4455   20.0721 N   0  0  0  0  0  0  0  0  0  0  0  0
    7.2288  -13.6390   20.5364 C   0  0  0  0  0  0  0  0  0  0  0  0
    7.4827  -14.5517   19.6070 N   0  0  0  0  0  0  0  0  0  0  0  0
   10.5853  -15.5754   18.3317 C   0  0  0  0  0  0  0  0  0  0  0  0
   11.0800  -16.7499   18.1697 O   0  0  0  0  0  0  0  0  0  0  0  0
   10.6459  -15.0621   19.6497 N   0  0  0  0  0  0  0  0  0  0  0  0
   11.1407  -15.9602   20.7231 C   0  0  1  0  0  0  0  0  0  0  0  0
   12.6524  -16.1429   20.4826 C   0  0  0  0  0  0  0  0  0  0  0  0
   13.2872  -14.7897   20.4199 C   0  0  0  0  0  0  0  0  0  0  0  0
   14.7615  -14.9463   20.2041 C   0  0  0  0  0  0  0  0  0  0  0  0
   15.4689  -15.2497   21.1699 O   0  0  0  0  0  0  0  0  0  0  0  0
   10.9817  -15.2718   22.0023 C   0  0  0  0  0  0  0  0  0  0  0  0
   10.6160  -14.0710   22.1527 O   0  0  0  0  0  0  0  0  0  0  0  0
   15.2714  -14.7472   18.9428 O   0  0  0  0  0  0  0  0  0  0  0  0
   11.2494  -15.9833   23.1770 O   0  0  0  0  0  0  0  0  0  0  0  0
  2  1  1  1
  2  4  1  0
  3  2  1  0
  4  5  2  0
  6  7  1  0
  6  4  1  0
  7  8  1  1
  9  8  1  0
 10  9  2  0
 11 12  1  0
 11 10  1  0
 12 13  2  0
 13  9  1  0
 14  7  1  0
 14 15  2  0
 16 14  1  0
 17 16  1  0
 17 22  1  0
 17 18  1  6
 19 20  1  0
 19 18  1  0
 20 24  1  0
 20 21  2  0
 22 23  2  0
 22 25  1  0
M  END
$$$$
