AHE.pdb
     RDKit          3D

 25 25  0  0  1  0  0  0  0  0999 V2000
   11.9792  -19.7033   18.1089 C   0  0  0  0  0  0  0  0  0  0  0  0
   11.3383  -18.4350   17.5628 C   0  0  2  0  0  0  0  0  0  0  0  0
   12.0660  -17.9227   16.4224 N   0  0  0  0  0  0  0  0  0  0  0  0
   11.4003  -17.4202   18.6533 C   0  0  0  0  0  0  0  0  0  0  0  0
   12.4961  -16.8010   18.8207 O   0  0  0  0  0  0  0  0  0  0  0  0
   10.2776  -17.1553   19.4743 N   0  0  0  0  0  0  0  0  0  0  0  0
   10.4508  -16.0853   20.4921 C   0  0  1  0  0  0  0  0  0  0  0  0
    9.0749  -15.5987   20.8672 C   0  0  0  0  0  0  0  0  0  0  0  0
    8.4804  -14.5905   19.9910 C   0  0  0  0  0  0  0  0  0  0  0  0
    9.0698  -13.9537   18.9314 C   0  0  0  0  0  0  0  0  0  0  0  0
    8.1845  -13.0815   18.4303 N   0  0  0  0  0  0  0  0  0  0  0  0
    7.0527  -13.1568   19.1518 C   0  0  0  0  0  0  0  0  0  0  0  0
    7.2277  -14.0700   20.0987 N   0  0  0  0  0  0  0  0  0  0  0  0
   11.1856  -16.7010   21.6101 C   0  0  0  0  0  0  0  0  0  0  0  0
   10.9580  -17.9162   21.9594 O   0  0  0  0  0  0  0  0  0  0  0  0
   12.1772  -16.0239   22.3600 N   0  0  0  0  0  0  0  0  0  0  0  0
   13.0359  -16.8297   23.2637 C   0  0  1  0  0  0  0  0  0  0  0  0
   14.4190  -16.1490   23.2802 C   0  0  0  0  0  0  0  0  0  0  0  0
   15.3172  -16.9275   24.1887 C   0  0  0  0  0  0  0  0  0  0  0  0
   16.6623  -16.2693   24.2344 C   0  0  0  0  0  0  0  0  0  0  0  0
   16.9504  -15.4564   23.3505 O   0  0  0  0  0  0  0  0  0  0  0  0
   12.4874  -16.7379   24.6151 C   0  0  0  0  0  0  0  0  0  0  0  0
   11.5823  -15.9390   24.9905 O   0  0  0  0  0  0  0  0  0  0  0  0
   17.5242  -16.5935   25.2556 O   0  0  0  0  0  0  0  0  0  0  0  0
   12.9899  -17.6000   25.5959 O   0  0  0  0  0  0  0  0  0  0  0  0
  2  1  1  1
  2  4  1  0
  3  2  1  0
  4  5  2  0
  6  7  1  0
  6  4  1  0
  7  8  1  1
  9  8  1  0
 10  9  2  0
 11 12  1  0
 11 10  1  0
 12 13  2  0
 13  9  1  0
 14  7  1  0
 14 15  2  0
 16 14  1  0
 17 16  1  0
 17 22  1  0
 17 18  1  1
 19 20  1  0
 19 18  1  0
 20 24  1  0
 20 21  2  0
 22 23  2  0
 22 25  1  0
M  END
$$$$
