AHE.pdb
     RDKit          3D

 25 25  0  0  1  0  0  0  0  0999 V2000
   13.8155  -17.7062   15.3572 C   0  0  0  0  0  0  0  0  0  0  0  0
   13.2904  -16.4136   14.7482 C   0  0  2  0  0  0  0  0  0  0  0  0
   14.3473  -15.6631   14.1062 N   0  0  0  0  0  0  0  0  0  0  0  0
   12.7526  -15.5974   15.8740 C   0  0  0  0  0  0  0  0  0  0  0  0
   13.5625  -14.8399   16.4923 O   0  0  0  0  0  0  0  0  0  0  0  0
   11.3869  -15.6637   16.2418 N   0  0  0  0  0  0  0  0  0  0  0  0
   10.9779  -14.8126   17.3903 C   0  0  1  0  0  0  0  0  0  0  0  0
    9.4793  -14.6683   17.3281 C   0  0  0  0  0  0  0  0  0  0  0  0
    8.8584  -13.8708   18.3845 C   0  0  0  0  0  0  0  0  0  0  0  0
    9.4618  -13.3406   19.4937 C   0  0  0  0  0  0  0  0  0  0  0  0
    8.5216  -12.7153   20.2153 N   0  0  0  0  0  0  0  0  0  0  0  0
    7.3416  -12.8413   19.5836 C   0  0  0  0  0  0  0  0  0  0  0  0
    7.5412  -13.5409   18.4737 N   0  0  0  0  0  0  0  0  0  0  0  0
   11.4558  -15.5032   18.6001 C   0  0  0  0  0  0  0  0  0  0  0  0
   11.6842  -16.7674   18.5914 O   0  0  0  0  0  0  0  0  0  0  0  0
   11.7017  -14.8452   19.8293 N   0  0  0  0  0  0  0  0  0  0  0  0
   12.2541  -15.6482   20.9489 C   0  0  1  0  0  0  0  0  0  0  0  0
   13.6405  -15.0571   21.2730 C   0  0  0  0  0  0  0  0  0  0  0  0
   14.2510  -15.8630   22.3757 C   0  0  0  0  0  0  0  0  0  0  0  0
   15.6441  -15.3740   22.6304 C   0  0  0  0  0  0  0  0  0  0  0  0
   16.2995  -14.9407   21.6776 O   0  0  0  0  0  0  0  0  0  0  0  0
   11.4057  -15.4406   22.1205 C   0  0  0  0  0  0  0  0  0  0  0  0
   10.5535  -14.5170   22.2590 O   0  0  0  0  0  0  0  0  0  0  0  0
   16.1404  -15.4254   23.9118 O   0  0  0  0  0  0  0  0  0  0  0  0
   11.5269  -16.3294   23.1942 O   0  0  0  0  0  0  0  0  0  0  0  0
  2  1  1  1
  2  4  1  0
  3  2  1  0
  4  5  2  0
  6  7  1  0
  6  4  1  0
  7  8  1  1
  9  8  1  0
 10  9  2  0
 11 12  1  0
 11 10  1  0
 12 13  2  0
 13  9  1  0
 14  7  1  0
 14 15  2  0
 16 14  1  0
 17 16  1  0
 17 22  1  0
 17 18  1  1
 19 20  1  0
 19 18  1  0
 20 24  1  0
 20 21  2  0
 22 23  2  0
 22 25  1  0
M  END
$$$$
