AHE.pdb
     RDKit          3D

 25 25  0  0  1  0  0  0  0  0999 V2000
    8.0980  -12.6277   20.5112 C   0  0  0  0  0  0  0  0  0  0  0  0
    8.2944  -13.2531   19.1372 C   0  0  2  0  0  0  0  0  0  0  0  0
    7.1738  -14.0917   18.7720 N   0  0  0  0  0  0  0  0  0  0  0  0
    9.5116  -14.1094   19.2266 C   0  0  0  0  0  0  0  0  0  0  0  0
    9.3456  -15.3485   19.4482 O   0  0  0  0  0  0  0  0  0  0  0  0
   10.8078  -13.5615   19.0702 N   0  0  0  0  0  0  0  0  0  0  0  0
   11.9162  -14.5403   18.9148 C   0  0  1  0  0  0  0  0  0  0  0  0
   12.7166  -14.1210   17.7088 C   0  0  0  0  0  0  0  0  0  0  0  0
   13.8321  -14.9891   17.3351 C   0  0  0  0  0  0  0  0  0  0  0  0
   13.9782  -16.3235   17.6058 C   0  0  0  0  0  0  0  0  0  0  0  0
   15.1617  -16.7166   17.1155 N   0  0  0  0  0  0  0  0  0  0  0  0
   15.7616  -15.6584   16.5430 C   0  0  0  0  0  0  0  0  0  0  0  0
   14.9593  -14.6095   16.6738 N   0  0  0  0  0  0  0  0  0  0  0  0
   12.6780  -14.4970   20.1745 C   0  0  0  0  0  0  0  0  0  0  0  0
   13.0417  -13.3767   20.6873 O   0  0  0  0  0  0  0  0  0  0  0  0
   13.0508  -15.6530   20.9017 N   0  0  0  0  0  0  0  0  0  0  0  0
   13.8214  -15.4660   22.1566 C   0  0  1  0  0  0  0  0  0  0  0  0
   13.2771  -16.4965   23.1656 C   0  0  0  0  0  0  0  0  0  0  0  0
   11.8280  -16.2077   23.3997 C   0  0  0  0  0  0  0  0  0  0  0  0
   11.2611  -17.2449   24.3203 C   0  0  0  0  0  0  0  0  0  0  0  0
   10.0566  -17.1985   24.5891 O   0  0  0  0  0  0  0  0  0  0  0  0
   15.2165  -15.8100   21.8900 C   0  0  0  0  0  0  0  0  0  0  0  0
   15.6596  -16.3142   20.8187 O   0  0  0  0  0  0  0  0  0  0  0  0
   12.1000  -18.2075   24.8306 O   0  0  0  0  0  0  0  0  0  0  0  0
   16.1633  -15.5674   22.8913 O   0  0  0  0  0  0  0  0  0  0  0  0
  2  1  1  1
  2  4  1  0
  3  2  1  0
  4  5  2  0
  6  7  1  0
  6  4  1  0
  7  8  1  6
  9  8  1  0
 10  9  2  0
 11 12  1  0
 11 10  1  0
 12 13  2  0
 13  9  1  0
 14  7  1  0
 14 15  2  0
 16 14  1  0
 17 16  1  0
 17 22  1  0
 17 18  1  1
 19 20  1  0
 19 18  1  0
 20 24  1  0
 20 21  2  0
 22 23  2  0
 22 25  1  0
M  END
$$$$
