AHE.pdb
     RDKit          3D

 25 25  0  0  1  0  0  0  0  0999 V2000
   17.7311  -23.3648   25.9546 C   0  0  0  0  0  0  0  0  0  0  0  0
   16.3918  -23.2997   25.2338 C   0  0  2  0  0  0  0  0  0  0  0  0
   16.5322  -22.7478   23.9041 N   0  0  0  0  0  0  0  0  0  0  0  0
   15.5207  -22.3889   26.0303 C   0  0  0  0  0  0  0  0  0  0  0  0
   15.8695  -21.1716   26.1229 O   0  0  0  0  0  0  0  0  0  0  0  0
   14.3455  -22.8632   26.6617 N   0  0  0  0  0  0  0  0  0  0  0  0
   13.4685  -21.8286   27.2710 C   0  0  1  0  0  0  0  0  0  0  0  0
   12.0435  -22.2241   26.9814 C   0  0  0  0  0  0  0  0  0  0  0  0
   11.5501  -21.9382   25.6352 C   0  0  0  0  0  0  0  0  0  0  0  0
   11.8760  -20.8756   24.8351 C   0  0  0  0  0  0  0  0  0  0  0  0
   11.1698  -20.9813   23.7012 N   0  0  0  0  0  0  0  0  0  0  0  0
   10.4079  -22.0868   23.7720 C   0  0  0  0  0  0  0  0  0  0  0  0
   10.6353  -22.6696   24.9423 N   0  0  0  0  0  0  0  0  0  0  0  0
   13.7969  -21.8096   28.7065 C   0  0  0  0  0  0  0  0  0  0  0  0
   13.7099  -22.8761   29.4174 O   0  0  0  0  0  0  0  0  0  0  0  0
   14.2296  -20.6497   29.3933 N   0  0  0  0  0  0  0  0  0  0  0  0
   14.4942  -20.7626   30.8496 C   0  0  1  0  0  0  0  0  0  0  0  0
   15.8060  -19.9993   31.1195 C   0  0  0  0  0  0  0  0  0  0  0  0
   16.9255  -20.7350   30.4535 C   0  0  0  0  0  0  0  0  0  0  0  0
   18.2065  -19.9909   30.6775 C   0  0  0  0  0  0  0  0  0  0  0  0
   18.1860  -18.7568   30.6338 O   0  0  0  0  0  0  0  0  0  0  0  0
   13.4270  -20.0632   31.5620 C   0  0  0  0  0  0  0  0  0  0  0  0
   13.3075  -19.9850   32.8181 O   0  0  0  0  0  0  0  0  0  0  0  0
   19.3545  -20.7069   30.9229 O   0  0  0  0  0  0  0  0  0  0  0  0
   12.4414  -19.4139   30.8105 O   0  0  0  0  0  0  0  0  0  0  0  0
  2  1  1  1
  2  4  1  0
  3  2  1  0
  4  5  2  0
  6  7  1  0
  6  4  1  0
  7  8  1  1
  9  8  1  0
 10  9  2  0
 11 12  1  0
 11 10  1  0
 12 13  2  0
 13  9  1  0
 14  7  1  0
 14 15  2  0
 16 14  1  0
 17 16  1  0
 17 22  1  0
 17 18  1  6
 19 20  1  0
 19 18  1  0
 20 24  1  0
 20 21  2  0
 22 23  2  0
 22 25  1  0
M  END
$$$$
