AHE.pdb
     RDKit          3D

 25 25  0  0  1  0  0  0  0  0999 V2000
    8.1303  -19.8911   19.5512 C   0  0  0  0  0  0  0  0  0  0  0  0
    8.0780  -18.5865   18.7684 C   0  0  2  0  0  0  0  0  0  0  0  0
    8.7774  -18.6974   17.5071 N   0  0  0  0  0  0  0  0  0  0  0  0
    8.7698  -17.5603   19.5998 C   0  0  0  0  0  0  0  0  0  0  0  0
   10.0070  -17.3676   19.3895 O   0  0  0  0  0  0  0  0  0  0  0  0
    8.0728  -16.8256   20.5894 N   0  0  0  0  0  0  0  0  0  0  0  0
    8.8693  -15.8151   21.3345 C   0  0  1  0  0  0  0  0  0  0  0  0
    8.0420  -14.5576   21.4049 C   0  0  0  0  0  0  0  0  0  0  0  0
    7.8920  -13.8075   20.1589 C   0  0  0  0  0  0  0  0  0  0  0  0
    8.6214  -12.7255   19.7433 C   0  0  0  0  0  0  0  0  0  0  0  0
    8.1296  -12.3255   18.5628 N   0  0  0  0  0  0  0  0  0  0  0  0
    7.1077  -13.1326   18.2283 C   0  0  0  0  0  0  0  0  0  0  0  0
    6.9603  -14.0320   19.1928 N   0  0  0  0  0  0  0  0  0  0  0  0
    9.1538  -16.4104   22.6513 C   0  0  0  0  0  0  0  0  0  0  0  0
    8.3049  -17.1883   23.2209 O   0  0  0  0  0  0  0  0  0  0  0  0
   10.3540  -16.1847   23.3674 N   0  0  0  0  0  0  0  0  0  0  0  0
   10.8012  -17.2307   24.3211 C   0  0  1  0  0  0  0  0  0  0  0  0
   11.1551  -18.4725   23.4790 C   0  0  0  0  0  0  0  0  0  0  0  0
   11.5974  -19.5605   24.4056 C   0  0  0  0  0  0  0  0  0  0  0  0
   11.9609  -20.7730   23.6042 C   0  0  0  0  0  0  0  0  0  0  0  0
   11.2215  -21.1068   22.6730 O   0  0  0  0  0  0  0  0  0  0  0  0
   12.0325  -16.7695   24.9587 C   0  0  0  0  0  0  0  0  0  0  0  0
   12.8342  -15.9159   24.4822 O   0  0  0  0  0  0  0  0  0  0  0  0
   13.1009  -21.4677   23.9337 O   0  0  0  0  0  0  0  0  0  0  0  0
   12.3743  -17.3025   26.2064 O   0  0  0  0  0  0  0  0  0  0  0  0
  2  1  1  1
  2  4  1  0
  3  2  1  0
  4  5  2  0
  6  7  1  0
  6  4  1  0
  7  8  1  1
  9  8  1  0
 10  9  2  0
 11 12  1  0
 11 10  1  0
 12 13  2  0
 13  9  1  0
 14  7  1  0
 14 15  2  0
 16 14  1  0
 17 16  1  0
 17 22  1  0
 17 18  1  6
 19 20  1  0
 19 18  1  0
 20 24  1  0
 20 21  2  0
 22 23  2  0
 22 25  1  0
M  END
$$$$
