AHE.pdb
     RDKit          3D

 25 25  0  0  1  0  0  0  0  0999 V2000
    7.7319  -14.9820   19.3137 C   0  0  0  0  0  0  0  0  0  0  0  0
    7.4405  -13.7115   20.1002 C   0  0  2  0  0  0  0  0  0  0  0  0
    8.0734  -12.5588   19.4976 N   0  0  0  0  0  0  0  0  0  0  0  0
    8.0197  -13.9074   21.4599 C   0  0  0  0  0  0  0  0  0  0  0  0
    9.2320  -13.5744   21.6379 O   0  0  0  0  0  0  0  0  0  0  0  0
    7.2463  -14.4457   22.5168 N   0  0  0  0  0  0  0  0  0  0  0  0
    7.9472  -14.6185   23.8166 C   0  0  1  0  0  0  0  0  0  0  0  0
    6.8896  -14.7032   24.8866 C   0  0  0  0  0  0  0  0  0  0  0  0
    6.6486  -13.4864   25.6604 C   0  0  0  0  0  0  0  0  0  0  0  0
    7.3458  -12.3090   25.6029 C   0  0  0  0  0  0  0  0  0  0  0  0
    6.8158  -11.4714   26.5045 N   0  0  0  0  0  0  0  0  0  0  0  0
    5.8013  -12.0970   27.1267 C   0  0  0  0  0  0  0  0  0  0  0  0
    5.6966  -13.3183   26.6181 N   0  0  0  0  0  0  0  0  0  0  0  0
    8.7546  -15.8432   23.6848 C   0  0  0  0  0  0  0  0  0  0  0  0
    8.2929  -16.8752   23.0747 O   0  0  0  0  0  0  0  0  0  0  0  0
   10.0676  -15.9719   24.1981 N   0  0  0  0  0  0  0  0  0  0  0  0
   10.7668  -17.2665   24.0013 C   0  0  1  0  0  0  0  0  0  0  0  0
   12.2013  -16.9282   23.5492 C   0  0  0  0  0  0  0  0  0  0  0  0
   13.0024  -18.1916   23.5368 C   0  0  0  0  0  0  0  0  0  0  0  0
   14.3988  -17.8854   23.0887 C   0  0  0  0  0  0  0  0  0  0  0  0
   15.0529  -17.0542   23.7262 O   0  0  0  0  0  0  0  0  0  0  0  0
   10.8631  -17.9340   25.2977 C   0  0  0  0  0  0  0  0  0  0  0  0
   11.3041  -19.1025   25.4941 O   0  0  0  0  0  0  0  0  0  0  0  0
   14.8996  -18.5389   21.9873 O   0  0  0  0  0  0  0  0  0  0  0  0
   10.4387  -17.2392   26.4356 O   0  0  0  0  0  0  0  0  0  0  0  0
  2  1  1  6
  2  4  1  0
  3  2  1  0
  4  5  2  0
  6  7  1  0
  6  4  1  0
  7  8  1  1
  9  8  1  0
 10  9  2  0
 11 12  1  0
 11 10  1  0
 12 13  2  0
 13  9  1  0
 14  7  1  0
 14 15  2  0
 16 14  1  0
 17 16  1  0
 17 22  1  0
 17 18  1  1
 19 20  1  0
 19 18  1  0
 20 24  1  0
 20 21  2  0
 22 23  2  0
 22 25  1  0
M  END
$$$$
