AHE.pdb
     RDKit          3D

 25 25  0  0  1  0  0  0  0  0999 V2000
    8.1926  -15.4366   15.1593 C   0  0  0  0  0  0  0  0  0  0  0  0
    7.6381  -14.1546   15.7648 C   0  0  2  0  0  0  0  0  0  0  0  0
    8.0530  -12.9910   15.0124 N   0  0  0  0  0  0  0  0  0  0  0  0
    8.2046  -14.0507   17.1399 C   0  0  0  0  0  0  0  0  0  0  0  0
    9.3917  -13.6159   17.2571 O   0  0  0  0  0  0  0  0  0  0  0  0
    7.4466  -14.4234   18.2763 N   0  0  0  0  0  0  0  0  0  0  0  0
    8.1243  -14.2736   19.5912 C   0  0  1  0  0  0  0  0  0  0  0  0
    7.1145  -14.6162   20.6559 C   0  0  0  0  0  0  0  0  0  0  0  0
    7.5542  -14.4646   22.0420 C   0  0  0  0  0  0  0  0  0  0  0  0
    8.7521  -13.9735   22.4885 C   0  0  0  0  0  0  0  0  0  0  0  0
    8.7542  -14.0453   23.8265 N   0  0  0  0  0  0  0  0  0  0  0  0
    7.5842  -14.5706   24.2297 C   0  0  0  0  0  0  0  0  0  0  0  0
    6.8540  -14.8261   23.1514 N   0  0  0  0  0  0  0  0  0  0  0  0
    9.2819  -15.1836   19.5592 C   0  0  0  0  0  0  0  0  0  0  0  0
    9.6013  -15.8072   18.4824 O   0  0  0  0  0  0  0  0  0  0  0  0
   10.1137  -15.4286   20.6782 N   0  0  0  0  0  0  0  0  0  0  0  0
   11.4032  -16.1264   20.4459 C   0  0  1  0  0  0  0  0  0  0  0  0
   12.3088  -15.1372   19.6859 C   0  0  0  0  0  0  0  0  0  0  0  0
   13.6105  -15.8156   19.3972 C   0  0  0  0  0  0  0  0  0  0  0  0
   14.4938  -14.8807   18.6287 C   0  0  0  0  0  0  0  0  0  0  0  0
   15.0873  -13.9906   19.2458 O   0  0  0  0  0  0  0  0  0  0  0  0
   12.0247  -16.3792   21.7442 C   0  0  0  0  0  0  0  0  0  0  0  0
   11.7050  -15.8253   22.8347 O   0  0  0  0  0  0  0  0  0  0  0  0
   14.6110  -15.0473   17.2688 O   0  0  0  0  0  0  0  0  0  0  0  0
   13.0646  -17.3128   21.8121 O   0  0  0  0  0  0  0  0  0  0  0  0
  2  1  1  6
  2  4  1  0
  3  2  1  0
  4  5  2  0
  6  7  1  0
  6  4  1  0
  7  8  1  1
  9  8  1  0
 10  9  2  0
 11 12  1  0
 11 10  1  0
 12 13  2  0
 13  9  1  0
 14  7  1  0
 14 15  2  0
 16 14  1  0
 17 16  1  0
 17 22  1  0
 17 18  1  6
 19 20  1  0
 19 18  1  0
 20 24  1  0
 20 21  2  0
 22 23  2  0
 22 25  1  0
M  END
$$$$
