AHE.pdb
     RDKit          3D

 25 25  0  0  1  0  0  0  0  0999 V2000
    8.5977  -20.0065   21.4370 C   0  0  0  0  0  0  0  0  0  0  0  0
    8.8402  -19.4360   20.0466 C   0  0  2  0  0  0  0  0  0  0  0  0
    8.8489  -20.4762   19.0415 N   0  0  0  0  0  0  0  0  0  0  0  0
   10.1879  -18.7990   20.0742 C   0  0  0  0  0  0  0  0  0  0  0  0
   11.1945  -19.5394   19.8493 O   0  0  0  0  0  0  0  0  0  0  0  0
   10.3414  -17.4171   20.3418 N   0  0  0  0  0  0  0  0  0  0  0  0
   11.7053  -16.8604   20.1397 C   0  0  1  0  0  0  0  0  0  0  0  0
   11.5465  -15.3997   19.8052 C   0  0  0  0  0  0  0  0  0  0  0  0
   12.7634  -14.6836   19.4259 C   0  0  0  0  0  0  0  0  0  0  0  0
   13.1837  -14.3632   18.1625 C   0  0  0  0  0  0  0  0  0  0  0  0
   14.3663  -13.7417   18.2665 N   0  0  0  0  0  0  0  0  0  0  0  0
   14.6975  -13.6650   19.5673 C   0  0  0  0  0  0  0  0  0  0  0  0
   13.7289  -14.2346   20.2733 N   0  0  0  0  0  0  0  0  0  0  0  0
   12.4351  -17.1036   21.3956 C   0  0  0  0  0  0  0  0  0  0  0  0
   11.8648  -16.9318   22.5339 O   0  0  0  0  0  0  0  0  0  0  0  0
   13.7806  -17.5410   21.4448 N   0  0  0  0  0  0  0  0  0  0  0  0
   14.4083  -17.7088   22.7794 C   0  0  1  0  0  0  0  0  0  0  0  0
   15.4059  -18.8774   22.6533 C   0  0  0  0  0  0  0  0  0  0  0  0
   14.6303  -20.1393   22.4434 C   0  0  0  0  0  0  0  0  0  0  0  0
   15.5702  -21.2344   22.0410 C   0  0  0  0  0  0  0  0  0  0  0  0
   16.6535  -20.9244   21.5355 O   0  0  0  0  0  0  0  0  0  0  0  0
   15.1813  -16.5042   23.0741 C   0  0  0  0  0  0  0  0  0  0  0  0
   15.3597  -15.5318   22.2860 O   0  0  0  0  0  0  0  0  0  0  0  0
   15.1935  -22.5405   22.2486 O   0  0  0  0  0  0  0  0  0  0  0  0
   15.7840  -16.3929   24.3319 O   0  0  0  0  0  0  0  0  0  0  0  0
  2  1  1  1
  2  4  1  0
  3  2  1  0
  4  5  2  0
  6  7  1  0
  6  4  1  0
  7  8  1  1
  9  8  1  0
 10  9  2  0
 11 12  1  0
 11 10  1  0
 12 13  2  0
 13  9  1  0
 14  7  1  0
 14 15  2  0
 16 14  1  0
 17 16  1  0
 17 22  1  0
 17 18  1  6
 19 20  1  0
 19 18  1  0
 20 24  1  0
 20 21  2  0
 22 23  2  0
 22 25  1  0
M  END
$$$$
