AHE.pdb
     RDKit          3D

 25 25  0  0  1  0  0  0  0  0999 V2000
   10.6122  -19.5840   17.6847 C   0  0  0  0  0  0  0  0  0  0  0  0
   10.3012  -18.1048   17.5041 C   0  0  2  0  0  0  0  0  0  0  0  0
   11.2300  -17.4759   16.5908 N   0  0  0  0  0  0  0  0  0  0  0  0
   10.4562  -17.4681   18.8432 C   0  0  0  0  0  0  0  0  0  0  0  0
   11.6348  -17.2190   19.2446 O   0  0  0  0  0  0  0  0  0  0  0  0
    9.3298  -17.1517   19.6406 N   0  0  0  0  0  0  0  0  0  0  0  0
    9.6094  -16.4222   20.9057 C   0  0  1  0  0  0  0  0  0  0  0  0
    8.3910  -15.5939   21.2223 C   0  0  0  0  0  0  0  0  0  0  0  0
    8.1316  -14.4560   20.3417 C   0  0  0  0  0  0  0  0  0  0  0  0
    8.8528  -13.2961   20.2425 C   0  0  0  0  0  0  0  0  0  0  0  0
    8.2472  -12.5096   19.3423 N   0  0  0  0  0  0  0  0  0  0  0  0
    7.1618  -13.1503   18.8744 C   0  0  0  0  0  0  0  0  0  0  0  0
    7.0880  -14.3302   19.4774 N   0  0  0  0  0  0  0  0  0  0  0  0
    9.9017  -17.4539   21.9152 C   0  0  0  0  0  0  0  0  0  0  0  0
    9.2812  -18.5788   21.9078 O   0  0  0  0  0  0  0  0  0  0  0  0
   10.8675  -17.2943   22.9379 N   0  0  0  0  0  0  0  0  0  0  0  0
   11.0943  -18.4327   23.8632 C   0  0  1  0  0  0  0  0  0  0  0  0
   12.5748  -18.3669   24.2880 C   0  0  0  0  0  0  0  0  0  0  0  0
   12.8033  -19.3840   25.3611 C   0  0  0  0  0  0  0  0  0  0  0  0
   14.2406  -19.3419   25.7820 C   0  0  0  0  0  0  0  0  0  0  0  0
   14.5411  -18.6897   26.7867 O   0  0  0  0  0  0  0  0  0  0  0  0
   10.2859  -18.2143   25.0609 C   0  0  0  0  0  0  0  0  0  0  0  0
    9.7168  -17.1310   25.3785 O   0  0  0  0  0  0  0  0  0  0  0  0
   15.1697  -20.0289   25.0365 O   0  0  0  0  0  0  0  0  0  0  0  0
   10.1098  -19.2826   25.9471 O   0  0  0  0  0  0  0  0  0  0  0  0
  2  1  1  1
  2  4  1  0
  3  2  1  0
  4  5  2  0
  6  7  1  0
  6  4  1  0
  7  8  1  1
  9  8  1  0
 10  9  2  0
 11 12  1  0
 11 10  1  0
 12 13  2  0
 13  9  1  0
 14  7  1  0
 14 15  2  0
 16 14  1  0
 17 16  1  0
 17 22  1  0
 17 18  1  1
 19 20  1  0
 19 18  1  0
 20 24  1  0
 20 21  2  0
 22 23  2  0
 22 25  1  0
M  END
$$$$
