HLS.pdb
     RDKit          3D

 25 25  0  0  1  0  0  0  0  0999 V2000
    8.3282  -16.9075   21.5190 N   0  0  0  0  0  0  0  0  0  0  0  0
    9.5904  -16.2220   21.6239 C   0  0  1  0  0  0  0  0  0  0  0  0
    9.8105  -15.3786   20.3870 C   0  0  0  0  0  0  0  0  0  0  0  0
    9.7416  -16.2847   19.2112 C   0  0  0  0  0  0  0  0  0  0  0  0
   10.3187  -17.5205   19.1393 C   0  0  0  0  0  0  0  0  0  0  0  0
   10.0359  -18.0311   17.9200 N   0  0  0  0  0  0  0  0  0  0  0  0
    9.2986  -17.1356   17.2437 C   0  0  0  0  0  0  0  0  0  0  0  0
    9.1176  -16.0620   18.0375 N   0  0  0  0  0  0  0  0  0  0  0  0
    9.5894  -15.3896   22.8581 C   0  0  0  0  0  0  0  0  0  0  0  0
   10.6189  -14.6932   23.1550 O   0  0  0  0  0  0  0  0  0  0  0  0
    5.6935  -12.7273   26.7465 C   0  0  0  0  0  0  0  0  0  0  0  0
    7.1382  -13.1988   26.5215 C   0  0  2  0  0  0  0  0  0  0  0  0
    7.9809  -11.9412   26.5170 C   0  0  0  0  0  0  0  0  0  0  0  0
    7.1950  -13.9454   25.2430 C   0  0  0  0  0  0  0  0  0  0  0  0
    8.4245  -14.7293   24.9668 C   0  0  2  0  0  0  0  0  0  0  0  0
    8.4348  -15.3847   23.6895 N   0  0  0  0  0  0  0  0  0  0  0  0
    8.8186  -15.6789   26.0383 C   0  0  0  0  0  0  0  0  0  0  0  0
    8.9076  -15.3163   27.2390 O   0  0  0  0  0  0  0  0  0  0  0  0
   10.3075  -19.4690   24.9565 O   0  0  0  0  0  0  0  0  0  0  0  0
    9.4406  -19.4240   26.0632 C   0  0  0  0  0  0  0  0  0  0  0  0
    9.5102  -18.0275   26.6408 C   0  0  2  0  0  0  0  0  0  0  0  0
    9.1017  -17.0211   25.7075 N   0  0  0  0  0  0  0  0  0  0  0  0
   10.8408  -17.7449   27.2298 C   0  0  0  0  0  0  0  0  0  0  0  0
   11.3367  -18.5763   28.2432 O   0  0  0  0  0  0  0  0  0  0  0  0
   11.5670  -16.7974   26.8789 O   0  0  0  0  0  0  0  0  0  0  0  0
  2  1  1  6
  2  9  1  0
  3  2  1  0
  4  3  1  0
  5  4  2  0
  6  5  1  0
  7  6  1  0
  7  8  2  0
  8  4  1  0
  9 10  2  0
 12 11  1  6
 12 14  1  0
 12 13  1  0
 15 14  1  1
 16  9  1  0
 16 15  1  0
 17 15  1  0
 17 18  2  0
 19 20  1  0
 21 20  1  6
 21 22  1  0
 22 17  1  0
 23 24  1  0
 23 21  1  0
 25 23  2  0
M  END
$$$$
