HLS.pdb
     RDKit          3D

 25 25  0  0  1  0  0  0  0  0999 V2000
   10.3939  -17.8875   16.1852 N   0  0  0  0  0  0  0  0  0  0  0  0
    9.5278  -18.0603   17.3227 C   0  0  1  0  0  0  0  0  0  0  0  0
    9.5060  -19.5195   17.7228 C   0  0  0  0  0  0  0  0  0  0  0  0
    8.6316  -20.2339   16.7567 C   0  0  0  0  0  0  0  0  0  0  0  0
    7.9728  -19.6474   15.7138 C   0  0  0  0  0  0  0  0  0  0  0  0
    7.2861  -20.6171   15.0696 N   0  0  0  0  0  0  0  0  0  0  0  0
    7.5096  -21.7844   15.6945 C   0  0  0  0  0  0  0  0  0  0  0  0
    8.3368  -21.5488   16.7317 N   0  0  0  0  0  0  0  0  0  0  0  0
   10.0101  -17.1971   18.4355 C   0  0  0  0  0  0  0  0  0  0  0  0
   11.2650  -17.0544   18.6301 O   0  0  0  0  0  0  0  0  0  0  0  0
    8.6133  -12.8309   19.3473 C   0  0  0  0  0  0  0  0  0  0  0  0
    7.6681  -13.9450   19.8223 C   0  0  2  0  0  0  0  0  0  0  0  0
    6.4551  -13.2367   20.3865 C   0  0  0  0  0  0  0  0  0  0  0  0
    8.3817  -14.7711   20.8240 C   0  0  0  0  0  0  0  0  0  0  0  0
    9.4596  -15.6623   20.3278 C   0  0  2  0  0  0  0  0  0  0  0  0
    9.0589  -16.5429   19.2672 N   0  0  0  0  0  0  0  0  0  0  0  0
   10.1854  -16.4175   21.3804 C   0  0  0  0  0  0  0  0  0  0  0  0
    9.8440  -17.5824   21.7085 O   0  0  0  0  0  0  0  0  0  0  0  0
   14.1772  -16.6557   24.0865 O   0  0  0  0  0  0  0  0  0  0  0  0
   13.5038  -15.9592   23.0669 C   0  0  0  0  0  0  0  0  0  0  0  0
   12.0699  -16.4411   23.0553 C   0  0  2  0  0  0  0  0  0  0  0  0
   11.2847  -15.8192   22.0319 N   0  0  0  0  0  0  0  0  0  0  0  0
   11.4441  -16.3281   24.3943 C   0  0  0  0  0  0  0  0  0  0  0  0
   11.9931  -17.0337   25.4736 O   0  0  0  0  0  0  0  0  0  0  0  0
   10.4400  -15.6333   24.6337 O   0  0  0  0  0  0  0  0  0  0  0  0
  2  1  1  6
  2  9  1  0
  3  2  1  0
  4  3  1  0
  5  4  2  0
  6  5  1  0
  7  6  1  0
  7  8  2  0
  8  4  1  0
  9 10  2  0
 12 11  1  1
 12 14  1  0
 12 13  1  0
 15 14  1  1
 16  9  1  0
 16 15  1  0
 17 15  1  0
 17 18  2  0
 19 20  1  0
 21 20  1  1
 21 22  1  0
 22 17  1  0
 23 24  1  0
 23 21  1  0
 25 23  2  0
M  END
$$$$
