HLS.pdb
     RDKit          3D

 25 25  0  0  1  0  0  0  0  0999 V2000
    7.7787  -15.7931   21.2489 N   0  0  0  0  0  0  0  0  0  0  0  0
    8.7277  -14.7403   21.5038 C   0  0  1  0  0  0  0  0  0  0  0  0
    8.1806  -13.4305   20.9796 C   0  0  0  0  0  0  0  0  0  0  0  0
    8.1480  -13.5222   19.4968 C   0  0  0  0  0  0  0  0  0  0  0  0
    8.9675  -12.8307   18.6507 C   0  0  0  0  0  0  0  0  0  0  0  0
    8.6352  -13.1791   17.3876 N   0  0  0  0  0  0  0  0  0  0  0  0
    7.6306  -14.0685   17.4413 C   0  0  0  0  0  0  0  0  0  0  0  0
    7.3311  -14.2794   18.7379 N   0  0  0  0  0  0  0  0  0  0  0  0
    8.9960  -14.6725   22.9665 C   0  0  0  0  0  0  0  0  0  0  0  0
   10.1223  -14.2380   23.3858 O   0  0  0  0  0  0  0  0  0  0  0  0
    8.1582  -12.1780   26.4858 C   0  0  0  0  0  0  0  0  0  0  0  0
    7.0224  -12.9571   25.8051 C   0  0  2  0  0  0  0  0  0  0  0  0
    5.7403  -12.3887   26.3749 C   0  0  0  0  0  0  0  0  0  0  0  0
    7.2025  -14.3990   26.0947 C   0  0  0  0  0  0  0  0  0  0  0  0
    8.2133  -15.1330   25.2935 C   0  0  2  0  0  0  0  0  0  0  0  0
    7.9871  -15.0953   23.8763 N   0  0  0  0  0  0  0  0  0  0  0  0
    8.4779  -16.5249   25.7380 C   0  0  0  0  0  0  0  0  0  0  0  0
    7.5670  -17.3913   25.7660 O   0  0  0  0  0  0  0  0  0  0  0  0
   11.4719  -20.1180   26.2022 O   0  0  0  0  0  0  0  0  0  0  0  0
   11.2240  -18.8250   25.7073 C   0  0  0  0  0  0  0  0  0  0  0  0
   10.1656  -18.1953   26.5859 C   0  0  2  0  0  0  0  0  0  0  0  0
    9.7803  -16.8901   26.1400 N   0  0  0  0  0  0  0  0  0  0  0  0
   10.5609  -18.2103   28.0144 C   0  0  0  0  0  0  0  0  0  0  0  0
   10.8084  -19.4354   28.6484 O   0  0  0  0  0  0  0  0  0  0  0  0
   10.6917  -17.1856   28.7082 O   0  0  0  0  0  0  0  0  0  0  0  0
  2  1  1  1
  2  9  1  0
  3  2  1  0
  4  3  1  0
  5  4  2  0
  6  5  1  0
  7  6  1  0
  7  8  2  0
  8  4  1  0
  9 10  2  0
 12 11  1  1
 12 14  1  0
 12 13  1  0
 15 14  1  1
 16  9  1  0
 16 15  1  0
 17 15  1  0
 17 18  2  0
 19 20  1  0
 21 20  1  6
 21 22  1  0
 22 17  1  0
 23 24  1  0
 23 21  1  0
 25 23  2  0
M  END
$$$$
