HLS.pdb
     RDKit          3D

 25 25  0  0  1  0  0  0  0  0999 V2000
   10.0940  -14.2559   21.0779 N   0  0  0  0  0  0  0  0  0  0  0  0
    8.7666  -14.4333   21.6073 C   0  0  1  0  0  0  0  0  0  0  0  0
    8.0383  -15.4860   20.8002 C   0  0  0  0  0  0  0  0  0  0  0  0
    7.8244  -14.9342   19.4372 C   0  0  0  0  0  0  0  0  0  0  0  0
    8.3599  -13.7673   18.9712 C   0  0  0  0  0  0  0  0  0  0  0  0
    7.9387  -13.6069   17.6968 N   0  0  0  0  0  0  0  0  0  0  0  0
    7.1572  -14.6494   17.3720 C   0  0  0  0  0  0  0  0  0  0  0  0
    7.0870  -15.4653   18.4419 N   0  0  0  0  0  0  0  0  0  0  0  0
    8.8637  -14.8173   23.0423 C   0  0  0  0  0  0  0  0  0  0  0  0
    9.9082  -15.4167   23.4698 O   0  0  0  0  0  0  0  0  0  0  0  0
    8.1189  -12.0641   26.7494 C   0  0  0  0  0  0  0  0  0  0  0  0
    6.8624  -12.5934   26.0414 C   0  0  2  0  0  0  0  0  0  0  0  0
    5.6926  -11.9375   26.7436 C   0  0  0  0  0  0  0  0  0  0  0  0
    6.8525  -14.0714   26.1444 C   0  0  0  0  0  0  0  0  0  0  0  0
    7.8332  -14.8177   25.3177 C   0  0  2  0  0  0  0  0  0  0  0  0
    7.7849  -14.5077   23.9169 N   0  0  0  0  0  0  0  0  0  0  0  0
    7.8372  -16.2886   25.5219 C   0  0  0  0  0  0  0  0  0  0  0  0
    6.7955  -16.9768   25.3716 O   0  0  0  0  0  0  0  0  0  0  0  0
   11.1232  -18.3914   25.0329 O   0  0  0  0  0  0  0  0  0  0  0  0
    9.9709  -19.1350   25.3453 C   0  0  0  0  0  0  0  0  0  0  0  0
    9.1368  -18.3056   26.2967 C   0  0  2  0  0  0  0  0  0  0  0  0
    9.0350  -16.9352   25.8936 N   0  0  0  0  0  0  0  0  0  0  0  0
    9.5995  -18.4494   27.6975 C   0  0  0  0  0  0  0  0  0  0  0  0
    9.7074  -19.7285   28.2600 O   0  0  0  0  0  0  0  0  0  0  0  0
    9.9067  -17.4901   28.4280 O   0  0  0  0  0  0  0  0  0  0  0  0
  2  1  1  6
  2  9  1  0
  3  2  1  0
  4  3  1  0
  5  4  2  0
  6  5  1  0
  7  6  1  0
  7  8  2  0
  8  4  1  0
  9 10  2  0
 12 11  1  1
 12 14  1  0
 12 13  1  0
 15 14  1  1
 16  9  1  0
 16 15  1  0
 17 15  1  0
 17 18  2  0
 19 20  1  0
 21 20  1  6
 21 22  1  0
 22 17  1  0
 23 24  1  0
 23 21  1  0
 25 23  2  0
M  END
$$$$
