HLS.pdb
     RDKit          3D

 25 25  0  0  1  0  0  0  0  0999 V2000
    9.0916  -16.6024   20.4543 N   0  0  0  0  0  0  0  0  0  0  0  0
    7.9794  -16.7027   21.3636 C   0  0  1  0  0  0  0  0  0  0  0  0
    7.5671  -18.1524   21.4981 C   0  0  0  0  0  0  0  0  0  0  0  0
    7.0298  -18.5872   20.1826 C   0  0  0  0  0  0  0  0  0  0  0  0
    5.7581  -18.3570   19.7407 C   0  0  0  0  0  0  0  0  0  0  0  0
    5.6511  -18.9013   18.5080 N   0  0  0  0  0  0  0  0  0  0  0  0
    6.8288  -19.4596   18.1851 C   0  0  0  0  0  0  0  0  0  0  0  0
    7.6764  -19.2665   19.2146 N   0  0  0  0  0  0  0  0  0  0  0  0
    8.3729  -16.1238   22.6774 C   0  0  0  0  0  0  0  0  0  0  0  0
    9.5464  -16.3338   23.1377 O   0  0  0  0  0  0  0  0  0  0  0  0
    5.8531  -12.2624   26.8426 C   0  0  0  0  0  0  0  0  0  0  0  0
    7.0498  -13.1608   26.4950 C   0  0  2  0  0  0  0  0  0  0  0  0
    8.2723  -12.2768   26.6200 C   0  0  0  0  0  0  0  0  0  0  0  0
    6.8531  -13.6972   25.1280 C   0  0  0  0  0  0  0  0  0  0  0  0
    7.7163  -14.8300   24.7107 C   0  0  2  0  0  0  0  0  0  0  0  0
    7.4291  -15.3426   23.4009 N   0  0  0  0  0  0  0  0  0  0  0  0
    7.8128  -15.9412   25.6911 C   0  0  0  0  0  0  0  0  0  0  0  0
    6.8078  -16.6262   26.0105 O   0  0  0  0  0  0  0  0  0  0  0  0
   11.0586  -18.2306   25.7925 O   0  0  0  0  0  0  0  0  0  0  0  0
    9.8157  -18.5720   26.3554 C   0  0  0  0  0  0  0  0  0  0  0  0
    9.3174  -17.3686   27.1250 C   0  0  2  0  0  0  0  0  0  0  0  0
    9.0588  -16.2403   26.2819 N   0  0  0  0  0  0  0  0  0  0  0  0
   10.2136  -17.0340   28.2572 C   0  0  0  0  0  0  0  0  0  0  0  0
   10.7347  -15.7374   28.3640 O   0  0  0  0  0  0  0  0  0  0  0  0
   10.5442  -17.8438   29.1422 O   0  0  0  0  0  0  0  0  0  0  0  0
  2  1  1  6
  2  9  1  0
  3  2  1  0
  4  3  1  0
  5  4  2  0
  6  5  1  0
  7  6  1  0
  7  8  2  0
  8  4  1  0
  9 10  2  0
 12 11  1  6
 12 14  1  0
 12 13  1  0
 15 14  1  1
 16  9  1  0
 16 15  1  0
 17 15  1  0
 17 18  2  0
 19 20  1  0
 21 20  1  6
 21 22  1  0
 22 17  1  0
 23 24  1  0
 23 21  1  0
 25 23  2  0
M  END
$$$$
