HLS.pdb
     RDKit          3D

 25 25  0  0  1  0  0  0  0  0999 V2000
   10.3159  -14.8886   21.2069 N   0  0  0  0  0  0  0  0  0  0  0  0
    9.0254  -14.5331   21.7381 C   0  0  1  0  0  0  0  0  0  0  0  0
    7.9410  -15.1723   20.8983 C   0  0  0  0  0  0  0  0  0  0  0  0
    7.8970  -14.4489   19.6009 C   0  0  0  0  0  0  0  0  0  0  0  0
    8.7206  -13.4172   19.2506 C   0  0  0  0  0  0  0  0  0  0  0  0
    8.3747  -13.0260   18.0038 N   0  0  0  0  0  0  0  0  0  0  0  0
    7.3576  -13.7950   17.5829 C   0  0  0  0  0  0  0  0  0  0  0  0
    7.0640  -14.6697   18.5647 N   0  0  0  0  0  0  0  0  0  0  0  0
    8.9467  -14.9745   23.1576 C   0  0  0  0  0  0  0  0  0  0  0  0
    9.8906  -15.6761   23.6576 O   0  0  0  0  0  0  0  0  0  0  0  0
    8.1112  -12.0796   26.7545 C   0  0  0  0  0  0  0  0  0  0  0  0
    6.9019  -12.5492   25.9315 C   0  0  2  0  0  0  0  0  0  0  0  0
    5.7148  -11.7875   26.4812 C   0  0  0  0  0  0  0  0  0  0  0  0
    6.7743  -14.0178   26.0799 C   0  0  0  0  0  0  0  0  0  0  0  0
    7.7493  -14.8631   25.3470 C   0  0  2  0  0  0  0  0  0  0  0  0
    7.8148  -14.6047   23.9364 N   0  0  0  0  0  0  0  0  0  0  0  0
    7.6323  -16.3216   25.6005 C   0  0  0  0  0  0  0  0  0  0  0  0
    6.5310  -16.9206   25.5015 O   0  0  0  0  0  0  0  0  0  0  0  0
   10.7739  -18.8841   25.2361 O   0  0  0  0  0  0  0  0  0  0  0  0
    9.4596  -19.3512   25.4171 C   0  0  0  0  0  0  0  0  0  0  0  0
    8.7763  -18.4227   26.3967 C   0  0  2  0  0  0  0  0  0  0  0  0
    8.7802  -17.0584   25.9616 N   0  0  0  0  0  0  0  0  0  0  0  0
    9.3172  -18.5799   27.7678 C   0  0  0  0  0  0  0  0  0  0  0  0
    9.3251  -19.8480   28.3645 O   0  0  0  0  0  0  0  0  0  0  0  0
    9.7764  -17.6415   28.4435 O   0  0  0  0  0  0  0  0  0  0  0  0
  2  1  1  6
  2  9  1  0
  3  2  1  0
  4  3  1  0
  5  4  2  0
  6  5  1  0
  7  6  1  0
  7  8  2  0
  8  4  1  0
  9 10  2  0
 12 11  1  1
 12 14  1  0
 12 13  1  0
 15 14  1  6
 16  9  1  0
 16 15  1  0
 17 15  1  0
 17 18  2  0
 19 20  1  0
 21 20  1  6
 21 22  1  0
 22 17  1  0
 23 24  1  0
 23 21  1  0
 25 23  2  0
M  END
$$$$
