HLS.pdb
     RDKit          3D

 25 25  0  0  1  0  0  0  0  0999 V2000
   10.5128  -14.7399   21.4899 N   0  0  0  0  0  0  0  0  0  0  0  0
    9.1893  -14.3948   21.9406 C   0  0  1  0  0  0  0  0  0  0  0  0
    8.1676  -15.2026   21.1703 C   0  0  0  0  0  0  0  0  0  0  0  0
    8.0583  -14.6061   19.8136 C   0  0  0  0  0  0  0  0  0  0  0  0
    8.8335  -13.5855   19.3415 C   0  0  0  0  0  0  0  0  0  0  0  0
    8.4359  -13.3246   18.0762 N   0  0  0  0  0  0  0  0  0  0  0  0
    7.4346  -14.1625   17.7629 C   0  0  0  0  0  0  0  0  0  0  0  0
    7.2025  -14.9503   18.8310 N   0  0  0  0  0  0  0  0  0  0  0  0
    9.0936  -14.6487   23.4044 C   0  0  0  0  0  0  0  0  0  0  0  0
   10.1391  -14.9776   24.0613 O   0  0  0  0  0  0  0  0  0  0  0  0
    5.6543  -11.7641   27.1662 C   0  0  0  0  0  0  0  0  0  0  0  0
    6.9496  -12.4531   26.7106 C   0  0  2  0  0  0  0  0  0  0  0  0
    7.6557  -11.4481   25.8257 C   0  0  0  0  0  0  0  0  0  0  0  0
    6.5923  -13.7054   26.0041 C   0  0  0  0  0  0  0  0  0  0  0  0
    7.7072  -14.5323   25.4789 C   0  0  2  0  0  0  0  0  0  0  0  0
    7.8316  -14.5196   24.0488 N   0  0  0  0  0  0  0  0  0  0  0  0
    7.7506  -15.9262   25.9893 C   0  0  0  0  0  0  0  0  0  0  0  0
    7.6053  -16.1845   27.2113 O   0  0  0  0  0  0  0  0  0  0  0  0
    6.8506  -18.5909   23.4700 O   0  0  0  0  0  0  0  0  0  0  0  0
    7.6659  -19.3140   24.3592 C   0  0  0  0  0  0  0  0  0  0  0  0
    8.0949  -18.3668   25.4579 C   0  0  2  0  0  0  0  0  0  0  0  0
    7.9599  -16.9903   25.0866 N   0  0  0  0  0  0  0  0  0  0  0  0
    9.4537  -18.6867   25.9564 C   0  0  0  0  0  0  0  0  0  0  0  0
    9.7281  -19.9767   26.4303 O   0  0  0  0  0  0  0  0  0  0  0  0
   10.3918  -17.8698   25.9844 O   0  0  0  0  0  0  0  0  0  0  0  0
  2  1  1  6
  2  9  1  0
  3  2  1  0
  4  3  1  0
  5  4  2  0
  6  5  1  0
  7  6  1  0
  7  8  2  0
  8  4  1  0
  9 10  2  0
 12 11  1  6
 12 14  1  0
 12 13  1  0
 15 14  1  6
 16  9  1  0
 16 15  1  0
 17 15  1  0
 17 18  2  0
 19 20  1  0
 21 20  1  6
 21 22  1  0
 22 17  1  0
 23 24  1  0
 23 21  1  0
 25 23  2  0
M  END
$$$$
