HLS.pdb
     RDKit          3D

 25 25  0  0  1  0  0  0  0  0999 V2000
   10.8420  -14.8978   20.4013 N   0  0  0  0  0  0  0  0  0  0  0  0
    9.4946  -14.6375   20.8380 C   0  0  1  0  0  0  0  0  0  0  0  0
    8.5458  -15.5869   20.1393 C   0  0  0  0  0  0  0  0  0  0  0  0
    8.1195  -14.9389   18.8717 C   0  0  0  0  0  0  0  0  0  0  0  0
    8.5456  -13.7173   18.4342 C   0  0  0  0  0  0  0  0  0  0  0  0
    7.9392  -13.4749   17.2507 N   0  0  0  0  0  0  0  0  0  0  0  0
    7.1513  -14.5208   16.9537 C   0  0  0  0  0  0  0  0  0  0  0  0
    7.2622  -15.4208   17.9502 N   0  0  0  0  0  0  0  0  0  0  0  0
    9.4262  -14.7892   22.3174 C   0  0  0  0  0  0  0  0  0  0  0  0
   10.2909  -15.5097   22.9223 O   0  0  0  0  0  0  0  0  0  0  0  0
    5.9267  -12.4542   26.9108 C   0  0  0  0  0  0  0  0  0  0  0  0
    7.1907  -13.2429   26.5362 C   0  0  2  0  0  0  0  0  0  0  0  0
    8.3325  -12.5399   27.2388 C   0  0  0  0  0  0  0  0  0  0  0  0
    7.3239  -13.2439   25.0606 C   0  0  0  0  0  0  0  0  0  0  0  0
    8.3056  -14.1851   24.4665 C   0  0  2  0  0  0  0  0  0  0  0  0
    8.3926  -14.1248   23.0348 N   0  0  0  0  0  0  0  0  0  0  0  0
    8.1782  -15.5941   24.9178 C   0  0  0  0  0  0  0  0  0  0  0  0
    7.1444  -16.2699   24.6820 O   0  0  0  0  0  0  0  0  0  0  0  0
   11.1638  -18.1190   24.9562 O   0  0  0  0  0  0  0  0  0  0  0  0
    9.8447  -18.5343   25.2129 C   0  0  0  0  0  0  0  0  0  0  0  0
    9.2241  -17.5263   26.1548 C   0  0  2  0  0  0  0  0  0  0  0  0
    9.2390  -16.1944   25.6288 N   0  0  0  0  0  0  0  0  0  0  0  0
    9.8196  -17.6050   27.5099 C   0  0  0  0  0  0  0  0  0  0  0  0
    9.8205  -18.8290   28.1925 O   0  0  0  0  0  0  0  0  0  0  0  0
   10.3319  -16.6362   28.0993 O   0  0  0  0  0  0  0  0  0  0  0  0
  2  1  1  6
  2  9  1  0
  3  2  1  0
  4  3  1  0
  5  4  2  0
  6  5  1  0
  7  6  1  0
  7  8  2  0
  8  4  1  0
  9 10  2  0
 12 11  1  6
 12 14  1  0
 12 13  1  0
 15 14  1  6
 16  9  1  0
 16 15  1  0
 17 15  1  0
 17 18  2  0
 19 20  1  0
 21 20  1  6
 21 22  1  0
 22 17  1  0
 23 24  1  0
 23 21  1  0
 25 23  2  0
M  END
$$$$
