HLS.pdb
     RDKit          3D

 25 25  0  0  1  0  0  0  0  0999 V2000
   10.4562  -14.6688   21.0199 N   0  0  0  0  0  0  0  0  0  0  0  0
    9.1551  -14.3772   21.5637 C   0  0  1  0  0  0  0  0  0  0  0  0
    8.1055  -15.1652   20.8105 C   0  0  0  0  0  0  0  0  0  0  0  0
    7.8712  -14.4728   19.5166 C   0  0  0  0  0  0  0  0  0  0  0  0
    8.5467  -13.3665   19.0862 C   0  0  0  0  0  0  0  0  0  0  0  0
    8.0530  -13.0352   17.8723 N   0  0  0  0  0  0  0  0  0  0  0  0
    7.0903  -13.9140   17.5497 C   0  0  0  0  0  0  0  0  0  0  0  0
    6.9786  -14.7977   18.5605 N   0  0  0  0  0  0  0  0  0  0  0  0
    9.1497  -14.7103   23.0146 C   0  0  0  0  0  0  0  0  0  0  0  0
   10.1713  -15.2684   23.5416 O   0  0  0  0  0  0  0  0  0  0  0  0
    5.6705  -12.2341   27.0705 C   0  0  0  0  0  0  0  0  0  0  0  0
    7.0215  -12.8843   26.7357 C   0  0  2  0  0  0  0  0  0  0  0  0
    7.8257  -11.8125   26.0313 C   0  0  0  0  0  0  0  0  0  0  0  0
    6.7728  -14.0775   25.8933 C   0  0  0  0  0  0  0  0  0  0  0  0
    7.9403  -14.6764   25.2000 C   0  0  2  0  0  0  0  0  0  0  0  0
    7.9998  -14.3991   23.7926 N   0  0  0  0  0  0  0  0  0  0  0  0
    8.1447  -16.1257   25.4504 C   0  0  0  0  0  0  0  0  0  0  0  0
    7.2988  -16.9822   25.0871 O   0  0  0  0  0  0  0  0  0  0  0  0
   10.3693  -18.4643   24.4473 O   0  0  0  0  0  0  0  0  0  0  0  0
   10.6498  -18.5942   25.8194 C   0  0  0  0  0  0  0  0  0  0  0  0
    9.5462  -17.8918   26.5793 C   0  0  2  0  0  0  0  0  0  0  0  0
    9.3137  -16.5583   26.1117 N   0  0  0  0  0  0  0  0  0  0  0  0
    9.7701  -17.9459   28.0435 C   0  0  0  0  0  0  0  0  0  0  0  0
    9.9235  -19.1892   28.6719 O   0  0  0  0  0  0  0  0  0  0  0  0
    9.8330  -16.9397   28.7728 O   0  0  0  0  0  0  0  0  0  0  0  0
  2  1  1  6
  2  9  1  0
  3  2  1  0
  4  3  1  0
  5  4  2  0
  6  5  1  0
  7  6  1  0
  7  8  2  0
  8  4  1  0
  9 10  2  0
 12 11  1  6
 12 14  1  0
 12 13  1  0
 15 14  1  6
 16  9  1  0
 16 15  1  0
 17 15  1  0
 17 18  2  0
 19 20  1  0
 21 20  1  6
 21 22  1  0
 22 17  1  0
 23 24  1  0
 23 21  1  0
 25 23  2  0
M  END
$$$$
