HLS.pdb
     RDKit          3D

 25 25  0  0  1  0  0  0  0  0999 V2000
   10.6285  -14.7372   20.3738 N   0  0  0  0  0  0  0  0  0  0  0  0
    9.2949  -14.4270   20.8202 C   0  0  1  0  0  0  0  0  0  0  0  0
    8.3055  -15.3345   20.1221 C   0  0  0  0  0  0  0  0  0  0  0  0
    8.1070  -14.8047   18.7480 C   0  0  0  0  0  0  0  0  0  0  0  0
    8.7712  -13.7361   18.2165 C   0  0  0  0  0  0  0  0  0  0  0  0
    8.3195  -13.5632   16.9543 N   0  0  0  0  0  0  0  0  0  0  0  0
    7.3935  -14.5020   16.7009 C   0  0  0  0  0  0  0  0  0  0  0  0
    7.2629  -15.2652   17.8035 N   0  0  0  0  0  0  0  0  0  0  0  0
    9.2293  -14.5844   22.2991 C   0  0  0  0  0  0  0  0  0  0  0  0
   10.1068  -15.2913   22.9017 O   0  0  0  0  0  0  0  0  0  0  0  0
    5.6431  -12.4002   26.9063 C   0  0  0  0  0  0  0  0  0  0  0  0
    6.9154  -13.1709   26.5223 C   0  0  2  0  0  0  0  0  0  0  0  0
    8.0506  -12.4597   27.2274 C   0  0  0  0  0  0  0  0  0  0  0  0
    7.0445  -13.1589   25.0464 C   0  0  0  0  0  0  0  0  0  0  0  0
    8.0711  -14.0466   24.4458 C   0  0  2  0  0  0  0  0  0  0  0  0
    8.1842  -13.9407   23.0186 N   0  0  0  0  0  0  0  0  0  0  0  0
    7.9857  -15.4720   24.8533 C   0  0  0  0  0  0  0  0  0  0  0  0
    7.0182  -16.1980   24.5096 O   0  0  0  0  0  0  0  0  0  0  0  0
    9.7763  -19.5514   25.0892 O   0  0  0  0  0  0  0  0  0  0  0  0
    9.6574  -18.2029   24.7073 C   0  0  0  0  0  0  0  0  0  0  0  0
    9.1720  -17.4284   25.9128 C   0  0  2  0  0  0  0  0  0  0  0  0
    9.0112  -16.0308   25.6452 N   0  0  0  0  0  0  0  0  0  0  0  0
   10.0184  -17.6819   27.1029 C   0  0  0  0  0  0  0  0  0  0  0  0
   10.5532  -16.5978   27.8120 O   0  0  0  0  0  0  0  0  0  0  0  0
   10.2947  -18.8184   27.5276 O   0  0  0  0  0  0  0  0  0  0  0  0
  2  1  1  6
  2  9  1  0
  3  2  1  0
  4  3  1  0
  5  4  2  0
  6  5  1  0
  7  6  1  0
  7  8  2  0
  8  4  1  0
  9 10  2  0
 12 11  1  6
 12 14  1  0
 12 13  1  0
 15 14  1  6
 16  9  1  0
 16 15  1  0
 17 15  1  0
 17 18  2  0
 19 20  1  0
 21 20  1  6
 21 22  1  0
 22 17  1  0
 23 24  1  0
 23 21  1  0
 25 23  2  0
M  END
$$$$
