HLS.pdb
     RDKit          3D

 25 25  0  0  1  0  0  0  0  0999 V2000
   10.3932  -14.7577   21.1704 N   0  0  0  0  0  0  0  0  0  0  0  0
    9.1026  -14.4626   21.7370 C   0  0  1  0  0  0  0  0  0  0  0  0
    8.0297  -15.1831   20.9498 C   0  0  0  0  0  0  0  0  0  0  0  0
    7.9284  -14.5202   19.6237 C   0  0  0  0  0  0  0  0  0  0  0  0
    8.7580  -13.5318   19.1762 C   0  0  0  0  0  0  0  0  0  0  0  0
    8.3492  -13.1889   17.9343 N   0  0  0  0  0  0  0  0  0  0  0  0
    7.2878  -13.9452   17.6112 C   0  0  0  0  0  0  0  0  0  0  0  0
    7.0291  -14.7636   18.6497 N   0  0  0  0  0  0  0  0  0  0  0  0
    9.0959  -14.8717   23.1683 C   0  0  0  0  0  0  0  0  0  0  0  0
   10.0519  -15.5833   23.6296 O   0  0  0  0  0  0  0  0  0  0  0  0
    8.0140  -11.9572   26.7862 C   0  0  0  0  0  0  0  0  0  0  0  0
    6.8376  -12.5832   26.0218 C   0  0  2  0  0  0  0  0  0  0  0  0
    5.5890  -11.9940   26.6427 C   0  0  0  0  0  0  0  0  0  0  0  0
    6.9194  -14.0563   26.1580 C   0  0  0  0  0  0  0  0  0  0  0  0
    7.9950  -14.7504   25.4072 C   0  0  2  0  0  0  0  0  0  0  0  0
    8.0184  -14.4603   24.0014 N   0  0  0  0  0  0  0  0  0  0  0  0
    8.0750  -16.2158   25.6340 C   0  0  0  0  0  0  0  0  0  0  0  0
    7.1617  -16.9917   25.2531 O   0  0  0  0  0  0  0  0  0  0  0  0
   10.4900  -20.1509   25.9751 O   0  0  0  0  0  0  0  0  0  0  0  0
   10.3404  -18.8085   25.5827 C   0  0  0  0  0  0  0  0  0  0  0  0
    9.4000  -18.1477   26.5664 C   0  0  2  0  0  0  0  0  0  0  0  0
    9.1999  -16.7565   26.2924 N   0  0  0  0  0  0  0  0  0  0  0  0
    9.8141  -18.3934   27.9683 C   0  0  0  0  0  0  0  0  0  0  0  0
    9.8954  -19.7097   28.4425 O   0  0  0  0  0  0  0  0  0  0  0  0
   10.1019  -17.4902   28.7744 O   0  0  0  0  0  0  0  0  0  0  0  0
  2  1  1  6
  2  9  1  0
  3  2  1  0
  4  3  1  0
  5  4  2  0
  6  5  1  0
  7  6  1  0
  7  8  2  0
  8  4  1  0
  9 10  2  0
 12 11  1  1
 12 14  1  0
 12 13  1  0
 15 14  1  6
 16  9  1  0
 16 15  1  0
 17 15  1  0
 17 18  2  0
 19 20  1  0
 21 20  1  6
 21 22  1  0
 22 17  1  0
 23 24  1  0
 23 21  1  0
 25 23  2  0
M  END
$$$$
