HLS.pdb
     RDKit          3D

 25 25  0  0  1  0  0  0  0  0999 V2000
   12.4568  -15.4450   14.8614 N   0  0  0  0  0  0  0  0  0  0  0  0
   11.6047  -16.1676   15.7701 C   0  0  1  0  0  0  0  0  0  0  0  0
   11.9916  -17.6305   15.7688 C   0  0  0  0  0  0  0  0  0  0  0  0
   11.3153  -18.2697   14.6102 C   0  0  0  0  0  0  0  0  0  0  0  0
   10.4753  -17.6310   13.7431 C   0  0  0  0  0  0  0  0  0  0  0  0
   10.0642  -18.5401   12.8312 N   0  0  0  0  0  0  0  0  0  0  0  0
   10.6336  -19.7213   13.1205 C   0  0  0  0  0  0  0  0  0  0  0  0
   11.4027  -19.5550   14.2141 N   0  0  0  0  0  0  0  0  0  0  0  0
   11.7288  -15.5722   17.1289 C   0  0  0  0  0  0  0  0  0  0  0  0
   12.8637  -15.1475   17.5347 O   0  0  0  0  0  0  0  0  0  0  0  0
    9.2168  -12.2245   19.0598 C   0  0  0  0  0  0  0  0  0  0  0  0
    8.4996  -13.5831   19.0558 C   0  0  2  0  0  0  0  0  0  0  0  0
    7.1349  -13.3248   19.6579 C   0  0  0  0  0  0  0  0  0  0  0  0
    9.3112  -14.5452   19.8375 C   0  0  0  0  0  0  0  0  0  0  0  0
   10.6303  -14.9337   19.2795 C   0  0  2  0  0  0  0  0  0  0  0  0
   10.5741  -15.4866   17.9559 N   0  0  0  0  0  0  0  0  0  0  0  0
   11.4587  -15.7923   20.1637 C   0  0  0  0  0  0  0  0  0  0  0  0
   11.3663  -17.0461   20.1382 O   0  0  0  0  0  0  0  0  0  0  0  0
   14.9456  -15.8423   23.5557 O   0  0  0  0  0  0  0  0  0  0  0  0
   14.2594  -15.0510   22.6169 C   0  0  0  0  0  0  0  0  0  0  0  0
   13.1530  -15.8983   22.0280 C   0  0  2  0  0  0  0  0  0  0  0  0
   12.3728  -15.1930   21.0561 N   0  0  0  0  0  0  0  0  0  0  0  0
   12.3159  -16.5158   23.0840 C   0  0  0  0  0  0  0  0  0  0  0  0
   12.8678  -17.5029   23.9118 O   0  0  0  0  0  0  0  0  0  0  0  0
   11.1275  -16.2118   23.2927 O   0  0  0  0  0  0  0  0  0  0  0  0
  2  1  1  6
  2  9  1  0
  3  2  1  0
  4  3  1  0
  5  4  2  0
  6  5  1  0
  7  6  1  0
  7  8  2  0
  8  4  1  0
  9 10  2  0
 12 11  1  1
 12 14  1  0
 12 13  1  0
 15 14  1  1
 16  9  1  0
 16 15  1  0
 17 15  1  0
 17 18  2  0
 19 20  1  0
 21 20  1  1
 21 22  1  0
 22 17  1  0
 23 24  1  0
 23 21  1  0
 25 23  2  0
M  END
$$$$
