HLS.pdb
     RDKit          3D

 25 25  0  0  1  0  0  0  0  0999 V2000
   11.2198  -17.1358   14.8714 N   0  0  0  0  0  0  0  0  0  0  0  0
   10.3961  -17.6087   15.9539 C   0  0  1  0  0  0  0  0  0  0  0  0
   10.8076  -19.0175   16.3223 C   0  0  0  0  0  0  0  0  0  0  0  0
   10.1913  -19.9361   15.3300 C   0  0  0  0  0  0  0  0  0  0  0  0
    9.3145  -19.5599   14.3526 C   0  0  0  0  0  0  0  0  0  0  0  0
    8.9804  -20.6695   13.6568 N   0  0  0  0  0  0  0  0  0  0  0  0
    9.6330  -21.7169   14.1862 C   0  0  0  0  0  0  0  0  0  0  0  0
   10.3774  -21.2660   15.2147 N   0  0  0  0  0  0  0  0  0  0  0  0
   10.5340  -16.6808   17.1097 C   0  0  0  0  0  0  0  0  0  0  0  0
   11.6882  -16.2396   17.4355 O   0  0  0  0  0  0  0  0  0  0  0  0
    6.7476  -13.2784   20.6333 C   0  0  0  0  0  0  0  0  0  0  0  0
    8.1986  -13.5948   20.2403 C   0  0  2  0  0  0  0  0  0  0  0  0
    8.7989  -12.2757   19.8029 C   0  0  0  0  0  0  0  0  0  0  0  0
    8.1826  -14.6150   19.1660 C   0  0  0  0  0  0  0  0  0  0  0  0
    9.4324  -15.3818   18.9369 C   0  0  2  0  0  0  0  0  0  0  0  0
    9.3706  -16.2998   17.8350 N   0  0  0  0  0  0  0  0  0  0  0  0
    9.9870  -16.0539   20.1393 C   0  0  0  0  0  0  0  0  0  0  0  0
    9.6123  -17.2042   20.4820 O   0  0  0  0  0  0  0  0  0  0  0  0
   13.7850  -15.4747   21.2731 O   0  0  0  0  0  0  0  0  0  0  0  0
   12.9308  -15.2710   22.3718 C   0  0  0  0  0  0  0  0  0  0  0  0
   11.6167  -15.9529   22.0606 C   0  0  2  0  0  0  0  0  0  0  0  0
   10.9576  -15.3910   20.9202 N   0  0  0  0  0  0  0  0  0  0  0  0
   10.7351  -16.0107   23.2508 C   0  0  0  0  0  0  0  0  0  0  0  0
   11.1726  -16.6818   24.4007 O   0  0  0  0  0  0  0  0  0  0  0  0
    9.6052  -15.4922   23.3023 O   0  0  0  0  0  0  0  0  0  0  0  0
  2  1  1  6
  2  9  1  0
  3  2  1  0
  4  3  1  0
  5  4  2  0
  6  5  1  0
  7  6  1  0
  7  8  2  0
  8  4  1  0
  9 10  2  0
 12 11  1  6
 12 14  1  0
 12 13  1  0
 15 14  1  1
 16  9  1  0
 16 15  1  0
 17 15  1  0
 17 18  2  0
 19 20  1  0
 21 20  1  1
 21 22  1  0
 22 17  1  0
 23 24  1  0
 23 21  1  0
 25 23  2  0
M  END
$$$$
