HLS.pdb
     RDKit          3D

 25 25  0  0  1  0  0  0  0  0999 V2000
   10.1197  -14.6438   21.0382 N   0  0  0  0  0  0  0  0  0  0  0  0
    8.8387  -14.3728   21.6378 C   0  0  1  0  0  0  0  0  0  0  0  0
    7.7588  -15.1074   20.8736 C   0  0  0  0  0  0  0  0  0  0  0  0
    7.7700  -14.5924   19.4796 C   0  0  0  0  0  0  0  0  0  0  0  0
    7.9176  -13.2804   19.1301 C   0  0  0  0  0  0  0  0  0  0  0  0
    7.8757  -13.2118   17.7808 N   0  0  0  0  0  0  0  0  0  0  0  0
    7.7057  -14.4525   17.2962 C   0  0  0  0  0  0  0  0  0  0  0  0
    7.6407  -15.3012   18.3406 N   0  0  0  0  0  0  0  0  0  0  0  0
    8.8741  -14.7887   23.0667 C   0  0  0  0  0  0  0  0  0  0  0  0
    9.8393  -15.5087   23.4946 O   0  0  0  0  0  0  0  0  0  0  0  0
    8.0579  -11.8661   26.7418 C   0  0  0  0  0  0  0  0  0  0  0  0
    6.8523  -12.4410   25.9827 C   0  0  2  0  0  0  0  0  0  0  0  0
    5.6348  -11.7774   26.5900 C   0  0  0  0  0  0  0  0  0  0  0  0
    6.8560  -13.9141   26.1417 C   0  0  0  0  0  0  0  0  0  0  0  0
    7.8377  -14.6829   25.3370 C   0  0  2  0  0  0  0  0  0  0  0  0
    7.8259  -14.3743   23.9350 N   0  0  0  0  0  0  0  0  0  0  0  0
    7.8054  -16.1532   25.5429 C   0  0  0  0  0  0  0  0  0  0  0  0
    6.7579  -16.8219   25.3508 O   0  0  0  0  0  0  0  0  0  0  0  0
   11.1301  -18.4545   25.2801 O   0  0  0  0  0  0  0  0  0  0  0  0
    9.8512  -19.0332   25.3686 C   0  0  0  0  0  0  0  0  0  0  0  0
    9.0405  -18.2023   26.3386 C   0  0  2  0  0  0  0  0  0  0  0  0
    8.9744  -16.8215   25.9645 N   0  0  0  0  0  0  0  0  0  0  0  0
    9.5012  -18.3875   27.7353 C   0  0  0  0  0  0  0  0  0  0  0  0
    9.5363  -19.6764   28.2844 O   0  0  0  0  0  0  0  0  0  0  0  0
    9.8682  -17.4555   28.4735 O   0  0  0  0  0  0  0  0  0  0  0  0
  2  1  1  6
  2  9  1  0
  3  2  1  0
  4  3  1  0
  5  4  2  0
  6  5  1  0
  7  6  1  0
  7  8  2  0
  8  4  1  0
  9 10  2  0
 12 11  1  1
 12 14  1  0
 12 13  1  0
 15 14  1  1
 16  9  1  0
 16 15  1  0
 17 15  1  0
 17 18  2  0
 19 20  1  0
 21 20  1  6
 21 22  1  0
 22 17  1  0
 23 24  1  0
 23 21  1  0
 25 23  2  0
M  END
$$$$
