HLS.pdb
     RDKit          3D

 25 25  0  0  1  0  0  0  0  0999 V2000
   10.0809  -14.9385   21.2126 N   0  0  0  0  0  0  0  0  0  0  0  0
    8.8513  -14.4150   21.7491 C   0  0  1  0  0  0  0  0  0  0  0  0
    7.6852  -14.9325   20.9353 C   0  0  0  0  0  0  0  0  0  0  0  0
    7.8597  -14.4413   19.5437 C   0  0  0  0  0  0  0  0  0  0  0  0
    8.2989  -13.1939   19.2022 C   0  0  0  0  0  0  0  0  0  0  0  0
    8.3240  -13.1269   17.8524 N   0  0  0  0  0  0  0  0  0  0  0  0
    7.9100  -14.3054   17.3596 C   0  0  0  0  0  0  0  0  0  0  0  0
    7.6246  -15.1134   18.3993 N   0  0  0  0  0  0  0  0  0  0  0  0
    8.7373  -14.8133   23.1790 C   0  0  0  0  0  0  0  0  0  0  0  0
    9.6174  -15.5824   23.6958 O   0  0  0  0  0  0  0  0  0  0  0  0
    7.8869  -11.9323   26.7932 C   0  0  0  0  0  0  0  0  0  0  0  0
    6.6436  -12.3340   25.9852 C   0  0  2  0  0  0  0  0  0  0  0  0
    5.4886  -11.5866   26.6168 C   0  0  0  0  0  0  0  0  0  0  0  0
    6.4945  -13.8065   26.0533 C   0  0  0  0  0  0  0  0  0  0  0  0
    7.5093  -14.6267   25.3461 C   0  0  2  0  0  0  0  0  0  0  0  0
    7.6437  -14.3273   23.9485 N   0  0  0  0  0  0  0  0  0  0  0  0
    7.3873  -16.0923   25.5515 C   0  0  0  0  0  0  0  0  0  0  0  0
    6.3791  -16.7308   25.1550 O   0  0  0  0  0  0  0  0  0  0  0  0
    8.8560  -20.3490   25.5430 O   0  0  0  0  0  0  0  0  0  0  0  0
    8.8543  -18.9851   25.1994 C   0  0  0  0  0  0  0  0  0  0  0  0
    8.4465  -18.2051   26.4298 C   0  0  2  0  0  0  0  0  0  0  0  0
    8.4236  -16.7907   26.2066 N   0  0  0  0  0  0  0  0  0  0  0  0
    9.2635  -18.5776   27.6092 C   0  0  0  0  0  0  0  0  0  0  0  0
    9.2328  -19.8972   28.0801 O   0  0  0  0  0  0  0  0  0  0  0  0
    9.9934  -17.7809   28.2264 O   0  0  0  0  0  0  0  0  0  0  0  0
  2  1  1  6
  2  9  1  0
  3  2  1  0
  4  3  1  0
  5  4  2  0
  6  5  1  0
  7  6  1  0
  7  8  2  0
  8  4  1  0
  9 10  2  0
 12 11  1  1
 12 14  1  0
 12 13  1  0
 15 14  1  6
 16  9  1  0
 16 15  1  0
 17 15  1  0
 17 18  2  0
 19 20  1  0
 21 20  1  6
 21 22  1  0
 22 17  1  0
 23 24  1  0
 23 21  1  0
 25 23  2  0
M  END
$$$$
