KLE.pdb
     RDKit          3D

 27 26  0  0  1  0  0  0  0  0999 V2000
   19.7894  -22.9791   -9.5879 N   0  0  0  0  0  0  0  0  0  0  0  0
   20.1644  -23.2651  -10.9545 C   0  0  1  0  0  0  0  0  0  0  0  0
   18.9343  -23.6757  -11.7105 C   0  0  0  0  0  0  0  0  0  0  0  0
   17.6893  -23.4635  -10.9019 C   0  0  0  0  0  0  0  0  0  0  0  0
   17.3147  -24.6630  -10.0771 C   0  0  0  0  0  0  0  0  0  0  0  0
   15.9097  -24.5003   -9.5134 C   0  0  0  0  0  0  0  0  0  0  0  0
   15.6443  -25.5959   -8.6269 N   0  0  0  0  0  0  0  0  0  0  0  0
   20.8400  -22.0976  -11.5808 C   0  0  0  0  0  0  0  0  0  0  0  0
   20.5244  -20.9174  -11.3605 O   0  0  0  0  0  0  0  0  0  0  0  0
   26.2987  -22.1203  -11.9369 C   0  0  0  0  0  0  0  0  0  0  0  0
   24.8196  -21.7091  -11.6287 C   0  0  1  0  0  0  0  0  0  0  0  0
   24.9975  -20.2868  -11.0879 C   0  0  0  0  0  0  0  0  0  0  0  0
   24.1533  -21.6576  -12.9564 C   0  0  0  0  0  0  0  0  0  0  0  0
   22.7411  -21.2278  -13.0039 C   0  0  2  0  0  0  0  0  0  0  0  0
   21.9017  -22.3437  -12.4780 N   0  0  0  0  0  0  0  0  0  0  0  0
   22.2204  -20.9941  -14.3460 C   0  0  0  0  0  0  0  0  0  0  0  0
   21.7930  -22.0060  -14.9945 O   0  0  0  0  0  0  0  0  0  0  0  0
   22.1153  -19.7496  -15.0290 N   0  0  0  0  0  0  0  0  0  0  0  0
   21.4805  -19.7401  -16.3285 C   0  0  1  0  0  0  0  0  0  0  0  0
   20.8335  -18.3434  -16.4941 C   0  0  0  0  0  0  0  0  0  0  0  0
   20.1263  -18.3688  -17.8246 C   0  0  0  0  0  0  0  0  0  0  0  0
   19.5206  -17.0321  -18.0457 C   0  0  0  0  0  0  0  0  0  0  0  0
   20.0609  -16.0443  -17.4646 O   0  0  0  0  0  0  0  0  0  0  0  0
   22.4528  -19.9791  -17.3820 C   0  0  0  0  0  0  0  0  0  0  0  0
   23.6908  -19.8348  -17.0983 O   0  0  0  0  0  0  0  0  0  0  0  0
   18.4208  -16.8484  -18.8422 O   0  0  0  0  0  0  0  0  0  0  0  0
   22.1592  -20.3514  -18.6656 O   0  0  0  0  0  0  0  0  0  0  0  0
  2  1  1  1
  3  2  1  0
  4  3  1  0
  4  5  1  0
  5  6  1  0
  7  6  1  0
  8  2  1  0
  8  9  2  0
 11 10  1  6
 11 13  1  0
 11 12  1  0
 14 13  1  6
 14 15  1  0
 15  8  1  0
 16 14  1  0
 17 16  2  0
 18 16  1  0
 19 18  1  0
 19 24  1  0
 19 20  1  6
 21 20  1  0
 22 21  1  0
 22 23  2  0
 24 27  1  0
 25 24  2  0
 26 22  1  0
M  END
$$$$
