KLE.pdb
     RDKit          3D

 27 26  0  0  1  0  0  0  0  0999 V2000
   21.0917  -13.7226  -19.2180 N   0  0  0  0  0  0  0  0  0  0  0  0
   21.8518  -12.5072  -19.4053 C   0  0  1  0  0  0  0  0  0  0  0  0
   21.0325  -11.5541  -20.2259 C   0  0  0  0  0  0  0  0  0  0  0  0
   20.2804  -12.2625  -21.3130 C   0  0  0  0  0  0  0  0  0  0  0  0
   19.4953  -11.3262  -22.1883 C   0  0  0  0  0  0  0  0  0  0  0  0
   18.6904  -12.1109  -23.2153 C   0  0  0  0  0  0  0  0  0  0  0  0
   17.3078  -12.0734  -22.8365 N   0  0  0  0  0  0  0  0  0  0  0  0
   22.2512  -11.9178  -18.0996 C   0  0  0  0  0  0  0  0  0  0  0  0
   21.6043  -12.0628  -17.0500 O   0  0  0  0  0  0  0  0  0  0  0  0
   25.8525  -10.8605  -14.3769 C   0  0  0  0  0  0  0  0  0  0  0  0
   26.0790   -9.9339  -15.6187 C   0  0  1  0  0  0  0  0  0  0  0  0
   27.5930  -10.0498  -15.8223 C   0  0  0  0  0  0  0  0  0  0  0  0
   25.3726  -10.6137  -16.7360 C   0  0  0  0  0  0  0  0  0  0  0  0
   23.8984  -10.5323  -16.7719 C   0  0  2  0  0  0  0  0  0  0  0  0
   23.4338  -11.1487  -18.0489 N   0  0  0  0  0  0  0  0  0  0  0  0
   23.3642   -9.1761  -16.8175 C   0  0  0  0  0  0  0  0  0  0  0  0
   23.6778   -8.4548  -17.8218 O   0  0  0  0  0  0  0  0  0  0  0  0
   22.5078   -8.5508  -15.8677 N   0  0  0  0  0  0  0  0  0  0  0  0
   22.0778   -7.1952  -16.1307 C   0  0  1  0  0  0  0  0  0  0  0  0
   20.5328   -7.2320  -16.2240 C   0  0  0  0  0  0  0  0  0  0  0  0
   20.0969   -5.8076  -16.4526 C   0  0  0  0  0  0  0  0  0  0  0  0
   18.6154   -5.7916  -16.5391 C   0  0  0  0  0  0  0  0  0  0  0  0
   18.0102   -6.8928  -16.3766 O   0  0  0  0  0  0  0  0  0  0  0  0
   22.5026   -6.3010  -15.0667 C   0  0  0  0  0  0  0  0  0  0  0  0
   22.7249   -6.8056  -13.9135 O   0  0  0  0  0  0  0  0  0  0  0  0
   17.9079   -4.6439  -16.7841 O   0  0  0  0  0  0  0  0  0  0  0  0
   22.6907   -4.9512  -15.1900 O   0  0  0  0  0  0  0  0  0  0  0  0
  2  1  1  1
  3  2  1  0
  4  3  1  0
  4  5  1  0
  5  6  1  0
  7  6  1  0
  8  2  1  0
  8  9  2  0
 11 10  1  1
 11 13  1  0
 11 12  1  0
 14 13  1  6
 14 15  1  0
 15  8  1  0
 16 14  1  0
 17 16  2  0
 18 16  1  0
 19 18  1  0
 19 24  1  0
 19 20  1  1
 21 20  1  0
 22 21  1  0
 22 23  2  0
 24 27  1  0
 25 24  2  0
 26 22  1  0
M  END
$$$$
