KLE.pdb
     RDKit          3D

 27 26  0  0  1  0  0  0  0  0999 V2000
   18.0653  -10.7539  -15.4345 N   0  0  0  0  0  0  0  0  0  0  0  0
   17.3560   -9.5470  -15.0737 C   0  0  1  0  0  0  0  0  0  0  0  0
   15.9795   -9.9239  -14.6086 C   0  0  0  0  0  0  0  0  0  0  0  0
   15.4735  -11.1498  -15.3086 C   0  0  0  0  0  0  0  0  0  0  0  0
   14.0178  -11.4162  -15.0452 C   0  0  0  0  0  0  0  0  0  0  0  0
   13.5497  -12.6297  -15.8368 C   0  0  0  0  0  0  0  0  0  0  0  0
   12.1574  -12.8416  -15.5659 N   0  0  0  0  0  0  0  0  0  0  0  0
   18.1006   -8.7749  -14.0435 C   0  0  0  0  0  0  0  0  0  0  0  0
   19.0358   -9.2411  -13.3734 O   0  0  0  0  0  0  0  0  0  0  0  0
   21.4328   -5.9553  -11.8907 C   0  0  0  0  0  0  0  0  0  0  0  0
   20.7910   -5.3077  -13.1637 C   0  0  1  0  0  0  0  0  0  0  0  0
   22.0004   -5.1885  -14.0965 C   0  0  0  0  0  0  0  0  0  0  0  0
   19.8577   -6.3394  -13.6873 C   0  0  0  0  0  0  0  0  0  0  0  0
   18.5712   -6.5262  -12.9863 C   0  0  2  0  0  0  0  0  0  0  0  0
   17.7235   -7.4342  -13.8130 N   0  0  0  0  0  0  0  0  0  0  0  0
   17.7690   -5.3157  -12.8526 C   0  0  0  0  0  0  0  0  0  0  0  0
   17.3164   -4.7900  -13.9231 O   0  0  0  0  0  0  0  0  0  0  0  0
   17.4102   -4.6436  -11.6502 N   0  0  0  0  0  0  0  0  0  0  0  0
   16.6401   -3.4241  -11.7582 C   0  0  1  0  0  0  0  0  0  0  0  0
   16.0005   -3.1810  -10.3694 C   0  0  0  0  0  0  0  0  0  0  0  0
   14.8851   -4.1867  -10.2445 C   0  0  0  0  0  0  0  0  0  0  0  0
   14.1925   -3.9430   -8.9547 C   0  0  0  0  0  0  0  0  0  0  0  0
   14.6057   -2.9784   -8.2447 O   0  0  0  0  0  0  0  0  0  0  0  0
   17.4902   -2.3055  -12.1302 C   0  0  0  0  0  0  0  0  0  0  0  0
   18.7366   -2.3839  -11.8573 O   0  0  0  0  0  0  0  0  0  0  0  0
   13.1455   -4.7168   -8.5274 O   0  0  0  0  0  0  0  0  0  0  0  0
   17.0721   -1.1627  -12.7560 O   0  0  0  0  0  0  0  0  0  0  0  0
  2  1  1  1
  3  2  1  0
  4  3  1  0
  4  5  1  0
  5  6  1  0
  7  6  1  0
  8  2  1  0
  8  9  2  0
 11 10  1  1
 11 13  1  0
 11 12  1  0
 14 13  1  6
 14 15  1  0
 15  8  1  0
 16 14  1  0
 17 16  2  0
 18 16  1  0
 19 18  1  0
 19 24  1  0
 19 20  1  1
 21 20  1  0
 22 21  1  0
 22 23  2  0
 24 27  1  0
 25 24  2  0
 26 22  1  0
M  END
$$$$
