KLE.pdb
     RDKit          3D

 27 26  0  0  1  0  0  0  0  0999 V2000
   21.9006  -16.2584  -15.6908 N   0  0  0  0  0  0  0  0  0  0  0  0
   21.8452  -15.1175  -16.5768 C   0  0  1  0  0  0  0  0  0  0  0  0
   20.4058  -14.7475  -16.7882 C   0  0  0  0  0  0  0  0  0  0  0  0
   19.5545  -15.9550  -17.0454 C   0  0  0  0  0  0  0  0  0  0  0  0
   18.0983  -15.6209  -17.2103 C   0  0  0  0  0  0  0  0  0  0  0  0
   17.2842  -16.8902  -17.4207 C   0  0  0  0  0  0  0  0  0  0  0  0
   15.9014  -16.5301  -17.5426 N   0  0  0  0  0  0  0  0  0  0  0  0
   22.6396  -13.9812  -16.0384 C   0  0  0  0  0  0  0  0  0  0  0  0
   22.5090  -13.5310  -14.8890 O   0  0  0  0  0  0  0  0  0  0  0  0
   27.9546  -13.8021  -16.8663 C   0  0  0  0  0  0  0  0  0  0  0  0
   26.5667  -13.7130  -16.1469 C   0  0  1  0  0  0  0  0  0  0  0  0
   26.9759  -13.2986  -14.7299 C   0  0  0  0  0  0  0  0  0  0  0  0
   25.8637  -12.5849  -16.8124 C   0  0  0  0  0  0  0  0  0  0  0  0
   24.4822  -12.2842  -16.3854 C   0  0  2  0  0  0  0  0  0  0  0  0
   23.5979  -13.3787  -16.8818 N   0  0  0  0  0  0  0  0  0  0  0  0
   23.9134  -11.0755  -16.9703 C   0  0  0  0  0  0  0  0  0  0  0  0
   23.7502  -11.0559  -18.2353 O   0  0  0  0  0  0  0  0  0  0  0  0
   23.4967   -9.8974  -16.2885 N   0  0  0  0  0  0  0  0  0  0  0  0
   22.8996   -8.8366  -17.0694 C   0  0  1  0  0  0  0  0  0  0  0  0
   21.7983   -8.2029  -16.1848 C   0  0  0  0  0  0  0  0  0  0  0  0
   22.5099   -7.6156  -14.9933 C   0  0  0  0  0  0  0  0  0  0  0  0
   21.4831   -7.0696  -14.0713 C   0  0  0  0  0  0  0  0  0  0  0  0
   20.2779   -7.0936  -14.4614 O   0  0  0  0  0  0  0  0  0  0  0  0
   23.8929   -7.8414  -17.4369 C   0  0  0  0  0  0  0  0  0  0  0  0
   25.0736   -7.9708  -16.9644 O   0  0  0  0  0  0  0  0  0  0  0  0
   21.8014   -6.5546  -12.8420 O   0  0  0  0  0  0  0  0  0  0  0  0
   23.6764   -6.7660  -18.2550 O   0  0  0  0  0  0  0  0  0  0  0  0
  2  1  1  1
  3  2  1  0
  4  3  1  0
  4  5  1  0
  5  6  1  0
  7  6  1  0
  8  2  1  0
  8  9  2  0
 11 10  1  6
 11 13  1  0
 11 12  1  0
 14 13  1  6
 14 15  1  0
 15  8  1  0
 16 14  1  0
 17 16  2  0
 18 16  1  0
 19 18  1  0
 19 24  1  0
 19 20  1  1
 21 20  1  0
 22 21  1  0
 22 23  2  0
 24 27  1  0
 25 24  2  0
 26 22  1  0
M  END
$$$$
