KLE.pdb
     RDKit          3D

 27 26  0  0  1  0  0  0  0  0999 V2000
   19.2852  -14.5675  -18.0328 N   0  0  0  0  0  0  0  0  0  0  0  0
   18.5334  -14.0638  -16.9054 C   0  0  1  0  0  0  0  0  0  0  0  0
   17.9866  -15.2316  -16.1369 C   0  0  0  0  0  0  0  0  0  0  0  0
   17.4455  -16.2918  -17.0491 C   0  0  0  0  0  0  0  0  0  0  0  0
   16.8671  -17.4640  -16.3068 C   0  0  0  0  0  0  0  0  0  0  0  0
   16.3986  -18.5319  -17.2858 C   0  0  0  0  0  0  0  0  0  0  0  0
   15.8858  -19.6429  -16.5378 N   0  0  0  0  0  0  0  0  0  0  0  0
   19.3722  -13.1793  -16.0534 C   0  0  0  0  0  0  0  0  0  0  0  0
   19.0315  -12.7783  -14.9292 O   0  0  0  0  0  0  0  0  0  0  0  0
   24.2134  -11.9006  -14.1015 C   0  0  0  0  0  0  0  0  0  0  0  0
   24.0297  -11.4115  -15.5776 C   0  0  1  0  0  0  0  0  0  0  0  0
   25.3627  -11.8229  -16.2107 C   0  0  0  0  0  0  0  0  0  0  0  0
   22.9361  -12.2558  -16.1260 C   0  0  0  0  0  0  0  0  0  0  0  0
   21.5508  -11.9378  -15.7245 C   0  0  2  0  0  0  0  0  0  0  0  0
   20.6289  -12.7711  -16.5504 N   0  0  0  0  0  0  0  0  0  0  0  0
   21.1355  -10.5677  -16.0021 C   0  0  0  0  0  0  0  0  0  0  0  0
   21.1332  -10.1901  -17.2205 O   0  0  0  0  0  0  0  0  0  0  0  0
   20.7106   -9.5851  -15.0637 N   0  0  0  0  0  0  0  0  0  0  0  0
   20.3592   -8.2749  -15.5652 C   0  0  1  0  0  0  0  0  0  0  0  0
   18.8884   -8.0236  -15.1522 C   0  0  0  0  0  0  0  0  0  0  0  0
   18.5745   -6.6113  -15.5743 C   0  0  0  0  0  0  0  0  0  0  0  0
   17.1801   -6.3112  -15.1642 C   0  0  0  0  0  0  0  0  0  0  0  0
   16.9947   -5.2966  -14.4284 O   0  0  0  0  0  0  0  0  0  0  0  0
   21.2277   -7.2545  -15.0024 C   0  0  0  0  0  0  0  0  0  0  0  0
   21.9627   -7.5761  -14.0072 O   0  0  0  0  0  0  0  0  0  0  0  0
   16.1189   -7.0859  -15.5531 O   0  0  0  0  0  0  0  0  0  0  0  0
   21.3327   -5.9651  -15.4485 O   0  0  0  0  0  0  0  0  0  0  0  0
  2  1  1  6
  3  2  1  0
  4  3  1  0
  4  5  1  0
  5  6  1  0
  7  6  1  0
  8  2  1  0
  8  9  2  0
 11 10  1  1
 11 13  1  0
 11 12  1  0
 14 13  1  6
 14 15  1  0
 15  8  1  0
 16 14  1  0
 17 16  2  0
 18 16  1  0
 19 18  1  0
 19 24  1  0
 19 20  1  1
 21 20  1  0
 22 21  1  0
 22 23  2  0
 24 27  1  0
 25 24  2  0
 26 22  1  0
M  END
$$$$
