KLE.pdb
     RDKit          3D

 27 26  0  0  1  0  0  0  0  0999 V2000
   25.5252  -21.2691  -18.0221 N   0  0  0  0  0  0  0  0  0  0  0  0
   25.3801  -22.5220  -17.3157 C   0  0  1  0  0  0  0  0  0  0  0  0
   26.5573  -23.3936  -17.6442 C   0  0  0  0  0  0  0  0  0  0  0  0
   27.0657  -23.1397  -19.0320 C   0  0  0  0  0  0  0  0  0  0  0  0
   27.7420  -21.8048  -19.1731 C   0  0  0  0  0  0  0  0  0  0  0  0
   28.2858  -21.6332  -20.5849 C   0  0  0  0  0  0  0  0  0  0  0  0
   28.7981  -20.3003  -20.7174 N   0  0  0  0  0  0  0  0  0  0  0  0
   25.2425  -22.2995  -15.8516 C   0  0  0  0  0  0  0  0  0  0  0  0
   25.1138  -23.2150  -15.0233 O   0  0  0  0  0  0  0  0  0  0  0  0
   28.4668  -18.6894  -13.6474 C   0  0  0  0  0  0  0  0  0  0  0  0
   27.6511  -19.9714  -14.0253 C   0  0  1  0  0  0  0  0  0  0  0  0
   28.2479  -21.0128  -13.0733 C   0  0  0  0  0  0  0  0  0  0  0  0
   26.2537  -19.6681  -13.6191 C   0  0  0  0  0  0  0  0  0  0  0  0
   25.2152  -20.6763  -13.9125 C   0  0  2  0  0  0  0  0  0  0  0  0
   25.2590  -20.9710  -15.3746 N   0  0  0  0  0  0  0  0  0  0  0  0
   23.8472  -20.2265  -13.6819 C   0  0  0  0  0  0  0  0  0  0  0  0
   23.5237  -19.9189  -12.4870 O   0  0  0  0  0  0  0  0  0  0  0  0
   22.8126  -20.0720  -14.6474 N   0  0  0  0  0  0  0  0  0  0  0  0
   21.5215  -19.6074  -14.1901 C   0  0  1  0  0  0  0  0  0  0  0  0
   20.8714  -18.8647  -15.3829 C   0  0  0  0  0  0  0  0  0  0  0  0
   19.4924  -18.4676  -14.9226 C   0  0  0  0  0  0  0  0  0  0  0  0
   18.7694  -17.8962  -16.0859 C   0  0  0  0  0  0  0  0  0  0  0  0
   19.3489  -17.9414  -17.2116 O   0  0  0  0  0  0  0  0  0  0  0  0
   20.6889  -20.7219  -13.7692 C   0  0  0  0  0  0  0  0  0  0  0  0
   20.9319  -21.8731  -14.2689 O   0  0  0  0  0  0  0  0  0  0  0  0
   17.5238  -17.3367  -15.9719 O   0  0  0  0  0  0  0  0  0  0  0  0
   19.6569  -20.6497  -12.8735 O   0  0  0  0  0  0  0  0  0  0  0  0
  2  1  1  6
  3  2  1  0
  4  3  1  0
  4  5  1  0
  5  6  1  0
  7  6  1  0
  8  2  1  0
  8  9  2  0
 11 10  1  1
 11 13  1  0
 11 12  1  0
 14 13  1  6
 14 15  1  0
 15  8  1  0
 16 14  1  0
 17 16  2  0
 18 16  1  0
 19 18  1  0
 19 24  1  0
 19 20  1  6
 21 20  1  0
 22 21  1  0
 22 23  2  0
 24 27  1  0
 25 24  2  0
 26 22  1  0
M  END
$$$$
