KLE.pdb
     RDKit          3D

 27 26  0  0  1  0  0  0  0  0999 V2000
   34.1370  -11.2078  -17.7278 N   0  0  0  0  0  0  0  0  0  0  0  0
   33.1807  -10.1744  -17.4000 C   0  0  1  0  0  0  0  0  0  0  0  0
   33.7670   -8.8451  -17.7773 C   0  0  0  0  0  0  0  0  0  0  0  0
   35.0600   -8.5860  -17.0630 C   0  0  0  0  0  0  0  0  0  0  0  0
   34.8680   -7.9385  -15.7202 C   0  0  0  0  0  0  0  0  0  0  0  0
   36.2138   -7.7063  -15.0469 C   0  0  0  0  0  0  0  0  0  0  0  0
   35.9823   -7.1575  -13.7423 N   0  0  0  0  0  0  0  0  0  0  0  0
   31.8759  -10.4188  -18.0707 C   0  0  0  0  0  0  0  0  0  0  0  0
   31.7550  -11.0334  -19.1424 O   0  0  0  0  0  0  0  0  0  0  0  0
   27.4037  -12.0630  -15.2484 C   0  0  0  0  0  0  0  0  0  0  0  0
   28.4913  -12.0122  -16.3736 C   0  0  1  0  0  0  0  0  0  0  0  0
   27.8750  -12.9183  -17.4442 C   0  0  0  0  0  0  0  0  0  0  0  0
   28.4837  -10.6036  -16.8484 C   0  0  0  0  0  0  0  0  0  0  0  0
   29.3535  -10.2551  -17.9900 C   0  0  2  0  0  0  0  0  0  0  0  0
   30.7063   -9.9240  -17.4543 N   0  0  0  0  0  0  0  0  0  0  0  0
   28.9551   -9.0541  -18.7149 C   0  0  0  0  0  0  0  0  0  0  0  0
   29.1170   -7.9331  -18.1281 O   0  0  0  0  0  0  0  0  0  0  0  0
   28.4104   -8.9763  -20.0278 N   0  0  0  0  0  0  0  0  0  0  0  0
   28.1063   -7.6662  -20.5598 C   0  0  1  0  0  0  0  0  0  0  0  0
   28.2833   -7.7608  -22.0950 C   0  0  0  0  0  0  0  0  0  0  0  0
   29.7592   -7.9535  -22.3313 C   0  0  0  0  0  0  0  0  0  0  0  0
   29.9823   -8.0196  -23.7971 C   0  0  0  0  0  0  0  0  0  0  0  0
   29.0168   -7.6911  -24.5488 O   0  0  0  0  0  0  0  0  0  0  0  0
   26.7468   -7.2746  -20.2271 C   0  0  0  0  0  0  0  0  0  0  0  0
   25.9589   -8.1729  -19.7731 O   0  0  0  0  0  0  0  0  0  0  0  0
   31.1763   -8.4169  -24.3395 O   0  0  0  0  0  0  0  0  0  0  0  0
   26.2281   -6.0148  -20.3557 O   0  0  0  0  0  0  0  0  0  0  0  0
  2  1  1  6
  3  2  1  0
  4  3  1  0
  4  5  1  0
  5  6  1  0
  7  6  1  0
  8  2  1  0
  8  9  2  0
 11 10  1  1
 11 13  1  0
 11 12  1  0
 14 13  1  1
 14 15  1  0
 15  8  1  0
 16 14  1  0
 17 16  2  0
 18 16  1  0
 19 18  1  0
 19 24  1  0
 19 20  1  6
 21 20  1  0
 22 21  1  0
 22 23  2  0
 24 27  1  0
 25 24  2  0
 26 22  1  0
M  END
$$$$
