KLE.pdb
     RDKit          3D

 27 26  0  0  1  0  0  0  0  0999 V2000
   27.9198  -21.8162  -15.9686 N   0  0  0  0  0  0  0  0  0  0  0  0
   27.5524  -20.7273  -15.0916 C   0  0  1  0  0  0  0  0  0  0  0  0
   27.0130  -19.6032  -15.9274 C   0  0  0  0  0  0  0  0  0  0  0  0
   27.9315  -19.2665  -17.0640 C   0  0  0  0  0  0  0  0  0  0  0  0
   27.2544  -19.3340  -18.4043 C   0  0  0  0  0  0  0  0  0  0  0  0
   28.2022  -18.8669  -19.5006 C   0  0  0  0  0  0  0  0  0  0  0  0
   27.5241  -18.9621  -20.7607 N   0  0  0  0  0  0  0  0  0  0  0  0
   26.5769  -21.1740  -14.0616 C   0  0  0  0  0  0  0  0  0  0  0  0
   25.6912  -22.0184  -14.2699 O   0  0  0  0  0  0  0  0  0  0  0  0
   25.2281  -21.9363   -8.8158 C   0  0  0  0  0  0  0  0  0  0  0  0
   25.2582  -20.4349   -9.2592 C   0  0  1  0  0  0  0  0  0  0  0  0
   25.9350  -19.7683   -8.0573 C   0  0  0  0  0  0  0  0  0  0  0  0
   26.1746  -20.4008  -10.4291 C   0  0  0  0  0  0  0  0  0  0  0  0
   25.6939  -20.9802  -11.6997 C   0  0  2  0  0  0  0  0  0  0  0  0
   26.6617  -20.6061  -12.7720 N   0  0  0  0  0  0  0  0  0  0  0  0
   24.4204  -20.4468  -12.1691 C   0  0  0  0  0  0  0  0  0  0  0  0
   24.3756  -19.2061  -12.4620 O   0  0  0  0  0  0  0  0  0  0  0  0
   23.2013  -21.1571  -12.3578 N   0  0  0  0  0  0  0  0  0  0  0  0
   22.0466  -20.4146  -12.8126 C   0  0  1  0  0  0  0  0  0  0  0  0
   21.7238  -20.9284  -14.2370 C   0  0  0  0  0  0  0  0  0  0  0  0
   20.4632  -20.2184  -14.6585 C   0  0  0  0  0  0  0  0  0  0  0  0
   20.0743  -20.7326  -15.9952 C   0  0  0  0  0  0  0  0  0  0  0  0
   20.7687  -21.6741  -16.4819 O   0  0  0  0  0  0  0  0  0  0  0  0
   20.9136  -20.6242  -11.9267 C   0  0  0  0  0  0  0  0  0  0  0  0
   20.9204  -21.6627  -11.1814 O   0  0  0  0  0  0  0  0  0  0  0  0
   19.0107  -20.2255  -16.6946 O   0  0  0  0  0  0  0  0  0  0  0  0
   19.8278  -19.7990  -11.8155 O   0  0  0  0  0  0  0  0  0  0  0  0
  2  1  1  6
  3  2  1  0
  4  3  1  0
  4  5  1  0
  5  6  1  0
  7  6  1  0
  8  2  1  0
  8  9  2  0
 11 10  1  1
 11 13  1  0
 11 12  1  0
 14 13  1  1
 14 15  1  0
 15  8  1  0
 16 14  1  0
 17 16  2  0
 18 16  1  0
 19 18  1  0
 19 24  1  0
 19 20  1  6
 21 20  1  0
 22 21  1  0
 22 23  2  0
 24 27  1  0
 25 24  2  0
 26 22  1  0
M  END
$$$$
