KLE.pdb
     RDKit          3D

 27 26  0  0  1  0  0  0  0  0999 V2000
   26.9452  -19.4018  -15.4060 N   0  0  0  0  0  0  0  0  0  0  0  0
   26.2471  -20.6205  -15.7486 C   0  0  1  0  0  0  0  0  0  0  0  0
   27.2400  -21.5980  -16.3068 C   0  0  0  0  0  0  0  0  0  0  0  0
   27.9392  -21.0500  -17.5150 C   0  0  0  0  0  0  0  0  0  0  0  0
   28.9338  -22.0115  -18.1028 C   0  0  0  0  0  0  0  0  0  0  0  0
   29.7610  -21.3247  -19.1810 C   0  0  0  0  0  0  0  0  0  0  0  0
   30.7470  -22.2504  -19.6581 N   0  0  0  0  0  0  0  0  0  0  0  0
   25.5223  -21.1720  -14.5727 C   0  0  0  0  0  0  0  0  0  0  0  0
   24.9075  -22.2503  -14.5843 O   0  0  0  0  0  0  0  0  0  0  0  0
   25.9014  -21.9183   -9.4564 C   0  0  0  0  0  0  0  0  0  0  0  0
   24.9580  -20.6838   -9.6501 C   0  0  1  0  0  0  0  0  0  0  0  0
   25.4801  -19.7211   -8.5788 C   0  0  0  0  0  0  0  0  0  0  0  0
   25.2917  -20.1564  -10.9992 C   0  0  0  0  0  0  0  0  0  0  0  0
   24.7747  -20.8877  -12.1736 C   0  0  2  0  0  0  0  0  0  0  0  0
   25.5331  -20.4275  -13.3734 N   0  0  0  0  0  0  0  0  0  0  0  0
   23.3827  -20.6042  -12.5033 C   0  0  0  0  0  0  0  0  0  0  0  0
   23.1298  -19.4943  -13.0787 O   0  0  0  0  0  0  0  0  0  0  0  0
   22.2513  -21.4362  -12.2702 N   0  0  0  0  0  0  0  0  0  0  0  0
   20.9564  -20.9570  -12.7006 C   0  0  1  0  0  0  0  0  0  0  0  0
   20.7244  -21.5267  -14.1214 C   0  0  0  0  0  0  0  0  0  0  0  0
   20.3774  -20.3454  -14.9905 C   0  0  0  0  0  0  0  0  0  0  0  0
   19.9983  -20.8595  -16.3300 C   0  0  0  0  0  0  0  0  0  0  0  0
   20.0114  -22.1154  -16.4973 O   0  0  0  0  0  0  0  0  0  0  0  0
   19.9111  -21.4046  -11.7954 C   0  0  0  0  0  0  0  0  0  0  0  0
   18.8164  -20.7451  -11.7720 O   0  0  0  0  0  0  0  0  0  0  0  0
   19.6444  -20.0288  -17.3607 O   0  0  0  0  0  0  0  0  0  0  0  0
   19.9931  -22.4831  -10.9571 O   0  0  0  0  0  0  0  0  0  0  0  0
  2  1  1  1
  3  2  1  0
  4  3  1  0
  4  5  1  0
  5  6  1  0
  7  6  1  0
  8  2  1  0
  8  9  2  0
 11 10  1  1
 11 13  1  0
 11 12  1  0
 14 13  1  1
 14 15  1  0
 15  8  1  0
 16 14  1  0
 17 16  2  0
 18 16  1  0
 19 18  1  0
 19 24  1  0
 19 20  1  6
 21 20  1  0
 22 21  1  0
 22 23  2  0
 24 27  1  0
 25 24  2  0
 26 22  1  0
M  END
$$$$
