KLE.pdb
     RDKit          3D

 27 26  0  0  1  0  0  0  0  0999 V2000
   24.8994  -25.0966  -15.7094 N   0  0  0  0  0  0  0  0  0  0  0  0
   25.1306  -23.6909  -15.4630 C   0  0  1  0  0  0  0  0  0  0  0  0
   24.7604  -22.9231  -16.6986 C   0  0  0  0  0  0  0  0  0  0  0  0
   23.6455  -23.5864  -17.4510 C   0  0  0  0  0  0  0  0  0  0  0  0
   22.3011  -22.9796  -17.1618 C   0  0  0  0  0  0  0  0  0  0  0  0
   21.2094  -23.7276  -17.9148 C   0  0  0  0  0  0  0  0  0  0  0  0
   19.9351  -23.2344  -17.4793 N   0  0  0  0  0  0  0  0  0  0  0  0
   24.3757  -23.2244  -14.2695 C   0  0  0  0  0  0  0  0  0  0  0  0
   23.6289  -23.9529  -13.5969 O   0  0  0  0  0  0  0  0  0  0  0  0
   26.9187  -20.2349  -10.5718 C   0  0  0  0  0  0  0  0  0  0  0  0
   25.9582  -21.3373  -11.1319 C   0  0  1  0  0  0  0  0  0  0  0  0
   25.3479  -21.9023   -9.8453 C   0  0  0  0  0  0  0  0  0  0  0  0
   24.9202  -20.5902  -11.8893 C   0  0  0  0  0  0  0  0  0  0  0  0
   23.8989  -21.3717  -12.6155 C   0  0  2  0  0  0  0  0  0  0  0  0
   24.5153  -21.8755  -13.8775 N   0  0  0  0  0  0  0  0  0  0  0  0
   22.7475  -20.5987  -13.0669 C   0  0  0  0  0  0  0  0  0  0  0  0
   22.0483  -20.0120  -12.1759 O   0  0  0  0  0  0  0  0  0  0  0  0
   22.3077  -20.4031  -14.4066 N   0  0  0  0  0  0  0  0  0  0  0  0
   21.1126  -19.6173  -14.6206 C   0  0  1  0  0  0  0  0  0  0  0  0
   21.1252  -19.1904  -16.1088 C   0  0  0  0  0  0  0  0  0  0  0  0
   19.9381  -18.2796  -16.2892 C   0  0  0  0  0  0  0  0  0  0  0  0
   19.8537  -17.9184  -17.7262 C   0  0  0  0  0  0  0  0  0  0  0  0
   20.5386  -18.6057  -18.5410 O   0  0  0  0  0  0  0  0  0  0  0  0
   19.9210  -20.3947  -14.3239 C   0  0  0  0  0  0  0  0  0  0  0  0
   18.9031  -19.7767  -13.8593 O   0  0  0  0  0  0  0  0  0  0  0  0
   19.0732  -16.8867  -18.1779 O   0  0  0  0  0  0  0  0  0  0  0  0
   19.7880  -21.7451  -14.5012 O   0  0  0  0  0  0  0  0  0  0  0  0
  2  1  1  6
  3  2  1  0
  4  3  1  0
  4  5  1  0
  5  6  1  0
  7  6  1  0
  8  2  1  0
  8  9  2  0
 11 10  1  1
 11 13  1  0
 11 12  1  0
 14 13  1  6
 14 15  1  0
 15  8  1  0
 16 14  1  0
 17 16  2  0
 18 16  1  0
 19 18  1  0
 19 24  1  0
 19 20  1  6
 21 20  1  0
 22 21  1  0
 22 23  2  0
 24 27  1  0
 25 24  2  0
 26 22  1  0
M  END
$$$$
