ACF.pdb
     RDKit          3D

 23 23  0  0  1  0  0  0  0  0999 V2000
    4.7132  -18.3922   22.8030 C   0  0  0  0  0  0  0  0  0  0  0  0
    4.9552  -18.0772   21.3584 C   0  0  2  0  0  0  0  0  0  0  0  0
    5.0941  -19.2876   20.5590 N   0  0  0  0  0  0  0  0  0  0  0  0
    6.1987  -17.2502   21.2441 C   0  0  0  0  0  0  0  0  0  0  0  0
    7.3248  -17.7611   21.0608 O   0  0  0  0  0  0  0  0  0  0  0  0
    6.1552  -15.8362   21.3394 N   0  0  0  0  0  0  0  0  0  0  0  0
    7.3073  -15.0156   21.3000 C   0  0  1  0  0  0  0  0  0  0  0  0
    7.1253  -13.6845   20.6396 C   0  0  0  0  0  0  0  0  0  0  0  0
    8.6357  -12.6841   20.6644 S   0  0  0  0  0  0  0  0  0  0  0  0
    7.7966  -14.7707   22.6813 C   0  0  0  0  0  0  0  0  0  0  0  0
    7.3200  -13.8257   23.3363 O   0  0  0  0  0  0  0  0  0  0  0  0
    8.8005  -15.5891   23.2829 N   0  0  0  0  0  0  0  0  0  0  0  0
    9.2529  -15.2887   24.6410 C   0  0  1  0  0  0  0  0  0  0  0  0
    8.1247  -15.3971   25.6132 C   0  0  0  0  0  0  0  0  0  0  0  0
    7.7013  -14.0529   26.0567 C   0  0  0  0  0  0  0  0  0  0  0  0
    8.5844  -13.0166   26.2967 C   0  0  0  0  0  0  0  0  0  0  0  0
    8.1648  -11.7697   26.7000 C   0  0  0  0  0  0  0  0  0  0  0  0
    6.8222  -11.5152   26.8798 C   0  0  0  0  0  0  0  0  0  0  0  0
    5.9046  -12.5130   26.6542 C   0  0  0  0  0  0  0  0  0  0  0  0
    6.3555  -13.7437   26.2532 C   0  0  0  0  0  0  0  0  0  0  0  0
   10.2989  -16.2695   24.9621 C   0  0  0  0  0  0  0  0  0  0  0  0
   10.6523  -17.2700   24.0618 O   0  0  0  0  0  0  0  0  0  0  0  0
   10.8879  -16.2095   26.0661 O   0  0  0  0  0  0  0  0  0  0  0  0
  2  1  1  1
  3  2  1  0
  4  6  1  0
  4  2  1  0
  5  4  2  0
  7 10  1  0
  7  6  1  0
  7  8  1  1
  9  8  1  0
 10 12  1  0
 11 10  2  0
 12 13  1  0
 13 21  1  0
 13 14  1  1
 15 14  1  0
 16 15  2  0
 17 16  1  0
 18 19  1  0
 18 17  2  0
 19 20  2  0
 20 15  1  0
 21 22  1  0
 23 21  2  0
M  END
$$$$
