ACF.pdb
     RDKit          3D

 23 23  0  0  1  0  0  0  0  0999 V2000
    7.5082  -13.3989   17.6604 C   0  0  0  0  0  0  0  0  0  0  0  0
    8.8011  -13.5844   18.3942 C   0  0  2  0  0  0  0  0  0  0  0  0
    9.8429  -14.1149   17.5244 N   0  0  0  0  0  0  0  0  0  0  0  0
    8.5770  -14.5191   19.5429 C   0  0  0  0  0  0  0  0  0  0  0  0
    7.6801  -14.3285   20.3925 O   0  0  0  0  0  0  0  0  0  0  0  0
    9.3797  -15.6743   19.7209 N   0  0  0  0  0  0  0  0  0  0  0  0
    9.2265  -16.5715   20.8043 C   0  0  1  0  0  0  0  0  0  0  0  0
   10.2181  -17.6919   20.8553 C   0  0  0  0  0  0  0  0  0  0  0  0
   10.1326  -18.6256   22.4058 S   0  0  0  0  0  0  0  0  0  0  0  0
    9.3183  -15.8290   22.0879 C   0  0  0  0  0  0  0  0  0  0  0  0
   10.2714  -15.0501   22.2725 O   0  0  0  0  0  0  0  0  0  0  0  0
    8.3432  -15.9818   23.1200 N   0  0  0  0  0  0  0  0  0  0  0  0
    8.3223  -15.0342   24.2340 C   0  0  1  0  0  0  0  0  0  0  0  0
    7.0852  -14.1988   24.1981 C   0  0  0  0  0  0  0  0  0  0  0  0
    7.0459  -13.2934   25.3648 C   0  0  0  0  0  0  0  0  0  0  0  0
    6.1912  -13.4694   26.4373 C   0  0  0  0  0  0  0  0  0  0  0  0
    6.1800  -12.6174   27.5178 C   0  0  0  0  0  0  0  0  0  0  0  0
    7.0400  -11.5412   27.5604 C   0  0  0  0  0  0  0  0  0  0  0  0
    7.9087  -11.3231   26.5182 C   0  0  0  0  0  0  0  0  0  0  0  0
    7.8947  -12.1905   25.4569 C   0  0  0  0  0  0  0  0  0  0  0  0
    8.3625  -15.8335   25.4664 C   0  0  0  0  0  0  0  0  0  0  0  0
    9.0572  -15.3952   26.5897 O   0  0  0  0  0  0  0  0  0  0  0  0
    7.7618  -16.9319   25.5134 O   0  0  0  0  0  0  0  0  0  0  0  0
  2  1  1  6
  3  2  1  0
  4  6  1  0
  4  2  1  0
  5  4  2  0
  7 10  1  0
  7  6  1  0
  7  8  1  1
  9  8  1  0
 10 12  1  0
 11 10  2  0
 12 13  1  0
 13 21  1  0
 13 14  1  1
 15 14  1  0
 16 15  2  0
 17 16  1  0
 18 19  1  0
 18 17  2  0
 19 20  2  0
 20 15  1  0
 21 22  1  0
 23 21  2  0
M  END
$$$$
