ACF.pdb
     RDKit          3D

 23 23  0  0  1  0  0  0  0  0999 V2000
    9.4666  -13.6985   19.0595 C   0  0  0  0  0  0  0  0  0  0  0  0
    8.0390  -14.1455   18.9779 C   0  0  2  0  0  0  0  0  0  0  0  0
    7.1852  -13.1182   18.3957 N   0  0  0  0  0  0  0  0  0  0  0  0
    7.5570  -14.4828   20.3553 C   0  0  0  0  0  0  0  0  0  0  0  0
    7.2201  -13.6038   21.1778 O   0  0  0  0  0  0  0  0  0  0  0  0
    7.4598  -15.8278   20.7937 N   0  0  0  0  0  0  0  0  0  0  0  0
    6.9687  -16.1997   22.0675 C   0  0  1  0  0  0  0  0  0  0  0  0
    6.2649  -17.5198   22.1240 C   0  0  0  0  0  0  0  0  0  0  0  0
    5.8128  -17.9946   23.8131 S   0  0  0  0  0  0  0  0  0  0  0  0
    8.0877  -16.2428   23.0440 C   0  0  0  0  0  0  0  0  0  0  0  0
    9.1601  -16.7826   22.7158 O   0  0  0  0  0  0  0  0  0  0  0  0
    7.9703  -15.6821   24.3521 N   0  0  0  0  0  0  0  0  0  0  0  0
    9.1390  -15.6599   25.2313 C   0  0  1  0  0  0  0  0  0  0  0  0
    9.4941  -14.2593   25.6082 C   0  0  0  0  0  0  0  0  0  0  0  0
    8.2889  -13.5276   26.0494 C   0  0  0  0  0  0  0  0  0  0  0  0
    7.3025  -13.0923   25.1840 C   0  0  0  0  0  0  0  0  0  0  0  0
    6.1835  -12.4208   25.6204 C   0  0  0  0  0  0  0  0  0  0  0  0
    6.0127  -12.1580   26.9625 C   0  0  0  0  0  0  0  0  0  0  0  0
    6.9657  -12.5700   27.8628 C   0  0  0  0  0  0  0  0  0  0  0  0
    8.0684  -13.2367   27.3955 C   0  0  0  0  0  0  0  0  0  0  0  0
    8.7801  -16.4346   26.4272 C   0  0  0  0  0  0  0  0  0  0  0  0
    9.7093  -16.6836   27.4327 O   0  0  0  0  0  0  0  0  0  0  0  0
    7.6166  -16.8825   26.5501 O   0  0  0  0  0  0  0  0  0  0  0  0
  2  1  1  1
  3  2  1  0
  4  6  1  0
  4  2  1  0
  5  4  2  0
  7 10  1  0
  7  6  1  0
  7  8  1  6
  9  8  1  0
 10 12  1  0
 11 10  2  0
 12 13  1  0
 13 21  1  0
 13 14  1  1
 15 14  1  0
 16 15  2  0
 17 16  1  0
 18 19  1  0
 18 17  2  0
 19 20  2  0
 20 15  1  0
 21 22  1  0
 23 21  2  0
M  END
$$$$
