ACF.pdb
     RDKit          3D

 23 23  0  0  1  0  0  0  0  0999 V2000
    7.6904  -13.2172   18.7248 C   0  0  0  0  0  0  0  0  0  0  0  0
    8.5460  -14.2086   19.4525 C   0  0  2  0  0  0  0  0  0  0  0  0
    8.5568  -15.5036   18.7846 N   0  0  0  0  0  0  0  0  0  0  0  0
    8.0271  -14.3642   20.8489 C   0  0  0  0  0  0  0  0  0  0  0  0
    8.0001  -13.4134   21.6601 O   0  0  0  0  0  0  0  0  0  0  0  0
    7.5379  -15.6092   21.3193 N   0  0  0  0  0  0  0  0  0  0  0  0
    7.0641  -15.8139   22.6368 C   0  0  1  0  0  0  0  0  0  0  0  0
    6.2177  -17.0330   22.8325 C   0  0  0  0  0  0  0  0  0  0  0  0
    7.1914  -18.4872   23.3019 S   0  0  0  0  0  0  0  0  0  0  0  0
    8.2127  -15.9069   23.5745 C   0  0  0  0  0  0  0  0  0  0  0  0
    9.3323  -16.2260   23.1343 O   0  0  0  0  0  0  0  0  0  0  0  0
    8.0713  -15.6404   24.9704 N   0  0  0  0  0  0  0  0  0  0  0  0
    9.2378  -15.7562   25.8452 C   0  0  1  0  0  0  0  0  0  0  0  0
    9.3539  -14.5639   26.7368 C   0  0  0  0  0  0  0  0  0  0  0  0
    8.1538  -13.7118   26.6095 C   0  0  0  0  0  0  0  0  0  0  0  0
    7.3775  -13.3235   27.6857 C   0  0  0  0  0  0  0  0  0  0  0  0
    6.2690  -12.5208   27.5429 C   0  0  0  0  0  0  0  0  0  0  0  0
    5.8944  -12.0727   26.2945 C   0  0  0  0  0  0  0  0  0  0  0  0
    6.6336  -12.4315   25.1930 C   0  0  0  0  0  0  0  0  0  0  0  0
    7.7322  -13.2320   25.3696 C   0  0  0  0  0  0  0  0  0  0  0  0
    9.0445  -16.9739   26.6445 C   0  0  0  0  0  0  0  0  0  0  0  0
   10.0166  -17.4138   27.5379 O   0  0  0  0  0  0  0  0  0  0  0  0
    7.9863  -17.6336   26.5242 O   0  0  0  0  0  0  0  0  0  0  0  0
  2  1  1  6
  3  2  1  0
  4  6  1  0
  4  2  1  0
  5  4  2  0
  7 10  1  0
  7  6  1  0
  7  8  1  6
  9  8  1  0
 10 12  1  0
 11 10  2  0
 12 13  1  0
 13 21  1  0
 13 14  1  1
 15 14  1  0
 16 15  2  0
 17 16  1  0
 18 19  1  0
 18 17  2  0
 19 20  2  0
 20 15  1  0
 21 22  1  0
 23 21  2  0
M  END
$$$$
