ACF.pdb
     RDKit          3D

 23 23  0  0  1  0  0  0  0  0999 V2000
    3.9559  -18.0352   23.0064 C   0  0  0  0  0  0  0  0  0  0  0  0
    4.4653  -18.0582   21.5977 C   0  0  2  0  0  0  0  0  0  0  0  0
    4.4804  -19.4093   21.0522 N   0  0  0  0  0  0  0  0  0  0  0  0
    5.8499  -17.4876   21.5733 C   0  0  0  0  0  0  0  0  0  0  0  0
    6.8644  -18.1903   21.7728 O   0  0  0  0  0  0  0  0  0  0  0  0
    6.0757  -16.1108   21.3203 N   0  0  0  0  0  0  0  0  0  0  0  0
    7.3517  -15.5035   21.3907 C   0  0  1  0  0  0  0  0  0  0  0  0
    7.5064  -14.2409   20.6015 C   0  0  0  0  0  0  0  0  0  0  0  0
    9.1898  -13.5750   20.6783 S   0  0  0  0  0  0  0  0  0  0  0  0
    7.6832  -15.1946   22.8057 C   0  0  0  0  0  0  0  0  0  0  0  0
    7.0646  -14.2864   23.3904 O   0  0  0  0  0  0  0  0  0  0  0  0
    8.6931  -15.9100   23.5181 N   0  0  0  0  0  0  0  0  0  0  0  0
    9.0237  -15.5137   24.8867 C   0  0  1  0  0  0  0  0  0  0  0  0
    7.8339  -15.6437   25.7797 C   0  0  0  0  0  0  0  0  0  0  0  0
    7.3170  -14.3074   26.1401 C   0  0  0  0  0  0  0  0  0  0  0  0
    5.9789  -13.9655   26.0763 C   0  0  0  0  0  0  0  0  0  0  0  0
    5.5202  -12.7164   26.4268 C   0  0  0  0  0  0  0  0  0  0  0  0
    6.4029  -11.7508   26.8604 C   0  0  0  0  0  0  0  0  0  0  0  0
    7.7435  -12.0417   26.9409 C   0  0  0  0  0  0  0  0  0  0  0  0
    8.1678  -13.2954   26.5845 C   0  0  0  0  0  0  0  0  0  0  0  0
   10.0987  -16.4093   25.3356 C   0  0  0  0  0  0  0  0  0  0  0  0
   10.6216  -17.3880   24.4959 O   0  0  0  0  0  0  0  0  0  0  0  0
   10.5576  -16.2950   26.4956 O   0  0  0  0  0  0  0  0  0  0  0  0
  2  1  1  1
  3  2  1  0
  4  6  1  0
  4  2  1  0
  5  4  2  0
  7 10  1  0
  7  6  1  0
  7  8  1  6
  9  8  1  0
 10 12  1  0
 11 10  2  0
 12 13  1  0
 13 21  1  0
 13 14  1  1
 15 14  1  0
 16 15  2  0
 17 16  1  0
 18 19  1  0
 18 17  2  0
 19 20  2  0
 20 15  1  0
 21 22  1  0
 23 21  2  0
M  END
$$$$
