ACF.pdb
     RDKit          3D

 23 23  0  0  1  0  0  0  0  0999 V2000
    8.3972  -12.3063   19.6954 C   0  0  0  0  0  0  0  0  0  0  0  0
    8.3423  -13.7595   19.3350 C   0  0  2  0  0  0  0  0  0  0  0  0
    7.7201  -13.9688   18.0341 N   0  0  0  0  0  0  0  0  0  0  0  0
    7.5696  -14.4915   20.3888 C   0  0  0  0  0  0  0  0  0  0  0  0
    6.4224  -14.9430   20.1818 O   0  0  0  0  0  0  0  0  0  0  0  0
    8.1092  -14.7081   21.6820 N   0  0  0  0  0  0  0  0  0  0  0  0
    7.7675  -15.8148   22.4948 C   0  0  1  0  0  0  0  0  0  0  0  0
    7.9724  -17.1589   21.8686 C   0  0  0  0  0  0  0  0  0  0  0  0
    7.5153  -18.5185   22.9757 S   0  0  0  0  0  0  0  0  0  0  0  0
    8.5584  -15.7775   23.7520 C   0  0  0  0  0  0  0  0  0  0  0  0
    9.8008  -15.7397   23.6875 O   0  0  0  0  0  0  0  0  0  0  0  0
    7.9348  -15.7836   25.0367 N   0  0  0  0  0  0  0  0  0  0  0  0
    8.7590  -15.6318   26.2356 C   0  0  1  0  0  0  0  0  0  0  0  0
    7.9791  -14.9977   27.3399 C   0  0  0  0  0  0  0  0  0  0  0  0
    7.4146  -13.7080   26.8918 C   0  0  0  0  0  0  0  0  0  0  0  0
    8.1896  -12.6214   26.5312 C   0  0  0  0  0  0  0  0  0  0  0  0
    7.6403  -11.4330   26.1075 C   0  0  0  0  0  0  0  0  0  0  0  0
    6.2716  -11.2911   26.0300 C   0  0  0  0  0  0  0  0  0  0  0  0
    5.4581  -12.3425   26.3780 C   0  0  0  0  0  0  0  0  0  0  0  0
    6.0369  -13.5127   26.7958 C   0  0  0  0  0  0  0  0  0  0  0  0
    9.1881  -16.9823   26.6243 C   0  0  0  0  0  0  0  0  0  0  0  0
    8.7793  -18.1042   25.9096 O   0  0  0  0  0  0  0  0  0  0  0  0
    9.9365  -17.1336   27.6175 O   0  0  0  0  0  0  0  0  0  0  0  0
  2  1  1  1
  3  2  1  0
  4  6  1  0
  4  2  1  0
  5  4  2  0
  7 10  1  0
  7  6  1  0
  7  8  1  6
  9  8  1  0
 10 12  1  0
 11 10  2  0
 12 13  1  0
 13 21  1  0
 13 14  1  1
 15 14  1  0
 16 15  2  0
 17 16  1  0
 18 19  1  0
 18 17  2  0
 19 20  2  0
 20 15  1  0
 21 22  1  0
 23 21  2  0
M  END
$$$$
