ACF.pdb
     RDKit          3D

 23 23  0  0  1  0  0  0  0  0999 V2000
    7.9895  -12.0179   19.7896 C   0  0  0  0  0  0  0  0  0  0  0  0
    8.3973  -13.3121   19.1545 C   0  0  2  0  0  0  0  0  0  0  0  0
    7.7886  -13.4834   17.8417 N   0  0  0  0  0  0  0  0  0  0  0  0
    7.9917  -14.4412   20.0511 C   0  0  0  0  0  0  0  0  0  0  0  0
    6.8440  -14.9358   20.0232 O   0  0  0  0  0  0  0  0  0  0  0  0
    8.9000  -15.0065   20.9818 N   0  0  0  0  0  0  0  0  0  0  0  0
    8.5744  -16.0921   21.8290 C   0  0  1  0  0  0  0  0  0  0  0  0
    9.1729  -17.4090   21.4438 C   0  0  0  0  0  0  0  0  0  0  0  0
    8.6975  -18.7449   22.5718 S   0  0  0  0  0  0  0  0  0  0  0  0
    9.0041  -15.7905   23.2189 C   0  0  0  0  0  0  0  0  0  0  0  0
   10.1125  -15.2574   23.4102 O   0  0  0  0  0  0  0  0  0  0  0  0
    8.1818  -16.0945   24.3461 N   0  0  0  0  0  0  0  0  0  0  0  0
    8.6743  -15.8058   25.6929 C   0  0  1  0  0  0  0  0  0  0  0  0
    7.5454  -15.4714   26.6113 C   0  0  0  0  0  0  0  0  0  0  0  0
    7.1880  -14.0436   26.4831 C   0  0  0  0  0  0  0  0  0  0  0  0
    5.9029  -13.5994   26.2330 C   0  0  0  0  0  0  0  0  0  0  0  0
    5.5929  -12.2629   26.1274 C   0  0  0  0  0  0  0  0  0  0  0  0
    6.5782  -11.3098   26.2711 C   0  0  0  0  0  0  0  0  0  0  0  0
    7.8717  -11.7010   26.5204 C   0  0  0  0  0  0  0  0  0  0  0  0
    8.1470  -13.0401   26.6200 C   0  0  0  0  0  0  0  0  0  0  0  0
    9.3668  -17.0165   26.1555 C   0  0  0  0  0  0  0  0  0  0  0  0
   10.1257  -17.0137   27.3219 O   0  0  0  0  0  0  0  0  0  0  0  0
    9.2763  -18.0750   25.4916 O   0  0  0  0  0  0  0  0  0  0  0  0
  2  1  1  1
  3  2  1  0
  4  6  1  0
  4  2  1  0
  5  4  2  0
  7 10  1  0
  7  6  1  0
  7  8  1  6
  9  8  1  0
 10 12  1  0
 11 10  2  0
 12 13  1  0
 13 21  1  0
 13 14  1  1
 15 14  1  0
 16 15  2  0
 17 16  1  0
 18 19  1  0
 18 17  2  0
 19 20  2  0
 20 15  1  0
 21 22  1  0
 23 21  2  0
M  END
$$$$
