ACF.pdb
     RDKit          3D

 23 23  0  0  1  0  0  0  0  0999 V2000
    7.4594  -12.5698   19.1700 C   0  0  0  0  0  0  0  0  0  0  0  0
    8.6110  -13.3645   19.7056 C   0  0  2  0  0  0  0  0  0  0  0  0
    9.1730  -14.2486   18.6928 N   0  0  0  0  0  0  0  0  0  0  0  0
    8.1404  -14.1715   20.8764 C   0  0  0  0  0  0  0  0  0  0  0  0
    7.5085  -13.6618   21.8269 O   0  0  0  0  0  0  0  0  0  0  0  0
    8.3926  -15.5643   20.9610 N   0  0  0  0  0  0  0  0  0  0  0  0
    7.8271  -16.4009   21.9522 C   0  0  1  0  0  0  0  0  0  0  0  0
    7.8478  -17.8657   21.6443 C   0  0  0  0  0  0  0  0  0  0  0  0
    7.3970  -18.2211   19.9257 S   0  0  0  0  0  0  0  0  0  0  0  0
    8.5365  -16.2010   23.2422 C   0  0  0  0  0  0  0  0  0  0  0  0
    9.7501  -15.9250   23.2319 O   0  0  0  0  0  0  0  0  0  0  0  0
    7.8664  -16.3160   24.4981 N   0  0  0  0  0  0  0  0  0  0  0  0
    8.5808  -15.9719   25.7272 C   0  0  1  0  0  0  0  0  0  0  0  0
    7.6356  -15.4700   26.7686 C   0  0  0  0  0  0  0  0  0  0  0  0
    7.2419  -14.0771   26.4728 C   0  0  0  0  0  0  0  0  0  0  0  0
    5.9292  -13.6437   26.4556 C   0  0  0  0  0  0  0  0  0  0  0  0
    5.5880  -12.3380   26.1868 C   0  0  0  0  0  0  0  0  0  0  0  0
    6.5684  -11.4064   25.9211 C   0  0  0  0  0  0  0  0  0  0  0  0
    7.8885  -11.7881   25.9260 C   0  0  0  0  0  0  0  0  0  0  0  0
    8.1946  -13.0962   26.1977 C   0  0  0  0  0  0  0  0  0  0  0  0
    9.2413  -17.2011   26.1876 C   0  0  0  0  0  0  0  0  0  0  0  0
    8.9714  -18.4315   25.5961 O   0  0  0  0  0  0  0  0  0  0  0  0
   10.0642  -17.1474   27.1306 O   0  0  0  0  0  0  0  0  0  0  0  0
  2  1  1  6
  3  2  1  0
  4  6  1  0
  4  2  1  0
  5  4  2  0
  7 10  1  0
  7  6  1  0
  7  8  1  6
  9  8  1  0
 10 12  1  0
 11 10  2  0
 12 13  1  0
 13 21  1  0
 13 14  1  1
 15 14  1  0
 16 15  2  0
 17 16  1  0
 18 19  1  0
 18 17  2  0
 19 20  2  0
 20 15  1  0
 21 22  1  0
 23 21  2  0
M  END
$$$$
