ACF.pdb
     RDKit          3D

 23 23  0  0  1  0  0  0  0  0999 V2000
    8.4697  -12.1115   19.6535 C   0  0  0  0  0  0  0  0  0  0  0  0
    8.4961  -13.4935   19.0757 C   0  0  2  0  0  0  0  0  0  0  0  0
    7.7449  -13.5710   17.8296 N   0  0  0  0  0  0  0  0  0  0  0  0
    7.9180  -14.4479   20.0749 C   0  0  0  0  0  0  0  0  0  0  0  0
    6.7496  -14.8828   19.9830 O   0  0  0  0  0  0  0  0  0  0  0  0
    8.6768  -14.9062   21.1815 N   0  0  0  0  0  0  0  0  0  0  0  0
    8.2641  -15.9635   22.0264 C   0  0  1  0  0  0  0  0  0  0  0  0
    8.6384  -17.3376   21.5651 C   0  0  0  0  0  0  0  0  0  0  0  0
   10.3984  -17.4787   21.1583 S   0  0  0  0  0  0  0  0  0  0  0  0
    8.8349  -15.7726   23.3848 C   0  0  0  0  0  0  0  0  0  0  0  0
    9.9370  -15.2074   23.5069 O   0  0  0  0  0  0  0  0  0  0  0  0
    8.1555  -16.2192   24.5588 N   0  0  0  0  0  0  0  0  0  0  0  0
    8.7477  -15.9643   25.8718 C   0  0  1  0  0  0  0  0  0  0  0  0
    7.7061  -15.5289   26.8492 C   0  0  0  0  0  0  0  0  0  0  0  0
    7.3264  -14.1232   26.5990 C   0  0  0  0  0  0  0  0  0  0  0  0
    6.0649  -13.7369   26.1855 C   0  0  0  0  0  0  0  0  0  0  0  0
    5.7322  -12.4194   25.9683 C   0  0  0  0  0  0  0  0  0  0  0  0
    6.6694  -11.4274   26.1613 C   0  0  0  0  0  0  0  0  0  0  0  0
    7.9378  -11.7606   26.5717 C   0  0  0  0  0  0  0  0  0  0  0  0
    8.2368  -13.0821   26.7794 C   0  0  0  0  0  0  0  0  0  0  0  0
    9.3610  -17.2263   26.3083 C   0  0  0  0  0  0  0  0  0  0  0  0
    9.2060  -18.3974   25.5728 O   0  0  0  0  0  0  0  0  0  0  0  0
   10.0377  -17.2553   27.3622 O   0  0  0  0  0  0  0  0  0  0  0  0
  2  1  1  1
  3  2  1  0
  4  6  1  0
  4  2  1  0
  5  4  2  0
  7 10  1  0
  7  6  1  0
  7  8  1  6
  9  8  1  0
 10 12  1  0
 11 10  2  0
 12 13  1  0
 13 21  1  0
 13 14  1  1
 15 14  1  0
 16 15  2  0
 17 16  1  0
 18 19  1  0
 18 17  2  0
 19 20  2  0
 20 15  1  0
 21 22  1  0
 23 21  2  0
M  END
$$$$
