ACF.pdb
     RDKit          3D

 23 23  0  0  1  0  0  0  0  0999 V2000
   11.1928  -17.7882   18.5635 C   0  0  0  0  0  0  0  0  0  0  0  0
   10.7295  -17.9958   19.9730 C   0  0  2  0  0  0  0  0  0  0  0  0
    9.5934  -18.9059   20.0382 N   0  0  0  0  0  0  0  0  0  0  0  0
   10.3501  -16.6706   20.5588 C   0  0  0  0  0  0  0  0  0  0  0  0
   11.1588  -15.7208   20.6390 O   0  0  0  0  0  0  0  0  0  0  0  0
    9.0434  -16.4304   21.0542 N   0  0  0  0  0  0  0  0  0  0  0  0
    8.6340  -15.1946   21.6087 C   0  0  1  0  0  0  0  0  0  0  0  0
    7.3935  -14.6038   21.0146 C   0  0  0  0  0  0  0  0  0  0  0  0
    6.0681  -15.8235   20.8179 S   0  0  0  0  0  0  0  0  0  0  0  0
    8.4051  -15.3506   23.0684 C   0  0  0  0  0  0  0  0  0  0  0  0
    7.2784  -15.6901   23.4739 O   0  0  0  0  0  0  0  0  0  0  0  0
    9.4416  -15.1222   24.0238 N   0  0  0  0  0  0  0  0  0  0  0  0
    9.1491  -15.2694   25.4494 C   0  0  1  0  0  0  0  0  0  0  0  0
    7.6803  -15.1792   25.7027 C   0  0  0  0  0  0  0  0  0  0  0  0
    7.3192  -13.8137   26.1358 C   0  0  0  0  0  0  0  0  0  0  0  0
    8.2228  -12.7688   26.1933 C   0  0  0  0  0  0  0  0  0  0  0  0
    7.8601  -11.5023   26.5910 C   0  0  0  0  0  0  0  0  0  0  0  0
    6.5567  -11.2360   26.9511 C   0  0  0  0  0  0  0  0  0  0  0  0
    5.6209  -12.2416   26.9110 C   0  0  0  0  0  0  0  0  0  0  0  0
    6.0147  -13.4918   26.5101 C   0  0  0  0  0  0  0  0  0  0  0  0
    9.6554  -16.5900   25.8481 C   0  0  0  0  0  0  0  0  0  0  0  0
    9.7508  -16.9529   27.1881 O   0  0  0  0  0  0  0  0  0  0  0  0
   10.0096  -17.4098   24.9695 O   0  0  0  0  0  0  0  0  0  0  0  0
  2  1  1  6
  3  2  1  0
  4  6  1  0
  4  2  1  0
  5  4  2  0
  7 10  1  0
  7  6  1  0
  7  8  1  6
  9  8  1  0
 10 12  1  0
 11 10  2  0
 12 13  1  0
 13 21  1  0
 13 14  1  6
 15 14  1  0
 16 15  2  0
 17 16  1  0
 18 19  1  0
 18 17  2  0
 19 20  2  0
 20 15  1  0
 21 22  1  0
 23 21  2  0
M  END
$$$$
