ACF.pdb
     RDKit          3D

 23 23  0  0  1  0  0  0  0  0999 V2000
    8.2569  -12.1980   19.8233 C   0  0  0  0  0  0  0  0  0  0  0  0
    8.4132  -13.5854   19.2796 C   0  0  2  0  0  0  0  0  0  0  0  0
    7.5651  -13.8065   18.1156 N   0  0  0  0  0  0  0  0  0  0  0  0
    8.0643  -14.5692   20.3537 C   0  0  0  0  0  0  0  0  0  0  0  0
    6.9008  -14.9978   20.5132 O   0  0  0  0  0  0  0  0  0  0  0  0
    9.0473  -15.0644   21.2476 N   0  0  0  0  0  0  0  0  0  0  0  0
    8.8244  -16.1475   22.1305 C   0  0  1  0  0  0  0  0  0  0  0  0
    9.5056  -17.4281   21.7605 C   0  0  0  0  0  0  0  0  0  0  0  0
    9.1017  -18.7829   22.8939 S   0  0  0  0  0  0  0  0  0  0  0  0
    9.2691  -15.7790   23.4993 C   0  0  0  0  0  0  0  0  0  0  0  0
   10.3413  -15.1641   23.6450 O   0  0  0  0  0  0  0  0  0  0  0  0
    8.5014  -16.1098   24.6572 N   0  0  0  0  0  0  0  0  0  0  0  0
    9.0204  -15.7738   25.9828 C   0  0  1  0  0  0  0  0  0  0  0  0
    7.9087  -15.4196   26.9148 C   0  0  0  0  0  0  0  0  0  0  0  0
    7.4133  -14.0582   26.6252 C   0  0  0  0  0  0  0  0  0  0  0  0
    8.2096  -12.9295   26.6825 C   0  0  0  0  0  0  0  0  0  0  0  0
    7.7271  -11.6724   26.3987 C   0  0  0  0  0  0  0  0  0  0  0  0
    6.4068  -11.5013   26.0421 C   0  0  0  0  0  0  0  0  0  0  0  0
    5.5746  -12.5926   25.9713 C   0  0  0  0  0  0  0  0  0  0  0  0
    6.0865  -13.8308   26.2599 C   0  0  0  0  0  0  0  0  0  0  0  0
    9.7340  -16.9629   26.4686 C   0  0  0  0  0  0  0  0  0  0  0  0
   10.5013  -16.9214   27.6288 O   0  0  0  0  0  0  0  0  0  0  0  0
    9.6543  -18.0380   25.8306 O   0  0  0  0  0  0  0  0  0  0  0  0
  2  1  1  1
  3  2  1  0
  4  6  1  0
  4  2  1  0
  5  4  2  0
  7 10  1  0
  7  6  1  0
  7  8  1  6
  9  8  1  0
 10 12  1  0
 11 10  2  0
 12 13  1  0
 13 21  1  0
 13 14  1  1
 15 14  1  0
 16 15  2  0
 17 16  1  0
 18 19  1  0
 18 17  2  0
 19 20  2  0
 20 15  1  0
 21 22  1  0
 23 21  2  0
M  END
$$$$
