ACF.pdb
     RDKit          3D

 23 23  0  0  1  0  0  0  0  0999 V2000
   10.6003  -19.3236   18.7525 C   0  0  0  0  0  0  0  0  0  0  0  0
    9.9103  -19.1585   20.0720 C   0  0  2  0  0  0  0  0  0  0  0  0
    8.5495  -19.6783   20.0372 N   0  0  0  0  0  0  0  0  0  0  0  0
    9.8869  -17.7039   20.4283 C   0  0  0  0  0  0  0  0  0  0  0  0
   10.9336  -17.0351   20.5700 O   0  0  0  0  0  0  0  0  0  0  0  0
    8.6647  -17.0119   20.6230 N   0  0  0  0  0  0  0  0  0  0  0  0
    8.5900  -15.6400   20.9612 C   0  0  1  0  0  0  0  0  0  0  0  0
    7.2329  -15.0206   20.8353 C   0  0  0  0  0  0  0  0  0  0  0  0
    5.9817  -15.8816   21.8232 S   0  0  0  0  0  0  0  0  0  0  0  0
    9.0480  -15.4424   22.3607 C   0  0  0  0  0  0  0  0  0  0  0  0
    9.9660  -14.6341   22.5912 O   0  0  0  0  0  0  0  0  0  0  0  0
    8.4653  -16.1536   23.4533 N   0  0  0  0  0  0  0  0  0  0  0  0
    8.6878  -15.6794   24.8190 C   0  0  1  0  0  0  0  0  0  0  0  0
    8.0769  -14.3317   25.0199 C   0  0  0  0  0  0  0  0  0  0  0  0
    8.2667  -13.8874   26.4160 C   0  0  0  0  0  0  0  0  0  0  0  0
    9.4515  -14.0444   27.1111 C   0  0  0  0  0  0  0  0  0  0  0  0
    9.6071  -13.6133   28.4086 C   0  0  0  0  0  0  0  0  0  0  0  0
    8.5617  -12.9999   29.0648 C   0  0  0  0  0  0  0  0  0  0  0  0
    7.3632  -12.8209   28.4167 C   0  0  0  0  0  0  0  0  0  0  0  0
    7.2412  -13.2616   27.1246 C   0  0  0  0  0  0  0  0  0  0  0  0
    8.0599  -16.6623   25.7128 C   0  0  0  0  0  0  0  0  0  0  0  0
    8.7324  -17.1618   26.8240 O   0  0  0  0  0  0  0  0  0  0  0  0
    6.8969  -17.0627   25.4754 O   0  0  0  0  0  0  0  0  0  0  0  0
  2  1  1  6
  3  2  1  0
  4  6  1  0
  4  2  1  0
  5  4  2  0
  7 10  1  0
  7  6  1  0
  7  8  1  1
  9  8  1  0
 10 12  1  0
 11 10  2  0
 12 13  1  0
 13 21  1  0
 13 14  1  6
 15 14  1  0
 16 15  2  0
 17 16  1  0
 18 19  1  0
 18 17  2  0
 19 20  2  0
 20 15  1  0
 21 22  1  0
 23 21  2  0
M  END
$$$$
