ACF.pdb
     RDKit          3D

 23 23  0  0  1  0  0  0  0  0999 V2000
    9.6322  -20.3077   21.6073 C   0  0  0  0  0  0  0  0  0  0  0  0
    8.5714  -19.3046   21.2712 C   0  0  2  0  0  0  0  0  0  0  0  0
    8.1252  -19.4346   19.8901 N   0  0  0  0  0  0  0  0  0  0  0  0
    9.1160  -17.9281   21.4991 C   0  0  0  0  0  0  0  0  0  0  0  0
   10.3211  -17.6493   21.3183 O   0  0  0  0  0  0  0  0  0  0  0  0
    8.2815  -16.8677   21.9347 N   0  0  0  0  0  0  0  0  0  0  0  0
    8.7205  -15.5279   22.0543 C   0  0  1  0  0  0  0  0  0  0  0  0
    7.6705  -14.4854   21.8267 C   0  0  0  0  0  0  0  0  0  0  0  0
    6.0921  -14.9059   22.6108 S   0  0  0  0  0  0  0  0  0  0  0  0
    9.2910  -15.3055   23.4080 C   0  0  0  0  0  0  0  0  0  0  0  0
   10.0409  -14.3307   23.5988 O   0  0  0  0  0  0  0  0  0  0  0  0
    9.0042  -16.1789   24.5009 N   0  0  0  0  0  0  0  0  0  0  0  0
    9.5660  -15.8872   25.8195 C   0  0  1  0  0  0  0  0  0  0  0  0
    8.4830  -15.7279   26.8352 C   0  0  0  0  0  0  0  0  0  0  0  0
    7.7929  -14.4351   26.6480 C   0  0  0  0  0  0  0  0  0  0  0  0
    6.4773  -14.3263   26.2373 C   0  0  0  0  0  0  0  0  0  0  0  0
    5.8530  -13.1101   26.0793 C   0  0  0  0  0  0  0  0  0  0  0  0
    6.5388  -11.9415   26.3318 C   0  0  0  0  0  0  0  0  0  0  0  0
    7.8491  -11.9969   26.7421 C   0  0  0  0  0  0  0  0  0  0  0  0
    8.4414  -13.2241   26.8899 C   0  0  0  0  0  0  0  0  0  0  0  0
   10.4300  -17.0233   26.1690 C   0  0  0  0  0  0  0  0  0  0  0  0
   10.5301  -18.1367   25.3402 O   0  0  0  0  0  0  0  0  0  0  0  0
   11.0918  -16.9954   27.2322 O   0  0  0  0  0  0  0  0  0  0  0  0
  2  1  1  6
  3  2  1  0
  4  6  1  0
  4  2  1  0
  5  4  2  0
  7 10  1  0
  7  6  1  0
  7  8  1  1
  9  8  1  0
 10 12  1  0
 11 10  2  0
 12 13  1  0
 13 21  1  0
 13 14  1  1
 15 14  1  0
 16 15  2  0
 17 16  1  0
 18 19  1  0
 18 17  2  0
 19 20  2  0
 20 15  1  0
 21 22  1  0
 23 21  2  0
M  END
$$$$
