ACF.pdb
     RDKit          3D

 23 23  0  0  1  0  0  0  0  0999 V2000
    8.4126  -20.1726   22.1449 C   0  0  0  0  0  0  0  0  0  0  0  0
    8.2364  -19.2100   21.0104 C   0  0  2  0  0  0  0  0  0  0  0  0
    8.9025  -19.6750   19.8008 N   0  0  0  0  0  0  0  0  0  0  0  0
    8.7917  -17.8786   21.4136 C   0  0  0  0  0  0  0  0  0  0  0  0
   10.0209  -17.6648   21.4917 O   0  0  0  0  0  0  0  0  0  0  0  0
    7.9404  -16.7892   21.7281 N   0  0  0  0  0  0  0  0  0  0  0  0
    8.4133  -15.4868   22.0148 C   0  0  1  0  0  0  0  0  0  0  0  0
    7.4436  -14.3782   21.7471 C   0  0  0  0  0  0  0  0  0  0  0  0
    6.1073  -14.8782   20.6303 S   0  0  0  0  0  0  0  0  0  0  0  0
    8.8134  -15.4011   23.4431 C   0  0  0  0  0  0  0  0  0  0  0  0
    9.5664  -14.4802   23.8090 O   0  0  0  0  0  0  0  0  0  0  0  0
    8.3589  -16.3462   24.4124 N   0  0  0  0  0  0  0  0  0  0  0  0
    8.8527  -16.2592   25.7865 C   0  0  1  0  0  0  0  0  0  0  0  0
    7.7433  -15.9293   26.7300 C   0  0  0  0  0  0  0  0  0  0  0  0
    7.4723  -14.4771   26.7126 C   0  0  0  0  0  0  0  0  0  0  0  0
    6.2614  -13.9327   26.3270 C   0  0  0  0  0  0  0  0  0  0  0  0
    6.0297  -12.5762   26.3285 C   0  0  0  0  0  0  0  0  0  0  0  0
    7.0217  -11.7045   26.7232 C   0  0  0  0  0  0  0  0  0  0  0  0
    8.2433  -12.1968   27.1152 C   0  0  0  0  0  0  0  0  0  0  0  0
    8.4416  -13.5530   27.1024 C   0  0  0  0  0  0  0  0  0  0  0  0
    9.4250  -17.5730   26.1114 C   0  0  0  0  0  0  0  0  0  0  0  0
   10.0660  -17.8018   27.3252 O   0  0  0  0  0  0  0  0  0  0  0  0
    9.3377  -18.5095   25.2840 O   0  0  0  0  0  0  0  0  0  0  0  0
  2  1  1  1
  3  2  1  0
  4  6  1  0
  4  2  1  0
  5  4  2  0
  7 10  1  0
  7  6  1  0
  7  8  1  1
  9  8  1  0
 10 12  1  0
 11 10  2  0
 12 13  1  0
 13 21  1  0
 13 14  1  1
 15 14  1  0
 16 15  2  0
 17 16  1  0
 18 19  1  0
 18 17  2  0
 19 20  2  0
 20 15  1  0
 21 22  1  0
 23 21  2  0
M  END
$$$$
