ACF.pdb
     RDKit          3D

 23 23  0  0  1  0  0  0  0  0999 V2000
    7.5263  -12.8607   19.0442 C   0  0  0  0  0  0  0  0  0  0  0  0
    8.5562  -13.7141   19.7192 C   0  0  2  0  0  0  0  0  0  0  0  0
    8.9732  -14.8253   18.8738 N   0  0  0  0  0  0  0  0  0  0  0  0
    7.9861  -14.2398   21.0006 C   0  0  0  0  0  0  0  0  0  0  0  0
    7.6317  -13.4851   21.9320 O   0  0  0  0  0  0  0  0  0  0  0  0
    7.8207  -15.6312   21.2180 N   0  0  0  0  0  0  0  0  0  0  0  0
    7.2957  -16.1772   22.4132 C   0  0  1  0  0  0  0  0  0  0  0  0
    6.9313  -17.6278   22.3506 C   0  0  0  0  0  0  0  0  0  0  0  0
    6.1314  -18.2096   23.8687 S   0  0  0  0  0  0  0  0  0  0  0  0
    8.2760  -16.0055   23.5164 C   0  0  0  0  0  0  0  0  0  0  0  0
    9.4882  -15.9274   23.2455 O   0  0  0  0  0  0  0  0  0  0  0  0
    7.8686  -15.9270   24.8829 N   0  0  0  0  0  0  0  0  0  0  0  0
    8.8804  -15.7536   25.9249 C   0  0  1  0  0  0  0  0  0  0  0  0
    8.2806  -15.1532   27.1535 C   0  0  0  0  0  0  0  0  0  0  0  0
    7.5970  -13.8862   26.8217 C   0  0  0  0  0  0  0  0  0  0  0  0
    6.2254  -13.7721   26.6907 C   0  0  0  0  0  0  0  0  0  0  0  0
    5.6109  -12.5780   26.3904 C   0  0  0  0  0  0  0  0  0  0  0  0
    6.3638  -11.4381   26.2077 C   0  0  0  0  0  0  0  0  0  0  0  0
    7.7314  -11.5000   26.3269 C   0  0  0  0  0  0  0  0  0  0  0  0
    8.3123  -12.7047   26.6271 C   0  0  0  0  0  0  0  0  0  0  0  0
    9.4142  -17.0907   26.2190 C   0  0  0  0  0  0  0  0  0  0  0  0
    8.9313  -18.2211   25.5667 O   0  0  0  0  0  0  0  0  0  0  0  0
   10.3217  -17.2225   27.0725 O   0  0  0  0  0  0  0  0  0  0  0  0
  2  1  1  6
  3  2  1  0
  4  6  1  0
  4  2  1  0
  5  4  2  0
  7 10  1  0
  7  6  1  0
  7  8  1  6
  9  8  1  0
 10 12  1  0
 11 10  2  0
 12 13  1  0
 13 21  1  0
 13 14  1  1
 15 14  1  0
 16 15  2  0
 17 16  1  0
 18 19  1  0
 18 17  2  0
 19 20  2  0
 20 15  1  0
 21 22  1  0
 23 21  2  0
M  END
$$$$
