CTH.pdb
     RDKit          3D

 24 24  0  0  1  0  0  0  0  0999 V2000
    4.5698  -19.7981   20.7497 N   0  0  0  0  0  0  0  0  0  0  0  0
    4.9842  -18.4933   21.1997 C   0  0  1  0  0  0  0  0  0  0  0  0
    4.5688  -18.2516   22.6565 C   0  0  0  0  0  0  0  0  0  0  0  0
    4.5729  -19.7908   23.5643 S   0  0  0  0  0  0  0  0  0  0  0  0
    6.4585  -18.3393   21.0657 C   0  0  0  0  0  0  0  0  0  0  0  0
    7.2258  -19.3004   21.3291 O   0  0  0  0  0  0  0  0  0  0  0  0
    8.3156  -17.1038   18.0724 C   0  0  0  0  0  0  0  0  0  0  0  0
    8.8298  -16.2938   19.2405 C   0  0  1  0  0  0  0  0  0  0  0  0
    8.2953  -15.0072   19.2000 O   0  0  0  0  0  0  0  0  0  0  0  0
    8.5144  -16.9923   20.5604 C   0  0  2  0  0  0  0  0  0  0  0  0
    7.0735  -17.1249   20.6417 N   0  0  0  0  0  0  0  0  0  0  0  0
    9.0936  -16.3006   21.7066 C   0  0  0  0  0  0  0  0  0  0  0  0
    8.5226  -15.2941   22.1891 O   0  0  0  0  0  0  0  0  0  0  0  0
   10.3020  -16.7474   22.2931 N   0  0  0  0  0  0  0  0  0  0  0  0
   10.8387  -16.0331   23.4809 C   0  0  1  0  0  0  0  0  0  0  0  0
   10.5110  -16.8674   24.6661 C   0  0  0  0  0  0  0  0  0  0  0  0
    9.1223  -16.8939   25.1051 C   0  0  0  0  0  0  0  0  0  0  0  0
    8.0893  -16.0098   25.0962 C   0  0  0  0  0  0  0  0  0  0  0  0
    6.9791  -16.5909   25.6063 N   0  0  0  0  0  0  0  0  0  0  0  0
    7.3191  -17.8509   25.9370 C   0  0  0  0  0  0  0  0  0  0  0  0
    8.5956  -18.0485   25.6440 N   0  0  0  0  0  0  0  0  0  0  0  0
   12.3248  -16.0500   23.2453 C   0  0  0  0  0  0  0  0  0  0  0  0
   13.1545  -15.5574   24.0444 O   0  0  0  0  0  0  0  0  0  0  0  0
   12.8062  -16.6339   22.0961 O   0  0  0  0  0  0  0  0  0  0  0  0
  2  5  1  0
  2  1  1  1
  2  3  1  0
  4  3  1  0
  5  6  2  0
  8  7  1  6
  8 10  1  0
  9  8  1  0
 10 12  1  0
 11  5  1  0
 10 11  1  1
 12 14  1  0
 12 13  2  0
 14 15  1  0
 15 22  1  0
 15 16  1  1
 17 16  1  0
 17 18  2  0
 19 18  1  0
 20 21  2  0
 20 19  1  0
 21 17  1  0
 22 23  2  0
 22 24  1  0
M  END
$$$$
