CTH.pdb
     RDKit          3D

 24 24  0  0  1  0  0  0  0  0999 V2000
    9.0187  -15.2708   13.8147 N   0  0  0  0  0  0  0  0  0  0  0  0
    8.5190  -15.6732   15.1051 C   0  0  1  0  0  0  0  0  0  0  0  0
    8.5787  -17.1970   15.2720 C   0  0  0  0  0  0  0  0  0  0  0  0
   10.2379  -17.7876   14.9703 S   0  0  0  0  0  0  0  0  0  0  0  0
    9.2956  -15.0180   16.1927 C   0  0  0  0  0  0  0  0  0  0  0  0
   10.4768  -14.6361   15.9907 O   0  0  0  0  0  0  0  0  0  0  0  0
    7.6797  -12.5131   18.8877 C   0  0  0  0  0  0  0  0  0  0  0  0
    8.5533  -13.5602   19.5400 C   0  0  1  0  0  0  0  0  0  0  0  0
    7.7600  -14.5523   20.1137 O   0  0  0  0  0  0  0  0  0  0  0  0
    9.5400  -14.1425   18.5316 C   0  0  2  0  0  0  0  0  0  0  0  0
    8.7614  -14.7899   17.4947 N   0  0  0  0  0  0  0  0  0  0  0  0
   10.5144  -15.0295   19.1571 C   0  0  0  0  0  0  0  0  0  0  0  0
   10.4113  -16.2719   19.0244 O   0  0  0  0  0  0  0  0  0  0  0  0
   11.5876  -14.5105   19.9207 N   0  0  0  0  0  0  0  0  0  0  0  0
   12.6308  -15.4390   20.4292 C   0  0  1  0  0  0  0  0  0  0  0  0
   13.9084  -14.6804   20.4440 C   0  0  0  0  0  0  0  0  0  0  0  0
   14.6553  -14.5989   19.1961 C   0  0  0  0  0  0  0  0  0  0  0  0
   14.7524  -15.3646   18.0766 C   0  0  0  0  0  0  0  0  0  0  0  0
   15.5868  -14.7791   17.1870 N   0  0  0  0  0  0  0  0  0  0  0  0
   16.0158  -13.6357   17.7535 C   0  0  0  0  0  0  0  0  0  0  0  0
   15.4689  -13.5126   18.9537 N   0  0  0  0  0  0  0  0  0  0  0  0
   12.1864  -15.7096   21.8411 C   0  0  0  0  0  0  0  0  0  0  0  0
   11.1833  -15.1699   22.3629 O   0  0  0  0  0  0  0  0  0  0  0  0
   12.9126  -16.5935   22.6057 O   0  0  0  0  0  0  0  0  0  0  0  0
  2  5  1  0
  2  1  1  6
  2  3  1  0
  4  3  1  0
  5  6  2  0
  8  7  1  6
  8 10  1  0
  9  8  1  0
 10 12  1  0
 11  5  1  0
 10 11  1  6
 12 14  1  0
 12 13  2  0
 14 15  1  0
 15 22  1  0
 15 16  1  1
 17 16  1  0
 17 18  2  0
 19 18  1  0
 20 21  2  0
 20 19  1  0
 21 17  1  0
 22 23  2  0
 22 24  1  0
M  END
$$$$
