CTH.pdb
     RDKit          3D

 24 24  0  0  1  0  0  0  0  0999 V2000
    7.9515  -15.0448   17.8588 N   0  0  0  0  0  0  0  0  0  0  0  0
    8.5345  -14.5015   19.0595 C   0  0  1  0  0  0  0  0  0  0  0  0
    7.8036  -13.2278   19.5033 C   0  0  0  0  0  0  0  0  0  0  0  0
    8.4357  -11.8112   18.6163 S   0  0  0  0  0  0  0  0  0  0  0  0
    8.5021  -15.5071   20.1563 C   0  0  0  0  0  0  0  0  0  0  0  0
    7.5149  -16.2754   20.2870 O   0  0  0  0  0  0  0  0  0  0  0  0
   11.9724  -16.9647   21.8662 C   0  0  0  0  0  0  0  0  0  0  0  0
   10.6287  -17.6572   21.8696 C   0  0  1  0  0  0  0  0  0  0  0  0
   10.6308  -18.6962   22.7987 O   0  0  0  0  0  0  0  0  0  0  0  0
    9.5087  -16.6580   22.1460 C   0  0  2  0  0  0  0  0  0  0  0  0
    9.5603  -15.6561   21.1001 N   0  0  0  0  0  0  0  0  0  0  0  0
    9.5882  -16.0924   23.4881 C   0  0  0  0  0  0  0  0  0  0  0  0
   10.3542  -15.1276   23.7206 O   0  0  0  0  0  0  0  0  0  0  0  0
    8.8086  -16.6166   24.5472 N   0  0  0  0  0  0  0  0  0  0  0  0
    8.8794  -15.9747   25.8858 C   0  0  1  0  0  0  0  0  0  0  0  0
    7.4984  -15.5459   26.2283 C   0  0  0  0  0  0  0  0  0  0  0  0
    7.2553  -14.1169   26.3721 C   0  0  0  0  0  0  0  0  0  0  0  0
    8.0376  -13.0096   26.4753 C   0  0  0  0  0  0  0  0  0  0  0  0
    7.2639  -11.9021   26.5476 N   0  0  0  0  0  0  0  0  0  0  0  0
    5.9851  -12.3190   26.4883 C   0  0  0  0  0  0  0  0  0  0  0  0
    5.9622  -13.6392   26.3831 N   0  0  0  0  0  0  0  0  0  0  0  0
    9.2953  -17.1074   26.7848 C   0  0  0  0  0  0  0  0  0  0  0  0
    9.4893  -16.9745   28.0154 O   0  0  0  0  0  0  0  0  0  0  0  0
    9.4743  -18.3565   26.2361 O   0  0  0  0  0  0  0  0  0  0  0  0
  2  5  1  0
  2  1  1  6
  2  3  1  0
  4  3  1  0
  5  6  2  0
  8  7  1  1
  8 10  1  0
  9  8  1  0
 10 12  1  0
 11  5  1  0
 10 11  1  6
 12 14  1  0
 12 13  2  0
 14 15  1  0
 15 22  1  0
 15 16  1  1
 17 16  1  0
 17 18  2  0
 19 18  1  0
 20 21  2  0
 20 19  1  0
 21 17  1  0
 22 23  2  0
 22 24  1  0
M  END
$$$$
