CTH.pdb
     RDKit          3D

 24 24  0  0  1  0  0  0  0  0999 V2000
    9.1301  -15.1346   14.2543 N   0  0  0  0  0  0  0  0  0  0  0  0
    8.5035  -15.7054   15.4197 C   0  0  1  0  0  0  0  0  0  0  0  0
    8.6365  -17.2337   15.4280 C   0  0  0  0  0  0  0  0  0  0  0  0
   10.2642  -17.7159   14.8701 S   0  0  0  0  0  0  0  0  0  0  0  0
    9.1007  -15.1427   16.6614 C   0  0  0  0  0  0  0  0  0  0  0  0
   10.2906  -14.7350   16.6678 O   0  0  0  0  0  0  0  0  0  0  0  0
    7.2905  -12.6516   19.0831 C   0  0  0  0  0  0  0  0  0  0  0  0
    7.8832  -13.7948   19.8750 C   0  0  1  0  0  0  0  0  0  0  0  0
    6.8800  -14.6901   20.2423 O   0  0  0  0  0  0  0  0  0  0  0  0
    8.9887  -14.4842   19.0802 C   0  0  2  0  0  0  0  0  0  0  0  0
    8.3789  -15.0346   17.8862 N   0  0  0  0  0  0  0  0  0  0  0  0
    9.7033  -15.4794   19.8717 C   0  0  0  0  0  0  0  0  0  0  0  0
    9.5016  -16.7015   19.6777 O   0  0  0  0  0  0  0  0  0  0  0  0
   10.6315  -15.0896   20.8669 N   0  0  0  0  0  0  0  0  0  0  0  0
   11.3985  -16.1358   21.5923 C   0  0  1  0  0  0  0  0  0  0  0  0
   12.7053  -15.5311   21.9594 C   0  0  0  0  0  0  0  0  0  0  0  0
   13.6004  -16.3218   22.7933 C   0  0  0  0  0  0  0  0  0  0  0  0
   13.5775  -17.5775   23.3146 C   0  0  0  0  0  0  0  0  0  0  0  0
   14.7207  -17.8152   23.9979 N   0  0  0  0  0  0  0  0  0  0  0  0
   15.4673  -16.6989   23.9033 C   0  0  0  0  0  0  0  0  0  0  0  0
   14.8130  -15.7971   23.1870 N   0  0  0  0  0  0  0  0  0  0  0  0
   10.5781  -16.3600   22.8336 C   0  0  0  0  0  0  0  0  0  0  0  0
    9.6503  -15.5984   23.1929 O   0  0  0  0  0  0  0  0  0  0  0  0
   10.8535  -17.4547   23.6204 O   0  0  0  0  0  0  0  0  0  0  0  0
  2  5  1  0
  2  1  1  6
  2  3  1  0
  4  3  1  0
  5  6  2  0
  8  7  1  6
  8 10  1  0
  9  8  1  0
 10 12  1  0
 11  5  1  0
 10 11  1  6
 12 14  1  0
 12 13  2  0
 14 15  1  0
 15 22  1  0
 15 16  1  1
 17 16  1  0
 17 18  2  0
 19 18  1  0
 20 21  2  0
 20 19  1  0
 21 17  1  0
 22 23  2  0
 22 24  1  0
M  END
$$$$
