CTH.pdb
     RDKit          3D

 24 24  0  0  1  0  0  0  0  0999 V2000
    8.1044  -14.6035   17.7093 N   0  0  0  0  0  0  0  0  0  0  0  0
    8.5694  -14.1766   19.0048 C   0  0  1  0  0  0  0  0  0  0  0  0
    7.8235  -12.9214   19.4755 C   0  0  0  0  0  0  0  0  0  0  0  0
    8.7594  -11.4555   19.0651 S   0  0  0  0  0  0  0  0  0  0  0  0
    8.4001  -15.2659   20.0048 C   0  0  0  0  0  0  0  0  0  0  0  0
    7.2865  -15.8331   20.1464 O   0  0  0  0  0  0  0  0  0  0  0  0
    9.4225  -18.5222   20.1788 C   0  0  0  0  0  0  0  0  0  0  0  0
    9.9828  -17.9719   21.4704 C   0  0  1  0  0  0  0  0  0  0  0  0
   11.3518  -17.7458   21.3376 O   0  0  0  0  0  0  0  0  0  0  0  0
    9.2408  -16.7033   21.8820 C   0  0  2  0  0  0  0  0  0  0  0  0
    9.4623  -15.7201   20.8405 N   0  0  0  0  0  0  0  0  0  0  0  0
    9.6335  -16.2357   23.2067 C   0  0  0  0  0  0  0  0  0  0  0  0
   10.5631  -15.4038   23.3309 O   0  0  0  0  0  0  0  0  0  0  0  0
    8.9786  -16.7074   24.3698 N   0  0  0  0  0  0  0  0  0  0  0  0
    9.3534  -16.1419   25.6922 C   0  0  1  0  0  0  0  0  0  0  0  0
    8.0904  -15.7140   26.3480 C   0  0  0  0  0  0  0  0  0  0  0  0
    7.5788  -14.3902   26.0200 C   0  0  0  0  0  0  0  0  0  0  0  0
    8.0788  -13.2872   25.4019 C   0  0  0  0  0  0  0  0  0  0  0  0
    7.1285  -12.3269   25.3298 N   0  0  0  0  0  0  0  0  0  0  0  0
    6.0225  -12.8330   25.9072 C   0  0  0  0  0  0  0  0  0  0  0  0
    6.2742  -14.0646   26.3247 N   0  0  0  0  0  0  0  0  0  0  0  0
    9.9248  -17.3285   26.4200 C   0  0  0  0  0  0  0  0  0  0  0  0
    9.8916  -18.4961   25.9666 O   0  0  0  0  0  0  0  0  0  0  0  0
   10.5159  -17.1309   27.6467 O   0  0  0  0  0  0  0  0  0  0  0  0
  2  5  1  0
  2  1  1  6
  2  3  1  0
  4  3  1  0
  5  6  2  0
  8  7  1  6
  8 10  1  0
  9  8  1  0
 10 12  1  0
 11  5  1  0
 10 11  1  6
 12 14  1  0
 12 13  2  0
 14 15  1  0
 15 22  1  0
 15 16  1  1
 17 16  1  0
 17 18  2  0
 19 18  1  0
 20 21  2  0
 20 19  1  0
 21 17  1  0
 22 23  2  0
 22 24  1  0
M  END
$$$$
