CTH.pdb
     RDKit          3D

 24 24  0  0  1  0  0  0  0  0999 V2000
    7.9406  -17.6502   16.7365 N   0  0  0  0  0  0  0  0  0  0  0  0
    7.1583  -17.0046   17.7602 C   0  0  1  0  0  0  0  0  0  0  0  0
    6.1520  -17.9789   18.3859 C   0  0  0  0  0  0  0  0  0  0  0  0
    6.9718  -19.0422   19.5651 S   0  0  0  0  0  0  0  0  0  0  0  0
    8.0432  -16.4476   18.8194 C   0  0  0  0  0  0  0  0  0  0  0  0
    9.2733  -16.7098   18.8246 O   0  0  0  0  0  0  0  0  0  0  0  0
    7.6254  -12.7664   20.1610 C   0  0  0  0  0  0  0  0  0  0  0  0
    7.8214  -13.7191   21.3181 C   0  0  1  0  0  0  0  0  0  0  0  0
    6.6045  -13.9477   21.9581 O   0  0  0  0  0  0  0  0  0  0  0  0
    8.4593  -15.0211   20.8414 C   0  0  2  0  0  0  0  0  0  0  0  0
    7.5623  -15.6055   19.8646 N   0  0  0  0  0  0  0  0  0  0  0  0
    8.7731  -15.9219   21.9449 C   0  0  0  0  0  0  0  0  0  0  0  0
    7.8968  -16.6987   22.3925 O   0  0  0  0  0  0  0  0  0  0  0  0
   10.0628  -15.9378   22.5285 N   0  0  0  0  0  0  0  0  0  0  0  0
   10.3324  -16.8559   23.6658 C   0  0  1  0  0  0  0  0  0  0  0  0
   10.8309  -18.1275   23.0803 C   0  0  0  0  0  0  0  0  0  0  0  0
   11.2955  -19.1546   24.0027 C   0  0  0  0  0  0  0  0  0  0  0  0
   11.3294  -19.2951   25.3547 C   0  0  0  0  0  0  0  0  0  0  0  0
   11.8453  -20.5024   25.6813 N   0  0  0  0  0  0  0  0  0  0  0  0
   12.1365  -21.1247   24.5235 C   0  0  0  0  0  0  0  0  0  0  0  0
   11.8141  -20.3337   23.5111 N   0  0  0  0  0  0  0  0  0  0  0  0
   11.4485  -16.1662   24.4026 C   0  0  0  0  0  0  0  0  0  0  0  0
   12.1273  -15.2356   23.9098 O   0  0  0  0  0  0  0  0  0  0  0  0
   11.7459  -16.5716   25.6835 O   0  0  0  0  0  0  0  0  0  0  0  0
  2  5  1  0
  2  1  1  6
  2  3  1  0
  4  3  1  0
  5  6  2  0
  8  7  1  6
  8 10  1  0
  9  8  1  0
 10 12  1  0
 11  5  1  0
 10 11  1  6
 12 14  1  0
 12 13  2  0
 14 15  1  0
 15 22  1  0
 15 16  1  6
 17 16  1  0
 17 18  2  0
 19 18  1  0
 20 21  2  0
 20 19  1  0
 21 17  1  0
 22 23  2  0
 22 24  1  0
M  END
$$$$
