CTH.pdb
     RDKit          3D

 24 24  0  0  1  0  0  0  0  0999 V2000
    8.0608  -13.4143   19.1081 N   0  0  0  0  0  0  0  0  0  0  0  0
    7.2862  -13.9503   20.1986 C   0  0  1  0  0  0  0  0  0  0  0  0
    6.7045  -15.3245   19.8425 C   0  0  0  0  0  0  0  0  0  0  0  0
    8.0199  -16.5113   19.6095 S   0  0  0  0  0  0  0  0  0  0  0  0
    8.1205  -14.0610   21.4262 C   0  0  0  0  0  0  0  0  0  0  0  0
    9.3747  -14.1057   21.3419 O   0  0  0  0  0  0  0  0  0  0  0  0
    7.6079  -12.1337   24.8373 C   0  0  0  0  0  0  0  0  0  0  0  0
    7.6990  -13.6236   25.0763 C   0  0  1  0  0  0  0  0  0  0  0  0
    6.4272  -14.1487   25.2992 O   0  0  0  0  0  0  0  0  0  0  0  0
    8.3956  -14.3148   23.9074 C   0  0  2  0  0  0  0  0  0  0  0  0
    7.5630  -14.1214   22.7370 N   0  0  0  0  0  0  0  0  0  0  0  0
    8.6823  -15.7181   24.1834 C   0  0  0  0  0  0  0  0  0  0  0  0
    7.8453  -16.6024   23.8845 O   0  0  0  0  0  0  0  0  0  0  0  0
    9.9010  -16.1075   24.7893 N   0  0  0  0  0  0  0  0  0  0  0  0
   10.1866  -17.5538   24.9786 C   0  0  1  0  0  0  0  0  0  0  0  0
   11.5943  -17.7710   24.5553 C   0  0  0  0  0  0  0  0  0  0  0  0
   11.8763  -17.7508   23.1263 C   0  0  0  0  0  0  0  0  0  0  0  0
   11.1585  -17.9900   21.9966 C   0  0  0  0  0  0  0  0  0  0  0  0
   11.9298  -17.7783   20.9053 N   0  0  0  0  0  0  0  0  0  0  0  0
   13.1416  -17.4021   21.3552 C   0  0  0  0  0  0  0  0  0  0  0  0
   13.1268  -17.3803   22.6795 N   0  0  0  0  0  0  0  0  0  0  0  0
   10.0731  -17.7307   26.4686 C   0  0  0  0  0  0  0  0  0  0  0  0
   10.2471  -18.8283   27.0472 O   0  0  0  0  0  0  0  0  0  0  0  0
    9.7626  -16.6367   27.2434 O   0  0  0  0  0  0  0  0  0  0  0  0
  2  5  1  0
  2  1  1  6
  2  3  1  0
  4  3  1  0
  5  6  2  0
  8  7  1  6
  8 10  1  0
  9  8  1  0
 10 12  1  0
 11  5  1  0
 10 11  1  6
 12 14  1  0
 12 13  2  0
 14 15  1  0
 15 22  1  0
 15 16  1  1
 17 16  1  0
 17 18  2  0
 19 18  1  0
 20 21  2  0
 20 19  1  0
 21 17  1  0
 22 23  2  0
 22 24  1  0
M  END
$$$$
