CTH.pdb
     RDKit          3D

 24 24  0  0  1  0  0  0  0  0999 V2000
    7.8014  -13.8180   17.7204 N   0  0  0  0  0  0  0  0  0  0  0  0
    8.9470  -13.9693   18.5815 C   0  0  1  0  0  0  0  0  0  0  0  0
    9.3613  -12.6253   19.1941 C   0  0  0  0  0  0  0  0  0  0  0  0
    8.1101  -12.0536   20.3348 S   0  0  0  0  0  0  0  0  0  0  0  0
    8.6592  -14.9478   19.6654 C   0  0  0  0  0  0  0  0  0  0  0  0
    7.4774  -15.1454   20.0478 O   0  0  0  0  0  0  0  0  0  0  0  0
    9.6951  -18.4536   19.6029 C   0  0  0  0  0  0  0  0  0  0  0  0
   10.1098  -17.9645   20.9717 C   0  0  1  0  0  0  0  0  0  0  0  0
   11.4912  -17.7831   21.0142 O   0  0  0  0  0  0  0  0  0  0  0  0
    9.3632  -16.6839   21.3349 C   0  0  2  0  0  0  0  0  0  0  0  0
    9.6791  -15.7004   20.3183 N   0  0  0  0  0  0  0  0  0  0  0  0
    9.6657  -16.2297   22.6877 C   0  0  0  0  0  0  0  0  0  0  0  0
   10.4988  -15.3112   22.8720 O   0  0  0  0  0  0  0  0  0  0  0  0
    9.0303  -16.8116   23.8109 N   0  0  0  0  0  0  0  0  0  0  0  0
    9.3675  -16.3169   25.1713 C   0  0  1  0  0  0  0  0  0  0  0  0
    8.0855  -15.9316   25.8164 C   0  0  0  0  0  0  0  0  0  0  0  0
    7.6128  -14.5694   25.6098 C   0  0  0  0  0  0  0  0  0  0  0  0
    8.1192  -13.4487   25.0296 C   0  0  0  0  0  0  0  0  0  0  0  0
    7.2101  -12.4483   25.0852 N   0  0  0  0  0  0  0  0  0  0  0  0
    6.1238  -12.9466   25.7049 C   0  0  0  0  0  0  0  0  0  0  0  0
    6.3475  -14.2123   26.0248 N   0  0  0  0  0  0  0  0  0  0  0  0
    9.9277  -17.5384   25.8484 C   0  0  0  0  0  0  0  0  0  0  0  0
    9.9419  -18.6739   25.3190 O   0  0  0  0  0  0  0  0  0  0  0  0
   10.4535  -17.4114   27.1136 O   0  0  0  0  0  0  0  0  0  0  0  0
  2  5  1  0
  2  1  1  1
  2  3  1  0
  4  3  1  0
  5  6  2  0
  8  7  1  6
  8 10  1  0
  9  8  1  0
 10 12  1  0
 11  5  1  0
 10 11  1  6
 12 14  1  0
 12 13  2  0
 14 15  1  0
 15 22  1  0
 15 16  1  1
 17 16  1  0
 17 18  2  0
 19 18  1  0
 20 21  2  0
 20 19  1  0
 21 17  1  0
 22 23  2  0
 22 24  1  0
M  END
$$$$
