CTH.pdb
     RDKit          3D

 24 24  0  0  1  0  0  0  0  0999 V2000
    9.3160  -14.5667   13.8839 N   0  0  0  0  0  0  0  0  0  0  0  0
    8.5374  -15.0159   15.0103 C   0  0  1  0  0  0  0  0  0  0  0  0
    8.2781  -16.5262   14.9379 C   0  0  0  0  0  0  0  0  0  0  0  0
    9.7992  -17.4279   15.1952 S   0  0  0  0  0  0  0  0  0  0  0  0
    9.2279  -14.6856   16.2867 C   0  0  0  0  0  0  0  0  0  0  0  0
   10.4722  -14.5030   16.3089 O   0  0  0  0  0  0  0  0  0  0  0  0
    7.5469  -12.4276   19.1026 C   0  0  0  0  0  0  0  0  0  0  0  0
    8.2125  -13.6385   19.7156 C   0  0  1  0  0  0  0  0  0  0  0  0
    7.2492  -14.5765   20.0830 O   0  0  0  0  0  0  0  0  0  0  0  0
    9.2385  -14.2330   18.7548 C   0  0  2  0  0  0  0  0  0  0  0  0
    8.5387  -14.5595   17.5284 N   0  0  0  0  0  0  0  0  0  0  0  0
    9.9464  -15.3699   19.3327 C   0  0  0  0  0  0  0  0  0  0  0  0
    9.7544  -16.5251   18.8849 O   0  0  0  0  0  0  0  0  0  0  0  0
   10.8572  -15.1942   20.4022 N   0  0  0  0  0  0  0  0  0  0  0  0
   11.5621  -16.3798   20.9560 C   0  0  1  0  0  0  0  0  0  0  0  0
   12.4337  -16.9041   19.8727 C   0  0  0  0  0  0  0  0  0  0  0  0
   13.4058  -15.9885   19.2908 C   0  0  0  0  0  0  0  0  0  0  0  0
   13.4799  -14.6423   19.1147 C   0  0  0  0  0  0  0  0  0  0  0  0
   14.6597  -14.3157   18.5387 N   0  0  0  0  0  0  0  0  0  0  0  0
   15.3316  -15.4674   18.3531 C   0  0  0  0  0  0  0  0  0  0  0  0
   14.5969  -16.4763   18.7970 N   0  0  0  0  0  0  0  0  0  0  0  0
   12.4120  -15.7904   22.0489 C   0  0  0  0  0  0  0  0  0  0  0  0
   12.4035  -14.5736   22.3476 O   0  0  0  0  0  0  0  0  0  0  0  0
   13.2442  -16.6225   22.7619 O   0  0  0  0  0  0  0  0  0  0  0  0
  2  5  1  0
  2  1  1  6
  2  3  1  0
  4  3  1  0
  5  6  2  0
  8  7  1  6
  8 10  1  0
  9  8  1  0
 10 12  1  0
 11  5  1  0
 10 11  1  6
 12 14  1  0
 12 13  2  0
 14 15  1  0
 15 22  1  0
 15 16  1  6
 17 16  1  0
 17 18  2  0
 19 18  1  0
 20 21  2  0
 20 19  1  0
 21 17  1  0
 22 23  2  0
 22 24  1  0
M  END
$$$$
