CTH.pdb
     RDKit          3D

 24 24  0  0  1  0  0  0  0  0999 V2000
    5.5479  -13.3509   26.3329 N   0  0  0  0  0  0  0  0  0  0  0  0
    6.3707  -13.2118   25.1579 C   0  0  1  0  0  0  0  0  0  0  0  0
    7.2694  -11.9723   25.2541 C   0  0  0  0  0  0  0  0  0  0  0  0
    7.6658  -11.6268   26.9619 S   0  0  0  0  0  0  0  0  0  0  0  0
    7.2090  -14.4259   24.9614 C   0  0  0  0  0  0  0  0  0  0  0  0
    7.4682  -15.1846   25.9305 O   0  0  0  0  0  0  0  0  0  0  0  0
    7.2741  -16.4620   21.5221 C   0  0  0  0  0  0  0  0  0  0  0  0
    8.6734  -16.2888   22.0669 C   0  0  1  0  0  0  0  0  0  0  0  0
    9.3563  -15.3244   21.3277 O   0  0  0  0  0  0  0  0  0  0  0  0
    8.6335  -15.9353   23.5511 C   0  0  2  0  0  0  0  0  0  0  0  0
    7.7544  -14.7923   23.6961 N   0  0  0  0  0  0  0  0  0  0  0  0
    9.9644  -15.7106   24.1041 C   0  0  0  0  0  0  0  0  0  0  0  0
   10.4882  -14.5733   24.0423 O   0  0  0  0  0  0  0  0  0  0  0  0
   10.6861  -16.7631   24.7170 N   0  0  0  0  0  0  0  0  0  0  0  0
   11.9724  -16.4597   25.3972 C   0  0  1  0  0  0  0  0  0  0  0  0
   11.7889  -16.8017   26.8316 C   0  0  0  0  0  0  0  0  0  0  0  0
   10.9337  -15.9299   27.6256 C   0  0  0  0  0  0  0  0  0  0  0  0
   10.2414  -14.7830   27.3927 C   0  0  0  0  0  0  0  0  0  0  0  0
    9.5640  -14.4179   28.5055 N   0  0  0  0  0  0  0  0  0  0  0  0
    9.8334  -15.3449   29.4440 C   0  0  0  0  0  0  0  0  0  0  0  0
   10.6498  -16.2552   28.9349 N   0  0  0  0  0  0  0  0  0  0  0  0
   12.9299  -17.4322   24.7635 C   0  0  0  0  0  0  0  0  0  0  0  0
   12.5815  -18.2927   23.9220 O   0  0  0  0  0  0  0  0  0  0  0  0
   14.2579  -17.3813   25.1201 O   0  0  0  0  0  0  0  0  0  0  0  0
  2  5  1  0
  2  1  1  1
  2  3  1  0
  4  3  1  0
  5  6  2  0
  8  7  1  6
  8 10  1  0
  9  8  1  0
 10 12  1  0
 11  5  1  0
 10 11  1  6
 12 14  1  0
 12 13  2  0
 14 15  1  0
 15 22  1  0
 15 16  1  1
 17 16  1  0
 17 18  2  0
 19 18  1  0
 20 21  2  0
 20 19  1  0
 21 17  1  0
 22 23  2  0
 22 24  1  0
M  END
$$$$
