CTH.pdb
     RDKit          3D

 24 24  0  0  1  0  0  0  0  0999 V2000
    8.4858  -14.2380   17.8104 N   0  0  0  0  0  0  0  0  0  0  0  0
    9.3043  -14.0797   18.9858 C   0  0  1  0  0  0  0  0  0  0  0  0
    9.1714  -12.6665   19.5676 C   0  0  0  0  0  0  0  0  0  0  0  0
    7.4586  -12.3035   19.9253 S   0  0  0  0  0  0  0  0  0  0  0  0
    8.9336  -15.0850   20.0188 C   0  0  0  0  0  0  0  0  0  0  0  0
    7.7426  -15.4735   20.1310 O   0  0  0  0  0  0  0  0  0  0  0  0
    9.8444  -18.4449   20.2687 C   0  0  0  0  0  0  0  0  0  0  0  0
   10.2269  -17.9143   21.6315 C   0  0  1  0  0  0  0  0  0  0  0  0
   11.6086  -17.7471   21.7069 O   0  0  0  0  0  0  0  0  0  0  0  0
    9.4861  -16.6139   21.9304 C   0  0  2  0  0  0  0  0  0  0  0  0
    9.8814  -15.6533   20.9197 N   0  0  0  0  0  0  0  0  0  0  0  0
    9.7170  -16.1438   23.2917 C   0  0  0  0  0  0  0  0  0  0  0  0
   10.5106  -15.1970   23.5049 O   0  0  0  0  0  0  0  0  0  0  0  0
    9.0554  -16.7417   24.3912 N   0  0  0  0  0  0  0  0  0  0  0  0
    9.2901  -16.2052   25.7573 C   0  0  1  0  0  0  0  0  0  0  0  0
    7.9655  -15.7895   26.2872 C   0  0  0  0  0  0  0  0  0  0  0  0
    7.5163  -14.4370   25.9859 C   0  0  0  0  0  0  0  0  0  0  0  0
    8.0493  -13.3621   25.3462 C   0  0  0  0  0  0  0  0  0  0  0  0
    7.1538  -12.3483   25.3208 N   0  0  0  0  0  0  0  0  0  0  0  0
    6.0491  -12.7921   25.9494 C   0  0  0  0  0  0  0  0  0  0  0  0
    6.2486  -14.0380   26.3527 N   0  0  0  0  0  0  0  0  0  0  0  0
    9.7836  -17.4079   26.5150 C   0  0  0  0  0  0  0  0  0  0  0  0
    9.8246  -18.5608   26.0262 O   0  0  0  0  0  0  0  0  0  0  0  0
   10.2139  -17.2427   27.8115 O   0  0  0  0  0  0  0  0  0  0  0  0
  2  5  1  0
  2  1  1  6
  2  3  1  0
  4  3  1  0
  5  6  2  0
  8  7  1  6
  8 10  1  0
  9  8  1  0
 10 12  1  0
 11  5  1  0
 10 11  1  6
 12 14  1  0
 12 13  2  0
 14 15  1  0
 15 22  1  0
 15 16  1  1
 17 16  1  0
 17 18  2  0
 19 18  1  0
 20 21  2  0
 20 19  1  0
 21 17  1  0
 22 23  2  0
 22 24  1  0
M  END
$$$$
