CTH.pdb
     RDKit          3D

 24 24  0  0  1  0  0  0  0  0999 V2000
   12.4079  -14.0101   15.9742 N   0  0  0  0  0  0  0  0  0  0  0  0
   11.6451  -15.0043   16.6858 C   0  0  1  0  0  0  0  0  0  0  0  0
   12.4136  -16.3285   16.7821 C   0  0  0  0  0  0  0  0  0  0  0  0
   12.7973  -16.9411   15.1478 S   0  0  0  0  0  0  0  0  0  0  0  0
   11.3041  -14.5212   18.0516 C   0  0  0  0  0  0  0  0  0  0  0  0
   12.1805  -13.9790   18.7727 O   0  0  0  0  0  0  0  0  0  0  0  0
    8.0385  -12.5241   19.0946 C   0  0  0  0  0  0  0  0  0  0  0  0
    8.2392  -13.7426   19.9663 C   0  0  1  0  0  0  0  0  0  0  0  0
    7.3920  -14.7691   19.5523 O   0  0  0  0  0  0  0  0  0  0  0  0
    9.7012  -14.1801   19.9519 C   0  0  2  0  0  0  0  0  0  0  0  0
    9.9977  -14.6407   18.6102 N   0  0  0  0  0  0  0  0  0  0  0  0
    9.9932  -15.1743   20.9786 C   0  0  0  0  0  0  0  0  0  0  0  0
    9.9525  -16.3963   20.7015 O   0  0  0  0  0  0  0  0  0  0  0  0
   10.3258  -14.7834   22.2979 N   0  0  0  0  0  0  0  0  0  0  0  0
   10.5329  -15.8295   23.3333 C   0  0  1  0  0  0  0  0  0  0  0  0
   11.8971  -15.6219   23.8845 C   0  0  0  0  0  0  0  0  0  0  0  0
   13.0249  -16.0183   23.0522 C   0  0  0  0  0  0  0  0  0  0  0  0
   13.1690  -16.5339   21.8023 C   0  0  0  0  0  0  0  0  0  0  0  0
   14.4822  -16.6735   21.5084 N   0  0  0  0  0  0  0  0  0  0  0  0
   15.1674  -16.2406   22.5833 C   0  0  0  0  0  0  0  0  0  0  0  0
   14.3122  -15.8455   23.5145 N   0  0  0  0  0  0  0  0  0  0  0  0
    9.5067  -15.4823   24.3776 C   0  0  0  0  0  0  0  0  0  0  0  0
    8.7882  -14.4573   24.3233 O   0  0  0  0  0  0  0  0  0  0  0  0
    9.3420  -16.3277   25.4507 O   0  0  0  0  0  0  0  0  0  0  0  0
  2  5  1  0
  2  1  1  1
  2  3  1  0
  4  3  1  0
  5  6  2  0
  8  7  1  6
  8 10  1  0
  9  8  1  0
 10 12  1  0
 11  5  1  0
 10 11  1  6
 12 14  1  0
 12 13  2  0
 14 15  1  0
 15 22  1  0
 15 16  1  1
 17 16  1  0
 17 18  2  0
 19 18  1  0
 20 21  2  0
 20 19  1  0
 21 17  1  0
 22 23  2  0
 22 24  1  0
M  END
$$$$
