CTH.pdb
     RDKit          3D

 24 24  0  0  1  0  0  0  0  0999 V2000
    9.5540  -15.5407   15.2838 N   0  0  0  0  0  0  0  0  0  0  0  0
    8.6997  -15.9721   16.3612 C   0  0  1  0  0  0  0  0  0  0  0  0
    8.5712  -17.5006   16.3886 C   0  0  0  0  0  0  0  0  0  0  0  0
    7.3552  -18.0404   15.1956 S   0  0  0  0  0  0  0  0  0  0  0  0
    9.2234  -15.4887   17.6678 C   0  0  0  0  0  0  0  0  0  0  0  0
   10.4612  -15.3586   17.8490 O   0  0  0  0  0  0  0  0  0  0  0  0
    7.3754  -12.8293   20.0895 C   0  0  0  0  0  0  0  0  0  0  0  0
    7.8123  -14.0743   20.8273 C   0  0  1  0  0  0  0  0  0  0  0  0
    6.7156  -14.9052   21.0503 O   0  0  0  0  0  0  0  0  0  0  0  0
    8.9170  -14.7952   20.0599 C   0  0  2  0  0  0  0  0  0  0  0  0
    8.3757  -15.1529   18.7639 N   0  0  0  0  0  0  0  0  0  0  0  0
    9.4496  -15.9368   20.7952 C   0  0  0  0  0  0  0  0  0  0  0  0
    9.2577  -17.1021   20.3744 O   0  0  0  0  0  0  0  0  0  0  0  0
   10.1879  -15.7545   21.9893 N   0  0  0  0  0  0  0  0  0  0  0  0
   10.7658  -16.9412   22.6725 C   0  0  1  0  0  0  0  0  0  0  0  0
   12.0008  -17.3033   21.9296 C   0  0  0  0  0  0  0  0  0  0  0  0
   12.8461  -18.3439   22.4993 C   0  0  0  0  0  0  0  0  0  0  0  0
   12.9694  -18.9268   23.7215 C   0  0  0  0  0  0  0  0  0  0  0  0
   13.9132  -19.8953   23.6787 N   0  0  0  0  0  0  0  0  0  0  0  0
   14.3851  -19.9202   22.4180 C   0  0  0  0  0  0  0  0  0  0  0  0
   13.7582  -19.0000   21.7004 N   0  0  0  0  0  0  0  0  0  0  0  0
   11.1306  -16.4074   24.0312 C   0  0  0  0  0  0  0  0  0  0  0  0
   11.0227  -15.2002   24.3487 O   0  0  0  0  0  0  0  0  0  0  0  0
   11.6078  -17.2824   24.9799 O   0  0  0  0  0  0  0  0  0  0  0  0
  2  5  1  0
  2  1  1  6
  2  3  1  0
  4  3  1  0
  5  6  2  0
  8  7  1  6
  8 10  1  0
  9  8  1  0
 10 12  1  0
 11  5  1  0
 10 11  1  6
 12 14  1  0
 12 13  2  0
 14 15  1  0
 15 22  1  0
 15 16  1  6
 17 16  1  0
 17 18  2  0
 19 18  1  0
 20 21  2  0
 20 19  1  0
 21 17  1  0
 22 23  2  0
 22 24  1  0
M  END
$$$$
