CTH.pdb
     RDKit          3D

 24 24  0  0  1  0  0  0  0  0999 V2000
    9.1207  -14.9564   15.1054 N   0  0  0  0  0  0  0  0  0  0  0  0
    8.7530  -15.8775   16.1510 C   0  0  1  0  0  0  0  0  0  0  0  0
    9.3497  -17.2682   15.8995 C   0  0  0  0  0  0  0  0  0  0  0  0
    8.8017  -18.4129   17.1575 S   0  0  0  0  0  0  0  0  0  0  0  0
    9.2034  -15.3698   17.4756 C   0  0  0  0  0  0  0  0  0  0  0  0
   10.4194  -15.1243   17.6837 O   0  0  0  0  0  0  0  0  0  0  0  0
    7.1841  -12.7479   19.6610 C   0  0  0  0  0  0  0  0  0  0  0  0
    7.6190  -13.9230   20.5067 C   0  0  1  0  0  0  0  0  0  0  0  0
    6.5361  -14.7694   20.7388 O   0  0  0  0  0  0  0  0  0  0  0  0
    8.7788  -14.6624   19.8454 C   0  0  2  0  0  0  0  0  0  0  0  0
    8.3073  -15.1372   18.5598 N   0  0  0  0  0  0  0  0  0  0  0  0
    9.3133  -15.7249   20.6898 C   0  0  0  0  0  0  0  0  0  0  0  0
    9.0443  -16.9236   20.4395 O   0  0  0  0  0  0  0  0  0  0  0  0
   10.1398  -15.4274   21.7999 N   0  0  0  0  0  0  0  0  0  0  0  0
   10.5588  -16.5278   22.7070 C   0  0  1  0  0  0  0  0  0  0  0  0
   12.0437  -16.5710   22.6696 C   0  0  0  0  0  0  0  0  0  0  0  0
   12.6666  -17.3092   21.5793 C   0  0  0  0  0  0  0  0  0  0  0  0
   12.2159  -17.9853   20.4891 C   0  0  0  0  0  0  0  0  0  0  0  0
   13.2621  -18.4556   19.7716 N   0  0  0  0  0  0  0  0  0  0  0  0
   14.3787  -18.0699   20.4175 C   0  0  0  0  0  0  0  0  0  0  0  0
   14.0409  -17.3841   21.4991 N   0  0  0  0  0  0  0  0  0  0  0  0
   10.1002  -16.0486   24.0576 C   0  0  0  0  0  0  0  0  0  0  0  0
   10.2634  -16.7039   25.1129 O   0  0  0  0  0  0  0  0  0  0  0  0
    9.4684  -14.8296   24.1480 O   0  0  0  0  0  0  0  0  0  0  0  0
  2  5  1  0
  2  1  1  6
  2  3  1  0
  4  3  1  0
  5  6  2  0
  8  7  1  6
  8 10  1  0
  9  8  1  0
 10 12  1  0
 11  5  1  0
 10 11  1  6
 12 14  1  0
 12 13  2  0
 14 15  1  0
 15 22  1  0
 15 16  1  1
 17 16  1  0
 17 18  2  0
 19 18  1  0
 20 21  2  0
 20 19  1  0
 21 17  1  0
 22 23  2  0
 22 24  1  0
M  END
$$$$
