TRK.pdb
     RDKit          3D

 28 27  0  0  1  0  0  0  0  0999 V2000
   11.7038  -20.2026   20.5788 C   0  0  0  0  0  0  0  0  0  0  0  0
   12.2417  -20.0157   19.1785 C   0  0  1  0  0  0  0  0  0  0  0  0
   11.7737  -21.0630   18.3862 O   0  0  0  0  0  0  0  0  0  0  0  0
   11.7342  -18.7293   18.5523 C   0  0  2  0  0  0  0  0  0  0  0  0
   12.1857  -18.7259   17.1728 N   0  0  0  0  0  0  0  0  0  0  0  0
   12.2584  -17.5377   19.2300 C   0  0  0  0  0  0  0  0  0  0  0  0
   13.4404  -17.1409   19.0178 O   0  0  0  0  0  0  0  0  0  0  0  0
    6.9853  -12.8305   19.7376 N   0  0  0  0  0  0  0  0  0  0  0  0
    7.6690  -12.7098   18.4777 C   0  0  0  0  0  0  0  0  0  0  0  0
    7.0161  -12.5892   17.3952 N   0  0  0  0  0  0  0  0  0  0  0  0
    9.0874  -12.7259   18.4472 N   0  0  0  0  0  0  0  0  0  0  0  0
    9.9005  -12.9921   19.6036 C   0  0  0  0  0  0  0  0  0  0  0  0
    9.8032  -14.4391   20.0309 C   0  0  0  0  0  0  0  0  0  0  0  0
   10.7605  -14.6689   21.1526 C   0  0  0  0  0  0  0  0  0  0  0  0
   11.9114  -15.5817   20.7507 C   0  0  2  0  0  0  0  0  0  0  0  0
   11.4569  -16.7920   20.1452 N   0  0  0  0  0  0  0  0  0  0  0  0
   12.6925  -15.8527   22.0101 C   0  0  0  0  0  0  0  0  0  0  0  0
   13.2222  -14.9164   22.6595 O   0  0  0  0  0  0  0  0  0  0  0  0
    7.4852  -12.5668   16.4799 N   0  0  0  0  0  0  0  0  0  0  0  0
   12.8675  -17.1679   22.5216 C   0  0  1  0  0  0  0  0  0  0  0  0
   13.6624  -17.4633   23.6946 C   0  0  0  0  0  0  0  0  0  0  0  0
   13.3138  -18.7967   24.2714 C   0  0  0  0  0  0  0  0  0  0  0  0
   12.4068  -18.7640   25.4453 C   0  0  0  0  0  0  0  0  0  0  0  0
   12.0711  -20.1271   25.9965 C   0  0  0  0  0  0  0  0  0  0  0  0
   11.1047  -19.8913   27.1649 N   0  0  0  0  0  0  0  0  0  0  0  0
   10.6876  -21.1832   27.6758 C   0  0  0  0  0  0  0  0  0  0  0  0
   15.0676  -17.2694   23.3818 O   0  0  0  0  0  0  0  0  0  0  0  0
   15.4853  -17.4957   22.2201 O   0  0  0  0  0  0  0  0  0  0  0  0
  2  1  1  1
  2  3  1  0
  4  2  1  0
  4  5  1  6
  6  4  1  0
  6  7  2  0
  9  8  1  0
 10  9  2  0
 11  9  1  0
 12 11  1  0
 13 12  1  0
 13 14  1  0
 15 14  1  1
 15 16  1  0
 16  6  1  0
 17 15  1  0
 18 17  2  0
 19 17  1  0
 20 26  1  0
 20 19  1  0
 20 21  1  1
 22 21  1  0
 23 22  1  0
 24 25  1  0
 24 23  1  0
 26 28  1  0
 27 26  2  0
M  END
$$$$
