TRK.pdb
     RDKit          3D

 28 27  0  0  1  0  0  0  0  0999 V2000
    9.6070  -21.4472   18.1457 C   0  0  0  0  0  0  0  0  0  0  0  0
   10.1525  -20.1001   18.5614 C   0  0  1  0  0  0  0  0  0  0  0  0
    9.3742  -19.1093   17.9644 O   0  0  0  0  0  0  0  0  0  0  0  0
   10.0505  -19.8951   20.0621 C   0  0  2  0  0  0  0  0  0  0  0  0
    8.6397  -19.9478   20.3993 N   0  0  0  0  0  0  0  0  0  0  0  0
   10.5949  -18.5990   20.4834 C   0  0  0  0  0  0  0  0  0  0  0  0
   11.8218  -18.3326   20.3305 O   0  0  0  0  0  0  0  0  0  0  0  0
    7.6211  -11.9075   19.4316 N   0  0  0  0  0  0  0  0  0  0  0  0
    7.6276  -12.9837   18.4770 C   0  0  0  0  0  0  0  0  0  0  0  0
    8.0850  -12.8080   17.3055 N   0  0  0  0  0  0  0  0  0  0  0  0
    7.1172  -14.2536   18.8512 N   0  0  0  0  0  0  0  0  0  0  0  0
    7.4556  -14.9098   20.0857 C   0  0  0  0  0  0  0  0  0  0  0  0
    8.8419  -14.5310   20.5553 C   0  0  0  0  0  0  0  0  0  0  0  0
    9.1660  -15.3298   21.7735 C   0  0  0  0  0  0  0  0  0  0  0  0
   10.2727  -16.3449   21.5198 C   0  0  2  0  0  0  0  0  0  0  0  0
    9.7631  -17.6023   21.0758 N   0  0  0  0  0  0  0  0  0  0  0  0
   11.0246  -16.4803   22.8183 C   0  0  0  0  0  0  0  0  0  0  0  0
   10.4295  -16.7737   23.8854 O   0  0  0  0  0  0  0  0  0  0  0  0
    8.1132  -13.5705   16.6155 N   0  0  0  0  0  0  0  0  0  0  0  0
   12.4307  -16.2847   22.9003 C   0  0  1  0  0  0  0  0  0  0  0  0
   13.2037  -16.5753   24.0891 C   0  0  0  0  0  0  0  0  0  0  0  0
   13.0418  -17.9985   24.5138 C   0  0  0  0  0  0  0  0  0  0  0  0
   13.8325  -18.4008   25.7032 C   0  0  0  0  0  0  0  0  0  0  0  0
   13.7271  -19.8671   26.0397 C   0  0  0  0  0  0  0  0  0  0  0  0
   14.4919  -20.0613   27.3558 N   0  0  0  0  0  0  0  0  0  0  0  0
   14.4481  -21.4693   27.7020 C   0  0  0  0  0  0  0  0  0  0  0  0
   14.5744  -16.1388   23.8872 O   0  0  0  0  0  0  0  0  0  0  0  0
   15.4220  -16.3021   24.7983 O   0  0  0  0  0  0  0  0  0  0  0  0
  2  1  1  1
  2  3  1  0
  4  2  1  0
  4  5  1  6
  6  4  1  0
  6  7  2  0
  9  8  1  0
 10  9  2  0
 11  9  1  0
 12 11  1  0
 13 12  1  0
 13 14  1  0
 15 14  1  1
 15 16  1  0
 16  6  1  0
 17 15  1  0
 18 17  2  0
 19 17  1  0
 20 26  1  0
 20 19  1  0
 20 21  1  1
 22 21  1  0
 23 22  1  0
 24 25  1  0
 24 23  1  0
 26 28  1  0
 27 26  2  0
M  END
$$$$
