TRK.pdb
     RDKit          3D

 28 27  0  0  1  0  0  0  0  0999 V2000
    8.3650  -11.7496   26.2177 C   0  0  0  0  0  0  0  0  0  0  0  0
    7.2079  -12.5291   26.7997 C   0  0  1  0  0  0  0  0  0  0  0  0
    6.4794  -11.6776   27.6292 O   0  0  0  0  0  0  0  0  0  0  0  0
    6.2573  -13.0089   25.7178 C   0  0  2  0  0  0  0  0  0  0  0  0
    5.1152  -13.5989   26.3921 N   0  0  0  0  0  0  0  0  0  0  0  0
    6.8718  -14.0175   24.8466 C   0  0  0  0  0  0  0  0  0  0  0  0
    6.9414  -15.2276   25.2077 O   0  0  0  0  0  0  0  0  0  0  0  0
    7.9593  -13.0890   17.1610 N   0  0  0  0  0  0  0  0  0  0  0  0
    8.4959  -14.2872   17.7491 C   0  0  0  0  0  0  0  0  0  0  0  0
    9.5079  -14.8615   17.2406 N   0  0  0  0  0  0  0  0  0  0  0  0
    7.8860  -14.8307   18.9092 N   0  0  0  0  0  0  0  0  0  0  0  0
    6.8298  -14.1720   19.6300 C   0  0  0  0  0  0  0  0  0  0  0  0
    7.3732  -13.2948   20.7350 C   0  0  0  0  0  0  0  0  0  0  0  0
    8.4977  -14.0135   21.4030 C   0  0  0  0  0  0  0  0  0  0  0  0
    8.0854  -14.6121   22.7413 C   0  0  2  0  0  0  0  0  0  0  0  0
    7.4078  -13.6686   23.5710 N   0  0  0  0  0  0  0  0  0  0  0  0
    9.3524  -15.1080   23.3881 C   0  0  0  0  0  0  0  0  0  0  0  0
   10.0716  -14.3425   24.0780 O   0  0  0  0  0  0  0  0  0  0  0  0
    9.8681  -15.7512   17.6107 N   0  0  0  0  0  0  0  0  0  0  0  0
    9.7933  -16.4530   23.2517 C   0  0  2  0  0  0  0  0  0  0  0  0
   10.9475  -16.9834   23.9457 C   0  0  0  0  0  0  0  0  0  0  0  0
   10.6233  -18.2585   24.6536 C   0  0  0  0  0  0  0  0  0  0  0  0
   11.7527  -18.8848   25.3843 C   0  0  0  0  0  0  0  0  0  0  0  0
   11.4011  -20.1926   26.0479 C   0  0  0  0  0  0  0  0  0  0  0  0
   12.6510  -20.6300   26.8233 N   0  0  0  0  0  0  0  0  0  0  0  0
   12.3300  -21.8409   27.5545 C   0  0  0  0  0  0  0  0  0  0  0  0
   12.0697  -17.0509   23.0258 O   0  0  0  0  0  0  0  0  0  0  0  0
   13.2431  -17.0365   23.4708 O   0  0  0  0  0  0  0  0  0  0  0  0
  2  1  1  6
  2  3  1  0
  4  2  1  0
  4  5  1  1
  6  4  1  0
  6  7  2  0
  9  8  1  0
 10  9  2  0
 11  9  1  0
 12 11  1  0
 13 12  1  0
 13 14  1  0
 15 14  1  6
 15 16  1  0
 16  6  1  0
 17 15  1  0
 18 17  2  0
 19 17  1  0
 20 26  1  0
 20 19  1  0
 20 21  1  6
 22 21  1  0
 23 22  1  0
 24 25  1  0
 24 23  1  0
 26 28  1  0
 27 26  2  0
M  END
$$$$
