TRK.pdb
     RDKit          3D

 28 27  0  0  1  0  0  0  0  0999 V2000
    5.7750  -22.0582   21.1615 C   0  0  0  0  0  0  0  0  0  0  0  0
    6.7980  -20.9453   21.1488 C   0  0  1  0  0  0  0  0  0  0  0  0
    8.0680  -21.5172   21.2109 O   0  0  0  0  0  0  0  0  0  0  0  0
    6.7378  -20.1460   19.8597 C   0  0  2  0  0  0  0  0  0  0  0  0
    7.0747  -21.0586   18.7823 N   0  0  0  0  0  0  0  0  0  0  0  0
    7.6891  -19.0284   19.8548 C   0  0  0  0  0  0  0  0  0  0  0  0
    8.8870  -19.2008   19.4874 O   0  0  0  0  0  0  0  0  0  0  0  0
    8.6976  -14.7842   16.9007 N   0  0  0  0  0  0  0  0  0  0  0  0
    7.8351  -13.6448   17.0658 C   0  0  0  0  0  0  0  0  0  0  0  0
    7.6553  -12.8248   16.1130 N   0  0  0  0  0  0  0  0  0  0  0  0
    7.1799  -13.4377   18.3071 N   0  0  0  0  0  0  0  0  0  0  0  0
    7.8572  -12.9886   19.4940 C   0  0  0  0  0  0  0  0  0  0  0  0
    8.4835  -14.1406   20.2467 C   0  0  0  0  0  0  0  0  0  0  0  0
    7.5166  -15.2773   20.2665 C   0  0  0  0  0  0  0  0  0  0  0  0
    8.2165  -16.6287   20.3254 C   0  0  2  0  0  0  0  0  0  0  0  0
    7.2965  -17.7184   20.2618 N   0  0  0  0  0  0  0  0  0  0  0  0
    8.9997  -16.6405   21.6123 C   0  0  0  0  0  0  0  0  0  0  0  0
    8.4278  -16.4950   22.7217 O   0  0  0  0  0  0  0  0  0  0  0  0
    7.0755  -11.9825   16.2260 N   0  0  0  0  0  0  0  0  0  0  0  0
   10.4108  -16.8151   21.6356 C   0  0  1  0  0  0  0  0  0  0  0  0
   11.1832  -16.8680   22.8586 C   0  0  0  0  0  0  0  0  0  0  0  0
   11.6836  -18.2490   23.1315 C   0  0  0  0  0  0  0  0  0  0  0  0
   11.5917  -18.6907   24.5450 C   0  0  0  0  0  0  0  0  0  0  0  0
   12.0410  -20.1125   24.7716 C   0  0  0  0  0  0  0  0  0  0  0  0
   11.8087  -20.4038   26.2602 N   0  0  0  0  0  0  0  0  0  0  0  0
   11.9791  -21.8282   26.4752 C   0  0  0  0  0  0  0  0  0  0  0  0
   12.2015  -15.8326   22.8267 O   0  0  0  0  0  0  0  0  0  0  0  0
   12.3878  -15.1728   21.7754 O   0  0  0  0  0  0  0  0  0  0  0  0
  2  1  1  6
  2  3  1  0
  4  2  1  0
  4  5  1  6
  6  4  1  0
  6  7  2  0
  9  8  1  0
 10  9  2  0
 11  9  1  0
 12 11  1  0
 13 12  1  0
 13 14  1  0
 15 14  1  1
 15 16  1  0
 16  6  1  0
 17 15  1  0
 18 17  2  0
 19 17  1  0
 20 26  1  0
 20 19  1  0
 20 21  1  1
 22 21  1  0
 23 22  1  0
 24 25  1  0
 24 23  1  0
 26 28  1  0
 27 26  2  0
M  END
$$$$
