TRK.pdb
     RDKit          3D

 28 27  0  0  1  0  0  0  0  0999 V2000
    8.4246  -11.6368   26.2439 C   0  0  0  0  0  0  0  0  0  0  0  0
    7.1832  -12.3008   26.7945 C   0  0  1  0  0  0  0  0  0  0  0  0
    6.4353  -11.3384   27.4714 O   0  0  0  0  0  0  0  0  0  0  0  0
    6.3010  -12.8434   25.6847 C   0  0  2  0  0  0  0  0  0  0  0  0
    5.1118  -13.3832   26.3181 N   0  0  0  0  0  0  0  0  0  0  0  0
    6.9617  -13.9085   24.9212 C   0  0  0  0  0  0  0  0  0  0  0  0
    7.0248  -15.0866   25.3769 O   0  0  0  0  0  0  0  0  0  0  0  0
    8.5154  -15.2796   17.5802 N   0  0  0  0  0  0  0  0  0  0  0  0
    7.7747  -14.0465   17.5657 C   0  0  0  0  0  0  0  0  0  0  0  0
    7.9654  -13.1868   16.6508 N   0  0  0  0  0  0  0  0  0  0  0  0
    6.8218  -13.7910   18.5854 N   0  0  0  0  0  0  0  0  0  0  0  0
    7.1741  -13.5945   19.9661 C   0  0  0  0  0  0  0  0  0  0  0  0
    8.1633  -14.6344   20.4414 C   0  0  0  0  0  0  0  0  0  0  0  0
    8.8792  -14.0986   21.6363 C   0  0  0  0  0  0  0  0  0  0  0  0
    8.3061  -14.6363   22.9409 C   0  0  2  0  0  0  0  0  0  0  0  0
    7.5511  -13.6520   23.6473 N   0  0  0  0  0  0  0  0  0  0  0  0
    9.4824  -15.1170   23.7502 C   0  0  0  0  0  0  0  0  0  0  0  0
   10.2361  -14.3061   24.3447 O   0  0  0  0  0  0  0  0  0  0  0  0
    7.4399  -12.3029   16.6207 N   0  0  0  0  0  0  0  0  0  0  0  0
    9.7953  -16.4980   23.8803 C   0  0  2  0  0  0  0  0  0  0  0  0
   10.8989  -16.9893   24.6777 C   0  0  0  0  0  0  0  0  0  0  0  0
   10.5446  -18.2594   25.3803 C   0  0  0  0  0  0  0  0  0  0  0  0
   11.6326  -18.8636   26.1883 C   0  0  0  0  0  0  0  0  0  0  0  0
   11.2065  -20.0757   26.9781 C   0  0  0  0  0  0  0  0  0  0  0  0
   12.4219  -20.4892   27.8186 N   0  0  0  0  0  0  0  0  0  0  0  0
   12.0147  -21.5603   28.7080 C   0  0  0  0  0  0  0  0  0  0  0  0
   12.0952  -17.0463   23.8557 O   0  0  0  0  0  0  0  0  0  0  0  0
   13.2182  -16.8295   24.3724 O   0  0  0  0  0  0  0  0  0  0  0  0
  2  1  1  6
  2  3  1  0
  4  2  1  0
  4  5  1  1
  6  4  1  0
  6  7  2  0
  9  8  1  0
 10  9  2  0
 11  9  1  0
 12 11  1  0
 13 12  1  0
 13 14  1  0
 15 14  1  6
 15 16  1  0
 16  6  1  0
 17 15  1  0
 18 17  2  0
 19 17  1  0
 20 26  1  0
 20 19  1  0
 20 21  1  1
 22 21  1  0
 23 22  1  0
 24 25  1  0
 24 23  1  0
 26 28  1  0
 27 26  2  0
M  END
$$$$
