TRK.pdb
     RDKit          3D

 28 27  0  0  1  0  0  0  0  0999 V2000
   13.1415  -19.0205   18.0267 C   0  0  0  0  0  0  0  0  0  0  0  0
   12.2253  -18.6048   19.1551 C   0  0  1  0  0  0  0  0  0  0  0  0
   11.6279  -19.7505   19.6787 O   0  0  0  0  0  0  0  0  0  0  0  0
   12.9960  -17.9530   20.2889 C   0  0  2  0  0  0  0  0  0  0  0  0
   13.3322  -19.0061   21.2296 N   0  0  0  0  0  0  0  0  0  0  0  0
   12.2049  -16.9285   20.9806 C   0  0  0  0  0  0  0  0  0  0  0  0
   12.2713  -15.7150   20.6308 O   0  0  0  0  0  0  0  0  0  0  0  0
    7.8127  -10.7700   20.1603 N   0  0  0  0  0  0  0  0  0  0  0  0
    8.2004  -12.1168   19.8359 C   0  0  0  0  0  0  0  0  0  0  0  0
    9.2954  -12.3492   19.2364 N   0  0  0  0  0  0  0  0  0  0  0  0
    7.3485  -13.1945   20.1906 N   0  0  0  0  0  0  0  0  0  0  0  0
    7.7998  -14.5557   20.3032 C   0  0  0  0  0  0  0  0  0  0  0  0
    8.8426  -14.7082   21.3872 C   0  0  0  0  0  0  0  0  0  0  0  0
    9.2464  -16.1432   21.4600 C   0  0  0  0  0  0  0  0  0  0  0  0
   10.3095  -16.3900   22.5222 C   0  0  2  0  0  0  0  0  0  0  0  0
   11.3398  -17.2656   22.0642 N   0  0  0  0  0  0  0  0  0  0  0  0
    9.5876  -16.9613   23.7147 C   0  0  0  0  0  0  0  0  0  0  0  0
    8.5226  -17.6139   23.5773 O   0  0  0  0  0  0  0  0  0  0  0  0
    9.6279  -13.3083   19.0691 N   0  0  0  0  0  0  0  0  0  0  0  0
   10.0702  -16.7922   25.0415 C   0  0  1  0  0  0  0  0  0  0  0  0
   10.6224  -17.8744   25.8284 C   0  0  0  0  0  0  0  0  0  0  0  0
   11.7437  -18.5553   25.1133 C   0  0  0  0  0  0  0  0  0  0  0  0
   12.3227  -19.7296   25.8113 C   0  0  0  0  0  0  0  0  0  0  0  0
   13.4343  -20.4067   25.0494 C   0  0  0  0  0  0  0  0  0  0  0  0
   13.8666  -21.6090   25.8993 N   0  0  0  0  0  0  0  0  0  0  0  0
   14.8333  -22.3776   25.1385 C   0  0  0  0  0  0  0  0  0  0  0  0
   10.9394  -17.3854   27.1589 O   0  0  0  0  0  0  0  0  0  0  0  0
   11.4872  -18.1493   27.9905 O   0  0  0  0  0  0  0  0  0  0  0  0
  2  1  1  6
  2  3  1  0
  4  2  1  0
  4  5  1  1
  6  4  1  0
  6  7  2  0
  9  8  1  0
 10  9  2  0
 11  9  1  0
 12 11  1  0
 13 12  1  0
 13 14  1  0
 15 14  1  6
 15 16  1  0
 16  6  1  0
 17 15  1  0
 18 17  2  0
 19 17  1  0
 20 26  1  0
 20 19  1  0
 20 21  1  6
 22 21  1  0
 23 22  1  0
 24 25  1  0
 24 23  1  0
 26 28  1  0
 27 26  2  0
M  END
$$$$
