TRK.pdb
     RDKit          3D

 28 27  0  0  1  0  0  0  0  0999 V2000
    6.8126  -17.6940   26.5400 C   0  0  0  0  0  0  0  0  0  0  0  0
    6.7769  -19.0006   25.7805 C   0  0  1  0  0  0  0  0  0  0  0  0
    5.9059  -19.8668   26.4400 O   0  0  0  0  0  0  0  0  0  0  0  0
    6.2330  -18.8152   24.3754 C   0  0  2  0  0  0  0  0  0  0  0  0
    6.0628  -20.1418   23.8114 N   0  0  0  0  0  0  0  0  0  0  0  0
    7.1480  -18.0469   23.5231 C   0  0  0  0  0  0  0  0  0  0  0  0
    8.0742  -18.6241   22.8841 O   0  0  0  0  0  0  0  0  0  0  0  0
    6.6844  -13.0997   17.5950 N   0  0  0  0  0  0  0  0  0  0  0  0
    8.0294  -13.5319   17.8665 C   0  0  0  0  0  0  0  0  0  0  0  0
    8.7065  -14.1385   16.9799 N   0  0  0  0  0  0  0  0  0  0  0  0
    8.6028  -13.2762   19.1389 N   0  0  0  0  0  0  0  0  0  0  0  0
    7.8250  -13.0968   20.3355 C   0  0  0  0  0  0  0  0  0  0  0  0
    7.2763  -14.4104   20.8446 C   0  0  0  0  0  0  0  0  0  0  0  0
    7.4928  -14.4763   22.3198 C   0  0  0  0  0  0  0  0  0  0  0  0
    8.0276  -15.8313   22.7641 C   0  0  2  0  0  0  0  0  0  0  0  0
    7.0237  -16.6318   23.3880 N   0  0  0  0  0  0  0  0  0  0  0  0
    9.1697  -15.5447   23.7039 C   0  0  0  0  0  0  0  0  0  0  0  0
    8.9677  -15.0349   24.8346 O   0  0  0  0  0  0  0  0  0  0  0  0
    9.6624  -14.4718   17.1628 N   0  0  0  0  0  0  0  0  0  0  0  0
   10.5194  -15.8339   23.3621 C   0  0  2  0  0  0  0  0  0  0  0  0
   11.5548  -16.0648   24.3468 C   0  0  0  0  0  0  0  0  0  0  0  0
   11.1868  -17.1724   25.2795 C   0  0  0  0  0  0  0  0  0  0  0  0
   12.2075  -17.5068   26.3033 C   0  0  0  0  0  0  0  0  0  0  0  0
   11.7665  -18.5651   27.2831 C   0  0  0  0  0  0  0  0  0  0  0  0
   12.9385  -18.7669   28.2529 N   0  0  0  0  0  0  0  0  0  0  0  0
   12.5046  -19.6633   29.3077 C   0  0  0  0  0  0  0  0  0  0  0  0
   12.8316  -16.2189   23.6716 O   0  0  0  0  0  0  0  0  0  0  0  0
   13.8938  -16.2302   24.3401 O   0  0  0  0  0  0  0  0  0  0  0  0
  2  1  1  1
  2  3  1  0
  4  2  1  0
  4  5  1  6
  6  4  1  0
  6  7  2  0
  9  8  1  0
 10  9  2  0
 11  9  1  0
 12 11  1  0
 13 12  1  0
 13 14  1  0
 15 14  1  1
 15 16  1  0
 16  6  1  0
 17 15  1  0
 18 17  2  0
 19 17  1  0
 20 26  1  0
 20 19  1  0
 20 21  1  1
 22 21  1  0
 23 22  1  0
 24 25  1  0
 24 23  1  0
 26 28  1  0
 27 26  2  0
M  END
$$$$
