TRK.pdb
     RDKit          3D

 28 27  0  0  1  0  0  0  0  0999 V2000
    6.8043  -21.3740   22.3911 C   0  0  0  0  0  0  0  0  0  0  0  0
    7.3691  -21.8162   21.0605 C   0  0  1  0  0  0  0  0  0  0  0  0
    6.5088  -22.7675   20.5139 O   0  0  0  0  0  0  0  0  0  0  0  0
    7.4377  -20.6656   20.0727 C   0  0  2  0  0  0  0  0  0  0  0  0
    7.9017  -21.2188   18.8134 N   0  0  0  0  0  0  0  0  0  0  0  0
    8.3683  -19.6168   20.5061 C   0  0  0  0  0  0  0  0  0  0  0  0
    9.6124  -19.8380   20.5591 O   0  0  0  0  0  0  0  0  0  0  0  0
    8.4328  -11.5406   20.5868 N   0  0  0  0  0  0  0  0  0  0  0  0
    8.2524  -12.4123   19.4567 C   0  0  0  0  0  0  0  0  0  0  0  0
    9.1124  -12.4495   18.5232 N   0  0  0  0  0  0  0  0  0  0  0  0
    7.1006  -13.2380   19.3872 N   0  0  0  0  0  0  0  0  0  0  0  0
    6.7703  -14.2206   20.3844 C   0  0  0  0  0  0  0  0  0  0  0  0
    7.5328  -15.5085   20.1704 C   0  0  0  0  0  0  0  0  0  0  0  0
    8.0941  -15.9519   21.4802 C   0  0  0  0  0  0  0  0  0  0  0  0
    8.7762  -17.3104   21.3851 C   0  0  2  0  0  0  0  0  0  0  0  0
    7.9032  -18.3206   20.8799 N   0  0  0  0  0  0  0  0  0  0  0  0
    9.2556  -17.6381   22.7752 C   0  0  0  0  0  0  0  0  0  0  0  0
    8.4851  -18.1555   23.6224 O   0  0  0  0  0  0  0  0  0  0  0  0
    8.9525  -12.9874   17.6610 N   0  0  0  0  0  0  0  0  0  0  0  0
   10.5901  -17.3811   23.1937 C   0  0  2  0  0  0  0  0  0  0  0  0
   11.1681  -17.9484   24.3934 C   0  0  0  0  0  0  0  0  0  0  0  0
   11.1131  -19.4413   24.3753 C   0  0  0  0  0  0  0  0  0  0  0  0
   11.6770  -20.1127   25.5723 C   0  0  0  0  0  0  0  0  0  0  0  0
   11.5979  -21.6180   25.5228 C   0  0  0  0  0  0  0  0  0  0  0  0
   12.2672  -22.1252   26.8071 N   0  0  0  0  0  0  0  0  0  0  0  0
   11.9880  -23.5430   26.9341 C   0  0  0  0  0  0  0  0  0  0  0  0
   12.4868  -17.3773   24.6056 O   0  0  0  0  0  0  0  0  0  0  0  0
   13.0719  -16.7910   23.6627 O   0  0  0  0  0  0  0  0  0  0  0  0
  2  1  1  1
  2  3  1  0
  4  2  1  0
  4  5  1  6
  6  4  1  0
  6  7  2  0
  9  8  1  0
 10  9  2  0
 11  9  1  0
 12 11  1  0
 13 12  1  0
 13 14  1  0
 15 14  1  1
 15 16  1  0
 16  6  1  0
 17 15  1  0
 18 17  2  0
 19 17  1  0
 20 26  1  0
 20 19  1  0
 20 21  1  1
 22 21  1  0
 23 22  1  0
 24 25  1  0
 24 23  1  0
 26 28  1  0
 27 26  2  0
M  END
$$$$
