TRK.pdb
     RDKit          3D

 28 27  0  0  1  0  0  0  0  0999 V2000
    5.6376  -20.8444   25.1407 C   0  0  0  0  0  0  0  0  0  0  0  0
    5.2024  -21.5303   23.8658 C   0  0  1  0  0  0  0  0  0  0  0  0
    4.0236  -22.2283   24.1244 O   0  0  0  0  0  0  0  0  0  0  0  0
    4.8885  -20.5267   22.7709 C   0  0  2  0  0  0  0  0  0  0  0  0
    4.4641  -21.2887   21.6105 N   0  0  0  0  0  0  0  0  0  0  0  0
    6.0572  -19.7160   22.4094 C   0  0  0  0  0  0  0  0  0  0  0  0
    7.1399  -20.2650   22.0546 O   0  0  0  0  0  0  0  0  0  0  0  0
    7.8433  -13.1898   17.1256 N   0  0  0  0  0  0  0  0  0  0  0  0
    7.9770  -13.0338   18.5494 C   0  0  0  0  0  0  0  0  0  0  0  0
    8.7210  -12.1263   19.0347 N   0  0  0  0  0  0  0  0  0  0  0  0
    7.2690  -13.9041   19.4180 N   0  0  0  0  0  0  0  0  0  0  0  0
    7.4190  -13.8882   20.8485 C   0  0  0  0  0  0  0  0  0  0  0  0
    7.9126  -15.2183   21.3709 C   0  0  0  0  0  0  0  0  0  0  0  0
    6.7329  -16.0954   21.6285 C   0  0  0  0  0  0  0  0  0  0  0  0
    7.1390  -17.4792   22.1179 C   0  0  2  0  0  0  0  0  0  0  0  0
    6.0110  -18.2903   22.4461 N   0  0  0  0  0  0  0  0  0  0  0  0
    8.0279  -17.2579   23.3140 C   0  0  0  0  0  0  0  0  0  0  0  0
    7.5782  -16.7503   24.3719 O   0  0  0  0  0  0  0  0  0  0  0  0
    8.9100  -12.0637   20.0440 N   0  0  0  0  0  0  0  0  0  0  0  0
    9.4059  -17.6087   23.3057 C   0  0  2  0  0  0  0  0  0  0  0  0
   10.2889  -17.3814   24.4299 C   0  0  0  0  0  0  0  0  0  0  0  0
   11.1035  -18.5945   24.7410 C   0  0  0  0  0  0  0  0  0  0  0  0
   10.6267  -19.4028   25.8903 C   0  0  0  0  0  0  0  0  0  0  0  0
   11.5006  -20.5906   26.2065 C   0  0  0  0  0  0  0  0  0  0  0  0
   10.7958  -21.3530   27.3366 N   0  0  0  0  0  0  0  0  0  0  0  0
   11.5333  -22.5769   27.5862 C   0  0  0  0  0  0  0  0  0  0  0  0
   11.0481  -16.1638   24.2036 O   0  0  0  0  0  0  0  0  0  0  0  0
   11.7721  -15.7008   25.1182 O   0  0  0  0  0  0  0  0  0  0  0  0
  2  1  1  1
  2  3  1  0
  4  2  1  0
  4  5  1  6
  6  4  1  0
  6  7  2  0
  9  8  1  0
 10  9  2  0
 11  9  1  0
 12 11  1  0
 13 12  1  0
 13 14  1  0
 15 14  1  1
 15 16  1  0
 16  6  1  0
 17 15  1  0
 18 17  2  0
 19 17  1  0
 20 26  1  0
 20 19  1  0
 20 21  1  6
 22 21  1  0
 23 22  1  0
 24 25  1  0
 24 23  1  0
 26 28  1  0
 27 26  2  0
M  END
$$$$
