TRK.pdb
     RDKit          3D

 28 27  0  0  1  0  0  0  0  0999 V2000
   10.7235  -12.7911   19.6381 C   0  0  0  0  0  0  0  0  0  0  0  0
    9.3238  -12.4051   19.2173 C   0  0  1  0  0  0  0  0  0  0  0  0
    9.4175  -11.5218   18.1426 O   0  0  0  0  0  0  0  0  0  0  0  0
    8.5352  -13.6077   18.7310 C   0  0  2  0  0  0  0  0  0  0  0  0
    7.2175  -13.1250   18.3600 N   0  0  0  0  0  0  0  0  0  0  0  0
    8.3933  -14.6350   19.7695 C   0  0  0  0  0  0  0  0  0  0  0  0
    7.5591  -14.4930   20.7095 O   0  0  0  0  0  0  0  0  0  0  0  0
    6.6046  -21.2986   19.6742 N   0  0  0  0  0  0  0  0  0  0  0  0
    7.0546  -21.0889   18.3240 C   0  0  0  0  0  0  0  0  0  0  0  0
    6.2384  -21.1445   17.3529 N   0  0  0  0  0  0  0  0  0  0  0  0
    8.4253  -20.8173   18.0779 N   0  0  0  0  0  0  0  0  0  0  0  0
    9.2781  -20.1381   19.0163 C   0  0  0  0  0  0  0  0  0  0  0  0
    8.7064  -18.7975   19.4184 C   0  0  0  0  0  0  0  0  0  0  0  0
    9.6490  -18.1462   20.3747 C   0  0  0  0  0  0  0  0  0  0  0  0
    9.1636  -16.7721   20.8173 C   0  0  2  0  0  0  0  0  0  0  0  0
    9.1869  -15.8208   19.7532 N   0  0  0  0  0  0  0  0  0  0  0  0
   10.0619  -16.3545   21.9524 C   0  0  0  0  0  0  0  0  0  0  0  0
   11.2316  -15.9482   21.7387 O   0  0  0  0  0  0  0  0  0  0  0  0
    6.5351  -20.9603   16.3852 N   0  0  0  0  0  0  0  0  0  0  0  0
    9.6354  -16.3989   23.3082 C   0  0  2  0  0  0  0  0  0  0  0  0
   10.5061  -16.0946   24.4237 C   0  0  0  0  0  0  0  0  0  0  0  0
    9.7777  -16.1760   25.7256 C   0  0  0  0  0  0  0  0  0  0  0  0
   10.6269  -16.0639   26.9372 C   0  0  0  0  0  0  0  0  0  0  0  0
    9.8526  -16.0933   28.2311 C   0  0  0  0  0  0  0  0  0  0  0  0
   10.8886  -15.9521   29.3543 N   0  0  0  0  0  0  0  0  0  0  0  0
   10.1782  -15.8164   30.6117 C   0  0  0  0  0  0  0  0  0  0  0  0
   11.7057  -16.9084   24.3304 O   0  0  0  0  0  0  0  0  0  0  0  0
   12.8263  -16.3983   24.5738 O   0  0  0  0  0  0  0  0  0  0  0  0
  2  1  1  6
  2  3  1  0
  4  2  1  0
  4  5  1  1
  6  4  1  0
  6  7  2  0
  9  8  1  0
 10  9  2  0
 11  9  1  0
 12 11  1  0
 13 12  1  0
 13 14  1  0
 15 14  1  6
 15 16  1  0
 16  6  1  0
 17 15  1  0
 18 17  2  0
 19 17  1  0
 20 26  1  0
 20 19  1  0
 20 21  1  1
 22 21  1  0
 23 22  1  0
 24 25  1  0
 24 23  1  0
 26 28  1  0
 27 26  2  0
M  END
$$$$
