TRK.pdb
     RDKit          3D

 28 27  0  0  1  0  0  0  0  0999 V2000
   11.2024  -13.4224   18.5374 C   0  0  0  0  0  0  0  0  0  0  0  0
   10.0466  -12.4787   18.7799 C   0  0  1  0  0  0  0  0  0  0  0  0
   10.1566  -11.4132   17.8875 O   0  0  0  0  0  0  0  0  0  0  0  0
    8.7121  -13.1477   18.5041 C   0  0  2  0  0  0  0  0  0  0  0  0
    7.6861  -12.1424   18.7130 N   0  0  0  0  0  0  0  0  0  0  0  0
    8.4626  -14.2799   19.4040 C   0  0  0  0  0  0  0  0  0  0  0  0
    7.9822  -14.0939   20.5591 O   0  0  0  0  0  0  0  0  0  0  0  0
    8.0966  -24.0545   19.8681 N   0  0  0  0  0  0  0  0  0  0  0  0
    8.7372  -22.7736   20.0040 C   0  0  0  0  0  0  0  0  0  0  0  0
   10.0035  -22.6789   20.0002 N   0  0  0  0  0  0  0  0  0  0  0  0
    7.9435  -21.6059   20.1435 N   0  0  0  0  0  0  0  0  0  0  0  0
    8.0747  -20.4538   19.2924 C   0  0  0  0  0  0  0  0  0  0  0  0
    8.4509  -19.2197   20.0806 C   0  0  0  0  0  0  0  0  0  0  0  0
    8.4625  -18.0493   19.1546 C   0  0  0  0  0  0  0  0  0  0  0  0
    8.6118  -16.7280   19.8971 C   0  0  2  0  0  0  0  0  0  0  0  0
    8.7519  -15.6199   19.0081 N   0  0  0  0  0  0  0  0  0  0  0  0
    9.8183  -16.8796   20.7864 C   0  0  0  0  0  0  0  0  0  0  0  0
   10.9817  -16.8540   20.3121 O   0  0  0  0  0  0  0  0  0  0  0  0
   10.4779  -21.7662   19.9835 N   0  0  0  0  0  0  0  0  0  0  0  0
    9.7022  -17.0576   22.1925 C   0  0  2  0  0  0  0  0  0  0  0  0
   10.8295  -17.3568   23.0497 C   0  0  0  0  0  0  0  0  0  0  0  0
   10.3861  -17.7469   24.4220 C   0  0  0  0  0  0  0  0  0  0  0  0
   11.4681  -18.1789   25.3409 C   0  0  0  0  0  0  0  0  0  0  0  0
   10.9784  -18.6194   26.6976 C   0  0  0  0  0  0  0  0  0  0  0  0
   12.2016  -19.1825   27.4333 N   0  0  0  0  0  0  0  0  0  0  0  0
   11.7608  -19.7018   28.7139 C   0  0  0  0  0  0  0  0  0  0  0  0
   11.6982  -18.3107   22.3823 O   0  0  0  0  0  0  0  0  0  0  0  0
   11.2168  -19.3696   21.9108 O   0  0  0  0  0  0  0  0  0  0  0  0
  2  1  1  6
  2  3  1  0
  4  2  1  0
  4  5  1  1
  6  4  1  0
  6  7  2  0
  9  8  1  0
 10  9  2  0
 11  9  1  0
 12 11  1  0
 13 12  1  0
 13 14  1  0
 15 14  1  6
 15 16  1  0
 16  6  1  0
 17 15  1  0
 18 17  2  0
 19 17  1  0
 20 26  1  0
 20 19  1  0
 20 21  1  1
 22 21  1  0
 23 22  1  0
 24 25  1  0
 24 23  1  0
 26 28  1  0
 27 26  2  0
M  END
$$$$
