FNE.pdb
     RDKit          3D

 29 29  0  0  1  0  0  0  0  0999 V2000
    5.6431  -17.8168   25.2890 N   0  0  0  0  0  0  0  0  0  0  0  0
    6.1278  -16.4773   25.1272 C   0  0  1  0  0  0  0  0  0  0  0  0
    6.9359  -16.0067   26.3195 C   0  0  0  0  0  0  0  0  0  0  0  0
    7.0651  -14.5390   26.3646 C   0  0  0  0  0  0  0  0  0  0  0  0
    8.3216  -13.9965   26.3806 C   0  0  0  0  0  0  0  0  0  0  0  0
    8.4617  -12.6305   26.4226 C   0  0  0  0  0  0  0  0  0  0  0  0
    7.3818  -11.7705   26.4497 C   0  0  0  0  0  0  0  0  0  0  0  0
    6.1419  -12.3640   26.4321 C   0  0  0  0  0  0  0  0  0  0  0  0
    5.9631  -13.7287   26.3901 C   0  0  0  0  0  0  0  0  0  0  0  0
    7.0496  -16.3721   23.9409 C   0  0  0  0  0  0  0  0  0  0  0  0
    7.6882  -17.3770   23.5329 O   0  0  0  0  0  0  0  0  0  0  0  0
    7.0802  -14.0567   18.6838 N   0  0  0  0  0  0  0  0  0  0  0  0
    7.8658  -13.7305   19.8131 C   0  0  0  0  0  0  0  0  0  0  0  0
    9.0448  -13.3744   19.6007 O   0  0  0  0  0  0  0  0  0  0  0  0
    7.3493  -13.7966   21.1936 C   0  0  0  0  0  0  0  0  0  0  0  0
    7.7708  -15.0423   21.9215 C   0  0  2  0  0  0  0  0  0  0  0  0
    7.2196  -15.1372   23.2550 N   0  0  0  0  0  0  0  0  0  0  0  0
    9.2215  -15.2641   21.8871 C   0  0  0  0  0  0  0  0  0  0  0  0
    9.8060  -15.4558   20.8019 O   0  0  0  0  0  0  0  0  0  0  0  0
    9.9511  -15.2584   23.0976 N   0  0  0  0  0  0  0  0  0  0  0  0
   11.4154  -15.4063   23.1364 C   0  0  1  0  0  0  0  0  0  0  0  0
   11.6977  -16.6166   23.9693 C   0  0  0  0  0  0  0  0  0  0  0  0
   10.7895  -16.8091   25.1386 C   0  0  0  0  0  0  0  0  0  0  0  0
   11.1072  -18.1062   25.8305 C   0  0  0  0  0  0  0  0  0  0  0  0
   12.2052  -18.6811   25.6364 O   0  0  0  0  0  0  0  0  0  0  0  0
   11.9189  -15.5401   21.7599 C   0  0  0  0  0  0  0  0  0  0  0  0
   11.1145  -15.7426   20.8199 O   0  0  0  0  0  0  0  0  0  0  0  0
   10.2078  -18.7120   26.7017 O   0  0  0  0  0  0  0  0  0  0  0  0
   13.2657  -15.4494   21.4569 O   0  0  0  0  0  0  0  0  0  0  0  0
  2  1  1  1
  2  3  1  0
  3  4  1  0
  4  5  2  0
  4  9  1  0
  5  6  1  0
  6  7  2  0
  8  7  1  0
  9  8  2  0
 10  2  1  0
 11 10  2  0
 12 13  1  0
 13 14  2  0
 16 15  1  1
 15 13  1  0
 16 17  1  0
 17 10  1  0
 18 20  1  0
 18 16  1  0
 19 18  2  0
 21 22  1  1
 21 26  1  0
 21 20  1  0
 23 22  1  0
 24 23  1  0
 25 24  2  0
 26 29  1  0
 27 26  2  0
 28 24  1  0
M  END
$$$$
