FNE.pdb
     RDKit          3D

 29 29  0  0  1  0  0  0  0  0999 V2000
    6.1303  -13.9001   22.0302 N   0  0  0  0  0  0  0  0  0  0  0  0
    7.3974  -14.5228   22.2793 C   0  0  1  0  0  0  0  0  0  0  0  0
    8.3162  -13.6518   23.1118 C   0  0  0  0  0  0  0  0  0  0  0  0
    7.6963  -13.2393   24.3840 C   0  0  0  0  0  0  0  0  0  0  0  0
    8.2273  -13.7171   25.5516 C   0  0  0  0  0  0  0  0  0  0  0  0
    7.6628  -13.3437   26.7472 C   0  0  0  0  0  0  0  0  0  0  0  0
    6.5730  -12.4996   26.8260 C   0  0  0  0  0  0  0  0  0  0  0  0
    6.0768  -12.0471   25.6263 C   0  0  0  0  0  0  0  0  0  0  0  0
    6.6163  -12.3999   24.4096 C   0  0  0  0  0  0  0  0  0  0  0  0
    7.2312  -15.8021   23.0564 C   0  0  0  0  0  0  0  0  0  0  0  0
    6.0858  -16.2173   23.3723 O   0  0  0  0  0  0  0  0  0  0  0  0
    5.5647  -18.8629   24.7663 N   0  0  0  0  0  0  0  0  0  0  0  0
    6.0299  -18.8654   23.4312 C   0  0  0  0  0  0  0  0  0  0  0  0
    5.1656  -18.8974   22.5290 O   0  0  0  0  0  0  0  0  0  0  0  0
    7.4633  -18.8323   23.0829 C   0  0  0  0  0  0  0  0  0  0  0  0
    8.2635  -17.9168   23.9667 C   0  0  2  0  0  0  0  0  0  0  0  0
    8.3625  -16.5696   23.4507 N   0  0  0  0  0  0  0  0  0  0  0  0
    9.5652  -18.4790   24.3468 C   0  0  0  0  0  0  0  0  0  0  0  0
   10.2322  -19.1399   23.5257 O   0  0  0  0  0  0  0  0  0  0  0  0
   10.0564  -18.2637   25.6545 N   0  0  0  0  0  0  0  0  0  0  0  0
   11.4845  -18.3871   25.9905 C   0  0  1  0  0  0  0  0  0  0  0  0
   12.1985  -17.3363   25.2004 C   0  0  0  0  0  0  0  0  0  0  0  0
   13.4031  -17.8099   24.4562 C   0  0  0  0  0  0  0  0  0  0  0  0
   13.9678  -16.6918   23.6236 C   0  0  0  0  0  0  0  0  0  0  0  0
   14.2382  -16.8719   22.4119 O   0  0  0  0  0  0  0  0  0  0  0  0
   11.6510  -18.2105   27.4421 C   0  0  0  0  0  0  0  0  0  0  0  0
   10.7997  -17.5582   28.0914 O   0  0  0  0  0  0  0  0  0  0  0  0
   14.2093  -15.4301   24.1572 O   0  0  0  0  0  0  0  0  0  0  0  0
   12.7261  -18.7443   28.1298 O   0  0  0  0  0  0  0  0  0  0  0  0
  2  1  1  1
  2  3  1  0
  3  4  1  0
  4  5  2  0
  4  9  1  0
  5  6  1  0
  6  7  2  0
  8  7  1  0
  9  8  2  0
 10  2  1  0
 11 10  2  0
 12 13  1  0
 13 14  2  0
 16 15  1  6
 15 13  1  0
 16 17  1  0
 17 10  1  0
 18 20  1  0
 18 16  1  0
 19 18  2  0
 21 22  1  6
 21 26  1  0
 21 20  1  0
 23 22  1  0
 24 23  1  0
 25 24  2  0
 26 29  1  0
 27 26  2  0
 28 24  1  0
M  END
$$$$
