FNE.pdb
     RDKit          3D

 29 29  0  0  1  0  0  0  0  0999 V2000
    8.7635  -15.8073   25.3572 N   0  0  0  0  0  0  0  0  0  0  0  0
    7.4807  -16.1819   24.8381 C   0  0  1  0  0  0  0  0  0  0  0  0
    6.3510  -15.3828   25.4557 C   0  0  0  0  0  0  0  0  0  0  0  0
    6.8111  -14.0947   26.0049 C   0  0  0  0  0  0  0  0  0  0  0  0
    5.9195  -13.0579   26.0668 C   0  0  0  0  0  0  0  0  0  0  0  0
    6.3303  -11.8498   26.5757 C   0  0  0  0  0  0  0  0  0  0  0  0
    7.6148  -11.6308   27.0324 C   0  0  0  0  0  0  0  0  0  0  0  0
    8.4718  -12.7024   26.9490 C   0  0  0  0  0  0  0  0  0  0  0  0
    8.0956  -13.9275   26.4452 C   0  0  0  0  0  0  0  0  0  0  0  0
    7.3987  -15.9283   23.3558 C   0  0  0  0  0  0  0  0  0  0  0  0
    6.2879  -15.7266   22.7995 O   0  0  0  0  0  0  0  0  0  0  0  0
    8.3207  -12.5197   19.1659 N   0  0  0  0  0  0  0  0  0  0  0  0
    7.7915  -13.7769   19.5380 C   0  0  0  0  0  0  0  0  0  0  0  0
    7.3490  -14.5006   18.6202 O   0  0  0  0  0  0  0  0  0  0  0  0
    7.7479  -14.2447   20.9367 C   0  0  0  0  0  0  0  0  0  0  0  0
    8.5800  -15.4739   21.1731 C   0  0  2  0  0  0  0  0  0  0  0  0
    8.5722  -15.9108   22.5515 N   0  0  0  0  0  0  0  0  0  0  0  0
    9.9342  -15.3661   20.6167 C   0  0  0  0  0  0  0  0  0  0  0  0
   10.1040  -15.2357   19.3879 O   0  0  0  0  0  0  0  0  0  0  0  0
   11.0458  -15.4115   21.4885 N   0  0  0  0  0  0  0  0  0  0  0  0
   12.2108  -16.2757   21.2363 C   0  0  1  0  0  0  0  0  0  0  0  0
   13.3412  -15.3673   20.8687 C   0  0  0  0  0  0  0  0  0  0  0  0
   12.9865  -14.2571   19.9355 C   0  0  0  0  0  0  0  0  0  0  0  0
   14.2198  -13.7604   19.2323 C   0  0  0  0  0  0  0  0  0  0  0  0
   14.1725  -13.4169   18.0266 O   0  0  0  0  0  0  0  0  0  0  0  0
   12.4924  -17.0638   22.4469 C   0  0  0  0  0  0  0  0  0  0  0  0
   13.4511  -17.8717   22.4546 O   0  0  0  0  0  0  0  0  0  0  0  0
   15.4457  -13.6636   19.8824 O   0  0  0  0  0  0  0  0  0  0  0  0
   11.7299  -16.9465   23.5952 O   0  0  0  0  0  0  0  0  0  0  0  0
  2  1  1  1
  2  3  1  0
  3  4  1  0
  4  5  2  0
  4  9  1  0
  5  6  1  0
  6  7  2  0
  8  7  1  0
  9  8  2  0
 10  2  1  0
 11 10  2  0
 12 13  1  0
 13 14  2  0
 16 15  1  1
 15 13  1  0
 16 17  1  0
 17 10  1  0
 18 20  1  0
 18 16  1  0
 19 18  2  0
 21 22  1  1
 21 26  1  0
 21 20  1  0
 23 22  1  0
 24 23  1  0
 25 24  2  0
 26 29  1  0
 27 26  2  0
 28 24  1  0
M  END
$$$$
