FNE.pdb
     RDKit          3D

 29 29  0  0  1  0  0  0  0  0999 V2000
    5.3290  -17.5534   24.1516 N   0  0  0  0  0  0  0  0  0  0  0  0
    5.9304  -16.2594   24.2892 C   0  0  1  0  0  0  0  0  0  0  0  0
    6.1775  -15.8874   25.7372 C   0  0  0  0  0  0  0  0  0  0  0  0
    6.5284  -14.4648   25.8980 C   0  0  0  0  0  0  0  0  0  0  0  0
    5.5513  -13.5270   25.6993 C   0  0  0  0  0  0  0  0  0  0  0  0
    5.8598  -12.1962   25.8446 C   0  0  0  0  0  0  0  0  0  0  0  0
    7.1234  -11.7564   26.1856 C   0  0  0  0  0  0  0  0  0  0  0  0
    8.0689  -12.7364   26.3742 C   0  0  0  0  0  0  0  0  0  0  0  0
    7.7964  -14.0791   26.2373 C   0  0  0  0  0  0  0  0  0  0  0  0
    7.2783  -16.2120   23.6189 C   0  0  0  0  0  0  0  0  0  0  0  0
    8.1282  -17.1179   23.8215 O   0  0  0  0  0  0  0  0  0  0  0  0
    7.0326  -12.8681   19.7626 N   0  0  0  0  0  0  0  0  0  0  0  0
    7.8523  -13.9848   20.0458 C   0  0  0  0  0  0  0  0  0  0  0  0
    7.6214  -15.0346   19.4082 O   0  0  0  0  0  0  0  0  0  0  0  0
    8.9397  -13.9473   21.0423 C   0  0  0  0  0  0  0  0  0  0  0  0
    8.8762  -15.0814   22.0268 C   0  0  2  0  0  0  0  0  0  0  0  0
    7.6215  -15.1447   22.7428 N   0  0  0  0  0  0  0  0  0  0  0  0
   10.0433  -15.1362   22.9154 C   0  0  0  0  0  0  0  0  0  0  0  0
   10.6568  -14.0931   23.2180 O   0  0  0  0  0  0  0  0  0  0  0  0
   10.4660  -16.3846   23.4259 N   0  0  0  0  0  0  0  0  0  0  0  0
   11.5977  -16.5124   24.3590 C   0  0  1  0  0  0  0  0  0  0  0  0
   11.1100  -17.3391   25.5066 C   0  0  0  0  0  0  0  0  0  0  0  0
   12.1626  -17.7622   26.4773 C   0  0  0  0  0  0  0  0  0  0  0  0
   11.5606  -18.6379   27.5417 C   0  0  0  0  0  0  0  0  0  0  0  0
   10.5182  -19.2971   27.3121 O   0  0  0  0  0  0  0  0  0  0  0  0
   12.7291  -17.1376   23.6554 C   0  0  0  0  0  0  0  0  0  0  0  0
   12.5136  -17.8933   22.6786 O   0  0  0  0  0  0  0  0  0  0  0  0
   12.1285  -18.7502   28.8066 O   0  0  0  0  0  0  0  0  0  0  0  0
   14.0418  -16.9208   24.0344 O   0  0  0  0  0  0  0  0  0  0  0  0
  2  1  1  1
  2  3  1  0
  3  4  1  0
  4  5  2  0
  4  9  1  0
  5  6  1  0
  6  7  2  0
  8  7  1  0
  9  8  2  0
 10  2  1  0
 11 10  2  0
 12 13  1  0
 13 14  2  0
 16 15  1  1
 15 13  1  0
 16 17  1  0
 17 10  1  0
 18 20  1  0
 18 16  1  0
 19 18  2  0
 21 22  1  1
 21 26  1  0
 21 20  1  0
 23 22  1  0
 24 23  1  0
 25 24  2  0
 26 29  1  0
 27 26  2  0
 28 24  1  0
M  END
$$$$
