FNE.pdb
     RDKit          3D

 29 29  0  0  1  0  0  0  0  0999 V2000
    7.7166  -15.6698   26.1038 N   0  0  0  0  0  0  0  0  0  0  0  0
    6.9080  -15.8264   24.9304 C   0  0  1  0  0  0  0  0  0  0  0  0
    6.2651  -14.5258   24.4933 C   0  0  0  0  0  0  0  0  0  0  0  0
    6.5076  -13.4315   25.4507 C   0  0  0  0  0  0  0  0  0  0  0  0
    5.6527  -13.2928   26.5106 C   0  0  0  0  0  0  0  0  0  0  0  0
    5.8628  -12.2787   27.4133 C   0  0  0  0  0  0  0  0  0  0  0  0
    6.9077  -11.3833   27.2992 C   0  0  0  0  0  0  0  0  0  0  0  0
    7.7376  -11.5646   26.2183 C   0  0  0  0  0  0  0  0  0  0  0  0
    7.5581  -12.5692   25.2939 C   0  0  0  0  0  0  0  0  0  0  0  0
    7.7336  -16.2888   23.7587 C   0  0  0  0  0  0  0  0  0  0  0  0
    7.1857  -16.5911   22.6668 O   0  0  0  0  0  0  0  0  0  0  0  0
   10.5558  -16.8530   19.6172 N   0  0  0  0  0  0  0  0  0  0  0  0
   11.2117  -16.2339   20.7060 C   0  0  0  0  0  0  0  0  0  0  0  0
   12.4523  -16.1069   20.6235 O   0  0  0  0  0  0  0  0  0  0  0  0
   10.4952  -15.7480   21.9007 C   0  0  0  0  0  0  0  0  0  0  0  0
    9.9859  -16.8596   22.7750 C   0  0  2  0  0  0  0  0  0  0  0  0
    9.1490  -16.3944   23.8586 N   0  0  0  0  0  0  0  0  0  0  0  0
   11.0473  -17.7688   23.2242 C   0  0  0  0  0  0  0  0  0  0  0  0
   11.3848  -18.7424   22.5213 O   0  0  0  0  0  0  0  0  0  0  0  0
   11.6843  -17.5299   24.4631 N   0  0  0  0  0  0  0  0  0  0  0  0
   12.8084  -18.3508   24.9428 C   0  0  1  0  0  0  0  0  0  0  0  0
   14.0430  -17.7911   24.3098 C   0  0  0  0  0  0  0  0  0  0  0  0
   14.2956  -16.3446   24.5798 C   0  0  0  0  0  0  0  0  0  0  0  0
   15.5763  -15.9126   23.9201 C   0  0  0  0  0  0  0  0  0  0  0  0
   16.6355  -15.8144   24.5851 O   0  0  0  0  0  0  0  0  0  0  0  0
   12.8520  -18.2895   26.4127 C   0  0  0  0  0  0  0  0  0  0  0  0
   12.0414  -17.5585   27.0294 O   0  0  0  0  0  0  0  0  0  0  0  0
   15.6363  -15.6087   22.5639 O   0  0  0  0  0  0  0  0  0  0  0  0
   13.7657  -19.0182   27.1528 O   0  0  0  0  0  0  0  0  0  0  0  0
  2  1  1  1
  2  3  1  0
  3  4  1  0
  4  5  2  0
  4  9  1  0
  5  6  1  0
  6  7  2  0
  8  7  1  0
  9  8  2  0
 10  2  1  0
 11 10  2  0
 12 13  1  0
 13 14  2  0
 16 15  1  1
 15 13  1  0
 16 17  1  0
 17 10  1  0
 18 20  1  0
 18 16  1  0
 19 18  2  0
 21 22  1  6
 21 26  1  0
 21 20  1  0
 23 22  1  0
 24 23  1  0
 25 24  2  0
 26 29  1  0
 27 26  2  0
 28 24  1  0
M  END
$$$$
