FNE.pdb
     RDKit          3D

 29 29  0  0  1  0  0  0  0  0999 V2000
    6.2488  -16.6797   24.4367 N   0  0  0  0  0  0  0  0  0  0  0  0
    7.4088  -15.8611   24.2381 C   0  0  1  0  0  0  0  0  0  0  0  0
    7.9987  -15.3674   25.5435 C   0  0  0  0  0  0  0  0  0  0  0  0
    7.4688  -14.0486   25.9344 C   0  0  0  0  0  0  0  0  0  0  0  0
    6.4601  -14.0004   26.8583 C   0  0  0  0  0  0  0  0  0  0  0  0
    5.9534  -12.7802   27.2349 C   0  0  0  0  0  0  0  0  0  0  0  0
    6.4200  -11.5876   26.7188 C   0  0  0  0  0  0  0  0  0  0  0  0
    7.4329  -11.6892   25.7950 C   0  0  0  0  0  0  0  0  0  0  0  0
    7.9652  -12.8941   25.3937 C   0  0  0  0  0  0  0  0  0  0  0  0
    8.5089  -16.6327   23.5578 C   0  0  0  0  0  0  0  0  0  0  0  0
    8.5262  -17.8907   23.5912 O   0  0  0  0  0  0  0  0  0  0  0  0
    9.2555  -16.7759   19.2481 N   0  0  0  0  0  0  0  0  0  0  0  0
    9.8793  -15.7794   20.0334 C   0  0  0  0  0  0  0  0  0  0  0  0
    9.4051  -14.6250   19.9671 O   0  0  0  0  0  0  0  0  0  0  0  0
   11.0391  -16.0549   20.9028 C   0  0  0  0  0  0  0  0  0  0  0  0
   10.6537  -16.6483   22.2290 C   0  0  2  0  0  0  0  0  0  0  0  0
    9.5519  -15.9591   22.8629 N   0  0  0  0  0  0  0  0  0  0  0  0
   11.7992  -16.8393   23.1269 C   0  0  0  0  0  0  0  0  0  0  0  0
   12.8418  -17.3857   22.7140 O   0  0  0  0  0  0  0  0  0  0  0  0
   11.7093  -16.3974   24.4665 N   0  0  0  0  0  0  0  0  0  0  0  0
   12.7388  -16.7113   25.4711 C   0  0  1  0  0  0  0  0  0  0  0  0
   12.3542  -15.9769   26.7165 C   0  0  0  0  0  0  0  0  0  0  0  0
   11.1013  -16.4536   27.3738 C   0  0  0  0  0  0  0  0  0  0  0  0
   10.9376  -15.7909   28.7141 C   0  0  0  0  0  0  0  0  0  0  0  0
   10.2950  -14.7189   28.8220 O   0  0  0  0  0  0  0  0  0  0  0  0
   12.7853  -18.1690   25.6685 C   0  0  0  0  0  0  0  0  0  0  0  0
   11.7884  -18.8693   25.3724 O   0  0  0  0  0  0  0  0  0  0  0  0
   11.4851  -16.3334   29.8721 O   0  0  0  0  0  0  0  0  0  0  0  0
   13.9029  -18.8076   26.1755 O   0  0  0  0  0  0  0  0  0  0  0  0
  2  1  1  1
  2  3  1  0
  3  4  1  0
  4  5  2  0
  4  9  1  0
  5  6  1  0
  6  7  2  0
  8  7  1  0
  9  8  2  0
 10  2  1  0
 11 10  2  0
 12 13  1  0
 13 14  2  0
 16 15  1  6
 15 13  1  0
 16 17  1  0
 17 10  1  0
 18 20  1  0
 18 16  1  0
 19 18  2  0
 21 22  1  1
 21 26  1  0
 21 20  1  0
 23 22  1  0
 24 23  1  0
 25 24  2  0
 26 29  1  0
 27 26  2  0
 28 24  1  0
M  END
$$$$
