FNE.pdb
     RDKit          3D

 29 29  0  0  1  0  0  0  0  0999 V2000
    5.9175  -17.5674   25.1799 N   0  0  0  0  0  0  0  0  0  0  0  0
    6.2941  -16.2038   24.9470 C   0  0  1  0  0  0  0  0  0  0  0  0
    7.1358  -15.6360   26.0718 C   0  0  0  0  0  0  0  0  0  0  0  0
    6.8346  -14.2174   26.3357 C   0  0  0  0  0  0  0  0  0  0  0  0
    7.7177  -13.2709   25.8910 C   0  0  0  0  0  0  0  0  0  0  0  0
    7.4538  -11.9437   26.1277 C   0  0  0  0  0  0  0  0  0  0  0  0
    6.3266  -11.5159   26.8008 C   0  0  0  0  0  0  0  0  0  0  0  0
    5.4713  -12.5043   27.2269 C   0  0  0  0  0  0  0  0  0  0  0  0
    5.7030  -13.8438   27.0078 C   0  0  0  0  0  0  0  0  0  0  0  0
    7.1337  -16.0764   23.7031 C   0  0  0  0  0  0  0  0  0  0  0  0
    7.9390  -16.9866   23.3761 O   0  0  0  0  0  0  0  0  0  0  0  0
    8.7305  -12.3365   19.1206 N   0  0  0  0  0  0  0  0  0  0  0  0
    8.0747  -13.5214   19.5268 C   0  0  0  0  0  0  0  0  0  0  0  0
    8.1434  -14.5015   18.7545 O   0  0  0  0  0  0  0  0  0  0  0  0
    7.3338  -13.6306   20.7981 C   0  0  0  0  0  0  0  0  0  0  0  0
    7.8294  -14.7463   21.6750 C   0  0  2  0  0  0  0  0  0  0  0  0
    7.0361  -14.9268   22.8705 N   0  0  0  0  0  0  0  0  0  0  0  0
    9.2684  -14.6621   21.9528 C   0  0  0  0  0  0  0  0  0  0  0  0
    9.7943  -13.5671   22.2364 O   0  0  0  0  0  0  0  0  0  0  0  0
   10.0537  -15.8359   21.8959 N   0  0  0  0  0  0  0  0  0  0  0  0
   11.4140  -15.9022   22.4552 C   0  0  1  0  0  0  0  0  0  0  0  0
   11.4187  -17.0408   23.4257 C   0  0  0  0  0  0  0  0  0  0  0  0
   12.7279  -17.2995   24.0953 C   0  0  0  0  0  0  0  0  0  0  0  0
   12.6047  -18.4672   25.0352 C   0  0  0  0  0  0  0  0  0  0  0  0
   12.9839  -19.6109   24.6857 O   0  0  0  0  0  0  0  0  0  0  0  0
   12.3738  -16.0951   21.3563 C   0  0  0  0  0  0  0  0  0  0  0  0
   13.5308  -15.6214   21.4501 O   0  0  0  0  0  0  0  0  0  0  0  0
   12.0723  -18.3273   26.3127 O   0  0  0  0  0  0  0  0  0  0  0  0
   12.0454  -16.7896   20.2058 O   0  0  0  0  0  0  0  0  0  0  0  0
  2  1  1  1
  2  3  1  0
  3  4  1  0
  4  5  2  0
  4  9  1  0
  5  6  1  0
  6  7  2  0
  8  7  1  0
  9  8  2  0
 10  2  1  0
 11 10  2  0
 12 13  1  0
 13 14  2  0
 16 15  1  1
 15 13  1  0
 16 17  1  0
 17 10  1  0
 18 20  1  0
 18 16  1  0
 19 18  2  0
 21 22  1  1
 21 26  1  0
 21 20  1  0
 23 22  1  0
 24 23  1  0
 25 24  2  0
 26 29  1  0
 27 26  2  0
 28 24  1  0
M  END
$$$$
