FNE.pdb
     RDKit          3D

 29 29  0  0  1  0  0  0  0  0999 V2000
    6.4437  -16.2218   25.1004 N   0  0  0  0  0  0  0  0  0  0  0  0
    6.7951  -15.1987   24.1597 C   0  0  1  0  0  0  0  0  0  0  0  0
    7.9575  -14.3506   24.6347 C   0  0  0  0  0  0  0  0  0  0  0  0
    7.5838  -13.4625   25.7503 C   0  0  0  0  0  0  0  0  0  0  0  0
    8.5744  -13.0003   26.5740 C   0  0  0  0  0  0  0  0  0  0  0  0
    8.2452  -12.1716   27.6191 C   0  0  0  0  0  0  0  0  0  0  0  0
    6.9472  -11.7793   27.8795 C   0  0  0  0  0  0  0  0  0  0  0  0
    5.9893  -12.2701   27.0243 C   0  0  0  0  0  0  0  0  0  0  0  0
    6.2819  -13.1023   25.9670 C   0  0  0  0  0  0  0  0  0  0  0  0
    7.2324  -15.7939   22.8471 C   0  0  0  0  0  0  0  0  0  0  0  0
    7.3906  -17.0366   22.7266 O   0  0  0  0  0  0  0  0  0  0  0  0
    8.4960  -12.2604   19.7062 N   0  0  0  0  0  0  0  0  0  0  0  0
    8.5087  -13.5226   19.0692 C   0  0  0  0  0  0  0  0  0  0  0  0
    9.4586  -13.7563   18.2914 O   0  0  0  0  0  0  0  0  0  0  0  0
    7.4643  -14.5411   19.2899 C   0  0  0  0  0  0  0  0  0  0  0  0
    7.7949  -15.4921   20.4060 C   0  0  2  0  0  0  0  0  0  0  0  0
    7.4761  -14.9671   21.7151 N   0  0  0  0  0  0  0  0  0  0  0  0
    9.1608  -16.0232   20.3218 C   0  0  0  0  0  0  0  0  0  0  0  0
    9.5063  -16.7280   19.3523 O   0  0  0  0  0  0  0  0  0  0  0  0
   10.0826  -15.7278   21.3518 N   0  0  0  0  0  0  0  0  0  0  0  0
   11.4758  -16.2031   21.3232 C   0  0  1  0  0  0  0  0  0  0  0  0
   12.2822  -15.1155   20.6870 C   0  0  0  0  0  0  0  0  0  0  0  0
   13.7536  -15.3633   20.6343 C   0  0  0  0  0  0  0  0  0  0  0  0
   14.4340  -14.2671   19.8613 C   0  0  0  0  0  0  0  0  0  0  0  0
   15.6172  -13.9416   20.1221 O   0  0  0  0  0  0  0  0  0  0  0  0
   11.9097  -16.4946   22.6991 C   0  0  0  0  0  0  0  0  0  0  0  0
   13.0389  -17.0002   22.9016 O   0  0  0  0  0  0  0  0  0  0  0  0
   13.7868  -13.5796   18.8398 O   0  0  0  0  0  0  0  0  0  0  0  0
   11.1089  -16.2283   23.7952 O   0  0  0  0  0  0  0  0  0  0  0  0
  2  1  1  1
  2  3  1  0
  3  4  1  0
  4  5  2  0
  4  9  1  0
  5  6  1  0
  6  7  2  0
  8  7  1  0
  9  8  2  0
 10  2  1  0
 11 10  2  0
 12 13  1  0
 13 14  2  0
 16 15  1  6
 15 13  1  0
 16 17  1  0
 17 10  1  0
 18 20  1  0
 18 16  1  0
 19 18  2  0
 21 22  1  1
 21 26  1  0
 21 20  1  0
 23 22  1  0
 24 23  1  0
 25 24  2  0
 26 29  1  0
 27 26  2  0
 28 24  1  0
M  END
$$$$
