FNE.pdb
     RDKit          3D

 29 29  0  0  1  0  0  0  0  0999 V2000
    5.7399  -17.9459   24.4558 N   0  0  0  0  0  0  0  0  0  0  0  0
    6.2944  -16.6256   24.5223 C   0  0  1  0  0  0  0  0  0  0  0  0
    6.6734  -16.2278   25.9344 C   0  0  0  0  0  0  0  0  0  0  0  0
    6.8695  -14.7734   26.0732 C   0  0  0  0  0  0  0  0  0  0  0  0
    7.8201  -14.3257   26.9504 C   0  0  0  0  0  0  0  0  0  0  0  0
    8.0170  -12.9736   27.0932 C   0  0  0  0  0  0  0  0  0  0  0  0
    7.2924  -12.0355   26.3851 C   0  0  0  0  0  0  0  0  0  0  0  0
    6.3503  -12.5353   25.5175 C   0  0  0  0  0  0  0  0  0  0  0  0
    6.1253  -13.8832   25.3483 C   0  0  0  0  0  0  0  0  0  0  0  0
    7.5622  -16.5270   23.7152 C   0  0  0  0  0  0  0  0  0  0  0  0
    8.3299  -17.5179   23.6019 O   0  0  0  0  0  0  0  0  0  0  0  0
    7.0096  -12.9129   19.9730 N   0  0  0  0  0  0  0  0  0  0  0  0
    7.8077  -14.0397   20.2774 C   0  0  0  0  0  0  0  0  0  0  0  0
    7.5322  -15.1064   19.6873 O   0  0  0  0  0  0  0  0  0  0  0  0
    8.9227  -13.9935   21.2425 C   0  0  0  0  0  0  0  0  0  0  0  0
    9.0031  -15.2191   22.1091 C   0  0  2  0  0  0  0  0  0  0  0  0
    7.9209  -15.3142   23.0634 N   0  0  0  0  0  0  0  0  0  0  0  0
   10.3234  -15.4017   22.7241 C   0  0  0  0  0  0  0  0  0  0  0  0
   11.3588  -15.3248   22.0327 O   0  0  0  0  0  0  0  0  0  0  0  0
   10.4104  -15.6659   24.1099 N   0  0  0  0  0  0  0  0  0  0  0  0
   11.6915  -15.9418   24.7810 C   0  0  1  0  0  0  0  0  0  0  0  0
   11.3825  -16.1012   26.2361 C   0  0  0  0  0  0  0  0  0  0  0  0
   10.9142  -17.4598   26.6410 C   0  0  0  0  0  0  0  0  0  0  0  0
   10.9199  -17.5819   28.1401 C   0  0  0  0  0  0  0  0  0  0  0  0
   11.0980  -16.5716   28.8622 O   0  0  0  0  0  0  0  0  0  0  0  0
   12.2865  -17.1540   24.1956 C   0  0  0  0  0  0  0  0  0  0  0  0
   11.5518  -17.9951   23.6258 O   0  0  0  0  0  0  0  0  0  0  0  0
   10.7303  -18.8039   28.7770 O   0  0  0  0  0  0  0  0  0  0  0  0
   13.6456  -17.4063   24.2493 O   0  0  0  0  0  0  0  0  0  0  0  0
  2  1  1  1
  2  3  1  0
  3  4  1  0
  4  5  2  0
  4  9  1  0
  5  6  1  0
  6  7  2  0
  8  7  1  0
  9  8  2  0
 10  2  1  0
 11 10  2  0
 12 13  1  0
 13 14  2  0
 16 15  1  1
 15 13  1  0
 16 17  1  0
 17 10  1  0
 18 20  1  0
 18 16  1  0
 19 18  2  0
 21 22  1  1
 21 26  1  0
 21 20  1  0
 23 22  1  0
 24 23  1  0
 25 24  2  0
 26 29  1  0
 27 26  2  0
 28 24  1  0
M  END
$$$$
