FNE.pdb
     RDKit          3D

 29 29  0  0  1  0  0  0  0  0999 V2000
    8.8669  -14.5782   24.7732 N   0  0  0  0  0  0  0  0  0  0  0  0
    7.6930  -15.2775   24.3396 C   0  0  1  0  0  0  0  0  0  0  0  0
    6.4436  -14.4254   24.4350 C   0  0  0  0  0  0  0  0  0  0  0  0
    6.5740  -13.3503   25.4350 C   0  0  0  0  0  0  0  0  0  0  0  0
    7.1839  -12.1836   25.0605 C   0  0  0  0  0  0  0  0  0  0  0  0
    7.3145  -11.1703   25.9790 C   0  0  0  0  0  0  0  0  0  0  0  0
    6.8539  -11.2758   27.2763 C   0  0  0  0  0  0  0  0  0  0  0  0
    6.2492  -12.4664   27.6031 C   0  0  0  0  0  0  0  0  0  0  0  0
    6.1007  -13.5034   26.7095 C   0  0  0  0  0  0  0  0  0  0  0  0
    7.8036  -15.6809   22.8927 C   0  0  0  0  0  0  0  0  0  0  0  0
    6.9713  -16.4751   22.3822 O   0  0  0  0  0  0  0  0  0  0  0  0
    7.5324  -12.3975   19.8500 N   0  0  0  0  0  0  0  0  0  0  0  0
    7.7301  -13.7763   19.6073 C   0  0  0  0  0  0  0  0  0  0  0  0
    6.7273  -14.4436   19.2742 O   0  0  0  0  0  0  0  0  0  0  0  0
    9.0469  -14.4302   19.7323 C   0  0  0  0  0  0  0  0  0  0  0  0
    9.0433  -15.5826   20.6974 C   0  0  2  0  0  0  0  0  0  0  0  0
    8.8490  -15.1747   22.0710 N   0  0  0  0  0  0  0  0  0  0  0  0
   10.1935  -16.4785   20.5258 C   0  0  0  0  0  0  0  0  0  0  0  0
   10.2715  -17.2227   19.5278 O   0  0  0  0  0  0  0  0  0  0  0  0
   11.2135  -16.4897   21.5042 N   0  0  0  0  0  0  0  0  0  0  0  0
   12.3921  -17.3663   21.4042 C   0  0  1  0  0  0  0  0  0  0  0  0
   13.5369  -16.6073   21.9971 C   0  0  0  0  0  0  0  0  0  0  0  0
   13.7408  -16.8073   23.4626 C   0  0  0  0  0  0  0  0  0  0  0  0
   15.0695  -16.2401   23.8808 C   0  0  0  0  0  0  0  0  0  0  0  0
   16.0502  -16.2682   23.0989 O   0  0  0  0  0  0  0  0  0  0  0  0
   12.1167  -18.6214   22.1219 C   0  0  0  0  0  0  0  0  0  0  0  0
   11.1768  -18.6714   22.9501 O   0  0  0  0  0  0  0  0  0  0  0  0
   15.2613  -15.6692   25.1347 O   0  0  0  0  0  0  0  0  0  0  0  0
   12.8650  -19.7665   21.9156 O   0  0  0  0  0  0  0  0  0  0  0  0
  2  1  1  6
  2  3  1  0
  3  4  1  0
  4  5  2  0
  4  9  1  0
  5  6  1  0
  6  7  2  0
  8  7  1  0
  9  8  2  0
 10  2  1  0
 11 10  2  0
 12 13  1  0
 13 14  2  0
 16 15  1  6
 15 13  1  0
 16 17  1  0
 17 10  1  0
 18 20  1  0
 18 16  1  0
 19 18  2  0
 21 22  1  1
 21 26  1  0
 21 20  1  0
 23 22  1  0
 24 23  1  0
 25 24  2  0
 26 29  1  0
 27 26  2  0
 28 24  1  0
M  END
$$$$
