FNE.pdb
     RDKit          3D

 29 29  0  0  1  0  0  0  0  0999 V2000
    7.3484  -15.8738   22.4167 N   0  0  0  0  0  0  0  0  0  0  0  0
    7.2407  -15.4957   23.7953 C   0  0  1  0  0  0  0  0  0  0  0  0
    6.0630  -14.5777   24.0531 C   0  0  0  0  0  0  0  0  0  0  0  0
    6.3767  -13.5272   25.0384 C   0  0  0  0  0  0  0  0  0  0  0  0
    7.3107  -12.5829   24.7078 C   0  0  0  0  0  0  0  0  0  0  0  0
    7.6162  -11.5960   25.6135 C   0  0  0  0  0  0  0  0  0  0  0  0
    7.0181  -11.5122   26.8551 C   0  0  0  0  0  0  0  0  0  0  0  0
    6.0875  -12.4833   27.1393 C   0  0  0  0  0  0  0  0  0  0  0  0
    5.7559  -13.4870   26.2569 C   0  0  0  0  0  0  0  0  0  0  0  0
    7.0212  -16.6992   24.6738 C   0  0  0  0  0  0  0  0  0  0  0  0
    5.8590  -17.0437   25.0122 O   0  0  0  0  0  0  0  0  0  0  0  0
    6.5446  -22.0524   25.7870 N   0  0  0  0  0  0  0  0  0  0  0  0
    6.7105  -20.7621   26.3408 C   0  0  0  0  0  0  0  0  0  0  0  0
    6.7383  -20.6789   27.5875 O   0  0  0  0  0  0  0  0  0  0  0  0
    6.8475  -19.5478   25.5141 C   0  0  0  0  0  0  0  0  0  0  0  0
    7.9647  -18.6498   25.9666 C   0  0  2  0  0  0  0  0  0  0  0  0
    8.1201  -17.4732   25.1405 N   0  0  0  0  0  0  0  0  0  0  0  0
    9.2274  -19.3675   26.1799 C   0  0  0  0  0  0  0  0  0  0  0  0
    9.2601  -20.3909   26.8925 O   0  0  0  0  0  0  0  0  0  0  0  0
   10.4079  -18.8870   25.5691 N   0  0  0  0  0  0  0  0  0  0  0  0
   11.6708  -18.7295   26.3093 C   0  0  1  0  0  0  0  0  0  0  0  0
   12.4753  -17.7119   25.5641 C   0  0  0  0  0  0  0  0  0  0  0  0
   12.3670  -17.7815   24.0766 C   0  0  0  0  0  0  0  0  0  0  0  0
   13.1886  -16.6898   23.4479 C   0  0  0  0  0  0  0  0  0  0  0  0
   14.0750  -16.0968   24.1086 O   0  0  0  0  0  0  0  0  0  0  0  0
   11.3682  -18.3093   27.6869 C   0  0  0  0  0  0  0  0  0  0  0  0
   11.8363  -18.9576   28.6525 O   0  0  0  0  0  0  0  0  0  0  0  0
   13.0006  -16.2994   22.1260 O   0  0  0  0  0  0  0  0  0  0  0  0
   10.5756  -17.2097   27.9635 O   0  0  0  0  0  0  0  0  0  0  0  0
  2  1  1  6
  2  3  1  0
  3  4  1  0
  4  5  2  0
  4  9  1  0
  5  6  1  0
  6  7  2  0
  8  7  1  0
  9  8  2  0
 10  2  1  0
 11 10  2  0
 12 13  1  0
 13 14  2  0
 16 15  1  6
 15 13  1  0
 16 17  1  0
 17 10  1  0
 18 20  1  0
 18 16  1  0
 19 18  2  0
 21 22  1  6
 21 26  1  0
 21 20  1  0
 23 22  1  0
 24 23  1  0
 25 24  2  0
 26 29  1  0
 27 26  2  0
 28 24  1  0
M  END
$$$$
