FNE.pdb
     RDKit          3D

 29 29  0  0  1  0  0  0  0  0999 V2000
    5.9872  -16.5542   25.2473 N   0  0  0  0  0  0  0  0  0  0  0  0
    7.0583  -15.7758   24.6978 C   0  0  1  0  0  0  0  0  0  0  0  0
    7.9626  -15.1993   25.7683 C   0  0  0  0  0  0  0  0  0  0  0  0
    7.4771  -13.9022   26.2729 C   0  0  0  0  0  0  0  0  0  0  0  0
    8.1190  -12.7639   25.8655 C   0  0  0  0  0  0  0  0  0  0  0  0
    7.6807  -11.5458   26.3254 C   0  0  0  0  0  0  0  0  0  0  0  0
    6.6112  -11.4155   27.1888 C   0  0  0  0  0  0  0  0  0  0  0  0
    6.0005  -12.5873   27.5682 C   0  0  0  0  0  0  0  0  0  0  0  0
    6.4119  -13.8254   27.1279 C   0  0  0  0  0  0  0  0  0  0  0  0
    7.9475  -16.6171   23.8205 C   0  0  0  0  0  0  0  0  0  0  0  0
    7.8263  -17.8696   23.7966 O   0  0  0  0  0  0  0  0  0  0  0  0
   11.9351  -16.3980   19.1741 N   0  0  0  0  0  0  0  0  0  0  0  0
   10.6824  -16.7408   19.7328 C   0  0  0  0  0  0  0  0  0  0  0  0
   10.1241  -17.7666   19.2880 O   0  0  0  0  0  0  0  0  0  0  0  0
   10.0348  -15.9461   20.7940 C   0  0  0  0  0  0  0  0  0  0  0  0
    9.7092  -16.7535   22.0193 C   0  0  2  0  0  0  0  0  0  0  0  0
    8.9430  -16.0171   22.9999 N   0  0  0  0  0  0  0  0  0  0  0  0
   10.8829  -17.4202   22.5961 C   0  0  0  0  0  0  0  0  0  0  0  0
   11.5570  -18.2166   21.9125 O   0  0  0  0  0  0  0  0  0  0  0  0
   11.2427  -17.1504   23.9361 N   0  0  0  0  0  0  0  0  0  0  0  0
   12.3511  -17.8467   24.6103 C   0  0  1  0  0  0  0  0  0  0  0  0
   13.6139  -17.3164   24.0083 C   0  0  0  0  0  0  0  0  0  0  0  0
   13.8306  -15.8488   24.1768 C   0  0  0  0  0  0  0  0  0  0  0  0
   15.1449  -15.4479   23.5652 C   0  0  0  0  0  0  0  0  0  0  0  0
   15.2456  -15.2714   22.3273 O   0  0  0  0  0  0  0  0  0  0  0  0
   12.2664  -17.5912   26.0572 C   0  0  0  0  0  0  0  0  0  0  0  0
   11.4268  -16.7701   26.4961 O   0  0  0  0  0  0  0  0  0  0  0  0
   16.2861  -15.2593   24.3380 O   0  0  0  0  0  0  0  0  0  0  0  0
   13.0889  -18.2313   26.9669 O   0  0  0  0  0  0  0  0  0  0  0  0
  2  1  1  1
  2  3  1  0
  3  4  1  0
  4  5  2  0
  4  9  1  0
  5  6  1  0
  6  7  2  0
  8  7  1  0
  9  8  2  0
 10  2  1  0
 11 10  2  0
 12 13  1  0
 13 14  2  0
 16 15  1  6
 15 13  1  0
 16 17  1  0
 17 10  1  0
 18 20  1  0
 18 16  1  0
 19 18  2  0
 21 22  1  6
 21 26  1  0
 21 20  1  0
 23 22  1  0
 24 23  1  0
 25 24  2  0
 26 29  1  0
 27 26  2  0
 28 24  1  0
M  END
$$$$
