QIW.pdb
     RDKit          3D

 32 33  0  0  1  0  0  0  0  0999 V2000
   25.9212  -20.7051  -18.9721 N   0  0  0  0  0  0  0  0  0  0  0  0
   26.9939  -19.8236  -18.6988 C   0  0  0  0  0  0  0  0  0  0  0  0
   27.6547  -19.3986  -19.6620 O   0  0  0  0  0  0  0  0  0  0  0  0
   27.3463  -19.4013  -17.3273 C   0  0  0  0  0  0  0  0  0  0  0  0
   26.4533  -19.8972  -16.2568 C   0  0  0  0  0  0  0  0  0  0  0  0
   27.0338  -20.8629  -15.2839 C   0  0  2  0  0  0  0  0  0  0  0  0
   27.5170  -22.0733  -15.9490 N   0  0  0  0  0  0  0  0  0  0  0  0
   26.0679  -21.2068  -14.2242 C   0  0  0  0  0  0  0  0  0  0  0  0
   25.2537  -22.1384  -14.4341 O   0  0  0  0  0  0  0  0  0  0  0  0
   27.4559  -20.4741   -8.9347 C   0  0  0  0  0  0  0  0  0  0  0  0
   26.8772  -21.0455  -10.1858 C   0  0  0  0  0  0  0  0  0  0  0  0
   25.5465  -20.4891  -10.5801 C   0  0  2  0  0  0  0  0  0  0  0  0
   24.4973  -20.9776   -9.5962 C   0  0  0  0  0  0  0  0  0  0  0  0
   25.0949  -20.9208  -11.9679 C   0  0  2  0  0  0  0  0  0  0  0  0
   26.0366  -20.5098  -12.9730 N   0  0  0  0  0  0  0  0  0  0  0  0
   23.8145  -20.2100  -12.2097 C   0  0  0  0  0  0  0  0  0  0  0  0
   23.7036  -18.9608  -12.0542 O   0  0  0  0  0  0  0  0  0  0  0  0
   22.6938  -20.9684  -12.6274 N   0  0  0  0  0  0  0  0  0  0  0  0
   21.5662  -20.3393  -13.3317 C   0  0  1  0  0  0  0  0  0  0  0  0
   22.1825  -19.7250  -14.5556 C   0  0  0  0  0  0  0  0  0  0  0  0
   21.1817  -19.1338  -15.4447 C   0  0  0  0  0  0  0  0  0  0  0  0
   20.1280  -18.2736  -15.0802 C   0  0  0  0  0  0  0  0  0  0  0  0
   19.3937  -17.9612  -16.1442 N   0  0  0  0  0  0  0  0  0  0  0  0
   19.9281  -18.5842  -17.1921 C   0  0  0  0  0  0  0  0  0  0  0  0
   19.5618  -18.5765  -18.5142 C   0  0  0  0  0  0  0  0  0  0  0  0
   20.2635  -19.2736  -19.4486 C   0  0  0  0  0  0  0  0  0  0  0  0
   21.3806  -20.0180  -19.0793 C   0  0  0  0  0  0  0  0  0  0  0  0
   21.7484  -20.0273  -17.7547 C   0  0  0  0  0  0  0  0  0  0  0  0
   21.0444  -19.3244  -16.7938 C   0  0  0  0  0  0  0  0  0  0  0  0
   20.5438  -21.3398  -13.6079 C   0  0  0  0  0  0  0  0  0  0  0  0
   20.8925  -22.6173  -13.9908 O   0  0  0  0  0  0  0  0  0  0  0  0
   19.3311  -21.0506  -13.5063 O   0  0  0  0  0  0  0  0  0  0  0  0
  1  2  1  0
  2  3  2  0
  2  4  1  0
  4  5  1  0
  6  5  1  0
  6  7  1  6
  8  9  2  0
  8  6  1  0
 10 11  1  0
 11 12  1  0
 12 14  1  0
 12 13  1  1
 14 15  1  6
 15  8  1  0
 16 18  1  0
 16 14  1  0
 17 16  2  0
 19 30  1  0
 19 18  1  0
 20 21  1  0
 19 20  1  6
 21 22  2  0
 21 29  1  0
 22 23  1  0
 23 24  1  0
 24 25  2  0
 25 26  1  0
 27 26  2  0
 28 27  1  0
 29 28  2  0
 29 24  1  0
 30 31  1  0
 32 30  2  0
M  END
$$$$
