QIW.pdb
     RDKit          3D

 32 33  0  0  1  0  0  0  0  0999 V2000
   29.3547  -17.9940  -19.8750 N   0  0  0  0  0  0  0  0  0  0  0  0
   27.9818  -18.1243  -19.5575 C   0  0  0  0  0  0  0  0  0  0  0  0
   27.2606  -18.7534  -20.3507 O   0  0  0  0  0  0  0  0  0  0  0  0
   27.3903  -17.5448  -18.3336 C   0  0  0  0  0  0  0  0  0  0  0  0
   26.8594  -18.5209  -17.3566 C   0  0  0  0  0  0  0  0  0  0  0  0
   27.8504  -19.2313  -16.5024 C   0  0  2  0  0  0  0  0  0  0  0  0
   28.7840  -20.0225  -17.3043 N   0  0  0  0  0  0  0  0  0  0  0  0
   27.1848  -20.0806  -15.4974 C   0  0  0  0  0  0  0  0  0  0  0  0
   26.5098  -21.0616  -15.8935 O   0  0  0  0  0  0  0  0  0  0  0  0
   29.3221  -20.6408  -10.4539 C   0  0  0  0  0  0  0  0  0  0  0  0
   28.6054  -21.0037  -11.7114 C   0  0  0  0  0  0  0  0  0  0  0  0
   27.1755  -20.5707  -11.7733 C   0  0  2  0  0  0  0  0  0  0  0  0
   26.3479  -21.4748  -10.8760 C   0  0  0  0  0  0  0  0  0  0  0  0
   26.5757  -20.6541  -13.1694 C   0  0  2  0  0  0  0  0  0  0  0  0
   27.2890  -19.8155  -14.0935 N   0  0  0  0  0  0  0  0  0  0  0  0
   25.1915  -20.1342  -13.0406 C   0  0  0  0  0  0  0  0  0  0  0  0
   24.9533  -18.9573  -12.6464 O   0  0  0  0  0  0  0  0  0  0  0  0
   24.1170  -20.9945  -13.3738 N   0  0  0  0  0  0  0  0  0  0  0  0
   22.7213  -20.5366  -13.2992 C   0  0  1  0  0  0  0  0  0  0  0  0
   22.2588  -20.5049  -14.7276 C   0  0  0  0  0  0  0  0  0  0  0  0
   21.3750  -19.3708  -15.0004 C   0  0  0  0  0  0  0  0  0  0  0  0
   21.6955  -18.0035  -14.8965 C   0  0  0  0  0  0  0  0  0  0  0  0
   20.6359  -17.2542  -15.1873 N   0  0  0  0  0  0  0  0  0  0  0  0
   19.6335  -18.0802  -15.4787 C   0  0  0  0  0  0  0  0  0  0  0  0
   18.3427  -17.8139  -15.8593 C   0  0  0  0  0  0  0  0  0  0  0  0
   17.4647  -18.8153  -16.1381 C   0  0  0  0  0  0  0  0  0  0  0  0
   17.8615  -20.1464  -16.0422 C   0  0  0  0  0  0  0  0  0  0  0  0
   19.1545  -20.4148  -15.6602 C   0  0  0  0  0  0  0  0  0  0  0  0
   20.0577  -19.4074  -15.3728 C   0  0  0  0  0  0  0  0  0  0  0  0
   21.9596  -21.4311  -12.4376 C   0  0  0  0  0  0  0  0  0  0  0  0
   20.8241  -20.9908  -11.7919 O   0  0  0  0  0  0  0  0  0  0  0  0
   22.3301  -22.6136  -12.2672 O   0  0  0  0  0  0  0  0  0  0  0  0
  1  2  1  0
  2  3  2  0
  2  4  1  0
  4  5  1  0
  6  5  1  0
  6  7  1  6
  8  9  2  0
  8  6  1  0
 10 11  1  0
 11 12  1  0
 12 14  1  0
 12 13  1  1
 14 15  1  6
 15  8  1  0
 16 18  1  0
 16 14  1  0
 17 16  2  0
 19 30  1  0
 19 18  1  0
 20 21  1  0
 19 20  1  6
 21 22  2  0
 21 29  1  0
 22 23  1  0
 23 24  1  0
 24 25  2  0
 25 26  1  0
 27 26  2  0
 28 27  1  0
 29 28  2  0
 29 24  1  0
 30 31  1  0
 32 30  2  0
M  END
$$$$
