QIW.pdb
     RDKit          3D

 32 33  0  0  1  0  0  0  0  0999 V2000
   25.4170  -27.6463  -17.2214 N   0  0  0  0  0  0  0  0  0  0  0  0
   24.3530  -26.7402  -17.4431 C   0  0  0  0  0  0  0  0  0  0  0  0
   23.9222  -26.6246  -18.6033 O   0  0  0  0  0  0  0  0  0  0  0  0
   23.7497  -25.9411  -16.3563 C   0  0  0  0  0  0  0  0  0  0  0  0
   24.6955  -25.1272  -15.5610 C   0  0  0  0  0  0  0  0  0  0  0  0
   24.3985  -23.6738  -15.4354 C   0  0  2  0  0  0  0  0  0  0  0  0
   24.3579  -23.0172  -16.7423 N   0  0  0  0  0  0  0  0  0  0  0  0
   25.3660  -23.0008  -14.5493 C   0  0  0  0  0  0  0  0  0  0  0  0
   26.1308  -23.7078  -13.8492 O   0  0  0  0  0  0  0  0  0  0  0  0
   27.5573  -18.0132  -15.8122 C   0  0  0  0  0  0  0  0  0  0  0  0
   27.3867  -19.4126  -15.3230 C   0  0  0  0  0  0  0  0  0  0  0  0
   26.7214  -19.5411  -13.9900 C   0  0  2  0  0  0  0  0  0  0  0  0
   27.6366  -18.9619  -12.9250 C   0  0  0  0  0  0  0  0  0  0  0  0
   26.4280  -20.9810  -13.5942 C   0  0  2  0  0  0  0  0  0  0  0  0
   25.4534  -21.5731  -14.4692 N   0  0  0  0  0  0  0  0  0  0  0  0
   25.8475  -20.9092  -12.2300 C   0  0  0  0  0  0  0  0  0  0  0  0
   24.6659  -20.5099  -12.0264 O   0  0  0  0  0  0  0  0  0  0  0  0
   26.6543  -21.3042  -11.1352 N   0  0  0  0  0  0  0  0  0  0  0  0
   26.1757  -21.1787   -9.7501 C   0  0  1  0  0  0  0  0  0  0  0  0
   27.3987  -21.4012   -8.9077 C   0  0  0  0  0  0  0  0  0  0  0  0
   27.3054  -20.7380   -7.6065 C   0  0  0  0  0  0  0  0  0  0  0  0
   26.1658  -20.1296   -7.0460 C   0  0  0  0  0  0  0  0  0  0  0  0
   26.4579  -19.5957   -5.8635 N   0  0  0  0  0  0  0  0  0  0  0  0
   27.7464  -19.8327   -5.6283 C   0  0  0  0  0  0  0  0  0  0  0  0
   28.5281  -19.5103   -4.5480 C   0  0  0  0  0  0  0  0  0  0  0  0
   29.8395  -19.8686   -4.4893 C   0  0  0  0  0  0  0  0  0  0  0  0
   30.4228  -20.5779   -5.5357 C   0  0  0  0  0  0  0  0  0  0  0  0
   29.6410  -20.9010   -6.6193 C   0  0  0  0  0  0  0  0  0  0  0  0
   28.3071  -20.5428   -6.6932 C   0  0  0  0  0  0  0  0  0  0  0  0
   25.5452  -19.8779   -9.5675 C   0  0  0  0  0  0  0  0  0  0  0  0
   24.2903  -19.7751   -9.0063 O   0  0  0  0  0  0  0  0  0  0  0  0
   26.1339  -18.8335   -9.9240 O   0  0  0  0  0  0  0  0  0  0  0  0
  1  2  1  0
  2  3  2  0
  2  4  1  0
  4  5  1  0
  6  5  1  0
  6  7  1  6
  8  9  2  0
  8  6  1  0
 10 11  1  0
 11 12  1  0
 12 14  1  0
 12 13  1  1
 14 15  1  6
 15  8  1  0
 16 18  1  0
 16 14  1  0
 17 16  2  0
 19 30  1  0
 19 18  1  0
 20 21  1  0
 19 20  1  1
 21 22  2  0
 21 29  1  0
 22 23  1  0
 23 24  1  0
 24 25  2  0
 25 26  1  0
 27 26  2  0
 28 27  1  0
 29 28  2  0
 29 24  1  0
 30 31  1  0
 32 30  2  0
M  END
$$$$
