QIW.pdb
     RDKit          3D

 32 33  0  0  1  0  0  0  0  0999 V2000
   22.8335  -24.0704  -17.4304 N   0  0  0  0  0  0  0  0  0  0  0  0
   24.0556  -23.9424  -18.1322 C   0  0  0  0  0  0  0  0  0  0  0  0
   24.1864  -22.9707  -18.8962 O   0  0  0  0  0  0  0  0  0  0  0  0
   25.1611  -24.9123  -17.9872 C   0  0  0  0  0  0  0  0  0  0  0  0
   26.2262  -24.5292  -17.0343 C   0  0  0  0  0  0  0  0  0  0  0  0
   27.1306  -23.4186  -17.4402 C   0  0  2  0  0  0  0  0  0  0  0  0
   28.3576  -23.9214  -18.0586 N   0  0  0  0  0  0  0  0  0  0  0  0
   27.4499  -22.5396  -16.3001 C   0  0  0  0  0  0  0  0  0  0  0  0
   28.3433  -22.9007  -15.4962 O   0  0  0  0  0  0  0  0  0  0  0  0
   28.0758  -17.2008  -16.7023 C   0  0  0  0  0  0  0  0  0  0  0  0
   28.1328  -18.6251  -16.2609 C   0  0  0  0  0  0  0  0  0  0  0  0
   27.0939  -19.0207  -15.2609 C   0  0  2  0  0  0  0  0  0  0  0  0
   27.3517  -18.2760  -13.9622 C   0  0  0  0  0  0  0  0  0  0  0  0
   27.1004  -20.5070  -14.9342 C   0  0  2  0  0  0  0  0  0  0  0  0
   26.7715  -21.2955  -16.0900 N   0  0  0  0  0  0  0  0  0  0  0  0
   26.0329  -20.6973  -13.9206 C   0  0  0  0  0  0  0  0  0  0  0  0
   24.8154  -20.4842  -14.1838 O   0  0  0  0  0  0  0  0  0  0  0  0
   26.4063  -21.1315  -12.6253 N   0  0  0  0  0  0  0  0  0  0  0  0
   25.3988  -21.3717  -11.5810 C   0  0  1  0  0  0  0  0  0  0  0  0
   26.1759  -21.9521  -10.4347 C   0  0  0  0  0  0  0  0  0  0  0  0
   26.3449  -20.9979   -9.3381 C   0  0  0  0  0  0  0  0  0  0  0  0
   25.4437  -19.9887   -8.9476 C   0  0  0  0  0  0  0  0  0  0  0  0
   25.9420  -19.2875   -7.9333 N   0  0  0  0  0  0  0  0  0  0  0  0
   27.1358  -19.8008   -7.6445 C   0  0  0  0  0  0  0  0  0  0  0  0
   28.0433  -19.4535   -6.6760 C   0  0  0  0  0  0  0  0  0  0  0  0
   29.2158  -20.1281   -6.5282 C   0  0  0  0  0  0  0  0  0  0  0  0
   29.5232  -21.1970   -7.3657 C   0  0  0  0  0  0  0  0  0  0  0  0
   28.6151  -21.5456   -8.3371 C   0  0  0  0  0  0  0  0  0  0  0  0
   27.4199  -20.8687   -8.4997 C   0  0  0  0  0  0  0  0  0  0  0  0
   24.7083  -20.1262  -11.2733 C   0  0  0  0  0  0  0  0  0  0  0  0
   23.3550  -20.1163  -11.0112 O   0  0  0  0  0  0  0  0  0  0  0  0
   25.3354  -19.0442  -11.2480 O   0  0  0  0  0  0  0  0  0  0  0  0
  1  2  1  0
  2  3  2  0
  2  4  1  0
  4  5  1  0
  6  5  1  0
  6  7  1  1
  8  9  2  0
  8  6  1  0
 10 11  1  0
 11 12  1  0
 12 14  1  0
 12 13  1  1
 14 15  1  6
 15  8  1  0
 16 18  1  0
 16 14  1  0
 17 16  2  0
 19 30  1  0
 19 18  1  0
 20 21  1  0
 19 20  1  1
 21 22  2  0
 21 29  1  0
 22 23  1  0
 23 24  1  0
 24 25  2  0
 25 26  1  0
 27 26  2  0
 28 27  1  0
 29 28  2  0
 29 24  1  0
 30 31  1  0
 32 30  2  0
M  END
$$$$
