QIW.pdb
     RDKit          3D

 32 33  0  0  1  0  0  0  0  0999 V2000
   26.6512  -24.6029  -17.9689 N   0  0  0  0  0  0  0  0  0  0  0  0
   27.7677  -25.0561  -18.7108 C   0  0  0  0  0  0  0  0  0  0  0  0
   27.5547  -25.8060  -19.6789 O   0  0  0  0  0  0  0  0  0  0  0  0
   29.1545  -24.6721  -18.3747 C   0  0  0  0  0  0  0  0  0  0  0  0
   29.2975  -23.6912  -17.2762 C   0  0  0  0  0  0  0  0  0  0  0  0
   28.7739  -22.3193  -17.5210 C   0  0  2  0  0  0  0  0  0  0  0  0
   29.6065  -21.5872  -18.4758 N   0  0  0  0  0  0  0  0  0  0  0  0
   28.6417  -21.5607  -16.2635 C   0  0  0  0  0  0  0  0  0  0  0  0
   29.6680  -21.3714  -15.5665 O   0  0  0  0  0  0  0  0  0  0  0  0
   27.3517  -16.7042  -16.1999 C   0  0  0  0  0  0  0  0  0  0  0  0
   27.8201  -18.0623  -15.7963 C   0  0  0  0  0  0  0  0  0  0  0  0
   26.8750  -18.8253  -14.9243 C   0  0  2  0  0  0  0  0  0  0  0  0
   26.7456  -18.1074  -13.5919 C   0  0  0  0  0  0  0  0  0  0  0  0
   27.3357  -20.2447  -14.6258 C   0  0  2  0  0  0  0  0  0  0  0  0
   27.3823  -21.0395  -15.8225 N   0  0  0  0  0  0  0  0  0  0  0  0
   26.3044  -20.8177  -13.7252 C   0  0  0  0  0  0  0  0  0  0  0  0
   25.1709  -21.1793  -14.1514 O   0  0  0  0  0  0  0  0  0  0  0  0
   26.6156  -20.9576  -12.3507 N   0  0  0  0  0  0  0  0  0  0  0  0
   25.6708  -21.5852  -11.4143 C   0  0  1  0  0  0  0  0  0  0  0  0
   26.5171  -21.9931  -10.2428 C   0  0  0  0  0  0  0  0  0  0  0  0
   26.5992  -20.9449   -9.2249 C   0  0  0  0  0  0  0  0  0  0  0  0
   25.6704  -19.9113   -8.9970 C   0  0  0  0  0  0  0  0  0  0  0  0
   26.0873  -19.1203   -8.0126 N   0  0  0  0  0  0  0  0  0  0  0  0
   27.2544  -19.5981   -7.5866 C   0  0  0  0  0  0  0  0  0  0  0  0
   28.0828  -19.1609   -6.5843 C   0  0  0  0  0  0  0  0  0  0  0  0
   29.2397  -19.8120   -6.2858 C   0  0  0  0  0  0  0  0  0  0  0  0
   29.6120  -20.9484   -6.9988 C   0  0  0  0  0  0  0  0  0  0  0  0
   28.7833  -21.3872   -8.0041 C   0  0  0  0  0  0  0  0  0  0  0  0
   27.6048  -20.7352   -8.3193 C   0  0  0  0  0  0  0  0  0  0  0  0
   24.6060  -20.6445  -11.0916 C   0  0  0  0  0  0  0  0  0  0  0  0
   23.3675  -21.0935  -10.6858 O   0  0  0  0  0  0  0  0  0  0  0  0
   24.8002  -19.4124  -11.1842 O   0  0  0  0  0  0  0  0  0  0  0  0
  1  2  1  0
  2  3  2  0
  2  4  1  0
  4  5  1  0
  6  5  1  0
  6  7  1  6
  8  9  2  0
  8  6  1  0
 10 11  1  0
 11 12  1  0
 12 14  1  0
 12 13  1  1
 14 15  1  6
 15  8  1  0
 16 18  1  0
 16 14  1  0
 17 16  2  0
 19 30  1  0
 19 18  1  0
 20 21  1  0
 19 20  1  1
 21 22  2  0
 21 29  1  0
 22 23  1  0
 23 24  1  0
 24 25  2  0
 25 26  1  0
 27 26  2  0
 28 27  1  0
 29 28  2  0
 29 24  1  0
 30 31  1  0
 32 30  2  0
M  END
$$$$
