QIW.pdb
     RDKit          3D

 32 33  0  0  1  0  0  0  0  0999 V2000
   32.2529  -24.9405  -14.3989 N   0  0  0  0  0  0  0  0  0  0  0  0
   32.2874  -25.2803  -15.7722 C   0  0  0  0  0  0  0  0  0  0  0  0
   33.1324  -26.1135  -16.1421 O   0  0  0  0  0  0  0  0  0  0  0  0
   31.3660  -24.6846  -16.7621 C   0  0  0  0  0  0  0  0  0  0  0  0
   30.4069  -23.6933  -16.2266 C   0  0  0  0  0  0  0  0  0  0  0  0
   29.4384  -23.0998  -17.1889 C   0  0  2  0  0  0  0  0  0  0  0  0
   30.1166  -22.5287  -18.3528 N   0  0  0  0  0  0  0  0  0  0  0  0
   28.5858  -22.0870  -16.5398 C   0  0  0  0  0  0  0  0  0  0  0  0
   28.9776  -20.8949  -16.5228 O   0  0  0  0  0  0  0  0  0  0  0  0
   25.5177  -21.7858  -18.5195 C   0  0  0  0  0  0  0  0  0  0  0  0
   25.2701  -20.7569  -17.4675 C   0  0  0  0  0  0  0  0  0  0  0  0
   25.1776  -21.2868  -16.0723 C   0  0  2  0  0  0  0  0  0  0  0  0
   24.3075  -20.3536  -15.2479 C   0  0  0  0  0  0  0  0  0  0  0  0
   26.5236  -21.3829  -15.3687 C   0  0  2  0  0  0  0  0  0  0  0  0
   27.3331  -22.4275  -15.9340 N   0  0  0  0  0  0  0  0  0  0  0  0
   26.2138  -21.7421  -13.9623 C   0  0  0  0  0  0  0  0  0  0  0  0
   25.5027  -22.7450  -13.6696 O   0  0  0  0  0  0  0  0  0  0  0  0
   26.7388  -20.9274  -12.9297 N   0  0  0  0  0  0  0  0  0  0  0  0
   26.4429  -21.2026  -11.5155 C   0  0  1  0  0  0  0  0  0  0  0  0
   27.3169  -20.2471  -10.7553 C   0  0  0  0  0  0  0  0  0  0  0  0
   26.9855  -20.2041   -9.3305 C   0  0  0  0  0  0  0  0  0  0  0  0
   25.6977  -20.1903   -8.7609 C   0  0  0  0  0  0  0  0  0  0  0  0
   25.7763  -20.1128   -7.4356 N   0  0  0  0  0  0  0  0  0  0  0  0
   27.0680  -20.0762   -7.1160 C   0  0  0  0  0  0  0  0  0  0  0  0
   27.6803  -20.0157   -5.8898 C   0  0  0  0  0  0  0  0  0  0  0  0
   29.0360  -20.0098   -5.7736 C   0  0  0  0  0  0  0  0  0  0  0  0
   29.8400  -20.0657   -6.9089 C   0  0  0  0  0  0  0  0  0  0  0  0
   29.2279  -20.1256   -8.1384 C   0  0  0  0  0  0  0  0  0  0  0  0
   27.8512  -20.1314   -8.2720 C   0  0  0  0  0  0  0  0  0  0  0  0
   25.0155  -21.0377  -11.2744 C   0  0  0  0  0  0  0  0  0  0  0  0
   24.3204  -19.9921  -11.8434 O   0  0  0  0  0  0  0  0  0  0  0  0
   24.4003  -21.8425  -10.5406 O   0  0  0  0  0  0  0  0  0  0  0  0
  1  2  1  0
  2  3  2  0
  2  4  1  0
  4  5  1  0
  6  5  1  0
  6  7  1  6
  8  9  2  0
  8  6  1  0
 10 11  1  0
 11 12  1  0
 12 14  1  0
 12 13  1  1
 14 15  1  6
 15  8  1  0
 16 18  1  0
 16 14  1  0
 17 16  2  0
 19 30  1  0
 19 18  1  0
 20 21  1  0
 19 20  1  1
 21 22  2  0
 21 29  1  0
 22 23  1  0
 23 24  1  0
 24 25  2  0
 25 26  1  0
 27 26  2  0
 28 27  1  0
 29 28  2  0
 29 24  1  0
 30 31  1  0
 32 30  2  0
M  END
$$$$
