QIW.pdb
     RDKit          3D

 32 33  0  0  1  0  0  0  0  0999 V2000
   26.8268  -22.1061  -19.2024 N   0  0  0  0  0  0  0  0  0  0  0  0
   27.0950  -20.7212  -19.3144 C   0  0  0  0  0  0  0  0  0  0  0  0
   27.4649  -20.2899  -20.4200 O   0  0  0  0  0  0  0  0  0  0  0  0
   26.9519  -19.7891  -18.1767 C   0  0  0  0  0  0  0  0  0  0  0  0
   26.4869  -20.3946  -16.9092 C   0  0  0  0  0  0  0  0  0  0  0  0
   27.5217  -20.6915  -15.8810 C   0  0  2  0  0  0  0  0  0  0  0  0
   28.4935  -21.6737  -16.3625 N   0  0  0  0  0  0  0  0  0  0  0  0
   26.9115  -21.1455  -14.6178 C   0  0  0  0  0  0  0  0  0  0  0  0
   26.2370  -22.2037  -14.6238 O   0  0  0  0  0  0  0  0  0  0  0  0
   29.7382  -20.7037  -10.1442 C   0  0  0  0  0  0  0  0  0  0  0  0
   28.7166  -21.2755  -11.0694 C   0  0  0  0  0  0  0  0  0  0  0  0
   27.3615  -20.6495  -10.9820 C   0  0  2  0  0  0  0  0  0  0  0  0
   26.6413  -21.2024   -9.7642 C   0  0  0  0  0  0  0  0  0  0  0  0
   26.4819  -20.9346  -12.1907 C   0  0  2  0  0  0  0  0  0  0  0  0
   27.0684  -20.4148  -13.3957 N   0  0  0  0  0  0  0  0  0  0  0  0
   25.2116  -20.2091  -11.9396 C   0  0  0  0  0  0  0  0  0  0  0  0
   25.1886  -18.9741  -11.6725 O   0  0  0  0  0  0  0  0  0  0  0  0
   23.9982  -20.9364  -12.0059 N   0  0  0  0  0  0  0  0  0  0  0  0
   22.7994  -20.3649  -12.6381 C   0  0  1  0  0  0  0  0  0  0  0  0
   23.2551  -19.9580  -14.0098 C   0  0  0  0  0  0  0  0  0  0  0  0
   22.1630  -19.4182  -14.8208 C   0  0  0  0  0  0  0  0  0  0  0  0
   20.9674  -18.8394  -14.3533 C   0  0  0  0  0  0  0  0  0  0  0  0
   20.1893  -18.4913  -15.3741 N   0  0  0  0  0  0  0  0  0  0  0  0
   20.8314  -18.8197  -16.4929 C   0  0  0  0  0  0  0  0  0  0  0  0
   20.4718  -18.6557  -17.8065 C   0  0  0  0  0  0  0  0  0  0  0  0
   21.2920  -19.0445  -18.8202 C   0  0  0  0  0  0  0  0  0  0  0  0
   22.5274  -19.6236  -18.5432 C   0  0  0  0  0  0  0  0  0  0  0  0
   22.8889  -19.7893  -17.2273 C   0  0  0  0  0  0  0  0  0  0  0  0
   22.0653  -19.3997  -16.1866 C   0  0  0  0  0  0  0  0  0  0  0  0
   21.7251  -21.3490  -12.6259 C   0  0  0  0  0  0  0  0  0  0  0  0
   21.9633  -22.6576  -12.9878 O   0  0  0  0  0  0  0  0  0  0  0  0
   20.5665  -21.0172  -12.2910 O   0  0  0  0  0  0  0  0  0  0  0  0
  1  2  1  0
  2  3  2  0
  2  4  1  0
  4  5  1  0
  6  5  1  0
  6  7  1  6
  8  9  2  0
  8  6  1  0
 10 11  1  0
 11 12  1  0
 12 14  1  0
 12 13  1  1
 14 15  1  6
 15  8  1  0
 16 18  1  0
 16 14  1  0
 17 16  2  0
 19 30  1  0
 19 18  1  0
 20 21  1  0
 19 20  1  6
 21 22  2  0
 21 29  1  0
 22 23  1  0
 23 24  1  0
 24 25  2  0
 25 26  1  0
 27 26  2  0
 28 27  1  0
 29 28  2  0
 29 24  1  0
 30 31  1  0
 32 30  2  0
M  END
$$$$
