QIW.pdb
     RDKit          3D

 32 33  0  0  1  0  0  0  0  0999 V2000
   20.2282  -15.6437  -14.7949 N   0  0  0  0  0  0  0  0  0  0  0  0
   20.8529  -15.5537  -16.0614 C   0  0  0  0  0  0  0  0  0  0  0  0
   20.5190  -14.6172  -16.8074 O   0  0  0  0  0  0  0  0  0  0  0  0
   21.8717  -16.5228  -16.5161 C   0  0  0  0  0  0  0  0  0  0  0  0
   22.2319  -17.5759  -15.5411 C   0  0  0  0  0  0  0  0  0  0  0  0
   22.3480  -18.9669  -16.0588 C   0  0  2  0  0  0  0  0  0  0  0  0
   21.0926  -19.4274  -16.6527 N   0  0  0  0  0  0  0  0  0  0  0  0
   22.7933  -19.8982  -15.0060 C   0  0  0  0  0  0  0  0  0  0  0  0
   21.9494  -20.3099  -14.1733 O   0  0  0  0  0  0  0  0  0  0  0  0
   25.1411  -24.3789  -16.1717 C   0  0  0  0  0  0  0  0  0  0  0  0
   24.4243  -23.2599  -15.4929 C   0  0  0  0  0  0  0  0  0  0  0  0
   25.2428  -22.4885  -14.5075 C   0  0  2  0  0  0  0  0  0  0  0  0
   25.6276  -23.4073  -13.3607 C   0  0  0  0  0  0  0  0  0  0  0  0
   24.5061  -21.3018  -13.9033 C   0  0  2  0  0  0  0  0  0  0  0  0
   24.1526  -20.3402  -14.9115 N   0  0  0  0  0  0  0  0  0  0  0  0
   25.4702  -20.6667  -12.9706 C   0  0  0  0  0  0  0  0  0  0  0  0
   26.4243  -19.9476  -13.3826 O   0  0  0  0  0  0  0  0  0  0  0  0
   25.3018  -20.8819  -11.5810 N   0  0  0  0  0  0  0  0  0  0  0  0
   26.2775  -20.3717  -10.6059 C   0  0  1  0  0  0  0  0  0  0  0  0
   25.4404  -19.7400   -9.5311 C   0  0  0  0  0  0  0  0  0  0  0  0
   26.2527  -19.1899   -8.4453 C   0  0  0  0  0  0  0  0  0  0  0  0
   26.7421  -17.8739   -8.3370 C   0  0  0  0  0  0  0  0  0  0  0  0
   27.4734  -17.7391   -7.2344 N   0  0  0  0  0  0  0  0  0  0  0  0
   27.4804  -18.9179   -6.6160 C   0  0  0  0  0  0  0  0  0  0  0  0
   28.0693  -19.3015   -5.4379 C   0  0  0  0  0  0  0  0  0  0  0  0
   27.9371  -20.5681   -4.9585 C   0  0  0  0  0  0  0  0  0  0  0  0
   27.1932  -21.5125   -5.6608 C   0  0  0  0  0  0  0  0  0  0  0  0
   26.6031  -21.1297   -6.8420 C   0  0  0  0  0  0  0  0  0  0  0  0
   26.7295  -19.8462   -7.3420 C   0  0  0  0  0  0  0  0  0  0  0  0
   27.1257  -21.4638  -10.1470 C   0  0  0  0  0  0  0  0  0  0  0  0
   28.4585  -21.2515   -9.8665 O   0  0  0  0  0  0  0  0  0  0  0  0
   26.6556  -22.6143  -10.0062 O   0  0  0  0  0  0  0  0  0  0  0  0
  1  2  1  0
  2  3  2  0
  2  4  1  0
  4  5  1  0
  6  5  1  0
  6  7  1  1
  8  9  2  0
  8  6  1  0
 10 11  1  0
 11 12  1  0
 12 14  1  0
 12 13  1  1
 14 15  1  6
 15  8  1  0
 16 18  1  0
 16 14  1  0
 17 16  2  0
 19 30  1  0
 19 18  1  0
 20 21  1  0
 19 20  1  1
 21 22  2  0
 21 29  1  0
 22 23  1  0
 23 24  1  0
 24 25  2  0
 25 26  1  0
 27 26  2  0
 28 27  1  0
 29 28  2  0
 29 24  1  0
 30 31  1  0
 32 30  2  0
M  END
$$$$
