QIW.pdb
     RDKit          3D

 32 33  0  0  1  0  0  0  0  0999 V2000
   26.1880  -24.3641  -16.0962 N   0  0  0  0  0  0  0  0  0  0  0  0
   27.2614  -23.8840  -16.8834 C   0  0  0  0  0  0  0  0  0  0  0  0
   27.7316  -24.6437  -17.7477 O   0  0  0  0  0  0  0  0  0  0  0  0
   27.8306  -22.5312  -16.7115 C   0  0  0  0  0  0  0  0  0  0  0  0
   27.2319  -21.7190  -15.6292 C   0  0  0  0  0  0  0  0  0  0  0  0
   26.0111  -20.9365  -15.9660 C   0  0  2  0  0  0  0  0  0  0  0  0
   26.2932  -19.8979  -16.9573 N   0  0  0  0  0  0  0  0  0  0  0  0
   25.3992  -20.3472  -14.7608 C   0  0  0  0  0  0  0  0  0  0  0  0
   25.7352  -19.1859  -14.4242 O   0  0  0  0  0  0  0  0  0  0  0  0
   20.5189  -20.8780  -14.0859 C   0  0  0  0  0  0  0  0  0  0  0  0
   21.5884  -20.0453  -13.4617 C   0  0  0  0  0  0  0  0  0  0  0  0
   22.4941  -20.7767  -12.5232 C   0  0  2  0  0  0  0  0  0  0  0  0
   22.1642  -20.3644  -11.0989 C   0  0  0  0  0  0  0  0  0  0  0  0
   23.9694  -20.4771  -12.7462 C   0  0  2  0  0  0  0  0  0  0  0  0
   24.4397  -21.0614  -13.9724 N   0  0  0  0  0  0  0  0  0  0  0  0
   24.6830  -21.1247  -11.6173 C   0  0  0  0  0  0  0  0  0  0  0  0
   24.6388  -22.3732  -11.4265 O   0  0  0  0  0  0  0  0  0  0  0  0
   25.4316  -20.3054  -10.7375 N   0  0  0  0  0  0  0  0  0  0  0  0
   26.1456  -20.8761   -9.5851 C   0  0  1  0  0  0  0  0  0  0  0  0
   27.1490  -19.8252   -9.2061 C   0  0  0  0  0  0  0  0  0  0  0  0
   28.0551  -20.2773   -8.1496 C   0  0  0  0  0  0  0  0  0  0  0  0
   28.8786  -21.4194   -8.1719 C   0  0  0  0  0  0  0  0  0  0  0  0
   29.5407  -21.5377   -7.0246 N   0  0  0  0  0  0  0  0  0  0  0  0
   29.1819  -20.5148   -6.2520 C   0  0  0  0  0  0  0  0  0  0  0  0
   29.5883  -20.1684   -4.9883 C   0  0  0  0  0  0  0  0  0  0  0  0
   29.1113  -19.0538   -4.3705 C   0  0  0  0  0  0  0  0  0  0  0  0
   28.1905  -18.2317   -5.0145 C   0  0  0  0  0  0  0  0  0  0  0  0
   27.7818  -18.5779   -6.2806 C   0  0  0  0  0  0  0  0  0  0  0  0
   28.2573  -19.7082   -6.9205 C   0  0  0  0  0  0  0  0  0  0  0  0
   25.1915  -21.2068   -8.5348 C   0  0  0  0  0  0  0  0  0  0  0  0
   25.3698  -22.3234   -7.7463 O   0  0  0  0  0  0  0  0  0  0  0  0
   24.1911  -20.4825   -8.3373 O   0  0  0  0  0  0  0  0  0  0  0  0
  1  2  1  0
  2  3  2  0
  2  4  1  0
  4  5  1  0
  6  5  1  0
  6  7  1  6
  8  9  2  0
  8  6  1  0
 10 11  1  0
 11 12  1  0
 12 14  1  0
 12 13  1  1
 14 15  1  6
 15  8  1  0
 16 18  1  0
 16 14  1  0
 17 16  2  0
 19 30  1  0
 19 18  1  0
 20 21  1  0
 19 20  1  1
 21 22  2  0
 21 29  1  0
 22 23  1  0
 23 24  1  0
 24 25  2  0
 25 26  1  0
 27 26  2  0
 28 27  1  0
 29 28  2  0
 29 24  1  0
 30 31  1  0
 32 30  2  0
M  END
$$$$
