QIW.pdb
     RDKit          3D

 32 33  0  0  1  0  0  0  0  0999 V2000
   27.9369  -16.6522  -15.6251 N   0  0  0  0  0  0  0  0  0  0  0  0
   27.7474  -17.0291  -16.9757 C   0  0  0  0  0  0  0  0  0  0  0  0
   28.2762  -16.3257  -17.8536 O   0  0  0  0  0  0  0  0  0  0  0  0
   26.9532  -18.2123  -17.3671 C   0  0  0  0  0  0  0  0  0  0  0  0
   26.5110  -19.0815  -16.2543 C   0  0  0  0  0  0  0  0  0  0  0  0
   27.4330  -20.1751  -15.8418 C   0  0  2  0  0  0  0  0  0  0  0  0
   27.5808  -21.1810  -16.8940 N   0  0  0  0  0  0  0  0  0  0  0  0
   26.9927  -20.8051  -14.5834 C   0  0  0  0  0  0  0  0  0  0  0  0
   26.2579  -21.8206  -14.6462 O   0  0  0  0  0  0  0  0  0  0  0  0
   30.3341  -21.1852  -10.4057 C   0  0  0  0  0  0  0  0  0  0  0  0
   29.2304  -21.4499  -11.3743 C   0  0  0  0  0  0  0  0  0  0  0  0
   27.9013  -20.8816  -10.9914 C   0  0  2  0  0  0  0  0  0  0  0  0
   27.3340  -21.6904   -9.8374 C   0  0  0  0  0  0  0  0  0  0  0  0
   26.8761  -20.9242  -12.1153 C   0  0  2  0  0  0  0  0  0  0  0  0
   27.3797  -20.2912  -13.3035 N   0  0  0  0  0  0  0  0  0  0  0  0
   25.7147  -20.1403  -11.6256 C   0  0  0  0  0  0  0  0  0  0  0  0
   25.7798  -18.8914  -11.4442 O   0  0  0  0  0  0  0  0  0  0  0  0
   24.5051  -20.8270  -11.3594 N   0  0  0  0  0  0  0  0  0  0  0  0
   23.3006  -20.1078  -10.9176 C   0  0  1  0  0  0  0  0  0  0  0  0
   22.9703  -19.1901  -12.0594 C   0  0  0  0  0  0  0  0  0  0  0  0
   22.2834  -19.8842  -13.1494 C   0  0  0  0  0  0  0  0  0  0  0  0
   21.1179  -20.6685  -13.0523 C   0  0  0  0  0  0  0  0  0  0  0  0
   20.7975  -21.1742  -14.2399 N   0  0  0  0  0  0  0  0  0  0  0  0
   21.7096  -20.7495  -15.1114 C   0  0  0  0  0  0  0  0  0  0  0  0
   21.8222  -20.9702  -16.4607 C   0  0  0  0  0  0  0  0  0  0  0  0
   22.8316  -20.4188  -17.1877 C   0  0  0  0  0  0  0  0  0  0  0  0
   23.7825  -19.6098  -16.5713 C   0  0  0  0  0  0  0  0  0  0  0  0
   23.6714  -19.3883  -15.2191 C   0  0  0  0  0  0  0  0  0  0  0  0
   22.6514  -19.9428  -14.4672 C   0  0  0  0  0  0  0  0  0  0  0  0
   22.2527  -21.0657  -10.5903 C   0  0  0  0  0  0  0  0  0  0  0  0
   22.4113  -22.4066  -10.8678 O   0  0  0  0  0  0  0  0  0  0  0  0
   21.1888  -20.6822  -10.0560 O   0  0  0  0  0  0  0  0  0  0  0  0
  1  2  1  0
  2  3  2  0
  2  4  1  0
  4  5  1  0
  6  5  1  0
  6  7  1  6
  8  9  2  0
  8  6  1  0
 10 11  1  0
 11 12  1  0
 12 14  1  0
 12 13  1  1
 14 15  1  6
 15  8  1  0
 16 18  1  0
 16 14  1  0
 17 16  2  0
 19 30  1  0
 19 18  1  0
 20 21  1  0
 19 20  1  6
 21 22  2  0
 21 29  1  0
 22 23  1  0
 23 24  1  0
 24 25  2  0
 25 26  1  0
 27 26  2  0
 28 27  1  0
 29 28  2  0
 29 24  1  0
 30 31  1  0
 32 30  2  0
M  END
$$$$
