QIW.pdb
     RDKit          3D

 32 33  0  0  1  0  0  0  0  0999 V2000
   28.5441  -21.5675  -14.2470 N   0  0  0  0  0  0  0  0  0  0  0  0
   28.2992  -21.3565  -15.6246 C   0  0  0  0  0  0  0  0  0  0  0  0
   28.1764  -22.3573  -16.3515 O   0  0  0  0  0  0  0  0  0  0  0  0
   28.1878  -20.0063  -16.2147 C   0  0  0  0  0  0  0  0  0  0  0  0
   27.2971  -19.0672  -15.4976 C   0  0  0  0  0  0  0  0  0  0  0  0
   25.8326  -19.2245  -15.7135 C   0  0  2  0  0  0  0  0  0  0  0  0
   25.3129  -18.2170  -16.6385 N   0  0  0  0  0  0  0  0  0  0  0  0
   25.0927  -19.1853  -14.4386 C   0  0  0  0  0  0  0  0  0  0  0  0
   24.8341  -18.0678  -13.9294 O   0  0  0  0  0  0  0  0  0  0  0  0
   20.3950  -21.2098  -13.6785 C   0  0  0  0  0  0  0  0  0  0  0  0
   21.6904  -20.4762  -13.5762 C   0  0  0  0  0  0  0  0  0  0  0  0
   22.6444  -21.0139  -12.5581 C   0  0  2  0  0  0  0  0  0  0  0  0
   22.0188  -20.8836  -11.1800 C   0  0  0  0  0  0  0  0  0  0  0  0
   23.9727  -20.2722  -12.5193 C   0  0  2  0  0  0  0  0  0  0  0  0
   24.6661  -20.3803  -13.7737 N   0  0  0  0  0  0  0  0  0  0  0  0
   24.7811  -20.9559  -11.4791 C   0  0  0  0  0  0  0  0  0  0  0  0
   25.0068  -22.1987  -11.5174 O   0  0  0  0  0  0  0  0  0  0  0  0
   25.3085  -20.1783  -10.4195 N   0  0  0  0  0  0  0  0  0  0  0  0
   26.0979  -20.7929   -9.3413 C   0  0  1  0  0  0  0  0  0  0  0  0
   27.1987  -19.8076   -9.0722 C   0  0  0  0  0  0  0  0  0  0  0  0
   28.0931  -20.2521   -8.0026 C   0  0  0  0  0  0  0  0  0  0  0  0
   29.0426  -21.2899   -8.0696 C   0  0  0  0  0  0  0  0  0  0  0  0
   29.6517  -21.4391   -6.8967 N   0  0  0  0  0  0  0  0  0  0  0  0
   29.1370  -20.5368   -6.0644 C   0  0  0  0  0  0  0  0  0  0  0  0
   29.4328  -20.2648   -4.7527 C   0  0  0  0  0  0  0  0  0  0  0  0
   28.7984  -19.2705   -4.0741 C   0  0  0  0  0  0  0  0  0  0  0  0
   27.8248  -18.4992   -4.7031 C   0  0  0  0  0  0  0  0  0  0  0  0
   27.5268  -18.7710   -6.0173 C   0  0  0  0  0  0  0  0  0  0  0  0
   28.1626  -19.7790   -6.7194 C   0  0  0  0  0  0  0  0  0  0  0  0
   25.2359  -21.0626   -8.1981 C   0  0  0  0  0  0  0  0  0  0  0  0
   25.5214  -22.0921   -7.3270 O   0  0  0  0  0  0  0  0  0  0  0  0
   24.2184  -20.3645   -7.9939 O   0  0  0  0  0  0  0  0  0  0  0  0
  1  2  1  0
  2  3  2  0
  2  4  1  0
  4  5  1  0
  6  5  1  0
  6  7  1  6
  8  9  2  0
  8  6  1  0
 10 11  1  0
 11 12  1  0
 12 14  1  0
 12 13  1  1
 14 15  1  6
 15  8  1  0
 16 18  1  0
 16 14  1  0
 17 16  2  0
 19 30  1  0
 19 18  1  0
 20 21  1  0
 19 20  1  1
 21 22  2  0
 21 29  1  0
 22 23  1  0
 23 24  1  0
 24 25  2  0
 25 26  1  0
 27 26  2  0
 28 27  1  0
 29 28  2  0
 29 24  1  0
 30 31  1  0
 32 30  2  0
M  END
$$$$
