RQW.pdb
     RDKit          3D

 35 36  0  0  1  0  0  0  0  0999 V2000
   30.8763  -24.6354  -16.4387 N   0  0  0  0  0  0  0  0  0  0  0  0
   31.2207  -24.3123  -17.7687 C   0  0  0  0  0  0  0  0  0  0  0  0
   31.8612  -25.1925  -18.4928 N   0  0  0  0  0  0  0  0  0  0  0  0
   30.9141  -23.0756  -18.3806 N   0  0  0  0  0  0  0  0  0  0  0  0
   29.9257  -22.1614  -17.8975 C   0  0  0  0  0  0  0  0  0  0  0  0
   28.5059  -22.5345  -18.2215 C   0  0  0  0  0  0  0  0  0  0  0  0
   27.6325  -22.6975  -17.0159 C   0  0  0  0  0  0  0  0  0  0  0  0
   27.1144  -21.3795  -16.4665 C   0  0  2  0  0  0  0  0  0  0  0  0
   28.2947  -20.4983  -16.2598 N   0  0  0  0  0  0  0  0  0  0  0  0
   26.4489  -21.4901  -15.1679 C   0  0  0  0  0  0  0  0  0  0  0  0
   25.3944  -22.2106  -15.1106 O   0  0  0  0  0  0  0  0  0  0  0  0
   32.2698  -24.9198  -19.4043 N   0  0  0  0  0  0  0  0  0  0  0  0
   24.2982  -21.6995   -9.5248 C   0  0  0  0  0  0  0  0  0  0  0  0
   25.1514  -20.6282   -9.8482 O   0  0  0  0  0  0  0  0  0  0  0  0
   24.7576  -19.4515   -9.7033 C   0  0  0  0  0  0  0  0  0  0  0  0
   26.5394  -20.8943  -10.3694 C   0  0  0  0  0  0  0  0  0  0  0  0
   26.7475  -20.2259  -11.6807 C   0  0  2  0  0  0  0  0  0  0  0  0
   25.9850  -20.8399  -12.8406 N   0  0  0  0  0  0  0  0  0  0  0  0
   26.8879  -20.8569  -13.9533 C   0  0  0  0  0  0  0  0  0  0  0  0
   24.7058  -20.1368  -13.0922 O   0  0  0  0  0  0  0  0  0  0  0  0
   24.7570  -18.8752  -13.1660 N   0  0  0  0  0  0  0  0  0  0  0  0
   23.4658  -20.7473  -13.2530 C   0  0  1  0  0  0  0  0  0  0  0  0
   22.2404  -20.1772  -13.6346 C   0  0  0  0  0  0  0  0  0  0  0  0
   22.2635  -19.1614  -14.7627 C   0  0  0  0  0  0  0  0  0  0  0  0
   20.8939  -18.8415  -15.2210 C   0  0  0  0  0  0  0  0  0  0  0  0
   19.7937  -18.4758  -14.4618 N   0  0  0  0  0  0  0  0  0  0  0  0
   18.7430  -18.2915  -15.2795 C   0  0  0  0  0  0  0  0  0  0  0  0
   19.1193  -18.5271  -16.5720 C   0  0  0  0  0  0  0  0  0  0  0  0
   18.3997  -18.4679  -17.7447 C   0  0  0  0  0  0  0  0  0  0  0  0
   19.0130  -18.7574  -18.9441 C   0  0  0  0  0  0  0  0  0  0  0  0
   20.3409  -19.1003  -18.9321 C   0  0  0  0  0  0  0  0  0  0  0  0
   21.0433  -19.1542  -17.7574 C   0  0  0  0  0  0  0  0  0  0  0  0
   20.4611  -18.8686  -16.5208 C   0  0  0  0  0  0  0  0  0  0  0  0
   21.1681  -21.1329  -13.8816 O   0  0  0  0  0  0  0  0  0  0  0  0
   21.4644  -22.4080  -14.3564 O   0  0  0  0  0  0  0  0  0  0  0  0
  2  1  1  0
  3  2  2  0
  4  2  1  0
  5  4  1  0
  6  5  1  0
  7  6  1  0
  8  9  1  1
  8 10  1  0
  8  7  1  0
 10 18  1  0
 10 11  2  0
 13 12  1  0
 13 14  2  0
 15 16  1  0
 15 13  1  0
 17 16  1  1
 17 19  1  0
 18 17  1  0
 19 20  2  0
 19 21  1  0
 21 22  1  0
 22 33  1  0
 22 23  1  1
 24 25  2  0
 24 23  1  0
 26 25  1  0
 27 32  2  0
 27 26  1  0
 28 27  1  0
 29 30  1  0
 29 28  2  0
 30 31  2  0
 31 32  1  0
 32 24  1  0
 33 34  1  0
 35 33  2  0
M  END
$$$$
