RQW.pdb
     RDKit          3D

 35 36  0  0  1  0  0  0  0  0999 V2000
   15.6849  -19.7958  -16.3410 N   0  0  0  0  0  0  0  0  0  0  0  0
   14.9396  -20.0380  -15.1670 C   0  0  0  0  0  0  0  0  0  0  0  0
   13.6344  -19.9840  -15.2184 N   0  0  0  0  0  0  0  0  0  0  0  0
   15.5229  -20.3394  -13.9152 N   0  0  0  0  0  0  0  0  0  0  0  0
   16.8877  -20.7279  -13.7356 C   0  0  0  0  0  0  0  0  0  0  0  0
   17.2122  -22.1260  -14.1829 C   0  0  0  0  0  0  0  0  0  0  0  0
   18.6175  -22.5472  -13.8819 C   0  0  0  0  0  0  0  0  0  0  0  0
   19.6477  -21.4794  -14.2071 C   0  0  2  0  0  0  0  0  0  0  0  0
   19.4322  -21.0817  -15.6241 N   0  0  0  0  0  0  0  0  0  0  0  0
   21.0353  -21.9346  -14.1122 C   0  0  0  0  0  0  0  0  0  0  0  0
   21.4426  -22.3348  -12.9684 O   0  0  0  0  0  0  0  0  0  0  0  0
   13.0723  -20.1293  -14.3610 N   0  0  0  0  0  0  0  0  0  0  0  0
   25.8810  -24.9315  -15.7745 C   0  0  0  0  0  0  0  0  0  0  0  0
   24.6234  -25.5623  -15.7486 O   0  0  0  0  0  0  0  0  0  0  0  0
   24.5457  -26.7904  -15.5330 C   0  0  0  0  0  0  0  0  0  0  0  0
   23.3683  -24.7621  -15.9802 C   0  0  0  0  0  0  0  0  0  0  0  0
   23.6835  -23.3164  -16.1226 C   0  0  2  0  0  0  0  0  0  0  0  0
   23.2952  -22.4561  -14.9340 N   0  0  0  0  0  0  0  0  0  0  0  0
   21.9737  -21.9706  -15.2017 C   0  0  0  0  0  0  0  0  0  0  0  0
   24.2998  -21.4012  -14.6664 O   0  0  0  0  0  0  0  0  0  0  0  0
   24.0870  -20.2695  -15.1896 N   0  0  0  0  0  0  0  0  0  0  0  0
   25.4462  -21.5542  -13.8928 C   0  0  1  0  0  0  0  0  0  0  0  0
   26.4977  -20.6483  -13.6783 C   0  0  0  0  0  0  0  0  0  0  0  0
   26.5285  -19.9154  -12.3492 C   0  0  0  0  0  0  0  0  0  0  0  0
   27.7184  -20.2962  -11.5570 C   0  0  0  0  0  0  0  0  0  0  0  0
   29.0372  -20.3899  -11.9724 N   0  0  0  0  0  0  0  0  0  0  0  0
   29.7933  -20.7842  -10.9335 C   0  0  0  0  0  0  0  0  0  0  0  0
   29.0052  -20.9563   -9.8303 C   0  0  0  0  0  0  0  0  0  0  0  0
   29.3226  -21.3487   -8.5489 C   0  0  0  0  0  0  0  0  0  0  0  0
   28.3330  -21.4522   -7.5958 C   0  0  0  0  0  0  0  0  0  0  0  0
   27.0438  -21.1563   -7.9584 C   0  0  0  0  0  0  0  0  0  0  0  0
   26.7441  -20.7668   -9.2369 C   0  0  0  0  0  0  0  0  0  0  0  0
   27.7156  -20.6490  -10.2330 C   0  0  0  0  0  0  0  0  0  0  0  0
   27.8282  -21.1730  -13.9591 O   0  0  0  0  0  0  0  0  0  0  0  0
   28.9098  -20.3047  -14.0826 O   0  0  0  0  0  0  0  0  0  0  0  0
  2  1  1  0
  3  2  2  0
  4  2  1  0
  5  4  1  0
  6  5  1  0
  7  6  1  0
  8  9  1  6
  8 10  1  0
  8  7  1  0
 10 18  1  0
 10 11  2  0
 13 12  1  0
 13 14  2  0
 15 16  1  0
 15 13  1  0
 17 16  1  1
 17 19  1  0
 18 17  1  0
 19 20  2  0
 19 21  1  0
 21 22  1  0
 22 33  1  0
 22 23  1  6
 24 25  2  0
 24 23  1  0
 26 25  1  0
 27 32  2  0
 27 26  1  0
 28 27  1  0
 29 30  1  0
 29 28  2  0
 30 31  2  0
 31 32  1  0
 32 24  1  0
 33 34  1  0
 35 33  2  0
M  END
$$$$
