RQW.pdb
     RDKit          3D

 35 36  0  0  1  0  0  0  0  0999 V2000
   17.5436  -16.6488  -15.9344 N   0  0  0  0  0  0  0  0  0  0  0  0
   18.7342  -16.8973  -16.6506 C   0  0  0  0  0  0  0  0  0  0  0  0
   19.0222  -16.1529  -17.6860 N   0  0  0  0  0  0  0  0  0  0  0  0
   19.6526  -17.9185  -16.3163 N   0  0  0  0  0  0  0  0  0  0  0  0
   19.4569  -18.8631  -15.2601 C   0  0  0  0  0  0  0  0  0  0  0  0
   19.3353  -18.2620  -13.8876 C   0  0  0  0  0  0  0  0  0  0  0  0
   20.4017  -18.7072  -12.9349 C   0  0  0  0  0  0  0  0  0  0  0  0
   20.4974  -20.2174  -12.8030 C   0  0  2  0  0  0  0  0  0  0  0  0
   20.1353  -20.5572  -11.4009 N   0  0  0  0  0  0  0  0  0  0  0  0
   21.8399  -20.7560  -13.0251 C   0  0  0  0  0  0  0  0  0  0  0  0
   22.7215  -20.5163  -12.1309 O   0  0  0  0  0  0  0  0  0  0  0  0
   19.8548  -16.3637  -18.2644 N   0  0  0  0  0  0  0  0  0  0  0  0
   24.1113  -25.5698  -14.1945 C   0  0  0  0  0  0  0  0  0  0  0  0
   25.1957  -24.9708  -14.8618 O   0  0  0  0  0  0  0  0  0  0  0  0
   26.2920  -25.5658  -14.9299 C   0  0  0  0  0  0  0  0  0  0  0  0
   25.0403  -23.6130  -15.4954 C   0  0  0  0  0  0  0  0  0  0  0  0
   23.6800  -23.0677  -15.2467 C   0  0  2  0  0  0  0  0  0  0  0  0
   23.6233  -21.9100  -14.2668 N   0  0  0  0  0  0  0  0  0  0  0  0
   22.2441  -21.5344  -14.1651 C   0  0  0  0  0  0  0  0  0  0  0  0
   24.5367  -20.8118  -14.6587 O   0  0  0  0  0  0  0  0  0  0  0  0
   24.0046  -19.6894  -14.8966 N   0  0  0  0  0  0  0  0  0  0  0  0
   25.9187  -20.9155  -14.7837 C   0  0  1  0  0  0  0  0  0  0  0  0
   26.8698  -19.8996  -14.9729 C   0  0  0  0  0  0  0  0  0  0  0  0
   27.2149  -19.0336  -13.7748 C   0  0  0  0  0  0  0  0  0  0  0  0
   27.8310  -19.8363  -12.6957 C   0  0  0  0  0  0  0  0  0  0  0  0
   29.0400  -20.5137  -12.7075 N   0  0  0  0  0  0  0  0  0  0  0  0
   29.2066  -21.1264  -11.5228 C   0  0  0  0  0  0  0  0  0  0  0  0
   28.1317  -20.8718  -10.7181 C   0  0  0  0  0  0  0  0  0  0  0  0
   27.8525  -21.2789   -9.4325 C   0  0  0  0  0  0  0  0  0  0  0  0
   26.6798  -20.8857   -8.8254 C   0  0  0  0  0  0  0  0  0  0  0  0
   25.8146  -20.0892   -9.5310 C   0  0  0  0  0  0  0  0  0  0  0  0
   26.1067  -19.6922  -10.8090 C   0  0  0  0  0  0  0  0  0  0  0  0
   27.2830  -20.0674  -11.4613 C   0  0  0  0  0  0  0  0  0  0  0  0
   28.1048  -20.3263  -15.6186 O   0  0  0  0  0  0  0  0  0  0  0  0
   28.3336  -21.6776  -15.8648 O   0  0  0  0  0  0  0  0  0  0  0  0
  2  1  1  0
  3  2  2  0
  4  2  1  0
  5  4  1  0
  6  5  1  0
  7  6  1  0
  8  9  1  1
  8 10  1  0
  8  7  1  0
 10 18  1  0
 10 11  2  0
 13 12  1  0
 13 14  2  0
 15 16  1  0
 15 13  1  0
 17 16  1  1
 17 19  1  0
 18 17  1  0
 19 20  2  0
 19 21  1  0
 21 22  1  0
 22 33  1  0
 22 23  1  6
 24 25  2  0
 24 23  1  0
 26 25  1  0
 27 32  2  0
 27 26  1  0
 28 27  1  0
 29 30  1  0
 29 28  2  0
 30 31  2  0
 31 32  1  0
 32 24  1  0
 33 34  1  0
 35 33  2  0
M  END
$$$$
