RQW.pdb
     RDKit          3D

 35 36  0  0  1  0  0  0  0  0999 V2000
   17.1611  -23.8121  -15.8158 N   0  0  0  0  0  0  0  0  0  0  0  0
   16.5305  -22.5510  -15.7528 C   0  0  0  0  0  0  0  0  0  0  0  0
   15.7521  -22.1780  -16.7348 N   0  0  0  0  0  0  0  0  0  0  0  0
   16.6892  -21.6468  -14.6779 N   0  0  0  0  0  0  0  0  0  0  0  0
   17.5122  -21.8925  -13.5341 C   0  0  0  0  0  0  0  0  0  0  0  0
   18.6276  -20.9050  -13.3327 C   0  0  0  0  0  0  0  0  0  0  0  0
   19.9096  -21.5257  -12.8700 C   0  0  0  0  0  0  0  0  0  0  0  0
   20.9683  -21.5995  -13.9568 C   0  0  2  0  0  0  0  0  0  0  0  0
   20.5789  -22.7059  -14.8714 N   0  0  0  0  0  0  0  0  0  0  0  0
   22.3098  -21.9202  -13.4679 C   0  0  0  0  0  0  0  0  0  0  0  0
   22.4242  -22.9322  -12.6952 O   0  0  0  0  0  0  0  0  0  0  0  0
   15.2289  -21.2865  -16.6757 N   0  0  0  0  0  0  0  0  0  0  0  0
   27.8261  -20.3405  -15.6297 C   0  0  0  0  0  0  0  0  0  0  0  0
   28.1870  -21.2879  -14.6537 O   0  0  0  0  0  0  0  0  0  0  0  0
   29.3916  -21.4728  -14.3793 C   0  0  0  0  0  0  0  0  0  0  0  0
   27.1256  -22.0813  -13.9375 C   0  0  0  0  0  0  0  0  0  0  0  0
   25.7680  -21.6181  -14.3272 C   0  0  2  0  0  0  0  0  0  0  0  0
   24.7402  -21.6356  -13.2105 N   0  0  0  0  0  0  0  0  0  0  0  0
   23.5071  -21.1911  -13.7898 C   0  0  0  0  0  0  0  0  0  0  0  0
   25.1899  -20.8530  -12.0361 O   0  0  0  0  0  0  0  0  0  0  0  0
   25.0119  -19.6019  -12.0863 N   0  0  0  0  0  0  0  0  0  0  0  0
   25.7854  -21.3793  -10.8939 C   0  0  1  0  0  0  0  0  0  0  0  0
   26.4626  -20.7121   -9.8602 C   0  0  0  0  0  0  0  0  0  0  0  0
   26.0484  -21.0295   -8.4346 C   0  0  0  0  0  0  0  0  0  0  0  0
   26.6838  -20.1006   -7.4746 C   0  0  0  0  0  0  0  0  0  0  0  0
   26.5451  -18.7245   -7.3854 N   0  0  0  0  0  0  0  0  0  0  0  0
   27.3127  -18.2746   -6.3780 C   0  0  0  0  0  0  0  0  0  0  0  0
   27.9628  -19.3238   -5.7911 C   0  0  0  0  0  0  0  0  0  0  0  0
   28.8471  -19.3590   -4.7359 C   0  0  0  0  0  0  0  0  0  0  0  0
   29.3790  -20.5612   -4.3236 C   0  0  0  0  0  0  0  0  0  0  0  0
   29.0054  -21.7022   -4.9867 C   0  0  0  0  0  0  0  0  0  0  0  0
   28.1243  -21.6509   -6.0342 C   0  0  0  0  0  0  0  0  0  0  0  0
   27.5618  -20.4546   -6.4841 C   0  0  0  0  0  0  0  0  0  0  0  0
   27.9167  -20.7547   -9.9500 O   0  0  0  0  0  0  0  0  0  0  0  0
   28.5694  -21.9695  -10.1426 O   0  0  0  0  0  0  0  0  0  0  0  0
  2  1  1  0
  3  2  2  0
  4  2  1  0
  5  4  1  0
  6  5  1  0
  7  6  1  0
  8  9  1  6
  8 10  1  0
  8  7  1  0
 10 18  1  0
 10 11  2  0
 13 12  1  0
 13 14  2  0
 15 16  1  0
 15 13  1  0
 17 16  1  6
 17 19  1  0
 18 17  1  0
 19 20  2  0
 19 21  1  0
 21 22  1  0
 22 33  1  0
 22 23  1  6
 24 25  2  0
 24 23  1  0
 26 25  1  0
 27 32  2  0
 27 26  1  0
 28 27  1  0
 29 30  1  0
 29 28  2  0
 30 31  2  0
 31 32  1  0
 32 24  1  0
 33 34  1  0
 35 33  2  0
M  END
$$$$
