RQW.pdb
     RDKit          3D

 35 36  0  0  1  0  0  0  0  0999 V2000
   30.2545  -21.7199  -16.5056 N   0  0  0  0  0  0  0  0  0  0  0  0
   28.9385  -22.2115  -16.3694 C   0  0  0  0  0  0  0  0  0  0  0  0
   28.7528  -23.4057  -15.8709 N   0  0  0  0  0  0  0  0  0  0  0  0
   27.7862  -21.4841  -16.7451 N   0  0  0  0  0  0  0  0  0  0  0  0
   27.7463  -20.0627  -16.8997 C   0  0  0  0  0  0  0  0  0  0  0  0
   28.3752  -19.2857  -15.7770 C   0  0  0  0  0  0  0  0  0  0  0  0
   27.5630  -18.1120  -15.3236 C   0  0  0  0  0  0  0  0  0  0  0  0
   26.0682  -18.3820  -15.3171 C   0  0  2  0  0  0  0  0  0  0  0  0
   25.4023  -17.1660  -15.8558 N   0  0  0  0  0  0  0  0  0  0  0  0
   25.5040  -18.6065  -13.9856 C   0  0  0  0  0  0  0  0  0  0  0  0
   25.4492  -17.6020  -13.1967 O   0  0  0  0  0  0  0  0  0  0  0  0
   27.7935  -23.7744  -15.7440 N   0  0  0  0  0  0  0  0  0  0  0  0
   22.5753  -22.3629   -8.7039 C   0  0  0  0  0  0  0  0  0  0  0  0
   22.9476  -22.0971  -10.0347 O   0  0  0  0  0  0  0  0  0  0  0  0
   23.3798  -23.0197  -10.7577 C   0  0  0  0  0  0  0  0  0  0  0  0
   22.8273  -20.7029  -10.5922 C   0  0  0  0  0  0  0  0  0  0  0  0
   23.3729  -20.6383  -11.9734 C   0  0  2  0  0  0  0  0  0  0  0  0
   24.7347  -19.9790  -12.0939 N   0  0  0  0  0  0  0  0  0  0  0  0
   25.0045  -19.8635  -13.4966 C   0  0  0  0  0  0  0  0  0  0  0  0
   25.7688  -20.7067  -11.3226 O   0  0  0  0  0  0  0  0  0  0  0  0
   26.8208  -21.0280  -11.9469 N   0  0  0  0  0  0  0  0  0  0  0  0
   25.6764  -21.0603   -9.9800 C   0  0  1  0  0  0  0  0  0  0  0  0
   26.4431  -20.6137   -8.8913 C   0  0  0  0  0  0  0  0  0  0  0  0
   26.5065  -19.1164   -8.6489 C   0  0  0  0  0  0  0  0  0  0  0  0
   27.3979  -18.7970   -7.5123 C   0  0  0  0  0  0  0  0  0  0  0  0
   28.1647  -17.6603   -7.3107 N   0  0  0  0  0  0  0  0  0  0  0  0
   28.8369  -17.7889   -6.1539 C   0  0  0  0  0  0  0  0  0  0  0  0
   28.5343  -18.9905   -5.5773 C   0  0  0  0  0  0  0  0  0  0  0  0
   28.9716  -19.5616   -4.4029 C   0  0  0  0  0  0  0  0  0  0  0  0
   28.5154  -20.8076   -4.0318 C   0  0  0  0  0  0  0  0  0  0  0  0
   27.6265  -21.4494   -4.8558 C   0  0  0  0  0  0  0  0  0  0  0  0
   27.2005  -20.8679   -6.0205 C   0  0  0  0  0  0  0  0  0  0  0  0
   27.6373  -19.6077   -6.4341 C   0  0  0  0  0  0  0  0  0  0  0  0
   26.1664  -21.2854   -7.6278 O   0  0  0  0  0  0  0  0  0  0  0  0
   27.1520  -22.0555   -7.0156 O   0  0  0  0  0  0  0  0  0  0  0  0
  2  1  1  0
  3  2  2  0
  4  2  1  0
  5  4  1  0
  6  5  1  0
  7  6  1  0
  8  9  1  1
  8 10  1  0
  8  7  1  0
 10 18  1  0
 10 11  2  0
 13 12  1  0
 13 14  2  0
 15 16  1  0
 15 13  1  0
 17 16  1  6
 17 19  1  0
 18 17  1  0
 19 20  2  0
 19 21  1  0
 21 22  1  0
 22 33  1  0
 22 23  1  1
 24 25  2  0
 24 23  1  0
 26 25  1  0
 27 32  2  0
 27 26  1  0
 28 27  1  0
 29 30  1  0
 29 28  2  0
 30 31  2  0
 31 32  1  0
 32 24  1  0
 33 34  1  0
 35 33  2  0
M  END
$$$$
