RQW.pdb
     RDKit          3D

 35 36  0  0  1  0  0  0  0  0999 V2000
   28.0150  -30.1811  -22.5973 N   0  0  0  0  0  0  0  0  0  0  0  0
   26.9281  -30.5486  -21.7753 C   0  0  0  0  0  0  0  0  0  0  0  0
   26.1686  -31.5506  -22.1334 N   0  0  0  0  0  0  0  0  0  0  0  0
   26.5996  -29.8911  -20.5679 N   0  0  0  0  0  0  0  0  0  0  0  0
   27.3045  -28.7594  -20.0499 C   0  0  0  0  0  0  0  0  0  0  0  0
   28.7227  -29.0332  -19.6330 C   0  0  0  0  0  0  0  0  0  0  0  0
   29.4329  -27.8365  -19.0796 C   0  0  0  0  0  0  0  0  0  0  0  0
   29.6226  -27.8934  -17.5736 C   0  0  2  0  0  0  0  0  0  0  0  0
   28.4698  -28.6502  -17.0163 N   0  0  0  0  0  0  0  0  0  0  0  0
   29.6143  -26.5855  -16.9171 C   0  0  0  0  0  0  0  0  0  0  0  0
   28.6172  -26.3154  -16.1641 O   0  0  0  0  0  0  0  0  0  0  0  0
   25.3278  -31.7918  -21.5793 N   0  0  0  0  0  0  0  0  0  0  0  0
   33.7178  -26.0219  -16.1466 C   0  0  0  0  0  0  0  0  0  0  0  0
   33.2208  -25.9528  -14.8319 O   0  0  0  0  0  0  0  0  0  0  0  0
   33.6878  -26.7022  -13.9482 C   0  0  0  0  0  0  0  0  0  0  0  0
   32.1263  -24.9777  -14.4849 C   0  0  0  0  0  0  0  0  0  0  0  0
   31.8182  -24.0970  -15.6421 C   0  0  2  0  0  0  0  0  0  0  0  0
   30.4830  -24.3642  -16.3126 N   0  0  0  0  0  0  0  0  0  0  0  0
   30.6380  -25.5838  -17.0491 C   0  0  0  0  0  0  0  0  0  0  0  0
   30.0309  -23.2072  -17.1194 O   0  0  0  0  0  0  0  0  0  0  0  0
   30.7411  -22.9015  -18.1202 N   0  0  0  0  0  0  0  0  0  0  0  0
   28.8987  -22.4387  -16.8668 C   0  0  1  0  0  0  0  0  0  0  0  0
   28.3208  -21.4279  -17.6521 C   0  0  0  0  0  0  0  0  0  0  0  0
   27.9002  -21.7945  -19.0640 C   0  0  0  0  0  0  0  0  0  0  0  0
   26.7751  -22.7549  -19.0535 C   0  0  0  0  0  0  0  0  0  0  0  0
   25.6009  -22.6998  -18.3194 N   0  0  0  0  0  0  0  0  0  0  0  0
   24.8605  -23.7855  -18.6015 C   0  0  0  0  0  0  0  0  0  0  0  0
   25.5172  -24.5665  -19.5106 C   0  0  0  0  0  0  0  0  0  0  0  0
   25.1623  -25.7629  -20.0933 C   0  0  0  0  0  0  0  0  0  0  0  0
   26.0104  -26.3674  -20.9954 C   0  0  0  0  0  0  0  0  0  0  0  0
   27.1989  -25.7493  -21.2894 C   0  0  0  0  0  0  0  0  0  0  0  0
   27.5374  -24.5591  -20.7019 C   0  0  0  0  0  0  0  0  0  0  0  0
   26.7080  -23.9127  -19.7831 C   0  0  0  0  0  0  0  0  0  0  0  0
   27.2356  -20.6961  -17.0111 O   0  0  0  0  0  0  0  0  0  0  0  0
   26.7465  -21.1124  -15.7756 O   0  0  0  0  0  0  0  0  0  0  0  0
  2  1  1  0
  3  2  2  0
  4  2  1  0
  5  4  1  0
  6  5  1  0
  7  6  1  0
  8  9  1  1
  8 10  1  0
  8  7  1  0
 10 18  1  0
 10 11  2  0
 13 12  1  0
 13 14  2  0
 15 16  1  0
 15 13  1  0
 17 16  1  1
 17 19  1  0
 18 17  1  0
 19 20  2  0
 19 21  1  0
 21 22  1  0
 22 33  1  0
 22 23  1  6
 24 25  2  0
 24 23  1  0
 26 25  1  0
 27 32  2  0
 27 26  1  0
 28 27  1  0
 29 30  1  0
 29 28  2  0
 30 31  2  0
 31 32  1  0
 32 24  1  0
 33 34  1  0
 35 33  2  0
M  END
$$$$
