RQW.pdb
     RDKit          3D

 35 36  0  0  1  0  0  0  0  0999 V2000
   23.6645  -13.5383  -20.6690 N   0  0  0  0  0  0  0  0  0  0  0  0
   24.6530  -12.5312  -20.6410 C   0  0  0  0  0  0  0  0  0  0  0  0
   24.3539  -11.3328  -21.0695 N   0  0  0  0  0  0  0  0  0  0  0  0
   25.9705  -12.7373  -20.1725 N   0  0  0  0  0  0  0  0  0  0  0  0
   26.3916  -13.8875  -19.4337 C   0  0  0  0  0  0  0  0  0  0  0  0
   25.5198  -14.2408  -18.2611 C   0  0  0  0  0  0  0  0  0  0  0  0
   26.2828  -14.6847  -17.0513 C   0  0  0  0  0  0  0  0  0  0  0  0
   26.5955  -16.1711  -17.0498 C   0  0  2  0  0  0  0  0  0  0  0  0
   26.1425  -16.7141  -18.3584 N   0  0  0  0  0  0  0  0  0  0  0  0
   25.8885  -16.9328  -16.0195 C   0  0  0  0  0  0  0  0  0  0  0  0
   24.7079  -16.5483  -15.7147 O   0  0  0  0  0  0  0  0  0  0  0  0
   25.0367  -10.5600  -20.9761 N   0  0  0  0  0  0  0  0  0  0  0  0
   23.2826  -21.7561  -14.8507 C   0  0  0  0  0  0  0  0  0  0  0  0
   24.1288  -21.7620  -15.9751 O   0  0  0  0  0  0  0  0  0  0  0  0
   24.2900  -22.8142  -16.6290 C   0  0  0  0  0  0  0  0  0  0  0  0
   24.8424  -20.5033  -16.3943 C   0  0  0  0  0  0  0  0  0  0  0  0
   24.4385  -19.3579  -15.5372 C   0  0  1  0  0  0  0  0  0  0  0  0
   25.5014  -18.8794  -14.5651 N   0  0  0  0  0  0  0  0  0  0  0  0
   26.4138  -18.0786  -15.3267 C   0  0  0  0  0  0  0  0  0  0  0  0
   26.1273  -20.0061  -13.8353 O   0  0  0  0  0  0  0  0  0  0  0  0
   27.2143  -20.4515  -14.3041 N   0  0  0  0  0  0  0  0  0  0  0  0
   25.6204  -20.6064  -12.6869 C   0  0  1  0  0  0  0  0  0  0  0  0
   25.8134  -21.9139  -12.2118 C   0  0  0  0  0  0  0  0  0  0  0  0
   26.8223  -22.1094  -11.0944 C   0  0  0  0  0  0  0  0  0  0  0  0
   26.4431  -21.3365   -9.8914 C   0  0  0  0  0  0  0  0  0  0  0  0
   25.2126  -21.2777   -9.2566 N   0  0  0  0  0  0  0  0  0  0  0  0
   25.3036  -20.4412   -8.2085 C   0  0  0  0  0  0  0  0  0  0  0  0
   26.5722  -19.9389   -8.1298 C   0  0  0  0  0  0  0  0  0  0  0  0
   27.1373  -19.0550   -7.2376 C   0  0  0  0  0  0  0  0  0  0  0  0
   28.4601  -18.6935   -7.3711 C   0  0  0  0  0  0  0  0  0  0  0  0
   29.1834  -19.2336   -8.4037 C   0  0  0  0  0  0  0  0  0  0  0  0
   28.6071  -20.1118   -9.2828 C   0  0  0  0  0  0  0  0  0  0  0  0
   27.2709  -20.5049   -9.1840 C   0  0  0  0  0  0  0  0  0  0  0  0
   24.5909  -22.6324  -11.8752 O   0  0  0  0  0  0  0  0  0  0  0  0
   24.6235  -24.0096  -11.6716 O   0  0  0  0  0  0  0  0  0  0  0  0
  2  1  1  0
  3  2  2  0
  4  2  1  0
  5  4  1  0
  6  5  1  0
  7  6  1  0
  8  9  1  6
  8 10  1  0
  8  7  1  0
 10 18  1  0
 10 11  2  0
 13 12  1  0
 13 14  2  0
 15 16  1  0
 15 13  1  0
 17 16  1  1
 17 19  1  0
 18 17  1  0
 19 20  2  0
 19 21  1  0
 21 22  1  0
 22 33  1  0
 22 23  1  6
 24 25  2  0
 24 23  1  0
 26 25  1  0
 27 32  2  0
 27 26  1  0
 28 27  1  0
 29 30  1  0
 29 28  2  0
 30 31  2  0
 31 32  1  0
 32 24  1  0
 33 34  1  0
 35 33  2  0
M  END
$$$$
