RQW.pdb
     RDKit          3D

 35 36  0  0  1  0  0  0  0  0999 V2000
   30.1963  -20.4235  -20.6792 N   0  0  0  0  0  0  0  0  0  0  0  0
   30.0428  -19.0218  -20.7388 C   0  0  0  0  0  0  0  0  0  0  0  0
   29.9240  -18.4428  -21.9049 N   0  0  0  0  0  0  0  0  0  0  0  0
   30.0099  -18.1866  -19.5989 N   0  0  0  0  0  0  0  0  0  0  0  0
   29.5604  -18.6051  -18.3070 C   0  0  0  0  0  0  0  0  0  0  0  0
   28.2038  -18.0920  -17.9117 C   0  0  0  0  0  0  0  0  0  0  0  0
   28.0874  -17.7446  -16.4596 C   0  0  0  0  0  0  0  0  0  0  0  0
   28.3324  -18.9263  -15.5373 C   0  0  2  0  0  0  0  0  0  0  0  0
   28.3603  -20.1460  -16.3882 N   0  0  0  0  0  0  0  0  0  0  0  0
   27.2805  -19.1404  -14.5427 C   0  0  0  0  0  0  0  0  0  0  0  0
   27.0695  -18.1999  -13.7029 O   0  0  0  0  0  0  0  0  0  0  0  0
   29.7582  -17.4225  -21.9661 N   0  0  0  0  0  0  0  0  0  0  0  0
   22.0572  -19.6295  -14.1872 C   0  0  0  0  0  0  0  0  0  0  0  0
   22.0525  -20.5677  -13.1385 O   0  0  0  0  0  0  0  0  0  0  0  0
   21.0427  -20.6871  -12.4127 C   0  0  0  0  0  0  0  0  0  0  0  0
   23.2616  -21.4302  -12.8866 C   0  0  0  0  0  0  0  0  0  0  0  0
   24.3235  -21.1554  -13.8898 C   0  0  1  0  0  0  0  0  0  0  0  0
   25.5237  -20.3925  -13.3594 N   0  0  0  0  0  0  0  0  0  0  0  0
   26.4649  -20.3205  -14.4376 C   0  0  0  0  0  0  0  0  0  0  0  0
   26.0533  -20.9958  -12.1147 O   0  0  0  0  0  0  0  0  0  0  0  0
   26.9820  -21.8442  -12.2462 N   0  0  0  0  0  0  0  0  0  0  0  0
   25.6157  -20.7058  -10.8260 C   0  0  1  0  0  0  0  0  0  0  0  0
   26.0311  -21.2591   -9.6038 C   0  0  0  0  0  0  0  0  0  0  0  0
   27.4889  -21.0851   -9.2177 C   0  0  0  0  0  0  0  0  0  0  0  0
   27.6279  -20.1934   -8.0455 C   0  0  0  0  0  0  0  0  0  0  0  0
   26.8068  -19.1473   -7.6555 N   0  0  0  0  0  0  0  0  0  0  0  0
   27.3095  -18.5930   -6.5390 C   0  0  0  0  0  0  0  0  0  0  0  0
   28.4520  -19.2485   -6.1743 C   0  0  0  0  0  0  0  0  0  0  0  0
   29.3083  -19.0448   -5.1152 C   0  0  0  0  0  0  0  0  0  0  0  0
   30.4151  -19.8507   -4.9601 C   0  0  0  0  0  0  0  0  0  0  0  0
   30.6323  -20.8454   -5.8790 C   0  0  0  0  0  0  0  0  0  0  0  0
   29.7710  -21.0357   -6.9270 C   0  0  0  0  0  0  0  0  0  0  0  0
   28.6383  -20.2426   -7.1214 C   0  0  0  0  0  0  0  0  0  0  0  0
   25.1955  -20.9186   -8.4592 O   0  0  0  0  0  0  0  0  0  0  0  0
   24.2154  -19.9365   -8.5774 O   0  0  0  0  0  0  0  0  0  0  0  0
  2  1  1  0
  3  2  2  0
  4  2  1  0
  5  4  1  0
  6  5  1  0
  7  6  1  0
  8  9  1  6
  8 10  1  0
  8  7  1  0
 10 18  1  0
 10 11  2  0
 13 12  1  0
 13 14  2  0
 15 16  1  0
 15 13  1  0
 17 16  1  6
 17 19  1  0
 18 17  1  0
 19 20  2  0
 19 21  1  0
 21 22  1  0
 22 33  1  0
 22 23  1  1
 24 25  2  0
 24 23  1  0
 26 25  1  0
 27 32  2  0
 27 26  1  0
 28 27  1  0
 29 30  1  0
 29 28  2  0
 30 31  2  0
 31 32  1  0
 32 24  1  0
 33 34  1  0
 35 33  2  0
M  END
$$$$
