RQW.pdb
     RDKit          3D

 35 36  0  0  1  0  0  0  0  0999 V2000
   26.2274  -19.8998  -20.4583 N   0  0  0  0  0  0  0  0  0  0  0  0
   26.9187  -18.6705  -20.5111 C   0  0  0  0  0  0  0  0  0  0  0  0
   26.5703  -17.7814  -21.4041 N   0  0  0  0  0  0  0  0  0  0  0  0
   27.9843  -18.3314  -19.6465 N   0  0  0  0  0  0  0  0  0  0  0  0
   28.3911  -19.1180  -18.5232 C   0  0  0  0  0  0  0  0  0  0  0  0
   27.3353  -19.3125  -17.4708 C   0  0  0  0  0  0  0  0  0  0  0  0
   27.8563  -19.2348  -16.0689 C   0  0  0  0  0  0  0  0  0  0  0  0
   28.8058  -20.3670  -15.7169 C   0  0  2  0  0  0  0  0  0  0  0  0
   28.5817  -21.4501  -16.7113 N   0  0  0  0  0  0  0  0  0  0  0  0
   28.5714  -20.9602  -14.3999 C   0  0  0  0  0  0  0  0  0  0  0  0
   27.4527  -21.5508  -14.2152 O   0  0  0  0  0  0  0  0  0  0  0  0
   27.0639  -16.8726  -21.4553 N   0  0  0  0  0  0  0  0  0  0  0  0
   32.4805  -22.2977   -9.6494 C   0  0  0  0  0  0  0  0  0  0  0  0
   32.4553  -22.8650  -10.9369 O   0  0  0  0  0  0  0  0  0  0  0  0
   33.3973  -23.5925  -11.3165 C   0  0  0  0  0  0  0  0  0  0  0  0
   31.2959  -22.5985  -11.8609 C   0  0  0  0  0  0  0  0  0  0  0  0
   30.3025  -21.7008  -11.2152 C   0  0  2  0  0  0  0  0  0  0  0  0
   29.0525  -21.4345  -12.0339 N   0  0  0  0  0  0  0  0  0  0  0  0
   29.4987  -20.9345  -13.3007 C   0  0  0  0  0  0  0  0  0  0  0  0
   28.1040  -20.5499  -11.3186 O   0  0  0  0  0  0  0  0  0  0  0  0
   28.3628  -19.3120  -11.3320 N   0  0  0  0  0  0  0  0  0  0  0  0
   26.9628  -20.9680  -10.6412 C   0  0  1  0  0  0  0  0  0  0  0  0
   26.0198  -20.2016   -9.9370 C   0  0  0  0  0  0  0  0  0  0  0  0
   25.4380  -18.9895  -10.6420 C   0  0  0  0  0  0  0  0  0  0  0  0
   24.8016  -19.3707  -11.9219 C   0  0  0  0  0  0  0  0  0  0  0  0
   23.7162  -20.2068  -12.1300 N   0  0  0  0  0  0  0  0  0  0  0  0
   23.4784  -20.2902  -13.4502 C   0  0  0  0  0  0  0  0  0  0  0  0
   24.3845  -19.5254  -14.1299 C   0  0  0  0  0  0  0  0  0  0  0  0
   24.5401  -19.2995  -15.4795 C   0  0  0  0  0  0  0  0  0  0  0  0
   25.5492  -18.4752  -15.9275 C   0  0  0  0  0  0  0  0  0  0  0  0
   26.3792  -17.8968  -15.0015 C   0  0  0  0  0  0  0  0  0  0  0  0
   26.2113  -18.1310  -13.6624 C   0  0  0  0  0  0  0  0  0  0  0  0
   25.2024  -18.9588  -13.1657 C   0  0  0  0  0  0  0  0  0  0  0  0
   24.9335  -20.9644   -9.3352 O   0  0  0  0  0  0  0  0  0  0  0  0
   24.8536  -22.3406   -9.5320 O   0  0  0  0  0  0  0  0  0  0  0  0
  2  1  1  0
  3  2  2  0
  4  2  1  0
  5  4  1  0
  6  5  1  0
  7  6  1  0
  8  9  1  6
  8 10  1  0
  8  7  1  0
 10 18  1  0
 10 11  2  0
 13 12  1  0
 13 14  2  0
 15 16  1  0
 15 13  1  0
 17 16  1  6
 17 19  1  0
 18 17  1  0
 19 20  2  0
 19 21  1  0
 21 22  1  0
 22 33  1  0
 22 23  1  1
 24 25  2  0
 24 23  1  0
 26 25  1  0
 27 32  2  0
 27 26  1  0
 28 27  1  0
 29 30  1  0
 29 28  2  0
 30 31  2  0
 31 32  1  0
 32 24  1  0
 33 34  1  0
 35 33  2  0
M  END
$$$$
