RQW.pdb
     RDKit          3D

 35 36  0  0  1  0  0  0  0  0999 V2000
   25.7271  -18.3145  -21.1269 N   0  0  0  0  0  0  0  0  0  0  0  0
   25.0638  -18.6604  -19.9300 C   0  0  0  0  0  0  0  0  0  0  0  0
   23.8594  -18.2004  -19.7131 N   0  0  0  0  0  0  0  0  0  0  0  0
   25.6274  -19.4861  -18.9307 N   0  0  0  0  0  0  0  0  0  0  0  0
   26.9566  -20.0125  -18.9766 C   0  0  0  0  0  0  0  0  0  0  0  0
   27.8760  -19.5052  -17.9008 C   0  0  0  0  0  0  0  0  0  0  0  0
   27.6155  -20.1003  -16.5514 C   0  0  0  0  0  0  0  0  0  0  0  0
   28.7459  -20.9862  -16.0568 C   0  0  2  0  0  0  0  0  0  0  0  0
   28.7440  -22.2097  -16.9026 N   0  0  0  0  0  0  0  0  0  0  0  0
   28.5927  -21.4396  -14.6739 C   0  0  0  0  0  0  0  0  0  0  0  0
   27.7085  -22.3344  -14.4463 O   0  0  0  0  0  0  0  0  0  0  0  0
   23.3766  -18.4035  -18.8200 N   0  0  0  0  0  0  0  0  0  0  0  0
   32.6789  -22.3389  -10.2065 C   0  0  0  0  0  0  0  0  0  0  0  0
   32.5615  -22.8473  -11.5133 O   0  0  0  0  0  0  0  0  0  0  0  0
   33.4841  -23.5343  -12.0007 C   0  0  0  0  0  0  0  0  0  0  0  0
   31.3263  -22.5665  -12.3286 C   0  0  0  0  0  0  0  0  0  0  0  0
   30.3658  -21.7320  -11.5601 C   0  0  2  0  0  0  0  0  0  0  0  0
   29.0406  -21.4767  -12.2547 N   0  0  0  0  0  0  0  0  0  0  0  0
   29.3585  -20.9620  -13.5539 C   0  0  0  0  0  0  0  0  0  0  0  0
   28.1530  -20.6098  -11.4457 O   0  0  0  0  0  0  0  0  0  0  0  0
   28.3520  -19.3633  -11.5247 N   0  0  0  0  0  0  0  0  0  0  0  0
   27.1281  -21.0530  -10.6154 C   0  0  1  0  0  0  0  0  0  0  0  0
   26.2495  -20.3041   -9.8156 C   0  0  0  0  0  0  0  0  0  0  0  0
   25.5436  -19.1277  -10.4656 C   0  0  0  0  0  0  0  0  0  0  0  0
   24.8222  -19.5467  -11.6873 C   0  0  0  0  0  0  0  0  0  0  0  0
   23.7433  -20.4094  -11.7987 N   0  0  0  0  0  0  0  0  0  0  0  0
   23.4096  -20.5229  -13.0957 C   0  0  0  0  0  0  0  0  0  0  0  0
   24.2450  -19.7523  -13.8547 C   0  0  0  0  0  0  0  0  0  0  0  0
   24.2943  -19.5489  -15.2159 C   0  0  0  0  0  0  0  0  0  0  0  0
   25.2483  -18.7123  -15.7527 C   0  0  0  0  0  0  0  0  0  0  0  0
   26.1320  -18.0989  -14.9018 C   0  0  0  0  0  0  0  0  0  0  0  0
   26.0698  -18.3110  -13.5500 C   0  0  0  0  0  0  0  0  0  0  0  0
   25.1196  -19.1502  -12.9647 C   0  0  0  0  0  0  0  0  0  0  0  0
   25.2717  -21.0904   -9.0740 O   0  0  0  0  0  0  0  0  0  0  0  0
   24.3839  -20.4616   -8.2048 O   0  0  0  0  0  0  0  0  0  0  0  0
  2  1  1  0
  3  2  2  0
  4  2  1  0
  5  4  1  0
  6  5  1  0
  7  6  1  0
  8  9  1  6
  8 10  1  0
  8  7  1  0
 10 18  1  0
 10 11  2  0
 13 12  1  0
 13 14  2  0
 15 16  1  0
 15 13  1  0
 17 16  1  6
 17 19  1  0
 18 17  1  0
 19 20  2  0
 19 21  1  0
 21 22  1  0
 22 33  1  0
 22 23  1  1
 24 25  2  0
 24 23  1  0
 26 25  1  0
 27 32  2  0
 27 26  1  0
 28 27  1  0
 29 30  1  0
 29 28  2  0
 30 31  2  0
 31 32  1  0
 32 24  1  0
 33 34  1  0
 35 33  2  0
M  END
$$$$
