RQW.pdb
     RDKit          3D

 35 36  0  0  1  0  0  0  0  0999 V2000
   28.4631  -24.0864  -16.6498 N   0  0  0  0  0  0  0  0  0  0  0  0
   29.7434  -24.5268  -17.0485 C   0  0  0  0  0  0  0  0  0  0  0  0
   30.3673  -25.4150  -16.3197 N   0  0  0  0  0  0  0  0  0  0  0  0
   30.4088  -24.0609  -18.2053 N   0  0  0  0  0  0  0  0  0  0  0  0
   29.8559  -23.1169  -19.1267 C   0  0  0  0  0  0  0  0  0  0  0  0
   30.3185  -21.6994  -18.9350 C   0  0  0  0  0  0  0  0  0  0  0  0
   29.4852  -20.9161  -17.9681 C   0  0  0  0  0  0  0  0  0  0  0  0
   28.2551  -20.2913  -18.6034 C   0  0  2  0  0  0  0  0  0  0  0  0
   28.6640  -18.9629  -19.1331 N   0  0  0  0  0  0  0  0  0  0  0  0
   27.1567  -20.0430  -17.6688 C   0  0  0  0  0  0  0  0  0  0  0  0
   27.1854  -18.9476  -17.0102 O   0  0  0  0  0  0  0  0  0  0  0  0
   31.3580  -25.6456  -16.5133 N   0  0  0  0  0  0  0  0  0  0  0  0
   21.4081  -22.3557  -17.1829 C   0  0  0  0  0  0  0  0  0  0  0  0
   21.5277  -21.6923  -15.9477 O   0  0  0  0  0  0  0  0  0  0  0  0
   20.5356  -21.5914  -15.1951 C   0  0  0  0  0  0  0  0  0  0  0  0
   22.8487  -21.1022  -15.5282 C   0  0  0  0  0  0  0  0  0  0  0  0
   23.8683  -21.2802  -16.5951 C   0  0  2  0  0  0  0  0  0  0  0  0
   25.2334  -20.6965  -16.2801 N   0  0  0  0  0  0  0  0  0  0  0  0
   26.0485  -20.9298  -17.4355 C   0  0  0  0  0  0  0  0  0  0  0  0
   25.7841  -21.2354  -15.0151 O   0  0  0  0  0  0  0  0  0  0  0  0
   26.3166  -22.3811  -15.0710 N   0  0  0  0  0  0  0  0  0  0  0  0
   25.7630  -20.5879  -13.7836 C   0  0  2  0  0  0  0  0  0  0  0  0
   26.2648  -21.0219  -12.5458 C   0  0  0  0  0  0  0  0  0  0  0  0
   26.2108  -20.0420  -11.3876 C   0  0  0  0  0  0  0  0  0  0  0  0
   24.8843  -20.0617  -10.7331 C   0  0  0  0  0  0  0  0  0  0  0  0
   24.5700  -20.4188   -9.4314 N   0  0  0  0  0  0  0  0  0  0  0  0
   23.2418  -20.3068   -9.2584 C   0  0  0  0  0  0  0  0  0  0  0  0
   22.6610  -19.8814  -10.4201 C   0  0  0  0  0  0  0  0  0  0  0  0
   21.3431  -19.6262  -10.7274 C   0  0  0  0  0  0  0  0  0  0  0  0
   21.0011  -19.2015  -11.9928 C   0  0  0  0  0  0  0  0  0  0  0  0
   21.9990  -19.0437  -12.9203 C   0  0  0  0  0  0  0  0  0  0  0  0
   23.3055  -19.3012  -12.5992 C   0  0  0  0  0  0  0  0  0  0  0  0
   23.6955  -19.7329  -11.3298 C   0  0  0  0  0  0  0  0  0  0  0  0
   25.7595  -22.3129  -12.0961 O   0  0  0  0  0  0  0  0  0  0  0  0
   26.3163  -22.9304  -10.9791 O   0  0  0  0  0  0  0  0  0  0  0  0
  2  1  1  0
  3  2  2  0
  4  2  1  0
  5  4  1  0
  6  5  1  0
  7  6  1  0
  8  9  1  1
  8 10  1  0
  8  7  1  0
 10 18  1  0
 10 11  2  0
 13 12  1  0
 13 14  2  0
 15 16  1  0
 15 13  1  0
 17 16  1  6
 17 19  1  0
 18 17  1  0
 19 20  2  0
 19 21  1  0
 21 22  1  0
 22 33  1  0
 22 23  1  6
 24 25  2  0
 24 23  1  0
 26 25  1  0
 27 32  2  0
 27 26  1  0
 28 27  1  0
 29 30  1  0
 29 28  2  0
 30 31  2  0
 31 32  1  0
 32 24  1  0
 33 34  1  0
 35 33  2  0
M  END
$$$$
