RQW.pdb
     RDKit          3D

 35 36  0  0  1  0  0  0  0  0999 V2000
   27.7188  -22.3789  -20.9366 N   0  0  0  0  0  0  0  0  0  0  0  0
   28.4469  -21.2208  -21.2844 C   0  0  0  0  0  0  0  0  0  0  0  0
   29.1446  -21.2149  -22.3900 N   0  0  0  0  0  0  0  0  0  0  0  0
   28.4730  -20.0451  -20.5002 N   0  0  0  0  0  0  0  0  0  0  0  0
   28.5442  -20.0315  -19.0717 C   0  0  0  0  0  0  0  0  0  0  0  0
   27.2347  -20.2615  -18.3701 C   0  0  0  0  0  0  0  0  0  0  0  0
   27.2954  -20.0471  -16.8891 C   0  0  0  0  0  0  0  0  0  0  0  0
   27.2973  -21.3414  -16.0941 C   0  0  2  0  0  0  0  0  0  0  0  0
   27.3170  -22.4577  -17.0769 N   0  0  0  0  0  0  0  0  0  0  0  0
   26.1066  -21.5402  -15.2669 C   0  0  0  0  0  0  0  0  0  0  0  0
   25.0512  -21.9613  -15.8527 O   0  0  0  0  0  0  0  0  0  0  0  0
   29.6860  -20.3747  -22.6605 N   0  0  0  0  0  0  0  0  0  0  0  0
   25.4138  -21.3529   -9.0429 C   0  0  0  0  0  0  0  0  0  0  0  0
   24.0687  -21.3563   -9.4562 O   0  0  0  0  0  0  0  0  0  0  0  0
   23.1548  -21.3051   -8.6061 C   0  0  0  0  0  0  0  0  0  0  0  0
   23.7254  -21.4216  -10.9215 C   0  0  0  0  0  0  0  0  0  0  0  0
   24.9584  -21.4606  -11.7507 C   0  0  1  0  0  0  0  0  0  0  0  0
   24.7337  -21.2831  -13.2413 N   0  0  0  0  0  0  0  0  0  0  0  0
   26.0308  -21.3032  -13.8503 C   0  0  0  0  0  0  0  0  0  0  0  0
   23.9298  -20.0746  -13.5367 O   0  0  0  0  0  0  0  0  0  0  0  0
   24.3556  -18.9810  -13.0651 N   0  0  0  0  0  0  0  0  0  0  0  0
   22.7567  -20.0470  -14.2845 C   0  0  1  0  0  0  0  0  0  0  0  0
   21.8439  -18.9945  -14.4622 C   0  0  0  0  0  0  0  0  0  0  0  0
   21.5988  -18.5143  -15.8814 C   0  0  0  0  0  0  0  0  0  0  0  0
   21.0709  -19.6047  -16.7302 C   0  0  0  0  0  0  0  0  0  0  0  0
   19.7959  -20.1478  -16.7426 N   0  0  0  0  0  0  0  0  0  0  0  0
   19.7507  -21.1301  -17.6590 C   0  0  0  0  0  0  0  0  0  0  0  0
   20.9717  -21.2548  -18.2602 C   0  0  0  0  0  0  0  0  0  0  0  0
   21.4070  -22.1125  -19.2458 C   0  0  0  0  0  0  0  0  0  0  0  0
   22.7088  -22.0443  -19.6919 C   0  0  0  0  0  0  0  0  0  0  0  0
   23.5426  -21.1102  -19.1322 C   0  0  0  0  0  0  0  0  0  0  0  0
   23.0946  -20.2637  -18.1529 C   0  0  0  0  0  0  0  0  0  0  0  0
   21.7840  -20.2988  -17.6720 C   0  0  0  0  0  0  0  0  0  0  0  0
   20.5600  -19.1753  -13.7964 O   0  0  0  0  0  0  0  0  0  0  0  0
   19.6662  -18.1117  -13.7021 O   0  0  0  0  0  0  0  0  0  0  0  0
  2  1  1  0
  3  2  2  0
  4  2  1  0
  5  4  1  0
  6  5  1  0
  7  6  1  0
  8  9  1  6
  8 10  1  0
  8  7  1  0
 10 18  1  0
 10 11  2  0
 13 12  1  0
 13 14  2  0
 15 16  1  0
 15 13  1  0
 17 16  1  6
 17 19  1  0
 18 17  1  0
 19 20  2  0
 19 21  1  0
 21 22  1  0
 22 33  1  0
 22 23  1  1
 24 25  2  0
 24 23  1  0
 26 25  1  0
 27 32  2  0
 27 26  1  0
 28 27  1  0
 29 30  1  0
 29 28  2  0
 30 31  2  0
 31 32  1  0
 32 24  1  0
 33 34  1  0
 35 33  2  0
M  END
$$$$
