RQW.pdb
     RDKit          3D

 35 36  0  0  1  0  0  0  0  0999 V2000
   28.4764  -21.4477  -15.6895 N   0  0  0  0  0  0  0  0  0  0  0  0
   28.8625  -21.2750  -17.0361 C   0  0  0  0  0  0  0  0  0  0  0  0
   29.4570  -22.2583  -17.6596 N   0  0  0  0  0  0  0  0  0  0  0  0
   28.6458  -20.0855  -17.7683 N   0  0  0  0  0  0  0  0  0  0  0  0
   27.8676  -18.9812  -17.2984 C   0  0  0  0  0  0  0  0  0  0  0  0
   26.5218  -18.8316  -17.9513 C   0  0  0  0  0  0  0  0  0  0  0  0
   25.5050  -19.8235  -17.4767 C   0  0  0  0  0  0  0  0  0  0  0  0
   24.4618  -19.2194  -16.5526 C   0  0  2  0  0  0  0  0  0  0  0  0
   25.0573  -17.9886  -15.9670 N   0  0  0  0  0  0  0  0  0  0  0  0
   24.0902  -20.0752  -15.4252 C   0  0  0  0  0  0  0  0  0  0  0  0
   23.6376  -21.2391  -15.6988 O   0  0  0  0  0  0  0  0  0  0  0  0
   29.7049  -22.1669  -18.6608 N   0  0  0  0  0  0  0  0  0  0  0  0
   25.6579  -22.6496  -13.5784 C   0  0  0  0  0  0  0  0  0  0  0  0
   25.4114  -23.0017  -12.2384 O   0  0  0  0  0  0  0  0  0  0  0  0
   25.6254  -24.1699  -11.8509 C   0  0  0  0  0  0  0  0  0  0  0  0
   24.8898  -21.9746  -11.2677 C   0  0  0  0  0  0  0  0  0  0  0  0
   24.7180  -20.6576  -11.9353 C   0  0  2  0  0  0  0  0  0  0  0  0
   23.7010  -20.6384  -13.0618 N   0  0  0  0  0  0  0  0  0  0  0  0
   24.1967  -19.7129  -14.0373 C   0  0  0  0  0  0  0  0  0  0  0  0
   22.3364  -20.3440  -12.5666 O   0  0  0  0  0  0  0  0  0  0  0  0
   22.2500  -19.5785  -11.5636 N   0  0  0  0  0  0  0  0  0  0  0  0
   21.1549  -20.8366  -13.1119 C   0  0  1  0  0  0  0  0  0  0  0  0
   19.8302  -20.6178  -12.6998 C   0  0  0  0  0  0  0  0  0  0  0  0
   19.2108  -19.2705  -13.0251 C   0  0  0  0  0  0  0  0  0  0  0  0
   19.3225  -18.9661  -14.4685 C   0  0  0  0  0  0  0  0  0  0  0  0
   20.2737  -19.4114  -15.3726 N   0  0  0  0  0  0  0  0  0  0  0  0
   20.0099  -18.8795  -16.5785 C   0  0  0  0  0  0  0  0  0  0  0  0
   18.8998  -18.0863  -16.4984 C   0  0  0  0  0  0  0  0  0  0  0  0
   18.2543  -17.3406  -17.4595 C   0  0  0  0  0  0  0  0  0  0  0  0
   17.1355  -16.6087  -17.1265 C   0  0  0  0  0  0  0  0  0  0  0  0
   16.6930  -16.6466  -15.8288 C   0  0  0  0  0  0  0  0  0  0  0  0
   17.3458  -17.3936  -14.8842 C   0  0  0  0  0  0  0  0  0  0  0  0
   18.4823  -18.1495  -15.1787 C   0  0  0  0  0  0  0  0  0  0  0  0
   18.8907  -21.6703  -13.0658 O   0  0  0  0  0  0  0  0  0  0  0  0
   17.6180  -21.6978  -12.5014 O   0  0  0  0  0  0  0  0  0  0  0  0
  2  1  1  0
  3  2  2  0
  4  2  1  0
  5  4  1  0
  6  5  1  0
  7  6  1  0
  8  9  1  1
  8 10  1  0
  8  7  1  0
 10 18  1  0
 10 11  2  0
 13 12  1  0
 13 14  2  0
 15 16  1  0
 15 13  1  0
 17 16  1  6
 17 19  1  0
 18 17  1  0
 19 20  2  0
 19 21  1  0
 21 22  1  0
 22 33  1  0
 22 23  1  1
 24 25  2  0
 24 23  1  0
 26 25  1  0
 27 32  2  0
 27 26  1  0
 28 27  1  0
 29 30  1  0
 29 28  2  0
 30 31  2  0
 31 32  1  0
 32 24  1  0
 33 34  1  0
 35 33  2  0
M  END
$$$$
