SDW.pdb
     RDKit          3D

 29 30  0  0  1  0  0  0  0  0999 V2000
    6.6753  -21.7933   21.5090 O   0  0  0  0  0  0  0  0  0  0  0  0
    5.9633  -20.5866   21.6238 C   0  0  0  0  0  0  0  0  0  0  0  0
    6.5629  -19.7276   22.7193 C   0  0  2  0  0  0  0  0  0  0  0  0
    5.8065  -18.4703   22.8276 N   0  0  0  0  0  0  0  0  0  0  0  0
    7.9561  -19.3564   22.4305 C   0  0  0  0  0  0  0  0  0  0  0  0
    8.9062  -20.2112   22.3801 O   0  0  0  0  0  0  0  0  0  0  0  0
    8.3825  -18.0084   22.1789 N   0  0  0  0  0  0  0  0  0  0  0  0
    9.7540  -17.6744   21.9041 C   0  0  1  0  0  0  0  0  0  0  0  0
    9.9527  -16.7297   20.7521 C   0  0  0  0  0  0  0  0  0  0  0  0
    9.0024  -15.6338   20.8281 C   0  0  0  0  0  0  0  0  0  0  0  0
    8.2541  -15.5356   21.8460 O   0  0  0  0  0  0  0  0  0  0  0  0
   10.3917  -17.0037   23.0965 C   0  0  0  0  0  0  0  0  0  0  0  0
   11.5266  -16.4739   23.0050 O   0  0  0  0  0  0  0  0  0  0  0  0
    8.8459  -14.6666   19.8533 O   0  0  0  0  0  0  0  0  0  0  0  0
    9.7424  -16.9447   24.3563 N   0  0  0  0  0  0  0  0  0  0  0  0
   10.3874  -16.4371   25.5511 C   0  0  1  0  0  0  0  0  0  0  0  0
    9.9817  -15.0106   25.8470 C   0  0  0  0  0  0  0  0  0  0  0  0
    8.5072  -14.8687   25.9289 C   0  0  0  0  0  0  0  0  0  0  0  0
    7.5704  -15.8771   25.8486 C   0  0  0  0  0  0  0  0  0  0  0  0
    6.3420  -15.3485   25.9707 N   0  0  0  0  0  0  0  0  0  0  0  0
    6.4231  -14.0145   26.1306 C   0  0  0  0  0  0  0  0  0  0  0  0
    5.4711  -13.0125   26.2972 C   0  0  0  0  0  0  0  0  0  0  0  0
    5.8799  -11.7041   26.4379 C   0  0  0  0  0  0  0  0  0  0  0  0
    7.2201  -11.3850   26.4147 C   0  0  0  0  0  0  0  0  0  0  0  0
    8.1711  -12.3873   26.2481 C   0  0  0  0  0  0  0  0  0  0  0  0
    7.7664  -13.7019   26.1065 C   0  0  0  0  0  0  0  0  0  0  0  0
   10.1410  -17.3280   26.7073 C   0  0  0  0  0  0  0  0  0  0  0  0
   10.7438  -17.1341   27.9331 O   0  0  0  0  0  0  0  0  0  0  0  0
    9.3566  -18.2927   26.5668 O   0  0  0  0  0  0  0  0  0  0  0  0
  2  1  1  0
  3  2  1  0
  3  4  1  6
  5  7  1  0
  5  3  1  0
  6  5  2  0
  8  9  1  6
  8  7  1  0
 10 14  1  0
 10  9  1  0
 11 10  2  0
 12  8  1  0
 12 13  2  0
 15 12  1  0
 16 15  1  0
 16 27  1  0
 16 17  1  1
 18 17  1  0
 19 18  2  0
 20 19  1  0
 21 26  2  0
 21 20  1  0
 22 21  1  0
 23 22  2  0
 23 24  1  0
 24 25  2  0
 25 26  1  0
 26 18  1  0
 27 29  2  0
 27 28  1  0
M  END
$$$$
