SDW.pdb
     RDKit          3D

 29 30  0  0  1  0  0  0  0  0999 V2000
    6.0702  -15.1698   22.1316 O   0  0  0  0  0  0  0  0  0  0  0  0
    6.8532  -14.4777   21.1913 C   0  0  0  0  0  0  0  0  0  0  0  0
    7.6699  -15.4553   20.3698 C   0  0  2  0  0  0  0  0  0  0  0  0
    6.7668  -16.3665   19.6495 N   0  0  0  0  0  0  0  0  0  0  0  0
    8.5337  -16.2973   21.2106 C   0  0  0  0  0  0  0  0  0  0  0  0
    8.2155  -17.4852   21.5621 O   0  0  0  0  0  0  0  0  0  0  0  0
    9.8090  -15.8714   21.7151 N   0  0  0  0  0  0  0  0  0  0  0  0
   10.6222  -16.7087   22.5549 C   0  0  1  0  0  0  0  0  0  0  0  0
   12.0888  -16.6944   22.2261 C   0  0  0  0  0  0  0  0  0  0  0  0
   12.6055  -18.0505   22.1634 C   0  0  0  0  0  0  0  0  0  0  0  0
   11.8096  -19.0223   22.3308 O   0  0  0  0  0  0  0  0  0  0  0  0
   10.5234  -16.2778   23.9982 C   0  0  0  0  0  0  0  0  0  0  0  0
   11.0262  -15.1925   24.3807 O   0  0  0  0  0  0  0  0  0  0  0  0
   13.9294  -18.3720   21.9307 O   0  0  0  0  0  0  0  0  0  0  0  0
    9.8655  -17.0725   24.9717 N   0  0  0  0  0  0  0  0  0  0  0  0
    9.9153  -16.7802   26.3906 C   0  0  1  0  0  0  0  0  0  0  0  0
    8.5328  -16.7092   26.9995 C   0  0  0  0  0  0  0  0  0  0  0  0
    7.6557  -15.7735   26.2537 C   0  0  0  0  0  0  0  0  0  0  0  0
    6.6865  -16.1022   25.3298 C   0  0  0  0  0  0  0  0  0  0  0  0
    6.1068  -14.9776   24.8799 N   0  0  0  0  0  0  0  0  0  0  0  0
    6.6563  -13.9013   25.4727 C   0  0  0  0  0  0  0  0  0  0  0  0
    6.4288  -12.5320   25.3671 C   0  0  0  0  0  0  0  0  0  0  0  0
    7.1766  -11.6588   26.1268 C   0  0  0  0  0  0  0  0  0  0  0  0
    8.1436  -12.1329   26.9862 C   0  0  0  0  0  0  0  0  0  0  0  0
    8.3704  -13.5020   27.0912 C   0  0  0  0  0  0  0  0  0  0  0  0
    7.6229  -14.3826   26.3311 C   0  0  0  0  0  0  0  0  0  0  0  0
   10.7787  -17.7492   27.1027 C   0  0  0  0  0  0  0  0  0  0  0  0
   11.0722  -17.6317   28.4458 O   0  0  0  0  0  0  0  0  0  0  0  0
   11.2599  -18.7102   26.4620 O   0  0  0  0  0  0  0  0  0  0  0  0
  2  1  1  0
  3  2  1  0
  3  4  1  1
  5  7  1  0
  5  3  1  0
  6  5  2  0
  8  9  1  6
  8  7  1  0
 10 14  1  0
 10  9  1  0
 11 10  2  0
 12  8  1  0
 12 13  2  0
 15 12  1  0
 16 15  1  0
 16 27  1  0
 16 17  1  1
 18 17  1  0
 19 18  2  0
 20 19  1  0
 21 26  2  0
 21 20  1  0
 22 21  1  0
 23 22  2  0
 23 24  1  0
 24 25  2  0
 25 26  1  0
 26 18  1  0
 27 29  2  0
 27 28  1  0
M  END
$$$$
