SDW.pdb
     RDKit          3D

 29 30  0  0  1  0  0  0  0  0999 V2000
    8.4988  -12.9896   19.2690 O   0  0  0  0  0  0  0  0  0  0  0  0
    9.3250  -13.6322   18.3305 C   0  0  0  0  0  0  0  0  0  0  0  0
    8.7995  -15.0233   18.0368 C   0  0  2  0  0  0  0  0  0  0  0  0
    7.4705  -14.9252   17.4133 N   0  0  0  0  0  0  0  0  0  0  0  0
    8.6316  -15.8206   19.2609 C   0  0  0  0  0  0  0  0  0  0  0  0
    7.5031  -15.9675   19.8445 O   0  0  0  0  0  0  0  0  0  0  0  0
    9.7101  -16.5069   19.9153 N   0  0  0  0  0  0  0  0  0  0  0  0
    9.5140  -17.2879   21.1067 C   0  0  1  0  0  0  0  0  0  0  0  0
   10.0796  -18.6792   21.0469 C   0  0  0  0  0  0  0  0  0  0  0  0
   11.4296  -18.6530   20.5117 C   0  0  0  0  0  0  0  0  0  0  0  0
   11.9521  -17.5386   20.2100 O   0  0  0  0  0  0  0  0  0  0  0  0
   10.1741  -16.6297   22.2939 C   0  0  0  0  0  0  0  0  0  0  0  0
   11.2244  -15.9559   22.1534 O   0  0  0  0  0  0  0  0  0  0  0  0
   12.2078  -19.7753   20.2996 O   0  0  0  0  0  0  0  0  0  0  0  0
    9.6410  -16.7439   23.6034 N   0  0  0  0  0  0  0  0  0  0  0  0
   10.3236  -16.2381   24.7778 C   0  0  1  0  0  0  0  0  0  0  0  0
    9.8930  -14.8282   25.1156 C   0  0  0  0  0  0  0  0  0  0  0  0
    8.4541  -14.7679   25.4716 C   0  0  0  0  0  0  0  0  0  0  0  0
    7.5489  -15.8077   25.4488 C   0  0  0  0  0  0  0  0  0  0  0  0
    6.3475  -15.3552   25.8427 N   0  0  0  0  0  0  0  0  0  0  0  0
    6.4160  -14.0420   26.1300 C   0  0  0  0  0  0  0  0  0  0  0  0
    5.4802  -13.1101   26.5700 C   0  0  0  0  0  0  0  0  0  0  0  0
    5.8681  -11.8042   26.7778 C   0  0  0  0  0  0  0  0  0  0  0  0
    7.1718  -11.4190   26.5531 C   0  0  0  0  0  0  0  0  0  0  0  0
    8.1068  -12.3514   26.1132 C   0  0  0  0  0  0  0  0  0  0  0  0
    7.7228  -13.6630   25.9031 C   0  0  0  0  0  0  0  0  0  0  0  0
   10.1518  -17.1540   25.9281 C   0  0  0  0  0  0  0  0  0  0  0  0
    9.3962  -18.3058   25.8508 O   0  0  0  0  0  0  0  0  0  0  0  0
   10.7130  -16.8723   27.0104 O   0  0  0  0  0  0  0  0  0  0  0  0
  2  1  1  0
  3  2  1  0
  3  4  1  1
  5  7  1  0
  5  3  1  0
  6  5  2  0
  8  9  1  6
  8  7  1  0
 10 14  1  0
 10  9  1  0
 11 10  2  0
 12  8  1  0
 12 13  2  0
 15 12  1  0
 16 15  1  0
 16 27  1  0
 16 17  1  1
 18 17  1  0
 19 18  2  0
 20 19  1  0
 21 26  2  0
 21 20  1  0
 22 21  1  0
 23 22  2  0
 23 24  1  0
 24 25  2  0
 25 26  1  0
 26 18  1  0
 27 29  2  0
 27 28  1  0
M  END
$$$$
