SDW.pdb
     RDKit          3D

 29 30  0  0  1  0  0  0  0  0999 V2000
    7.8851  -13.5299   21.6803 O   0  0  0  0  0  0  0  0  0  0  0  0
    8.2998  -13.8668   20.3800 C   0  0  0  0  0  0  0  0  0  0  0  0
    7.9539  -15.3114   20.0784 C   0  0  2  0  0  0  0  0  0  0  0  0
    6.5026  -15.5088   20.2183 N   0  0  0  0  0  0  0  0  0  0  0  0
    8.5971  -16.2416   21.0180 C   0  0  0  0  0  0  0  0  0  0  0  0
    7.9685  -16.8005   21.9815 O   0  0  0  0  0  0  0  0  0  0  0  0
    9.9832  -16.6105   20.9461 N   0  0  0  0  0  0  0  0  0  0  0  0
   10.6039  -17.4622   21.9245 C   0  0  1  0  0  0  0  0  0  0  0  0
   11.9344  -18.0274   21.5129 C   0  0  0  0  0  0  0  0  0  0  0  0
   11.8149  -18.7298   20.2471 C   0  0  0  0  0  0  0  0  0  0  0  0
   12.2352  -18.1718   19.1899 O   0  0  0  0  0  0  0  0  0  0  0  0
   10.8601  -16.7078   23.2065 C   0  0  0  0  0  0  0  0  0  0  0  0
   11.6005  -15.6935   23.2184 O   0  0  0  0  0  0  0  0  0  0  0  0
   11.2645  -19.9892   20.1015 O   0  0  0  0  0  0  0  0  0  0  0  0
   10.2812  -17.1089   24.4378 N   0  0  0  0  0  0  0  0  0  0  0  0
   10.5494  -16.4317   25.6911 C   0  0  1  0  0  0  0  0  0  0  0  0
   10.1022  -14.9874   25.6574 C   0  0  0  0  0  0  0  0  0  0  0  0
    8.6281  -14.8700   25.7755 C   0  0  0  0  0  0  0  0  0  0  0  0
    7.7001  -15.8785   25.6249 C   0  0  0  0  0  0  0  0  0  0  0  0
    6.4689  -15.3764   25.8119 N   0  0  0  0  0  0  0  0  0  0  0  0
    6.5393  -14.0601   26.0839 C   0  0  0  0  0  0  0  0  0  0  0  0
    5.5804  -13.0869   26.3511 C   0  0  0  0  0  0  0  0  0  0  0  0
    5.9784  -11.7907   26.5964 C   0  0  0  0  0  0  0  0  0  0  0  0
    7.3147  -11.4553   26.5784 C   0  0  0  0  0  0  0  0  0  0  0  0
    8.2727  -12.4289   26.3111 C   0  0  0  0  0  0  0  0  0  0  0  0
    7.8788  -13.7311   26.0644 C   0  0  0  0  0  0  0  0  0  0  0  0
    9.9508  -17.1644   26.8297 C   0  0  0  0  0  0  0  0  0  0  0  0
   10.1602  -16.7924   28.1418 O   0  0  0  0  0  0  0  0  0  0  0  0
    9.2282  -18.1580   26.5924 O   0  0  0  0  0  0  0  0  0  0  0  0
  2  1  1  0
  3  2  1  0
  3  4  1  1
  5  7  1  0
  5  3  1  0
  6  5  2  0
  8  9  1  6
  8  7  1  0
 10 14  1  0
 10  9  1  0
 11 10  2  0
 12  8  1  0
 12 13  2  0
 15 12  1  0
 16 15  1  0
 16 27  1  0
 16 17  1  6
 18 17  1  0
 19 18  2  0
 20 19  1  0
 21 26  2  0
 21 20  1  0
 22 21  1  0
 23 22  2  0
 23 24  1  0
 24 25  2  0
 25 26  1  0
 26 18  1  0
 27 29  2  0
 27 28  1  0
M  END
$$$$
