SDW.pdb
     RDKit          3D

 29 30  0  0  1  0  0  0  0  0999 V2000
    6.5334  -14.7747   22.1010 O   0  0  0  0  0  0  0  0  0  0  0  0
    7.3643  -14.6186   20.9779 C   0  0  0  0  0  0  0  0  0  0  0  0
    7.9290  -15.9600   20.5545 C   0  0  2  0  0  0  0  0  0  0  0  0
    6.8254  -16.8957   20.2876 N   0  0  0  0  0  0  0  0  0  0  0  0
    8.7523  -16.5708   21.6086 C   0  0  0  0  0  0  0  0  0  0  0  0
    8.3023  -17.4541   22.4168 O   0  0  0  0  0  0  0  0  0  0  0  0
   10.1313  -16.2377   21.8317 N   0  0  0  0  0  0  0  0  0  0  0  0
   10.9039  -16.8303   22.8900 C   0  0  1  0  0  0  0  0  0  0  0  0
   12.3902  -16.6458   22.7630 C   0  0  0  0  0  0  0  0  0  0  0  0
   12.8734  -17.2655   21.5414 C   0  0  0  0  0  0  0  0  0  0  0  0
   12.4555  -18.4201   21.2283 O   0  0  0  0  0  0  0  0  0  0  0  0
   10.5312  -16.2328   24.2251 C   0  0  0  0  0  0  0  0  0  0  0  0
   10.7020  -15.0096   24.4520 O   0  0  0  0  0  0  0  0  0  0  0  0
   13.7758  -16.6809   20.6730 O   0  0  0  0  0  0  0  0  0  0  0  0
    9.9782  -17.0200   25.2676 N   0  0  0  0  0  0  0  0  0  0  0  0
    9.8934  -16.5610   26.6400 C   0  0  1  0  0  0  0  0  0  0  0  0
    8.4675  -16.5536   27.1439 C   0  0  0  0  0  0  0  0  0  0  0  0
    7.6228  -15.6056   26.3767 C   0  0  0  0  0  0  0  0  0  0  0  0
    6.7358  -15.9137   25.3671 C   0  0  0  0  0  0  0  0  0  0  0  0
    6.1598  -14.7837   24.9260 N   0  0  0  0  0  0  0  0  0  0  0  0
    6.6321  -13.7237   25.6079 C   0  0  0  0  0  0  0  0  0  0  0  0
    6.3742  -12.3570   25.5480 C   0  0  0  0  0  0  0  0  0  0  0  0
    7.0374  -11.5027   26.4021 C   0  0  0  0  0  0  0  0  0  0  0  0
    7.9500  -11.9931   27.3105 C   0  0  0  0  0  0  0  0  0  0  0  0
    8.2072  -13.3596   27.3697 C   0  0  0  0  0  0  0  0  0  0  0  0
    7.5445  -14.2212   26.5150 C   0  0  0  0  0  0  0  0  0  0  0  0
   10.7819  -17.3523   27.5208 C   0  0  0  0  0  0  0  0  0  0  0  0
   11.5236  -18.4198   27.0580 O   0  0  0  0  0  0  0  0  0  0  0  0
   10.8625  -17.0410   28.7300 O   0  0  0  0  0  0  0  0  0  0  0  0
  2  1  1  0
  3  2  1  0
  3  4  1  1
  5  7  1  0
  5  3  1  0
  6  5  2  0
  8  9  1  6
  8  7  1  0
 10 14  1  0
 10  9  1  0
 11 10  2  0
 12  8  1  0
 12 13  2  0
 15 12  1  0
 16 15  1  0
 16 27  1  0
 16 17  1  1
 18 17  1  0
 19 18  2  0
 20 19  1  0
 21 26  2  0
 21 20  1  0
 22 21  1  0
 23 22  2  0
 23 24  1  0
 24 25  2  0
 25 26  1  0
 26 18  1  0
 27 29  2  0
 27 28  1  0
M  END
$$$$
