SDW.pdb
     RDKit          3D

 29 30  0  0  1  0  0  0  0  0999 V2000
    6.9635  -13.4828   20.6202 O   0  0  0  0  0  0  0  0  0  0  0  0
    7.4148  -14.4236   21.5622 C   0  0  0  0  0  0  0  0  0  0  0  0
    7.7915  -15.7181   20.8696 C   0  0  2  0  0  0  0  0  0  0  0  0
    6.5777  -16.5080   20.6100 N   0  0  0  0  0  0  0  0  0  0  0  0
    8.6680  -16.5556   21.7018 C   0  0  0  0  0  0  0  0  0  0  0  0
    8.3712  -17.7542   22.0349 O   0  0  0  0  0  0  0  0  0  0  0  0
    9.9330  -16.1127   22.2176 N   0  0  0  0  0  0  0  0  0  0  0  0
   10.9217  -17.0283   22.7195 C   0  0  1  0  0  0  0  0  0  0  0  0
   12.3227  -16.7644   22.2433 C   0  0  0  0  0  0  0  0  0  0  0  0
   13.2344  -17.7598   22.7798 C   0  0  0  0  0  0  0  0  0  0  0  0
   14.2260  -17.3793   23.4709 O   0  0  0  0  0  0  0  0  0  0  0  0
   10.9861  -16.9746   24.2266 C   0  0  0  0  0  0  0  0  0  0  0  0
   11.7414  -17.7482   24.8655 O   0  0  0  0  0  0  0  0  0  0  0  0
   13.1026  -19.1225   22.5903 O   0  0  0  0  0  0  0  0  0  0  0  0
   10.2046  -16.0579   24.9755 N   0  0  0  0  0  0  0  0  0  0  0  0
   10.0936  -16.1147   26.4197 C   0  0  1  0  0  0  0  0  0  0  0  0
    8.7287  -16.5939   26.8609 C   0  0  0  0  0  0  0  0  0  0  0  0
    7.6433  -15.7952   26.2404 C   0  0  0  0  0  0  0  0  0  0  0  0
    6.5381  -16.2754   25.5704 C   0  0  0  0  0  0  0  0  0  0  0  0
    5.7870  -15.2406   25.1602 N   0  0  0  0  0  0  0  0  0  0  0  0
    6.3530  -14.0778   25.5335 C   0  0  0  0  0  0  0  0  0  0  0  0
    5.9947  -12.7432   25.3648 C   0  0  0  0  0  0  0  0  0  0  0  0
    6.8050  -11.7527   25.8760 C   0  0  0  0  0  0  0  0  0  0  0  0
    7.9624  -12.0761   26.5501 C   0  0  0  0  0  0  0  0  0  0  0  0
    8.3198  -13.4106   26.7184 C   0  0  0  0  0  0  0  0  0  0  0  0
    7.5103  -14.4084   26.2074 C   0  0  0  0  0  0  0  0  0  0  0  0
   11.1779  -16.9358   27.0041 C   0  0  0  0  0  0  0  0  0  0  0  0
   11.3075  -17.1318   28.3637 O   0  0  0  0  0  0  0  0  0  0  0  0
   12.0075  -17.4715   26.2357 O   0  0  0  0  0  0  0  0  0  0  0  0
  2  1  1  0
  3  2  1  0
  3  4  1  1
  5  7  1  0
  5  3  1  0
  6  5  2  0
  8  9  1  6
  8  7  1  0
 10 14  1  0
 10  9  1  0
 11 10  2  0
 12  8  1  0
 12 13  2  0
 15 12  1  0
 16 15  1  0
 16 27  1  0
 16 17  1  6
 18 17  1  0
 19 18  2  0
 20 19  1  0
 21 26  2  0
 21 20  1  0
 22 21  1  0
 23 22  2  0
 23 24  1  0
 24 25  2  0
 25 26  1  0
 26 18  1  0
 27 29  2  0
 27 28  1  0
M  END
$$$$
