SDW.pdb
     RDKit          3D

 29 30  0  0  1  0  0  0  0  0999 V2000
    6.1482  -16.5130   20.8781 O   0  0  0  0  0  0  0  0  0  0  0  0
    6.7779  -15.2641   20.7372 C   0  0  0  0  0  0  0  0  0  0  0  0
    8.1515  -15.4374   20.1204 C   0  0  2  0  0  0  0  0  0  0  0  0
    8.0203  -16.0675   18.7974 N   0  0  0  0  0  0  0  0  0  0  0  0
    9.0105  -16.3205   20.9232 C   0  0  0  0  0  0  0  0  0  0  0  0
    9.5494  -17.3806   20.4522 O   0  0  0  0  0  0  0  0  0  0  0  0
    9.3258  -16.0807   22.3036 N   0  0  0  0  0  0  0  0  0  0  0  0
   10.2547  -16.9004   23.0337 C   0  0  1  0  0  0  0  0  0  0  0  0
   11.6275  -16.9879   22.4276 C   0  0  0  0  0  0  0  0  0  0  0  0
   12.4823  -17.8409   23.2347 C   0  0  0  0  0  0  0  0  0  0  0  0
   13.6106  -17.4042   23.6114 O   0  0  0  0  0  0  0  0  0  0  0  0
   10.4587  -16.3657   24.4304 C   0  0  0  0  0  0  0  0  0  0  0  0
   11.1346  -15.3259   24.6281 O   0  0  0  0  0  0  0  0  0  0  0  0
   12.1541  -19.1231   23.6330 O   0  0  0  0  0  0  0  0  0  0  0  0
    9.9012  -17.0087   25.5653 N   0  0  0  0  0  0  0  0  0  0  0  0
   10.0448  -16.4922   26.9121 C   0  0  1  0  0  0  0  0  0  0  0  0
    8.7040  -16.2646   27.5735 C   0  0  0  0  0  0  0  0  0  0  0  0
    7.8014  -15.4598   26.7142 C   0  0  0  0  0  0  0  0  0  0  0  0
    6.8877  -15.9337   25.7968 C   0  0  0  0  0  0  0  0  0  0  0  0
    6.2598  -14.8948   25.2227 N   0  0  0  0  0  0  0  0  0  0  0  0
    6.7231  -13.7353   25.7255 C   0  0  0  0  0  0  0  0  0  0  0  0
    6.4196  -12.3989   25.4812 C   0  0  0  0  0  0  0  0  0  0  0  0
    7.0866  -11.4131   26.1757 C   0  0  0  0  0  0  0  0  0  0  0  0
    8.0477  -11.7430   27.1064 C   0  0  0  0  0  0  0  0  0  0  0  0
    8.3504  -13.0794   27.3500 C   0  0  0  0  0  0  0  0  0  0  0  0
    7.6842  -14.0725   26.6558 C   0  0  0  0  0  0  0  0  0  0  0  0
   10.9164  -17.3684   27.7270 C   0  0  0  0  0  0  0  0  0  0  0  0
   11.3358  -17.0225   28.9952 O   0  0  0  0  0  0  0  0  0  0  0  0
   11.2860  -18.4632   27.2472 O   0  0  0  0  0  0  0  0  0  0  0  0
  2  1  1  0
  3  2  1  0
  3  4  1  6
  5  7  1  0
  5  3  1  0
  6  5  2  0
  8  9  1  6
  8  7  1  0
 10 14  1  0
 10  9  1  0
 11 10  2  0
 12  8  1  0
 12 13  2  0
 15 12  1  0
 16 15  1  0
 16 27  1  0
 16 17  1  1
 18 17  1  0
 19 18  2  0
 20 19  1  0
 21 26  2  0
 21 20  1  0
 22 21  1  0
 23 22  2  0
 23 24  1  0
 24 25  2  0
 25 26  1  0
 26 18  1  0
 27 29  2  0
 27 28  1  0
M  END
$$$$
