SDW.pdb
     RDKit          3D

 29 30  0  0  1  0  0  0  0  0999 V2000
    9.3691  -17.3344   19.1647 O   0  0  0  0  0  0  0  0  0  0  0  0
    8.7785  -18.6013   19.3145 C   0  0  0  0  0  0  0  0  0  0  0  0
    8.4467  -18.8547   20.7716 C   0  0  2  0  0  0  0  0  0  0  0  0
    7.7068  -17.7048   21.3145 N   0  0  0  0  0  0  0  0  0  0  0  0
    9.6553  -19.0040   21.5958 C   0  0  0  0  0  0  0  0  0  0  0  0
   10.5580  -19.8768   21.3527 O   0  0  0  0  0  0  0  0  0  0  0  0
    9.9376  -18.1906   22.7452 N   0  0  0  0  0  0  0  0  0  0  0  0
   11.2420  -17.6394   22.9953 C   0  0  1  0  0  0  0  0  0  0  0  0
   11.7688  -16.7500   21.9041 C   0  0  0  0  0  0  0  0  0  0  0  0
   13.1422  -16.3679   22.1830 C   0  0  0  0  0  0  0  0  0  0  0  0
   13.4034  -15.1573   22.4509 O   0  0  0  0  0  0  0  0  0  0  0  0
   11.2355  -16.7923   24.2447 C   0  0  0  0  0  0  0  0  0  0  0  0
   12.2966  -16.2803   24.6794 O   0  0  0  0  0  0  0  0  0  0  0  0
   14.2126  -17.2422   22.1782 O   0  0  0  0  0  0  0  0  0  0  0  0
   10.0433  -16.5423   24.9715 N   0  0  0  0  0  0  0  0  0  0  0  0
    9.9978  -16.5058   26.4199 C   0  0  1  0  0  0  0  0  0  0  0  0
    8.5938  -16.2766   26.9332 C   0  0  0  0  0  0  0  0  0  0  0  0
    7.7989  -15.4463   25.9953 C   0  0  0  0  0  0  0  0  0  0  0  0
    7.1773  -15.8652   24.8381 C   0  0  0  0  0  0  0  0  0  0  0  0
    6.5549  -14.8203   24.2688 N   0  0  0  0  0  0  0  0  0  0  0  0
    6.7387  -13.7102   25.0075 C   0  0  0  0  0  0  0  0  0  0  0  0
    6.3188  -12.3901   24.8692 C   0  0  0  0  0  0  0  0  0  0  0  0
    6.6813  -11.4593   25.8185 C   0  0  0  0  0  0  0  0  0  0  0  0
    7.4536  -11.8277   26.8984 C   0  0  0  0  0  0  0  0  0  0  0  0
    7.8730  -13.1476   27.0358 C   0  0  0  0  0  0  0  0  0  0  0  0
    7.5120  -14.0857   26.0862 C   0  0  0  0  0  0  0  0  0  0  0  0
   10.6015  -17.7260   27.0014 C   0  0  0  0  0  0  0  0  0  0  0  0
   11.4467  -17.6866   28.0912 O   0  0  0  0  0  0  0  0  0  0  0  0
   10.3349  -18.8339   26.4847 O   0  0  0  0  0  0  0  0  0  0  0  0
  2  1  1  0
  3  2  1  0
  3  4  1  1
  5  7  1  0
  5  3  1  0
  6  5  2  0
  8  9  1  6
  8  7  1  0
 10 14  1  0
 10  9  1  0
 11 10  2  0
 12  8  1  0
 12 13  2  0
 15 12  1  0
 16 15  1  0
 16 27  1  0
 16 17  1  6
 18 17  1  0
 19 18  2  0
 20 19  1  0
 21 26  2  0
 21 20  1  0
 22 21  1  0
 23 22  2  0
 23 24  1  0
 24 25  2  0
 25 26  1  0
 26 18  1  0
 27 29  2  0
 27 28  1  0
M  END
$$$$
