SDW.pdb
     RDKit          3D

 29 30  0  0  1  0  0  0  0  0999 V2000
    7.1001  -13.3363   22.3029 O   0  0  0  0  0  0  0  0  0  0  0  0
    7.8004  -13.5159   21.0973 C   0  0  0  0  0  0  0  0  0  0  0  0
    7.5773  -14.9180   20.5665 C   0  0  2  0  0  0  0  0  0  0  0  0
    6.1340  -15.1976   20.5083 N   0  0  0  0  0  0  0  0  0  0  0  0
    8.1685  -15.9410   21.4417 C   0  0  0  0  0  0  0  0  0  0  0  0
    7.4673  -16.6967   22.1986 O   0  0  0  0  0  0  0  0  0  0  0  0
    9.5802  -16.1894   21.5313 N   0  0  0  0  0  0  0  0  0  0  0  0
   10.1397  -17.1117   22.4821 C   0  0  1  0  0  0  0  0  0  0  0  0
   11.5328  -17.5768   22.1625 C   0  0  0  0  0  0  0  0  0  0  0  0
   11.5622  -18.2285   20.8647 C   0  0  0  0  0  0  0  0  0  0  0  0
   10.7869  -19.2072   20.6481 O   0  0  0  0  0  0  0  0  0  0  0  0
   10.2234  -16.4841   23.8524 C   0  0  0  0  0  0  0  0  0  0  0  0
   10.7552  -15.3576   24.0119 O   0  0  0  0  0  0  0  0  0  0  0  0
   12.3901  -17.8565   19.8224 O   0  0  0  0  0  0  0  0  0  0  0  0
    9.7104  -17.1338   25.0042 N   0  0  0  0  0  0  0  0  0  0  0  0
   10.0061  -16.6936   26.3533 C   0  0  1  0  0  0  0  0  0  0  0  0
    8.7475  -16.3909   27.1352 C   0  0  0  0  0  0  0  0  0  0  0  0
    7.7949  -15.5763   26.3414 C   0  0  0  0  0  0  0  0  0  0  0  0
    6.8579  -16.0373   25.4411 C   0  0  0  0  0  0  0  0  0  0  0  0
    6.1854  -14.9930   24.9310 N   0  0  0  0  0  0  0  0  0  0  0  0
    6.6411  -13.8424   25.4604 C   0  0  0  0  0  0  0  0  0  0  0  0
    6.2983  -12.5054   25.2790 C   0  0  0  0  0  0  0  0  0  0  0  0
    6.9687  -11.5306   25.9858 C   0  0  0  0  0  0  0  0  0  0  0  0
    7.9717  -11.8720   26.8667 C   0  0  0  0  0  0  0  0  0  0  0  0
    8.3136  -13.2089   27.0474 C   0  0  0  0  0  0  0  0  0  0  0  0
    7.6441  -14.1910   26.3408 C   0  0  0  0  0  0  0  0  0  0  0  0
   10.8652  -17.6734   27.0556 C   0  0  0  0  0  0  0  0  0  0  0  0
   11.2640  -18.8593   26.4739 O   0  0  0  0  0  0  0  0  0  0  0  0
   11.2433  -17.4159   28.2203 O   0  0  0  0  0  0  0  0  0  0  0  0
  2  1  1  0
  3  2  1  0
  3  4  1  1
  5  7  1  0
  5  3  1  0
  6  5  2  0
  8  9  1  6
  8  7  1  0
 10 14  1  0
 10  9  1  0
 11 10  2  0
 12  8  1  0
 12 13  2  0
 15 12  1  0
 16 15  1  0
 16 27  1  0
 16 17  1  1
 18 17  1  0
 19 18  2  0
 20 19  1  0
 21 26  2  0
 21 20  1  0
 22 21  1  0
 23 22  2  0
 23 24  1  0
 24 25  2  0
 25 26  1  0
 26 18  1  0
 27 29  2  0
 27 28  1  0
M  END
$$$$
