SDW.pdb
     RDKit          3D

 29 30  0  0  1  0  0  0  0  0999 V2000
    6.0191  -16.0976   21.2446 O   0  0  0  0  0  0  0  0  0  0  0  0
    6.7667  -15.0332   20.7114 C   0  0  0  0  0  0  0  0  0  0  0  0
    7.9532  -15.5657   19.9329 C   0  0  2  0  0  0  0  0  0  0  0  0
    7.4764  -16.4124   18.8282 N   0  0  0  0  0  0  0  0  0  0  0  0
    8.8253  -16.4097   20.7631 C   0  0  0  0  0  0  0  0  0  0  0  0
    9.3007  -17.5260   20.3586 O   0  0  0  0  0  0  0  0  0  0  0  0
    9.2253  -16.0655   22.0988 N   0  0  0  0  0  0  0  0  0  0  0  0
   10.3461  -16.6878   22.7502 C   0  0  1  0  0  0  0  0  0  0  0  0
   11.6761  -16.4256   22.1010 C   0  0  0  0  0  0  0  0  0  0  0  0
   12.7235  -17.1720   22.7760 C   0  0  0  0  0  0  0  0  0  0  0  0
   12.5364  -18.3975   23.0385 O   0  0  0  0  0  0  0  0  0  0  0  0
   10.4814  -16.1959   24.1708 C   0  0  0  0  0  0  0  0  0  0  0  0
   11.0846  -15.1242   24.4250 O   0  0  0  0  0  0  0  0  0  0  0  0
   13.9373  -16.6374   23.1647 O   0  0  0  0  0  0  0  0  0  0  0  0
    9.9386  -16.9161   25.2657 N   0  0  0  0  0  0  0  0  0  0  0  0
   10.0129  -16.4424   26.6337 C   0  0  1  0  0  0  0  0  0  0  0  0
    8.6498  -16.3922   27.2868 C   0  0  0  0  0  0  0  0  0  0  0  0
    7.6640  -15.6797   26.4374 C   0  0  0  0  0  0  0  0  0  0  0  0
    6.7155  -16.2464   25.6127 C   0  0  0  0  0  0  0  0  0  0  0  0
    6.0117  -15.2715   25.0150 N   0  0  0  0  0  0  0  0  0  0  0  0
    6.4575  -14.0651   25.4120 C   0  0  0  0  0  0  0  0  0  0  0  0
    6.0854  -12.7598   25.1028 C   0  0  0  0  0  0  0  0  0  0  0  0
    6.7532  -11.7064   25.6889 C   0  0  0  0  0  0  0  0  0  0  0  0
    7.7824  -11.9386   26.5751 C   0  0  0  0  0  0  0  0  0  0  0  0
    8.1538  -13.2439   26.8835 C   0  0  0  0  0  0  0  0  0  0  0  0
    7.4870  -14.3045   26.2983 C   0  0  0  0  0  0  0  0  0  0  0  0
   10.9699  -17.2492   27.4240 C   0  0  0  0  0  0  0  0  0  0  0  0
   11.6441  -18.3292   26.8921 O   0  0  0  0  0  0  0  0  0  0  0  0
   11.1745  -16.9396   28.6190 O   0  0  0  0  0  0  0  0  0  0  0  0
  2  1  1  0
  3  2  1  0
  3  4  1  6
  5  7  1  0
  5  3  1  0
  6  5  2  0
  8  9  1  6
  8  7  1  0
 10 14  1  0
 10  9  1  0
 11 10  2  0
 12  8  1  0
 12 13  2  0
 15 12  1  0
 16 15  1  0
 16 27  1  0
 16 17  1  1
 18 17  1  0
 19 18  2  0
 20 19  1  0
 21 26  2  0
 21 20  1  0
 22 21  1  0
 23 22  2  0
 23 24  1  0
 24 25  2  0
 25 26  1  0
 26 18  1  0
 27 29  2  0
 27 28  1  0
M  END
$$$$
