SDW.pdb
     RDKit          3D

 29 30  0  0  1  0  0  0  0  0999 V2000
   13.7938  -16.0853   21.0890 O   0  0  0  0  0  0  0  0  0  0  0  0
   12.9688  -17.2228   21.1300 C   0  0  0  0  0  0  0  0  0  0  0  0
   11.5820  -16.8818   20.6222 C   0  0  2  0  0  0  0  0  0  0  0  0
   11.6867  -15.9157   19.5176 N   0  0  0  0  0  0  0  0  0  0  0  0
   10.7544  -16.2471   21.6587 C   0  0  0  0  0  0  0  0  0  0  0  0
   11.2074  -15.3620   22.4633 O   0  0  0  0  0  0  0  0  0  0  0  0
    9.3677  -16.5566   21.8671 N   0  0  0  0  0  0  0  0  0  0  0  0
    8.9410  -17.6867   22.6472 C   0  0  1  0  0  0  0  0  0  0  0  0
    9.5362  -19.0016   22.2275 C   0  0  0  0  0  0  0  0  0  0  0  0
    8.5758  -19.7655   21.4505 C   0  0  0  0  0  0  0  0  0  0  0  0
    7.4762  -20.0992   21.9845 O   0  0  0  0  0  0  0  0  0  0  0  0
    9.3209  -17.5113   24.0975 C   0  0  0  0  0  0  0  0  0  0  0  0
    9.0713  -18.4082   24.9402 O   0  0  0  0  0  0  0  0  0  0  0  0
    8.7722  -20.1677   20.1428 O   0  0  0  0  0  0  0  0  0  0  0  0
    9.9688  -16.3385   24.5634 N   0  0  0  0  0  0  0  0  0  0  0  0
   10.2602  -16.1041   25.9639 C   0  0  1  0  0  0  0  0  0  0  0  0
    9.0397  -16.3052   26.8340 C   0  0  0  0  0  0  0  0  0  0  0  0
    7.8725  -15.5474   26.3200 C   0  0  0  0  0  0  0  0  0  0  0  0
    6.6987  -16.0695   25.8194 C   0  0  0  0  0  0  0  0  0  0  0  0
    5.8861  -15.0627   25.4602 N   0  0  0  0  0  0  0  0  0  0  0  0
    6.4770  -13.8781   25.7035 C   0  0  0  0  0  0  0  0  0  0  0  0
    6.0800  -12.5566   25.5195 C   0  0  0  0  0  0  0  0  0  0  0  0
    6.9334  -11.5352   25.8765 C   0  0  0  0  0  0  0  0  0  0  0  0
    8.1716  -11.8150   26.4122 C   0  0  0  0  0  0  0  0  0  0  0  0
    8.5677  -13.1364   26.5959 C   0  0  0  0  0  0  0  0  0  0  0  0
    7.7152  -14.1652   26.2394 C   0  0  0  0  0  0  0  0  0  0  0  0
   11.3987  -16.9352   26.4161 C   0  0  0  0  0  0  0  0  0  0  0  0
   12.0498  -17.8176   25.5787 O   0  0  0  0  0  0  0  0  0  0  0  0
   11.7841  -16.8333   27.6021 O   0  0  0  0  0  0  0  0  0  0  0  0
  2  1  1  0
  3  2  1  0
  3  4  1  6
  5  7  1  0
  5  3  1  0
  6  5  2  0
  8  9  1  6
  8  7  1  0
 10 14  1  0
 10  9  1  0
 11 10  2  0
 12  8  1  0
 12 13  2  0
 15 12  1  0
 16 15  1  0
 16 27  1  0
 16 17  1  1
 18 17  1  0
 19 18  2  0
 20 19  1  0
 21 26  2  0
 21 20  1  0
 22 21  1  0
 23 22  2  0
 23 24  1  0
 24 25  2  0
 25 26  1  0
 26 18  1  0
 27 29  2  0
 27 28  1  0
M  END
$$$$
