SDW.pdb
     RDKit          3D

 29 30  0  0  1  0  0  0  0  0999 V2000
    7.4243  -19.1182   24.4652 O   0  0  0  0  0  0  0  0  0  0  0  0
    6.3881  -19.0099   23.5213 C   0  0  0  0  0  0  0  0  0  0  0  0
    6.9583  -19.0043   22.1169 C   0  0  2  0  0  0  0  0  0  0  0  0
    7.0339  -20.3840   21.6116 N   0  0  0  0  0  0  0  0  0  0  0  0
    8.3264  -18.4669   22.0779 C   0  0  0  0  0  0  0  0  0  0  0  0
    9.3643  -19.2128   22.0306 O   0  0  0  0  0  0  0  0  0  0  0  0
    8.6283  -17.0629   22.0890 N   0  0  0  0  0  0  0  0  0  0  0  0
    9.9692  -16.5637   21.9450 C   0  0  1  0  0  0  0  0  0  0  0  0
   10.0857  -15.2947   21.1479 C   0  0  0  0  0  0  0  0  0  0  0  0
    9.9231  -15.5715   19.7313 C   0  0  0  0  0  0  0  0  0  0  0  0
   10.4383  -16.6220   19.2449 O   0  0  0  0  0  0  0  0  0  0  0  0
   10.5742  -16.2557   23.2931 C   0  0  0  0  0  0  0  0  0  0  0  0
   11.7636  -15.8644   23.3894 O   0  0  0  0  0  0  0  0  0  0  0  0
    9.2344  -14.7588   18.8506 O   0  0  0  0  0  0  0  0  0  0  0  0
    9.8322  -16.3938   24.4941 N   0  0  0  0  0  0  0  0  0  0  0  0
   10.4320  -16.2717   25.8082 C   0  0  1  0  0  0  0  0  0  0  0  0
    9.9064  -15.0676   26.5570 C   0  0  0  0  0  0  0  0  0  0  0  0
    8.4508  -14.8820   26.3386 C   0  0  0  0  0  0  0  0  0  0  0  0
    7.5043  -15.8699   26.1681 C   0  0  0  0  0  0  0  0  0  0  0  0
    6.2989  -15.3019   26.0022 N   0  0  0  0  0  0  0  0  0  0  0  0
    6.4048  -13.9611   26.0557 C   0  0  0  0  0  0  0  0  0  0  0  0
    5.4822  -12.9245   25.9448 C   0  0  0  0  0  0  0  0  0  0  0  0
    5.9122  -11.6192   26.0453 C   0  0  0  0  0  0  0  0  0  0  0  0
    7.2446  -11.3370   26.2542 C   0  0  0  0  0  0  0  0  0  0  0  0
    8.1662  -12.3739   26.3649 C   0  0  0  0  0  0  0  0  0  0  0  0
    7.7402  -13.6856   26.2648 C   0  0  0  0  0  0  0  0  0  0  0  0
   10.2625  -17.5188   26.5876 C   0  0  0  0  0  0  0  0  0  0  0  0
   10.9272  -17.7458   27.7752 O   0  0  0  0  0  0  0  0  0  0  0  0
    9.4873  -18.3994   26.1525 O   0  0  0  0  0  0  0  0  0  0  0  0
  2  1  1  0
  3  2  1  0
  3  4  1  1
  5  7  1  0
  5  3  1  0
  6  5  2  0
  8  9  1  6
  8  7  1  0
 10 14  1  0
 10  9  1  0
 11 10  2  0
 12  8  1  0
 12 13  2  0
 15 12  1  0
 16 15  1  0
 16 27  1  0
 16 17  1  1
 18 17  1  0
 19 18  2  0
 20 19  1  0
 21 26  2  0
 21 20  1  0
 22 21  1  0
 23 22  2  0
 23 24  1  0
 24 25  2  0
 25 26  1  0
 26 18  1  0
 27 29  2  0
 27 28  1  0
M  END
$$$$
