MVD.pdb
     RDKit          3D

 24 23  0  0  1  0  0  0  0  0999 V2000
   31.7337  -23.0847   -9.6951 C   0  0  0  0  0  0  0  0  0  0  0  0
   32.5058  -21.5760  -10.3505 S   0  0  0  0  0  0  0  0  0  0  0  0
   31.2879  -20.7388  -11.3936 C   0  0  0  0  0  0  0  0  0  0  0  0
   30.1259  -21.6435  -11.7421 C   0  0  0  0  0  0  0  0  0  0  0  0
   29.1501  -20.8469  -12.5725 C   0  0  2  0  0  0  0  0  0  0  0  0
   29.2320  -19.4659  -12.1037 N   0  0  0  0  0  0  0  0  0  0  0  0
   27.7573  -21.3551  -12.3932 C   0  0  0  0  0  0  0  0  0  0  0  0
   27.5042  -22.5378  -12.7196 O   0  0  0  0  0  0  0  0  0  0  0  0
   24.7411  -19.4670   -9.7300 C   0  0  0  0  0  0  0  0  0  0  0  0
   25.1381  -20.8644  -10.1520 C   0  0  2  0  0  0  0  0  0  0  0  0
   26.2547  -21.4117   -9.2921 C   0  0  0  0  0  0  0  0  0  0  0  0
   25.3676  -21.0475  -11.6041 C   0  0  2  0  0  0  0  0  0  0  0  0
   26.7254  -20.5607  -11.8749 N   0  0  0  0  0  0  0  0  0  0  0  0
   24.3924  -20.5028  -12.5301 C   0  0  0  0  0  0  0  0  0  0  0  0
   24.4684  -19.2485  -12.7805 O   0  0  0  0  0  0  0  0  0  0  0  0
   23.3618  -21.1818  -13.1973 N   0  0  0  0  0  0  0  0  0  0  0  0
   22.3879  -20.5100  -14.0862 C   0  0  1  0  0  0  0  0  0  0  0  0
   22.4121  -21.3255  -15.3483 C   0  0  0  0  0  0  0  0  0  0  0  0
   21.4227  -20.9568  -16.3522 C   0  0  0  0  0  0  0  0  0  0  0  0
   20.7206  -19.9231  -16.0905 O   0  0  0  0  0  0  0  0  0  0  0  0
   21.0168  -20.6725  -13.4795 C   0  0  0  0  0  0  0  0  0  0  0  0
   19.9999  -19.7737  -13.7699 O   0  0  0  0  0  0  0  0  0  0  0  0
   21.1523  -21.5855  -17.5445 O   0  0  0  0  0  0  0  0  0  0  0  0
   20.7558  -21.6145  -12.7025 O   0  0  0  0  0  0  0  0  0  0  0  0
  2  1  1  0
  3  2  1  0
  4  3  1  0
  5  4  1  0
  5  7  1  0
  5  6  1  1
  7 13  1  0
  8  7  2  0
 10  9  1  6
 10 12  1  0
 10 11  1  0
 12 14  1  0
 12 13  1  6
 14 15  2  0
 16 14  1  0
 16 17  1  0
 17 21  1  0
 17 18  1  6
 19 18  1  0
 20 19  2  0
 21 24  2  0
 21 22  1  0
 23 19  1  0
M  END
$$$$
