MVD.pdb
     RDKit          3D

 24 23  0  0  1  0  0  0  0  0999 V2000
   26.8956  -20.3922   -4.3267 C   0  0  0  0  0  0  0  0  0  0  0  0
   28.2028  -19.3598   -5.0528 S   0  0  0  0  0  0  0  0  0  0  0  0
   27.4052  -18.0093   -5.9542 C   0  0  0  0  0  0  0  0  0  0  0  0
   27.4842  -18.2062   -7.4525 C   0  0  0  0  0  0  0  0  0  0  0  0
   27.0427  -19.6157   -7.7595 C   0  0  2  0  0  0  0  0  0  0  0  0
   28.0909  -20.5009   -7.2580 N   0  0  0  0  0  0  0  0  0  0  0  0
   26.8795  -19.8156   -9.2305 C   0  0  0  0  0  0  0  0  0  0  0  0
   27.8337  -19.5173   -9.9854 O   0  0  0  0  0  0  0  0  0  0  0  0
   27.2006  -22.4843  -10.9658 C   0  0  0  0  0  0  0  0  0  0  0  0
   25.8243  -22.0425  -11.4119 C   0  0  2  0  0  0  0  0  0  0  0  0
   25.4958  -22.5515  -12.7971 C   0  0  0  0  0  0  0  0  0  0  0  0
   25.5294  -20.6024  -11.2271 C   0  0  2  0  0  0  0  0  0  0  0  0
   25.7020  -20.3231   -9.7967 N   0  0  0  0  0  0  0  0  0  0  0  0
   24.2761  -20.0839  -11.7423 C   0  0  0  0  0  0  0  0  0  0  0  0
   23.2657  -20.1224  -10.9552 O   0  0  0  0  0  0  0  0  0  0  0  0
   24.0234  -19.5371  -13.0093 N   0  0  0  0  0  0  0  0  0  0  0  0
   22.7168  -18.9634  -13.4012 C   0  0  1  0  0  0  0  0  0  0  0  0
   22.9771  -18.3222  -14.7353 C   0  0  0  0  0  0  0  0  0  0  0  0
   21.8286  -17.6741  -15.3544 C   0  0  0  0  0  0  0  0  0  0  0  0
   21.0850  -18.4234  -16.0725 O   0  0  0  0  0  0  0  0  0  0  0  0
   21.7605  -20.1054  -13.6373 C   0  0  0  0  0  0  0  0  0  0  0  0
   20.4295  -20.0085  -13.2557 O   0  0  0  0  0  0  0  0  0  0  0  0
   21.4487  -16.3561  -15.2612 O   0  0  0  0  0  0  0  0  0  0  0  0
   22.1339  -21.1662  -14.1798 O   0  0  0  0  0  0  0  0  0  0  0  0
  2  1  1  0
  3  2  1  0
  4  3  1  0
  5  4  1  0
  5  7  1  0
  5  6  1  6
  7 13  1  0
  8  7  2  0
 10  9  1  6
 10 12  1  0
 10 11  1  0
 12 14  1  0
 12 13  1  1
 14 15  2  0
 16 14  1  0
 16 17  1  0
 17 21  1  0
 17 18  1  6
 19 18  1  0
 20 19  2  0
 21 24  2  0
 21 22  1  0
 23 19  1  0
M  END
$$$$
