MVD.pdb
     RDKit          3D

 24 23  0  0  1  0  0  0  0  0999 V2000
   17.1931  -12.8744  -17.6742 C   0  0  0  0  0  0  0  0  0  0  0  0
   18.0472  -14.4682  -17.8541 S   0  0  0  0  0  0  0  0  0  0  0  0
   19.8255  -14.1407  -17.9060 C   0  0  0  0  0  0  0  0  0  0  0  0
   20.2282  -13.0537  -16.9333 C   0  0  0  0  0  0  0  0  0  0  0  0
   21.7183  -12.8513  -17.0540 C   0  0  2  0  0  0  0  0  0  0  0  0
   22.3402  -14.1415  -16.7667 N   0  0  0  0  0  0  0  0  0  0  0  0
   22.2000  -11.8334  -16.0731 C   0  0  0  0  0  0  0  0  0  0  0  0
   21.9483  -12.0059  -14.8580 O   0  0  0  0  0  0  0  0  0  0  0  0
   25.4956   -9.3283  -16.8878 C   0  0  0  0  0  0  0  0  0  0  0  0
   24.8670   -9.7001  -15.5631 C   0  0  2  0  0  0  0  0  0  0  0  0
   25.4468  -10.9820  -15.0097 C   0  0  0  0  0  0  0  0  0  0  0  0
   23.3864   -9.6595  -15.5299 C   0  0  2  0  0  0  0  0  0  0  0  0
   22.9212  -10.6955  -16.4597 N   0  0  0  0  0  0  0  0  0  0  0  0
   22.7267   -8.3861  -15.7493 C   0  0  0  0  0  0  0  0  0  0  0  0
   22.1217   -8.2320  -16.8683 O   0  0  0  0  0  0  0  0  0  0  0  0
   22.6639   -7.2852  -14.8820 N   0  0  0  0  0  0  0  0  0  0  0  0
   21.9722   -6.0216  -15.2208 C   0  0  1  0  0  0  0  0  0  0  0  0
   20.5146   -6.3877  -15.2350 C   0  0  0  0  0  0  0  0  0  0  0  0
   19.5933   -5.2848  -15.4746 C   0  0  0  0  0  0  0  0  0  0  0  0
   19.9064   -4.4928  -16.4258 O   0  0  0  0  0  0  0  0  0  0  0  0
   22.1765   -5.0596  -14.0775 C   0  0  0  0  0  0  0  0  0  0  0  0
   21.7214   -3.7510  -14.1595 O   0  0  0  0  0  0  0  0  0  0  0  0
   18.4305   -4.9924  -14.8021 O   0  0  0  0  0  0  0  0  0  0  0  0
   22.7576   -5.4083  -13.0287 O   0  0  0  0  0  0  0  0  0  0  0  0
  2  1  1  0
  3  2  1  0
  4  3  1  0
  5  4  1  0
  5  7  1  0
  5  6  1  1
  7 13  1  0
  8  7  2  0
 10  9  1  6
 10 12  1  0
 10 11  1  0
 12 14  1  0
 12 13  1  6
 14 15  2  0
 16 14  1  0
 16 17  1  0
 17 21  1  0
 17 18  1  1
 19 18  1  0
 20 19  2  0
 21 24  2  0
 21 22  1  0
 23 19  1  0
M  END
$$$$
