MVD.pdb
     RDKit          3D

 24 23  0  0  1  0  0  0  0  0999 V2000
   17.0413  -15.5109  -18.3812 C   0  0  0  0  0  0  0  0  0  0  0  0
   17.8098  -17.1145  -18.7555 S   0  0  0  0  0  0  0  0  0  0  0  0
   19.4353  -17.1481  -17.9625 C   0  0  0  0  0  0  0  0  0  0  0  0
   19.7111  -15.8790  -17.1857 C   0  0  0  0  0  0  0  0  0  0  0  0
   21.0650  -16.0179  -16.5349 C   0  0  2  0  0  0  0  0  0  0  0  0
   20.9940  -17.1916  -15.6682 N   0  0  0  0  0  0  0  0  0  0  0  0
   21.3910  -14.8109  -15.7180 C   0  0  0  0  0  0  0  0  0  0  0  0
   20.8190  -14.6624  -14.6134 O   0  0  0  0  0  0  0  0  0  0  0  0
   24.7775  -13.8832  -14.5517 C   0  0  0  0  0  0  0  0  0  0  0  0
   24.1798  -12.6910  -15.2656 C   0  0  2  0  0  0  0  0  0  0  0  0
   24.7739  -11.3903  -14.7747 C   0  0  0  0  0  0  0  0  0  0  0  0
   22.7004  -12.6728  -15.3407 C   0  0  2  0  0  0  0  0  0  0  0  0
   22.3104  -13.8405  -16.1396 N   0  0  0  0  0  0  0  0  0  0  0  0
   22.0479  -11.4566  -15.7882 C   0  0  0  0  0  0  0  0  0  0  0  0
   22.2652  -11.0935  -16.9976 O   0  0  0  0  0  0  0  0  0  0  0  0
   21.1966  -10.6142  -15.0574 N   0  0  0  0  0  0  0  0  0  0  0  0
   20.5795   -9.3936  -15.6226 C   0  0  1  0  0  0  0  0  0  0  0  0
   19.2555   -9.2865  -14.9197 C   0  0  0  0  0  0  0  0  0  0  0  0
   18.4899   -8.0802  -15.2047 C   0  0  0  0  0  0  0  0  0  0  0  0
   17.5281   -7.8275  -14.4041 O   0  0  0  0  0  0  0  0  0  0  0  0
   21.4087   -8.2109  -15.1888 C   0  0  0  0  0  0  0  0  0  0  0  0
   22.5080   -8.3797  -14.3585 O   0  0  0  0  0  0  0  0  0  0  0  0
   18.6755   -7.1827  -16.2294 O   0  0  0  0  0  0  0  0  0  0  0  0
   21.1338   -7.0511  -15.5608 O   0  0  0  0  0  0  0  0  0  0  0  0
  2  1  1  0
  3  2  1  0
  4  3  1  0
  5  4  1  0
  5  7  1  0
  5  6  1  1
  7 13  1  0
  8  7  2  0
 10  9  1  1
 10 12  1  0
 10 11  1  0
 12 14  1  0
 12 13  1  6
 14 15  2  0
 16 14  1  0
 16 17  1  0
 17 21  1  0
 17 18  1  1
 19 18  1  0
 20 19  2  0
 21 24  2  0
 21 22  1  0
 23 19  1  0
M  END
$$$$
