MVD.pdb
     RDKit          3D

 24 23  0  0  1  0  0  0  0  0999 V2000
   26.3150  -16.6834  -17.3737 C   0  0  0  0  0  0  0  0  0  0  0  0
   27.7824  -17.4636  -18.1086 S   0  0  0  0  0  0  0  0  0  0  0  0
   28.3497  -18.7542  -16.9750 C   0  0  0  0  0  0  0  0  0  0  0  0
   27.1987  -19.4059  -16.2399 C   0  0  0  0  0  0  0  0  0  0  0  0
   27.7762  -20.3830  -15.2461 C   0  0  2  0  0  0  0  0  0  0  0  0
   28.3786  -21.4632  -16.0234 N   0  0  0  0  0  0  0  0  0  0  0  0
   26.7090  -20.9377  -14.3608 C   0  0  0  0  0  0  0  0  0  0  0  0
   26.0433  -21.9183  -14.7667 O   0  0  0  0  0  0  0  0  0  0  0  0
   27.1533  -21.3390  -10.5161 C   0  0  0  0  0  0  0  0  0  0  0  0
   25.8185  -20.7015  -10.8327 C   0  0  2  0  0  0  0  0  0  0  0  0
   24.7755  -21.0429   -9.7927 C   0  0  0  0  0  0  0  0  0  0  0  0
   25.3443  -20.8802  -12.2248 C   0  0  2  0  0  0  0  0  0  0  0  0
   26.4249  -20.4040  -13.0963 N   0  0  0  0  0  0  0  0  0  0  0  0
   24.0555  -20.3233  -12.5908 C   0  0  0  0  0  0  0  0  0  0  0  0
   24.0300  -19.0828  -12.9110 O   0  0  0  0  0  0  0  0  0  0  0  0
   22.8152  -20.9768  -12.6410 N   0  0  0  0  0  0  0  0  0  0  0  0
   21.5836  -20.3444  -13.1638 C   0  0  1  0  0  0  0  0  0  0  0  0
   21.8432  -20.1848  -14.6354 C   0  0  0  0  0  0  0  0  0  0  0  0
   20.8279  -19.4467  -15.3750 C   0  0  0  0  0  0  0  0  0  0  0  0
   19.8812  -18.9489  -14.6778 O   0  0  0  0  0  0  0  0  0  0  0  0
   20.4554  -21.3344  -13.0175 C   0  0  0  0  0  0  0  0  0  0  0  0
   20.6983  -22.7003  -13.0592 O   0  0  0  0  0  0  0  0  0  0  0  0
   20.7641  -19.2218  -16.7297 O   0  0  0  0  0  0  0  0  0  0  0  0
   19.2758  -20.9585  -12.8552 O   0  0  0  0  0  0  0  0  0  0  0  0
  2  1  1  0
  3  2  1  0
  4  3  1  0
  5  4  1  0
  5  7  1  0
  5  6  1  6
  7 13  1  0
  8  7  2  0
 10  9  1  1
 10 12  1  0
 10 11  1  0
 12 14  1  0
 12 13  1  6
 14 15  2  0
 16 14  1  0
 16 17  1  0
 17 21  1  0
 17 18  1  6
 19 18  1  0
 20 19  2  0
 21 24  2  0
 21 22  1  0
 23 19  1  0
M  END
$$$$
