MVD.pdb
     RDKit          3D

 24 23  0  0  1  0  0  0  0  0999 V2000
   27.2127   -7.7009  -22.2700 C   0  0  0  0  0  0  0  0  0  0  0  0
   26.7787   -9.4260  -22.6413 S   0  0  0  0  0  0  0  0  0  0  0  0
   24.9791   -9.5230  -22.7969 C   0  0  0  0  0  0  0  0  0  0  0  0
   24.2840   -9.2785  -21.4752 C   0  0  0  0  0  0  0  0  0  0  0  0
   24.5598  -10.4609  -20.5798 C   0  0  2  0  0  0  0  0  0  0  0  0
   23.8297  -11.5929  -21.1451 N   0  0  0  0  0  0  0  0  0  0  0  0
   24.0815  -10.2006  -19.1892 C   0  0  0  0  0  0  0  0  0  0  0  0
   22.8693  -10.3799  -18.9288 O   0  0  0  0  0  0  0  0  0  0  0  0
   25.4757  -11.8361  -16.2419 C   0  0  0  0  0  0  0  0  0  0  0  0
   25.4394  -10.3551  -15.9360 C   0  0  2  0  0  0  0  0  0  0  0  0
   25.2841  -10.0940  -14.4550 C   0  0  0  0  0  0  0  0  0  0  0  0
   24.5168   -9.5563  -16.7759 C   0  0  2  0  0  0  0  0  0  0  0  0
   24.9357   -9.7643  -18.1671 N   0  0  0  0  0  0  0  0  0  0  0  0
   24.3374   -8.1518  -16.4589 C   0  0  0  0  0  0  0  0  0  0  0  0
   25.3823   -7.4111  -16.4963 O   0  0  0  0  0  0  0  0  0  0  0  0
   23.1502   -7.4896  -16.1122 N   0  0  0  0  0  0  0  0  0  0  0  0
   23.0898   -6.0480  -15.7830 C   0  0  1  0  0  0  0  0  0  0  0  0
   21.8705   -5.5517  -16.5079 C   0  0  0  0  0  0  0  0  0  0  0  0
   22.0892   -4.4238  -17.4037 C   0  0  0  0  0  0  0  0  0  0  0  0
   23.2738   -3.9480  -17.4230 O   0  0  0  0  0  0  0  0  0  0  0  0
   22.8104   -5.9205  -14.3065 C   0  0  0  0  0  0  0  0  0  0  0  0
   22.3271   -6.9989  -13.5787 O   0  0  0  0  0  0  0  0  0  0  0  0
   21.1772   -3.8094  -18.2288 O   0  0  0  0  0  0  0  0  0  0  0  0
   23.0040   -4.8479  -13.6972 O   0  0  0  0  0  0  0  0  0  0  0  0
  2  1  1  0
  3  2  1  0
  4  3  1  0
  5  4  1  0
  5  7  1  0
  5  6  1  6
  7 13  1  0
  8  7  2  0
 10  9  1  1
 10 12  1  0
 10 11  1  0
 12 14  1  0
 12 13  1  6
 14 15  2  0
 16 14  1  0
 16 17  1  0
 17 21  1  0
 17 18  1  6
 19 18  1  0
 20 19  2  0
 21 24  2  0
 21 22  1  0
 23 19  1  0
M  END
$$$$
