MVD.pdb
     RDKit          3D

 24 23  0  0  1  0  0  0  0  0999 V2000
   20.5927  -18.7500  -10.1356 C   0  0  0  0  0  0  0  0  0  0  0  0
   20.5959  -20.5463   -9.8613 S   0  0  0  0  0  0  0  0  0  0  0  0
   22.2962  -21.1329  -10.0546 C   0  0  0  0  0  0  0  0  0  0  0  0
   23.1375  -20.1695  -10.8633 C   0  0  0  0  0  0  0  0  0  0  0  0
   24.5323  -20.7367  -10.9570 C   0  0  2  0  0  0  0  0  0  0  0  0
   25.1260  -20.6084   -9.6285 N   0  0  0  0  0  0  0  0  0  0  0  0
   25.3521  -19.9771  -11.9475 C   0  0  0  0  0  0  0  0  0  0  0  0
   25.7370  -18.8232  -11.6478 O   0  0  0  0  0  0  0  0  0  0  0  0
   28.5894  -20.2841  -12.9250 C   0  0  0  0  0  0  0  0  0  0  0  0
   27.8270  -20.3731  -14.2285 C   0  0  2  0  0  0  0  0  0  0  0  0
   28.6702  -19.9250  -15.4007 C   0  0  0  0  0  0  0  0  0  0  0  0
   26.4721  -19.7743  -14.2131 C   0  0  2  0  0  0  0  0  0  0  0  0
   25.7061  -20.5052  -13.1967 N   0  0  0  0  0  0  0  0  0  0  0  0
   25.7538  -19.6620  -15.4688 C   0  0  0  0  0  0  0  0  0  0  0  0
   25.4309  -20.7564  -16.0517 O   0  0  0  0  0  0  0  0  0  0  0  0
   25.3607  -18.4928  -16.1371 N   0  0  0  0  0  0  0  0  0  0  0  0
   24.6368  -18.4986  -17.4279 C   0  0  1  0  0  0  0  0  0  0  0  0
   23.7435  -17.2921  -17.3588 C   0  0  0  0  0  0  0  0  0  0  0  0
   22.5535  -17.4393  -16.5313 C   0  0  0  0  0  0  0  0  0  0  0  0
   22.2124  -18.6376  -16.2524 O   0  0  0  0  0  0  0  0  0  0  0  0
   25.6407  -18.2448  -18.5242 C   0  0  0  0  0  0  0  0  0  0  0  0
   26.7460  -17.4350  -18.3025 O   0  0  0  0  0  0  0  0  0  0  0  0
   21.7534  -16.4473  -16.0156 O   0  0  0  0  0  0  0  0  0  0  0  0
   25.5097  -18.7519  -19.6577 O   0  0  0  0  0  0  0  0  0  0  0  0
  2  1  1  0
  3  2  1  0
  4  3  1  0
  5  4  1  0
  5  7  1  0
  5  6  1  1
  7 13  1  0
  8  7  2  0
 10  9  1  1
 10 12  1  0
 10 11  1  0
 12 14  1  0
 12 13  1  1
 14 15  2  0
 16 14  1  0
 16 17  1  0
 17 21  1  0
 17 18  1  1
 19 18  1  0
 20 19  2  0
 21 24  2  0
 21 22  1  0
 23 19  1  0
M  END
$$$$
