MVD.pdb
     RDKit          3D

 24 23  0  0  1  0  0  0  0  0999 V2000
   19.4548  -19.1933  -11.6675 C   0  0  0  0  0  0  0  0  0  0  0  0
   19.6865  -17.5025  -12.2915 S   0  0  0  0  0  0  0  0  0  0  0  0
   19.7406  -17.5815  -14.0979 C   0  0  0  0  0  0  0  0  0  0  0  0
   19.9263  -16.2135  -14.7177 C   0  0  0  0  0  0  0  0  0  0  0  0
   19.8590  -16.3698  -16.2167 C   0  0  2  0  0  0  0  0  0  0  0  0
   20.9785  -17.2271  -16.5984 N   0  0  0  0  0  0  0  0  0  0  0  0
   19.9863  -15.0468  -16.8977 C   0  0  0  0  0  0  0  0  0  0  0  0
   21.1237  -14.6653  -17.2584 O   0  0  0  0  0  0  0  0  0  0  0  0
   16.5812  -13.2287  -18.6774 C   0  0  0  0  0  0  0  0  0  0  0  0
   18.0434  -13.0532  -19.0232 C   0  0  2  0  0  0  0  0  0  0  0  0
   18.4984  -14.0605  -20.0548 C   0  0  0  0  0  0  0  0  0  0  0  0
   18.9600  -12.9398  -17.8649 C   0  0  2  0  0  0  0  0  0  0  0  0
   18.8839  -14.2181  -17.1478 N   0  0  0  0  0  0  0  0  0  0  0  0
   18.8122  -11.8011  -16.9779 C   0  0  0  0  0  0  0  0  0  0  0  0
   18.0989  -11.9734  -15.9275 O   0  0  0  0  0  0  0  0  0  0  0  0
   19.3576  -10.5168  -17.1231 N   0  0  0  0  0  0  0  0  0  0  0  0
   19.0608   -9.3984  -16.2006 C   0  0  1  0  0  0  0  0  0  0  0  0
   20.4125   -8.8812  -15.7958 C   0  0  0  0  0  0  0  0  0  0  0  0
   20.4026   -7.6976  -14.9463 C   0  0  0  0  0  0  0  0  0  0  0  0
   19.6977   -7.7785  -13.8849 O   0  0  0  0  0  0  0  0  0  0  0  0
   18.3884   -8.3072  -16.9953 C   0  0  0  0  0  0  0  0  0  0  0  0
   18.2434   -8.4162  -18.3714 O   0  0  0  0  0  0  0  0  0  0  0  0
   21.0575   -6.5058  -15.1481 O   0  0  0  0  0  0  0  0  0  0  0  0
   17.9441   -7.2789  -16.4437 O   0  0  0  0  0  0  0  0  0  0  0  0
  2  1  1  0
  3  2  1  0
  4  3  1  0
  5  4  1  0
  5  7  1  0
  5  6  1  6
  7 13  1  0
  8  7  2  0
 10  9  1  1
 10 12  1  0
 10 11  1  0
 12 14  1  0
 12 13  1  1
 14 15  2  0
 16 14  1  0
 16 17  1  0
 17 21  1  0
 17 18  1  6
 19 18  1  0
 20 19  2  0
 21 24  2  0
 21 22  1  0
 23 19  1  0
M  END
$$$$
