MVD.pdb
     RDKit          3D

 24 23  0  0  1  0  0  0  0  0999 V2000
   28.9728  -19.3226   -5.5359 C   0  0  0  0  0  0  0  0  0  0  0  0
   28.0775  -20.8624   -5.1761 S   0  0  0  0  0  0  0  0  0  0  0  0
   26.3169  -20.5585   -5.4598 C   0  0  0  0  0  0  0  0  0  0  0  0
   25.9248  -20.8122   -6.8992 C   0  0  0  0  0  0  0  0  0  0  0  0
   26.8660  -20.0303   -7.7816 C   0  0  2  0  0  0  0  0  0  0  0  0
   26.9112  -18.6723   -7.2451 N   0  0  0  0  0  0  0  0  0  0  0  0
   26.3724  -19.9962   -9.1906 C   0  0  0  0  0  0  0  0  0  0  0  0
   25.5473  -19.1112   -9.5154 O   0  0  0  0  0  0  0  0  0  0  0  0
   29.0440  -20.6987  -11.9975 C   0  0  0  0  0  0  0  0  0  0  0  0
   27.7152  -21.3591  -12.2913 C   0  0  2  0  0  0  0  0  0  0  0  0
   27.5027  -21.5511  -13.7758 C   0  0  0  0  0  0  0  0  0  0  0  0
   26.5462  -20.7676  -11.5996 C   0  0  2  0  0  0  0  0  0  0  0  0
   26.7964  -20.9145  -10.1609 N   0  0  0  0  0  0  0  0  0  0  0  0
   25.2203  -21.2202  -11.9770 C   0  0  0  0  0  0  0  0  0  0  0  0
   24.9282  -22.4402  -11.7161 O   0  0  0  0  0  0  0  0  0  0  0  0
   24.2012  -20.4839  -12.5994 N   0  0  0  0  0  0  0  0  0  0  0  0
   22.8708  -21.0473  -12.9200 C   0  0  1  0  0  0  0  0  0  0  0  0
   22.0203  -19.8452  -13.2203 C   0  0  0  0  0  0  0  0  0  0  0  0
   20.8297  -19.6971  -12.3938 C   0  0  0  0  0  0  0  0  0  0  0  0
   20.6146  -20.6329  -11.5522 O   0  0  0  0  0  0  0  0  0  0  0  0
   22.9960  -21.8330  -14.2011 C   0  0  0  0  0  0  0  0  0  0  0  0
   23.8882  -21.4428  -15.1901 O   0  0  0  0  0  0  0  0  0  0  0  0
   19.9102  -18.6752  -12.4099 O   0  0  0  0  0  0  0  0  0  0  0  0
   22.3056  -22.8522  -14.4103 O   0  0  0  0  0  0  0  0  0  0  0  0
  2  1  1  0
  3  2  1  0
  4  3  1  0
  5  4  1  0
  5  7  1  0
  5  6  1  1
  7 13  1  0
  8  7  2  0
 10  9  1  6
 10 12  1  0
 10 11  1  0
 12 14  1  0
 12 13  1  1
 14 15  2  0
 16 14  1  0
 16 17  1  0
 17 21  1  0
 17 18  1  6
 19 18  1  0
 20 19  2  0
 21 24  2  0
 21 22  1  0
 23 19  1  0
M  END
$$$$
