MVD.pdb
     RDKit          3D

 24 23  0  0  1  0  0  0  0  0999 V2000
   26.5873  -15.5866  -15.0191 C   0  0  0  0  0  0  0  0  0  0  0  0
   28.0884  -16.4924  -15.4971 S   0  0  0  0  0  0  0  0  0  0  0  0
   27.6180  -17.7351  -16.7246 C   0  0  0  0  0  0  0  0  0  0  0  0
   26.7588  -18.8259  -16.1232 C   0  0  0  0  0  0  0  0  0  0  0  0
   27.6184  -19.6243  -15.1748 C   0  0  2  0  0  0  0  0  0  0  0  0
   28.5526  -20.3875  -15.9987 N   0  0  0  0  0  0  0  0  0  0  0  0
   26.7875  -20.5612  -14.3611 C   0  0  0  0  0  0  0  0  0  0  0  0
   26.3861  -21.6223  -14.8925 O   0  0  0  0  0  0  0  0  0  0  0  0
   24.9664  -21.7466   -9.8861 C   0  0  0  0  0  0  0  0  0  0  0  0
   25.7815  -20.9045  -10.8426 C   0  0  2  0  0  0  0  0  0  0  0  0
   25.8605  -19.4639  -10.3906 C   0  0  0  0  0  0  0  0  0  0  0  0
   25.4341  -21.0554  -12.2748 C   0  0  2  0  0  0  0  0  0  0  0  0
   26.4407  -20.2987  -13.0286 N   0  0  0  0  0  0  0  0  0  0  0  0
   24.0810  -20.7400  -12.6928 C   0  0  0  0  0  0  0  0  0  0  0  0
   23.8314  -19.5146  -12.9723 O   0  0  0  0  0  0  0  0  0  0  0  0
   22.9942  -21.6160  -12.8333 N   0  0  0  0  0  0  0  0  0  0  0  0
   21.6374  -21.1721  -13.2232 C   0  0  1  0  0  0  0  0  0  0  0  0
   21.2249  -22.1373  -14.2988 C   0  0  0  0  0  0  0  0  0  0  0  0
   21.3446  -21.6433  -15.6642 C   0  0  0  0  0  0  0  0  0  0  0  0
   21.7244  -20.4306  -15.7876 O   0  0  0  0  0  0  0  0  0  0  0  0
   20.7194  -21.3989  -12.0483 C   0  0  0  0  0  0  0  0  0  0  0  0
   19.6695  -20.5291  -11.7882 O   0  0  0  0  0  0  0  0  0  0  0  0
   21.0979  -22.3218  -16.8341 O   0  0  0  0  0  0  0  0  0  0  0  0
   20.8744  -22.3697  -11.2785 O   0  0  0  0  0  0  0  0  0  0  0  0
  2  1  1  0
  3  2  1  0
  4  3  1  0
  5  4  1  0
  5  7  1  0
  5  6  1  6
  7 13  1  0
  8  7  2  0
 10  9  1  1
 10 12  1  0
 10 11  1  0
 12 14  1  0
 12 13  1  6
 14 15  2  0
 16 14  1  0
 16 17  1  0
 17 21  1  0
 17 18  1  6
 19 18  1  0
 20 19  2  0
 21 24  2  0
 21 22  1  0
 23 19  1  0
M  END
$$$$
