MVD.pdb
     RDKit          3D

 24 23  0  0  1  0  0  0  0  0999 V2000
   19.7390  -16.1500  -15.8710 C   0  0  0  0  0  0  0  0  0  0  0  0
   17.9486  -16.2346  -15.5716 S   0  0  0  0  0  0  0  0  0  0  0  0
   17.3046  -14.5442  -15.5840 C   0  0  0  0  0  0  0  0  0  0  0  0
   18.3407  -13.5486  -16.0586 C   0  0  0  0  0  0  0  0  0  0  0  0
   17.7699  -12.1637  -15.8798 C   0  0  2  0  0  0  0  0  0  0  0  0
   16.5570  -12.1032  -16.6917 N   0  0  0  0  0  0  0  0  0  0  0  0
   18.7360  -11.1239  -16.3444 C   0  0  0  0  0  0  0  0  0  0  0  0
   19.9206  -11.1836  -15.9411 O   0  0  0  0  0  0  0  0  0  0  0  0
   19.7136   -7.7321  -19.8203 C   0  0  0  0  0  0  0  0  0  0  0  0
   18.8185   -8.6861  -19.0608 C   0  0  2  0  0  0  0  0  0  0  0  0
   17.3741   -8.2405  -19.0903 C   0  0  0  0  0  0  0  0  0  0  0  0
   19.2930   -9.0603  -17.7081 C   0  0  2  0  0  0  0  0  0  0  0  0
   18.3683  -10.0867  -17.2124 N   0  0  0  0  0  0  0  0  0  0  0  0
   19.5143   -8.0039  -16.7386 C   0  0  0  0  0  0  0  0  0  0  0  0
   18.4761   -7.5089  -16.1736 O   0  0  0  0  0  0  0  0  0  0  0  0
   20.7359   -7.4460  -16.3330 N   0  0  0  0  0  0  0  0  0  0  0  0
   20.8417   -6.3602  -15.3330 C   0  0  1  0  0  0  0  0  0  0  0  0
   22.0047   -6.7614  -14.4698 C   0  0  0  0  0  0  0  0  0  0  0  0
   22.2761   -5.8864  -13.3370 C   0  0  0  0  0  0  0  0  0  0  0  0
   21.4983   -4.8821  -13.2087 O   0  0  0  0  0  0  0  0  0  0  0  0
   21.2415   -5.0994  -16.0575 C   0  0  0  0  0  0  0  0  0  0  0  0
   20.6876   -3.8746  -15.7115 O   0  0  0  0  0  0  0  0  0  0  0  0
   23.2665   -6.0090  -12.3914 O   0  0  0  0  0  0  0  0  0  0  0  0
   22.0775   -5.1181  -16.9848 O   0  0  0  0  0  0  0  0  0  0  0  0
  2  1  1  0
  3  2  1  0
  4  3  1  0
  5  4  1  0
  5  7  1  0
  5  6  1  6
  7 13  1  0
  8  7  2  0
 10  9  1  1
 10 12  1  0
 10 11  1  0
 12 14  1  0
 12 13  1  1
 14 15  2  0
 16 14  1  0
 16 17  1  0
 17 21  1  0
 17 18  1  1
 19 18  1  0
 20 19  2  0
 21 24  2  0
 21 22  1  0
 23 19  1  0
M  END
$$$$
