MVD.pdb
     RDKit          3D

 24 23  0  0  1  0  0  0  0  0999 V2000
   22.9045  -12.8217  -22.7393 C   0  0  0  0  0  0  0  0  0  0  0  0
   21.6804  -14.0916  -22.3021 S   0  0  0  0  0  0  0  0  0  0  0  0
   22.1037  -14.7275  -20.6623 C   0  0  0  0  0  0  0  0  0  0  0  0
   22.0860  -13.6379  -19.6123 C   0  0  0  0  0  0  0  0  0  0  0  0
   23.1462  -13.9620  -18.5891 C   0  0  2  0  0  0  0  0  0  0  0  0
   22.8351  -15.2920  -18.0712 N   0  0  0  0  0  0  0  0  0  0  0  0
   23.1291  -12.9723  -17.4708 C   0  0  0  0  0  0  0  0  0  0  0  0
   22.2643  -13.0973  -16.5730 O   0  0  0  0  0  0  0  0  0  0  0  0
   26.3361  -11.9217  -15.5549 C   0  0  0  0  0  0  0  0  0  0  0  0
   25.5426  -10.7168  -16.0096 C   0  0  2  0  0  0  0  0  0  0  0  0
   25.7971   -9.5151  -15.1283 C   0  0  0  0  0  0  0  0  0  0  0  0
   24.1051  -10.9647  -16.2686 C   0  0  2  0  0  0  0  0  0  0  0  0
   24.0417  -11.9118  -17.3880 N   0  0  0  0  0  0  0  0  0  0  0  0
   23.2328   -9.8219  -16.4640 C   0  0  0  0  0  0  0  0  0  0  0  0
   23.4229   -9.1215  -17.5200 O   0  0  0  0  0  0  0  0  0  0  0  0
   22.1922   -9.3780  -15.6344 N   0  0  0  0  0  0  0  0  0  0  0  0
   21.3412   -8.2097  -15.9522 C   0  0  1  0  0  0  0  0  0  0  0  0
   20.0201   -8.5259  -15.3092 C   0  0  0  0  0  0  0  0  0  0  0  0
   18.9810   -7.5197  -15.4836 C   0  0  0  0  0  0  0  0  0  0  0  0
   18.9926   -6.5549  -14.6476 O   0  0  0  0  0  0  0  0  0  0  0  0
   21.9092   -7.0123  -15.2325 C   0  0  0  0  0  0  0  0  0  0  0  0
   21.6530   -5.7247  -15.6830 O   0  0  0  0  0  0  0  0  0  0  0  0
   17.9904   -7.4827  -16.4362 O   0  0  0  0  0  0  0  0  0  0  0  0
   22.6227   -7.1413  -14.2160 O   0  0  0  0  0  0  0  0  0  0  0  0
  2  1  1  0
  3  2  1  0
  4  3  1  0
  5  4  1  0
  5  7  1  0
  5  6  1  1
  7 13  1  0
  8  7  2  0
 10  9  1  1
 10 12  1  0
 10 11  1  0
 12 14  1  0
 12 13  1  6
 14 15  2  0
 16 14  1  0
 16 17  1  0
 17 21  1  0
 17 18  1  1
 19 18  1  0
 20 19  2  0
 21 24  2  0
 21 22  1  0
 23 19  1  0
M  END
$$$$
