HAS.pdb
     RDKit          3D

 22 22  0  0  1  0  0  0  0  0999 V2000
   18.4520  -10.6503  -15.3282 N   0  0  0  0  0  0  0  0  0  0  0  0
   19.6787  -10.0287  -15.7441 C   0  0  1  0  0  0  0  0  0  0  0  0
   19.8566  -10.0643  -17.2341 C   0  0  0  0  0  0  0  0  0  0  0  0
   19.9384  -11.4895  -17.6766 C   0  0  0  0  0  0  0  0  0  0  0  0
   20.6543  -12.5008  -17.0646 C   0  0  0  0  0  0  0  0  0  0  0  0
   20.4616  -13.6202  -17.7739 N   0  0  0  0  0  0  0  0  0  0  0  0
   19.6491  -13.3317  -18.8046 C   0  0  0  0  0  0  0  0  0  0  0  0
   19.3365  -12.0258  -18.7336 N   0  0  0  0  0  0  0  0  0  0  0  0
   19.7169   -8.5966  -15.2933 C   0  0  0  0  0  0  0  0  0  0  0  0
   18.6893   -7.8755  -15.3039 O   0  0  0  0  0  0  0  0  0  0  0  0
   22.2579   -6.3032  -13.6697 C   0  0  0  0  0  0  0  0  0  0  0  0
   20.9640   -6.6346  -14.3731 C   0  0  2  0  0  0  0  0  0  0  0  0
   20.9165   -7.9921  -14.8343 N   0  0  0  0  0  0  0  0  0  0  0  0
   20.6145   -5.6552  -15.4124 C   0  0  0  0  0  0  0  0  0  0  0  0
   20.5683   -6.0151  -16.6048 O   0  0  0  0  0  0  0  0  0  0  0  0
   17.9067   -3.1190  -17.4427 O   0  0  0  0  0  0  0  0  0  0  0  0
   18.4726   -4.0304  -16.5406 C   0  0  0  0  0  0  0  0  0  0  0  0
   19.8019   -3.4405  -16.0961 C   0  0  2  0  0  0  0  0  0  0  0  0
   20.3327   -4.3222  -15.0781 N   0  0  0  0  0  0  0  0  0  0  0  0
   19.6139   -2.1010  -15.5048 C   0  0  0  0  0  0  0  0  0  0  0  0
   19.2692   -2.0025  -14.3062 O   0  0  0  0  0  0  0  0  0  0  0  0
   19.8055   -0.9373  -16.2300 O   0  0  0  0  0  0  0  0  0  0  0  0
  2  1  1  6
  2  9  1  0
  2  3  1  0
  3  4  1  0
  4  5  2  0
  4  8  1  0
  5  6  1  0
  6  7  1  0
  8  7  2  0
  9 10  2  0
  9 13  1  0
 12 11  1  6
 12 14  1  0
 13 12  1  0
 14 15  2  0
 14 19  1  0
 16 17  1  0
 18 20  1  0
 18 17  1  1
 19 18  1  0
 20 22  1  0
 21 20  2  0
M  END
$$$$
