HAS.pdb
     RDKit          3D

 22 22  0  0  1  0  0  0  0  0999 V2000
   18.7987  -12.1862  -16.4707 N   0  0  0  0  0  0  0  0  0  0  0  0
   18.0976  -10.9700  -16.1647 C   0  0  1  0  0  0  0  0  0  0  0  0
   17.4374  -11.0187  -14.8175 C   0  0  0  0  0  0  0  0  0  0  0  0
   16.3281  -12.0194  -14.8594 C   0  0  0  0  0  0  0  0  0  0  0  0
   15.0030  -11.7663  -15.1589 C   0  0  0  0  0  0  0  0  0  0  0  0
   14.3420  -12.9286  -15.0864 N   0  0  0  0  0  0  0  0  0  0  0  0
   15.2174  -13.8915  -14.7515 C   0  0  0  0  0  0  0  0  0  0  0  0
   16.4282  -13.3224  -14.6157 N   0  0  0  0  0  0  0  0  0  0  0  0
   19.0421   -9.8026  -16.1911 C   0  0  0  0  0  0  0  0  0  0  0  0
   20.0188   -9.7282  -15.4060 O   0  0  0  0  0  0  0  0  0  0  0  0
   19.5386   -6.7204  -18.3420 C   0  0  0  0  0  0  0  0  0  0  0  0
   19.7632   -7.6043  -17.1391 C   0  0  2  0  0  0  0  0  0  0  0  0
   18.8741   -8.7294  -17.1050 N   0  0  0  0  0  0  0  0  0  0  0  0
   19.7949   -6.8504  -15.8772 C   0  0  0  0  0  0  0  0  0  0  0  0
   18.7278   -6.6021  -15.2831 O   0  0  0  0  0  0  0  0  0  0  0  0
   22.6207   -7.1190  -13.2661 O   0  0  0  0  0  0  0  0  0  0  0  0
   21.3432   -6.6165  -12.9833 C   0  0  0  0  0  0  0  0  0  0  0  0
   20.9944   -5.6481  -14.1028 C   0  0  2  0  0  0  0  0  0  0  0  0
   21.0107   -6.4078  -15.3348 N   0  0  0  0  0  0  0  0  0  0  0  0
   21.9995   -4.5716  -14.2022 C   0  0  0  0  0  0  0  0  0  0  0  0
   22.7136   -4.4918  -15.2264 O   0  0  0  0  0  0  0  0  0  0  0  0
   22.1861   -3.6369  -13.1981 O   0  0  0  0  0  0  0  0  0  0  0  0
  2  1  1  1
  2  9  1  0
  2  3  1  0
  3  4  1  0
  4  5  2  0
  4  8  1  0
  5  6  1  0
  6  7  1  0
  8  7  2  0
  9 10  2  0
  9 13  1  0
 12 11  1  6
 12 14  1  0
 13 12  1  0
 14 15  2  0
 14 19  1  0
 16 17  1  0
 18 20  1  0
 18 17  1  1
 19 18  1  0
 20 22  1  0
 21 20  2  0
M  END
$$$$
