HAS.pdb
     RDKit          3D

 22 22  0  0  1  0  0  0  0  0999 V2000
   19.8673  -12.7777  -16.7399 N   0  0  0  0  0  0  0  0  0  0  0  0
   19.1054  -11.5600  -16.7730 C   0  0  1  0  0  0  0  0  0  0  0  0
   18.1358  -11.4656  -15.6310 C   0  0  0  0  0  0  0  0  0  0  0  0
   17.0930  -12.5237  -15.7945 C   0  0  0  0  0  0  0  0  0  0  0  0
   16.9631  -13.6740  -15.0395 C   0  0  0  0  0  0  0  0  0  0  0  0
   15.9057  -14.3489  -15.5082 N   0  0  0  0  0  0  0  0  0  0  0  0
   15.3788  -13.6515  -16.5288 C   0  0  0  0  0  0  0  0  0  0  0  0
   16.1139  -12.5378  -16.6936 N   0  0  0  0  0  0  0  0  0  0  0  0
   20.0206  -10.3704  -16.7213 C   0  0  0  0  0  0  0  0  0  0  0  0
   20.8135  -10.1909  -15.7646 O   0  0  0  0  0  0  0  0  0  0  0  0
   20.9684   -7.5404  -19.0533 C   0  0  0  0  0  0  0  0  0  0  0  0
   20.9181   -8.2664  -17.7308 C   0  0  2  0  0  0  0  0  0  0  0  0
   20.0314   -9.3938  -17.7515 N   0  0  0  0  0  0  0  0  0  0  0  0
   20.6831   -7.3632  -16.5946 C   0  0  0  0  0  0  0  0  0  0  0  0
   19.5207   -7.1856  -16.1814 O   0  0  0  0  0  0  0  0  0  0  0  0
   22.2908   -5.4366  -12.6470 O   0  0  0  0  0  0  0  0  0  0  0  0
   22.5521   -6.2238  -13.7769 C   0  0  0  0  0  0  0  0  0  0  0  0
   21.4849   -5.8838  -14.8055 C   0  0  2  0  0  0  0  0  0  0  0  0
   21.7505   -6.6999  -15.9711 N   0  0  0  0  0  0  0  0  0  0  0  0
   21.5645   -4.4634  -15.1994 C   0  0  0  0  0  0  0  0  0  0  0  0
   22.2439   -4.1413  -16.1993 O   0  0  0  0  0  0  0  0  0  0  0  0
   20.9112   -3.4627  -14.5003 O   0  0  0  0  0  0  0  0  0  0  0  0
  2  1  1  1
  2  9  1  0
  2  3  1  0
  3  4  1  0
  4  5  2  0
  4  8  1  0
  5  6  1  0
  6  7  1  0
  8  7  2  0
  9 10  2  0
  9 13  1  0
 12 11  1  6
 12 14  1  0
 13 12  1  0
 14 15  2  0
 14 19  1  0
 16 17  1  0
 18 20  1  0
 18 17  1  1
 19 18  1  0
 20 22  1  0
 21 20  2  0
M  END
$$$$
