HAS.pdb
     RDKit          3D

 22 22  0  0  1  0  0  0  0  0999 V2000
   22.4448  -10.8670  -15.8130 N   0  0  0  0  0  0  0  0  0  0  0  0
   21.3204  -10.0764  -16.2311 C   0  0  1  0  0  0  0  0  0  0  0  0
   20.1510  -10.9241  -16.6401 C   0  0  0  0  0  0  0  0  0  0  0  0
   20.5016  -11.6573  -17.8944 C   0  0  0  0  0  0  0  0  0  0  0  0
   20.2794  -11.2262  -19.1885 C   0  0  0  0  0  0  0  0  0  0  0  0
   20.7388  -12.1738  -20.0157 N   0  0  0  0  0  0  0  0  0  0  0  0
   21.2375  -13.1764  -19.2730 C   0  0  0  0  0  0  0  0  0  0  0  0
   21.0864  -12.8482  -17.9778 N   0  0  0  0  0  0  0  0  0  0  0  0
   20.8829   -9.1637  -15.1215 C   0  0  0  0  0  0  0  0  0  0  0  0
   20.7084   -9.5857  -13.9521 O   0  0  0  0  0  0  0  0  0  0  0  0
   20.4688   -5.4426  -14.6332 C   0  0  0  0  0  0  0  0  0  0  0  0
   20.2362   -6.8949  -14.2935 C   0  0  2  0  0  0  0  0  0  0  0  0
   20.6465   -7.7817  -15.3437 N   0  0  0  0  0  0  0  0  0  0  0  0
   18.8712   -7.1553  -13.8132 C   0  0  0  0  0  0  0  0  0  0  0  0
   18.0012   -7.5440  -14.6166 O   0  0  0  0  0  0  0  0  0  0  0  0
   18.0876   -6.9215   -9.8951 O   0  0  0  0  0  0  0  0  0  0  0  0
   17.2503   -7.7765  -10.6247 C   0  0  0  0  0  0  0  0  0  0  0  0
   17.1757   -7.2182  -12.0373 C   0  0  2  0  0  0  0  0  0  0  0  0
   18.5370   -6.9714  -12.4632 N   0  0  0  0  0  0  0  0  0  0  0  0
   16.4376   -5.9400  -12.0617 C   0  0  0  0  0  0  0  0  0  0  0  0
   15.2088   -5.9368  -11.8269 O   0  0  0  0  0  0  0  0  0  0  0  0
   17.0560   -4.7322  -12.3366 O   0  0  0  0  0  0  0  0  0  0  0  0
  2  1  1  1
  2  9  1  0
  2  3  1  0
  3  4  1  0
  4  5  2  0
  4  8  1  0
  5  6  1  0
  6  7  1  0
  8  7  2  0
  9 10  2  0
  9 13  1  0
 12 11  1  6
 12 14  1  0
 13 12  1  0
 14 15  2  0
 14 19  1  0
 16 17  1  0
 18 20  1  0
 18 17  1  1
 19 18  1  0
 20 22  1  0
 21 20  2  0
M  END
$$$$
