HAS.pdb
     RDKit          3D

 22 22  0  0  1  0  0  0  0  0999 V2000
   19.0023  -11.6188  -18.2390 N   0  0  0  0  0  0  0  0  0  0  0  0
   20.3510  -11.1352  -18.3459 C   0  0  1  0  0  0  0  0  0  0  0  0
   20.5507  -10.2733  -19.5585 C   0  0  0  0  0  0  0  0  0  0  0  0
   20.4139  -11.1214  -20.7815 C   0  0  0  0  0  0  0  0  0  0  0  0
   21.3299  -11.2355  -21.8099 C   0  0  0  0  0  0  0  0  0  0  0  0
   20.8265  -12.0922  -22.7077 N   0  0  0  0  0  0  0  0  0  0  0  0
   19.6285  -12.5107  -22.2658 C   0  0  0  0  0  0  0  0  0  0  0  0
   19.3880  -11.9097  -21.0872 N   0  0  0  0  0  0  0  0  0  0  0  0
   20.7171  -10.3368  -17.1277 C   0  0  0  0  0  0  0  0  0  0  0  0
   19.9160   -9.5201  -16.6106 O   0  0  0  0  0  0  0  0  0  0  0  0
   23.6080  -10.2470  -14.6805 C   0  0  0  0  0  0  0  0  0  0  0  0
   22.3385   -9.7397  -15.3205 C   0  0  2  0  0  0  0  0  0  0  0  0
   21.9857  -10.4686  -16.5045 N   0  0  0  0  0  0  0  0  0  0  0  0
   22.3424   -8.2824  -15.5149 C   0  0  0  0  0  0  0  0  0  0  0  0
   22.7763   -7.8063  -16.5819 O   0  0  0  0  0  0  0  0  0  0  0  0
   19.6615   -5.9743  -14.1973 O   0  0  0  0  0  0  0  0  0  0  0  0
   20.5720   -5.5275  -15.1648 C   0  0  0  0  0  0  0  0  0  0  0  0
   21.9497   -5.9921  -14.7192 C   0  0  2  0  0  0  0  0  0  0  0  0
   21.8643   -7.4226  -14.5148 N   0  0  0  0  0  0  0  0  0  0  0  0
   22.3337   -5.3580  -13.4427 C   0  0  0  0  0  0  0  0  0  0  0  0
   22.5229   -6.0742  -12.4345 O   0  0  0  0  0  0  0  0  0  0  0  0
   22.4946   -3.9889  -13.3141 O   0  0  0  0  0  0  0  0  0  0  0  0
  2  1  1  1
  2  9  1  0
  2  3  1  0
  3  4  1  0
  4  5  2  0
  4  8  1  0
  5  6  1  0
  6  7  1  0
  8  7  2  0
  9 10  2  0
  9 13  1  0
 12 11  1  6
 12 14  1  0
 13 12  1  0
 14 15  2  0
 14 19  1  0
 16 17  1  0
 18 20  1  0
 18 17  1  1
 19 18  1  0
 20 22  1  0
 21 20  2  0
M  END
$$$$
