HAS.pdb
     RDKit          3D

 22 22  0  0  1  0  0  0  0  0999 V2000
   18.1976  -11.9124  -16.3000 N   0  0  0  0  0  0  0  0  0  0  0  0
   18.5473  -10.7626  -17.0873 C   0  0  1  0  0  0  0  0  0  0  0  0
   17.3894   -9.8246  -17.2680 C   0  0  0  0  0  0  0  0  0  0  0  0
   16.3517  -10.4952  -18.1090 C   0  0  0  0  0  0  0  0  0  0  0  0
   16.5681  -11.1889  -19.2845 C   0  0  0  0  0  0  0  0  0  0  0  0
   15.3808  -11.6304  -19.7189 N   0  0  0  0  0  0  0  0  0  0  0  0
   14.4382  -11.2310  -18.8485 C   0  0  0  0  0  0  0  0  0  0  0  0
   15.0449  -10.5379  -17.8689 N   0  0  0  0  0  0  0  0  0  0  0  0
   19.6741  -10.0100  -16.4396 C   0  0  0  0  0  0  0  0  0  0  0  0
   19.6467   -9.7024  -15.2228 O   0  0  0  0  0  0  0  0  0  0  0  0
   23.1525   -8.8764  -17.3659 C   0  0  0  0  0  0  0  0  0  0  0  0
   21.8537   -8.7956  -16.6008 C   0  0  2  0  0  0  0  0  0  0  0  0
   20.8222   -9.6117  -17.1734 N   0  0  0  0  0  0  0  0  0  0  0  0
   21.4269   -7.4113  -16.3492 C   0  0  0  0  0  0  0  0  0  0  0  0
   20.6755   -6.8424  -17.1648 O   0  0  0  0  0  0  0  0  0  0  0  0
   21.9878   -5.6725  -12.7302 O   0  0  0  0  0  0  0  0  0  0  0  0
   20.9025   -5.3080  -13.5389 C   0  0  0  0  0  0  0  0  0  0  0  0
   21.3864   -5.3733  -14.9791 C   0  0  2  0  0  0  0  0  0  0  0  0
   21.8550   -6.7243  -15.2034 N   0  0  0  0  0  0  0  0  0  0  0  0
   22.5114   -4.4436  -15.2008 C   0  0  0  0  0  0  0  0  0  0  0  0
   23.6437   -4.9037  -15.4681 O   0  0  0  0  0  0  0  0  0  0  0  0
   22.3632   -3.0692  -15.1243 O   0  0  0  0  0  0  0  0  0  0  0  0
  2  1  1  1
  2  9  1  0
  2  3  1  0
  3  4  1  0
  4  5  2  0
  4  8  1  0
  5  6  1  0
  6  7  1  0
  8  7  2  0
  9 10  2  0
  9 13  1  0
 12 11  1  6
 12 14  1  0
 13 12  1  0
 14 15  2  0
 14 19  1  0
 16 17  1  0
 18 20  1  0
 18 17  1  1
 19 18  1  0
 20 22  1  0
 21 20  2  0
M  END
$$$$
