HAS.pdb
     RDKit          3D

 22 22  0  0  1  0  0  0  0  0999 V2000
   18.9707  -12.7738  -16.8601 N   0  0  0  0  0  0  0  0  0  0  0  0
   19.9818  -11.9049  -17.3957 C   0  0  1  0  0  0  0  0  0  0  0  0
   19.4687  -11.0700  -18.5328 C   0  0  0  0  0  0  0  0  0  0  0  0
   19.1393  -11.9683  -19.6810 C   0  0  0  0  0  0  0  0  0  0  0  0
   19.8587  -12.1022  -20.8533 C   0  0  0  0  0  0  0  0  0  0  0  0
   19.2274  -13.0044  -21.6153 N   0  0  0  0  0  0  0  0  0  0  0  0
   18.1408  -13.4318  -20.9503 C   0  0  0  0  0  0  0  0  0  0  0  0
   18.0984  -12.7906  -19.7691 N   0  0  0  0  0  0  0  0  0  0  0  0
   20.5008  -10.9870  -16.3263 C   0  0  0  0  0  0  0  0  0  0  0  0
   19.7256  -10.3656  -15.5589 O   0  0  0  0  0  0  0  0  0  0  0  0
   23.8678  -10.0874  -14.8592 C   0  0  0  0  0  0  0  0  0  0  0  0
   22.4030   -9.8683  -15.1509 C   0  0  2  0  0  0  0  0  0  0  0  0
   21.8919  -10.7796  -16.1338 N   0  0  0  0  0  0  0  0  0  0  0  0
   22.0848   -8.4625  -15.4409 C   0  0  0  0  0  0  0  0  0  0  0  0
   22.0517   -8.0717  -16.6240 O   0  0  0  0  0  0  0  0  0  0  0  0
   19.5776   -6.3813  -13.6191 O   0  0  0  0  0  0  0  0  0  0  0  0
   20.1383   -5.9169  -14.8168 C   0  0  0  0  0  0  0  0  0  0  0  0
   21.6370   -6.1570  -14.7223 C   0  0  2  0  0  0  0  0  0  0  0  0
   21.8183   -7.5571  -14.4030 N   0  0  0  0  0  0  0  0  0  0  0  0
   22.2343   -5.3482  -13.6414 C   0  0  0  0  0  0  0  0  0  0  0  0
   22.7723   -5.9244  -12.6699 O   0  0  0  0  0  0  0  0  0  0  0  0
   22.2234   -3.9639  -13.6590 O   0  0  0  0  0  0  0  0  0  0  0  0
  2  1  1  1
  2  9  1  0
  2  3  1  0
  3  4  1  0
  4  5  2  0
  4  8  1  0
  5  6  1  0
  6  7  1  0
  8  7  2  0
  9 10  2  0
  9 13  1  0
 12 11  1  6
 12 14  1  0
 13 12  1  0
 14 15  2  0
 14 19  1  0
 16 17  1  0
 18 20  1  0
 18 17  1  1
 19 18  1  0
 20 22  1  0
 21 20  2  0
M  END
$$$$
