HAS.pdb
     RDKit          3D

 22 22  0  0  1  0  0  0  0  0999 V2000
   18.7380  -15.5112  -17.0647 N   0  0  0  0  0  0  0  0  0  0  0  0
   18.5970  -14.6313  -15.9377 C   0  0  1  0  0  0  0  0  0  0  0  0
   19.8552  -14.5452  -15.1236 C   0  0  0  0  0  0  0  0  0  0  0  0
   20.1312  -15.8836  -14.5186 C   0  0  0  0  0  0  0  0  0  0  0  0
   21.0914  -16.7892  -14.9283 C   0  0  0  0  0  0  0  0  0  0  0  0
   21.0095  -17.8577  -14.1252 N   0  0  0  0  0  0  0  0  0  0  0  0
   20.0289  -17.6403  -13.2326 C   0  0  0  0  0  0  0  0  0  0  0  0
   19.5000  -16.4298  -13.4839 N   0  0  0  0  0  0  0  0  0  0  0  0
   18.2309  -13.2492  -16.3974 C   0  0  0  0  0  0  0  0  0  0  0  0
   18.9313  -12.6261  -17.2324 O   0  0  0  0  0  0  0  0  0  0  0  0
   15.2556  -10.9484  -16.0514 C   0  0  0  0  0  0  0  0  0  0  0  0
   16.6969  -11.2751  -16.3587 C   0  0  2  0  0  0  0  0  0  0  0  0
   17.0760  -12.5836  -15.9092 N   0  0  0  0  0  0  0  0  0  0  0  0
   17.6244  -10.2203  -15.9243 C   0  0  0  0  0  0  0  0  0  0  0  0
   18.3114  -10.3908  -14.8984 O   0  0  0  0  0  0  0  0  0  0  0  0
   20.1177   -8.3403  -18.0058 O   0  0  0  0  0  0  0  0  0  0  0  0
   19.2821   -7.3764  -17.4250 C   0  0  0  0  0  0  0  0  0  0  0  0
   18.6706   -8.0137  -16.1870 C   0  0  2  0  0  0  0  0  0  0  0  0
   17.7450   -9.0257  -16.6499 N   0  0  0  0  0  0  0  0  0  0  0  0
   17.9203   -7.0182  -15.3964 C   0  0  0  0  0  0  0  0  0  0  0  0
   16.6698   -7.0210  -15.4344 O   0  0  0  0  0  0  0  0  0  0  0  0
   18.5503   -6.0718  -14.6065 O   0  0  0  0  0  0  0  0  0  0  0  0
  2  1  1  6
  2  9  1  0
  2  3  1  0
  3  4  1  0
  4  5  2  0
  4  8  1  0
  5  6  1  0
  6  7  1  0
  8  7  2  0
  9 10  2  0
  9 13  1  0
 12 11  1  1
 12 14  1  0
 13 12  1  0
 14 15  2  0
 14 19  1  0
 16 17  1  0
 18 20  1  0
 18 17  1  6
 19 18  1  0
 20 22  1  0
 21 20  2  0
M  END
$$$$
