KIP.pdb
     RDKit          3D

 25 25  0  0  1  0  0  0  0  0999 V2000
    9.4579  -15.3746   20.6061 N   0  0  0  0  0  0  0  0  0  0  0  0
    8.8280  -16.0356   21.6863 C   0  0  1  0  0  0  0  0  0  0  0  0
    9.2240  -17.4667   21.7944 C   0  0  0  0  0  0  0  0  0  0  0  0
    8.9320  -18.3359   20.6308 C   0  0  0  0  0  0  0  0  0  0  0  0
    9.2630  -19.7855   20.7575 C   0  0  0  0  0  0  0  0  0  0  0  0
    8.1147  -20.7230   20.5788 C   0  0  0  0  0  0  0  0  0  0  0  0
    7.5345  -20.7737   19.2738 N   0  0  0  0  0  0  0  0  0  0  0  0
    9.0812  -15.3258   22.9715 C   0  0  0  0  0  0  0  0  0  0  0  0
   10.2316  -14.7905   23.1001 O   0  0  0  0  0  0  0  0  0  0  0  0
    5.7412  -11.9742   25.4722 C   0  0  0  0  0  0  0  0  0  0  0  0
    6.9655  -12.7226   24.9472 C   0  0  0  0  0  0  0  0  0  0  0  0
    7.3469  -13.8522   25.8489 C   0  0  2  0  0  0  0  0  0  0  0  0
    7.5730  -13.4411   27.2818 C   0  0  0  0  0  0  0  0  0  0  0  0
    8.4976  -14.6161   25.2565 C   0  0  2  0  0  0  0  0  0  0  0  0
    8.1120  -15.2400   24.0045 N   0  0  0  0  0  0  0  0  0  0  0  0
    9.1779  -15.4769   26.2136 C   0  0  0  0  0  0  0  0  0  0  0  0
    8.8638  -16.7276   26.2486 O   0  0  0  0  0  0  0  0  0  0  0  0
   10.1765  -15.1131   27.1515 N   0  0  0  0  0  0  0  0  0  0  0  0
   10.7259  -13.7717   27.2306 C   0  0  0  0  0  0  0  0  0  0  0  0
   11.8133  -13.8133   28.3157 C   0  0  0  0  0  0  0  0  0  0  0  0
   11.3114  -14.9328   29.1714 C   0  0  0  0  0  0  0  0  0  0  0  0
   10.8683  -15.9525   28.1112 C   0  0  1  0  0  0  0  0  0  0  0  0
   10.0137  -16.9761   28.7544 C   0  0  0  0  0  0  0  0  0  0  0  0
    8.7955  -17.0260   28.6529 O   0  0  0  0  0  0  0  0  0  0  0  0
   10.6759  -17.9343   29.5216 O   0  0  0  0  0  0  0  0  0  0  0  0
  2  8  1  0
  2  1  1  6
  3  2  1  0
  4  3  1  0
  4  5  1  0
  6  7  1  0
  6  5  1  0
  8  9  2  0
 10 11  1  0
 11 12  1  0
 12 13  1  1
 14 12  1  0
 14 15  1  6
 15  8  1  0
 16 14  1  0
 17 16  2  0
 18 16  1  0
 18 22  1  0
 19 20  1  0
 19 18  1  0
 20 21  1  0
 21 22  1  0
 22 23  1  1
 23 25  1  0
 24 23  2  0
M  END
$$$$
