KIP.pdb
     RDKit          3D

 25 25  0  0  1  0  0  0  0  0999 V2000
    7.7350  -15.4752   20.4728 N   0  0  0  0  0  0  0  0  0  0  0  0
    7.1818  -15.9409   21.6884 C   0  0  1  0  0  0  0  0  0  0  0  0
    7.1124  -17.4264   21.7567 C   0  0  0  0  0  0  0  0  0  0  0  0
    5.8767  -18.0669   21.2492 C   0  0  0  0  0  0  0  0  0  0  0  0
    5.9404  -18.7101   19.9041 C   0  0  0  0  0  0  0  0  0  0  0  0
    4.6528  -19.2757   19.4027 C   0  0  0  0  0  0  0  0  0  0  0  0
    4.6916  -19.8988   18.1172 N   0  0  0  0  0  0  0  0  0  0  0  0
    7.9262  -15.3990   22.8596 C   0  0  0  0  0  0  0  0  0  0  0  0
    9.1878  -15.2786   22.7163 O   0  0  0  0  0  0  0  0  0  0  0  0
    5.9320  -11.5612   25.9726 C   0  0  0  0  0  0  0  0  0  0  0  0
    6.7974  -12.5256   25.1628 C   0  0  0  0  0  0  0  0  0  0  0  0
    7.3888  -13.5914   26.0282 C   0  0  2  0  0  0  0  0  0  0  0  0
    8.2144  -13.0613   27.1730 C   0  0  0  0  0  0  0  0  0  0  0  0
    8.1165  -14.5963   25.1802 C   0  0  2  0  0  0  0  0  0  0  0  0
    7.2870  -15.0332   24.0727 N   0  0  0  0  0  0  0  0  0  0  0  0
    8.7566  -15.6525   25.9512 C   0  0  0  0  0  0  0  0  0  0  0  0
    8.0552  -16.2849   26.8300 O   0  0  0  0  0  0  0  0  0  0  0  0
   10.0999  -16.0970   25.8664 N   0  0  0  0  0  0  0  0  0  0  0  0
   10.9826  -15.7204   24.7771 C   0  0  0  0  0  0  0  0  0  0  0  0
   12.3091  -16.4568   25.0214 C   0  0  0  0  0  0  0  0  0  0  0  0
   12.2734  -16.6105   26.5089 C   0  0  0  0  0  0  0  0  0  0  0  0
   10.8089  -17.0134   26.7391 C   0  0  1  0  0  0  0  0  0  0  0  0
   10.4870  -16.8601   28.1761 C   0  0  0  0  0  0  0  0  0  0  0  0
   10.0140  -15.8489   28.6768 O   0  0  0  0  0  0  0  0  0  0  0  0
   10.7538  -17.9639   28.9857 O   0  0  0  0  0  0  0  0  0  0  0  0
  2  8  1  0
  2  1  1  6
  3  2  1  0
  4  3  1  0
  4  5  1  0
  6  7  1  0
  6  5  1  0
  8  9  2  0
 10 11  1  0
 11 12  1  0
 12 13  1  1
 14 12  1  0
 14 15  1  6
 15  8  1  0
 16 14  1  0
 17 16  2  0
 18 16  1  0
 18 22  1  0
 19 20  1  0
 19 18  1  0
 20 21  1  0
 21 22  1  0
 22 23  1  1
 23 25  1  0
 24 23  2  0
M  END
$$$$
