KIP.pdb
     RDKit          3D

 25 25  0  0  1  0  0  0  0  0999 V2000
    9.2023  -14.9120   20.5288 N   0  0  0  0  0  0  0  0  0  0  0  0
    8.7877  -15.7862   21.5605 C   0  0  1  0  0  0  0  0  0  0  0  0
    9.4559  -17.1148   21.4915 C   0  0  0  0  0  0  0  0  0  0  0  0
    8.6073  -18.2779   21.1421 C   0  0  0  0  0  0  0  0  0  0  0  0
    9.0995  -19.1872   20.0661 C   0  0  0  0  0  0  0  0  0  0  0  0
    8.1735  -20.2970   19.6917 C   0  0  0  0  0  0  0  0  0  0  0  0
    8.5776  -21.1168   18.5932 N   0  0  0  0  0  0  0  0  0  0  0  0
    8.9910  -15.1691   22.9012 C   0  0  0  0  0  0  0  0  0  0  0  0
   10.1273  -14.6261   23.1030 O   0  0  0  0  0  0  0  0  0  0  0  0
    5.4013  -12.1271   25.3878 C   0  0  0  0  0  0  0  0  0  0  0  0
    6.6934  -12.7767   24.8944 C   0  0  0  0  0  0  0  0  0  0  0  0
    7.1184  -13.8993   25.7852 C   0  0  2  0  0  0  0  0  0  0  0  0
    7.3037  -13.4991   27.2270 C   0  0  0  0  0  0  0  0  0  0  0  0
    8.3141  -14.5956   25.1988 C   0  0  2  0  0  0  0  0  0  0  0  0
    7.9913  -15.1755   23.9084 N   0  0  0  0  0  0  0  0  0  0  0  0
    8.9940  -15.4747   26.1394 C   0  0  0  0  0  0  0  0  0  0  0  0
    8.6497  -16.7172   26.1801 O   0  0  0  0  0  0  0  0  0  0  0  0
   10.0222  -15.1375   27.0550 N   0  0  0  0  0  0  0  0  0  0  0  0
   10.6667  -13.8367   27.0653 C   0  0  0  0  0  0  0  0  0  0  0  0
   11.7554  -13.9024   28.1480 C   0  0  0  0  0  0  0  0  0  0  0  0
   11.1801  -14.9390   29.0601 C   0  0  0  0  0  0  0  0  0  0  0  0
   10.6582  -15.9756   28.0536 C   0  0  1  0  0  0  0  0  0  0  0  0
    9.7366  -16.9019   28.7497 C   0  0  0  0  0  0  0  0  0  0  0  0
    8.5171  -16.8652   28.6590 O   0  0  0  0  0  0  0  0  0  0  0  0
   10.3338  -17.8706   29.5560 O   0  0  0  0  0  0  0  0  0  0  0  0
  2  8  1  0
  2  1  1  6
  3  2  1  0
  4  3  1  0
  4  5  1  0
  6  7  1  0
  6  5  1  0
  8  9  2  0
 10 11  1  0
 11 12  1  0
 12 13  1  1
 14 12  1  0
 14 15  1  6
 15  8  1  0
 16 14  1  0
 17 16  2  0
 18 16  1  0
 18 22  1  0
 19 20  1  0
 19 18  1  0
 20 21  1  0
 21 22  1  0
 22 23  1  1
 23 25  1  0
 24 23  2  0
M  END
$$$$
