KIP.pdb
     RDKit          3D

 25 25  0  0  1  0  0  0  0  0999 V2000
   12.5432  -17.1800   21.6860 N   0  0  0  0  0  0  0  0  0  0  0  0
   11.2278  -17.4334   22.1400 C   0  0  1  0  0  0  0  0  0  0  0  0
   11.1751  -18.4867   23.1907 C   0  0  0  0  0  0  0  0  0  0  0  0
   11.4971  -19.8712   22.7731 C   0  0  0  0  0  0  0  0  0  0  0  0
   11.4749  -20.9279   23.8266 C   0  0  0  0  0  0  0  0  0  0  0  0
   11.7032  -22.3214   23.3413 C   0  0  0  0  0  0  0  0  0  0  0  0
   10.7212  -22.8507   22.4481 N   0  0  0  0  0  0  0  0  0  0  0  0
   10.5757  -16.1833   22.6213 C   0  0  0  0  0  0  0  0  0  0  0  0
   11.3036  -15.4035   23.3203 O   0  0  0  0  0  0  0  0  0  0  0  0
    7.6238  -12.8759   19.7515 C   0  0  0  0  0  0  0  0  0  0  0  0
    8.5218  -13.5512   20.7871 C   0  0  0  0  0  0  0  0  0  0  0  0
    7.7507  -13.9554   22.0022 C   0  0  2  0  0  0  0  0  0  0  0  0
    6.9830  -12.8269   22.6426 C   0  0  0  0  0  0  0  0  0  0  0  0
    8.6480  -14.6881   22.9595 C   0  0  2  0  0  0  0  0  0  0  0  0
    9.2245  -15.8616   22.3301 N   0  0  0  0  0  0  0  0  0  0  0  0
    8.0512  -14.8976   24.2709 C   0  0  0  0  0  0  0  0  0  0  0  0
    7.4402  -16.0107   24.4985 O   0  0  0  0  0  0  0  0  0  0  0  0
    8.0477  -14.0088   25.3751 N   0  0  0  0  0  0  0  0  0  0  0  0
    8.7347  -12.7301   25.3539 C   0  0  0  0  0  0  0  0  0  0  0  0
    8.5443  -12.1141   26.7489 C   0  0  0  0  0  0  0  0  0  0  0  0
    7.2564  -12.7524   27.1627 C   0  0  0  0  0  0  0  0  0  0  0  0
    7.4671  -14.1991   26.6907 C   0  0  1  0  0  0  0  0  0  0  0  0
    6.1628  -14.8996   26.6866 C   0  0  0  0  0  0  0  0  0  0  0  0
    5.4145  -14.9666   25.7210 O   0  0  0  0  0  0  0  0  0  0  0  0
    5.7930  -15.5146   27.8826 O   0  0  0  0  0  0  0  0  0  0  0  0
  2  8  1  0
  2  1  1  1
  3  2  1  0
  4  3  1  0
  4  5  1  0
  6  7  1  0
  6  5  1  0
  8  9  2  0
 10 11  1  0
 11 12  1  0
 12 13  1  1
 14 12  1  0
 14 15  1  6
 15  8  1  0
 16 14  1  0
 17 16  2  0
 18 16  1  0
 18 22  1  0
 19 20  1  0
 19 18  1  0
 20 21  1  0
 21 22  1  0
 22 23  1  6
 23 25  1  0
 24 23  2  0
M  END
$$$$
