KIP.pdb
     RDKit          3D

 25 25  0  0  1  0  0  0  0  0999 V2000
    9.7805  -16.3833   20.5832 N   0  0  0  0  0  0  0  0  0  0  0  0
    8.8821  -16.6920   21.6312 C   0  0  1  0  0  0  0  0  0  0  0  0
    8.8653  -18.1426   21.9655 C   0  0  0  0  0  0  0  0  0  0  0  0
    7.9420  -19.0021   21.1885 C   0  0  0  0  0  0  0  0  0  0  0  0
    7.9483  -18.8489   19.7041 C   0  0  0  0  0  0  0  0  0  0  0  0
    6.9930  -19.7268   18.9653 C   0  0  0  0  0  0  0  0  0  0  0  0
    5.6322  -19.2921   18.9266 N   0  0  0  0  0  0  0  0  0  0  0  0
    9.1743  -15.8800   22.8456 C   0  0  0  0  0  0  0  0  0  0  0  0
   10.4073  -15.6936   23.1131 O   0  0  0  0  0  0  0  0  0  0  0  0
    6.0224  -12.5059   26.8344 C   0  0  0  0  0  0  0  0  0  0  0  0
    6.9957  -13.6314   26.4868 C   0  0  0  0  0  0  0  0  0  0  0  0
    7.5491  -13.4722   25.1073 C   0  0  2  0  0  0  0  0  0  0  0  0
    6.4952  -13.3366   24.0377 C   0  0  0  0  0  0  0  0  0  0  0  0
    8.5502  -14.5574   24.8273 C   0  0  2  0  0  0  0  0  0  0  0  0
    8.1542  -15.3378   23.6699 N   0  0  0  0  0  0  0  0  0  0  0  0
    8.9278  -15.3190   26.0094 C   0  0  0  0  0  0  0  0  0  0  0  0
    8.2513  -16.3778   26.3017 O   0  0  0  0  0  0  0  0  0  0  0  0
    9.9777  -15.0432   26.9209 N   0  0  0  0  0  0  0  0  0  0  0  0
   10.8137  -13.8608   26.8187 C   0  0  0  0  0  0  0  0  0  0  0  0
   11.8585  -13.9720   27.9402 C   0  0  0  0  0  0  0  0  0  0  0  0
   11.1137  -14.8056   28.9342 C   0  0  0  0  0  0  0  0  0  0  0  0
   10.4586  -15.8546   28.0230 C   0  0  1  0  0  0  0  0  0  0  0  0
    9.3927  -16.5510   28.7785 C   0  0  0  0  0  0  0  0  0  0  0  0
    8.2066  -16.2538   28.7382 O   0  0  0  0  0  0  0  0  0  0  0  0
    9.8046  -17.6144   29.5815 O   0  0  0  0  0  0  0  0  0  0  0  0
  2  8  1  0
  2  1  1  6
  3  2  1  0
  4  3  1  0
  4  5  1  0
  6  7  1  0
  6  5  1  0
  8  9  2  0
 10 11  1  0
 11 12  1  0
 12 13  1  6
 14 12  1  0
 14 15  1  6
 15  8  1  0
 16 14  1  0
 17 16  2  0
 18 16  1  0
 18 22  1  0
 19 20  1  0
 19 18  1  0
 20 21  1  0
 21 22  1  0
 22 23  1  1
 23 25  1  0
 24 23  2  0
M  END
$$$$
