KIP.pdb
     RDKit          3D

 25 25  0  0  1  0  0  0  0  0999 V2000
    9.1615  -14.7609   20.4795 N   0  0  0  0  0  0  0  0  0  0  0  0
    8.7010  -15.6670   21.4631 C   0  0  1  0  0  0  0  0  0  0  0  0
    9.3307  -17.0110   21.3465 C   0  0  0  0  0  0  0  0  0  0  0  0
    8.8800  -18.0508   22.3007 C   0  0  0  0  0  0  0  0  0  0  0  0
    8.0615  -19.1733   21.7556 C   0  0  0  0  0  0  0  0  0  0  0  0
    7.6307  -20.1961   22.7543 C   0  0  0  0  0  0  0  0  0  0  0  0
    6.2546  -20.1671   23.1387 N   0  0  0  0  0  0  0  0  0  0  0  0
    8.8962  -15.1166   22.8337 C   0  0  0  0  0  0  0  0  0  0  0  0
   10.0185  -14.5540   23.0583 O   0  0  0  0  0  0  0  0  0  0  0  0
    5.3358  -12.1483   25.5770 C   0  0  0  0  0  0  0  0  0  0  0  0
    6.6194  -12.7708   25.0294 C   0  0  0  0  0  0  0  0  0  0  0  0
    6.9750  -14.0264   25.7583 C   0  0  2  0  0  0  0  0  0  0  0  0
    7.0658  -13.8603   27.2541 C   0  0  0  0  0  0  0  0  0  0  0  0
    8.2022  -14.6438   25.1490 C   0  0  2  0  0  0  0  0  0  0  0  0
    7.9037  -15.2041   23.8442 N   0  0  0  0  0  0  0  0  0  0  0  0
    8.9309  -15.5120   26.0628 C   0  0  0  0  0  0  0  0  0  0  0  0
    8.6968  -16.7801   26.0257 O   0  0  0  0  0  0  0  0  0  0  0  0
    9.8994  -15.1389   27.0282 N   0  0  0  0  0  0  0  0  0  0  0  0
   10.4341  -13.7924   27.1218 C   0  0  0  0  0  0  0  0  0  0  0  0
   11.4910  -13.8237   28.2370 C   0  0  0  0  0  0  0  0  0  0  0  0
   10.9754  -14.9474   29.0791 C   0  0  0  0  0  0  0  0  0  0  0  0
   10.5715  -15.9715   28.0075 C   0  0  1  0  0  0  0  0  0  0  0  0
    9.7085  -17.0025   28.6272 C   0  0  0  0  0  0  0  0  0  0  0  0
    8.4917  -17.0509   28.5091 O   0  0  0  0  0  0  0  0  0  0  0  0
   10.3605  -17.9700   29.3913 O   0  0  0  0  0  0  0  0  0  0  0  0
  2  8  1  0
  2  1  1  6
  3  2  1  0
  4  3  1  0
  4  5  1  0
  6  7  1  0
  6  5  1  0
  8  9  2  0
 10 11  1  0
 11 12  1  0
 12 13  1  1
 14 12  1  0
 14 15  1  6
 15  8  1  0
 16 14  1  0
 17 16  2  0
 18 16  1  0
 18 22  1  0
 19 20  1  0
 19 18  1  0
 20 21  1  0
 21 22  1  0
 22 23  1  1
 23 25  1  0
 24 23  2  0
M  END
$$$$
