KIP.pdb
     RDKit          3D

 25 25  0  0  1  0  0  0  0  0999 V2000
    6.7754  -16.4341   21.9802 N   0  0  0  0  0  0  0  0  0  0  0  0
    8.0958  -15.9544   21.8162 C   0  0  1  0  0  0  0  0  0  0  0  0
    8.2396  -15.0585   20.6359 C   0  0  0  0  0  0  0  0  0  0  0  0
    9.0734  -15.5506   19.5146 C   0  0  0  0  0  0  0  0  0  0  0  0
    8.6359  -16.8043   18.8335 C   0  0  0  0  0  0  0  0  0  0  0  0
    9.5288  -17.2827   17.7366 C   0  0  0  0  0  0  0  0  0  0  0  0
   10.3957  -18.3733   18.0547 N   0  0  0  0  0  0  0  0  0  0  0  0
    8.5766  -15.2725   23.0504 C   0  0  0  0  0  0  0  0  0  0  0  0
    9.7874  -14.8720   23.0353 O   0  0  0  0  0  0  0  0  0  0  0  0
    5.4865  -12.1996   26.0143 C   0  0  0  0  0  0  0  0  0  0  0  0
    6.7484  -12.7608   25.3604 C   0  0  0  0  0  0  0  0  0  0  0  0
    7.4032  -13.7901   26.2243 C   0  0  2  0  0  0  0  0  0  0  0  0
    8.0008  -13.2340   27.4919 C   0  0  0  0  0  0  0  0  0  0  0  0
    8.3723  -14.6015   25.4113 C   0  0  2  0  0  0  0  0  0  0  0  0
    7.7511  -15.0715   24.1871 N   0  0  0  0  0  0  0  0  0  0  0  0
    9.0857  -15.6048   26.1887 C   0  0  0  0  0  0  0  0  0  0  0  0
    8.5442  -16.7658   26.3405 O   0  0  0  0  0  0  0  0  0  0  0  0
   10.3433  -15.4738   26.8295 N   0  0  0  0  0  0  0  0  0  0  0  0
   11.1966  -14.3129   26.6509 C   0  0  0  0  0  0  0  0  0  0  0  0
   12.4782  -14.5914   27.4518 C   0  0  0  0  0  0  0  0  0  0  0  0
   11.9550  -15.5180   28.5031 C   0  0  0  0  0  0  0  0  0  0  0  0
   11.0332  -16.4278   27.6768 C   0  0  1  0  0  0  0  0  0  0  0  0
   10.1485  -17.1796   28.5955 C   0  0  0  0  0  0  0  0  0  0  0  0
    8.9700  -16.9172   28.7931 O   0  0  0  0  0  0  0  0  0  0  0  0
   10.7315  -18.2551   29.2654 O   0  0  0  0  0  0  0  0  0  0  0  0
  2  8  1  0
  2  1  1  1
  3  2  1  0
  4  3  1  0
  4  5  1  0
  6  7  1  0
  6  5  1  0
  8  9  2  0
 10 11  1  0
 11 12  1  0
 12 13  1  1
 14 12  1  0
 14 15  1  6
 15  8  1  0
 16 14  1  0
 17 16  2  0
 18 16  1  0
 18 22  1  0
 19 20  1  0
 19 18  1  0
 20 21  1  0
 21 22  1  0
 22 23  1  1
 23 25  1  0
 24 23  2  0
M  END
$$$$
