KIP.pdb
     RDKit          3D

 25 25  0  0  1  0  0  0  0  0999 V2000
    8.5533  -15.8551   20.8350 N   0  0  0  0  0  0  0  0  0  0  0  0
    7.8723  -16.2773   22.0007 C   0  0  1  0  0  0  0  0  0  0  0  0
    7.8450  -17.7587   22.1458 C   0  0  0  0  0  0  0  0  0  0  0  0
    7.5144  -18.5478   20.9363 C   0  0  0  0  0  0  0  0  0  0  0  0
    8.6522  -19.1230   20.1608 C   0  0  0  0  0  0  0  0  0  0  0  0
    8.2687  -20.0199   19.0303 C   0  0  0  0  0  0  0  0  0  0  0  0
    9.3425  -20.6434   18.3230 N   0  0  0  0  0  0  0  0  0  0  0  0
    8.4503  -15.6443   23.2192 C   0  0  0  0  0  0  0  0  0  0  0  0
    9.7182  -15.5065   23.2328 O   0  0  0  0  0  0  0  0  0  0  0  0
    5.7868  -11.8644   25.9654 C   0  0  0  0  0  0  0  0  0  0  0  0
    6.8043  -12.7665   25.2684 C   0  0  0  0  0  0  0  0  0  0  0  0
    7.4302  -13.7296   26.2250 C   0  0  2  0  0  0  0  0  0  0  0  0
    8.1001  -13.0716   27.4046 C   0  0  0  0  0  0  0  0  0  0  0  0
    8.3250  -14.6820   25.4829 C   0  0  2  0  0  0  0  0  0  0  0  0
    7.6534  -15.2138   24.3117 N   0  0  0  0  0  0  0  0  0  0  0  0
    8.9734  -15.6608   26.3439 C   0  0  0  0  0  0  0  0  0  0  0  0
    8.2339  -16.4157   27.0838 O   0  0  0  0  0  0  0  0  0  0  0  0
   10.3622  -15.9056   26.4878 N   0  0  0  0  0  0  0  0  0  0  0  0
   11.3468  -15.4128   25.5416 C   0  0  0  0  0  0  0  0  0  0  0  0
   12.7075  -15.9463   26.0167 C   0  0  0  0  0  0  0  0  0  0  0  0
   12.4536  -16.0923   27.4836 C   0  0  0  0  0  0  0  0  0  0  0  0
   11.0436  -16.7024   27.4902 C   0  0  1  0  0  0  0  0  0  0  0  0
   10.4747  -16.5866   28.8521 C   0  0  0  0  0  0  0  0  0  0  0  0
    9.7083  -15.7031   29.2108 O   0  0  0  0  0  0  0  0  0  0  0  0
   10.8603  -17.5694   29.7636 O   0  0  0  0  0  0  0  0  0  0  0  0
  2  8  1  0
  2  1  1  6
  3  2  1  0
  4  3  1  0
  4  5  1  0
  6  7  1  0
  6  5  1  0
  8  9  2  0
 10 11  1  0
 11 12  1  0
 12 13  1  1
 14 12  1  0
 14 15  1  6
 15  8  1  0
 16 14  1  0
 17 16  2  0
 18 16  1  0
 18 22  1  0
 19 20  1  0
 19 18  1  0
 20 21  1  0
 21 22  1  0
 22 23  1  1
 23 25  1  0
 24 23  2  0
M  END
$$$$
