MFY.pdb
     RDKit          3D

 32 33  0  0  1  0  0  0  0  0999 V2000
    5.9648  -20.0004   21.6658 C   0  0  0  0  0  0  0  0  0  0  0  0
    6.3842  -19.5355   19.9695 S   0  0  0  0  0  0  0  0  0  0  0  0
    8.1894  -19.5888   19.7700 C   0  0  0  0  0  0  0  0  0  0  0  0
    8.8179  -18.7879   20.8993 C   0  0  0  0  0  0  0  0  0  0  0  0
    8.8995  -17.3255   20.5022 C   0  0  2  0  0  0  0  0  0  0  0  0
   10.0053  -17.1732   19.5947 N   0  0  0  0  0  0  0  0  0  0  0  0
    9.0192  -16.4448   21.6868 C   0  0  0  0  0  0  0  0  0  0  0  0
   10.1092  -16.4524   22.3136 O   0  0  0  0  0  0  0  0  0  0  0  0
    7.9796  -15.6148   22.1305 N   0  0  0  0  0  0  0  0  0  0  0  0
    8.0276  -14.7982   23.3195 C   0  0  1  0  0  0  0  0  0  0  0  0
    6.9123  -13.7726   23.3358 C   0  0  0  0  0  0  0  0  0  0  0  0
    6.9523  -13.0138   24.5861 C   0  0  0  0  0  0  0  0  0  0  0  0
    7.8491  -11.9871   24.7698 C   0  0  0  0  0  0  0  0  0  0  0  0
    7.8542  -11.2892   25.9767 C   0  0  0  0  0  0  0  0  0  0  0  0
    6.9773  -11.6086   26.9903 C   0  0  0  0  0  0  0  0  0  0  0  0
    6.0785  -12.6356   26.8098 C   0  0  0  0  0  0  0  0  0  0  0  0
    6.0882  -13.3119   25.6137 C   0  0  0  0  0  0  0  0  0  0  0  0
    7.9572  -15.6808   24.5020 C   0  0  0  0  0  0  0  0  0  0  0  0
    6.9249  -16.3662   24.6892 O   0  0  0  0  0  0  0  0  0  0  0  0
    9.5138  -21.9953   30.2298 O   0  0  0  0  0  0  0  0  0  0  0  0
    9.3585  -21.0536   29.2117 C   0  0  0  0  0  0  0  0  0  0  0  0
   10.4157  -20.2810   28.7739 C   0  0  0  0  0  0  0  0  0  0  0  0
   10.2457  -19.3495   27.7613 C   0  0  0  0  0  0  0  0  0  0  0  0
    9.0255  -19.1544   27.1516 C   0  0  0  0  0  0  0  0  0  0  0  0
    8.8226  -18.1696   26.0725 C   0  0  0  0  0  0  0  0  0  0  0  0
    9.0130  -16.7468   26.5451 C   0  0  2  0  0  0  0  0  0  0  0  0
    9.0006  -15.8036   25.4539 N   0  0  0  0  0  0  0  0  0  0  0  0
   10.2976  -16.5697   27.2654 C   0  0  0  0  0  0  0  0  0  0  0  0
   11.4951  -16.4046   26.5816 O   0  0  0  0  0  0  0  0  0  0  0  0
    7.9681  -19.9301   27.5922 C   0  0  0  0  0  0  0  0  0  0  0  0
    8.1350  -20.8672   28.6096 C   0  0  0  0  0  0  0  0  0  0  0  0
   10.3741  -16.5591   28.5355 O   0  0  0  0  0  0  0  0  0  0  0  0
  2  1  1  0
  3  4  1  0
  3  2  1  0
  5  7  1  0
  5  6  1  6
  5  4  1  0
  7  8  2  0
  9 10  1  0
  9  7  1  0
 10 18  1  0
 10 11  1  6
 12 17  1  0
 12 11  1  0
 13 12  2  0
 14 15  2  0
 14 13  1  0
 15 16  1  0
 16 17  2  0
 18 19  2  0
 20 21  1  0
 21 22  2  0
 21 31  1  0
 22 23  1  0
 23 24  2  0
 24 25  1  0
 26 25  1  6
 26 28  1  0
 27 18  1  0
 27 26  1  0
 28 32  2  0
 28 29  1  0
 30 24  1  0
 31 30  2  0
M  END
$$$$
