MFY.pdb
     RDKit          3D

 32 33  0  0  1  0  0  0  0  0999 V2000
    8.5863  -12.8022   18.9093 C   0  0  0  0  0  0  0  0  0  0  0  0
    7.3432  -14.0111   19.4221 S   0  0  0  0  0  0  0  0  0  0  0  0
    8.0108  -15.6842   19.1840 C   0  0  0  0  0  0  0  0  0  0  0  0
    9.4841  -15.6677   19.5593 C   0  0  0  0  0  0  0  0  0  0  0  0
    9.6959  -16.4765   20.8258 C   0  0  2  0  0  0  0  0  0  0  0  0
    8.6863  -17.5002   20.8725 N   0  0  0  0  0  0  0  0  0  0  0  0
    9.6800  -15.6160   22.0311 C   0  0  0  0  0  0  0  0  0  0  0  0
   10.5712  -14.7348   22.1325 O   0  0  0  0  0  0  0  0  0  0  0  0
    8.7238  -15.7436   23.0488 N   0  0  0  0  0  0  0  0  0  0  0  0
    8.5521  -14.8140   24.1394 C   0  0  1  0  0  0  0  0  0  0  0  0
    7.1534  -14.2316   24.1594 C   0  0  0  0  0  0  0  0  0  0  0  0
    7.0122  -13.3147   25.2907 C   0  0  0  0  0  0  0  0  0  0  0  0
    7.7079  -12.1291   25.3399 C   0  0  0  0  0  0  0  0  0  0  0  0
    7.5448  -11.2836   26.4363 C   0  0  0  0  0  0  0  0  0  0  0  0
    6.6992  -11.6133   27.4730 C   0  0  0  0  0  0  0  0  0  0  0  0
    6.0015  -12.7991   27.4270 C   0  0  0  0  0  0  0  0  0  0  0  0
    6.1750  -13.6194   26.3384 C   0  0  0  0  0  0  0  0  0  0  0  0
    8.8576  -15.5100   25.4060 C   0  0  0  0  0  0  0  0  0  0  0  0
    7.9142  -15.8400   26.1620 O   0  0  0  0  0  0  0  0  0  0  0  0
    5.8345  -21.0958   27.9093 O   0  0  0  0  0  0  0  0  0  0  0  0
    6.8623  -20.3959   27.2759 C   0  0  0  0  0  0  0  0  0  0  0  0
    6.7788  -20.0353   25.9459 C   0  0  0  0  0  0  0  0  0  0  0  0
    7.8083  -19.3401   25.3305 C   0  0  0  0  0  0  0  0  0  0  0  0
    8.9509  -18.9809   26.0119 C   0  0  0  0  0  0  0  0  0  0  0  0
   10.0577  -18.2411   25.3771 C   0  0  0  0  0  0  0  0  0  0  0  0
   10.5995  -17.1412   26.2606 C   0  0  2  0  0  0  0  0  0  0  0  0
   10.1721  -15.8335   25.8274 N   0  0  0  0  0  0  0  0  0  0  0  0
   12.0826  -17.1329   26.2879 C   0  0  0  0  0  0  0  0  0  0  0  0
   12.8279  -16.9643   25.1282 O   0  0  0  0  0  0  0  0  0  0  0  0
    9.0317  -19.3437   27.3445 C   0  0  0  0  0  0  0  0  0  0  0  0
    7.9991  -20.0423   27.9664 C   0  0  0  0  0  0  0  0  0  0  0  0
   12.7480  -17.2779   27.3628 O   0  0  0  0  0  0  0  0  0  0  0  0
  2  1  1  0
  3  4  1  0
  3  2  1  0
  5  7  1  0
  5  6  1  1
  5  4  1  0
  7  8  2  0
  9 10  1  0
  9  7  1  0
 10 18  1  0
 10 11  1  1
 12 17  1  0
 12 11  1  0
 13 12  2  0
 14 15  2  0
 14 13  1  0
 15 16  1  0
 16 17  2  0
 18 19  2  0
 20 21  1  0
 21 22  2  0
 21 31  1  0
 22 23  1  0
 23 24  2  0
 24 25  1  0
 26 25  1  6
 26 28  1  0
 27 18  1  0
 27 26  1  0
 28 32  2  0
 28 29  1  0
 30 24  1  0
 31 30  2  0
M  END
$$$$
