MFY.pdb
     RDKit          3D

 32 33  0  0  1  0  0  0  0  0999 V2000
    8.5576  -11.8079   17.5392 C   0  0  0  0  0  0  0  0  0  0  0  0
    7.3766  -13.0594   16.9834 S   0  0  0  0  0  0  0  0  0  0  0  0
    7.5809  -14.5561   17.9929 C   0  0  0  0  0  0  0  0  0  0  0  0
    9.0691  -14.8174   18.1627 C   0  0  0  0  0  0  0  0  0  0  0  0
    9.2778  -15.9460   19.1556 C   0  0  2  0  0  0  0  0  0  0  0  0
    8.1610  -16.8461   19.0454 N   0  0  0  0  0  0  0  0  0  0  0  0
    9.4529  -15.4338   20.5341 C   0  0  0  0  0  0  0  0  0  0  0  0
   10.5078  -14.8007   20.7934 O   0  0  0  0  0  0  0  0  0  0  0  0
    8.5019  -15.6245   21.5470 N   0  0  0  0  0  0  0  0  0  0  0  0
    8.5126  -14.9528   22.8243 C   0  0  1  0  0  0  0  0  0  0  0  0
    7.1075  -14.6926   23.3283 C   0  0  0  0  0  0  0  0  0  0  0  0
    7.1610  -13.9965   24.6141 C   0  0  0  0  0  0  0  0  0  0  0  0
    7.5454  -12.6784   24.6969 C   0  0  0  0  0  0  0  0  0  0  0  0
    7.5829  -12.0522   25.9419 C   0  0  0  0  0  0  0  0  0  0  0  0
    7.2421  -12.7293   27.0925 C   0  0  0  0  0  0  0  0  0  0  0  0
    6.8570  -14.0485   27.0133 C   0  0  0  0  0  0  0  0  0  0  0  0
    6.8260  -14.6488   25.7776 C   0  0  0  0  0  0  0  0  0  0  0  0
    9.2792  -15.7741   23.7835 C   0  0  0  0  0  0  0  0  0  0  0  0
    8.7805  -16.8447   24.2026 O   0  0  0  0  0  0  0  0  0  0  0  0
   11.4266  -16.2163   31.9975 O   0  0  0  0  0  0  0  0  0  0  0  0
   11.0994  -15.8840   30.6821 C   0  0  0  0  0  0  0  0  0  0  0  0
   11.0476  -14.5707   30.2596 C   0  0  0  0  0  0  0  0  0  0  0  0
   10.7209  -14.2565   28.9495 C   0  0  0  0  0  0  0  0  0  0  0  0
   10.4359  -15.2314   28.0184 C   0  0  0  0  0  0  0  0  0  0  0  0
   10.0866  -14.9196   26.6198 C   0  0  0  0  0  0  0  0  0  0  0  0
   11.0070  -15.5952   25.6296 C   0  0  2  0  0  0  0  0  0  0  0  0
   10.5643  -15.4221   24.2678 N   0  0  0  0  0  0  0  0  0  0  0  0
   11.1109  -17.0542   25.8766 C   0  0  0  0  0  0  0  0  0  0  0  0
   12.2578  -17.6172   26.4211 O   0  0  0  0  0  0  0  0  0  0  0  0
   10.4887  -16.5465   28.4447 C   0  0  0  0  0  0  0  0  0  0  0  0
   10.8165  -16.8663   29.7605 C   0  0  0  0  0  0  0  0  0  0  0  0
   10.1662  -17.8629   25.6067 O   0  0  0  0  0  0  0  0  0  0  0  0
  2  1  1  0
  3  4  1  0
  3  2  1  0
  5  7  1  0
  5  6  1  1
  5  4  1  0
  7  8  2  0
  9 10  1  0
  9  7  1  0
 10 18  1  0
 10 11  1  1
 12 17  1  0
 12 11  1  0
 13 12  2  0
 14 15  2  0
 14 13  1  0
 15 16  1  0
 16 17  2  0
 18 19  2  0
 20 21  1  0
 21 22  2  0
 21 31  1  0
 22 23  1  0
 23 24  2  0
 24 25  1  0
 26 25  1  1
 26 28  1  0
 27 18  1  0
 27 26  1  0
 28 32  2  0
 28 29  1  0
 30 24  1  0
 31 30  2  0
M  END
$$$$
