MFY.pdb
     RDKit          3D

 32 33  0  0  1  0  0  0  0  0999 V2000
    8.4426  -21.1340   21.5458 C   0  0  0  0  0  0  0  0  0  0  0  0
   10.0965  -20.9140   20.8488 S   0  0  0  0  0  0  0  0  0  0  0  0
   10.3617  -19.1510   20.4982 C   0  0  0  0  0  0  0  0  0  0  0  0
    9.0049  -18.4965   20.2917 C   0  0  0  0  0  0  0  0  0  0  0  0
    9.1925  -17.0233   19.9794 C   0  0  2  0  0  0  0  0  0  0  0  0
   10.3532  -16.8921   19.1397 N   0  0  0  0  0  0  0  0  0  0  0  0
    9.2982  -16.2134   21.2149 C   0  0  0  0  0  0  0  0  0  0  0  0
   10.4496  -15.9088   21.6179 O   0  0  0  0  0  0  0  0  0  0  0  0
    8.1806  -15.7793   21.9422 N   0  0  0  0  0  0  0  0  0  0  0  0
    8.2373  -14.9599   23.1290 C   0  0  1  0  0  0  0  0  0  0  0  0
    6.8957  -14.3236   23.4308 C   0  0  0  0  0  0  0  0  0  0  0  0
    6.9937  -13.5054   24.6397 C   0  0  0  0  0  0  0  0  0  0  0  0
    6.3941  -13.8936   25.8152 C   0  0  0  0  0  0  0  0  0  0  0  0
    6.5117  -13.0847   26.9444 C   0  0  0  0  0  0  0  0  0  0  0  0
    7.2177  -11.9021   26.9056 C   0  0  0  0  0  0  0  0  0  0  0  0
    7.8189  -11.5104   25.7308 C   0  0  0  0  0  0  0  0  0  0  0  0
    7.6922  -12.3207   24.6283 C   0  0  0  0  0  0  0  0  0  0  0  0
    8.6972  -15.7946   24.2577 C   0  0  0  0  0  0  0  0  0  0  0  0
    8.1805  -16.9233   24.4300 O   0  0  0  0  0  0  0  0  0  0  0  0
   13.7662  -19.1933   30.6888 O   0  0  0  0  0  0  0  0  0  0  0  0
   13.2341  -18.3541   29.7090 C   0  0  0  0  0  0  0  0  0  0  0  0
   12.5920  -17.1766   30.0364 C   0  0  0  0  0  0  0  0  0  0  0  0
   12.0685  -16.3532   29.0515 C   0  0  0  0  0  0  0  0  0  0  0  0
   12.1645  -16.6697   27.7138 C   0  0  0  0  0  0  0  0  0  0  0  0
   11.6154  -15.8082   26.6500 C   0  0  0  0  0  0  0  0  0  0  0  0
   10.2175  -16.2129   26.2424 C   0  0  2  0  0  0  0  0  0  0  0  0
    9.7024  -15.3931   25.1732 N   0  0  0  0  0  0  0  0  0  0  0  0
    9.2611  -16.1151   27.3721 C   0  0  0  0  0  0  0  0  0  0  0  0
    8.8103  -14.8859   27.8356 O   0  0  0  0  0  0  0  0  0  0  0  0
   12.8086  -17.8501   27.3888 C   0  0  0  0  0  0  0  0  0  0  0  0
   13.3359  -18.6802   28.3758 C   0  0  0  0  0  0  0  0  0  0  0  0
    8.8049  -17.1397   27.9731 O   0  0  0  0  0  0  0  0  0  0  0  0
  2  1  1  0
  3  4  1  0
  3  2  1  0
  5  7  1  0
  5  6  1  6
  5  4  1  0
  7  8  2  0
  9 10  1  0
  9  7  1  0
 10 18  1  0
 10 11  1  1
 12 17  1  0
 12 11  1  0
 13 12  2  0
 14 15  2  0
 14 13  1  0
 15 16  1  0
 16 17  2  0
 18 19  2  0
 20 21  1  0
 21 22  2  0
 21 31  1  0
 22 23  1  0
 23 24  2  0
 24 25  1  0
 26 25  1  1
 26 28  1  0
 27 18  1  0
 27 26  1  0
 28 32  2  0
 28 29  1  0
 30 24  1  0
 31 30  2  0
M  END
$$$$
