MFY.pdb
     RDKit          3D

 32 33  0  0  1  0  0  0  0  0999 V2000
    8.2789  -11.9903   19.1070 C   0  0  0  0  0  0  0  0  0  0  0  0
    7.6960  -12.6099   17.5113 S   0  0  0  0  0  0  0  0  0  0  0  0
    7.7213  -14.4264   17.5364 C   0  0  0  0  0  0  0  0  0  0  0  0
    6.8448  -14.8999   18.6850 C   0  0  0  0  0  0  0  0  0  0  0  0
    7.5989  -15.9246   19.5121 C   0  0  2  0  0  0  0  0  0  0  0  0
    6.8807  -17.1690   19.4393 N   0  0  0  0  0  0  0  0  0  0  0  0
    7.7885  -15.4660   20.9075 C   0  0  0  0  0  0  0  0  0  0  0  0
    6.9292  -14.6839   21.3880 O   0  0  0  0  0  0  0  0  0  0  0  0
    8.8731  -15.8640   21.7022 N   0  0  0  0  0  0  0  0  0  0  0  0
    9.0892  -15.4509   23.0681 C   0  0  1  0  0  0  0  0  0  0  0  0
    7.9296  -15.8467   23.9595 C   0  0  0  0  0  0  0  0  0  0  0  0
    7.4657  -14.6847   24.7180 C   0  0  0  0  0  0  0  0  0  0  0  0
    7.4800  -13.4228   24.1707 C   0  0  0  0  0  0  0  0  0  0  0  0
    7.0293  -12.3423   24.9276 C   0  0  0  0  0  0  0  0  0  0  0  0
    6.5694  -12.5144   26.2150 C   0  0  0  0  0  0  0  0  0  0  0  0
    6.5538  -13.7758   26.7659 C   0  0  0  0  0  0  0  0  0  0  0  0
    7.0018  -14.8285   26.0047 C   0  0  0  0  0  0  0  0  0  0  0  0
   10.3551  -16.0434   23.5462 C   0  0  0  0  0  0  0  0  0  0  0  0
   10.7002  -17.1693   23.1176 O   0  0  0  0  0  0  0  0  0  0  0  0
   11.0809  -15.5668   32.2505 O   0  0  0  0  0  0  0  0  0  0  0  0
   10.8408  -15.6203   30.8768 C   0  0  0  0  0  0  0  0  0  0  0  0
   10.3607  -16.7641   30.2708 C   0  0  0  0  0  0  0  0  0  0  0  0
   10.1272  -16.8019   28.9048 C   0  0  0  0  0  0  0  0  0  0  0  0
   10.3613  -15.7099   28.0976 C   0  0  0  0  0  0  0  0  0  0  0  0
   10.1193  -15.7281   26.6428 C   0  0  0  0  0  0  0  0  0  0  0  0
   11.3996  -15.8196   25.8450 C   0  0  2  0  0  0  0  0  0  0  0  0
   11.2185  -15.4085   24.4743 N   0  0  0  0  0  0  0  0  0  0  0  0
   11.9405  -17.2007   25.8224 C   0  0  0  0  0  0  0  0  0  0  0  0
   11.1755  -18.2714   25.3781 O   0  0  0  0  0  0  0  0  0  0  0  0
   10.8422  -14.5651   28.7078 C   0  0  0  0  0  0  0  0  0  0  0  0
   11.0782  -14.5234   30.0803 C   0  0  0  0  0  0  0  0  0  0  0  0
   13.1219  -17.4792   26.2043 O   0  0  0  0  0  0  0  0  0  0  0  0
  2  1  1  0
  3  4  1  0
  3  2  1  0
  5  7  1  0
  5  6  1  1
  5  4  1  0
  7  8  2  0
  9 10  1  0
  9  7  1  0
 10 18  1  0
 10 11  1  1
 12 17  1  0
 12 11  1  0
 13 12  2  0
 14 15  2  0
 14 13  1  0
 15 16  1  0
 16 17  2  0
 18 19  2  0
 20 21  1  0
 21 22  2  0
 21 31  1  0
 22 23  1  0
 23 24  2  0
 24 25  1  0
 26 25  1  1
 26 28  1  0
 27 18  1  0
 27 26  1  0
 28 32  2  0
 28 29  1  0
 30 24  1  0
 31 30  2  0
M  END
$$$$
