MFY.pdb
     RDKit          3D

 32 33  0  0  1  0  0  0  0  0999 V2000
    7.5895  -19.9844   15.3280 C   0  0  0  0  0  0  0  0  0  0  0  0
    7.7175  -18.4016   16.1929 S   0  0  0  0  0  0  0  0  0  0  0  0
    8.4027  -18.6866   17.8513 C   0  0  0  0  0  0  0  0  0  0  0  0
    8.3900  -17.3667   18.6059 C   0  0  0  0  0  0  0  0  0  0  0  0
    8.9427  -17.5741   20.0040 C   0  0  2  0  0  0  0  0  0  0  0  0
    8.1877  -18.6279   20.6277 N   0  0  0  0  0  0  0  0  0  0  0  0
    8.9156  -16.3207   20.7924 C   0  0  0  0  0  0  0  0  0  0  0  0
    9.5527  -15.3338   20.3440 O   0  0  0  0  0  0  0  0  0  0  0  0
    8.2174  -16.1934   22.0018 N   0  0  0  0  0  0  0  0  0  0  0  0
    8.1955  -15.0042   22.8194 C   0  0  1  0  0  0  0  0  0  0  0  0
    7.0464  -15.0285   23.8067 C   0  0  0  0  0  0  0  0  0  0  0  0
    7.1008  -13.8433   24.6628 C   0  0  0  0  0  0  0  0  0  0  0  0
    6.9073  -13.9346   26.0216 C   0  0  0  0  0  0  0  0  0  0  0  0
    6.9672  -12.7806   26.8016 C   0  0  0  0  0  0  0  0  0  0  0  0
    7.2167  -11.5489   26.2368 C   0  0  0  0  0  0  0  0  0  0  0  0
    7.4107  -11.4538   24.8773 C   0  0  0  0  0  0  0  0  0  0  0  0
    7.3480  -12.6019   24.1248 C   0  0  0  0  0  0  0  0  0  0  0  0
    9.4933  -14.8853   23.5150 C   0  0  0  0  0  0  0  0  0  0  0  0
    9.9940  -13.7482   23.6787 O   0  0  0  0  0  0  0  0  0  0  0  0
    8.7453  -15.3417   30.5463 O   0  0  0  0  0  0  0  0  0  0  0  0
    9.4380  -15.7138   29.3933 C   0  0  0  0  0  0  0  0  0  0  0  0
   10.0730  -14.7806   28.5985 C   0  0  0  0  0  0  0  0  0  0  0  0
   10.7572  -15.1658   27.4559 C   0  0  0  0  0  0  0  0  0  0  0  0
   10.8338  -16.4850   27.0655 C   0  0  0  0  0  0  0  0  0  0  0  0
   11.5564  -16.9168   25.8544 C   0  0  0  0  0  0  0  0  0  0  0  0
   11.4672  -15.9041   24.7361 C   0  0  2  0  0  0  0  0  0  0  0  0
   10.2199  -15.9942   24.0172 N   0  0  0  0  0  0  0  0  0  0  0  0
   12.5590  -16.0743   23.7465 C   0  0  0  0  0  0  0  0  0  0  0  0
   12.2955  -16.4359   22.4317 O   0  0  0  0  0  0  0  0  0  0  0  0
   10.1965  -17.4179   27.8640 C   0  0  0  0  0  0  0  0  0  0  0  0
    9.5079  -17.0346   29.0130 C   0  0  0  0  0  0  0  0  0  0  0  0
   13.7842  -15.9005   24.0427 O   0  0  0  0  0  0  0  0  0  0  0  0
  2  1  1  0
  3  4  1  0
  3  2  1  0
  5  7  1  0
  5  6  1  1
  5  4  1  0
  7  8  2  0
  9 10  1  0
  9  7  1  0
 10 18  1  0
 10 11  1  1
 12 17  1  0
 12 11  1  0
 13 12  2  0
 14 15  2  0
 14 13  1  0
 15 16  1  0
 16 17  2  0
 18 19  2  0
 20 21  1  0
 21 22  2  0
 21 31  1  0
 22 23  1  0
 23 24  2  0
 24 25  1  0
 26 25  1  1
 26 28  1  0
 27 18  1  0
 27 26  1  0
 28 32  2  0
 28 29  1  0
 30 24  1  0
 31 30  2  0
M  END
$$$$
