MFY.pdb
     RDKit          3D

 32 33  0  0  1  0  0  0  0  0999 V2000
   10.2529  -20.9683   22.7840 C   0  0  0  0  0  0  0  0  0  0  0  0
   10.0391  -21.4166   21.0453 S   0  0  0  0  0  0  0  0  0  0  0  0
    9.4289  -19.9697   20.1314 C   0  0  0  0  0  0  0  0  0  0  0  0
    9.5138  -18.7576   21.0454 C   0  0  0  0  0  0  0  0  0  0  0  0
    8.9245  -17.5481   20.3433 C   0  0  2  0  0  0  0  0  0  0  0  0
    9.6172  -17.3794   19.0938 N   0  0  0  0  0  0  0  0  0  0  0  0
    8.9945  -16.3370   21.1928 C   0  0  0  0  0  0  0  0  0  0  0  0
   10.0618  -15.6724   21.1771 O   0  0  0  0  0  0  0  0  0  0  0  0
    7.9325  -15.9086   22.0022 N   0  0  0  0  0  0  0  0  0  0  0  0
    7.9881  -14.7873   22.9092 C   0  0  1  0  0  0  0  0  0  0  0  0
    6.6137  -14.1958   23.1480 C   0  0  0  0  0  0  0  0  0  0  0  0
    6.6919  -13.1520   24.1702 C   0  0  0  0  0  0  0  0  0  0  0  0
    6.1171  -13.3207   25.4084 C   0  0  0  0  0  0  0  0  0  0  0  0
    6.2145  -12.3010   26.3540 C   0  0  0  0  0  0  0  0  0  0  0  0
    6.8762  -11.1259   26.0718 C   0  0  0  0  0  0  0  0  0  0  0  0
    7.4525  -10.9536   24.8335 C   0  0  0  0  0  0  0  0  0  0  0  0
    7.3462  -11.9696   23.9145 C   0  0  0  0  0  0  0  0  0  0  0  0
    8.6033  -15.2343   24.1756 C   0  0  0  0  0  0  0  0  0  0  0  0
    7.8653  -15.6678   25.0910 O   0  0  0  0  0  0  0  0  0  0  0  0
   12.1914  -17.1521   31.6828 O   0  0  0  0  0  0  0  0  0  0  0  0
   11.5839  -16.9345   30.4454 C   0  0  0  0  0  0  0  0  0  0  0  0
   11.2035  -17.9834   29.6322 C   0  0  0  0  0  0  0  0  0  0  0  0
   10.6009  -17.7511   28.4055 C   0  0  0  0  0  0  0  0  0  0  0  0
   10.3566  -16.4750   27.9465 C   0  0  0  0  0  0  0  0  0  0  0  0
    9.7166  -16.2053   26.6453 C   0  0  0  0  0  0  0  0  0  0  0  0
   10.6096  -15.4184   25.7139 C   0  0  2  0  0  0  0  0  0  0  0  0
    9.9985  -15.2033   24.4252 N   0  0  0  0  0  0  0  0  0  0  0  0
   11.9044  -16.1029   25.4784 C   0  0  0  0  0  0  0  0  0  0  0  0
   12.0263  -17.1204   24.5410 O   0  0  0  0  0  0  0  0  0  0  0  0
   10.7388  -15.4261   28.7635 C   0  0  0  0  0  0  0  0  0  0  0  0
   11.3446  -15.6555   29.9970 C   0  0  0  0  0  0  0  0  0  0  0  0
   12.9641  -15.7999   26.1143 O   0  0  0  0  0  0  0  0  0  0  0  0
  2  1  1  0
  3  4  1  0
  3  2  1  0
  5  7  1  0
  5  6  1  6
  5  4  1  0
  7  8  2  0
  9 10  1  0
  9  7  1  0
 10 18  1  0
 10 11  1  1
 12 17  1  0
 12 11  1  0
 13 12  2  0
 14 15  2  0
 14 13  1  0
 15 16  1  0
 16 17  2  0
 18 19  2  0
 20 21  1  0
 21 22  2  0
 21 31  1  0
 22 23  1  0
 23 24  2  0
 24 25  1  0
 26 25  1  1
 26 28  1  0
 27 18  1  0
 27 26  1  0
 28 32  2  0
 28 29  1  0
 30 24  1  0
 31 30  2  0
M  END
$$$$
