MFY.pdb
     RDKit          3D

 32 33  0  0  1  0  0  0  0  0999 V2000
    8.7945  -11.8328   19.7840 C   0  0  0  0  0  0  0  0  0  0  0  0
    7.5224  -12.5339   18.7070 S   0  0  0  0  0  0  0  0  0  0  0  0
    7.5718  -14.3457   18.8339 C   0  0  0  0  0  0  0  0  0  0  0  0
    9.0276  -14.7797   18.8991 C   0  0  0  0  0  0  0  0  0  0  0  0
    9.1678  -15.9494   19.8558 C   0  0  2  0  0  0  0  0  0  0  0  0
    8.0448  -16.8254   19.6532 N   0  0  0  0  0  0  0  0  0  0  0  0
    9.2791  -15.4941   21.2607 C   0  0  0  0  0  0  0  0  0  0  0  0
   10.3942  -15.0620   21.6490 O   0  0  0  0  0  0  0  0  0  0  0  0
    8.2051  -15.5256   22.1618 N   0  0  0  0  0  0  0  0  0  0  0  0
    8.2555  -15.0430   23.5211 C   0  0  1  0  0  0  0  0  0  0  0  0
    6.9735  -14.3340   23.9080 C   0  0  0  0  0  0  0  0  0  0  0  0
    7.0997  -13.7775   25.2552 C   0  0  0  0  0  0  0  0  0  0  0  0
    7.8577  -12.6552   25.4960 C   0  0  0  0  0  0  0  0  0  0  0  0
    7.9518  -12.1573   26.7947 C   0  0  0  0  0  0  0  0  0  0  0  0
    7.2994  -12.7686   27.8431 C   0  0  0  0  0  0  0  0  0  0  0  0
    6.5400  -13.8920   27.6058 C   0  0  0  0  0  0  0  0  0  0  0  0
    6.4590  -14.3681   26.3193 C   0  0  0  0  0  0  0  0  0  0  0  0
    8.5243  -16.1854   24.4183 C   0  0  0  0  0  0  0  0  0  0  0  0
    7.9634  -17.2827   24.1910 O   0  0  0  0  0  0  0  0  0  0  0  0
   13.2229  -22.6633   27.5155 O   0  0  0  0  0  0  0  0  0  0  0  0
   12.6312  -21.5384   26.9392 C   0  0  0  0  0  0  0  0  0  0  0  0
   11.3135  -21.5454   26.5274 C   0  0  0  0  0  0  0  0  0  0  0  0
   10.7398  -20.4199   25.9565 C   0  0  0  0  0  0  0  0  0  0  0  0
   11.4519  -19.2540   25.7760 C   0  0  0  0  0  0  0  0  0  0  0  0
   10.8614  -18.0453   25.1715 C   0  0  0  0  0  0  0  0  0  0  0  0
   10.0298  -17.2544   26.1549 C   0  0  2  0  0  0  0  0  0  0  0  0
    9.3908  -16.1177   25.5383 N   0  0  0  0  0  0  0  0  0  0  0  0
   10.8450  -16.7424   27.2835 C   0  0  0  0  0  0  0  0  0  0  0  0
   10.8344  -17.3638   28.5256 O   0  0  0  0  0  0  0  0  0  0  0  0
   12.7721  -19.2500   26.1898 C   0  0  0  0  0  0  0  0  0  0  0  0
   13.3522  -20.3792   26.7639 C   0  0  0  0  0  0  0  0  0  0  0  0
   11.5914  -15.7172   27.1787 O   0  0  0  0  0  0  0  0  0  0  0  0
  2  1  1  0
  3  4  1  0
  3  2  1  0
  5  7  1  0
  5  6  1  1
  5  4  1  0
  7  8  2  0
  9 10  1  0
  9  7  1  0
 10 18  1  0
 10 11  1  1
 12 17  1  0
 12 11  1  0
 13 12  2  0
 14 15  2  0
 14 13  1  0
 15 16  1  0
 16 17  2  0
 18 19  2  0
 20 21  1  0
 21 22  2  0
 21 31  1  0
 22 23  1  0
 23 24  2  0
 24 25  1  0
 26 25  1  6
 26 28  1  0
 27 18  1  0
 27 26  1  0
 28 32  2  0
 28 29  1  0
 30 24  1  0
 31 30  2  0
M  END
$$$$
