MFY.pdb
     RDKit          3D

 32 33  0  0  1  0  0  0  0  0999 V2000
    7.2987  -13.0268   16.4163 C   0  0  0  0  0  0  0  0  0  0  0  0
    7.7275  -14.5627   15.5637 S   0  0  0  0  0  0  0  0  0  0  0  0
    8.3230  -15.7706   16.7834 C   0  0  0  0  0  0  0  0  0  0  0  0
    9.0184  -15.0138   17.9038 C   0  0  0  0  0  0  0  0  0  0  0  0
    9.3953  -15.9789   19.0127 C   0  0  2  0  0  0  0  0  0  0  0  0
    8.4639  -17.0748   18.9826 N   0  0  0  0  0  0  0  0  0  0  0  0
    9.4299  -15.3067   20.3319 C   0  0  0  0  0  0  0  0  0  0  0  0
   10.3929  -14.5341   20.5697 O   0  0  0  0  0  0  0  0  0  0  0  0
    8.4448  -15.4955   21.3120 N   0  0  0  0  0  0  0  0  0  0  0  0
    8.4678  -14.9035   22.6281 C   0  0  1  0  0  0  0  0  0  0  0  0
    7.1239  -15.0259   23.3171 C   0  0  0  0  0  0  0  0  0  0  0  0
    7.0770  -14.1366   24.4780 C   0  0  0  0  0  0  0  0  0  0  0  0
    7.5268  -12.8390   24.4020 C   0  0  0  0  0  0  0  0  0  0  0  0
    7.4645  -12.0246   25.5318 C   0  0  0  0  0  0  0  0  0  0  0  0
    6.9605  -12.4952   26.7246 C   0  0  0  0  0  0  0  0  0  0  0  0
    6.5096  -13.7934   26.8043 C   0  0  0  0  0  0  0  0  0  0  0  0
    6.5789  -14.5811   25.6805 C   0  0  0  0  0  0  0  0  0  0  0  0
    9.5334  -15.5522   23.4193 C   0  0  0  0  0  0  0  0  0  0  0  0
   10.7310  -15.3103   23.1409 O   0  0  0  0  0  0  0  0  0  0  0  0
   11.9353  -16.3346   31.8506 O   0  0  0  0  0  0  0  0  0  0  0  0
   11.3091  -16.1589   30.6158 C   0  0  0  0  0  0  0  0  0  0  0  0
   11.4021  -14.9697   29.9207 C   0  0  0  0  0  0  0  0  0  0  0  0
   10.7744  -14.8103   28.6949 C   0  0  0  0  0  0  0  0  0  0  0  0
   10.0362  -15.8221   28.1202 C   0  0  0  0  0  0  0  0  0  0  0  0
    9.3608  -15.6742   26.8174 C   0  0  0  0  0  0  0  0  0  0  0  0
   10.0273  -16.4797   25.7261 C   0  0  2  0  0  0  0  0  0  0  0  0
    9.2827  -16.4456   24.4911 N   0  0  0  0  0  0  0  0  0  0  0  0
   10.1836  -17.9049   26.1066 C   0  0  0  0  0  0  0  0  0  0  0  0
   11.3567  -18.3773   26.6805 O   0  0  0  0  0  0  0  0  0  0  0  0
    9.9449  -17.0126   28.8190 C   0  0  0  0  0  0  0  0  0  0  0  0
   10.5744  -17.1764   30.0512 C   0  0  0  0  0  0  0  0  0  0  0  0
    9.2625  -18.7651   25.9308 O   0  0  0  0  0  0  0  0  0  0  0  0
  2  1  1  0
  3  4  1  0
  3  2  1  0
  5  7  1  0
  5  6  1  1
  5  4  1  0
  7  8  2  0
  9 10  1  0
  9  7  1  0
 10 18  1  0
 10 11  1  1
 12 17  1  0
 12 11  1  0
 13 12  2  0
 14 15  2  0
 14 13  1  0
 15 16  1  0
 16 17  2  0
 18 19  2  0
 20 21  1  0
 21 22  2  0
 21 31  1  0
 22 23  1  0
 23 24  2  0
 24 25  1  0
 26 25  1  1
 26 28  1  0
 27 18  1  0
 27 26  1  0
 28 32  2  0
 28 29  1  0
 30 24  1  0
 31 30  2  0
M  END
$$$$
