MFY.pdb
     RDKit          3D

 32 33  0  0  1  0  0  0  0  0999 V2000
    8.1168  -12.7014   17.8475 C   0  0  0  0  0  0  0  0  0  0  0  0
    8.1747  -14.4505   18.3025 S   0  0  0  0  0  0  0  0  0  0  0  0
    6.5619  -14.9393   18.9817 C   0  0  0  0  0  0  0  0  0  0  0  0
    6.6801  -16.3574   19.5174 C   0  0  0  0  0  0  0  0  0  0  0  0
    7.9474  -16.4861   20.3423 C   0  0  2  0  0  0  0  0  0  0  0  0
    7.9818  -17.8123   20.8987 N   0  0  0  0  0  0  0  0  0  0  0  0
    8.0283  -15.4370   21.3845 C   0  0  0  0  0  0  0  0  0  0  0  0
    8.2298  -14.2540   21.0092 O   0  0  0  0  0  0  0  0  0  0  0  0
    7.8911  -15.7075   22.7536 N   0  0  0  0  0  0  0  0  0  0  0  0
    8.0186  -14.7262   23.8042 C   0  0  1  0  0  0  0  0  0  0  0  0
    7.0251  -14.9741   24.9211 C   0  0  0  0  0  0  0  0  0  0  0  0
    7.1445  -13.9261   25.9351 C   0  0  0  0  0  0  0  0  0  0  0  0
    6.6270  -12.6688   25.7268 C   0  0  0  0  0  0  0  0  0  0  0  0
    6.7626  -11.6988   26.7189 C   0  0  0  0  0  0  0  0  0  0  0  0
    7.4059  -11.9756   27.9054 C   0  0  0  0  0  0  0  0  0  0  0  0
    7.9251  -13.2328   28.1172 C   0  0  0  0  0  0  0  0  0  0  0  0
    7.7818  -14.1758   27.1280 C   0  0  0  0  0  0  0  0  0  0  0  0
    9.4064  -14.7530   24.3097 C   0  0  0  0  0  0  0  0  0  0  0  0
    9.8761  -13.7259   24.8529 O   0  0  0  0  0  0  0  0  0  0  0  0
    9.8952  -15.2018   30.8020 O   0  0  0  0  0  0  0  0  0  0  0  0
   10.3660  -15.6498   29.5670 C   0  0  0  0  0  0  0  0  0  0  0  0
   10.3161  -16.9838   29.2149 C   0  0  0  0  0  0  0  0  0  0  0  0
   10.7878  -17.4136   27.9842 C   0  0  0  0  0  0  0  0  0  0  0  0
   11.3227  -16.5372   27.0651 C   0  0  0  0  0  0  0  0  0  0  0  0
   11.8296  -16.9727   25.7504 C   0  0  0  0  0  0  0  0  0  0  0  0
   11.6211  -15.9302   24.6762 C   0  0  2  0  0  0  0  0  0  0  0  0
   10.2542  -15.8855   24.2178 N   0  0  0  0  0  0  0  0  0  0  0  0
   12.4755  -16.1794   23.4894 C   0  0  0  0  0  0  0  0  0  0  0  0
   13.8614  -16.1726   23.5798 O   0  0  0  0  0  0  0  0  0  0  0  0
   11.3712  -15.2011   27.4208 C   0  0  0  0  0  0  0  0  0  0  0  0
   10.8982  -14.7654   28.6567 C   0  0  0  0  0  0  0  0  0  0  0  0
   11.9926  -16.4108   22.3351 O   0  0  0  0  0  0  0  0  0  0  0  0
  2  1  1  0
  3  4  1  0
  3  2  1  0
  5  7  1  0
  5  6  1  1
  5  4  1  0
  7  8  2  0
  9 10  1  0
  9  7  1  0
 10 18  1  0
 10 11  1  1
 12 17  1  0
 12 11  1  0
 13 12  2  0
 14 15  2  0
 14 13  1  0
 15 16  1  0
 16 17  2  0
 18 19  2  0
 20 21  1  0
 21 22  2  0
 21 31  1  0
 22 23  1  0
 23 24  2  0
 24 25  1  0
 26 25  1  1
 26 28  1  0
 27 18  1  0
 27 26  1  0
 28 32  2  0
 28 29  1  0
 30 24  1  0
 31 30  2  0
M  END
$$$$
