MFY.pdb
     RDKit          3D

 32 33  0  0  1  0  0  0  0  0999 V2000
    7.2607  -20.8449   19.0174 C   0  0  0  0  0  0  0  0  0  0  0  0
    8.6066  -19.9581   18.1977 S   0  0  0  0  0  0  0  0  0  0  0  0
   10.0871  -20.0263   19.2486 C   0  0  0  0  0  0  0  0  0  0  0  0
   10.5720  -18.6043   19.4823 C   0  0  0  0  0  0  0  0  0  0  0  0
    9.3977  -17.6463   19.4023 C   0  0  2  0  0  0  0  0  0  0  0  0
    9.3982  -17.0524   18.0921 N   0  0  0  0  0  0  0  0  0  0  0  0
    9.4481  -16.6312   20.4795 C   0  0  0  0  0  0  0  0  0  0  0  0
   10.5319  -16.0188   20.6560 O   0  0  0  0  0  0  0  0  0  0  0  0
    8.3502  -16.3307   21.2985 N   0  0  0  0  0  0  0  0  0  0  0  0
    8.3307  -15.2946   22.3031 C   0  0  1  0  0  0  0  0  0  0  0  0
    7.0553  -15.3352   23.1201 C   0  0  0  0  0  0  0  0  0  0  0  0
    7.0626  -14.2561   24.1080 C   0  0  0  0  0  0  0  0  0  0  0  0
    7.5403  -13.0047   23.7950 C   0  0  0  0  0  0  0  0  0  0  0  0
    7.5296  -12.0043   24.7659 C   0  0  0  0  0  0  0  0  0  0  0  0
    7.0491  -12.2452   26.0346 C   0  0  0  0  0  0  0  0  0  0  0  0
    6.5703  -13.4964   26.3512 C   0  0  0  0  0  0  0  0  0  0  0  0
    6.5888  -14.4697   25.3814 C   0  0  0  0  0  0  0  0  0  0  0  0
    9.5206  -15.4496   23.1647 C   0  0  0  0  0  0  0  0  0  0  0  0
   10.3587  -14.5194   23.2179 O   0  0  0  0  0  0  0  0  0  0  0  0
   11.2493  -15.4325   31.5490 O   0  0  0  0  0  0  0  0  0  0  0  0
   10.9827  -15.4026   30.1795 C   0  0  0  0  0  0  0  0  0  0  0  0
   11.5221  -16.3363   29.3173 C   0  0  0  0  0  0  0  0  0  0  0  0
   11.2479  -16.2935   27.9590 C   0  0  0  0  0  0  0  0  0  0  0  0
   10.4323  -15.3263   27.4130 C   0  0  0  0  0  0  0  0  0  0  0  0
   10.1271  -15.2625   25.9715 C   0  0  0  0  0  0  0  0  0  0  0  0
   10.3408  -16.5873   25.2762 C   0  0  2  0  0  0  0  0  0  0  0  0
    9.7786  -16.6028   23.9479 N   0  0  0  0  0  0  0  0  0  0  0  0
    9.7290  -17.7114   26.0262 C   0  0  0  0  0  0  0  0  0  0  0  0
    8.4292  -18.1297   25.7724 O   0  0  0  0  0  0  0  0  0  0  0  0
    9.8932  -14.3921   28.2794 C   0  0  0  0  0  0  0  0  0  0  0  0
   10.1665  -14.4319   29.6451 C   0  0  0  0  0  0  0  0  0  0  0  0
   10.3532  -18.3485   26.9338 O   0  0  0  0  0  0  0  0  0  0  0  0
  2  1  1  0
  3  4  1  0
  3  2  1  0
  5  7  1  0
  5  6  1  6
  5  4  1  0
  7  8  2  0
  9 10  1  0
  9  7  1  0
 10 18  1  0
 10 11  1  1
 12 17  1  0
 12 11  1  0
 13 12  2  0
 14 15  2  0
 14 13  1  0
 15 16  1  0
 16 17  2  0
 18 19  2  0
 20 21  1  0
 21 22  2  0
 21 31  1  0
 22 23  1  0
 23 24  2  0
 24 25  1  0
 26 25  1  1
 26 28  1  0
 27 18  1  0
 27 26  1  0
 28 32  2  0
 28 29  1  0
 30 24  1  0
 31 30  2  0
M  END
$$$$
