MFY.pdb
     RDKit          3D

 32 33  0  0  1  0  0  0  0  0999 V2000
    7.1199  -11.4760   18.6608 C   0  0  0  0  0  0  0  0  0  0  0  0
    7.2817  -12.5422   17.2093 S   0  0  0  0  0  0  0  0  0  0  0  0
    7.9672  -14.1440   17.7247 C   0  0  0  0  0  0  0  0  0  0  0  0
    7.5114  -14.4220   19.1483 C   0  0  0  0  0  0  0  0  0  0  0  0
    8.4412  -15.4339   19.7922 C   0  0  2  0  0  0  0  0  0  0  0  0
    8.0722  -16.7407   19.3171 N   0  0  0  0  0  0  0  0  0  0  0  0
    8.4066  -15.3427   21.2700 C   0  0  0  0  0  0  0  0  0  0  0  0
    7.8700  -14.3270   21.7810 O   0  0  0  0  0  0  0  0  0  0  0  0
    8.9412  -16.3307   22.1095 N   0  0  0  0  0  0  0  0  0  0  0  0
    8.7805  -16.3689   23.5433 C   0  0  1  0  0  0  0  0  0  0  0  0
    7.3328  -16.1759   23.9465 C   0  0  0  0  0  0  0  0  0  0  0  0
    7.1831  -14.9167   24.6764 C   0  0  0  0  0  0  0  0  0  0  0  0
    7.4356  -13.7070   24.0724 C   0  0  0  0  0  0  0  0  0  0  0  0
    7.2809  -12.5302   24.8037 C   0  0  0  0  0  0  0  0  0  0  0  0
    6.8796  -12.5557   26.1215 C   0  0  0  0  0  0  0  0  0  0  0  0
    6.6262  -13.7646   26.7292 C   0  0  0  0  0  0  0  0  0  0  0  0
    6.7840  -14.9138   25.9925 C   0  0  0  0  0  0  0  0  0  0  0  0
    9.3059  -17.6558   24.0433 C   0  0  0  0  0  0  0  0  0  0  0  0
    8.5855  -18.6783   23.9666 O   0  0  0  0  0  0  0  0  0  0  0  0
   11.3451  -14.5210   31.6717 O   0  0  0  0  0  0  0  0  0  0  0  0
   11.0416  -14.9118   30.3669 C   0  0  0  0  0  0  0  0  0  0  0  0
   11.0819  -14.0171   29.3162 C   0  0  0  0  0  0  0  0  0  0  0  0
   10.7777  -14.4205   28.0253 C   0  0  0  0  0  0  0  0  0  0  0  0
   10.4248  -15.7205   27.7349 C   0  0  0  0  0  0  0  0  0  0  0  0
   10.0978  -16.1711   26.3691 C   0  0  0  0  0  0  0  0  0  0  0  0
   10.9912  -17.2973   25.9026 C   0  0  2  0  0  0  0  0  0  0  0  0
   10.5946  -17.8097   24.6139 N   0  0  0  0  0  0  0  0  0  0  0  0
   10.9851  -18.4381   26.8507 C   0  0  0  0  0  0  0  0  0  0  0  0
    9.8905  -19.2863   26.9570 O   0  0  0  0  0  0  0  0  0  0  0  0
   10.3854  -16.6148   28.7897 C   0  0  0  0  0  0  0  0  0  0  0  0
   10.6905  -16.2131   30.0885 C   0  0  0  0  0  0  0  0  0  0  0  0
   11.9708  -18.7010   27.6112 O   0  0  0  0  0  0  0  0  0  0  0  0
  2  1  1  0
  3  4  1  0
  3  2  1  0
  5  7  1  0
  5  6  1  1
  5  4  1  0
  7  8  2  0
  9 10  1  0
  9  7  1  0
 10 18  1  0
 10 11  1  6
 12 17  1  0
 12 11  1  0
 13 12  2  0
 14 15  2  0
 14 13  1  0
 15 16  1  0
 16 17  2  0
 18 19  2  0
 20 21  1  0
 21 22  2  0
 21 31  1  0
 22 23  1  0
 23 24  2  0
 24 25  1  0
 26 25  1  1
 26 28  1  0
 27 18  1  0
 27 26  1  0
 28 32  2  0
 28 29  1  0
 30 24  1  0
 31 30  2  0
M  END
$$$$
