MFY.pdb
     RDKit          3D

 32 33  0  0  1  0  0  0  0  0999 V2000
   13.9649  -19.4173   22.1019 C   0  0  0  0  0  0  0  0  0  0  0  0
   12.1757  -19.6664   22.0225 S   0  0  0  0  0  0  0  0  0  0  0  0
   11.4119  -18.2244   21.2235 C   0  0  0  0  0  0  0  0  0  0  0  0
    9.9157  -18.4737   21.1193 C   0  0  0  0  0  0  0  0  0  0  0  0
    9.2595  -17.3280   20.3711 C   0  0  2  0  0  0  0  0  0  0  0  0
   10.0099  -17.0979   19.1655 N   0  0  0  0  0  0  0  0  0  0  0  0
    9.1609  -16.1131   21.2123 C   0  0  0  0  0  0  0  0  0  0  0  0
   10.0011  -15.1979   21.0189 O   0  0  0  0  0  0  0  0  0  0  0  0
    8.1813  -15.9459   22.2018 N   0  0  0  0  0  0  0  0  0  0  0  0
    8.0055  -14.7522   22.9938 C   0  0  1  0  0  0  0  0  0  0  0  0
    6.5696  -14.5938   23.4507 C   0  0  0  0  0  0  0  0  0  0  0  0
    6.4840  -13.5469   24.4692 C   0  0  0  0  0  0  0  0  0  0  0  0
    6.8190  -12.2438   24.1834 C   0  0  0  0  0  0  0  0  0  0  0  0
    6.7235  -11.2766   25.1829 C   0  0  0  0  0  0  0  0  0  0  0  0
    6.2997  -11.6013   26.4531 C   0  0  0  0  0  0  0  0  0  0  0  0
    5.9638  -12.9046   26.7425 C   0  0  0  0  0  0  0  0  0  0  0  0
    6.0641  -13.8440   25.7447 C   0  0  0  0  0  0  0  0  0  0  0  0
    8.9281  -14.8098   24.1460 C   0  0  0  0  0  0  0  0  0  0  0  0
    8.9358  -13.8632   24.9673 O   0  0  0  0  0  0  0  0  0  0  0  0
   12.3900  -16.9833   31.7064 O   0  0  0  0  0  0  0  0  0  0  0  0
   11.7060  -16.7804   30.5070 C   0  0  0  0  0  0  0  0  0  0  0  0
   11.1595  -17.8323   29.7994 C   0  0  0  0  0  0  0  0  0  0  0  0
   10.4828  -17.6147   28.6091 C   0  0  0  0  0  0  0  0  0  0  0  0
   10.3264  -16.3506   28.0834 C   0  0  0  0  0  0  0  0  0  0  0  0
    9.6100  -16.0965   26.8195 C   0  0  0  0  0  0  0  0  0  0  0  0
   10.5307  -16.1065   25.6211 C   0  0  2  0  0  0  0  0  0  0  0  0
    9.8198  -15.8856   24.3855 N   0  0  0  0  0  0  0  0  0  0  0  0
   11.2534  -17.3951   25.4887 C   0  0  0  0  0  0  0  0  0  0  0  0
   12.5046  -17.5864   26.0604 O   0  0  0  0  0  0  0  0  0  0  0  0
   10.8749  -15.2985   28.7948 C   0  0  0  0  0  0  0  0  0  0  0  0
   11.5558  -15.5132   29.9913 C   0  0  0  0  0  0  0  0  0  0  0  0
   10.7735  -18.3865   24.8515 O   0  0  0  0  0  0  0  0  0  0  0  0
  2  1  1  0
  3  4  1  0
  3  2  1  0
  5  7  1  0
  5  6  1  6
  5  4  1  0
  7  8  2  0
  9 10  1  0
  9  7  1  0
 10 18  1  0
 10 11  1  1
 12 17  1  0
 12 11  1  0
 13 12  2  0
 14 15  2  0
 14 13  1  0
 15 16  1  0
 16 17  2  0
 18 19  2  0
 20 21  1  0
 21 22  2  0
 21 31  1  0
 22 23  1  0
 23 24  2  0
 24 25  1  0
 26 25  1  1
 26 28  1  0
 27 18  1  0
 27 26  1  0
 28 32  2  0
 28 29  1  0
 30 24  1  0
 31 30  2  0
M  END
$$$$
