MFY.pdb
     RDKit          3D

 32 33  0  0  1  0  0  0  0  0999 V2000
    7.9594  -18.6822   16.0576 C   0  0  0  0  0  0  0  0  0  0  0  0
    9.0940  -19.5140   17.1936 S   0  0  0  0  0  0  0  0  0  0  0  0
    9.4604  -18.4030   18.5838 C   0  0  0  0  0  0  0  0  0  0  0  0
    8.1511  -17.8061   19.0751 C   0  0  0  0  0  0  0  0  0  0  0  0
    7.9861  -18.0906   20.5567 C   0  0  2  0  0  0  0  0  0  0  0  0
    6.7599  -18.8218   20.7341 N   0  0  0  0  0  0  0  0  0  0  0  0
    8.0189  -16.8454   21.3578 C   0  0  0  0  0  0  0  0  0  0  0  0
    8.2201  -15.7636   20.7494 O   0  0  0  0  0  0  0  0  0  0  0  0
    7.8370  -16.8260   22.7481 N   0  0  0  0  0  0  0  0  0  0  0  0
    7.9749  -15.6553   23.5809 C   0  0  1  0  0  0  0  0  0  0  0  0
    6.7695  -15.4660   24.4792 C   0  0  0  0  0  0  0  0  0  0  0  0
    6.9609  -14.2895   25.3275 C   0  0  0  0  0  0  0  0  0  0  0  0
    7.1347  -14.4099   26.6867 C   0  0  0  0  0  0  0  0  0  0  0  0
    7.3138  -13.2632   27.4591 C   0  0  0  0  0  0  0  0  0  0  0  0
    7.3199  -12.0100   26.8865 C   0  0  0  0  0  0  0  0  0  0  0  0
    7.1461  -11.8858   25.5266 C   0  0  0  0  0  0  0  0  0  0  0  0
    6.9711  -13.0271   24.7816 C   0  0  0  0  0  0  0  0  0  0  0  0
    9.2152  -15.7827   24.3732 C   0  0  0  0  0  0  0  0  0  0  0  0
    9.1380  -15.8133   25.6236 O   0  0  0  0  0  0  0  0  0  0  0  0
    9.7376  -15.0872   30.5899 O   0  0  0  0  0  0  0  0  0  0  0  0
   10.2407  -15.5334   29.3670 C   0  0  0  0  0  0  0  0  0  0  0  0
    9.6150  -16.5330   28.6491 C   0  0  0  0  0  0  0  0  0  0  0  0
   10.1270  -16.9655   27.4356 C   0  0  0  0  0  0  0  0  0  0  0  0
   11.2727  -16.4225   26.8960 C   0  0  0  0  0  0  0  0  0  0  0  0
   11.8344  -16.8672   25.6067 C   0  0  0  0  0  0  0  0  0  0  0  0
   11.7445  -15.8017   24.5387 C   0  0  2  0  0  0  0  0  0  0  0  0
   10.5082  -15.8739   23.7991 N   0  0  0  0  0  0  0  0  0  0  0  0
   12.8515  -15.9069   23.5570 C   0  0  0  0  0  0  0  0  0  0  0  0
   14.1803  -15.8156   23.9505 O   0  0  0  0  0  0  0  0  0  0  0  0
   11.8975  -15.4210   27.6175 C   0  0  0  0  0  0  0  0  0  0  0  0
   11.3859  -14.9837   28.8375 C   0  0  0  0  0  0  0  0  0  0  0  0
   12.6487  -16.0849   22.3134 O   0  0  0  0  0  0  0  0  0  0  0  0
  2  1  1  0
  3  4  1  0
  3  2  1  0
  5  7  1  0
  5  6  1  6
  5  4  1  0
  7  8  2  0
  9 10  1  0
  9  7  1  0
 10 18  1  0
 10 11  1  1
 12 17  1  0
 12 11  1  0
 13 12  2  0
 14 15  2  0
 14 13  1  0
 15 16  1  0
 16 17  2  0
 18 19  2  0
 20 21  1  0
 21 22  2  0
 21 31  1  0
 22 23  1  0
 23 24  2  0
 24 25  1  0
 26 25  1  1
 26 28  1  0
 27 18  1  0
 27 26  1  0
 28 32  2  0
 28 29  1  0
 30 24  1  0
 31 30  2  0
M  END
$$$$
