MFY.pdb
     RDKit          3D

 32 33  0  0  1  0  0  0  0  0999 V2000
   12.3433  -21.0289   21.9009 C   0  0  0  0  0  0  0  0  0  0  0  0
   10.6050  -21.1792   21.4261 S   0  0  0  0  0  0  0  0  0  0  0  0
   10.0602  -19.6186   20.6718 C   0  0  0  0  0  0  0  0  0  0  0  0
   10.4206  -18.4817   21.6149 C   0  0  0  0  0  0  0  0  0  0  0  0
    9.8935  -17.1720   21.0583 C   0  0  2  0  0  0  0  0  0  0  0  0
   10.7358  -16.7867   19.9575 N   0  0  0  0  0  0  0  0  0  0  0  0
    9.8210  -16.1254   22.1036 C   0  0  0  0  0  0  0  0  0  0  0  0
   10.8581  -15.4511   22.3291 O   0  0  0  0  0  0  0  0  0  0  0  0
    8.6580  -15.8607   22.8410 N   0  0  0  0  0  0  0  0  0  0  0  0
    8.5676  -14.9122   23.9250 C   0  0  1  0  0  0  0  0  0  0  0  0
    7.1800  -14.3120   24.0254 C   0  0  0  0  0  0  0  0  0  0  0  0
    7.1309  -13.3540   25.1301 C   0  0  0  0  0  0  0  0  0  0  0  0
    7.7195  -12.1150   25.0274 C   0  0  0  0  0  0  0  0  0  0  0  0
    7.6498  -11.2317   26.1037 C   0  0  0  0  0  0  0  0  0  0  0  0
    7.0020  -11.5763   27.2698 C   0  0  0  0  0  0  0  0  0  0  0  0
    6.4119  -12.8155   27.3761 C   0  0  0  0  0  0  0  0  0  0  0  0
    6.4909  -13.6726   26.3050 C   0  0  0  0  0  0  0  0  0  0  0  0
    8.9460  -15.5925   25.1805 C   0  0  0  0  0  0  0  0  0  0  0  0
    8.3480  -16.6442   25.5070 O   0  0  0  0  0  0  0  0  0  0  0  0
   13.9285  -18.4681   22.3312 O   0  0  0  0  0  0  0  0  0  0  0  0
   13.4573  -17.8619   23.4966 C   0  0  0  0  0  0  0  0  0  0  0  0
   12.6706  -18.5472   24.4007 C   0  0  0  0  0  0  0  0  0  0  0  0
   12.2099  -17.9313   25.5541 C   0  0  0  0  0  0  0  0  0  0  0  0
   12.5136  -16.6196   25.8477 C   0  0  0  0  0  0  0  0  0  0  0  0
   12.0347  -15.9451   27.0688 C   0  0  0  0  0  0  0  0  0  0  0  0
   10.5264  -15.8827   27.1410 C   0  0  2  0  0  0  0  0  0  0  0  0
    9.9595  -15.1231   26.0537 N   0  0  0  0  0  0  0  0  0  0  0  0
   10.0578  -15.2609   28.4037 C   0  0  0  0  0  0  0  0  0  0  0  0
    9.2913  -14.1027   28.4003 O   0  0  0  0  0  0  0  0  0  0  0  0
   13.3022  -15.9356   24.9399 C   0  0  0  0  0  0  0  0  0  0  0  0
   13.7669  -16.5512   23.7796 C   0  0  0  0  0  0  0  0  0  0  0  0
   10.3281  -15.7479   29.5477 O   0  0  0  0  0  0  0  0  0  0  0  0
  2  1  1  0
  3  4  1  0
  3  2  1  0
  5  7  1  0
  5  6  1  6
  5  4  1  0
  7  8  2  0
  9 10  1  0
  9  7  1  0
 10 18  1  0
 10 11  1  1
 12 17  1  0
 12 11  1  0
 13 12  2  0
 14 15  2  0
 14 13  1  0
 15 16  1  0
 16 17  2  0
 18 19  2  0
 20 21  1  0
 21 22  2  0
 21 31  1  0
 22 23  1  0
 23 24  2  0
 24 25  1  0
 26 25  1  1
 26 28  1  0
 27 18  1  0
 27 26  1  0
 28 32  2  0
 28 29  1  0
 30 24  1  0
 31 30  2  0
M  END
$$$$
