GPP.pdb
     RDKit          3D

 19 20  0  0  1  0  0  0  0  0999 V2000
   11.4867  -17.1771   20.0609 N   0  0  0  0  0  0  0  0  0  0  0  0
   10.1982  -17.1737   20.6728 C   0  0  0  0  0  0  0  0  0  0  0  0
   10.0061  -16.0856   21.6454 C   0  0  0  0  0  0  0  0  0  0  0  0
   11.0001  -15.6645   22.2828 O   0  0  0  0  0  0  0  0  0  0  0  0
    8.6924  -15.5265   21.8484 N   0  0  0  0  0  0  0  0  0  0  0  0
    7.5646  -15.9099   21.0331 C   0  0  0  0  0  0  0  0  0  0  0  0
    6.4783  -14.8913   21.2242 C   0  0  0  0  0  0  0  0  0  0  0  0
    7.0550  -13.8893   22.1629 C   0  0  0  0  0  0  0  0  0  0  0  0
    8.2706  -14.5610   22.7912 C   0  0  1  0  0  0  0  0  0  0  0  0
    7.9138  -14.9805   24.1322 C   0  0  0  0  0  0  0  0  0  0  0  0
    7.9793  -16.2659   24.3202 O   0  0  0  0  0  0  0  0  0  0  0  0
    7.5134  -14.2482   25.2509 N   0  0  0  0  0  0  0  0  0  0  0  0
    6.6472  -13.0989   25.2730 C   0  0  0  0  0  0  0  0  0  0  0  0
    6.8300  -12.4393   26.6263 C   0  0  0  0  0  0  0  0  0  0  0  0
    8.0276  -13.1234   27.2203 C   0  0  0  0  0  0  0  0  0  0  0  0
    7.8938  -14.5241   26.6160 C   0  0  1  0  0  0  0  0  0  0  0  0
    6.8489  -15.2271   27.3766 C   0  0  0  0  0  0  0  0  0  0  0  0
    5.6632  -15.3504   27.0118 O   0  0  0  0  0  0  0  0  0  0  0  0
    7.2116  -15.7951   28.5911 O   0  0  0  0  0  0  0  0  0  0  0  0
  1  2  1  0
  3  2  1  0
  3  4  2  0
  5  3  1  0
  6  5  1  0
  7  8  1  0
  7  6  1  0
  8  9  1  0
  9  5  1  0
  9 10  1  1
 10 11  2  0
 12 10  1  0
 12 16  1  0
 13 12  1  0
 14 13  1  0
 14 15  1  0
 15 16  1  0
 16 17  1  1
 17 19  1  0
 18 17  2  0
M  END
$$$$
