GPP.pdb
     RDKit          3D

 19 20  0  0  1  0  0  0  0  0999 V2000
    7.6082  -14.9414   20.7760 N   0  0  0  0  0  0  0  0  0  0  0  0
    7.0098  -14.7362   22.0545 C   0  0  0  0  0  0  0  0  0  0  0  0
    7.9659  -14.3370   23.1000 C   0  0  0  0  0  0  0  0  0  0  0  0
    9.1903  -14.3417   22.8307 O   0  0  0  0  0  0  0  0  0  0  0  0
    7.4857  -13.9507   24.4038 N   0  0  0  0  0  0  0  0  0  0  0  0
    6.0786  -13.7895   24.6827 C   0  0  0  0  0  0  0  0  0  0  0  0
    5.9384  -13.0200   25.9643 C   0  0  0  0  0  0  0  0  0  0  0  0
    7.3353  -12.7207   26.3849 C   0  0  0  0  0  0  0  0  0  0  0  0
    8.2226  -13.6587   25.5746 C   0  0  1  0  0  0  0  0  0  0  0  0
    8.6468  -14.7414   26.4401 C   0  0  0  0  0  0  0  0  0  0  0  0
    8.2711  -15.9199   26.0373 O   0  0  0  0  0  0  0  0  0  0  0  0
    9.3842  -14.7390   27.6252 N   0  0  0  0  0  0  0  0  0  0  0  0
    9.2121  -13.8630   28.7541 C   0  0  0  0  0  0  0  0  0  0  0  0
   10.4672  -13.9836   29.5968 C   0  0  0  0  0  0  0  0  0  0  0  0
   11.4285  -14.7490   28.7337 C   0  0  0  0  0  0  0  0  0  0  0  0
   10.4660  -15.6403   27.9435 C   0  0  1  0  0  0  0  0  0  0  0  0
   10.0606  -16.7384   28.8347 C   0  0  0  0  0  0  0  0  0  0  0  0
    8.9225  -16.8749   29.3248 O   0  0  0  0  0  0  0  0  0  0  0  0
   11.0178  -17.6933   29.1531 O   0  0  0  0  0  0  0  0  0  0  0  0
  1  2  1  0
  3  2  1  0
  3  4  2  0
  5  3  1  0
  6  5  1  0
  7  8  1  0
  7  6  1  0
  8  9  1  0
  9  5  1  0
  9 10  1  1
 10 11  2  0
 12 10  1  0
 12 16  1  0
 13 12  1  0
 14 13  1  0
 14 15  1  0
 15 16  1  0
 16 17  1  1
 17 19  1  0
 18 17  2  0
M  END
$$$$
