GPP.pdb
     RDKit          3D

 19 20  0  0  1  0  0  0  0  0999 V2000
    7.4920  -14.6486   20.8348 N   0  0  0  0  0  0  0  0  0  0  0  0
    6.9067  -14.5006   22.1271 C   0  0  0  0  0  0  0  0  0  0  0  0
    7.8732  -14.1453   23.1790 C   0  0  0  0  0  0  0  0  0  0  0  0
    9.0964  -14.1649   22.9052 O   0  0  0  0  0  0  0  0  0  0  0  0
    7.4040  -13.7841   24.4940 N   0  0  0  0  0  0  0  0  0  0  0  0
    6.0005  -13.6111   24.7836 C   0  0  0  0  0  0  0  0  0  0  0  0
    5.8765  -12.8707   26.0839 C   0  0  0  0  0  0  0  0  0  0  0  0
    7.2790  -12.6000   26.5047 C   0  0  0  0  0  0  0  0  0  0  0  0
    8.1501  -13.5299   25.6679 C   0  0  1  0  0  0  0  0  0  0  0  0
    8.5638  -14.6386   26.5051 C   0  0  0  0  0  0  0  0  0  0  0  0
    8.0404  -15.7809   26.1685 O   0  0  0  0  0  0  0  0  0  0  0  0
    9.4217  -14.6929   27.6048 N   0  0  0  0  0  0  0  0  0  0  0  0
    9.4291  -13.8151   28.7455 C   0  0  0  0  0  0  0  0  0  0  0  0
   10.7559  -14.0240   29.4496 C   0  0  0  0  0  0  0  0  0  0  0  0
   11.5671  -14.8453   28.4891 C   0  0  0  0  0  0  0  0  0  0  0  0
   10.4690  -15.6658   27.8063 C   0  0  1  0  0  0  0  0  0  0  0  0
   10.0888  -16.7407   28.7360 C   0  0  0  0  0  0  0  0  0  0  0  0
    9.0156  -16.7890   29.3685 O   0  0  0  0  0  0  0  0  0  0  0  0
   10.9934  -17.7782   28.9220 O   0  0  0  0  0  0  0  0  0  0  0  0
  1  2  1  0
  3  2  1  0
  3  4  2  0
  5  3  1  0
  6  5  1  0
  7  8  1  0
  7  6  1  0
  8  9  1  0
  9  5  1  0
  9 10  1  1
 10 11  2  0
 12 10  1  0
 12 16  1  0
 13 12  1  0
 14 13  1  0
 14 15  1  0
 15 16  1  0
 16 17  1  1
 17 19  1  0
 18 17  2  0
M  END
$$$$
