GPP.pdb
     RDKit          3D

 19 20  0  0  1  0  0  0  0  0999 V2000
    7.5627  -14.4119   20.8973 N   0  0  0  0  0  0  0  0  0  0  0  0
    6.9884  -14.4036   22.2030 C   0  0  0  0  0  0  0  0  0  0  0  0
    7.9584  -14.1316   23.2761 C   0  0  0  0  0  0  0  0  0  0  0  0
    9.1819  -14.2349   23.0231 O   0  0  0  0  0  0  0  0  0  0  0  0
    7.4925  -13.7547   24.5878 N   0  0  0  0  0  0  0  0  0  0  0  0
    6.0956  -13.5164   24.8630 C   0  0  0  0  0  0  0  0  0  0  0  0
    5.9925  -12.7772   26.1658 C   0  0  0  0  0  0  0  0  0  0  0  0
    7.4016  -12.5756   26.6033 C   0  0  0  0  0  0  0  0  0  0  0  0
    8.2367  -13.5419   25.7711 C   0  0  1  0  0  0  0  0  0  0  0  0
    8.5879  -14.6730   26.6069 C   0  0  0  0  0  0  0  0  0  0  0  0
    7.9581  -15.7705   26.3053 O   0  0  0  0  0  0  0  0  0  0  0  0
    9.4797  -14.7882   27.6744 N   0  0  0  0  0  0  0  0  0  0  0  0
    9.5449  -13.9551   28.8463 C   0  0  0  0  0  0  0  0  0  0  0  0
   10.8888  -14.2200   29.4972 C   0  0  0  0  0  0  0  0  0  0  0  0
   11.6488  -15.0217   28.4799 C   0  0  0  0  0  0  0  0  0  0  0  0
   10.5101  -15.7910   27.8040 C   0  0  1  0  0  0  0  0  0  0  0  0
   10.1355  -16.8921   28.7050 C   0  0  0  0  0  0  0  0  0  0  0  0
    9.0799  -16.9438   29.3662 O   0  0  0  0  0  0  0  0  0  0  0  0
   11.0246  -17.9522   28.8271 O   0  0  0  0  0  0  0  0  0  0  0  0
  1  2  1  0
  3  2  1  0
  3  4  2  0
  5  3  1  0
  6  5  1  0
  7  8  1  0
  7  6  1  0
  8  9  1  0
  9  5  1  0
  9 10  1  1
 10 11  2  0
 12 10  1  0
 12 16  1  0
 13 12  1  0
 14 13  1  0
 14 15  1  0
 15 16  1  0
 16 17  1  1
 17 19  1  0
 18 17  2  0
M  END
$$$$
