GPP.pdb
     RDKit          3D

 19 20  0  0  1  0  0  0  0  0999 V2000
    7.6518  -14.9803   20.8145 N   0  0  0  0  0  0  0  0  0  0  0  0
    7.0553  -14.7228   22.0844 C   0  0  0  0  0  0  0  0  0  0  0  0
    8.0208  -14.3351   23.1257 C   0  0  0  0  0  0  0  0  0  0  0  0
    9.2433  -14.3465   22.8485 O   0  0  0  0  0  0  0  0  0  0  0  0
    7.5514  -13.9524   24.4345 N   0  0  0  0  0  0  0  0  0  0  0  0
    6.1480  -13.7725   24.7204 C   0  0  0  0  0  0  0  0  0  0  0  0
    6.0244  -13.0115   26.0087 C   0  0  0  0  0  0  0  0  0  0  0  0
    7.4271  -12.7364   26.4261 C   0  0  0  0  0  0  0  0  0  0  0  0
    8.2972  -13.6808   25.6047 C   0  0  1  0  0  0  0  0  0  0  0  0
    8.7086  -14.7768   26.4596 C   0  0  0  0  0  0  0  0  0  0  0  0
    8.2988  -15.9443   26.0585 O   0  0  0  0  0  0  0  0  0  0  0  0
    9.4639  -14.7965   27.6333 N   0  0  0  0  0  0  0  0  0  0  0  0
    9.2905  -13.9614   28.7926 C   0  0  0  0  0  0  0  0  0  0  0  0
   10.5606  -14.0818   29.6124 C   0  0  0  0  0  0  0  0  0  0  0  0
   11.5247  -14.7978   28.7108 C   0  0  0  0  0  0  0  0  0  0  0  0
   10.5694  -15.6839   27.9062 C   0  0  1  0  0  0  0  0  0  0  0  0
   10.2012  -16.8188   28.7669 C   0  0  0  0  0  0  0  0  0  0  0  0
   10.9815  -17.7212   29.1287 O   0  0  0  0  0  0  0  0  0  0  0  0
    8.8862  -16.8889   29.2087 O   0  0  0  0  0  0  0  0  0  0  0  0
  1  2  1  0
  3  2  1  0
  3  4  2  0
  5  3  1  0
  6  5  1  0
  7  8  1  0
  7  6  1  0
  8  9  1  0
  9  5  1  0
  9 10  1  1
 10 11  2  0
 12 10  1  0
 12 16  1  0
 13 12  1  0
 14 13  1  0
 14 15  1  0
 15 16  1  0
 16 17  1  1
 17 19  1  0
 18 17  2  0
M  END
$$$$
