GPP.pdb
     RDKit          3D

 19 20  0  0  1  0  0  0  0  0999 V2000
    7.5480  -14.4790   20.8545 N   0  0  0  0  0  0  0  0  0  0  0  0
    6.9723  -14.4672   22.1596 C   0  0  0  0  0  0  0  0  0  0  0  0
    7.9367  -14.1693   23.2309 C   0  0  0  0  0  0  0  0  0  0  0  0
    9.1612  -14.2862   22.9892 O   0  0  0  0  0  0  0  0  0  0  0  0
    7.4641  -13.7521   24.5279 N   0  0  0  0  0  0  0  0  0  0  0  0
    6.0663  -13.5024   24.7878 C   0  0  0  0  0  0  0  0  0  0  0  0
    5.9576  -12.7241   26.0671 C   0  0  0  0  0  0  0  0  0  0  0  0
    7.3647  -12.5127   26.5065 C   0  0  0  0  0  0  0  0  0  0  0  0
    8.2021  -13.5055   25.7085 C   0  0  1  0  0  0  0  0  0  0  0  0
    8.5457  -14.6118   26.5800 C   0  0  0  0  0  0  0  0  0  0  0  0
    7.9098  -15.7145   26.3122 O   0  0  0  0  0  0  0  0  0  0  0  0
    9.4356  -14.6985   27.6518 N   0  0  0  0  0  0  0  0  0  0  0  0
    9.4713  -13.8611   28.8218 C   0  0  0  0  0  0  0  0  0  0  0  0
   10.8193  -14.0853   29.4794 C   0  0  0  0  0  0  0  0  0  0  0  0
   11.6069  -14.8670   28.4675 C   0  0  0  0  0  0  0  0  0  0  0  0
   10.4941  -15.6707   27.7885 C   0  0  1  0  0  0  0  0  0  0  0  0
   10.1474  -16.7800   28.6905 C   0  0  0  0  0  0  0  0  0  0  0  0
    9.0834  -16.8691   29.3339 O   0  0  0  0  0  0  0  0  0  0  0  0
   11.0753  -17.8034   28.8351 O   0  0  0  0  0  0  0  0  0  0  0  0
  1  2  1  0
  3  2  1  0
  3  4  2  0
  5  3  1  0
  6  5  1  0
  7  8  1  0
  7  6  1  0
  8  9  1  0
  9  5  1  0
  9 10  1  1
 10 11  2  0
 12 10  1  0
 12 16  1  0
 13 12  1  0
 14 13  1  0
 14 15  1  0
 15 16  1  0
 16 17  1  1
 17 19  1  0
 18 17  2  0
M  END
$$$$
