GPP.pdb
     RDKit          3D

 19 20  0  0  1  0  0  0  0  0999 V2000
    7.7412  -14.9129   20.8118 N   0  0  0  0  0  0  0  0  0  0  0  0
    7.1480  -14.7856   22.1028 C   0  0  0  0  0  0  0  0  0  0  0  0
    8.1069  -14.4406   23.1650 C   0  0  0  0  0  0  0  0  0  0  0  0
    9.3335  -14.5243   22.9201 O   0  0  0  0  0  0  0  0  0  0  0  0
    7.6266  -14.0163   24.4569 N   0  0  0  0  0  0  0  0  0  0  0  0
    6.2246  -13.7883   24.7136 C   0  0  0  0  0  0  0  0  0  0  0  0
    6.1017  -12.9968   25.9835 C   0  0  0  0  0  0  0  0  0  0  0  0
    7.5047  -12.7553   26.4205 C   0  0  0  0  0  0  0  0  0  0  0  0
    8.3597  -13.7427   25.6345 C   0  0  1  0  0  0  0  0  0  0  0  0
    8.7226  -14.8322   26.5192 C   0  0  0  0  0  0  0  0  0  0  0  0
    8.2249  -15.9833   26.1738 O   0  0  0  0  0  0  0  0  0  0  0  0
    9.5088  -14.8603   27.6722 N   0  0  0  0  0  0  0  0  0  0  0  0
    9.4172  -13.9813   28.8082 C   0  0  0  0  0  0  0  0  0  0  0  0
   10.7013  -14.1509   29.5971 C   0  0  0  0  0  0  0  0  0  0  0  0
   11.5962  -14.9494   28.6934 C   0  0  0  0  0  0  0  0  0  0  0  0
   10.5686  -15.8022   27.9437 C   0  0  1  0  0  0  0  0  0  0  0  0
   10.1603  -16.8867   28.8502 C   0  0  0  0  0  0  0  0  0  0  0  0
    9.0446  -16.9738   29.3996 O   0  0  0  0  0  0  0  0  0  0  0  0
   11.0874  -17.8870   29.1126 O   0  0  0  0  0  0  0  0  0  0  0  0
  1  2  1  0
  3  2  1  0
  3  4  2  0
  5  3  1  0
  6  5  1  0
  7  8  1  0
  7  6  1  0
  8  9  1  0
  9  5  1  0
  9 10  1  1
 10 11  2  0
 12 10  1  0
 12 16  1  0
 13 12  1  0
 14 13  1  0
 14 15  1  0
 15 16  1  0
 16 17  1  1
 17 19  1  0
 18 17  2  0
M  END
$$$$
