GPP.pdb
     RDKit          3D

 19 20  0  0  1  0  0  0  0  0999 V2000
    6.6515  -18.6723   26.6466 N   0  0  0  0  0  0  0  0  0  0  0  0
    7.1004  -17.3204   26.7220 C   0  0  0  0  0  0  0  0  0  0  0  0
    6.5959  -16.4661   25.6347 C   0  0  0  0  0  0  0  0  0  0  0  0
    5.8075  -16.9615   24.7953 O   0  0  0  0  0  0  0  0  0  0  0  0
    7.0111  -15.0875   25.5521 N   0  0  0  0  0  0  0  0  0  0  0  0
    7.5346  -14.3776   26.6947 C   0  0  0  0  0  0  0  0  0  0  0  0
    7.4953  -12.9072   26.3931 C   0  0  0  0  0  0  0  0  0  0  0  0
    6.8916  -12.8118   25.0351 C   0  0  0  0  0  0  0  0  0  0  0  0
    6.9820  -14.2129   24.4415 C   0  0  1  0  0  0  0  0  0  0  0  0
    8.0744  -14.2317   23.4888 C   0  0  0  0  0  0  0  0  0  0  0  0
    9.1371  -14.8500   23.9134 O   0  0  0  0  0  0  0  0  0  0  0  0
    8.1835  -13.7035   22.2014 N   0  0  0  0  0  0  0  0  0  0  0  0
    7.6796  -12.4385   21.7354 C   0  0  0  0  0  0  0  0  0  0  0  0
    7.6948  -12.4930   20.2199 C   0  0  0  0  0  0  0  0  0  0  0  0
    7.9686  -13.9339   19.8973 C   0  0  0  0  0  0  0  0  0  0  0  0
    8.8452  -14.3381   21.0862 C   0  0  1  0  0  0  0  0  0  0  0  0
   10.1926  -13.8043   20.8334 C   0  0  0  0  0  0  0  0  0  0  0  0
   11.0015  -14.2732   20.0087 O   0  0  0  0  0  0  0  0  0  0  0  0
   10.5921  -12.6957   21.5687 O   0  0  0  0  0  0  0  0  0  0  0  0
  1  2  1  0
  3  2  1  0
  3  4  2  0
  5  3  1  0
  6  5  1  0
  7  8  1  0
  7  6  1  0
  8  9  1  0
  9  5  1  0
  9 10  1  1
 10 11  2  0
 12 10  1  0
 12 16  1  0
 13 12  1  0
 14 13  1  0
 14 15  1  0
 15 16  1  0
 16 17  1  6
 17 19  1  0
 18 17  2  0
M  END
$$$$
