GPP.pdb
     RDKit          3D

 19 20  0  0  1  0  0  0  0  0999 V2000
   11.5337  -16.7995   20.0350 N   0  0  0  0  0  0  0  0  0  0  0  0
   10.4188  -17.0561   20.8869 C   0  0  0  0  0  0  0  0  0  0  0  0
   10.1282  -15.9632   21.8291 C   0  0  0  0  0  0  0  0  0  0  0  0
   11.0748  -15.4598   22.4789 O   0  0  0  0  0  0  0  0  0  0  0  0
    8.7743  -15.4929   21.9891 N   0  0  0  0  0  0  0  0  0  0  0  0
    7.6966  -15.9694   21.1555 C   0  0  0  0  0  0  0  0  0  0  0  0
    6.5380  -15.0253   21.2994 C   0  0  0  0  0  0  0  0  0  0  0  0
    7.0204  -13.9677   22.2302 C   0  0  0  0  0  0  0  0  0  0  0  0
    8.2633  -14.5410   22.9012 C   0  0  1  0  0  0  0  0  0  0  0  0
    7.9028  -14.9583   24.2418 C   0  0  0  0  0  0  0  0  0  0  0  0
    8.0131  -16.2382   24.4459 O   0  0  0  0  0  0  0  0  0  0  0  0
    7.4592  -14.2288   25.3460 N   0  0  0  0  0  0  0  0  0  0  0  0
    6.4609  -13.1921   25.3588 C   0  0  0  0  0  0  0  0  0  0  0  0
    6.6135  -12.4539   26.6747 C   0  0  0  0  0  0  0  0  0  0  0  0
    7.9074  -12.9613   27.2435 C   0  0  0  0  0  0  0  0  0  0  0  0
    7.9222  -14.3942   26.7034 C   0  0  1  0  0  0  0  0  0  0  0  0
    7.0007  -15.1819   27.5368 C   0  0  0  0  0  0  0  0  0  0  0  0
    5.8254  -15.4624   27.2299 O   0  0  0  0  0  0  0  0  0  0  0  0
    7.4765  -15.6471   28.7561 O   0  0  0  0  0  0  0  0  0  0  0  0
  1  2  1  0
  3  2  1  0
  3  4  2  0
  5  3  1  0
  6  5  1  0
  7  8  1  0
  7  6  1  0
  8  9  1  0
  9  5  1  0
  9 10  1  1
 10 11  2  0
 12 10  1  0
 12 16  1  0
 13 12  1  0
 14 13  1  0
 14 15  1  0
 15 16  1  0
 16 17  1  1
 17 19  1  0
 18 17  2  0
M  END
$$$$
