GPP.pdb
     RDKit          3D

 19 20  0  0  1  0  0  0  0  0999 V2000
    7.4740  -14.5987   20.8215 N   0  0  0  0  0  0  0  0  0  0  0  0
    6.9565  -14.6174   22.1506 C   0  0  0  0  0  0  0  0  0  0  0  0
    7.9529  -14.2795   23.1800 C   0  0  0  0  0  0  0  0  0  0  0  0
    9.1684  -14.3081   22.8747 O   0  0  0  0  0  0  0  0  0  0  0  0
    7.5210  -13.9247   24.5094 N   0  0  0  0  0  0  0  0  0  0  0  0
    6.1259  -13.7588   24.8407 C   0  0  0  0  0  0  0  0  0  0  0  0
    6.0369  -13.0233   26.1466 C   0  0  0  0  0  0  0  0  0  0  0  0
    7.4500  -12.7478   26.5270 C   0  0  0  0  0  0  0  0  0  0  0  0
    8.3001  -13.6711   25.6618 C   0  0  1  0  0  0  0  0  0  0  0  0
    8.7431  -14.7806   26.4827 C   0  0  0  0  0  0  0  0  0  0  0  0
    8.3141  -15.9412   26.0812 O   0  0  0  0  0  0  0  0  0  0  0  0
    9.5455  -14.8197   27.6242 N   0  0  0  0  0  0  0  0  0  0  0  0
    9.4518  -13.9697   28.7819 C   0  0  0  0  0  0  0  0  0  0  0  0
   10.7498  -14.1313   29.5495 C   0  0  0  0  0  0  0  0  0  0  0  0
   11.6481  -14.8899   28.6152 C   0  0  0  0  0  0  0  0  0  0  0  0
   10.6278  -15.7458   27.8592 C   0  0  1  0  0  0  0  0  0  0  0  0
   10.2539  -16.8594   28.7449 C   0  0  0  0  0  0  0  0  0  0  0  0
   10.9966  -17.8167   29.0381 O   0  0  0  0  0  0  0  0  0  0  0  0
    8.9785  -16.8417   29.2947 O   0  0  0  0  0  0  0  0  0  0  0  0
  1  2  1  0
  3  2  1  0
  3  4  2  0
  5  3  1  0
  6  5  1  0
  7  8  1  0
  7  6  1  0
  8  9  1  0
  9  5  1  0
  9 10  1  1
 10 11  2  0
 12 10  1  0
 12 16  1  0
 13 12  1  0
 14 13  1  0
 14 15  1  0
 15 16  1  0
 16 17  1  1
 17 19  1  0
 18 17  2  0
M  END
$$$$
