EMN.pdb
     RDKit          3D

 26 25  0  0  1  0  0  0  0  0999 V2000
   21.1127  -12.1312  -17.9378 N   0  0  0  0  0  0  0  0  0  0  0  0
   20.4334  -11.6054  -16.7774 C   0  0  1  0  0  0  0  0  0  0  0  0
   19.9720  -12.7909  -15.9808 C   0  0  0  0  0  0  0  0  0  0  0  0
   19.1234  -13.7654  -16.7200 C   0  0  0  0  0  0  0  0  0  0  0  0
   18.7903  -14.9936  -15.9899 C   0  0  0  0  0  0  0  0  0  0  0  0
   19.2856  -15.3603  -14.8988 O   0  0  0  0  0  0  0  0  0  0  0  0
   21.2123  -10.6190  -16.0388 C   0  0  0  0  0  0  0  0  0  0  0  0
   20.7891  -10.2171  -14.9266 O   0  0  0  0  0  0  0  0  0  0  0  0
   17.8351  -15.8330  -16.5596 O   0  0  0  0  0  0  0  0  0  0  0  0
   27.5334  -12.1879  -14.9182 C   0  0  0  0  0  0  0  0  0  0  0  0
   26.9287  -10.6011  -15.5578 S   0  0  0  0  0  0  0  0  0  0  0  0
   25.1351  -10.4755  -15.3477 C   0  0  0  0  0  0  0  0  0  0  0  0
   24.6105   -9.1341  -15.8003 C   0  0  0  0  0  0  0  0  0  0  0  0
   23.1221   -9.0434  -15.7140 C   0  0  2  0  0  0  0  0  0  0  0  0
   22.4440  -10.0576  -16.4838 N   0  0  0  0  0  0  0  0  0  0  0  0
   22.6155   -7.6865  -16.0765 C   0  0  0  0  0  0  0  0  0  0  0  0
   22.5843   -7.4198  -17.2980 O   0  0  0  0  0  0  0  0  0  0  0  0
   18.9745   -3.2809  -14.6609 N   0  0  0  0  0  0  0  0  0  0  0  0
   20.3494   -3.5188  -14.4586 C   0  0  0  0  0  0  0  0  0  0  0  0
   21.1537   -2.5667  -14.4793 O   0  0  0  0  0  0  0  0  0  0  0  0
   20.8340   -4.8945  -14.2230 C   0  0  0  0  0  0  0  0  0  0  0  0
   21.7526   -5.3895  -15.3447 C   0  0  2  0  0  0  0  0  0  0  0  0
   22.1961   -6.7533  -15.1287 N   0  0  0  0  0  0  0  0  0  0  0  0
   22.8798   -4.4675  -15.3962 C   0  0  0  0  0  0  0  0  0  0  0  0
   23.7645   -4.5221  -14.4817 O   0  0  0  0  0  0  0  0  0  0  0  0
   23.0801   -3.5137  -16.3746 O   0  0  0  0  0  0  0  0  0  0  0  0
  2  1  1  6
  2  7  1  0
  3  2  1  0
  3  4  1  0
  4  5  1  0
  5  9  1  0
  6  5  2  0
  7  8  2  0
 10 11  1  0
 11 12  1  0
 12 13  1  0
 14 13  1  6
 14 16  1  0
 15  7  1  0
 15 14  1  0
 16 17  2  0
 18 19  1  0
 19 20  2  0
 21 19  1  0
 22 21  1  1
 22 24  1  0
 23 22  1  0
 23 16  1  0
 24 25  2  0
 24 26  1  0
M  END
$$$$
