EMN.pdb
     RDKit          3D

 26 25  0  0  1  0  0  0  0  0999 V2000
   22.4857  -17.7642  -17.0357 N   0  0  0  0  0  0  0  0  0  0  0  0
   21.4629  -16.8987  -16.4980 C   0  0  1  0  0  0  0  0  0  0  0  0
   20.8676  -17.6212  -15.3248 C   0  0  0  0  0  0  0  0  0  0  0  0
   20.6777  -19.0865  -15.5071 C   0  0  0  0  0  0  0  0  0  0  0  0
   20.1558  -19.8055  -14.3396 C   0  0  0  0  0  0  0  0  0  0  0  0
   19.8747  -21.0257  -14.2900 O   0  0  0  0  0  0  0  0  0  0  0  0
   21.9240  -15.5420  -16.2300 C   0  0  0  0  0  0  0  0  0  0  0  0
   21.1712  -14.7550  -15.6043 O   0  0  0  0  0  0  0  0  0  0  0  0
   19.9523  -19.0665  -13.1760 O   0  0  0  0  0  0  0  0  0  0  0  0
   25.8270  -17.2510  -14.9283 C   0  0  0  0  0  0  0  0  0  0  0  0
   26.5624  -15.7338  -15.5989 S   0  0  0  0  0  0  0  0  0  0  0  0
   25.6481  -14.2800  -15.0268 C   0  0  0  0  0  0  0  0  0  0  0  0
   25.0591  -13.4998  -16.1775 C   0  0  0  0  0  0  0  0  0  0  0  0
   23.5799  -13.6738  -16.2887 C   0  0  2  0  0  0  0  0  0  0  0  0
   23.1886  -15.0200  -16.6287 N   0  0  0  0  0  0  0  0  0  0  0  0
   22.9643  -12.6963  -17.2347 C   0  0  0  0  0  0  0  0  0  0  0  0
   23.3283  -12.7826  -18.4282 O   0  0  0  0  0  0  0  0  0  0  0  0
   18.2246  -11.3191  -15.6561 N   0  0  0  0  0  0  0  0  0  0  0  0
   19.0748  -11.3506  -16.7804 C   0  0  0  0  0  0  0  0  0  0  0  0
   19.0006  -12.2969  -17.5883 O   0  0  0  0  0  0  0  0  0  0  0  0
   20.0510  -10.2634  -16.9988 C   0  0  0  0  0  0  0  0  0  0  0  0
   21.3412  -10.7616  -17.6579 C   0  0  2  0  0  0  0  0  0  0  0  0
   22.0363  -11.7342  -16.8367 N   0  0  0  0  0  0  0  0  0  0  0  0
   22.1662   -9.5849  -17.8986 C   0  0  0  0  0  0  0  0  0  0  0  0
   21.7417   -8.6852  -18.6938 O   0  0  0  0  0  0  0  0  0  0  0  0
   23.4011   -9.3516  -17.3260 O   0  0  0  0  0  0  0  0  0  0  0  0
  2  1  1  1
  2  7  1  0
  3  2  1  0
  3  4  1  0
  4  5  1  0
  5  9  1  0
  6  5  2  0
  7  8  2  0
 10 11  1  0
 11 12  1  0
 12 13  1  0
 14 13  1  6
 14 16  1  0
 15  7  1  0
 15 14  1  0
 16 17  2  0
 18 19  1  0
 19 20  2  0
 21 19  1  0
 22 21  1  1
 22 24  1  0
 23 22  1  0
 23 16  1  0
 24 25  2  0
 24 26  1  0
M  END
$$$$
