EMN.pdb
     RDKit          3D

 26 25  0  0  1  0  0  0  0  0999 V2000
   27.6043  -19.8486  -16.1479 N   0  0  0  0  0  0  0  0  0  0  0  0
   27.1191  -21.2061  -16.0689 C   0  0  1  0  0  0  0  0  0  0  0  0
   28.2742  -22.0928  -16.4330 C   0  0  0  0  0  0  0  0  0  0  0  0
   29.4063  -21.4152  -17.1226 C   0  0  0  0  0  0  0  0  0  0  0  0
   29.0631  -20.7253  -18.3711 C   0  0  0  0  0  0  0  0  0  0  0  0
   28.5089  -21.2403  -19.3700 O   0  0  0  0  0  0  0  0  0  0  0  0
   26.4610  -21.5212  -14.8069 C   0  0  0  0  0  0  0  0  0  0  0  0
   25.9466  -22.6569  -14.6548 O   0  0  0  0  0  0  0  0  0  0  0  0
   29.3816  -19.3715  -18.4581 O   0  0  0  0  0  0  0  0  0  0  0  0
   26.7557  -21.2672   -7.5934 C   0  0  0  0  0  0  0  0  0  0  0  0
   25.9028  -19.9890   -8.5585 S   0  0  0  0  0  0  0  0  0  0  0  0
   25.2272  -20.6921  -10.0836 C   0  0  0  0  0  0  0  0  0  0  0  0
   26.1123  -20.4059  -11.2728 C   0  0  0  0  0  0  0  0  0  0  0  0
   25.5641  -20.9697  -12.5427 C   0  0  2  0  0  0  0  0  0  0  0  0
   26.3485  -20.6264  -13.7037 N   0  0  0  0  0  0  0  0  0  0  0  0
   24.1320  -20.6036  -12.7530 C   0  0  0  0  0  0  0  0  0  0  0  0
   23.8785  -19.3797  -12.7980 O   0  0  0  0  0  0  0  0  0  0  0  0
   18.5203  -23.0929  -13.3149 N   0  0  0  0  0  0  0  0  0  0  0  0
   19.5698  -22.3655  -13.9128 C   0  0  0  0  0  0  0  0  0  0  0  0
   19.3154  -21.5124  -14.7853 O   0  0  0  0  0  0  0  0  0  0  0  0
   20.9676  -22.6153  -13.5047 C   0  0  0  0  0  0  0  0  0  0  0  0
   21.7041  -21.3263  -13.1264 C   0  0  2  0  0  0  0  0  0  0  0  0
   23.1179  -21.5507  -12.8935 N   0  0  0  0  0  0  0  0  0  0  0  0
   21.0466  -20.8064  -11.9345 C   0  0  0  0  0  0  0  0  0  0  0  0
   20.0388  -20.0396  -12.0699 O   0  0  0  0  0  0  0  0  0  0  0  0
   21.4291  -21.0780  -10.6356 O   0  0  0  0  0  0  0  0  0  0  0  0
  2  1  1  1
  2  7  1  0
  3  2  1  0
  3  4  1  0
  4  5  1  0
  5  9  1  0
  6  5  2  0
  7  8  2  0
 10 11  1  0
 11 12  1  0
 12 13  1  0
 14 13  1  1
 14 16  1  0
 15  7  1  0
 15 14  1  0
 16 17  2  0
 18 19  1  0
 19 20  2  0
 21 19  1  0
 22 21  1  1
 22 24  1  0
 23 22  1  0
 23 16  1  0
 24 25  2  0
 24 26  1  0
M  END
$$$$
