EMN.pdb
     RDKit          3D

 26 25  0  0  1  0  0  0  0  0999 V2000
   22.6546  -22.3322  -12.5288 N   0  0  0  0  0  0  0  0  0  0  0  0
   22.4699  -20.9926  -12.0231 C   0  0  1  0  0  0  0  0  0  0  0  0
   21.2941  -21.0478  -11.0918 C   0  0  0  0  0  0  0  0  0  0  0  0
   20.0348  -21.5764  -11.6843 C   0  0  0  0  0  0  0  0  0  0  0  0
   19.2073  -20.5919  -12.3903 C   0  0  0  0  0  0  0  0  0  0  0  0
   19.3016  -20.2816  -13.6007 O   0  0  0  0  0  0  0  0  0  0  0  0
   23.6819  -20.4030  -11.4677 C   0  0  0  0  0  0  0  0  0  0  0  0
   23.7310  -19.1599  -11.2953 O   0  0  0  0  0  0  0  0  0  0  0  0
   18.2242  -19.9390  -11.6494 O   0  0  0  0  0  0  0  0  0  0  0  0
   27.1724  -20.3628   -5.6242 C   0  0  0  0  0  0  0  0  0  0  0  0
   27.1837  -19.2980   -7.0934 S   0  0  0  0  0  0  0  0  0  0  0  0
   25.9170  -19.8309   -8.2717 C   0  0  0  0  0  0  0  0  0  0  0  0
   26.4706  -20.7978   -9.2906 C   0  0  0  0  0  0  0  0  0  0  0  0
   26.0522  -20.4617  -10.6844 C   0  0  2  0  0  0  0  0  0  0  0  0
   24.8453  -21.1366  -11.0952 N   0  0  0  0  0  0  0  0  0  0  0  0
   27.1443  -20.6951  -11.6754 C   0  0  0  0  0  0  0  0  0  0  0  0
   27.8265  -21.7299  -11.5080 O   0  0  0  0  0  0  0  0  0  0  0  0
   28.4469  -22.5678  -16.2393 N   0  0  0  0  0  0  0  0  0  0  0  0
   27.3766  -21.6725  -16.0371 C   0  0  0  0  0  0  0  0  0  0  0  0
   26.7793  -21.1875  -17.0177 O   0  0  0  0  0  0  0  0  0  0  0  0
   26.9653  -21.3112  -14.6648 C   0  0  0  0  0  0  0  0  0  0  0  0
   27.7929  -20.1557  -14.0930 C   0  0  2  0  0  0  0  0  0  0  0  0
   27.4090  -19.8262  -12.7338 N   0  0  0  0  0  0  0  0  0  0  0  0
   27.5985  -19.0224  -14.9881 C   0  0  0  0  0  0  0  0  0  0  0  0
   26.5681  -18.2887  -14.8407 O   0  0  0  0  0  0  0  0  0  0  0  0
   28.4551  -18.6630  -16.0101 O   0  0  0  0  0  0  0  0  0  0  0  0
  2  1  1  1
  2  7  1  0
  3  2  1  0
  3  4  1  0
  4  5  1  0
  5  9  1  0
  6  5  2  0
  7  8  2  0
 10 11  1  0
 11 12  1  0
 12 13  1  0
 14 13  1  1
 14 16  1  0
 15  7  1  0
 15 14  1  0
 16 17  2  0
 18 19  1  0
 19 20  2  0
 21 19  1  0
 22 21  1  6
 22 24  1  0
 23 22  1  0
 23 16  1  0
 24 25  2  0
 24 26  1  0
M  END
$$$$
