EMN.pdb
     RDKit          3D

 26 25  0  0  1  0  0  0  0  0999 V2000
   27.8566  -19.7432  -15.5856 N   0  0  0  0  0  0  0  0  0  0  0  0
   27.2780  -21.0586  -15.7246 C   0  0  1  0  0  0  0  0  0  0  0  0
   28.3766  -21.9573  -16.2126 C   0  0  0  0  0  0  0  0  0  0  0  0
   28.3156  -22.3135  -17.6568 C   0  0  0  0  0  0  0  0  0  0  0  0
   29.6046  -22.3333  -18.3572 C   0  0  0  0  0  0  0  0  0  0  0  0
   30.5118  -21.4747  -18.2566 O   0  0  0  0  0  0  0  0  0  0  0  0
   26.5747  -21.5188  -14.5335 C   0  0  0  0  0  0  0  0  0  0  0  0
   25.7529  -22.4629  -14.6377 O   0  0  0  0  0  0  0  0  0  0  0  0
   29.8463  -23.4046  -19.2149 O   0  0  0  0  0  0  0  0  0  0  0  0
   26.1270  -19.0990   -7.8380 C   0  0  0  0  0  0  0  0  0  0  0  0
   26.0139  -20.8942   -8.0765 S   0  0  0  0  0  0  0  0  0  0  0  0
   25.3483  -21.2748   -9.7164 C   0  0  0  0  0  0  0  0  0  0  0  0
   26.3212  -20.9147  -10.8134 C   0  0  0  0  0  0  0  0  0  0  0  0
   25.8062  -21.2628  -12.1715 C   0  0  2  0  0  0  0  0  0  0  0  0
   26.7448  -20.9736  -13.2280 N   0  0  0  0  0  0  0  0  0  0  0  0
   24.4862  -20.6260  -12.4568 C   0  0  0  0  0  0  0  0  0  0  0  0
   24.4987  -19.3867  -12.6250 O   0  0  0  0  0  0  0  0  0  0  0  0
   22.8159  -21.6883  -16.2113 N   0  0  0  0  0  0  0  0  0  0  0  0
   22.1469  -20.8268  -15.3179 C   0  0  0  0  0  0  0  0  0  0  0  0
   22.1676  -19.5954  -15.5103 O   0  0  0  0  0  0  0  0  0  0  0  0
   21.4235  -21.3843  -14.1566 C   0  0  0  0  0  0  0  0  0  0  0  0
   21.9624  -20.8539  -12.8242 C   0  0  2  0  0  0  0  0  0  0  0  0
   23.2953  -21.3476  -12.5362 N   0  0  0  0  0  0  0  0  0  0  0  0
   21.0121  -21.2643  -11.7986 C   0  0  0  0  0  0  0  0  0  0  0  0
   19.8227  -20.8111  -11.8418 O   0  0  0  0  0  0  0  0  0  0  0  0
   21.2936  -22.1242  -10.7552 O   0  0  0  0  0  0  0  0  0  0  0  0
  2  1  1  1
  2  7  1  0
  3  2  1  0
  3  4  1  0
  4  5  1  0
  5  9  1  0
  6  5  2  0
  7  8  2  0
 10 11  1  0
 11 12  1  0
 12 13  1  0
 14 13  1  1
 14 16  1  0
 15  7  1  0
 15 14  1  0
 16 17  2  0
 18 19  1  0
 19 20  2  0
 21 19  1  0
 22 21  1  6
 22 24  1  0
 23 22  1  0
 23 16  1  0
 24 25  2  0
 24 26  1  0
M  END
$$$$
