EMN.pdb
     RDKit          3D

 26 25  0  0  1  0  0  0  0  0999 V2000
   17.3487   -8.7643  -16.6553 N   0  0  0  0  0  0  0  0  0  0  0  0
   17.1350   -9.7125  -15.5878 C   0  0  1  0  0  0  0  0  0  0  0  0
   17.6740  -11.0271  -16.0719 C   0  0  0  0  0  0  0  0  0  0  0  0
   19.1273  -11.0412  -16.3944 C   0  0  0  0  0  0  0  0  0  0  0  0
   19.6858  -12.3545  -16.7343 C   0  0  0  0  0  0  0  0  0  0  0  0
   19.0732  -13.4472  -16.7019 O   0  0  0  0  0  0  0  0  0  0  0  0
   17.6414   -9.2653  -14.2960 C   0  0  0  0  0  0  0  0  0  0  0  0
   17.4765   -9.9987  -13.2898 O   0  0  0  0  0  0  0  0  0  0  0  0
   21.0211  -12.3948  -17.1304 O   0  0  0  0  0  0  0  0  0  0  0  0
   23.1331   -9.8891  -12.4565 C   0  0  0  0  0  0  0  0  0  0  0  0
   21.7412   -8.8770  -11.8813 S   0  0  0  0  0  0  0  0  0  0  0  0
   21.2054   -7.7386  -13.1828 C   0  0  0  0  0  0  0  0  0  0  0  0
   20.0364   -6.8918  -12.7402 C   0  0  0  0  0  0  0  0  0  0  0  0
   18.7475   -7.6465  -12.7496 C   0  0  2  0  0  0  0  0  0  0  0  0
   18.3243   -8.0347  -14.0729 N   0  0  0  0  0  0  0  0  0  0  0  0
   17.6551   -6.9104  -12.0468 C   0  0  0  0  0  0  0  0  0  0  0  0
   17.0260   -6.0746  -12.7325 O   0  0  0  0  0  0  0  0  0  0  0  0
   13.8524   -7.0263   -7.6383 N   0  0  0  0  0  0  0  0  0  0  0  0
   15.1339   -6.4419   -7.7039 C   0  0  0  0  0  0  0  0  0  0  0  0
   15.3674   -5.3868   -7.0827 O   0  0  0  0  0  0  0  0  0  0  0  0
   16.1964   -7.0803   -8.5079 C   0  0  0  0  0  0  0  0  0  0  0  0
   16.2900   -6.4951   -9.9206 C   0  0  2  0  0  0  0  0  0  0  0  0
   17.3351   -7.1230  -10.7061 N   0  0  0  0  0  0  0  0  0  0  0  0
   16.5308   -5.0666   -9.7637 C   0  0  0  0  0  0  0  0  0  0  0  0
   15.5373   -4.2876   -9.5957 O   0  0  0  0  0  0  0  0  0  0  0  0
   17.7740   -4.4653   -9.7816 O   0  0  0  0  0  0  0  0  0  0  0  0
  2  1  1  6
  2  7  1  0
  3  2  1  0
  3  4  1  0
  4  5  1  0
  5  9  1  0
  6  5  2  0
  7  8  2  0
 10 11  1  0
 11 12  1  0
 12 13  1  0
 14 13  1  6
 14 16  1  0
 15  7  1  0
 15 14  1  0
 16 17  2  0
 18 19  1  0
 19 20  2  0
 21 19  1  0
 22 21  1  1
 22 24  1  0
 23 22  1  0
 23 16  1  0
 24 25  2  0
 24 26  1  0
M  END
$$$$
