EMN.pdb
     RDKit          3D

 26 25  0  0  1  0  0  0  0  0999 V2000
   20.2761  -11.8414  -19.4671 N   0  0  0  0  0  0  0  0  0  0  0  0
   19.0097  -11.3159  -19.0149 C   0  0  1  0  0  0  0  0  0  0  0  0
   18.0623  -12.4786  -18.9582 C   0  0  0  0  0  0  0  0  0  0  0  0
   18.5959  -13.7632  -19.4888 C   0  0  0  0  0  0  0  0  0  0  0  0
   19.8335  -14.2398  -18.8614 C   0  0  0  0  0  0  0  0  0  0  0  0
   20.0246  -14.3966  -17.6329 O   0  0  0  0  0  0  0  0  0  0  0  0
   19.1052  -10.5255  -17.7937 C   0  0  0  0  0  0  0  0  0  0  0  0
   18.0517  -10.0937  -17.2634 O   0  0  0  0  0  0  0  0  0  0  0  0
   20.8976  -14.5478  -19.7067 O   0  0  0  0  0  0  0  0  0  0  0  0
   22.3884   -8.7109  -10.9028 C   0  0  0  0  0  0  0  0  0  0  0  0
   22.6254   -9.4985  -12.5203 S   0  0  0  0  0  0  0  0  0  0  0  0
   21.2643   -9.0759  -13.6362 C   0  0  0  0  0  0  0  0  0  0  0  0
   21.3253   -9.8684  -14.9198 C   0  0  0  0  0  0  0  0  0  0  0  0
   20.3266   -9.4021  -15.9279 C   0  0  2  0  0  0  0  0  0  0  0  0
   20.3238  -10.1923  -17.1347 N   0  0  0  0  0  0  0  0  0  0  0  0
   20.4840   -7.9533  -16.2526 C   0  0  0  0  0  0  0  0  0  0  0  0
   21.3760   -7.6697  -17.0822 O   0  0  0  0  0  0  0  0  0  0  0  0
   17.8007   -2.8983  -17.1548 N   0  0  0  0  0  0  0  0  0  0  0  0
   18.3548   -3.4292  -15.9719 C   0  0  0  0  0  0  0  0  0  0  0  0
   18.8602   -2.6656  -15.1262 O   0  0  0  0  0  0  0  0  0  0  0  0
   18.3355   -4.8877  -15.7372 C   0  0  0  0  0  0  0  0  0  0  0  0
   19.7090   -5.5313  -15.9523 C   0  0  2  0  0  0  0  0  0  0  0  0
   19.6961   -6.9556  -15.6789 N   0  0  0  0  0  0  0  0  0  0  0  0
   20.6380   -4.8316  -15.0744 C   0  0  0  0  0  0  0  0  0  0  0  0
   20.7562   -5.2179  -13.8666 O   0  0  0  0  0  0  0  0  0  0  0  0
   21.4232   -3.7577  -15.4450 O   0  0  0  0  0  0  0  0  0  0  0  0
  2  1  1  1
  2  7  1  0
  3  2  1  0
  3  4  1  0
  4  5  1  0
  5  9  1  0
  6  5  2  0
  7  8  2  0
 10 11  1  0
 11 12  1  0
 12 13  1  0
 14 13  1  1
 14 16  1  0
 15  7  1  0
 15 14  1  0
 16 17  2  0
 18 19  1  0
 19 20  2  0
 21 19  1  0
 22 21  1  1
 22 24  1  0
 23 22  1  0
 23 16  1  0
 24 25  2  0
 24 26  1  0
M  END
$$$$
