EMN.pdb
     RDKit          3D

 26 25  0  0  1  0  0  0  0  0999 V2000
   26.2845  -21.6589  -13.9520 N   0  0  0  0  0  0  0  0  0  0  0  0
   26.1025  -20.5059  -13.1023 C   0  0  1  0  0  0  0  0  0  0  0  0
   25.0591  -19.6518  -13.7617 C   0  0  0  0  0  0  0  0  0  0  0  0
   24.9789  -19.7721  -15.2434 C   0  0  0  0  0  0  0  0  0  0  0  0
   23.6254  -19.9041  -15.7938 C   0  0  0  0  0  0  0  0  0  0  0  0
   23.3281  -19.9891  -17.0081 O   0  0  0  0  0  0  0  0  0  0  0  0
   25.8479  -20.8403  -11.7065 C   0  0  0  0  0  0  0  0  0  0  0  0
   25.4312  -21.9904  -11.4216 O   0  0  0  0  0  0  0  0  0  0  0  0
   22.5697  -19.9384  -14.8850 O   0  0  0  0  0  0  0  0  0  0  0  0
   27.2600  -19.9630   -4.0093 C   0  0  0  0  0  0  0  0  0  0  0  0
   27.3033  -19.1542   -5.6331 S   0  0  0  0  0  0  0  0  0  0  0  0
   26.3370  -20.0990   -6.8374 C   0  0  0  0  0  0  0  0  0  0  0  0
   26.4852  -19.5444   -8.2338 C   0  0  0  0  0  0  0  0  0  0  0  0
   25.7733  -20.3693   -9.2554 C   0  0  2  0  0  0  0  0  0  0  0  0
   26.0361  -19.9496  -10.6103 N   0  0  0  0  0  0  0  0  0  0  0  0
   24.3029  -20.4356   -9.0051 C   0  0  0  0  0  0  0  0  0  0  0  0
   23.6070  -19.5742   -9.5866 O   0  0  0  0  0  0  0  0  0  0  0  0
   19.7416  -22.6926   -7.6478 N   0  0  0  0  0  0  0  0  0  0  0  0
   20.5075  -22.4645   -6.4862 C   0  0  0  0  0  0  0  0  0  0  0  0
   20.0151  -22.6908   -5.3637 O   0  0  0  0  0  0  0  0  0  0  0  0
   21.8907  -21.9582   -6.6013 C   0  0  0  0  0  0  0  0  0  0  0  0
   22.3116  -21.7370   -8.0576 C   0  0  2  0  0  0  0  0  0  0  0  0
   23.7150  -21.3910   -8.1763 N   0  0  0  0  0  0  0  0  0  0  0  0
   21.4585  -20.6778   -8.5806 C   0  0  0  0  0  0  0  0  0  0  0  0
   20.3189  -20.9829   -9.0602 O   0  0  0  0  0  0  0  0  0  0  0  0
   21.7843  -19.3359   -8.6035 O   0  0  0  0  0  0  0  0  0  0  0  0
  2  1  1  6
  2  7  1  0
  3  2  1  0
  3  4  1  0
  4  5  1  0
  5  9  1  0
  6  5  2  0
  7  8  2  0
 10 11  1  0
 11 12  1  0
 12 13  1  0
 14 13  1  1
 14 16  1  0
 15  7  1  0
 15 14  1  0
 16 17  2  0
 18 19  1  0
 19 20  2  0
 21 19  1  0
 22 21  1  1
 22 24  1  0
 23 22  1  0
 23 16  1  0
 24 25  2  0
 24 26  1  0
M  END
$$$$
