EMN.pdb
     RDKit          3D

 26 25  0  0  1  0  0  0  0  0999 V2000
   27.7829  -18.7647  -15.0594 N   0  0  0  0  0  0  0  0  0  0  0  0
   26.9037  -19.8225  -15.4980 C   0  0  1  0  0  0  0  0  0  0  0  0
   27.7129  -20.6974  -16.4105 C   0  0  0  0  0  0  0  0  0  0  0  0
   29.0219  -20.1334  -16.8403 C   0  0  0  0  0  0  0  0  0  0  0  0
   29.0177  -19.4443  -18.1355 C   0  0  0  0  0  0  0  0  0  0  0  0
   29.3803  -19.9318  -19.2314 O   0  0  0  0  0  0  0  0  0  0  0  0
   26.2262  -20.5123  -14.4070 C   0  0  0  0  0  0  0  0  0  0  0  0
   25.4354  -21.4500  -14.6768 O   0  0  0  0  0  0  0  0  0  0  0  0
   28.5697  -18.1249  -18.1527 O   0  0  0  0  0  0  0  0  0  0  0  0
   27.3024  -20.0526   -7.9364 C   0  0  0  0  0  0  0  0  0  0  0  0
   25.8480  -21.1377   -7.9342 S   0  0  0  0  0  0  0  0  0  0  0  0
   25.1638  -21.2835   -9.6038 C   0  0  0  0  0  0  0  0  0  0  0  0
   26.0926  -20.7025  -10.6427 C   0  0  0  0  0  0  0  0  0  0  0  0
   25.5329  -20.7924  -12.0245 C   0  0  2  0  0  0  0  0  0  0  0  0
   26.3891  -20.2041  -13.0254 N   0  0  0  0  0  0  0  0  0  0  0  0
   24.1555  -20.2235  -12.1157 C   0  0  0  0  0  0  0  0  0  0  0  0
   24.0706  -18.9770  -12.0560 O   0  0  0  0  0  0  0  0  0  0  0  0
   20.5180  -20.1083  -16.1957 N   0  0  0  0  0  0  0  0  0  0  0  0
   20.5271  -21.0086  -15.1107 C   0  0  0  0  0  0  0  0  0  0  0  0
   19.4702  -21.5686  -14.7599 O   0  0  0  0  0  0  0  0  0  0  0  0
   21.7878  -21.2863  -14.3921 C   0  0  0  0  0  0  0  0  0  0  0  0
   21.7918  -20.7044  -12.9750 C   0  0  2  0  0  0  0  0  0  0  0  0
   23.0147  -21.0130  -12.2589 N   0  0  0  0  0  0  0  0  0  0  0  0
   20.6265  -21.2558  -12.2958 C   0  0  0  0  0  0  0  0  0  0  0  0
   20.6783  -22.4474  -11.8493 O   0  0  0  0  0  0  0  0  0  0  0  0
   19.4382  -20.5835  -12.0875 O   0  0  0  0  0  0  0  0  0  0  0  0
  2  1  1  1
  2  7  1  0
  3  2  1  0
  3  4  1  0
  4  5  1  0
  5  9  1  0
  6  5  2  0
  7  8  2  0
 10 11  1  0
 11 12  1  0
 12 13  1  0
 14 13  1  1
 14 16  1  0
 15  7  1  0
 15 14  1  0
 16 17  2  0
 18 19  1  0
 19 20  2  0
 21 19  1  0
 22 21  1  6
 22 24  1  0
 23 22  1  0
 23 16  1  0
 24 25  2  0
 24 26  1  0
M  END
$$$$
