EMN.pdb
     RDKit          3D

 26 25  0  0  1  0  0  0  0  0999 V2000
   19.7985  -14.2550  -17.9185 N   0  0  0  0  0  0  0  0  0  0  0  0
   19.8191  -12.9362  -18.5055 C   0  0  1  0  0  0  0  0  0  0  0  0
   18.3919  -12.4756  -18.5675 C   0  0  0  0  0  0  0  0  0  0  0  0
   17.4811  -13.3276  -19.3803 C   0  0  0  0  0  0  0  0  0  0  0  0
   17.1494  -14.6324  -18.7972 C   0  0  0  0  0  0  0  0  0  0  0  0
   16.5274  -14.8250  -17.7266 O   0  0  0  0  0  0  0  0  0  0  0  0
   20.7458  -12.0186  -17.8540 C   0  0  0  0  0  0  0  0  0  0  0  0
   20.5479  -11.7022  -16.6547 O   0  0  0  0  0  0  0  0  0  0  0  0
   17.5628  -15.7650  -19.4957 O   0  0  0  0  0  0  0  0  0  0  0  0
   26.6100   -9.8489  -14.7581 C   0  0  0  0  0  0  0  0  0  0  0  0
   25.4598  -10.7722  -15.8151 S   0  0  0  0  0  0  0  0  0  0  0  0
   25.1381   -9.8628  -17.3468 C   0  0  0  0  0  0  0  0  0  0  0  0
   24.1817  -10.6052  -18.2489 C   0  0  0  0  0  0  0  0  0  0  0  0
   22.7759  -10.5686  -17.7458 C   0  0  2  0  0  0  0  0  0  0  0  0
   21.8857  -11.4352  -18.4790 N   0  0  0  0  0  0  0  0  0  0  0  0
   22.2286   -9.1804  -17.6947 C   0  0  0  0  0  0  0  0  0  0  0  0
   22.0631   -8.6139  -18.7974 O   0  0  0  0  0  0  0  0  0  0  0  0
   18.2666   -5.3089  -16.5095 N   0  0  0  0  0  0  0  0  0  0  0  0
   19.4254   -5.7562  -15.8425 C   0  0  0  0  0  0  0  0  0  0  0  0
   20.0320   -4.9889  -15.0698 O   0  0  0  0  0  0  0  0  0  0  0  0
   19.9183   -7.1318  -16.0604 C   0  0  0  0  0  0  0  0  0  0  0  0
   21.4282   -7.1769  -16.3157 C   0  0  2  0  0  0  0  0  0  0  0  0
   21.9128   -8.5311  -16.5014 N   0  0  0  0  0  0  0  0  0  0  0  0
   22.0629   -6.5395  -15.1692 C   0  0  0  0  0  0  0  0  0  0  0  0
   22.2586   -5.2812  -15.1922 O   0  0  0  0  0  0  0  0  0  0  0  0
   22.4826   -7.1956  -14.0289 O   0  0  0  0  0  0  0  0  0  0  0  0
  2  1  1  1
  2  7  1  0
  3  2  1  0
  3  4  1  0
  4  5  1  0
  5  9  1  0
  6  5  2  0
  7  8  2  0
 10 11  1  0
 11 12  1  0
 12 13  1  0
 14 13  1  6
 14 16  1  0
 15  7  1  0
 15 14  1  0
 16 17  2  0
 18 19  1  0
 19 20  2  0
 21 19  1  0
 22 21  1  1
 22 24  1  0
 23 22  1  0
 23 16  1  0
 24 25  2  0
 24 26  1  0
M  END
$$$$
