EMN.pdb
     RDKit          3D

 26 25  0  0  1  0  0  0  0  0999 V2000
   17.5736  -15.1697  -17.8517 N   0  0  0  0  0  0  0  0  0  0  0  0
   16.7553  -14.2785  -17.0639 C   0  0  1  0  0  0  0  0  0  0  0  0
   16.8529  -14.7548  -15.6439 C   0  0  0  0  0  0  0  0  0  0  0  0
   16.3478  -16.1332  -15.3969 C   0  0  0  0  0  0  0  0  0  0  0  0
   16.2982  -16.5447  -13.9895 C   0  0  0  0  0  0  0  0  0  0  0  0
   17.2752  -16.9016  -13.2907 O   0  0  0  0  0  0  0  0  0  0  0  0
   17.0555  -12.8675  -17.2735 C   0  0  0  0  0  0  0  0  0  0  0  0
   18.2158  -12.5366  -17.6224 O   0  0  0  0  0  0  0  0  0  0  0  0
   15.0507  -16.5396  -13.3688 O   0  0  0  0  0  0  0  0  0  0  0  0
   14.8597   -5.3598  -18.6017 C   0  0  0  0  0  0  0  0  0  0  0  0
   14.3219   -7.0627  -18.2805 S   0  0  0  0  0  0  0  0  0  0  0  0
   15.7487   -8.1252  -17.9456 C   0  0  0  0  0  0  0  0  0  0  0  0
   15.3335   -9.5499  -17.6675 C   0  0  0  0  0  0  0  0  0  0  0  0
   16.4969  -10.4353  -17.3617 C   0  0  2  0  0  0  0  0  0  0  0  0
   16.1199  -11.8050  -17.1112 N   0  0  0  0  0  0  0  0  0  0  0  0
   17.3294   -9.9091  -16.2395 C   0  0  0  0  0  0  0  0  0  0  0  0
   16.9864  -10.2603  -15.0891 O   0  0  0  0  0  0  0  0  0  0  0  0
   22.1203   -8.9742  -13.6087 N   0  0  0  0  0  0  0  0  0  0  0  0
   21.7411   -8.2921  -14.7830 C   0  0  0  0  0  0  0  0  0  0  0  0
   22.2033   -7.1588  -15.0192 O   0  0  0  0  0  0  0  0  0  0  0  0
   20.7977   -8.9209  -15.7303 C   0  0  0  0  0  0  0  0  0  0  0  0
   19.3417   -8.5412  -15.4420 C   0  0  2  0  0  0  0  0  0  0  0  0
   18.4291   -9.0739  -16.4353 N   0  0  0  0  0  0  0  0  0  0  0  0
   19.2917   -7.0855  -15.4029 C   0  0  0  0  0  0  0  0  0  0  0  0
   19.0264   -6.4477  -16.4730 O   0  0  0  0  0  0  0  0  0  0  0  0
   19.5123   -6.3143  -14.2787 O   0  0  0  0  0  0  0  0  0  0  0  0
  2  1  1  6
  2  7  1  0
  3  2  1  0
  3  4  1  0
  4  5  1  0
  5  9  1  0
  6  5  2  0
  7  8  2  0
 10 11  1  0
 11 12  1  0
 12 13  1  0
 14 13  1  1
 14 16  1  0
 15  7  1  0
 15 14  1  0
 16 17  2  0
 18 19  1  0
 19 20  2  0
 21 19  1  0
 22 21  1  6
 22 24  1  0
 23 22  1  0
 23 16  1  0
 24 25  2  0
 24 26  1  0
M  END
$$$$
