EMN.pdb
     RDKit          3D

 26 25  0  0  1  0  0  0  0  0999 V2000
   19.1333  -10.6431  -19.5219 N   0  0  0  0  0  0  0  0  0  0  0  0
   18.7702  -10.6292  -18.1246 C   0  0  1  0  0  0  0  0  0  0  0  0
   18.0813  -11.9343  -17.8510 C   0  0  0  0  0  0  0  0  0  0  0  0
   18.1403  -12.9310  -18.9552 C   0  0  0  0  0  0  0  0  0  0  0  0
   19.2586  -13.8785  -18.8914 C   0  0  0  0  0  0  0  0  0  0  0  0
   19.3606  -14.8469  -18.1026 O   0  0  0  0  0  0  0  0  0  0  0  0
   19.8782  -10.3067  -17.2339 C   0  0  0  0  0  0  0  0  0  0  0  0
   19.6434  -10.1099  -16.0158 O   0  0  0  0  0  0  0  0  0  0  0  0
   20.3067  -13.6871  -19.7895 O   0  0  0  0  0  0  0  0  0  0  0  0
   27.3870  -10.5733  -14.9176 C   0  0  0  0  0  0  0  0  0  0  0  0
   26.1503  -11.0624  -16.1520 S   0  0  0  0  0  0  0  0  0  0  0  0
   24.5823  -10.2097  -15.8502 C   0  0  0  0  0  0  0  0  0  0  0  0
   23.5327  -10.5903  -16.8666 C   0  0  0  0  0  0  0  0  0  0  0  0
   22.2674   -9.8145  -16.7000 C   0  0  2  0  0  0  0  0  0  0  0  0
   21.2396  -10.1925  -17.6390 N   0  0  0  0  0  0  0  0  0  0  0  0
   22.4974   -8.3399  -16.7430 C   0  0  0  0  0  0  0  0  0  0  0  0
   22.8167   -7.8657  -17.8554 O   0  0  0  0  0  0  0  0  0  0  0  0
   21.7699   -3.3388  -15.5269 N   0  0  0  0  0  0  0  0  0  0  0  0
   21.0032   -4.0856  -16.4447 C   0  0  0  0  0  0  0  0  0  0  0  0
   20.2206   -3.5018  -17.2196 O   0  0  0  0  0  0  0  0  0  0  0  0
   21.1285   -5.5571  -16.4864 C   0  0  0  0  0  0  0  0  0  0  0  0
   22.2492   -6.0731  -15.5782 C   0  0  2  0  0  0  0  0  0  0  0  0
   22.3706   -7.5176  -15.6236 N   0  0  0  0  0  0  0  0  0  0  0  0
   21.9399   -5.6093  -14.2319 C   0  0  0  0  0  0  0  0  0  0  0  0
   21.4024   -6.4184  -13.4082 O   0  0  0  0  0  0  0  0  0  0  0  0
   22.1841   -4.3360  -13.7562 O   0  0  0  0  0  0  0  0  0  0  0  0
  2  1  1  6
  2  7  1  0
  3  2  1  0
  3  4  1  0
  4  5  1  0
  5  9  1  0
  6  5  2  0
  7  8  2  0
 10 11  1  0
 11 12  1  0
 12 13  1  0
 14 13  1  6
 14 16  1  0
 15  7  1  0
 15 14  1  0
 16 17  2  0
 18 19  1  0
 19 20  2  0
 21 19  1  0
 22 21  1  6
 22 24  1  0
 23 22  1  0
 23 16  1  0
 24 25  2  0
 24 26  1  0
M  END
$$$$
