EMN.pdb
     RDKit          3D

 26 25  0  0  1  0  0  0  0  0999 V2000
   28.0342  -19.9407  -14.5933 N   0  0  0  0  0  0  0  0  0  0  0  0
   27.0609  -20.9223  -15.0098 C   0  0  1  0  0  0  0  0  0  0  0  0
   27.8364  -22.0844  -15.5584 C   0  0  0  0  0  0  0  0  0  0  0  0
   29.2910  -21.8418  -15.7621 C   0  0  0  0  0  0  0  0  0  0  0  0
   29.7528  -21.9047  -17.1532 C   0  0  0  0  0  0  0  0  0  0  0  0
   29.5629  -21.0332  -18.0334 O   0  0  0  0  0  0  0  0  0  0  0  0
   26.0827  -21.2518  -13.9804 C   0  0  0  0  0  0  0  0  0  0  0  0
   25.2459  -22.1614  -14.2039 O   0  0  0  0  0  0  0  0  0  0  0  0
   30.4694  -23.0371  -17.5350 O   0  0  0  0  0  0  0  0  0  0  0  0
   28.2963  -20.4800   -7.5281 C   0  0  0  0  0  0  0  0  0  0  0  0
   26.6381  -20.0951   -8.1566 S   0  0  0  0  0  0  0  0  0  0  0  0
   26.4119  -20.7885   -9.8133 C   0  0  0  0  0  0  0  0  0  0  0  0
   25.1139  -20.3361  -10.4378 C   0  0  0  0  0  0  0  0  0  0  0  0
   24.9086  -20.9026  -11.8044 C   0  0  2  0  0  0  0  0  0  0  0  0
   25.9932  -20.6123  -12.7102 N   0  0  0  0  0  0  0  0  0  0  0  0
   23.6047  -20.4857  -12.4003 C   0  0  0  0  0  0  0  0  0  0  0  0
   23.5362  -19.3024  -12.7997 O   0  0  0  0  0  0  0  0  0  0  0  0
   18.7973  -21.8635  -15.2378 N   0  0  0  0  0  0  0  0  0  0  0  0
   19.0469  -22.0481  -13.8625 C   0  0  0  0  0  0  0  0  0  0  0  0
   18.1088  -21.9696  -13.0454 O   0  0  0  0  0  0  0  0  0  0  0  0
   20.4182  -22.3336  -13.3926 C   0  0  0  0  0  0  0  0  0  0  0  0
   21.1955  -21.0581  -13.0520 C   0  0  2  0  0  0  0  0  0  0  0  0
   22.5122  -21.3450  -12.5161 N   0  0  0  0  0  0  0  0  0  0  0  0
   20.3829  -20.3194  -12.0942 C   0  0  0  0  0  0  0  0  0  0  0  0
   20.5020  -20.5794  -10.8531 O   0  0  0  0  0  0  0  0  0  0  0  0
   19.4702  -19.3358  -12.4207 O   0  0  0  0  0  0  0  0  0  0  0  0
  2  1  1  1
  2  7  1  0
  3  2  1  0
  3  4  1  0
  4  5  1  0
  5  9  1  0
  6  5  2  0
  7  8  2  0
 10 11  1  0
 11 12  1  0
 12 13  1  0
 14 13  1  1
 14 16  1  0
 15  7  1  0
 15 14  1  0
 16 17  2  0
 18 19  1  0
 19 20  2  0
 21 19  1  0
 22 21  1  1
 22 24  1  0
 23 22  1  0
 23 16  1  0
 24 25  2  0
 24 26  1  0
M  END
$$$$
