SMG.pdb
     RDKit          3D

 19 18  0  0  1  0  0  0  0  0999 V2000
   18.5066  -11.7172  -18.9685 O   0  0  0  0  0  0  0  0  0  0  0  0
   19.0292  -11.3092  -17.7403 C   0  0  0  0  0  0  0  0  0  0  0  0
   20.3674  -11.9982  -17.5693 C   0  0  2  0  0  0  0  0  0  0  0  0
   20.0929  -13.3097  -17.0108 N   0  0  0  0  0  0  0  0  0  0  0  0
   21.2677  -11.2616  -16.6650 C   0  0  0  0  0  0  0  0  0  0  0  0
   21.1492  -11.3739  -15.4077 O   0  0  0  0  0  0  0  0  0  0  0  0
   26.9695  -11.7768  -16.0555 C   0  0  0  0  0  0  0  0  0  0  0  0
   26.5894  -10.3667  -15.0021 S   0  0  0  0  0  0  0  0  0  0  0  0
   25.5694   -9.1368  -15.8130 C   0  0  0  0  0  0  0  0  0  0  0  0
   24.5379   -9.7192  -16.7253 C   0  0  0  0  0  0  0  0  0  0  0  0
   23.1383   -9.6490  -16.1935 C   0  0  2  0  0  0  0  0  0  0  0  0
   22.2965  -10.4031  -17.1346 N   0  0  0  0  0  0  0  0  0  0  0  0
   22.6376   -8.2958  -15.9795 C   0  0  0  0  0  0  0  0  0  0  0  0
   22.3610   -7.5730  -16.9617 O   0  0  0  0  0  0  0  0  0  0  0  0
   22.4487   -7.7589  -14.6827 N   0  0  0  0  0  0  0  0  0  0  0  0
   21.8236   -6.4653  -14.4562 C   0  0  0  0  0  0  0  0  0  0  0  0
   22.7134   -5.3472  -14.7392 C   0  0  0  0  0  0  0  0  0  0  0  0
   23.8769   -5.5491  -15.1464 O   0  0  0  0  0  0  0  0  0  0  0  0
   22.2820   -4.0478  -14.5608 O   0  0  0  0  0  0  0  0  0  0  0  0
  1  2  1  0
  2  3  1  0
  3  4  1  1
  5  3  1  0
  6  5  2  0
  7  8  1  0
  9 10  1  0
  9  8  1  0
 11 10  1  6
 11 13  1  0
 11 12  1  0
 12  5  1  0
 13 15  1  0
 14 13  2  0
 15 16  1  0
 17 19  1  0
 17 16  1  0
 18 17  2  0
M  END
$$$$
