SMG.pdb
     RDKit          3D

 19 18  0  0  1  0  0  0  0  0999 V2000
   19.6033  -21.5877  -13.5371 O   0  0  0  0  0  0  0  0  0  0  0  0
   20.5876  -20.8529  -12.8741 C   0  0  0  0  0  0  0  0  0  0  0  0
   21.8244  -20.8656  -13.7486 C   0  0  2  0  0  0  0  0  0  0  0  0
   22.0536  -22.2482  -14.1269 N   0  0  0  0  0  0  0  0  0  0  0  0
   23.0131  -20.3479  -13.0487 C   0  0  0  0  0  0  0  0  0  0  0  0
   23.0415  -19.1526  -12.6269 O   0  0  0  0  0  0  0  0  0  0  0  0
   25.5240  -19.7063   -7.9017 C   0  0  0  0  0  0  0  0  0  0  0  0
   26.7803  -20.8360   -8.5246 S   0  0  0  0  0  0  0  0  0  0  0  0
   26.9457  -20.7907  -10.3082 C   0  0  0  0  0  0  0  0  0  0  0  0
   25.7452  -21.3056  -11.0357 C   0  0  0  0  0  0  0  0  0  0  0  0
   25.3972  -20.5313  -12.2709 C   0  0  2  0  0  0  0  0  0  0  0  0
   24.1698  -21.1361  -12.8101 N   0  0  0  0  0  0  0  0  0  0  0  0
   26.4588  -20.4722  -13.2694 C   0  0  0  0  0  0  0  0  0  0  0  0
   26.8810  -21.5276  -13.7907 O   0  0  0  0  0  0  0  0  0  0  0  0
   27.0402  -19.2476  -13.6792 N   0  0  0  0  0  0  0  0  0  0  0  0
   28.1603  -19.1857  -14.6050 C   0  0  0  0  0  0  0  0  0  0  0  0
   27.7447  -19.1993  -16.0010 C   0  0  0  0  0  0  0  0  0  0  0  0
   27.7194  -20.2690  -16.6455 O   0  0  0  0  0  0  0  0  0  0  0  0
   27.3726  -18.0285  -16.6312 O   0  0  0  0  0  0  0  0  0  0  0  0
  1  2  1  0
  2  3  1  0
  3  4  1  1
  5  3  1  0
  6  5  2  0
  7  8  1  0
  9 10  1  0
  9  8  1  0
 11 10  1  1
 11 13  1  0
 11 12  1  0
 12  5  1  0
 13 15  1  0
 14 13  2  0
 15 16  1  0
 17 19  1  0
 17 16  1  0
 18 17  2  0
M  END
$$$$
