SMG.pdb
     RDKit          3D

 19 18  0  0  1  0  0  0  0  0999 V2000
   20.8511  -21.4087  -14.4391 O   0  0  0  0  0  0  0  0  0  0  0  0
   22.0005  -20.6968  -14.0920 C   0  0  0  0  0  0  0  0  0  0  0  0
   22.3005  -21.0067  -12.6398 C   0  0  2  0  0  0  0  0  0  0  0  0
   21.3066  -20.3034  -11.8494 N   0  0  0  0  0  0  0  0  0  0  0  0
   23.6468  -20.5639  -12.2369 C   0  0  0  0  0  0  0  0  0  0  0  0
   23.8459  -19.3687  -11.8637 O   0  0  0  0  0  0  0  0  0  0  0  0
   26.5613  -20.3816   -7.5319 C   0  0  0  0  0  0  0  0  0  0  0  0
   27.8680  -20.0936   -8.7369 S   0  0  0  0  0  0  0  0  0  0  0  0
   27.8461  -21.2649  -10.0927 C   0  0  0  0  0  0  0  0  0  0  0  0
   26.4715  -21.5901  -10.5830 C   0  0  0  0  0  0  0  0  0  0  0  0
   26.1087  -20.9271  -11.8773 C   0  0  2  0  0  0  0  0  0  0  0  0
   24.7743  -21.4267  -12.2419 N   0  0  0  0  0  0  0  0  0  0  0  0
   27.0755  -21.1234  -12.9516 C   0  0  0  0  0  0  0  0  0  0  0  0
   27.0550  -22.1796  -13.6208 O   0  0  0  0  0  0  0  0  0  0  0  0
   28.0527  -20.1499  -13.2728 N   0  0  0  0  0  0  0  0  0  0  0  0
   27.8352  -19.1292  -14.2858 C   0  0  0  0  0  0  0  0  0  0  0  0
   27.6840  -19.6814  -15.6252 C   0  0  0  0  0  0  0  0  0  0  0  0
   26.5507  -19.8121  -16.1339 O   0  0  0  0  0  0  0  0  0  0  0  0
   28.7929  -20.0683  -16.3513 O   0  0  0  0  0  0  0  0  0  0  0  0
  1  2  1  0
  2  3  1  0
  3  4  1  1
  5  3  1  0
  6  5  2  0
  7  8  1  0
  9 10  1  0
  9  8  1  0
 11 10  1  1
 11 13  1  0
 11 12  1  0
 12  5  1  0
 13 15  1  0
 14 13  2  0
 15 16  1  0
 17 19  1  0
 17 16  1  0
 18 17  2  0
M  END
$$$$
