SMG.pdb
     RDKit          3D

 19 18  0  0  1  0  0  0  0  0999 V2000
   19.8575   -6.0062  -19.4094 O   0  0  0  0  0  0  0  0  0  0  0  0
   21.1741   -6.4581  -19.5124 C   0  0  0  0  0  0  0  0  0  0  0  0
   21.3034   -7.6753  -18.6200 C   0  0  2  0  0  0  0  0  0  0  0  0
   20.3894   -8.6746  -19.1427 N   0  0  0  0  0  0  0  0  0  0  0  0
   20.9576   -7.3838  -17.2178 C   0  0  0  0  0  0  0  0  0  0  0  0
   19.8475   -7.7631  -16.7369 O   0  0  0  0  0  0  0  0  0  0  0  0
   21.8941   -9.2870  -10.1769 C   0  0  0  0  0  0  0  0  0  0  0  0
   22.3859   -9.1842  -11.9060 S   0  0  0  0  0  0  0  0  0  0  0  0
   21.6736   -7.7781  -12.7582 C   0  0  0  0  0  0  0  0  0  0  0  0
   22.0173   -7.7201  -14.2122 C   0  0  0  0  0  0  0  0  0  0  0  0
   21.4874   -6.5101  -14.9204 C   0  0  2  0  0  0  0  0  0  0  0  0
   21.8244   -6.6783  -16.3420 N   0  0  0  0  0  0  0  0  0  0  0  0
   21.9702   -5.2386  -14.3934 C   0  0  0  0  0  0  0  0  0  0  0  0
   23.1738   -5.1133  -14.0782 O   0  0  0  0  0  0  0  0  0  0  0  0
   21.1166   -4.1216  -14.2216 N   0  0  0  0  0  0  0  0  0  0  0  0
   21.5521   -2.8993  -13.5645 C   0  0  0  0  0  0  0  0  0  0  0  0
   20.5940   -1.8103  -13.6980 C   0  0  0  0  0  0  0  0  0  0  0  0
   20.9505   -0.6260  -13.5233 O   0  0  0  0  0  0  0  0  0  0  0  0
   19.2772   -2.0731  -14.0200 O   0  0  0  0  0  0  0  0  0  0  0  0
  1  2  1  0
  2  3  1  0
  3  4  1  6
  5  3  1  0
  6  5  2  0
  7  8  1  0
  9 10  1  0
  9  8  1  0
 11 10  1  1
 11 13  1  0
 11 12  1  0
 12  5  1  0
 13 15  1  0
 14 13  2  0
 15 16  1  0
 17 19  1  0
 17 16  1  0
 18 17  2  0
M  END
$$$$
