SMG.pdb
     RDKit          3D

 19 18  0  0  1  0  0  0  0  0999 V2000
   19.6307  -13.7556  -16.7433 O   0  0  0  0  0  0  0  0  0  0  0  0
   18.5421  -12.9664  -16.3686 C   0  0  0  0  0  0  0  0  0  0  0  0
   18.8089  -11.5630  -16.8725 C   0  0  2  0  0  0  0  0  0  0  0  0
   18.9446  -11.6565  -18.3148 N   0  0  0  0  0  0  0  0  0  0  0  0
   20.0390  -10.9855  -16.3033 C   0  0  0  0  0  0  0  0  0  0  0  0
   20.1649  -10.8490  -15.0491 O   0  0  0  0  0  0  0  0  0  0  0  0
   27.1401  -10.7767  -14.8717 C   0  0  0  0  0  0  0  0  0  0  0  0
   25.6327  -11.3474  -15.6747 S   0  0  0  0  0  0  0  0  0  0  0  0
   24.8204  -10.0715  -16.6353 C   0  0  0  0  0  0  0  0  0  0  0  0
   23.5064  -10.4965  -17.2084 C   0  0  0  0  0  0  0  0  0  0  0  0
   22.3147   -9.9334  -16.4948 C   0  0  2  0  0  0  0  0  0  0  0  0
   21.1306  -10.5576  -17.1041 N   0  0  0  0  0  0  0  0  0  0  0  0
   22.2306   -8.4773  -16.5096 C   0  0  0  0  0  0  0  0  0  0  0  0
   22.1672   -7.8695  -17.6007 O   0  0  0  0  0  0  0  0  0  0  0  0
   22.2175   -7.7114  -15.3184 N   0  0  0  0  0  0  0  0  0  0  0  0
   22.1817   -6.2574  -15.3249 C   0  0  0  0  0  0  0  0  0  0  0  0
   21.9237   -5.6898  -14.0084 C   0  0  0  0  0  0  0  0  0  0  0  0
   22.0241   -4.4595  -13.8167 O   0  0  0  0  0  0  0  0  0  0  0  0
   21.5644   -6.5051  -12.9536 O   0  0  0  0  0  0  0  0  0  0  0  0
  1  2  1  0
  2  3  1  0
  3  4  1  6
  5  3  1  0
  6  5  2  0
  7  8  1  0
  9 10  1  0
  9  8  1  0
 11 10  1  6
 11 13  1  0
 11 12  1  0
 12  5  1  0
 13 15  1  0
 14 13  2  0
 15 16  1  0
 17 19  1  0
 17 16  1  0
 18 17  2  0
M  END
$$$$
