SMG.pdb
     RDKit          3D

 19 18  0  0  1  0  0  0  0  0999 V2000
   65.5342  -29.1812   68.4461 O   0  0  0  0  0  0  0  0  0  0  0  0
   66.4657  -28.2938   68.9875 C   0  0  0  0  0  0  0  0  0  0  0  0
   65.9100  -27.8097   70.3109 C   0  0  2  0  0  0  0  0  0  0  0  0
   64.4686  -27.7346   70.1556 N   0  0  0  0  0  0  0  0  0  0  0  0
   66.4297  -26.4836   70.6877 C   0  0  0  0  0  0  0  0  0  0  0  0
   67.6707  -26.2343   70.6134 O   0  0  0  0  0  0  0  0  0  0  0  0
   70.1384  -23.5618   69.0227 C   0  0  0  0  0  0  0  0  0  0  0  0
   68.7422  -24.6403   69.3832 S   0  0  0  0  0  0  0  0  0  0  0  0
   67.3944  -23.7953   70.2080 C   0  0  0  0  0  0  0  0  0  0  0  0
   66.1053  -23.8404   69.4519 C   0  0  0  0  0  0  0  0  0  0  0  0
   64.9788  -24.4894   70.1976 C   0  0  2  0  0  0  0  0  0  0  0  0
   65.5940  -25.4309   71.1452 N   0  0  0  0  0  0  0  0  0  0  0  0
   63.9859  -25.1407   69.3505 C   0  0  0  0  0  0  0  0  0  0  0  0
   64.1828  -25.2306   68.1189 O   0  0  0  0  0  0  0  0  0  0  0  0
   62.7881  -25.6842   69.8754 N   0  0  0  0  0  0  0  0  0  0  0  0
   62.7749  -26.5996   71.0056 C   0  0  0  0  0  0  0  0  0  0  0  0
   61.4922  -27.2672   71.1807 C   0  0  0  0  0  0  0  0  0  0  0  0
   60.6592  -26.8356   72.0054 O   0  0  0  0  0  0  0  0  0  0  0  0
   61.1797  -28.3875   70.4367 O   0  0  0  0  0  0  0  0  0  0  0  0
  1  2  1  0
  2  3  1  0
  3  4  1  6
  5  3  1  0
  6  5  2  0
  7  8  1  0
  9 10  1  0
  9  8  1  0
 11 10  1  6
 11 13  1  0
 11 12  1  0
 12  5  1  0
 13 15  1  0
 14 13  2  0
 15 16  1  0
 17 19  1  0
 17 16  1  0
 18 17  2  0
M  END
$$$$
