SMG.pdb
     RDKit          3D

 19 18  0  0  1  0  0  0  0  0999 V2000
   30.3798    3.5929   -4.7186 O   0  0  0  0  0  0  0  0  0  0  0  0
   29.5259    4.3866   -3.9511 C   0  0  0  0  0  0  0  0  0  0  0  0
   28.8764    3.4843   -2.9220 C   0  0  2  0  0  0  0  0  0  0  0  0
   29.9537    2.8300   -2.2019 N   0  0  0  0  0  0  0  0  0  0  0  0
   28.0097    2.4635   -3.5364 C   0  0  0  0  0  0  0  0  0  0  0  0
   28.3306    1.2376   -3.4944 O   0  0  0  0  0  0  0  0  0  0  0  0
   25.0985   -1.9371   -0.6521 C   0  0  0  0  0  0  0  0  0  0  0  0
   24.5620   -0.3961   -1.4137 S   0  0  0  0  0  0  0  0  0  0  0  0
   25.5533    0.0712   -2.8313 C   0  0  0  0  0  0  0  0  0  0  0  0
   25.0588    1.2958   -3.5321 C   0  0  0  0  0  0  0  0  0  0  0  0
   25.9045    1.7217   -4.6940 C   0  0  2  0  0  0  0  0  0  0  0  0
   26.7934    2.7822   -4.1959 N   0  0  0  0  0  0  0  0  0  0  0  0
   25.1519    2.1492   -5.8680 C   0  0  0  0  0  0  0  0  0  0  0  0
   24.4448    3.1790   -5.8117 O   0  0  0  0  0  0  0  0  0  0  0  0
   25.1905    1.4332   -7.0893 N   0  0  0  0  0  0  0  0  0  0  0  0
   24.3925    1.8145   -8.2440 C   0  0  0  0  0  0  0  0  0  0  0  0
   24.5565    0.9078   -9.3721 C   0  0  0  0  0  0  0  0  0  0  0  0
   25.4565    0.0416   -9.3648 O   0  0  0  0  0  0  0  0  0  0  0  0
   23.7182    0.9937  -10.4659 O   0  0  0  0  0  0  0  0  0  0  0  0
  1  2  1  0
  2  3  1  0
  3  4  1  6
  5  3  1  0
  6  5  2  0
  7  8  1  0
  9 10  1  0
  9  8  1  0
 11 10  1  1
 11 13  1  0
 11 12  1  0
 12  5  1  0
 13 15  1  0
 14 13  2  0
 15 16  1  0
 17 19  1  0
 17 16  1  0
 18 17  2  0
M  END
$$$$
