SMG.pdb
     RDKit          3D

 19 18  0  0  1  0  0  0  0  0999 V2000
   25.2625  -24.0781  -14.0876 O   0  0  0  0  0  0  0  0  0  0  0  0
   24.6233  -23.1527  -13.2610 C   0  0  0  0  0  0  0  0  0  0  0  0
   25.6256  -22.0609  -12.9480 C   0  0  2  0  0  0  0  0  0  0  0  0
   25.8568  -22.1051  -11.5156 N   0  0  0  0  0  0  0  0  0  0  0  0
   25.1348  -20.7229  -13.3218 C   0  0  0  0  0  0  0  0  0  0  0  0
   24.3769  -20.0741  -12.5395 O   0  0  0  0  0  0  0  0  0  0  0  0
   25.3771  -13.8696  -15.3817 C   0  0  0  0  0  0  0  0  0  0  0  0
   25.8650  -15.5443  -14.9346 S   0  0  0  0  0  0  0  0  0  0  0  0
   25.5425  -16.7408  -16.2287 C   0  0  0  0  0  0  0  0  0  0  0  0
   25.8873  -18.1449  -15.8476 C   0  0  0  0  0  0  0  0  0  0  0  0
   24.9119  -18.7820  -14.9047 C   0  0  2  0  0  0  0  0  0  0  0  0
   25.4721  -20.0947  -14.5497 N   0  0  0  0  0  0  0  0  0  0  0  0
   23.5522  -18.8922  -15.4210 C   0  0  0  0  0  0  0  0  0  0  0  0
   23.2771  -19.7741  -16.2639 O   0  0  0  0  0  0  0  0  0  0  0  0
   22.5138  -18.0264  -14.9992 N   0  0  0  0  0  0  0  0  0  0  0  0
   21.1585  -18.1212  -15.5183 C   0  0  0  0  0  0  0  0  0  0  0  0
   20.3548  -19.1212  -14.8286 C   0  0  0  0  0  0  0  0  0  0  0  0
   20.4037  -20.3215  -15.1710 O   0  0  0  0  0  0  0  0  0  0  0  0
   19.5271  -18.7553  -13.7857 O   0  0  0  0  0  0  0  0  0  0  0  0
  1  2  1  0
  2  3  1  0
  3  4  1  1
  5  3  1  0
  6  5  2  0
  7  8  1  0
  9 10  1  0
  9  8  1  0
 11 10  1  6
 11 13  1  0
 11 12  1  0
 12  5  1  0
 13 15  1  0
 14 13  2  0
 15 16  1  0
 17 19  1  0
 17 16  1  0
 18 17  2  0
M  END
$$$$
