SMG.pdb
     RDKit          3D

 19 18  0  0  1  0  0  0  0  0999 V2000
   27.4498  -10.4602  -15.8549 O   0  0  0  0  0  0  0  0  0  0  0  0
   26.3459   -9.6077  -15.9114 C   0  0  0  0  0  0  0  0  0  0  0  0
   25.2153  -10.3779  -16.5620 C   0  0  2  0  0  0  0  0  0  0  0  0
   25.6176  -10.6300  -17.9338 N   0  0  0  0  0  0  0  0  0  0  0  0
   23.9472   -9.6277  -16.5555 C   0  0  0  0  0  0  0  0  0  0  0  0
   23.6218   -8.9059  -17.5457 O   0  0  0  0  0  0  0  0  0  0  0  0
   18.6775  -13.3686  -16.5108 C   0  0  0  0  0  0  0  0  0  0  0  0
   19.0159  -11.9916  -15.4009 S   0  0  0  0  0  0  0  0  0  0  0  0
   20.3208  -10.9153  -15.9919 C   0  0  0  0  0  0  0  0  0  0  0  0
   20.7069   -9.8489  -15.0175 C   0  0  0  0  0  0  0  0  0  0  0  0
   21.7705   -8.9180  -15.5159 C   0  0  2  0  0  0  0  0  0  0  0  0
   23.0356   -9.6665  -15.4676 N   0  0  0  0  0  0  0  0  0  0  0  0
   21.8581   -7.6540  -14.7933 C   0  0  0  0  0  0  0  0  0  0  0  0
   22.5376   -7.5828  -13.7459 O   0  0  0  0  0  0  0  0  0  0  0  0
   21.1937   -6.4848  -15.2374 N   0  0  0  0  0  0  0  0  0  0  0  0
   21.2097   -5.2424  -14.4815 C   0  0  0  0  0  0  0  0  0  0  0  0
   22.3304   -4.3797  -14.8304 C   0  0  0  0  0  0  0  0  0  0  0  0
   23.1552   -4.7311  -15.7001 O   0  0  0  0  0  0  0  0  0  0  0  0
   22.4960   -3.1606  -14.2037 O   0  0  0  0  0  0  0  0  0  0  0  0
  1  2  1  0
  2  3  1  0
  3  4  1  6
  5  3  1  0
  6  5  2  0
  7  8  1  0
  9 10  1  0
  9  8  1  0
 11 10  1  1
 11 13  1  0
 11 12  1  0
 12  5  1  0
 13 15  1  0
 14 13  2  0
 15 16  1  0
 17 19  1  0
 17 16  1  0
 18 17  2  0
M  END
$$$$
