KAD.pdb
     RDKit          3D

 23 22  0  0  1  0  0  0  0  0999 V2000
   29.2071  -18.7895  -17.6797 N   0  0  0  0  0  0  0  0  0  0  0  0
   27.9174  -18.7950  -18.3380 C   0  0  1  0  0  0  0  0  0  0  0  0
   27.2044  -20.1083  -18.1946 C   0  0  0  0  0  0  0  0  0  0  0  0
   28.0265  -21.2259  -17.6767 C   0  0  0  0  0  0  0  0  0  0  0  0
   27.4543  -22.5893  -17.7612 C   0  0  0  0  0  0  0  0  0  0  0  0
   28.3781  -23.6736  -17.2742 C   0  0  0  0  0  0  0  0  0  0  0  0
   27.7633  -24.9828  -17.3899 N   0  0  0  0  0  0  0  0  0  0  0  0
   27.0627  -17.6478  -17.9445 C   0  0  0  0  0  0  0  0  0  0  0  0
   25.9682  -17.4763  -18.5503 O   0  0  0  0  0  0  0  0  0  0  0  0
   26.7889  -15.0121  -15.2594 C   0  0  0  0  0  0  0  0  0  0  0  0
   26.5469  -15.5537  -16.6454 C   0  0  2  0  0  0  0  0  0  0  0  0
   27.3710  -16.7108  -16.9302 N   0  0  0  0  0  0  0  0  0  0  0  0
   26.7517  -14.4775  -17.6534 C   0  0  0  0  0  0  0  0  0  0  0  0
   27.8959  -14.3163  -18.1502 O   0  0  0  0  0  0  0  0  0  0  0  0
   25.7244  -13.6176  -18.0887 N   0  0  0  0  0  0  0  0  0  0  0  0
   25.7334  -12.9205  -19.3816 C   0  0  1  0  0  0  0  0  0  0  0  0
   26.4676  -13.8867  -20.3191 C   0  0  0  0  0  0  0  0  0  0  0  0
   27.0589  -13.2099  -21.4872 C   0  0  0  0  0  0  0  0  0  0  0  0
   27.3376  -11.9862  -21.4438 O   0  0  0  0  0  0  0  0  0  0  0  0
   24.3242  -12.8152  -19.8246 C   0  0  0  0  0  0  0  0  0  0  0  0
   23.7920  -11.5987  -20.1633 O   0  0  0  0  0  0  0  0  0  0  0  0
   27.3132  -13.9273  -22.6528 O   0  0  0  0  0  0  0  0  0  0  0  0
   23.5811  -13.8214  -19.9030 O   0  0  0  0  0  0  0  0  0  0  0  0
  2  8  1  0
  2  1  1  1
  3  2  1  0
  4  3  1  0
  5  4  1  0
  6  5  1  0
  7  6  1  0
  8  9  2  0
 11 10  1  1
 12 11  1  0
 12  8  1  0
 13 11  1  0
 13 15  1  0
 14 13  2  0
 16 15  1  0
 16 17  1  6
 17 18  1  0
 18 22  1  0
 19 18  2  0
 20 16  1  0
 21 20  1  0
 23 20  2  0
M  END
$$$$
