KAD.pdb
     RDKit          3D

 23 22  0  0  1  0  0  0  0  0999 V2000
   12.3937  -10.6437  -10.5389 N   0  0  0  0  0  0  0  0  0  0  0  0
   13.8401  -10.6227  -10.4744 C   0  0  1  0  0  0  0  0  0  0  0  0
   14.4757  -11.4528  -11.5518 C   0  0  0  0  0  0  0  0  0  0  0  0
   13.7764  -12.7169  -11.8776 C   0  0  0  0  0  0  0  0  0  0  0  0
   14.2078  -13.9389  -11.1606 C   0  0  0  0  0  0  0  0  0  0  0  0
   13.5354  -15.1990  -11.6363 C   0  0  0  0  0  0  0  0  0  0  0  0
   14.0630  -16.3678  -10.9576 N   0  0  0  0  0  0  0  0  0  0  0  0
   14.3966   -9.2482  -10.4248 C   0  0  0  0  0  0  0  0  0  0  0  0
   14.2280   -8.4936  -11.4229 O   0  0  0  0  0  0  0  0  0  0  0  0
   15.9343   -6.8408   -7.9594 C   0  0  0  0  0  0  0  0  0  0  0  0
   15.6649   -7.3574   -9.3499 C   0  0  2  0  0  0  0  0  0  0  0  0
   15.1133   -8.6971   -9.3365 N   0  0  0  0  0  0  0  0  0  0  0  0
   16.9078   -7.2881  -10.1664 C   0  0  0  0  0  0  0  0  0  0  0  0
   17.8014   -8.1561   -9.9925 O   0  0  0  0  0  0  0  0  0  0  0  0
   17.1443   -6.2933  -11.1352 N   0  0  0  0  0  0  0  0  0  0  0  0
   18.3163   -6.2749  -12.0204 C   0  0  1  0  0  0  0  0  0  0  0  0
   18.2047   -7.5841  -12.8111 C   0  0  0  0  0  0  0  0  0  0  0  0
   19.2010   -7.6844  -13.8927 C   0  0  0  0  0  0  0  0  0  0  0  0
   20.1680   -6.8850  -13.9473 O   0  0  0  0  0  0  0  0  0  0  0  0
   18.1317   -5.1427  -12.9570 C   0  0  0  0  0  0  0  0  0  0  0  0
   19.2114   -4.4222  -13.3963 O   0  0  0  0  0  0  0  0  0  0  0  0
   19.0750   -8.6714  -14.8662 O   0  0  0  0  0  0  0  0  0  0  0  0
   16.9973   -4.8098  -13.3729 O   0  0  0  0  0  0  0  0  0  0  0  0
  2  8  1  0
  2  1  1  6
  3  2  1  0
  4  3  1  0
  5  4  1  0
  6  5  1  0
  7  6  1  0
  8  9  2  0
 11 10  1  1
 12 11  1  0
 12  8  1  0
 13 11  1  0
 13 15  1  0
 14 13  2  0
 16 15  1  0
 16 17  1  6
 17 18  1  0
 18 22  1  0
 19 18  2  0
 20 16  1  0
 21 20  1  0
 23 20  2  0
M  END
$$$$
