KAD.pdb
     RDKit          3D

 23 22  0  0  1  0  0  0  0  0999 V2000
   18.3874  -13.6223  -18.3293 N   0  0  0  0  0  0  0  0  0  0  0  0
   17.8556  -12.7565  -17.2976 C   0  0  1  0  0  0  0  0  0  0  0  0
   18.0161  -13.3359  -15.9219 C   0  0  0  0  0  0  0  0  0  0  0  0
   17.3112  -14.6164  -15.6841 C   0  0  0  0  0  0  0  0  0  0  0  0
   17.3521  -15.1725  -14.3121 C   0  0  0  0  0  0  0  0  0  0  0  0
   16.6188  -16.4781  -14.1571 C   0  0  0  0  0  0  0  0  0  0  0  0
   16.8069  -17.0354  -12.8308 N   0  0  0  0  0  0  0  0  0  0  0  0
   18.3726  -11.3686  -17.3845 C   0  0  0  0  0  0  0  0  0  0  0  0
   19.6148  -11.1965  -17.5315 O   0  0  0  0  0  0  0  0  0  0  0  0
   17.1434   -7.8752  -17.9729 C   0  0  0  0  0  0  0  0  0  0  0  0
   18.1354   -8.8622  -17.4119 C   0  0  2  0  0  0  0  0  0  0  0  0
   17.5815  -10.1975  -17.3164 N   0  0  0  0  0  0  0  0  0  0  0  0
   18.6361   -8.3845  -16.0937 C   0  0  0  0  0  0  0  0  0  0  0  0
   18.1127   -8.8349  -15.0424 O   0  0  0  0  0  0  0  0  0  0  0  0
   19.6758   -7.4445  -15.9539 N   0  0  0  0  0  0  0  0  0  0  0  0
   20.1779   -6.9659  -14.6592 C   0  0  1  0  0  0  0  0  0  0  0  0
   21.4867   -6.2484  -15.0109 C   0  0  0  0  0  0  0  0  0  0  0  0
   22.0993   -5.5770  -13.8506 C   0  0  0  0  0  0  0  0  0  0  0  0
   22.2896   -6.2014  -12.7777 O   0  0  0  0  0  0  0  0  0  0  0  0
   19.2086   -5.9608  -14.1657 C   0  0  0  0  0  0  0  0  0  0  0  0
   19.0107   -5.7892  -12.8206 O   0  0  0  0  0  0  0  0  0  0  0  0
   22.4726   -4.2388  -13.9374 O   0  0  0  0  0  0  0  0  0  0  0  0
   18.5455   -5.2436  -14.9510 O   0  0  0  0  0  0  0  0  0  0  0  0
  2  8  1  0
  2  1  1  6
  3  2  1  0
  4  3  1  0
  5  4  1  0
  6  5  1  0
  7  6  1  0
  8  9  2  0
 11 10  1  1
 12 11  1  0
 12  8  1  0
 13 11  1  0
 13 15  1  0
 14 13  2  0
 16 15  1  0
 16 17  1  6
 17 18  1  0
 18 22  1  0
 19 18  2  0
 20 16  1  0
 21 20  1  0
 23 20  2  0
M  END
$$$$
