KAD.pdb
     RDKit          3D

 23 22  0  0  1  0  0  0  0  0999 V2000
   17.9817  -12.3216  -15.4909 N   0  0  0  0  0  0  0  0  0  0  0  0
   18.9476  -11.6054  -16.2977 C   0  0  1  0  0  0  0  0  0  0  0  0
   18.3150  -10.9058  -17.4658 C   0  0  0  0  0  0  0  0  0  0  0  0
   16.9487  -11.3579  -17.8150 C   0  0  0  0  0  0  0  0  0  0  0  0
   16.7760  -12.0785  -19.0973 C   0  0  0  0  0  0  0  0  0  0  0  0
   15.3418  -12.3740  -19.4467 C   0  0  0  0  0  0  0  0  0  0  0  0
   15.2257  -12.9168  -20.7872 N   0  0  0  0  0  0  0  0  0  0  0  0
   19.8074  -10.6971  -15.4996 C   0  0  0  0  0  0  0  0  0  0  0  0
   19.2528   -9.8714  -14.7218 O   0  0  0  0  0  0  0  0  0  0  0  0
   23.4868  -10.0223  -14.8542 C   0  0  0  0  0  0  0  0  0  0  0  0
   22.0142   -9.7030  -14.8062 C   0  0  2  0  0  0  0  0  0  0  0  0
   21.2217  -10.6739  -15.5330 N   0  0  0  0  0  0  0  0  0  0  0  0
   21.7782   -8.3214  -15.3083 C   0  0  0  0  0  0  0  0  0  0  0  0
   21.4774   -8.1550  -16.5182 O   0  0  0  0  0  0  0  0  0  0  0  0
   21.8737   -7.1746  -14.4960 N   0  0  0  0  0  0  0  0  0  0  0  0
   21.7312   -5.8017  -14.9982 C   0  0  1  0  0  0  0  0  0  0  0  0
   20.2235   -5.6464  -15.2313 C   0  0  0  0  0  0  0  0  0  0  0  0
   19.8432   -4.2743  -15.6123 C   0  0  0  0  0  0  0  0  0  0  0  0
   20.3035   -3.7499  -16.6565 O   0  0  0  0  0  0  0  0  0  0  0  0
   22.1326   -4.8960  -13.8974 C   0  0  0  0  0  0  0  0  0  0  0  0
   22.2372   -5.3664  -12.6146 O   0  0  0  0  0  0  0  0  0  0  0  0
   18.9665   -3.5470  -14.8122 O   0  0  0  0  0  0  0  0  0  0  0  0
   22.3860   -3.6853  -14.0993 O   0  0  0  0  0  0  0  0  0  0  0  0
  2  8  1  0
  2  1  1  1
  3  2  1  0
  4  3  1  0
  5  4  1  0
  6  5  1  0
  7  6  1  0
  8  9  2  0
 11 10  1  6
 12 11  1  0
 12  8  1  0
 13 11  1  0
 13 15  1  0
 14 13  2  0
 16 15  1  0
 16 17  1  1
 17 18  1  0
 18 22  1  0
 19 18  2  0
 20 16  1  0
 21 20  1  0
 23 20  2  0
M  END
$$$$
