KAD.pdb
     RDKit          3D

 23 22  0  0  1  0  0  0  0  0999 V2000
   27.1332  -18.9883  -16.3827 N   0  0  0  0  0  0  0  0  0  0  0  0
   25.7529  -19.3929  -16.2162 C   0  0  1  0  0  0  0  0  0  0  0  0
   25.6232  -20.7422  -15.5708 C   0  0  0  0  0  0  0  0  0  0  0  0
   26.2191  -21.8687  -16.3251 C   0  0  0  0  0  0  0  0  0  0  0  0
   27.6527  -22.1608  -16.0948 C   0  0  0  0  0  0  0  0  0  0  0  0
   28.1886  -23.2963  -16.9253 C   0  0  0  0  0  0  0  0  0  0  0  0
   29.6327  -23.3909  -16.8216 N   0  0  0  0  0  0  0  0  0  0  0  0
   24.9273  -18.3650  -15.5357 C   0  0  0  0  0  0  0  0  0  0  0  0
   24.1287  -18.7359  -14.6308 O   0  0  0  0  0  0  0  0  0  0  0  0
   24.7793  -14.6191  -15.1695 C   0  0  0  0  0  0  0  0  0  0  0  0
   24.1917  -16.0035  -15.0652 C   0  0  2  0  0  0  0  0  0  0  0  0
   24.9563  -16.9785  -15.8161 N   0  0  0  0  0  0  0  0  0  0  0  0
   22.7658  -15.9828  -15.4927 C   0  0  0  0  0  0  0  0  0  0  0  0
   22.4914  -16.1402  -16.7101 O   0  0  0  0  0  0  0  0  0  0  0  0
   21.6918  -15.7945  -14.6009 N   0  0  0  0  0  0  0  0  0  0  0  0
   20.2786  -15.8674  -14.9945 C   0  0  1  0  0  0  0  0  0  0  0  0
   19.5361  -16.0923  -13.6717 C   0  0  0  0  0  0  0  0  0  0  0  0
   18.2290  -16.7481  -13.8552 C   0  0  0  0  0  0  0  0  0  0  0  0
   17.7949  -16.9974  -15.0069 O   0  0  0  0  0  0  0  0  0  0  0  0
   19.9082  -14.5336  -15.5208 C   0  0  0  0  0  0  0  0  0  0  0  0
   18.9905  -14.4167  -16.5318 O   0  0  0  0  0  0  0  0  0  0  0  0
   17.4631  -17.0969  -12.7463 O   0  0  0  0  0  0  0  0  0  0  0  0
   20.4151  -13.4816  -15.0659 O   0  0  0  0  0  0  0  0  0  0  0  0
  2  8  1  0
  2  1  1  1
  3  2  1  0
  4  3  1  0
  5  4  1  0
  6  5  1  0
  7  6  1  0
  8  9  2  0
 11 10  1  6
 12 11  1  0
 12  8  1  0
 13 11  1  0
 13 15  1  0
 14 13  2  0
 16 15  1  0
 16 17  1  1
 17 18  1  0
 18 22  1  0
 19 18  2  0
 20 16  1  0
 21 20  1  0
 23 20  2  0
M  END
$$$$
