KAD.pdb
     RDKit          3D

 23 22  0  0  1  0  0  0  0  0999 V2000
   15.5054   -9.1948  -12.6730 N   0  0  0  0  0  0  0  0  0  0  0  0
   16.9409   -9.0072  -12.6968 C   0  0  1  0  0  0  0  0  0  0  0  0
   17.5555   -9.4376  -13.9972 C   0  0  0  0  0  0  0  0  0  0  0  0
   17.2230  -10.8129  -14.4342 C   0  0  0  0  0  0  0  0  0  0  0  0
   17.7293  -11.2494  -15.7558 C   0  0  0  0  0  0  0  0  0  0  0  0
   17.3923  -12.6753  -16.1015 C   0  0  0  0  0  0  0  0  0  0  0  0
   18.1664  -13.6091  -15.3052 N   0  0  0  0  0  0  0  0  0  0  0  0
   17.3510   -7.6346  -12.3108 C   0  0  0  0  0  0  0  0  0  0  0  0
   16.9425   -6.6650  -13.0088 O   0  0  0  0  0  0  0  0  0  0  0  0
   19.3291   -5.8584   -9.6015 C   0  0  0  0  0  0  0  0  0  0  0  0
   18.6445   -5.9648  -10.9405 C   0  0  2  0  0  0  0  0  0  0  0  0
   18.1752   -7.3091  -11.2078 N   0  0  0  0  0  0  0  0  0  0  0  0
   19.5545   -5.4817  -12.0152 C   0  0  0  0  0  0  0  0  0  0  0  0
   20.3158   -6.3044  -12.5858 O   0  0  0  0  0  0  0  0  0  0  0  0
   19.6132   -4.1385  -12.4354 N   0  0  0  0  0  0  0  0  0  0  0  0
   20.4870   -3.6553  -13.5127 C   0  0  1  0  0  0  0  0  0  0  0  0
   19.9841   -4.3949  -14.7584 C   0  0  0  0  0  0  0  0  0  0  0  0
   20.6485   -3.9468  -15.9953 C   0  0  0  0  0  0  0  0  0  0  0  0
   20.2040   -4.2875  -17.1193 O   0  0  0  0  0  0  0  0  0  0  0  0
   20.2080   -2.2104  -13.6790 C   0  0  0  0  0  0  0  0  0  0  0  0
   21.1908   -1.3589  -14.1113 O   0  0  0  0  0  0  0  0  0  0  0  0
   21.7797   -3.1386  -15.9247 O   0  0  0  0  0  0  0  0  0  0  0  0
   19.0793   -1.7246  -13.4328 O   0  0  0  0  0  0  0  0  0  0  0  0
  2  8  1  0
  2  1  1  6
  3  2  1  0
  4  3  1  0
  5  4  1  0
  6  5  1  0
  7  6  1  0
  8  9  2  0
 11 10  1  1
 12 11  1  0
 12  8  1  0
 13 11  1  0
 13 15  1  0
 14 13  2  0
 16 15  1  0
 16 17  1  6
 17 18  1  0
 18 22  1  0
 19 18  2  0
 20 16  1  0
 21 20  1  0
 23 20  2  0
M  END
$$$$
