KAD.pdb
     RDKit          3D

 23 22  0  0  1  0  0  0  0  0999 V2000
   18.5707  -11.2824  -17.6487 N   0  0  0  0  0  0  0  0  0  0  0  0
   18.0096  -11.0026  -16.3435 C   0  0  1  0  0  0  0  0  0  0  0  0
   17.2348  -12.1633  -15.7900 C   0  0  0  0  0  0  0  0  0  0  0  0
   17.4394  -13.4549  -16.4851 C   0  0  0  0  0  0  0  0  0  0  0  0
   16.7996  -14.6543  -15.8972 C   0  0  0  0  0  0  0  0  0  0  0  0
   17.1513  -15.9413  -16.5944 C   0  0  0  0  0  0  0  0  0  0  0  0
   17.1940  -17.0524  -15.6623 N   0  0  0  0  0  0  0  0  0  0  0  0
   19.0145  -10.4897  -15.3801 C   0  0  0  0  0  0  0  0  0  0  0  0
   18.6238  -10.1376  -14.2322 O   0  0  0  0  0  0  0  0  0  0  0  0
   22.7445  -10.2786  -14.9241 C   0  0  0  0  0  0  0  0  0  0  0  0
   21.3340   -9.8064  -14.6784 C   0  0  2  0  0  0  0  0  0  0  0  0
   20.3993  -10.3578  -15.6384 N   0  0  0  0  0  0  0  0  0  0  0  0
   21.2916   -8.3183  -14.6697 C   0  0  0  0  0  0  0  0  0  0  0  0
   22.0099   -7.6921  -13.8487 O   0  0  0  0  0  0  0  0  0  0  0  0
   20.4825   -7.5608  -15.5391 N   0  0  0  0  0  0  0  0  0  0  0  0
   20.3679   -6.0975  -15.4837 C   0  0  1  0  0  0  0  0  0  0  0  0
   20.6404   -5.6490  -16.9246 C   0  0  0  0  0  0  0  0  0  0  0  0
   20.4715   -4.1969  -17.1121 C   0  0  0  0  0  0  0  0  0  0  0  0
   20.2472   -3.4473  -16.1298 O   0  0  0  0  0  0  0  0  0  0  0  0
   18.9578   -5.7877  -15.1535 C   0  0  0  0  0  0  0  0  0  0  0  0
   18.6581   -4.8539  -14.1964 O   0  0  0  0  0  0  0  0  0  0  0  0
   20.5597   -3.6444  -18.3867 O   0  0  0  0  0  0  0  0  0  0  0  0
   18.0045   -6.3616  -15.7301 O   0  0  0  0  0  0  0  0  0  0  0  0
  2  8  1  0
  2  1  1  6
  3  2  1  0
  4  3  1  0
  5  4  1  0
  6  5  1  0
  7  6  1  0
  8  9  2  0
 11 10  1  6
 12 11  1  0
 12  8  1  0
 13 11  1  0
 13 15  1  0
 14 13  2  0
 16 15  1  0
 16 17  1  6
 17 18  1  0
 18 22  1  0
 19 18  2  0
 20 16  1  0
 21 20  1  0
 23 20  2  0
M  END
$$$$
