KAD.pdb
     RDKit          3D

 23 22  0  0  1  0  0  0  0  0999 V2000
   19.1984  -14.3779  -15.9855 N   0  0  0  0  0  0  0  0  0  0  0  0
   19.3288  -13.1506  -16.7428 C   0  0  1  0  0  0  0  0  0  0  0  0
   18.0052  -12.6253  -17.2185 C   0  0  0  0  0  0  0  0  0  0  0  0
   17.0977  -13.6322  -17.8149 C   0  0  0  0  0  0  0  0  0  0  0  0
   15.7563  -13.1727  -18.2423 C   0  0  0  0  0  0  0  0  0  0  0  0
   14.8838  -14.2638  -18.8031 C   0  0  0  0  0  0  0  0  0  0  0  0
   13.5773  -13.7557  -19.1772 N   0  0  0  0  0  0  0  0  0  0  0  0
   20.1201  -12.1151  -16.0337 C   0  0  0  0  0  0  0  0  0  0  0  0
   19.6586  -11.6333  -14.9618 O   0  0  0  0  0  0  0  0  0  0  0  0
   23.5374  -10.5113  -16.1202 C   0  0  0  0  0  0  0  0  0  0  0  0
   22.0715  -10.5461  -15.7699 C   0  0  2  0  0  0  0  0  0  0  0  0
   21.3709  -11.6099  -16.4603 N   0  0  0  0  0  0  0  0  0  0  0  0
   21.4531   -9.2196  -16.0429 C   0  0  0  0  0  0  0  0  0  0  0  0
   20.8157   -9.0524  -17.1143 O   0  0  0  0  0  0  0  0  0  0  0  0
   21.5419   -8.1264  -15.1591 N   0  0  0  0  0  0  0  0  0  0  0  0
   21.0387   -6.7814  -15.4677 C   0  0  1  0  0  0  0  0  0  0  0  0
   21.1293   -6.0355  -14.1309 C   0  0  0  0  0  0  0  0  0  0  0  0
   20.8451   -4.5951  -14.2606 C   0  0  0  0  0  0  0  0  0  0  0  0
   19.7899   -4.1990  -14.8144 O   0  0  0  0  0  0  0  0  0  0  0  0
   21.9987   -6.1684  -16.4142 C   0  0  0  0  0  0  0  0  0  0  0  0
   23.3190   -6.5351  -16.3987 O   0  0  0  0  0  0  0  0  0  0  0  0
   21.7501   -3.6595  -13.7673 O   0  0  0  0  0  0  0  0  0  0  0  0
   21.6408   -5.3051  -17.2493 O   0  0  0  0  0  0  0  0  0  0  0  0
  2  8  1  0
  2  1  1  1
  3  2  1  0
  4  3  1  0
  5  4  1  0
  6  5  1  0
  7  6  1  0
  8  9  2  0
 11 10  1  6
 12 11  1  0
 12  8  1  0
 13 11  1  0
 13 15  1  0
 14 13  2  0
 16 15  1  0
 16 17  1  1
 17 18  1  0
 18 22  1  0
 19 18  2  0
 20 16  1  0
 21 20  1  0
 23 20  2  0
M  END
$$$$
