KAD.pdb
     RDKit          3D

 23 22  0  0  1  0  0  0  0  0999 V2000
   21.2930  -20.4096  -11.1451 N   0  0  0  0  0  0  0  0  0  0  0  0
   21.9596  -21.1139  -12.2205 C   0  0  1  0  0  0  0  0  0  0  0  0
   21.1742  -21.0860  -13.4997 C   0  0  0  0  0  0  0  0  0  0  0  0
   19.8788  -21.8031  -13.4672 C   0  0  0  0  0  0  0  0  0  0  0  0
   19.9197  -23.2811  -13.3821 C   0  0  0  0  0  0  0  0  0  0  0  0
   19.5176  -23.9802  -14.6532 C   0  0  0  0  0  0  0  0  0  0  0  0
   19.4384  -25.4165  -14.4638 N   0  0  0  0  0  0  0  0  0  0  0  0
   23.3635  -20.6755  -12.4157 C   0  0  0  0  0  0  0  0  0  0  0  0
   23.5748  -19.5475  -12.9422 O   0  0  0  0  0  0  0  0  0  0  0  0
   26.9095  -21.8063  -11.7266 C   0  0  0  0  0  0  0  0  0  0  0  0
   25.8419  -21.1048  -12.5272 C   0  0  2  0  0  0  0  0  0  0  0  0
   24.5093  -21.4239  -12.0567 N   0  0  0  0  0  0  0  0  0  0  0  0
   26.0002  -21.4236  -13.9728 C   0  0  0  0  0  0  0  0  0  0  0  0
   25.3598  -22.3914  -14.4579 O   0  0  0  0  0  0  0  0  0  0  0  0
   26.8370  -20.6945  -14.8402 N   0  0  0  0  0  0  0  0  0  0  0  0
   26.8441  -20.8579  -16.2999 C   0  0  1  0  0  0  0  0  0  0  0  0
   25.6293  -20.0485  -16.7698 C   0  0  0  0  0  0  0  0  0  0  0  0
   25.4814  -20.0404  -18.2362 C   0  0  0  0  0  0  0  0  0  0  0  0
   26.2588  -20.7094  -18.9609 O   0  0  0  0  0  0  0  0  0  0  0  0
   28.0713  -20.1982  -16.8017 C   0  0  0  0  0  0  0  0  0  0  0  0
   28.8482  -20.8079  -17.7518 O   0  0  0  0  0  0  0  0  0  0  0  0
   24.4734  -19.2862  -18.8304 O   0  0  0  0  0  0  0  0  0  0  0  0
   28.4359  -19.0759  -16.3797 O   0  0  0  0  0  0  0  0  0  0  0  0
  2  8  1  0
  2  1  1  1
  3  2  1  0
  4  3  1  0
  5  4  1  0
  6  5  1  0
  7  6  1  0
  8  9  2  0
 11 10  1  1
 12 11  1  0
 12  8  1  0
 13 11  1  0
 13 15  1  0
 14 13  2  0
 16 15  1  0
 16 17  1  6
 17 18  1  0
 18 22  1  0
 19 18  2  0
 20 16  1  0
 21 20  1  0
 23 20  2  0
M  END
$$$$
