KAD.pdb
     RDKit          3D

 23 22  0  0  1  0  0  0  0  0999 V2000
   13.9274   -9.1112   -9.5192 N   0  0  0  0  0  0  0  0  0  0  0  0
   14.3145   -7.7282   -9.7037 C   0  0  1  0  0  0  0  0  0  0  0  0
   15.0172   -7.1628   -8.5035 C   0  0  0  0  0  0  0  0  0  0  0  0
   14.1355   -6.5880   -7.4616 C   0  0  0  0  0  0  0  0  0  0  0  0
   13.9813   -5.1152   -7.4357 C   0  0  0  0  0  0  0  0  0  0  0  0
   13.0902   -4.6110   -6.3321 C   0  0  0  0  0  0  0  0  0  0  0  0
   13.0285   -3.1614   -6.3236 N   0  0  0  0  0  0  0  0  0  0  0  0
   15.0771   -7.5035  -10.9564 C   0  0  0  0  0  0  0  0  0  0  0  0
   15.8592   -8.4104  -11.3565 O   0  0  0  0  0  0  0  0  0  0  0  0
   15.3570   -4.9318  -13.7353 C   0  0  0  0  0  0  0  0  0  0  0  0
   15.7571   -6.1770  -12.9855 C   0  0  2  0  0  0  0  0  0  0  0  0
   15.0039   -6.3403  -11.7586 N   0  0  0  0  0  0  0  0  0  0  0  0
   17.2232   -6.1646  -12.7272 C   0  0  0  0  0  0  0  0  0  0  0  0
   17.6501   -5.6601  -11.6570 O   0  0  0  0  0  0  0  0  0  0  0  0
   18.1727   -6.6920  -13.6241 N   0  0  0  0  0  0  0  0  0  0  0  0
   19.6250   -6.6103  -13.4202 C   0  0  1  0  0  0  0  0  0  0  0  0
   20.1104   -8.0502  -13.6271 C   0  0  0  0  0  0  0  0  0  0  0  0
   21.5769   -8.1750  -13.5485 C   0  0  0  0  0  0  0  0  0  0  0  0
   22.2158   -8.7818  -14.4433 O   0  0  0  0  0  0  0  0  0  0  0  0
   20.1672   -5.7697  -14.5123 C   0  0  0  0  0  0  0  0  0  0  0  0
   21.3351   -5.0742  -14.3384 O   0  0  0  0  0  0  0  0  0  0  0  0
   22.2667   -7.6180  -12.4752 O   0  0  0  0  0  0  0  0  0  0  0  0
   19.5838   -5.6672  -15.6167 O   0  0  0  0  0  0  0  0  0  0  0  0
  2  8  1  0
  2  1  1  1
  3  2  1  0
  4  3  1  0
  5  4  1  0
  6  5  1  0
  7  6  1  0
  8  9  2  0
 11 10  1  1
 12 11  1  0
 12  8  1  0
 13 11  1  0
 13 15  1  0
 14 13  2  0
 16 15  1  0
 16 17  1  6
 17 18  1  0
 18 22  1  0
 19 18  2  0
 20 16  1  0
 21 20  1  0
 23 20  2  0
M  END
$$$$
