KAD.pdb
     RDKit          3D

 23 22  0  0  1  0  0  0  0  0999 V2000
   19.1908  -15.7191  -17.5518 N   0  0  0  0  0  0  0  0  0  0  0  0
   18.5346  -14.4869  -17.9360 C   0  0  1  0  0  0  0  0  0  0  0  0
   17.2645  -14.2494  -17.1715 C   0  0  0  0  0  0  0  0  0  0  0  0
   16.2687  -15.3436  -17.2357 C   0  0  0  0  0  0  0  0  0  0  0  0
   14.9778  -15.1322  -16.5411 C   0  0  0  0  0  0  0  0  0  0  0  0
   14.0060  -16.2720  -16.6920 C   0  0  0  0  0  0  0  0  0  0  0  0
   12.8536  -16.1017  -15.8271 N   0  0  0  0  0  0  0  0  0  0  0  0
   19.4405  -13.3126  -17.8955 C   0  0  0  0  0  0  0  0  0  0  0  0
   20.2039  -13.1746  -16.8993 O   0  0  0  0  0  0  0  0  0  0  0  0
   20.6131  -10.5005  -20.1380 C   0  0  0  0  0  0  0  0  0  0  0  0
   20.4298  -11.1843  -18.8070 C   0  0  2  0  0  0  0  0  0  0  0  0
   19.5269  -12.3140  -18.8941 N   0  0  0  0  0  0  0  0  0  0  0  0
   19.9728  -10.1988  -17.7891 C   0  0  0  0  0  0  0  0  0  0  0  0
   18.7390  -10.0111  -17.6322 O   0  0  0  0  0  0  0  0  0  0  0  0
   20.8540   -9.4542  -16.9808 N   0  0  0  0  0  0  0  0  0  0  0  0
   20.4145   -8.5140  -15.9414 C   0  0  1  0  0  0  0  0  0  0  0  0
   21.5348   -8.5667  -14.8955 C   0  0  0  0  0  0  0  0  0  0  0  0
   21.1161   -8.0415  -13.5836 C   0  0  0  0  0  0  0  0  0  0  0  0
   19.9683   -7.5570  -13.4256 O   0  0  0  0  0  0  0  0  0  0  0  0
   20.4067   -7.1660  -16.5546 C   0  0  0  0  0  0  0  0  0  0  0  0
   19.5784   -6.1877  -16.0700 O   0  0  0  0  0  0  0  0  0  0  0  0
   21.9958   -8.0792  -12.5054 O   0  0  0  0  0  0  0  0  0  0  0  0
   21.1468   -6.8788  -17.5244 O   0  0  0  0  0  0  0  0  0  0  0  0
  2  8  1  0
  2  1  1  1
  3  2  1  0
  4  3  1  0
  5  4  1  0
  6  5  1  0
  7  6  1  0
  8  9  2  0
 11 10  1  6
 12 11  1  0
 12  8  1  0
 13 11  1  0
 13 15  1  0
 14 13  2  0
 16 15  1  0
 16 17  1  1
 17 18  1  0
 18 22  1  0
 19 18  2  0
 20 16  1  0
 21 20  1  0
 23 20  2  0
M  END
$$$$
