KAD.pdb
     RDKit          3D

 23 22  0  0  1  0  0  0  0  0999 V2000
   16.9753  -13.0991  -17.3480 N   0  0  0  0  0  0  0  0  0  0  0  0
   17.8582  -12.4501  -16.4014 C   0  0  1  0  0  0  0  0  0  0  0  0
   19.1839  -13.1446  -16.2824 C   0  0  0  0  0  0  0  0  0  0  0  0
   19.1194  -14.5900  -15.9664 C   0  0  0  0  0  0  0  0  0  0  0  0
   20.3806  -15.2583  -15.5713 C   0  0  0  0  0  0  0  0  0  0  0  0
   20.2517  -16.7453  -15.3754 C   0  0  0  0  0  0  0  0  0  0  0  0
   21.4721  -17.3148  -14.8358 N   0  0  0  0  0  0  0  0  0  0  0  0
   18.0084  -10.9959  -16.6543 C   0  0  0  0  0  0  0  0  0  0  0  0
   18.1474  -10.6029  -17.8461 O   0  0  0  0  0  0  0  0  0  0  0  0
   16.9643   -7.7734  -15.5695 C   0  0  0  0  0  0  0  0  0  0  0  0
   18.1760   -8.5825  -15.9568 C   0  0  2  0  0  0  0  0  0  0  0  0
   18.0095   -9.9905  -15.6588 N   0  0  0  0  0  0  0  0  0  0  0  0
   19.3894   -8.0259  -15.2979 C   0  0  0  0  0  0  0  0  0  0  0  0
   19.7223   -8.4601  -14.1654 O   0  0  0  0  0  0  0  0  0  0  0  0
   20.1969   -7.0275  -15.8771 N   0  0  0  0  0  0  0  0  0  0  0  0
   21.3921   -6.4662  -15.2338 C   0  0  1  0  0  0  0  0  0  0  0  0
   22.0136   -5.5766  -16.3173 C   0  0  0  0  0  0  0  0  0  0  0  0
   23.1828   -4.8207  -15.8339 C   0  0  0  0  0  0  0  0  0  0  0  0
   23.9916   -5.3415  -15.0266 O   0  0  0  0  0  0  0  0  0  0  0  0
   20.9207   -5.6010  -14.1282 C   0  0  0  0  0  0  0  0  0  0  0  0
   21.6872   -5.4303  -13.0051 O   0  0  0  0  0  0  0  0  0  0  0  0
   23.3988   -3.5170  -16.2716 O   0  0  0  0  0  0  0  0  0  0  0  0
   19.8198   -5.0044  -14.1818 O   0  0  0  0  0  0  0  0  0  0  0  0
  2  8  1  0
  2  1  1  6
  3  2  1  0
  4  3  1  0
  5  4  1  0
  6  5  1  0
  7  6  1  0
  8  9  2  0
 11 10  1  1
 12 11  1  0
 12  8  1  0
 13 11  1  0
 13 15  1  0
 14 13  2  0
 16 15  1  0
 16 17  1  6
 17 18  1  0
 18 22  1  0
 19 18  2  0
 20 16  1  0
 21 20  1  0
 23 20  2  0
M  END
$$$$
