KAD.pdb
     RDKit          3D

 23 22  0  0  1  0  0  0  0  0999 V2000
   20.8407  -15.6862  -17.1032 N   0  0  0  0  0  0  0  0  0  0  0  0
   19.9071  -14.6360  -17.4526 C   0  0  1  0  0  0  0  0  0  0  0  0
   18.7416  -14.5655  -16.5090 C   0  0  0  0  0  0  0  0  0  0  0  0
   17.9561  -15.8135  -16.3729 C   0  0  0  0  0  0  0  0  0  0  0  0
   16.8124  -15.8000  -15.4322 C   0  0  0  0  0  0  0  0  0  0  0  0
   16.0362  -17.0893  -15.3914 C   0  0  0  0  0  0  0  0  0  0  0  0
   15.0620  -17.0857  -14.3162 N   0  0  0  0  0  0  0  0  0  0  0  0
   20.5620  -13.3170  -17.6333 C   0  0  0  0  0  0  0  0  0  0  0  0
   21.3154  -12.8877  -16.7155 O   0  0  0  0  0  0  0  0  0  0  0  0
   21.2466  -10.8036  -20.3495 C   0  0  0  0  0  0  0  0  0  0  0  0
   21.0989  -11.2118  -18.9058 C   0  0  2  0  0  0  0  0  0  0  0  0
   20.4146  -12.4812  -18.7653 N   0  0  0  0  0  0  0  0  0  0  0  0
   20.4113  -10.1347  -18.1419 C   0  0  0  0  0  0  0  0  0  0  0  0
   20.9129   -8.9814  -18.1273 O   0  0  0  0  0  0  0  0  0  0  0  0
   19.2155  -10.3353  -17.4249 N   0  0  0  0  0  0  0  0  0  0  0  0
   18.5138   -9.2743  -16.6905 C   0  0  1  0  0  0  0  0  0  0  0  0
   17.1026   -9.8376  -16.4830 C   0  0  0  0  0  0  0  0  0  0  0  0
   16.2456   -8.9482  -15.6788 C   0  0  0  0  0  0  0  0  0  0  0  0
   16.6410   -7.8013  -15.3541 O   0  0  0  0  0  0  0  0  0  0  0  0
   19.1720   -9.1565  -15.3691 C   0  0  0  0  0  0  0  0  0  0  0  0
   19.6277  -10.2732  -14.7185 O   0  0  0  0  0  0  0  0  0  0  0  0
   14.9852   -9.3768  -15.2717 O   0  0  0  0  0  0  0  0  0  0  0  0
   19.3317   -8.0468  -14.8090 O   0  0  0  0  0  0  0  0  0  0  0  0
  2  8  1  0
  2  1  1  1
  3  2  1  0
  4  3  1  0
  5  4  1  0
  6  5  1  0
  7  6  1  0
  8  9  2  0
 11 10  1  6
 12 11  1  0
 12  8  1  0
 13 11  1  0
 13 15  1  0
 14 13  2  0
 16 15  1  0
 16 17  1  1
 17 18  1  0
 18 22  1  0
 19 18  2  0
 20 16  1  0
 21 20  1  0
 23 20  2  0
M  END
$$$$
