EVM.pdb
     RDKit          3D

 25 24  0  0  1  0  0  0  0  0999 V2000
   15.2881  -13.2182  -16.9830 N   0  0  0  0  0  0  0  0  0  0  0  0
   15.8690  -12.5361  -15.8382 C   0  0  1  0  0  0  0  0  0  0  0  0
   16.4305  -13.5667  -14.9228 C   0  0  0  0  0  0  0  0  0  0  0  0
   17.1414  -14.6561  -15.6500 C   0  0  0  0  0  0  0  0  0  0  0  0
   17.7103  -15.6666  -14.7515 C   0  0  0  0  0  0  0  0  0  0  0  0
   18.8875  -15.5792  -14.3545 O   0  0  0  0  0  0  0  0  0  0  0  0
   16.9433  -11.6265  -16.3708 C   0  0  0  0  0  0  0  0  0  0  0  0
   17.5503  -11.9435  -17.4284 O   0  0  0  0  0  0  0  0  0  0  0  0
   16.9773  -16.7673  -14.2962 O   0  0  0  0  0  0  0  0  0  0  0  0
   18.4523   -7.0171  -16.2579 C   0  0  0  0  0  0  0  0  0  0  0  0
   17.4501   -8.1456  -16.2272 C   0  0  1  0  0  0  0  0  0  0  0  0
   16.3149   -7.9833  -17.1677 C   0  0  0  0  0  0  0  0  0  0  0  0
   18.1927   -9.4384  -16.3007 C   0  0  2  0  0  0  0  0  0  0  0  0
   17.2774  -10.4432  -15.7163 N   0  0  0  0  0  0  0  0  0  0  0  0
   19.4177   -9.3596  -15.4685 C   0  0  0  0  0  0  0  0  0  0  0  0
   19.3594   -9.2005  -14.2076 O   0  0  0  0  0  0  0  0  0  0  0  0
   27.1943  -10.9045  -15.2644 C   0  0  0  0  0  0  0  0  0  0  0  0
   25.7059  -10.6346  -16.2359 S   0  0  0  0  0  0  0  0  0  0  0  0
   24.3088  -10.0695  -15.2136 C   0  0  0  0  0  0  0  0  0  0  0  0
   23.0457   -9.9868  -15.9868 C   0  0  0  0  0  0  0  0  0  0  0  0
   21.9119   -9.4525  -15.1552 C   0  0  2  0  0  0  0  0  0  0  0  0
   20.7009   -9.4564  -16.0206 N   0  0  0  0  0  0  0  0  0  0  0  0
   22.2069   -8.0589  -14.7563 C   0  0  0  0  0  0  0  0  0  0  0  0
   22.0945   -7.0502  -15.7410 O   0  0  0  0  0  0  0  0  0  0  0  0
   22.5482   -7.7262  -13.6011 O   0  0  0  0  0  0  0  0  0  0  0  0
  2  1  1  6
  2  3  1  0
  3  4  1  0
  4  5  1  0
  5  9  1  0
  6  5  2  0
  7  8  2  0
  7  2  1  0
 11 10  1  6
 12 11  1  0
 13 14  1  1
 13 11  1  0
 14  7  1  0
 15 13  1  0
 16 15  2  0
 18 19  1  0
 18 17  1  0
 20 19  1  0
 21 20  1  6
 21 22  1  0
 22 15  1  0
 23 21  1  0
 23 24  1  0
 25 23  2  0
M  END
$$$$
