EVM.pdb
     RDKit          3D

 25 24  0  0  1  0  0  0  0  0999 V2000
   23.1722  -22.3467  -14.0030 N   0  0  0  0  0  0  0  0  0  0  0  0
   23.3895  -21.2203  -13.1101 C   0  0  1  0  0  0  0  0  0  0  0  0
   22.0953  -20.8991  -12.4487 C   0  0  0  0  0  0  0  0  0  0  0  0
   21.1117  -20.2782  -13.3803 C   0  0  0  0  0  0  0  0  0  0  0  0
   21.6393  -19.0898  -14.0597 C   0  0  0  0  0  0  0  0  0  0  0  0
   21.8387  -18.0315  -13.4344 O   0  0  0  0  0  0  0  0  0  0  0  0
   24.4290  -21.6499  -12.1102 C   0  0  0  0  0  0  0  0  0  0  0  0
   24.2311  -22.6872  -11.4231 O   0  0  0  0  0  0  0  0  0  0  0  0
   21.9438  -19.0763  -15.4246 O   0  0  0  0  0  0  0  0  0  0  0  0
   28.0028  -19.6882  -12.1804 C   0  0  0  0  0  0  0  0  0  0  0  0
   27.9455  -21.1270  -11.7274 C   0  0  1  0  0  0  0  0  0  0  0  0
   29.1787  -21.6092  -11.0594 C   0  0  0  0  0  0  0  0  0  0  0  0
   26.6653  -21.3387  -10.9894 C   0  0  2  0  0  0  0  0  0  0  0  0
   25.6032  -20.9222  -11.9315 N   0  0  0  0  0  0  0  0  0  0  0  0
   26.6244  -20.4590   -9.7963 C   0  0  0  0  0  0  0  0  0  0  0  0
   26.2597  -19.2427   -9.8755 O   0  0  0  0  0  0  0  0  0  0  0  0
   26.4110  -21.5022   -2.7665 C   0  0  0  0  0  0  0  0  0  0  0  0
   27.9687  -20.9456   -3.4705 S   0  0  0  0  0  0  0  0  0  0  0  0
   27.7279  -19.9533   -4.9783 C   0  0  0  0  0  0  0  0  0  0  0  0
   27.4429  -20.7966   -6.1649 C   0  0  0  0  0  0  0  0  0  0  0  0
   27.1513  -19.9680   -7.3860 C   0  0  2  0  0  0  0  0  0  0  0  0
   26.9819  -20.9153   -8.5216 N   0  0  0  0  0  0  0  0  0  0  0  0
   28.3043  -19.0859   -7.6703 C   0  0  0  0  0  0  0  0  0  0  0  0
   29.4369  -19.6572   -8.2953 O   0  0  0  0  0  0  0  0  0  0  0  0
   28.3311  -17.8685   -7.3897 O   0  0  0  0  0  0  0  0  0  0  0  0
  2  1  1  6
  2  3  1  0
  3  4  1  0
  4  5  1  0
  5  9  1  0
  6  5  2  0
  7  8  2  0
  7  2  1  0
 11 10  1  1
 12 11  1  0
 13 14  1  6
 13 11  1  0
 14  7  1  0
 15 13  1  0
 16 15  2  0
 18 19  1  0
 18 17  1  0
 20 19  1  0
 21 20  1  1
 21 22  1  0
 22 15  1  0
 23 21  1  0
 23 24  1  0
 25 23  2  0
M  END
$$$$
