EVM.pdb
     RDKit          3D

 25 24  0  0  1  0  0  0  0  0999 V2000
   13.1530  -10.8761  -12.1866 N   0  0  0  0  0  0  0  0  0  0  0  0
   14.4261  -10.7941  -11.4896 C   0  0  1  0  0  0  0  0  0  0  0  0
   15.3242  -11.8437  -12.0438 C   0  0  0  0  0  0  0  0  0  0  0  0
   15.0608  -12.1247  -13.4834 C   0  0  0  0  0  0  0  0  0  0  0  0
   15.5493  -13.4414  -13.9075 C   0  0  0  0  0  0  0  0  0  0  0  0
   16.1226  -14.2002  -13.1034 O   0  0  0  0  0  0  0  0  0  0  0  0
   14.9714   -9.4135  -11.7375 C   0  0  0  0  0  0  0  0  0  0  0  0
   14.6878   -8.8232  -12.8138 O   0  0  0  0  0  0  0  0  0  0  0  0
   15.4022  -13.9132  -15.2159 O   0  0  0  0  0  0  0  0  0  0  0  0
   14.3310   -6.5967   -9.5778 C   0  0  0  0  0  0  0  0  0  0  0  0
   15.8339   -6.7261   -9.6360 C   0  0  1  0  0  0  0  0  0  0  0  0
   16.4471   -7.3069   -8.4169 C   0  0  0  0  0  0  0  0  0  0  0  0
   16.2025   -7.3661  -10.9332 C   0  0  2  0  0  0  0  0  0  0  0  0
   15.7827   -8.7785  -10.7999 N   0  0  0  0  0  0  0  0  0  0  0  0
   17.6733   -7.3149  -11.1161 C   0  0  0  0  0  0  0  0  0  0  0  0
   18.4400   -8.1960  -10.6117 O   0  0  0  0  0  0  0  0  0  0  0  0
   23.2355   -9.9057  -14.5881 C   0  0  0  0  0  0  0  0  0  0  0  0
   21.5337   -9.6198  -14.0842 S   0  0  0  0  0  0  0  0  0  0  0  0
   21.3070   -7.9818  -13.3213 C   0  0  0  0  0  0  0  0  0  0  0  0
   19.9017   -7.7446  -12.9101 C   0  0  0  0  0  0  0  0  0  0  0  0
   19.7291   -6.4062  -12.2456 C   0  0  2  0  0  0  0  0  0  0  0  0
   18.2977   -6.2999  -11.8513 N   0  0  0  0  0  0  0  0  0  0  0  0
   20.0368   -5.3313  -13.2142 C   0  0  0  0  0  0  0  0  0  0  0  0
   21.3595   -4.8328  -13.2522 O   0  0  0  0  0  0  0  0  0  0  0  0
   19.1947   -4.8426  -13.9976 O   0  0  0  0  0  0  0  0  0  0  0  0
  2  1  1  6
  2  3  1  0
  3  4  1  0
  4  5  1  0
  5  9  1  0
  6  5  2  0
  7  8  2  0
  7  2  1  0
 11 10  1  1
 12 11  1  0
 13 14  1  1
 13 11  1  0
 14  7  1  0
 15 13  1  0
 16 15  2  0
 18 19  1  0
 18 17  1  0
 20 19  1  0
 21 20  1  6
 21 22  1  0
 22 15  1  0
 23 21  1  0
 23 24  1  0
 25 23  2  0
M  END
$$$$
