EVM.pdb
     RDKit          3D

 25 24  0  0  1  0  0  0  0  0999 V2000
   19.0920  -12.5419  -19.3796 N   0  0  0  0  0  0  0  0  0  0  0  0
   18.6035  -11.8615  -18.1915 C   0  0  1  0  0  0  0  0  0  0  0  0
   19.0997  -12.6011  -16.9990 C   0  0  0  0  0  0  0  0  0  0  0  0
   18.3828  -13.8895  -16.7818 C   0  0  0  0  0  0  0  0  0  0  0  0
   17.2437  -13.7625  -15.8661 C   0  0  0  0  0  0  0  0  0  0  0  0
   16.4207  -12.8366  -15.9940 O   0  0  0  0  0  0  0  0  0  0  0  0
   19.1472  -10.4589  -18.2370 C   0  0  0  0  0  0  0  0  0  0  0  0
   20.2705  -10.2506  -18.7682 O   0  0  0  0  0  0  0  0  0  0  0  0
   17.0192  -14.6575  -14.8152 O   0  0  0  0  0  0  0  0  0  0  0  0
   18.1597   -5.7061  -17.6895 C   0  0  0  0  0  0  0  0  0  0  0  0
   17.7821   -7.1380  -17.9827 C   0  0  1  0  0  0  0  0  0  0  0  0
   17.1295   -7.3429  -19.2986 C   0  0  0  0  0  0  0  0  0  0  0  0
   18.9584   -8.0069  -17.6833 C   0  0  2  0  0  0  0  0  0  0  0  0
   18.4320   -9.3895  -17.7029 N   0  0  0  0  0  0  0  0  0  0  0  0
   19.4706   -7.7048  -16.3248 C   0  0  0  0  0  0  0  0  0  0  0  0
   19.0998   -8.3725  -15.3074 O   0  0  0  0  0  0  0  0  0  0  0  0
   23.3841  -10.9372  -12.9594 C   0  0  0  0  0  0  0  0  0  0  0  0
   24.0186   -9.7850  -14.1848 S   0  0  0  0  0  0  0  0  0  0  0  0
   23.1925   -8.1643  -14.0996 C   0  0  0  0  0  0  0  0  0  0  0  0
   22.1351   -8.0192  -15.1297 C   0  0  0  0  0  0  0  0  0  0  0  0
   21.3504   -6.7480  -14.9540 C   0  0  2  0  0  0  0  0  0  0  0  0
   20.3875   -6.6735  -16.0867 N   0  0  0  0  0  0  0  0  0  0  0  0
   22.2659   -5.5886  -15.0310 C   0  0  0  0  0  0  0  0  0  0  0  0
   22.8787   -5.1481  -13.8351 O   0  0  0  0  0  0  0  0  0  0  0  0
   22.5262   -4.9804  -16.0912 O   0  0  0  0  0  0  0  0  0  0  0  0
  2  1  1  6
  2  3  1  0
  3  4  1  0
  4  5  1  0
  5  9  1  0
  6  5  2  0
  7  8  2  0
  7  2  1  0
 11 10  1  6
 12 11  1  0
 13 14  1  1
 13 11  1  0
 14  7  1  0
 15 13  1  0
 16 15  2  0
 18 19  1  0
 18 17  1  0
 20 19  1  0
 21 20  1  6
 21 22  1  0
 22 15  1  0
 23 21  1  0
 23 24  1  0
 25 23  2  0
M  END
$$$$
