EVM.pdb
     RDKit          3D

 25 24  0  0  1  0  0  0  0  0999 V2000
   20.9507  -21.3587  -12.2401 N   0  0  0  0  0  0  0  0  0  0  0  0
   21.9381  -20.3043  -12.0768 C   0  0  1  0  0  0  0  0  0  0  0  0
   21.2762  -19.1517  -11.4067 C   0  0  0  0  0  0  0  0  0  0  0  0
   20.5556  -18.2660  -12.3643 C   0  0  0  0  0  0  0  0  0  0  0  0
   19.2842  -18.8356  -12.8239 C   0  0  0  0  0  0  0  0  0  0  0  0
   18.2443  -18.7042  -12.1513 O   0  0  0  0  0  0  0  0  0  0  0  0
   23.0471  -20.8716  -11.2321 C   0  0  0  0  0  0  0  0  0  0  0  0
   22.7609  -21.6350  -10.2716 O   0  0  0  0  0  0  0  0  0  0  0  0
   19.1675  -19.5464  -14.0227 O   0  0  0  0  0  0  0  0  0  0  0  0
   27.8739  -21.6697  -11.0334 C   0  0  0  0  0  0  0  0  0  0  0  0
   26.5931  -21.3453  -11.7634 C   0  0  1  0  0  0  0  0  0  0  0  0
   26.3051  -22.2292  -12.9190 C   0  0  0  0  0  0  0  0  0  0  0  0
   25.5016  -21.1932  -10.7565 C   0  0  2  0  0  0  0  0  0  0  0  0
   24.3812  -20.5677  -11.4931 N   0  0  0  0  0  0  0  0  0  0  0  0
   25.9411  -20.2764   -9.6770 C   0  0  0  0  0  0  0  0  0  0  0  0
   26.0112  -19.0188   -9.8562 O   0  0  0  0  0  0  0  0  0  0  0  0
   26.5815  -20.0294   -2.2040 C   0  0  0  0  0  0  0  0  0  0  0  0
   27.6858  -20.7078   -3.4497 S   0  0  0  0  0  0  0  0  0  0  0  0
   27.5985  -19.7910   -5.0207 C   0  0  0  0  0  0  0  0  0  0  0  0
   26.9684  -20.5887   -6.1010 C   0  0  0  0  0  0  0  0  0  0  0  0
   26.9047  -19.8277   -7.3970 C   0  0  2  0  0  0  0  0  0  0  0  0
   26.3007  -20.7405   -8.4058 N   0  0  0  0  0  0  0  0  0  0  0  0
   28.2748  -19.4782   -7.8317 C   0  0  0  0  0  0  0  0  0  0  0  0
   28.7871  -18.2152   -7.4550 O   0  0  0  0  0  0  0  0  0  0  0  0
   29.0008  -20.2357   -8.5104 O   0  0  0  0  0  0  0  0  0  0  0  0
  2  1  1  1
  2  3  1  0
  3  4  1  0
  4  5  1  0
  5  9  1  0
  6  5  2  0
  7  8  2  0
  7  2  1  0
 11 10  1  1
 12 11  1  0
 13 14  1  6
 13 11  1  0
 14  7  1  0
 15 13  1  0
 16 15  2  0
 18 19  1  0
 18 17  1  0
 20 19  1  0
 21 20  1  1
 21 22  1  0
 22 15  1  0
 23 21  1  0
 23 24  1  0
 25 23  2  0
M  END
$$$$
