EVM.pdb
     RDKit          3D

 25 24  0  0  1  0  0  0  0  0999 V2000
   20.9751  -21.5448  -13.4139 N   0  0  0  0  0  0  0  0  0  0  0  0
   21.6713  -20.4444  -12.7675 C   0  0  1  0  0  0  0  0  0  0  0  0
   20.6703  -19.6488  -12.0057 C   0  0  0  0  0  0  0  0  0  0  0  0
   19.7985  -18.8238  -12.8889 C   0  0  0  0  0  0  0  0  0  0  0  0
   18.7185  -19.5980  -13.5105 C   0  0  0  0  0  0  0  0  0  0  0  0
   18.5712  -19.6114  -14.7470 O   0  0  0  0  0  0  0  0  0  0  0  0
   22.7012  -21.0550  -11.8555 C   0  0  0  0  0  0  0  0  0  0  0  0
   22.3809  -22.0380  -11.1354 O   0  0  0  0  0  0  0  0  0  0  0  0
   17.8077  -20.3527  -12.7643 O   0  0  0  0  0  0  0  0  0  0  0  0
   25.8482  -22.2606  -13.0398 C   0  0  0  0  0  0  0  0  0  0  0  0
   26.2280  -21.3181  -11.9234 C   0  0  1  0  0  0  0  0  0  0  0  0
   26.8473  -20.0489  -12.3764 C   0  0  0  0  0  0  0  0  0  0  0  0
   25.0662  -21.1946  -10.9943 C   0  0  2  0  0  0  0  0  0  0  0  0
   23.9991  -20.5531  -11.7936 N   0  0  0  0  0  0  0  0  0  0  0  0
   25.4228  -20.3048   -9.8629 C   0  0  0  0  0  0  0  0  0  0  0  0
   25.1504  -19.0622   -9.8789 O   0  0  0  0  0  0  0  0  0  0  0  0
   27.9389  -21.9634   -3.4992 C   0  0  0  0  0  0  0  0  0  0  0  0
   28.9359  -20.8019   -4.4419 S   0  0  0  0  0  0  0  0  0  0  0  0
   27.9365  -19.8250   -5.6094 C   0  0  0  0  0  0  0  0  0  0  0  0
   27.3501  -20.6635   -6.6834 C   0  0  0  0  0  0  0  0  0  0  0  0
   26.5564  -19.8452   -7.6648 C   0  0  2  0  0  0  0  0  0  0  0  0
   26.0752  -20.7798   -8.7185 N   0  0  0  0  0  0  0  0  0  0  0  0
   27.4373  -18.8352   -8.2909 C   0  0  0  0  0  0  0  0  0  0  0  0
   27.4068  -17.5188   -7.7752 O   0  0  0  0  0  0  0  0  0  0  0  0
   28.2040  -19.0814   -9.2466 O   0  0  0  0  0  0  0  0  0  0  0  0
  2  1  1  1
  2  3  1  0
  3  4  1  0
  4  5  1  0
  5  9  1  0
  6  5  2  0
  7  8  2  0
  7  2  1  0
 11 10  1  6
 12 11  1  0
 13 14  1  6
 13 11  1  0
 14  7  1  0
 15 13  1  0
 16 15  2  0
 18 19  1  0
 18 17  1  0
 20 19  1  0
 21 20  1  1
 21 22  1  0
 22 15  1  0
 23 21  1  0
 23 24  1  0
 25 23  2  0
M  END
$$$$
