EVM.pdb
     RDKit          3D

 25 24  0  0  1  0  0  0  0  0999 V2000
   23.1551  -20.3967  -13.8571 N   0  0  0  0  0  0  0  0  0  0  0  0
   22.3895  -19.7622  -12.7967 C   0  0  1  0  0  0  0  0  0  0  0  0
   21.0951  -19.3050  -13.3719 C   0  0  0  0  0  0  0  0  0  0  0  0
   21.2729  -18.3414  -14.4948 C   0  0  0  0  0  0  0  0  0  0  0  0
   21.4202  -19.0016  -15.7966 C   0  0  0  0  0  0  0  0  0  0  0  0
   20.4620  -19.5978  -16.3232 O   0  0  0  0  0  0  0  0  0  0  0  0
   22.1823  -20.8001  -11.7267 C   0  0  0  0  0  0  0  0  0  0  0  0
   21.8418  -21.9670  -12.0581 O   0  0  0  0  0  0  0  0  0  0  0  0
   22.6233  -18.9998  -16.5096 O   0  0  0  0  0  0  0  0  0  0  0  0
   24.5741  -20.8648   -8.6464 C   0  0  0  0  0  0  0  0  0  0  0  0
   23.1353  -20.9515   -8.1980 C   0  0  1  0  0  0  0  0  0  0  0  0
   22.6128  -19.7133   -7.5708 C   0  0  0  0  0  0  0  0  0  0  0  0
   22.3262  -21.5213   -9.3156 C   0  0  2  0  0  0  0  0  0  0  0  0
   22.3598  -20.4937  -10.3795 N   0  0  0  0  0  0  0  0  0  0  0  0
   20.9240  -21.7110   -8.8718 C   0  0  0  0  0  0  0  0  0  0  0  0
   20.0824  -20.7572   -8.8918 O   0  0  0  0  0  0  0  0  0  0  0  0
   17.0901  -25.8642  -11.1448 C   0  0  0  0  0  0  0  0  0  0  0  0
   16.2841  -25.7466   -9.5421 S   0  0  0  0  0  0  0  0  0  0  0  0
   17.0183  -24.4501   -8.4951 C   0  0  0  0  0  0  0  0  0  0  0  0
   18.4327  -24.1775   -8.8495 C   0  0  0  0  0  0  0  0  0  0  0  0
   19.0347  -23.1103   -7.9770 C   0  0  2  0  0  0  0  0  0  0  0  0
   20.4493  -22.9446   -8.4094 N   0  0  0  0  0  0  0  0  0  0  0  0
   19.0176  -23.5580   -6.5672 C   0  0  0  0  0  0  0  0  0  0  0  0
   17.8279  -23.3689   -5.8267 O   0  0  0  0  0  0  0  0  0  0  0  0
   19.9934  -24.0924   -5.9980 O   0  0  0  0  0  0  0  0  0  0  0  0
  2  1  1  6
  2  3  1  0
  3  4  1  0
  4  5  1  0
  5  9  1  0
  6  5  2  0
  7  8  2  0
  7  2  1  0
 11 10  1  6
 12 11  1  0
 13 14  1  6
 13 11  1  0
 14  7  1  0
 15 13  1  0
 16 15  2  0
 18 19  1  0
 18 17  1  0
 20 19  1  0
 21 20  1  6
 21 22  1  0
 22 15  1  0
 23 21  1  0
 23 24  1  0
 25 23  2  0
M  END
$$$$
