EVM.pdb
     RDKit          3D

 25 24  0  0  1  0  0  0  0  0999 V2000
   19.1386  -21.0559  -13.6139 N   0  0  0  0  0  0  0  0  0  0  0  0
   20.2735  -20.1573  -13.4806 C   0  0  1  0  0  0  0  0  0  0  0  0
   19.8854  -19.0572  -12.5563 C   0  0  0  0  0  0  0  0  0  0  0  0
   18.9798  -18.0612  -13.1958 C   0  0  0  0  0  0  0  0  0  0  0  0
   19.5892  -17.3938  -14.3514 C   0  0  0  0  0  0  0  0  0  0  0  0
   19.1792  -17.6140  -15.5065 O   0  0  0  0  0  0  0  0  0  0  0  0
   21.4112  -20.9705  -12.9242 C   0  0  0  0  0  0  0  0  0  0  0  0
   21.1694  -21.8636  -12.0691 O   0  0  0  0  0  0  0  0  0  0  0  0
   20.6468  -16.4874  -14.2257 O   0  0  0  0  0  0  0  0  0  0  0  0
   25.8906  -22.5772  -13.7716 C   0  0  0  0  0  0  0  0  0  0  0  0
   24.5059  -22.0874  -14.1201 C   0  0  1  0  0  0  0  0  0  0  0  0
   23.7117  -23.0297  -14.9453 C   0  0  0  0  0  0  0  0  0  0  0  0
   23.8550  -21.5865  -12.8736 C   0  0  2  0  0  0  0  0  0  0  0  0
   22.7237  -20.7531  -13.3369 N   0  0  0  0  0  0  0  0  0  0  0  0
   24.8062  -20.7336  -12.1206 C   0  0  0  0  0  0  0  0  0  0  0  0
   25.2160  -19.6214  -12.5828 O   0  0  0  0  0  0  0  0  0  0  0  0
   28.4978  -19.1717   -5.3050 C   0  0  0  0  0  0  0  0  0  0  0  0
   27.3443  -20.1965   -6.2276 S   0  0  0  0  0  0  0  0  0  0  0  0
   27.3813  -19.8397   -8.0129 C   0  0  0  0  0  0  0  0  0  0  0  0
   26.3351  -20.5844   -8.7553 C   0  0  0  0  0  0  0  0  0  0  0  0
   26.4355  -20.3643  -10.2400 C   0  0  2  0  0  0  0  0  0  0  0  0
   25.3034  -21.1018  -10.8644 N   0  0  0  0  0  0  0  0  0  0  0  0
   27.7066  -20.9338  -10.7382 C   0  0  0  0  0  0  0  0  0  0  0  0
   28.7498  -20.0377  -11.0673 O   0  0  0  0  0  0  0  0  0  0  0  0
   27.9076  -22.1587  -10.8828 O   0  0  0  0  0  0  0  0  0  0  0  0
  2  1  1  1
  2  3  1  0
  3  4  1  0
  4  5  1  0
  5  9  1  0
  6  5  2  0
  7  8  2  0
  7  2  1  0
 11 10  1  1
 12 11  1  0
 13 14  1  6
 13 11  1  0
 14  7  1  0
 15 13  1  0
 16 15  2  0
 18 19  1  0
 18 17  1  0
 20 19  1  0
 21 20  1  1
 21 22  1  0
 22 15  1  0
 23 21  1  0
 23 24  1  0
 25 23  2  0
M  END
$$$$
