EVM.pdb
     RDKit          3D

 25 24  0  0  1  0  0  0  0  0999 V2000
   22.6509  -21.7149  -13.7825 N   0  0  0  0  0  0  0  0  0  0  0  0
   23.0501  -20.6680  -12.8562 C   0  0  1  0  0  0  0  0  0  0  0  0
   21.8674  -20.3103  -12.0264 C   0  0  0  0  0  0  0  0  0  0  0  0
   20.9038  -19.4310  -12.7469 C   0  0  0  0  0  0  0  0  0  0  0  0
   19.9822  -20.1789  -13.6092 C   0  0  0  0  0  0  0  0  0  0  0  0
   19.0320  -20.8214  -13.1243 O   0  0  0  0  0  0  0  0  0  0  0  0
   24.1647  -21.2304  -12.0157 C   0  0  0  0  0  0  0  0  0  0  0  0
   24.0351  -22.3759  -11.5074 O   0  0  0  0  0  0  0  0  0  0  0  0
   20.1143  -20.2133  -15.0011 O   0  0  0  0  0  0  0  0  0  0  0  0
   28.8416  -20.8678  -10.6712 C   0  0  0  0  0  0  0  0  0  0  0  0
   27.6851  -20.5952  -11.6023 C   0  0  1  0  0  0  0  0  0  0  0  0
   27.8780  -21.0995  -12.9836 C   0  0  0  0  0  0  0  0  0  0  0  0
   26.4224  -21.0020  -10.9180 C   0  0  2  0  0  0  0  0  0  0  0  0
   25.3342  -20.5080  -11.7903 N   0  0  0  0  0  0  0  0  0  0  0  0
   26.3281  -20.3282   -9.6003 C   0  0  0  0  0  0  0  0  0  0  0  0
   25.8800  -19.1430   -9.4867 O   0  0  0  0  0  0  0  0  0  0  0  0
   30.3341  -21.7161   -4.4810 C   0  0  0  0  0  0  0  0  0  0  0  0
   28.7704  -21.2876   -3.7043 S   0  0  0  0  0  0  0  0  0  0  0  0
   27.6675  -20.3776   -4.8320 C   0  0  0  0  0  0  0  0  0  0  0  0
   27.5641  -21.0280   -6.1611 C   0  0  0  0  0  0  0  0  0  0  0  0
   26.7371  -20.2168   -7.1207 C   0  0  2  0  0  0  0  0  0  0  0  0
   26.7240  -20.9558   -8.4127 N   0  0  0  0  0  0  0  0  0  0  0  0
   27.3772  -18.9000   -7.3323 C   0  0  0  0  0  0  0  0  0  0  0  0
   26.8861  -17.7986   -6.5938 O   0  0  0  0  0  0  0  0  0  0  0  0
   28.3246  -18.7095   -8.1246 O   0  0  0  0  0  0  0  0  0  0  0  0
  2  1  1  6
  2  3  1  0
  3  4  1  0
  4  5  1  0
  5  9  1  0
  6  5  2  0
  7  8  2  0
  7  2  1  0
 11 10  1  1
 12 11  1  0
 13 14  1  6
 13 11  1  0
 14  7  1  0
 15 13  1  0
 16 15  2  0
 18 19  1  0
 18 17  1  0
 20 19  1  0
 21 20  1  1
 21 22  1  0
 22 15  1  0
 23 21  1  0
 23 24  1  0
 25 23  2  0
M  END
$$$$
