EVM.pdb
     RDKit          3D

 25 24  0  0  1  0  0  0  0  0999 V2000
   28.0382  -20.4451  -16.4915 N   0  0  0  0  0  0  0  0  0  0  0  0
   27.2610  -19.5479  -15.6522 C   0  0  1  0  0  0  0  0  0  0  0  0
   26.4369  -18.6831  -16.5401 C   0  0  0  0  0  0  0  0  0  0  0  0
   26.8771  -18.7343  -17.9629 C   0  0  0  0  0  0  0  0  0  0  0  0
   25.8064  -19.1445  -18.8781 C   0  0  0  0  0  0  0  0  0  0  0  0
   25.7531  -20.3078  -19.3194 O   0  0  0  0  0  0  0  0  0  0  0  0
   26.4009  -20.4115  -14.7693 C   0  0  0  0  0  0  0  0  0  0  0  0
   25.7848  -21.3876  -15.2743 O   0  0  0  0  0  0  0  0  0  0  0  0
   24.8010  -18.2690  -19.3008 O   0  0  0  0  0  0  0  0  0  0  0  0
   24.8100  -21.1383  -10.1636 C   0  0  0  0  0  0  0  0  0  0  0  0
   25.8385  -20.6078  -11.1328 C   0  0  1  0  0  0  0  0  0  0  0  0
   27.2405  -20.9415  -10.7827 C   0  0  0  0  0  0  0  0  0  0  0  0
   25.4015  -20.9498  -12.5186 C   0  0  2  0  0  0  0  0  0  0  0  0
   26.2742  -20.1507  -13.4069 N   0  0  0  0  0  0  0  0  0  0  0  0
   23.9939  -20.5276  -12.7177 C   0  0  0  0  0  0  0  0  0  0  0  0
   23.6899  -19.3215  -12.9853 O   0  0  0  0  0  0  0  0  0  0  0  0
   20.8484  -21.3648  -17.5876 C   0  0  0  0  0  0  0  0  0  0  0  0
   19.5005  -21.7243  -16.4537 S   0  0  0  0  0  0  0  0  0  0  0  0
   19.8570  -21.1613  -14.7590 C   0  0  0  0  0  0  0  0  0  0  0  0
   21.2372  -21.5003  -14.3343 C   0  0  0  0  0  0  0  0  0  0  0  0
   21.5348  -21.0061  -12.9451 C   0  0  2  0  0  0  0  0  0  0  0  0
   22.9257  -21.4281  -12.6242 N   0  0  0  0  0  0  0  0  0  0  0  0
   20.6098  -21.6470  -11.9849 C   0  0  0  0  0  0  0  0  0  0  0  0
   20.8711  -22.9839  -11.6053 O   0  0  0  0  0  0  0  0  0  0  0  0
   19.6146  -21.0732  -11.4931 O   0  0  0  0  0  0  0  0  0  0  0  0
  2  1  1  6
  2  3  1  0
  3  4  1  0
  4  5  1  0
  5  9  1  0
  6  5  2  0
  7  8  2  0
  7  2  1  0
 11 10  1  1
 12 11  1  0
 13 14  1  6
 13 11  1  0
 14  7  1  0
 15 13  1  0
 16 15  2  0
 18 19  1  0
 18 17  1  0
 20 19  1  0
 21 20  1  6
 21 22  1  0
 22 15  1  0
 23 21  1  0
 23 24  1  0
 25 23  2  0
M  END
$$$$
