EVM.pdb
     RDKit          3D

 25 24  0  0  1  0  0  0  0  0999 V2000
   28.2879  -19.8273  -17.5221 N   0  0  0  0  0  0  0  0  0  0  0  0
   27.8379  -20.8463  -16.5880 C   0  0  1  0  0  0  0  0  0  0  0  0
   29.0392  -21.5351  -16.0421 C   0  0  0  0  0  0  0  0  0  0  0  0
   29.6716  -22.4566  -17.0279 C   0  0  0  0  0  0  0  0  0  0  0  0
   28.8152  -23.5955  -17.3767 C   0  0  0  0  0  0  0  0  0  0  0  0
   28.1758  -24.2068  -16.5002 O   0  0  0  0  0  0  0  0  0  0  0  0
   27.0685  -20.1375  -15.5060 C   0  0  0  0  0  0  0  0  0  0  0  0
   27.3721  -18.9509  -15.2107 O   0  0  0  0  0  0  0  0  0  0  0  0
   28.6692  -24.0530  -18.6903 O   0  0  0  0  0  0  0  0  0  0  0  0
   22.8754  -19.7953  -13.1833 C   0  0  0  0  0  0  0  0  0  0  0  0
   23.8138  -20.1369  -14.3153 C   0  0  1  0  0  0  0  0  0  0  0  0
   23.5476  -19.4018  -15.5756 C   0  0  0  0  0  0  0  0  0  0  0  0
   25.2137  -20.0844  -13.7998 C   0  0  2  0  0  0  0  0  0  0  0  0
   26.0293  -20.7692  -14.8269 N   0  0  0  0  0  0  0  0  0  0  0  0
   25.3067  -20.8397  -12.5270 C   0  0  0  0  0  0  0  0  0  0  0  0
   24.9627  -22.0620  -12.4491 O   0  0  0  0  0  0  0  0  0  0  0  0
   28.2086  -18.3425   -7.2523 C   0  0  0  0  0  0  0  0  0  0  0  0
   27.4805  -19.8094   -6.5106 S   0  0  0  0  0  0  0  0  0  0  0  0
   26.5315  -20.7918   -7.7150 C   0  0  0  0  0  0  0  0  0  0  0  0
   26.5504  -20.1882   -9.0699 C   0  0  0  0  0  0  0  0  0  0  0  0
   25.7540  -20.9975  -10.0566 C   0  0  2  0  0  0  0  0  0  0  0  0
   25.7772  -20.2535  -11.3455 N   0  0  0  0  0  0  0  0  0  0  0  0
   24.3533  -21.1016   -9.5925 C   0  0  0  0  0  0  0  0  0  0  0  0
   24.0064  -22.2023   -8.7753 O   0  0  0  0  0  0  0  0  0  0  0  0
   23.4640  -20.2727   -9.8820 O   0  0  0  0  0  0  0  0  0  0  0  0
  2  1  1  6
  2  3  1  0
  3  4  1  0
  4  5  1  0
  5  9  1  0
  6  5  2  0
  7  8  2  0
  7  2  1  0
 11 10  1  1
 12 11  1  0
 13 14  1  6
 13 11  1  0
 14  7  1  0
 15 13  1  0
 16 15  2  0
 18 19  1  0
 18 17  1  0
 20 19  1  0
 21 20  1  1
 21 22  1  0
 22 15  1  0
 23 21  1  0
 23 24  1  0
 25 23  2  0
M  END
$$$$
