FAV.pdb
     RDKit          3D

 24 24  0  0  1  0  0  0  0  0999 V2000
   25.0950  -21.0786  -10.1421 N   0  0  0  0  0  0  0  0  0  0  0  0
   24.3855  -20.9737  -11.3994 C   0  0  1  0  0  0  0  0  0  0  0  0
   23.0951  -20.2180  -11.2730 C   0  0  0  0  0  0  0  0  0  0  0  0
   22.0641  -20.9022  -10.4990 C   0  0  0  0  0  0  0  0  0  0  0  0
   21.6888  -20.3541   -9.2826 C   0  0  0  0  0  0  0  0  0  0  0  0
   20.7270  -20.9300   -8.4876 C   0  0  0  0  0  0  0  0  0  0  0  0
   20.0936  -22.0895   -8.8790 C   0  0  0  0  0  0  0  0  0  0  0  0
   20.4619  -22.6400  -10.0877 C   0  0  0  0  0  0  0  0  0  0  0  0
   21.4273  -22.0553  -10.8777 C   0  0  0  0  0  0  0  0  0  0  0  0
   25.2579  -20.4627  -12.4839 C   0  0  0  0  0  0  0  0  0  0  0  0
   26.0171  -19.4929  -12.2678 O   0  0  0  0  0  0  0  0  0  0  0  0
   26.4102  -21.7148  -15.7894 C   0  0  0  0  0  0  0  0  0  0  0  0
   25.9688  -20.5998  -14.8473 C   0  0  2  0  0  0  0  0  0  0  0  0
   25.1887  -21.1129  -13.7443 N   0  0  0  0  0  0  0  0  0  0  0  0
   25.2285  -19.5446  -15.5849 C   0  0  0  0  0  0  0  0  0  0  0  0
   24.0012  -19.6639  -15.8296 O   0  0  0  0  0  0  0  0  0  0  0  0
   24.9412  -14.9020  -17.3469 C   0  0  0  0  0  0  0  0  0  0  0  0
   25.6662  -15.9477  -16.5566 C   0  0  1  0  0  0  0  0  0  0  0  0
   25.5651  -15.6254  -15.0931 C   0  0  0  0  0  0  0  0  0  0  0  0
   25.1247  -17.3349  -16.7884 C   0  0  2  0  0  0  0  0  0  0  0  0
   25.8538  -18.3479  -16.0550 N   0  0  0  0  0  0  0  0  0  0  0  0
   25.0564  -17.6712  -18.2266 C   0  0  0  0  0  0  0  0  0  0  0  0
   26.0126  -18.0708  -18.9028 O   0  0  0  0  0  0  0  0  0  0  0  0
   23.8306  -17.5327  -18.8824 O   0  0  0  0  0  0  0  0  0  0  0  0
  2  1  1  1
  3  2  1  0
  4  3  1  0
  4  9  2  0
  5  4  1  0
  6  5  2  0
  6  7  1  0
  7  8  2  0
  8  9  1  0
 10  2  1  0
 11 10  2  0
 13 12  1  6
 13 14  1  0
 13 15  1  0
 14 10  1  0
 15 21  1  0
 16 15  2  0
 18 20  1  0
 18 19  1  1
 18 17  1  0
 20 22  1  0
 20 21  1  1
 22 23  2  0
 22 24  1  0
M  END
$$$$
