FAV.pdb
     RDKit          3D

 24 24  0  0  1  0  0  0  0  0999 V2000
   28.7065  -21.9141  -13.0845 N   0  0  0  0  0  0  0  0  0  0  0  0
   27.5446  -21.5337  -12.3097 C   0  0  1  0  0  0  0  0  0  0  0  0
   27.7492  -20.2544  -11.5522 C   0  0  0  0  0  0  0  0  0  0  0  0
   27.6202  -20.3792  -10.1037 C   0  0  0  0  0  0  0  0  0  0  0  0
   28.7322  -20.7819   -9.3811 C   0  0  0  0  0  0  0  0  0  0  0  0
   28.7025  -20.9262   -8.0147 C   0  0  0  0  0  0  0  0  0  0  0  0
   27.5485  -20.6714   -7.3062 C   0  0  0  0  0  0  0  0  0  0  0  0
   26.4387  -20.2706   -8.0184 C   0  0  0  0  0  0  0  0  0  0  0  0
   26.4783  -20.1288   -9.3882 C   0  0  0  0  0  0  0  0  0  0  0  0
   26.3098  -21.5355  -13.1304 C   0  0  0  0  0  0  0  0  0  0  0  0
   26.2350  -20.8082  -14.1448 O   0  0  0  0  0  0  0  0  0  0  0  0
   23.5660  -23.9645  -13.5565 C   0  0  0  0  0  0  0  0  0  0  0  0
   24.0915  -22.5329  -13.5713 C   0  0  2  0  0  0  0  0  0  0  0  0
   25.2471  -22.3815  -12.7167 N   0  0  0  0  0  0  0  0  0  0  0  0
   23.0210  -21.5714  -13.2039 C   0  0  0  0  0  0  0  0  0  0  0  0
   22.8035  -21.2709  -12.0027 O   0  0  0  0  0  0  0  0  0  0  0  0
   22.2382  -18.0500  -14.7532 C   0  0  0  0  0  0  0  0  0  0  0  0
   20.9796  -18.8604  -14.7023 C   0  0  1  0  0  0  0  0  0  0  0  0
   20.6292  -19.3242  -16.0872 C   0  0  0  0  0  0  0  0  0  0  0  0
   21.0951  -20.0624  -13.8006 C   0  0  2  0  0  0  0  0  0  0  0  0
   22.1850  -20.9383  -14.1757 N   0  0  0  0  0  0  0  0  0  0  0  0
   19.8238  -20.8117  -13.7085 C   0  0  0  0  0  0  0  0  0  0  0  0
   19.6146  -21.9116  -14.2353 O   0  0  0  0  0  0  0  0  0  0  0  0
   18.7745  -20.2497  -12.9771 O   0  0  0  0  0  0  0  0  0  0  0  0
  2  1  1  6
  3  2  1  0
  4  3  1  0
  4  9  2  0
  5  4  1  0
  6  5  2  0
  6  7  1  0
  7  8  2  0
  8  9  1  0
 10  2  1  0
 11 10  2  0
 13 12  1  1
 13 14  1  0
 13 15  1  0
 14 10  1  0
 15 21  1  0
 16 15  2  0
 18 20  1  0
 18 19  1  6
 18 17  1  0
 20 22  1  0
 20 21  1  6
 22 23  2  0
 22 24  1  0
M  END
$$$$
