FAV.pdb
     RDKit          3D

 24 24  0  0  1  0  0  0  0  0999 V2000
   20.3815   -8.4694  -15.5120 N   0  0  0  0  0  0  0  0  0  0  0  0
   20.2406   -8.3691  -14.0750 C   0  0  1  0  0  0  0  0  0  0  0  0
   21.5041   -7.9205  -13.4007 C   0  0  0  0  0  0  0  0  0  0  0  0
   22.7314   -8.3745  -14.0471 C   0  0  0  0  0  0  0  0  0  0  0  0
   23.3856   -7.4964  -14.8967 C   0  0  0  0  0  0  0  0  0  0  0  0
   24.5467   -7.8383  -15.5477 C   0  0  0  0  0  0  0  0  0  0  0  0
   25.1082   -9.0847  -15.3750 C   0  0  0  0  0  0  0  0  0  0  0  0
   24.4629   -9.9631  -14.5314 C   0  0  0  0  0  0  0  0  0  0  0  0
   23.2993   -9.6111  -13.8833 C   0  0  0  0  0  0  0  0  0  0  0  0
   19.0564   -7.5634  -13.6919 C   0  0  0  0  0  0  0  0  0  0  0  0
   19.1606   -6.3237  -13.5661 O   0  0  0  0  0  0  0  0  0  0  0  0
   15.6069   -7.5136  -14.2134 C   0  0  0  0  0  0  0  0  0  0  0  0
   16.6557   -7.5029  -13.1062 C   0  0  2  0  0  0  0  0  0  0  0  0
   17.8329   -8.2526  -13.4812 N   0  0  0  0  0  0  0  0  0  0  0  0
   16.0840   -8.0021  -11.8297 C   0  0  0  0  0  0  0  0  0  0  0  0
   16.0676   -9.2306  -11.5630 O   0  0  0  0  0  0  0  0  0  0  0  0
   14.2439   -7.1693   -7.2730 C   0  0  0  0  0  0  0  0  0  0  0  0
   14.9007   -6.6458   -8.5133 C   0  0  1  0  0  0  0  0  0  0  0  0
   16.3268   -6.2866   -8.2083 C   0  0  0  0  0  0  0  0  0  0  0  0
   14.8801   -7.6373   -9.6481 C   0  0  2  0  0  0  0  0  0  0  0  0
   15.5261   -7.1327  -10.8413 N   0  0  0  0  0  0  0  0  0  0  0  0
   13.5115   -8.1092   -9.9485 C   0  0  0  0  0  0  0  0  0  0  0  0
   12.7216   -7.5396  -10.7118 O   0  0  0  0  0  0  0  0  0  0  0  0
   13.0643   -9.2812   -9.3333 O   0  0  0  0  0  0  0  0  0  0  0  0
  2  1  1  6
  3  2  1  0
  4  3  1  0
  4  9  2  0
  5  4  1  0
  6  5  2  0
  6  7  1  0
  7  8  2  0
  8  9  1  0
 10  2  1  0
 11 10  2  0
 13 12  1  6
 13 14  1  0
 13 15  1  0
 14 10  1  0
 15 21  1  0
 16 15  2  0
 18 20  1  0
 18 19  1  1
 18 17  1  0
 20 22  1  0
 20 21  1  6
 22 23  2  0
 22 24  1  0
M  END
$$$$
