FAV.pdb
     RDKit          3D

 24 24  0  0  1  0  0  0  0  0999 V2000
   28.6853  -20.6020  -14.2314 N   0  0  0  0  0  0  0  0  0  0  0  0
   27.6537  -21.0813  -13.3364 C   0  0  1  0  0  0  0  0  0  0  0  0
   27.8387  -20.5949  -11.9288 C   0  0  0  0  0  0  0  0  0  0  0  0
   29.1265  -20.9365  -11.3327 C   0  0  0  0  0  0  0  0  0  0  0  0
   29.2351  -22.1429  -10.6592 C   0  0  0  0  0  0  0  0  0  0  0  0
   30.4083  -22.5461  -10.0676 C   0  0  0  0  0  0  0  0  0  0  0  0
   31.5332  -21.7525  -10.1249 C   0  0  0  0  0  0  0  0  0  0  0  0
   31.4322  -20.5513  -10.7932 C   0  0  0  0  0  0  0  0  0  0  0  0
   30.2518  -20.1558  -11.3831 C   0  0  0  0  0  0  0  0  0  0  0  0
   26.2954  -20.8206  -13.8706 C   0  0  0  0  0  0  0  0  0  0  0  0
   25.8229  -19.6634  -13.8335 O   0  0  0  0  0  0  0  0  0  0  0  0
   23.9864  -22.6656  -16.1273 C   0  0  0  0  0  0  0  0  0  0  0  0
   24.2698  -21.7005  -14.9810 C   0  0  2  0  0  0  0  0  0  0  0  0
   25.5793  -21.9213  -14.4109 N   0  0  0  0  0  0  0  0  0  0  0  0
   23.2104  -21.7840  -13.9436 C   0  0  0  0  0  0  0  0  0  0  0  0
   23.2405  -22.6740  -13.0562 O   0  0  0  0  0  0  0  0  0  0  0  0
   21.8455  -19.0790  -11.5395 C   0  0  0  0  0  0  0  0  0  0  0  0
   20.6889  -19.7003  -12.2606 C   0  0  1  0  0  0  0  0  0  0  0  0
   20.1883  -18.7506  -13.3109 C   0  0  0  0  0  0  0  0  0  0  0  0
   21.0451  -21.0091  -12.9173 C   0  0  2  0  0  0  0  0  0  0  0  0
   22.1092  -20.8739  -13.8896 N   0  0  0  0  0  0  0  0  0  0  0  0
   19.8652  -21.6699  -13.5150 C   0  0  0  0  0  0  0  0  0  0  0  0
   19.6816  -21.8199  -14.7294 O   0  0  0  0  0  0  0  0  0  0  0  0
   18.8784  -22.1654  -12.6590 O   0  0  0  0  0  0  0  0  0  0  0  0
  2  1  1  6
  3  2  1  0
  4  3  1  0
  4  9  2  0
  5  4  1  0
  6  5  2  0
  6  7  1  0
  7  8  2  0
  8  9  1  0
 10  2  1  0
 11 10  2  0
 13 12  1  6
 13 14  1  0
 13 15  1  0
 14 10  1  0
 15 21  1  0
 16 15  2  0
 18 20  1  0
 18 19  1  6
 18 17  1  0
 20 22  1  0
 20 21  1  6
 22 23  2  0
 22 24  1  0
M  END
$$$$
