FAV.pdb
     RDKit          3D

 24 24  0  0  1  0  0  0  0  0999 V2000
   26.1058  -18.6222  -17.6879 N   0  0  0  0  0  0  0  0  0  0  0  0
   26.6140  -19.1019  -16.4204 C   0  0  1  0  0  0  0  0  0  0  0  0
   27.1931  -18.0035  -15.5774 C   0  0  0  0  0  0  0  0  0  0  0  0
   28.2422  -17.2264  -16.2298 C   0  0  0  0  0  0  0  0  0  0  0  0
   29.5258  -17.7489  -16.2495 C   0  0  0  0  0  0  0  0  0  0  0  0
   30.5749  -17.0870  -16.8410 C   0  0  0  0  0  0  0  0  0  0  0  0
   30.3831  -15.8628  -17.4438 C   0  0  0  0  0  0  0  0  0  0  0  0
   29.1091  -15.3372  -17.4279 C   0  0  0  0  0  0  0  0  0  0  0  0
   28.0638  -16.0084  -16.8324 C   0  0  0  0  0  0  0  0  0  0  0  0
   25.6123  -19.9244  -15.7004 C   0  0  0  0  0  0  0  0  0  0  0  0
   24.4877  -19.4459  -15.4356 O   0  0  0  0  0  0  0  0  0  0  0  0
   24.9797  -23.4816  -15.1767 C   0  0  0  0  0  0  0  0  0  0  0  0
   25.0481  -22.0685  -14.6074 C   0  0  2  0  0  0  0  0  0  0  0  0
   25.9852  -21.2455  -15.3375 N   0  0  0  0  0  0  0  0  0  0  0  0
   25.3716  -22.0959  -13.1583 C   0  0  0  0  0  0  0  0  0  0  0  0
   26.1100  -22.9914  -12.6755 O   0  0  0  0  0  0  0  0  0  0  0  0
   27.3206  -20.7957  -10.6909 C   0  0  0  0  0  0  0  0  0  0  0  0
   25.9620  -20.5599  -10.1056 C   0  0  1  0  0  0  0  0  0  0  0  0
   25.6324  -19.0968  -10.1850 C   0  0  0  0  0  0  0  0  0  0  0  0
   24.8807  -21.3416  -10.8062 C   0  0  2  0  0  0  0  0  0  0  0  0
   24.8725  -21.1229  -12.2372 N   0  0  0  0  0  0  0  0  0  0  0  0
   23.5453  -21.0854  -10.2256 C   0  0  0  0  0  0  0  0  0  0  0  0
   23.2409  -21.2860   -9.0431 O   0  0  0  0  0  0  0  0  0  0  0  0
   22.5453  -20.5803  -11.0603 O   0  0  0  0  0  0  0  0  0  0  0  0
  2  1  1  6
  3  2  1  0
  4  3  1  0
  4  9  2  0
  5  4  1  0
  6  5  2  0
  6  7  1  0
  7  8  2  0
  8  9  1  0
 10  2  1  0
 11 10  2  0
 13 12  1  6
 13 14  1  0
 13 15  1  0
 14 10  1  0
 15 21  1  0
 16 15  2  0
 18 20  1  0
 18 19  1  6
 18 17  1  0
 20 22  1  0
 20 21  1  6
 22 23  2  0
 22 24  1  0
M  END
$$$$
