FAV.pdb
     RDKit          3D

 24 24  0  0  1  0  0  0  0  0999 V2000
   24.6899  -19.5327  -18.2679 N   0  0  0  0  0  0  0  0  0  0  0  0
   24.9897  -18.9989  -16.9563 C   0  0  1  0  0  0  0  0  0  0  0  0
   23.7554  -18.6257  -16.1887 C   0  0  0  0  0  0  0  0  0  0  0  0
   22.8860  -17.6682  -16.8652 C   0  0  0  0  0  0  0  0  0  0  0  0
   23.2724  -16.3374  -16.8875 C   0  0  0  0  0  0  0  0  0  0  0  0
   22.5164  -15.3674  -17.5011 C   0  0  0  0  0  0  0  0  0  0  0  0
   21.3307  -15.6902  -18.1243 C   0  0  0  0  0  0  0  0  0  0  0  0
   20.9403  -17.0119  -18.1059 C   0  0  0  0  0  0  0  0  0  0  0  0
   21.7049  -17.9771  -17.4882 C   0  0  0  0  0  0  0  0  0  0  0  0
   25.9047  -19.8843  -16.1965 C   0  0  0  0  0  0  0  0  0  0  0  0
   25.8053  -21.1258  -16.3080 O   0  0  0  0  0  0  0  0  0  0  0  0
   28.6596  -19.2530  -13.6743 C   0  0  0  0  0  0  0  0  0  0  0  0
   27.6517  -20.0857  -14.4595 C   0  0  2  0  0  0  0  0  0  0  0  0
   26.8718  -19.2673  -15.3598 N   0  0  0  0  0  0  0  0  0  0  0  0
   26.7772  -20.8615  -13.5436 C   0  0  0  0  0  0  0  0  0  0  0  0
   26.6435  -22.1048  -13.6728 O   0  0  0  0  0  0  0  0  0  0  0  0
   27.0793  -21.0204   -9.8523 C   0  0  0  0  0  0  0  0  0  0  0  0
   25.6223  -20.7923  -10.1141 C   0  0  1  0  0  0  0  0  0  0  0  0
   25.2644  -19.3813   -9.7440 C   0  0  0  0  0  0  0  0  0  0  0  0
   25.2433  -21.0294  -11.5533 C   0  0  2  0  0  0  0  0  0  0  0  0
   26.0452  -20.2542  -12.4761 N   0  0  0  0  0  0  0  0  0  0  0  0
   23.8012  -20.8070  -11.7918 C   0  0  0  0  0  0  0  0  0  0  0  0
   23.3367  -19.9366  -12.5385 O   0  0  0  0  0  0  0  0  0  0  0  0
   22.8854  -21.6314  -11.1333 O   0  0  0  0  0  0  0  0  0  0  0  0
  2  1  1  6
  3  2  1  0
  4  3  1  0
  4  9  2  0
  5  4  1  0
  6  5  2  0
  6  7  1  0
  7  8  2  0
  8  9  1  0
 10  2  1  0
 11 10  2  0
 13 12  1  1
 13 14  1  0
 13 15  1  0
 14 10  1  0
 15 21  1  0
 16 15  2  0
 18 20  1  0
 18 19  1  6
 18 17  1  0
 20 22  1  0
 20 21  1  6
 22 23  2  0
 22 24  1  0
M  END
$$$$
