FAV.pdb
     RDKit          3D

 24 24  0  0  1  0  0  0  0  0999 V2000
   28.7799  -21.0226   -9.1846 N   0  0  0  0  0  0  0  0  0  0  0  0
   27.3588  -20.7479   -9.1872 C   0  0  1  0  0  0  0  0  0  0  0  0
   27.0035  -19.5355   -8.3771 C   0  0  0  0  0  0  0  0  0  0  0  0
   27.4248  -19.5934   -6.9810 C   0  0  0  0  0  0  0  0  0  0  0  0
   28.3156  -18.6334   -6.5271 C   0  0  0  0  0  0  0  0  0  0  0  0
   28.7662  -18.6106   -5.2289 C   0  0  0  0  0  0  0  0  0  0  0  0
   28.3410  -19.5558   -4.3209 C   0  0  0  0  0  0  0  0  0  0  0  0
   27.4551  -20.5134   -4.7654 C   0  0  0  0  0  0  0  0  0  0  0  0
   27.0091  -20.5280   -6.0687 C   0  0  0  0  0  0  0  0  0  0  0  0
   26.8062  -20.7139  -10.5626 C   0  0  0  0  0  0  0  0  0  0  0  0
   27.3411  -19.9906  -11.4311 O   0  0  0  0  0  0  0  0  0  0  0  0
   24.7339  -23.0507  -12.5147 C   0  0  0  0  0  0  0  0  0  0  0  0
   25.1918  -21.6319  -12.1938 C   0  0  2  0  0  0  0  0  0  0  0  0
   25.6708  -21.5219  -10.8348 N   0  0  0  0  0  0  0  0  0  0  0  0
   24.1091  -20.6518  -12.4636 C   0  0  0  0  0  0  0  0  0  0  0  0
   23.4026  -20.1927  -11.5306 O   0  0  0  0  0  0  0  0  0  0  0  0
   24.3332  -17.5747  -15.0925 C   0  0  0  0  0  0  0  0  0  0  0  0
   23.0500  -18.3364  -15.2224 C   0  0  1  0  0  0  0  0  0  0  0  0
   23.1063  -19.2022  -16.4484 C   0  0  0  0  0  0  0  0  0  0  0  0
   22.7629  -19.2055  -14.0251 C   0  0  2  0  0  0  0  0  0  0  0  0
   23.8073  -20.1771  -13.7780 N   0  0  0  0  0  0  0  0  0  0  0  0
   21.4422  -19.8632  -14.1201 C   0  0  0  0  0  0  0  0  0  0  0  0
   21.2683  -21.0596  -14.3835 O   0  0  0  0  0  0  0  0  0  0  0  0
   20.2993  -19.0905  -13.8990 O   0  0  0  0  0  0  0  0  0  0  0  0
  2  1  1  6
  3  2  1  0
  4  3  1  0
  4  9  2  0
  5  4  1  0
  6  5  2  0
  6  7  1  0
  7  8  2  0
  8  9  1  0
 10  2  1  0
 11 10  2  0
 13 12  1  1
 13 14  1  0
 13 15  1  0
 14 10  1  0
 15 21  1  0
 16 15  2  0
 18 20  1  0
 18 19  1  6
 18 17  1  0
 20 22  1  0
 20 21  1  6
 22 23  2  0
 22 24  1  0
M  END
$$$$
