FAV.pdb
     RDKit          3D

 24 24  0  0  1  0  0  0  0  0999 V2000
   28.7218  -21.3512   -9.0981 N   0  0  0  0  0  0  0  0  0  0  0  0
   27.3215  -20.9848   -9.0947 C   0  0  1  0  0  0  0  0  0  0  0  0
   27.0452  -19.7673   -8.2618 C   0  0  0  0  0  0  0  0  0  0  0  0
   27.5297  -19.8490   -6.8875 C   0  0  0  0  0  0  0  0  0  0  0  0
   28.4889  -18.9363   -6.4778 C   0  0  0  0  0  0  0  0  0  0  0  0
   29.0021  -18.9388   -5.2028 C   0  0  0  0  0  0  0  0  0  0  0  0
   28.5738  -19.8629   -4.2748 C   0  0  0  0  0  0  0  0  0  0  0  0
   27.6200  -20.7735   -4.6755 C   0  0  0  0  0  0  0  0  0  0  0  0
   27.1116  -20.7631   -5.9558 C   0  0  0  0  0  0  0  0  0  0  0  0
   26.7732  -20.8892  -10.4689 C   0  0  0  0  0  0  0  0  0  0  0  0
   27.4097  -20.2740  -11.3521 O   0  0  0  0  0  0  0  0  0  0  0  0
   24.7774  -22.9281  -12.5886 C   0  0  0  0  0  0  0  0  0  0  0  0
   24.9931  -21.5113  -12.0671 C   0  0  2  0  0  0  0  0  0  0  0  0
   25.5238  -21.5142  -10.7229 N   0  0  0  0  0  0  0  0  0  0  0  0
   23.7392  -20.7197  -12.1488 C   0  0  0  0  0  0  0  0  0  0  0  0
   22.9975  -20.5744  -11.1442 O   0  0  0  0  0  0  0  0  0  0  0  0
   22.1185  -19.1196  -15.9427 C   0  0  0  0  0  0  0  0  0  0  0  0
   21.9404  -18.4666  -14.6065 C   0  0  1  0  0  0  0  0  0  0  0  0
   20.6118  -17.7672  -14.5668 C   0  0  0  0  0  0  0  0  0  0  0  0
   22.0094  -19.4465  -13.4636 C   0  0  2  0  0  0  0  0  0  0  0  0
   23.3042  -20.0844  -13.3535 N   0  0  0  0  0  0  0  0  0  0  0  0
   20.9290  -20.4536  -13.5296 C   0  0  0  0  0  0  0  0  0  0  0  0
   20.9749  -21.4934  -14.1989 O   0  0  0  0  0  0  0  0  0  0  0  0
   19.7665  -20.2285  -12.7880 O   0  0  0  0  0  0  0  0  0  0  0  0
  2  1  1  6
  3  2  1  0
  4  3  1  0
  4  9  2  0
  5  4  1  0
  6  5  2  0
  6  7  1  0
  7  8  2  0
  8  9  1  0
 10  2  1  0
 11 10  2  0
 13 12  1  1
 13 14  1  0
 13 15  1  0
 14 10  1  0
 15 21  1  0
 16 15  2  0
 18 20  1  0
 18 19  1  6
 18 17  1  0
 20 22  1  0
 20 21  1  6
 22 23  2  0
 22 24  1  0
M  END
$$$$
