FAV.pdb
     RDKit          3D

 24 24  0  0  1  0  0  0  0  0999 V2000
   23.2419  -12.5742  -18.6350 N   0  0  0  0  0  0  0  0  0  0  0  0
   22.5195  -11.9854  -17.5276 C   0  0  1  0  0  0  0  0  0  0  0  0
   23.1574  -12.2780  -16.2011 C   0  0  0  0  0  0  0  0  0  0  0  0
   24.5644  -11.9013  -16.1078 C   0  0  0  0  0  0  0  0  0  0  0  0
   24.8712  -10.6291  -15.6515 C   0  0  0  0  0  0  0  0  0  0  0  0
   26.1676  -10.1890  -15.5313 C   0  0  0  0  0  0  0  0  0  0  0  0
   27.2223  -11.0104  -15.8655 C   0  0  0  0  0  0  0  0  0  0  0  0
   26.9244  -12.2770  -16.3199 C   0  0  0  0  0  0  0  0  0  0  0  0
   25.6216  -12.7091  -16.4370 C   0  0  0  0  0  0  0  0  0  0  0  0
   22.2586  -10.5421  -17.7446 C   0  0  0  0  0  0  0  0  0  0  0  0
   23.1109   -9.8355  -18.3259 O   0  0  0  0  0  0  0  0  0  0  0  0
   19.1975   -8.3886  -17.4605 C   0  0  0  0  0  0  0  0  0  0  0  0
   20.7009   -8.6347  -17.5310 C   0  0  2  0  0  0  0  0  0  0  0  0
   21.0263  -10.0187  -17.2717 N   0  0  0  0  0  0  0  0  0  0  0  0
   21.4302   -7.7285  -16.6077 C   0  0  0  0  0  0  0  0  0  0  0  0
   21.6784   -8.0714  -15.4240 O   0  0  0  0  0  0  0  0  0  0  0  0
   24.5075   -3.9133  -15.9174 C   0  0  0  0  0  0  0  0  0  0  0  0
   23.7025   -4.7802  -16.8361 C   0  0  1  0  0  0  0  0  0  0  0  0
   24.6192   -5.7215  -17.5637 C   0  0  0  0  0  0  0  0  0  0  0  0
   22.6542   -5.5844  -16.1110 C   0  0  2  0  0  0  0  0  0  0  0  0
   21.8880   -6.4320  -16.9998 N   0  0  0  0  0  0  0  0  0  0  0  0
   21.7628   -4.7299  -15.2979 C   0  0  0  0  0  0  0  0  0  0  0  0
   22.0939   -4.1640  -14.2485 O   0  0  0  0  0  0  0  0  0  0  0  0
   20.4492   -4.5386  -15.7336 O   0  0  0  0  0  0  0  0  0  0  0  0
  2  1  1  6
  3  2  1  0
  4  3  1  0
  4  9  2  0
  5  4  1  0
  6  5  2  0
  6  7  1  0
  7  8  2  0
  8  9  1  0
 10  2  1  0
 11 10  2  0
 13 12  1  1
 13 14  1  0
 13 15  1  0
 14 10  1  0
 15 21  1  0
 16 15  2  0
 18 20  1  0
 18 19  1  1
 18 17  1  0
 20 22  1  0
 20 21  1  6
 22 23  2  0
 22 24  1  0
M  END
$$$$
