FAV.pdb
     RDKit          3D

 24 24  0  0  1  0  0  0  0  0999 V2000
   27.6047  -20.3045  -11.6586 N   0  0  0  0  0  0  0  0  0  0  0  0
   26.5751  -21.2776  -11.3617 C   0  0  1  0  0  0  0  0  0  0  0  0
   25.9153  -21.0340  -10.0360 C   0  0  0  0  0  0  0  0  0  0  0  0
   26.8396  -20.7798   -8.9354 C   0  0  0  0  0  0  0  0  0  0  0  0
   26.5343  -19.7594   -8.0485 C   0  0  0  0  0  0  0  0  0  0  0  0
   27.3463  -19.4498   -6.9837 C   0  0  0  0  0  0  0  0  0  0  0  0
   28.5090  -20.1541   -6.7586 C   0  0  0  0  0  0  0  0  0  0  0  0
   28.8187  -21.1703   -7.6367 C   0  0  0  0  0  0  0  0  0  0  0  0
   27.9984  -21.4732   -8.7012 C   0  0  0  0  0  0  0  0  0  0  0  0
   25.6093  -21.4166  -12.4780 C   0  0  0  0  0  0  0  0  0  0  0  0
   25.2615  -20.4078  -13.1299 O   0  0  0  0  0  0  0  0  0  0  0  0
   24.0882  -24.3916  -14.2370 C   0  0  0  0  0  0  0  0  0  0  0  0
   24.2561  -22.9122  -13.9069 C   0  0  2  0  0  0  0  0  0  0  0  0
   25.1141  -22.7170  -12.7605 N   0  0  0  0  0  0  0  0  0  0  0  0
   22.9365  -22.2603  -13.7085 C   0  0  0  0  0  0  0  0  0  0  0  0
   22.3797  -22.2530  -12.5814 O   0  0  0  0  0  0  0  0  0  0  0  0
   21.9377  -18.7300  -15.0611 C   0  0  0  0  0  0  0  0  0  0  0  0
   20.8105  -19.6809  -15.3235 C   0  0  1  0  0  0  0  0  0  0  0  0
   20.7505  -19.9893  -16.7922 C   0  0  0  0  0  0  0  0  0  0  0  0
   20.9465  -20.9728  -14.5596 C   0  0  2  0  0  0  0  0  0  0  0  0
   22.2288  -21.6116  -14.7679 N   0  0  0  0  0  0  0  0  0  0  0  0
   19.8382  -21.9079  -14.8481 C   0  0  0  0  0  0  0  0  0  0  0  0
   19.9441  -22.9387  -15.5243 O   0  0  0  0  0  0  0  0  0  0  0  0
   18.5747  -21.6197  -14.3262 O   0  0  0  0  0  0  0  0  0  0  0  0
  2  1  1  6
  3  2  1  0
  4  3  1  0
  4  9  2  0
  5  4  1  0
  6  5  2  0
  6  7  1  0
  7  8  2  0
  8  9  1  0
 10  2  1  0
 11 10  2  0
 13 12  1  1
 13 14  1  0
 13 15  1  0
 14 10  1  0
 15 21  1  0
 16 15  2  0
 18 20  1  0
 18 19  1  6
 18 17  1  0
 20 22  1  0
 20 21  1  6
 22 23  2  0
 22 24  1  0
M  END
$$$$
