FAV.pdb
     RDKit          3D

 24 24  0  0  1  0  0  0  0  0999 V2000
   28.1173  -20.5266  -15.4631 N   0  0  0  0  0  0  0  0  0  0  0  0
   27.2265  -19.8269  -14.5620 C   0  0  1  0  0  0  0  0  0  0  0  0
   26.4005  -18.7859  -15.2593 C   0  0  0  0  0  0  0  0  0  0  0  0
   27.1677  -17.6807  -15.8249 C   0  0  0  0  0  0  0  0  0  0  0  0
   27.3747  -17.6630  -17.1952 C   0  0  0  0  0  0  0  0  0  0  0  0
   28.0847  -16.6620  -17.8139 C   0  0  0  0  0  0  0  0  0  0  0  0
   28.6229  -15.6263  -17.0814 C   0  0  0  0  0  0  0  0  0  0  0  0
   28.4209  -15.6376  -15.7181 C   0  0  0  0  0  0  0  0  0  0  0  0
   27.7077  -16.6454  -15.1071 C   0  0  0  0  0  0  0  0  0  0  0  0
   26.4176  -20.7652  -13.7475 C   0  0  0  0  0  0  0  0  0  0  0  0
   25.8800  -21.7560  -14.2888 O   0  0  0  0  0  0  0  0  0  0  0  0
   25.3637  -20.8539  -10.1139 C   0  0  0  0  0  0  0  0  0  0  0  0
   25.2327  -21.1272  -11.6085 C   0  0  2  0  0  0  0  0  0  0  0  0
   26.2885  -20.4886  -12.3608 N   0  0  0  0  0  0  0  0  0  0  0  0
   23.8945  -20.7191  -12.1067 C   0  0  0  0  0  0  0  0  0  0  0  0
   23.6089  -19.5071  -12.2798 O   0  0  0  0  0  0  0  0  0  0  0  0
   22.3134  -21.2836  -15.2936 C   0  0  0  0  0  0  0  0  0  0  0  0
   21.2896  -21.7445  -14.3020 C   0  0  1  0  0  0  0  0  0  0  0  0
   21.2500  -23.2458  -14.2879 C   0  0  0  0  0  0  0  0  0  0  0  0
   21.5661  -21.2512  -12.9051 C   0  0  2  0  0  0  0  0  0  0  0  0
   22.8651  -21.6619  -12.4155 N   0  0  0  0  0  0  0  0  0  0  0  0
   20.4987  -21.6383  -11.9580 C   0  0  0  0  0  0  0  0  0  0  0  0
   20.6059  -22.5220  -11.0986 O   0  0  0  0  0  0  0  0  0  0  0  0
   19.2757  -20.9664  -12.0268 O   0  0  0  0  0  0  0  0  0  0  0  0
  2  1  1  6
  3  2  1  0
  4  3  1  0
  4  9  2  0
  5  4  1  0
  6  5  2  0
  6  7  1  0
  7  8  2  0
  8  9  1  0
 10  2  1  0
 11 10  2  0
 13 12  1  1
 13 14  1  0
 13 15  1  0
 14 10  1  0
 15 21  1  0
 16 15  2  0
 18 20  1  0
 18 19  1  1
 18 17  1  0
 20 22  1  0
 20 21  1  1
 22 23  2  0
 22 24  1  0
M  END
$$$$
