FAV.pdb
     RDKit          3D

 24 24  0  0  1  0  0  0  0  0999 V2000
   28.7928  -21.2502   -9.2504 N   0  0  0  0  0  0  0  0  0  0  0  0
   27.4074  -20.8368   -9.3198 C   0  0  1  0  0  0  0  0  0  0  0  0
   27.1622  -19.5224   -8.6383 C   0  0  0  0  0  0  0  0  0  0  0  0
   27.5145  -19.4976   -7.2221 C   0  0  0  0  0  0  0  0  0  0  0  0
   26.6337  -20.0728   -6.3197 C   0  0  0  0  0  0  0  0  0  0  0  0
   26.8835  -20.0954   -4.9684 C   0  0  0  0  0  0  0  0  0  0  0  0
   28.0357  -19.5386   -4.4574 C   0  0  0  0  0  0  0  0  0  0  0  0
   28.9161  -18.9649   -5.3492 C   0  0  0  0  0  0  0  0  0  0  0  0
   28.6569  -18.9471   -6.7021 C   0  0  0  0  0  0  0  0  0  0  0  0
   26.8875  -20.8811  -10.7076 C   0  0  0  0  0  0  0  0  0  0  0  0
   27.5305  -20.3362  -11.6313 O   0  0  0  0  0  0  0  0  0  0  0  0
   24.8034  -23.0646  -12.6676 C   0  0  0  0  0  0  0  0  0  0  0  0
   25.1214  -21.6278  -12.2674 C   0  0  2  0  0  0  0  0  0  0  0  0
   25.6572  -21.5549  -10.9272 N   0  0  0  0  0  0  0  0  0  0  0  0
   23.9263  -20.7590  -12.4170 C   0  0  0  0  0  0  0  0  0  0  0  0
   23.2160  -20.4566  -11.4248 O   0  0  0  0  0  0  0  0  0  0  0  0
   23.6249  -17.5213  -14.8715 C   0  0  0  0  0  0  0  0  0  0  0  0
   22.4370  -18.4285  -14.9689 C   0  0  1  0  0  0  0  0  0  0  0  0
   22.5136  -19.2144  -16.2465 C   0  0  0  0  0  0  0  0  0  0  0  0
   22.3389  -19.3886  -13.8115 C   0  0  2  0  0  0  0  0  0  0  0  0
   23.5153  -20.2214  -13.6765 N   0  0  0  0  0  0  0  0  0  0  0  0
   21.1134  -20.2132  -13.8762 C   0  0  0  0  0  0  0  0  0  0  0  0
   21.0669  -21.3738  -14.3025 O   0  0  0  0  0  0  0  0  0  0  0  0
   19.9141  -19.6547  -13.4271 O   0  0  0  0  0  0  0  0  0  0  0  0
  2  1  1  6
  3  2  1  0
  4  3  1  0
  4  9  2  0
  5  4  1  0
  6  5  2  0
  6  7  1  0
  7  8  2  0
  8  9  1  0
 10  2  1  0
 11 10  2  0
 13 12  1  1
 13 14  1  0
 13 15  1  0
 14 10  1  0
 15 21  1  0
 16 15  2  0
 18 20  1  0
 18 19  1  6
 18 17  1  0
 20 22  1  0
 20 21  1  6
 22 23  2  0
 22 24  1  0
M  END
$$$$
