TAW.pdb
     RDKit          3D

 27 28  0  0  1  0  0  0  0  0999 V2000
    7.4395  -12.8064   18.3965 C   0  0  0  0  0  0  0  0  0  0  0  0
    7.5044  -14.0109   19.3327 C   0  0  1  0  0  0  0  0  0  0  0  0
    7.4395  -15.1997   18.6285 O   0  0  0  0  0  0  0  0  0  0  0  0
    8.7490  -13.9177   20.2014 C   0  0  2  0  0  0  0  0  0  0  0  0
    9.8906  -13.9566   19.3427 N   0  0  0  0  0  0  0  0  0  0  0  0
    8.7640  -14.9959   21.2259 C   0  0  0  0  0  0  0  0  0  0  0  0
    7.8439  -15.0706   22.0825 O   0  0  0  0  0  0  0  0  0  0  0  0
   10.6205  -18.1745   21.8363 C   0  0  0  0  0  0  0  0  0  0  0  0
    9.7185  -17.0241   22.2493 C   0  0  2  0  0  0  0  0  0  0  0  0
    9.7926  -15.9738   21.2894 N   0  0  0  0  0  0  0  0  0  0  0  0
   10.0167  -16.5774   23.6331 C   0  0  0  0  0  0  0  0  0  0  0  0
   10.8720  -15.6643   23.7921 O   0  0  0  0  0  0  0  0  0  0  0  0
    9.3984  -17.1151   24.7843 N   0  0  0  0  0  0  0  0  0  0  0  0
    9.8004  -16.7671   26.1627 C   0  0  1  0  0  0  0  0  0  0  0  0
    8.6147  -16.4506   26.9902 C   0  0  0  0  0  0  0  0  0  0  0  0
    7.6267  -15.5235   26.4787 C   0  0  0  0  0  0  0  0  0  0  0  0
    6.4606  -15.8054   25.7593 C   0  0  0  0  0  0  0  0  0  0  0  0
    5.8454  -14.6576   25.4560 N   0  0  0  0  0  0  0  0  0  0  0  0
    6.5713  -13.6312   25.9545 C   0  0  0  0  0  0  0  0  0  0  0  0
    6.3212  -12.2730   25.8996 C   0  0  0  0  0  0  0  0  0  0  0  0
    7.1938  -11.3962   26.4951 C   0  0  0  0  0  0  0  0  0  0  0  0
    8.3103  -11.8828   27.1413 C   0  0  0  0  0  0  0  0  0  0  0  0
    8.5509  -13.2304   27.1906 C   0  0  0  0  0  0  0  0  0  0  0  0
    7.6895  -14.1376   26.5990 C   0  0  0  0  0  0  0  0  0  0  0  0
   10.7657  -17.7294   26.7001 C   0  0  0  0  0  0  0  0  0  0  0  0
   11.3001  -17.5869   27.7982 O   0  0  0  0  0  0  0  0  0  0  0  0
   11.0784  -18.8425   25.9232 O   0  0  0  0  0  0  0  0  0  0  0  0
  2  1  1  6
  2  4  1  0
  2  3  1  0
  4  6  1  0
  4  5  1  6
  6  7  2  0
  9  8  1  6
 10  9  1  0
 10  6  1  0
 11 12  2  0
 11  9  1  0
 13 11  1  0
 14 13  1  0
 14 25  1  0
 14 15  1  1
 16 15  1  0
 17 16  2  0
 18 19  1  0
 18 17  1  0
 19 24  2  0
 20 19  1  0
 20 21  2  0
 21 22  1  0
 22 23  2  0
 24 16  1  0
 24 23  1  0
 25 27  1  0
 26 25  2  0
M  END
$$$$
