TAW.pdb
     RDKit          3D

 27 28  0  0  1  0  0  0  0  0999 V2000
    9.8370  -13.6382   16.7368 C   0  0  0  0  0  0  0  0  0  0  0  0
    9.6416  -14.2719   18.1122 C   0  0  1  0  0  0  0  0  0  0  0  0
   10.2849  -13.5447   19.0975 O   0  0  0  0  0  0  0  0  0  0  0  0
    8.1564  -14.4412   18.3916 C   0  0  2  0  0  0  0  0  0  0  0  0
    7.5471  -13.1497   18.3380 N   0  0  0  0  0  0  0  0  0  0  0  0
    7.9353  -15.1270   19.6929 C   0  0  0  0  0  0  0  0  0  0  0  0
    7.7165  -14.4553   20.7353 O   0  0  0  0  0  0  0  0  0  0  0  0
    7.8236  -18.6542   20.9836 C   0  0  0  0  0  0  0  0  0  0  0  0
    7.8185  -17.1403   21.1088 C   0  0  2  0  0  0  0  0  0  0  0  0
    7.9589  -16.5414   19.8237 N   0  0  0  0  0  0  0  0  0  0  0  0
    8.8357  -16.6785   22.0864 C   0  0  0  0  0  0  0  0  0  0  0  0
    9.9557  -16.3012   21.6461 O   0  0  0  0  0  0  0  0  0  0  0  0
    8.6234  -16.6363   23.4827 N   0  0  0  0  0  0  0  0  0  0  0  0
    9.6528  -16.2053   24.4507 C   0  0  1  0  0  0  0  0  0  0  0  0
    9.3220  -14.8755   25.0100 C   0  0  0  0  0  0  0  0  0  0  0  0
    7.9923  -14.6437   25.5350 C   0  0  0  0  0  0  0  0  0  0  0  0
    6.9274  -15.5453   25.6333 C   0  0  0  0  0  0  0  0  0  0  0  0
    5.8679  -14.9160   26.1524 N   0  0  0  0  0  0  0  0  0  0  0  0
    6.2047  -13.6296   26.3984 C   0  0  0  0  0  0  0  0  0  0  0  0
    5.4428  -12.6129   26.9424 C   0  0  0  0  0  0  0  0  0  0  0  0
    5.9965  -11.3695   27.1219 C   0  0  0  0  0  0  0  0  0  0  0  0
    7.3078  -11.1508   26.7565 C   0  0  0  0  0  0  0  0  0  0  0  0
    8.0558  -12.1639   26.2175 C   0  0  0  0  0  0  0  0  0  0  0  0
    7.5243  -13.4270   26.0244 C   0  0  0  0  0  0  0  0  0  0  0  0
    9.9842  -17.2754   25.3950 C   0  0  0  0  0  0  0  0  0  0  0  0
   10.9274  -17.1962   26.1798 O   0  0  0  0  0  0  0  0  0  0  0  0
    9.1894  -18.4193   25.3894 O   0  0  0  0  0  0  0  0  0  0  0  0
  2  1  1  6
  2  4  1  0
  2  3  1  0
  4  6  1  0
  4  5  1  1
  6  7  2  0
  9  8  1  6
 10  9  1  0
 10  6  1  0
 11 12  2  0
 11  9  1  0
 13 11  1  0
 14 13  1  0
 14 25  1  0
 14 15  1  1
 16 15  1  0
 17 16  2  0
 18 19  1  0
 18 17  1  0
 19 24  2  0
 20 19  1  0
 20 21  2  0
 21 22  1  0
 22 23  2  0
 24 16  1  0
 24 23  1  0
 25 27  1  0
 26 25  2  0
M  END
$$$$
