TAW.pdb
     RDKit          3D

 27 28  0  0  1  0  0  0  0  0999 V2000
    8.3959  -12.6518   18.7130 C   0  0  0  0  0  0  0  0  0  0  0  0
    8.5193  -13.7669   19.7488 C   0  0  1  0  0  0  0  0  0  0  0  0
    9.0858  -13.3032   20.9225 O   0  0  0  0  0  0  0  0  0  0  0  0
    7.1594  -14.4090   19.9744 C   0  0  2  0  0  0  0  0  0  0  0  0
    6.2388  -13.3776   20.3362 N   0  0  0  0  0  0  0  0  0  0  0  0
    7.2438  -15.4876   20.9952 C   0  0  0  0  0  0  0  0  0  0  0  0
    6.6551  -15.3622   22.1013 O   0  0  0  0  0  0  0  0  0  0  0  0
    8.4170  -19.0264   21.1753 C   0  0  0  0  0  0  0  0  0  0  0  0
    7.9923  -17.6997   21.7813 C   0  0  2  0  0  0  0  0  0  0  0  0
    7.9754  -16.6862   20.7800 N   0  0  0  0  0  0  0  0  0  0  0  0
    8.8316  -17.3519   22.9552 C   0  0  0  0  0  0  0  0  0  0  0  0
    8.9430  -18.2024   23.8797 O   0  0  0  0  0  0  0  0  0  0  0  0
    9.5141  -16.1229   23.0985 N   0  0  0  0  0  0  0  0  0  0  0  0
   10.1775  -15.7005   24.3490 C   0  0  1  0  0  0  0  0  0  0  0  0
    9.2954  -15.9331   25.5147 C   0  0  0  0  0  0  0  0  0  0  0  0
    7.9773  -15.3334   25.5305 C   0  0  0  0  0  0  0  0  0  0  0  0
    6.7368  -15.9565   25.3581 C   0  0  0  0  0  0  0  0  0  0  0  0
    5.7715  -15.0331   25.4176 N   0  0  0  0  0  0  0  0  0  0  0  0
    6.3399  -13.8236   25.6244 C   0  0  0  0  0  0  0  0  0  0  0  0
    5.7405  -12.5864   25.7665 C   0  0  0  0  0  0  0  0  0  0  0  0
    6.5168  -11.4761   25.9890 C   0  0  0  0  0  0  0  0  0  0  0  0
    7.8867  -11.6100   26.0681 C   0  0  0  0  0  0  0  0  0  0  0  0
    8.4727  -12.8398   25.9255 C   0  0  0  0  0  0  0  0  0  0  0  0
    7.7159  -13.9762   25.6998 C   0  0  0  0  0  0  0  0  0  0  0  0
   11.5509  -16.2051   24.4258 C   0  0  0  0  0  0  0  0  0  0  0  0
   12.2944  -15.9574   25.3733 O   0  0  0  0  0  0  0  0  0  0  0  0
   12.0153  -16.9941   23.3761 O   0  0  0  0  0  0  0  0  0  0  0  0
  2  1  1  6
  2  4  1  0
  2  3  1  0
  4  6  1  0
  4  5  1  1
  6  7  2  0
  9  8  1  6
 10  9  1  0
 10  6  1  0
 11 12  2  0
 11  9  1  0
 13 11  1  0
 14 13  1  0
 14 25  1  0
 14 15  1  1
 16 15  1  0
 17 16  2  0
 18 19  1  0
 18 17  1  0
 19 24  2  0
 20 19  1  0
 20 21  2  0
 21 22  1  0
 22 23  2  0
 24 16  1  0
 24 23  1  0
 25 27  1  0
 26 25  2  0
M  END
$$$$
