TAW.pdb
     RDKit          3D

 27 28  0  0  1  0  0  0  0  0999 V2000
    5.7573  -20.5289   22.8384 C   0  0  0  0  0  0  0  0  0  0  0  0
    6.7564  -19.3975   22.6082 C   0  0  1  0  0  0  0  0  0  0  0  0
    8.0565  -19.8258   22.8078 O   0  0  0  0  0  0  0  0  0  0  0  0
    6.5468  -18.8029   21.2244 C   0  0  2  0  0  0  0  0  0  0  0  0
    6.7725  -19.8347   20.2618 N   0  0  0  0  0  0  0  0  0  0  0  0
    7.4248  -17.6205   21.0155 C   0  0  0  0  0  0  0  0  0  0  0  0
    8.5880  -17.7669   20.5560 O   0  0  0  0  0  0  0  0  0  0  0  0
    7.1418  -13.9026   21.0377 C   0  0  0  0  0  0  0  0  0  0  0  0
    7.9102  -15.2083   21.1484 C   0  0  2  0  0  0  0  0  0  0  0  0
    7.0062  -16.2967   21.3164 N   0  0  0  0  0  0  0  0  0  0  0  0
    8.9448  -15.1347   22.2104 C   0  0  0  0  0  0  0  0  0  0  0  0
    9.8740  -14.2924   22.0782 O   0  0  0  0  0  0  0  0  0  0  0  0
    8.9503  -15.9534   23.3621 N   0  0  0  0  0  0  0  0  0  0  0  0
   10.0383  -15.9464   24.3614 C   0  0  1  0  0  0  0  0  0  0  0  0
    9.6636  -15.1307   25.5383 C   0  0  0  0  0  0  0  0  0  0  0  0
    8.2696  -14.8004   25.7506 C   0  0  0  0  0  0  0  0  0  0  0  0
    7.1552  -15.6421   25.6717 C   0  0  0  0  0  0  0  0  0  0  0  0
    6.0502  -14.9287   25.9127 N   0  0  0  0  0  0  0  0  0  0  0  0
    6.4050  -13.6450   26.1479 C   0  0  0  0  0  0  0  0  0  0  0  0
    5.6086  -12.5577   26.4537 C   0  0  0  0  0  0  0  0  0  0  0  0
    6.1864  -11.3317   26.6732 C   0  0  0  0  0  0  0  0  0  0  0  0
    7.5561  -11.2011   26.5855 C   0  0  0  0  0  0  0  0  0  0  0  0
    8.3380  -12.2838   26.2813 C   0  0  0  0  0  0  0  0  0  0  0  0
    7.7836  -13.5313   26.0545 C   0  0  0  0  0  0  0  0  0  0  0  0
   10.5512  -17.2967   24.6070 C   0  0  0  0  0  0  0  0  0  0  0  0
   11.5608  -17.5091   25.2759 O   0  0  0  0  0  0  0  0  0  0  0  0
    9.8555  -18.3690   24.0537 O   0  0  0  0  0  0  0  0  0  0  0  0
  2  1  1  6
  2  4  1  0
  2  3  1  0
  4  6  1  0
  4  5  1  6
  6  7  2  0
  9  8  1  1
 10  9  1  0
 10  6  1  0
 11 12  2  0
 11  9  1  0
 13 11  1  0
 14 13  1  0
 14 25  1  0
 14 15  1  1
 16 15  1  0
 17 16  2  0
 18 19  1  0
 18 17  1  0
 19 24  2  0
 20 19  1  0
 20 21  2  0
 21 22  1  0
 22 23  2  0
 24 16  1  0
 24 23  1  0
 25 27  1  0
 26 25  2  0
M  END
$$$$
