TAW.pdb
     RDKit          3D

 27 28  0  0  1  0  0  0  0  0999 V2000
    9.5290  -20.7120   18.4641 C   0  0  0  0  0  0  0  0  0  0  0  0
    9.4549  -19.2121   18.7401 C   0  0  1  0  0  0  0  0  0  0  0  0
    8.5410  -18.5916   17.9074 O   0  0  0  0  0  0  0  0  0  0  0  0
    9.1530  -18.9765   20.2118 C   0  0  2  0  0  0  0  0  0  0  0  0
    7.8280  -19.4450   20.4710 N   0  0  0  0  0  0  0  0  0  0  0  0
    9.3359  -17.5443   20.5692 C   0  0  0  0  0  0  0  0  0  0  0  0
   10.4563  -16.9900   20.4165 O   0  0  0  0  0  0  0  0  0  0  0  0
    7.2392  -14.6271   21.5873 C   0  0  0  0  0  0  0  0  0  0  0  0
    8.5390  -15.4093   21.5064 C   0  0  2  0  0  0  0  0  0  0  0  0
    8.2813  -16.7469   21.0889 N   0  0  0  0  0  0  0  0  0  0  0  0
    9.2958  -15.3272   22.7808 C   0  0  0  0  0  0  0  0  0  0  0  0
   10.0259  -14.3172   22.9750 O   0  0  0  0  0  0  0  0  0  0  0  0
    9.2469  -16.3144   23.7905 N   0  0  0  0  0  0  0  0  0  0  0  0
   10.0878  -16.2806   25.0046 C   0  0  1  0  0  0  0  0  0  0  0  0
    9.7370  -15.1194   25.8528 C   0  0  0  0  0  0  0  0  0  0  0  0
    8.3405  -14.8103   26.0801 C   0  0  0  0  0  0  0  0  0  0  0  0
    7.2444  -15.6792   26.0651 C   0  0  0  0  0  0  0  0  0  0  0  0
    6.1285  -14.9797   26.2967 N   0  0  0  0  0  0  0  0  0  0  0  0
    6.4584  -13.6789   26.4638 C   0  0  0  0  0  0  0  0  0  0  0  0
    5.6437  -12.5962   26.7359 C   0  0  0  0  0  0  0  0  0  0  0  0
    6.1975  -11.3488   26.8851 C   0  0  0  0  0  0  0  0  0  0  0  0
    7.5617  -11.1922   26.7612 C   0  0  0  0  0  0  0  0  0  0  0  0
    8.3619  -12.2706   26.4909 C   0  0  0  0  0  0  0  0  0  0  0  0
    7.8318  -13.5393   26.3348 C   0  0  0  0  0  0  0  0  0  0  0  0
   10.1560  -17.5951   25.6480 C   0  0  0  0  0  0  0  0  0  0  0  0
    9.4736  -18.5487   25.2780 O   0  0  0  0  0  0  0  0  0  0  0  0
   11.0330  -17.7523   26.7186 O   0  0  0  0  0  0  0  0  0  0  0  0
  2  1  1  1
  2  4  1  0
  2  3  1  0
  4  6  1  0
  4  5  1  6
  6  7  2  0
  9  8  1  1
 10  9  1  0
 10  6  1  0
 11 12  2  0
 11  9  1  0
 13 11  1  0
 14 13  1  0
 14 25  1  0
 14 15  1  1
 16 15  1  0
 17 16  2  0
 18 19  1  0
 18 17  1  0
 19 24  2  0
 20 19  1  0
 20 21  2  0
 21 22  1  0
 22 23  2  0
 24 16  1  0
 24 23  1  0
 25 27  1  0
 26 25  2  0
M  END
$$$$
