TAW.pdb
     RDKit          3D

 27 28  0  0  1  0  0  0  0  0999 V2000
    7.0826  -20.7610   21.1299 C   0  0  0  0  0  0  0  0  0  0  0  0
    7.6408  -19.3687   21.4147 C   0  0  1  0  0  0  0  0  0  0  0  0
    8.8078  -19.4358   22.1543 O   0  0  0  0  0  0  0  0  0  0  0  0
    7.8242  -18.6133   20.1077 C   0  0  2  0  0  0  0  0  0  0  0  0
    8.6746  -19.3920   19.2634 N   0  0  0  0  0  0  0  0  0  0  0  0
    8.3557  -17.2461   20.3541 C   0  0  0  0  0  0  0  0  0  0  0  0
    9.5647  -16.9832   20.1197 O   0  0  0  0  0  0  0  0  0  0  0  0
    7.0666  -13.8467   21.1706 C   0  0  0  0  0  0  0  0  0  0  0  0
    8.1313  -14.9303   21.1656 C   0  0  2  0  0  0  0  0  0  0  0  0
    7.5460  -16.1915   20.8546 N   0  0  0  0  0  0  0  0  0  0  0  0
    8.8983  -14.9359   22.4365 C   0  0  0  0  0  0  0  0  0  0  0  0
    9.5361  -13.8943   22.7509 O   0  0  0  0  0  0  0  0  0  0  0  0
    8.9564  -16.0403   23.3160 N   0  0  0  0  0  0  0  0  0  0  0  0
    9.8156  -16.0809   24.5171 C   0  0  1  0  0  0  0  0  0  0  0  0
    8.9946  -16.1544   25.7464 C   0  0  0  0  0  0  0  0  0  0  0  0
    7.8012  -15.3398   25.8454 C   0  0  0  0  0  0  0  0  0  0  0  0
    6.4684  -15.7258   25.6689 C   0  0  0  0  0  0  0  0  0  0  0  0
    5.6794  -14.6572   25.8229 N   0  0  0  0  0  0  0  0  0  0  0  0
    6.4531  -13.5821   26.0957 C   0  0  0  0  0  0  0  0  0  0  0  0
    6.0806  -12.2743   26.3425 C   0  0  0  0  0  0  0  0  0  0  0  0
    7.0420  -11.3336   26.6176 C   0  0  0  0  0  0  0  0  0  0  0  0
    8.3691  -11.7065   26.6441 C   0  0  0  0  0  0  0  0  0  0  0  0
    8.7297  -13.0048   26.3977 C   0  0  0  0  0  0  0  0  0  0  0  0
    7.7828  -13.9742   26.1171 C   0  0  0  0  0  0  0  0  0  0  0  0
   10.9024  -17.0521   24.3678 C   0  0  0  0  0  0  0  0  0  0  0  0
   10.9877  -17.8057   23.4000 O   0  0  0  0  0  0  0  0  0  0  0  0
   11.8673  -17.1103   25.3707 O   0  0  0  0  0  0  0  0  0  0  0  0
  2  1  1  6
  2  4  1  0
  2  3  1  0
  4  6  1  0
  4  5  1  6
  6  7  2  0
  9  8  1  1
 10  9  1  0
 10  6  1  0
 11 12  2  0
 11  9  1  0
 13 11  1  0
 14 13  1  0
 14 25  1  0
 14 15  1  1
 16 15  1  0
 17 16  2  0
 18 19  1  0
 18 17  1  0
 19 24  2  0
 20 19  1  0
 20 21  2  0
 21 22  1  0
 22 23  2  0
 24 16  1  0
 24 23  1  0
 25 27  1  0
 26 25  2  0
M  END
$$$$
