TAW.pdb
     RDKit          3D

 27 28  0  0  1  0  0  0  0  0999 V2000
   11.6026  -17.5521   16.8918 C   0  0  0  0  0  0  0  0  0  0  0  0
   10.9934  -17.2273   18.2537 C   0  0  1  0  0  0  0  0  0  0  0  0
   11.5263  -16.0639   18.7790 O   0  0  0  0  0  0  0  0  0  0  0  0
    9.4783  -17.1709   18.1366 C   0  0  2  0  0  0  0  0  0  0  0  0
    9.1480  -16.1940   17.1473 N   0  0  0  0  0  0  0  0  0  0  0  0
    8.8535  -16.8861   19.4561 C   0  0  0  0  0  0  0  0  0  0  0  0
    8.6473  -15.6975   19.8175 O   0  0  0  0  0  0  0  0  0  0  0  0
    7.1410  -18.8209   22.1585 C   0  0  0  0  0  0  0  0  0  0  0  0
    7.8044  -17.5860   21.5730 C   0  0  2  0  0  0  0  0  0  0  0  0
    8.4663  -17.9156   20.3552 N   0  0  0  0  0  0  0  0  0  0  0  0
    8.6928  -16.9314   22.5659 C   0  0  0  0  0  0  0  0  0  0  0  0
    9.3632  -15.9297   22.1949 O   0  0  0  0  0  0  0  0  0  0  0  0
    8.8322  -17.3645   23.9037 N   0  0  0  0  0  0  0  0  0  0  0  0
    9.6934  -16.6864   24.8940 C   0  0  1  0  0  0  0  0  0  0  0  0
    9.3176  -15.2608   25.0264 C   0  0  0  0  0  0  0  0  0  0  0  0
    8.0068  -14.9235   25.5415 C   0  0  0  0  0  0  0  0  0  0  0  0
    6.9154  -15.7702   25.7621 C   0  0  0  0  0  0  0  0  0  0  0  0
    5.8873  -15.0483   26.2204 N   0  0  0  0  0  0  0  0  0  0  0  0
    6.2705  -13.7543   26.3080 C   0  0  0  0  0  0  0  0  0  0  0  0
    5.5529  -12.6553   26.7407 C   0  0  0  0  0  0  0  0  0  0  0  0
    6.1500  -11.4192   26.7639 C   0  0  0  0  0  0  0  0  0  0  0  0
    7.4602  -11.2902   26.3545 C   0  0  0  0  0  0  0  0  0  0  0  0
    8.1641  -12.3846   25.9266 C   0  0  0  0  0  0  0  0  0  0  0  0
    7.5882  -13.6425   25.8918 C   0  0  0  0  0  0  0  0  0  0  0  0
    9.8193  -17.4721   26.1243 C   0  0  0  0  0  0  0  0  0  0  0  0
    9.0841  -18.4241   26.3791 O   0  0  0  0  0  0  0  0  0  0  0  0
   10.8157  -17.1123   27.0287 O   0  0  0  0  0  0  0  0  0  0  0  0
  2  1  1  6
  2  4  1  0
  2  3  1  0
  4  6  1  0
  4  5  1  6
  6  7  2  0
  9  8  1  1
 10  9  1  0
 10  6  1  0
 11 12  2  0
 11  9  1  0
 13 11  1  0
 14 13  1  0
 14 25  1  0
 14 15  1  1
 16 15  1  0
 17 16  2  0
 18 19  1  0
 18 17  1  0
 19 24  2  0
 20 19  1  0
 20 21  2  0
 21 22  1  0
 22 23  2  0
 24 16  1  0
 24 23  1  0
 25 27  1  0
 26 25  2  0
M  END
$$$$
