TAW.pdb
     RDKit          3D

 27 28  0  0  1  0  0  0  0  0999 V2000
    6.7154  -20.6824   20.8071 C   0  0  0  0  0  0  0  0  0  0  0  0
    7.4380  -19.3942   21.1940 C   0  0  1  0  0  0  0  0  0  0  0  0
    8.6683  -19.6599   21.7678 O   0  0  0  0  0  0  0  0  0  0  0  0
    7.5476  -18.4843   19.9805 C   0  0  2  0  0  0  0  0  0  0  0  0
    8.2455  -19.1961   18.9566 N   0  0  0  0  0  0  0  0  0  0  0  0
    8.2061  -17.1992   20.3375 C   0  0  0  0  0  0  0  0  0  0  0  0
    9.4482  -17.0587   20.1856 O   0  0  0  0  0  0  0  0  0  0  0  0
    7.2109  -13.7130   21.1727 C   0  0  0  0  0  0  0  0  0  0  0  0
    8.1720  -14.8893   21.1948 C   0  0  2  0  0  0  0  0  0  0  0  0
    7.4848  -16.0905   20.8560 N   0  0  0  0  0  0  0  0  0  0  0  0
    8.8927  -14.9701   22.4901 C   0  0  0  0  0  0  0  0  0  0  0  0
    9.6274  -14.0007   22.8234 O   0  0  0  0  0  0  0  0  0  0  0  0
    8.8044  -16.0699   23.3728 N   0  0  0  0  0  0  0  0  0  0  0  0
    9.6387  -16.2118   24.5836 C   0  0  1  0  0  0  0  0  0  0  0  0
    8.7930  -16.3078   25.7945 C   0  0  0  0  0  0  0  0  0  0  0  0
    7.6433  -15.4361   25.9209 C   0  0  0  0  0  0  0  0  0  0  0  0
    6.2970  -15.7335   25.6848 C   0  0  0  0  0  0  0  0  0  0  0  0
    5.5633  -14.6353   25.8939 N   0  0  0  0  0  0  0  0  0  0  0  0
    6.3862  -13.6267   26.2605 C   0  0  0  0  0  0  0  0  0  0  0  0
    6.0784  -12.3201   26.5892 C   0  0  0  0  0  0  0  0  0  0  0  0
    7.0813  -11.4561   26.9534 C   0  0  0  0  0  0  0  0  0  0  0  0
    8.3849  -11.9040   26.9865 C   0  0  0  0  0  0  0  0  0  0  0  0
    8.6813  -13.2005   26.6586 C   0  0  0  0  0  0  0  0  0  0  0  0
    7.6914  -14.0935   26.2872 C   0  0  0  0  0  0  0  0  0  0  0  0
   10.6815  -17.2249   24.4021 C   0  0  0  0  0  0  0  0  0  0  0  0
   10.7495  -17.9314   23.3981 O   0  0  0  0  0  0  0  0  0  0  0  0
   11.6235  -17.3800   25.4163 O   0  0  0  0  0  0  0  0  0  0  0  0
  2  1  1  6
  2  4  1  0
  2  3  1  0
  4  6  1  0
  4  5  1  6
  6  7  2  0
  9  8  1  1
 10  9  1  0
 10  6  1  0
 11 12  2  0
 11  9  1  0
 13 11  1  0
 14 13  1  0
 14 25  1  0
 14 15  1  1
 16 15  1  0
 17 16  2  0
 18 19  1  0
 18 17  1  0
 19 24  2  0
 20 19  1  0
 20 21  2  0
 21 22  1  0
 22 23  2  0
 24 16  1  0
 24 23  1  0
 25 27  1  0
 26 25  2  0
M  END
$$$$
