TAW.pdb
     RDKit          3D

 27 28  0  0  1  0  0  0  0  0999 V2000
    9.3699  -12.9039   17.8288 C   0  0  0  0  0  0  0  0  0  0  0  0
    9.2843  -13.6738   19.1446 C   0  0  1  0  0  0  0  0  0  0  0  0
    9.5032  -12.8433   20.2289 O   0  0  0  0  0  0  0  0  0  0  0  0
    7.9500  -14.3984   19.2280 C   0  0  2  0  0  0  0  0  0  0  0  0
    6.9108  -13.4216   19.1363 N   0  0  0  0  0  0  0  0  0  0  0  0
    7.8643  -15.2131   20.4695 C   0  0  0  0  0  0  0  0  0  0  0  0
    7.4227  -14.7045   21.5334 O   0  0  0  0  0  0  0  0  0  0  0  0
    8.4348  -18.7753   21.4961 C   0  0  0  0  0  0  0  0  0  0  0  0
    8.1924  -17.2963   21.7441 C   0  0  2  0  0  0  0  0  0  0  0  0
    8.2668  -16.5747   20.5178 N   0  0  0  0  0  0  0  0  0  0  0  0
    9.1036  -16.7706   22.7913 C   0  0  0  0  0  0  0  0  0  0  0  0
   10.0915  -16.0766   22.4264 O   0  0  0  0  0  0  0  0  0  0  0  0
    8.9298  -17.0017   24.1744 N   0  0  0  0  0  0  0  0  0  0  0  0
    9.8730  -16.5222   25.2054 C   0  0  1  0  0  0  0  0  0  0  0  0
    9.5233  -15.1507   25.6384 C   0  0  0  0  0  0  0  0  0  0  0  0
    8.1271  -14.7806   25.7440 C   0  0  0  0  0  0  0  0  0  0  0  0
    7.0021  -15.6106   25.6983 C   0  0  0  0  0  0  0  0  0  0  0  0
    5.9004  -14.8604   25.8064 N   0  0  0  0  0  0  0  0  0  0  0  0
    6.2676  -13.5641   25.9222 C   0  0  0  0  0  0  0  0  0  0  0  0
    5.4780  -12.4395   26.0709 C   0  0  0  0  0  0  0  0  0  0  0  0
    6.0676  -11.2052   26.1884 C   0  0  0  0  0  0  0  0  0  0  0  0
    7.4422  -11.1034   26.1567 C   0  0  0  0  0  0  0  0  0  0  0  0
    8.2174  -12.2230   26.0085 C   0  0  0  0  0  0  0  0  0  0  0  0
    7.6511  -13.4798   25.8870 C   0  0  0  0  0  0  0  0  0  0  0  0
   10.0872  -17.5291   26.2479 C   0  0  0  0  0  0  0  0  0  0  0  0
    9.3894  -18.5366   26.3476 O   0  0  0  0  0  0  0  0  0  0  0  0
   11.1257  -17.3206   27.1524 O   0  0  0  0  0  0  0  0  0  0  0  0
  2  1  1  6
  2  4  1  0
  2  3  1  0
  4  6  1  0
  4  5  1  1
  6  7  2  0
  9  8  1  6
 10  9  1  0
 10  6  1  0
 11 12  2  0
 11  9  1  0
 13 11  1  0
 14 13  1  0
 14 25  1  0
 14 15  1  1
 16 15  1  0
 17 16  2  0
 18 19  1  0
 18 17  1  0
 19 24  2  0
 20 19  1  0
 20 21  2  0
 21 22  1  0
 22 23  2  0
 24 16  1  0
 24 23  1  0
 25 27  1  0
 26 25  2  0
M  END
$$$$
