TAW.pdb
     RDKit          3D

 27 28  0  0  1  0  0  0  0  0999 V2000
    8.7297  -19.4662   20.2294 C   0  0  0  0  0  0  0  0  0  0  0  0
    9.7756  -18.8928   19.2761 C   0  0  1  0  0  0  0  0  0  0  0  0
   10.0170  -19.7511   18.2185 O   0  0  0  0  0  0  0  0  0  0  0  0
    9.3442  -17.5096   18.8147 C   0  0  2  0  0  0  0  0  0  0  0  0
   10.1614  -17.1407   17.7019 N   0  0  0  0  0  0  0  0  0  0  0  0
    9.4182  -16.5297   19.9313 C   0  0  0  0  0  0  0  0  0  0  0  0
   10.5240  -16.2679   20.4739 O   0  0  0  0  0  0  0  0  0  0  0  0
    7.0914  -14.2109   21.7468 C   0  0  0  0  0  0  0  0  0  0  0  0
    8.3990  -14.9521   21.5263 C   0  0  2  0  0  0  0  0  0  0  0  0
    8.2724  -15.8548   20.4313 N   0  0  0  0  0  0  0  0  0  0  0  0
    8.8636  -15.6054   22.7757 C   0  0  0  0  0  0  0  0  0  0  0  0
    8.5899  -16.8246   22.9466 O   0  0  0  0  0  0  0  0  0  0  0  0
    9.5952  -14.9417   23.7860 N   0  0  0  0  0  0  0  0  0  0  0  0
   10.0855  -15.6095   25.0091 C   0  0  1  0  0  0  0  0  0  0  0  0
    8.9560  -15.9919   25.8860 C   0  0  0  0  0  0  0  0  0  0  0  0
    7.7341  -15.2159   25.8384 C   0  0  0  0  0  0  0  0  0  0  0  0
    6.4612  -15.6236   25.4260 C   0  0  0  0  0  0  0  0  0  0  0  0
    5.6204  -14.5874   25.5131 N   0  0  0  0  0  0  0  0  0  0  0  0
    6.3020  -13.5127   25.9705 C   0  0  0  0  0  0  0  0  0  0  0  0
    5.8487  -12.2332   26.2305 C   0  0  0  0  0  0  0  0  0  0  0  0
    6.7199  -11.2879   26.7126 C   0  0  0  0  0  0  0  0  0  0  0  0
    8.0380  -11.6279   26.9315 C   0  0  0  0  0  0  0  0  0  0  0  0
    8.4791  -12.8982   26.6706 C   0  0  0  0  0  0  0  0  0  0  0  0
    7.6241  -13.8714   26.1836 C   0  0  0  0  0  0  0  0  0  0  0  0
   11.0811  -16.6382   24.6975 C   0  0  0  0  0  0  0  0  0  0  0  0
   11.4873  -17.4409   25.5357 O   0  0  0  0  0  0  0  0  0  0  0  0
   11.5758  -16.6941   23.3966 O   0  0  0  0  0  0  0  0  0  0  0  0
  2  1  1  1
  2  4  1  0
  2  3  1  0
  4  6  1  0
  4  5  1  6
  6  7  2  0
  9  8  1  1
 10  9  1  0
 10  6  1  0
 11 12  2  0
 11  9  1  0
 13 11  1  0
 14 13  1  0
 14 25  1  0
 14 15  1  6
 16 15  1  0
 17 16  2  0
 18 19  1  0
 18 17  1  0
 19 24  2  0
 20 19  1  0
 20 21  2  0
 21 22  1  0
 22 23  2  0
 24 16  1  0
 24 23  1  0
 25 27  1  0
 26 25  2  0
M  END
$$$$
