TAW.pdb
     RDKit          3D

 27 28  0  0  1  0  0  0  0  0999 V2000
    9.1928  -20.4120   18.8561 C   0  0  0  0  0  0  0  0  0  0  0  0
    9.4768  -19.2971   19.8600 C   0  0  1  0  0  0  0  0  0  0  0  0
   10.7477  -19.4120   20.3938 O   0  0  0  0  0  0  0  0  0  0  0  0
    9.2426  -17.9454   19.2038 C   0  0  2  0  0  0  0  0  0  0  0  0
   10.1437  -17.8281   18.1009 N   0  0  0  0  0  0  0  0  0  0  0  0
    9.3953  -16.8423   20.1899 C   0  0  0  0  0  0  0  0  0  0  0  0
   10.5421  -16.4454   20.5260 O   0  0  0  0  0  0  0  0  0  0  0  0
    7.2297  -14.3508   21.9380 C   0  0  0  0  0  0  0  0  0  0  0  0
    8.4892  -15.1835   21.7708 C   0  0  2  0  0  0  0  0  0  0  0  0
    8.2816  -16.1951   20.7892 N   0  0  0  0  0  0  0  0  0  0  0  0
    8.9575  -15.7172   23.0744 C   0  0  0  0  0  0  0  0  0  0  0  0
    8.5852  -16.8740   23.4119 O   0  0  0  0  0  0  0  0  0  0  0  0
    9.7968  -15.0054   23.9607 N   0  0  0  0  0  0  0  0  0  0  0  0
   10.3705  -15.5934   25.1885 C   0  0  1  0  0  0  0  0  0  0  0  0
    9.5121  -15.3035   26.3590 C   0  0  0  0  0  0  0  0  0  0  0  0
    8.1254  -14.9459   26.1434 C   0  0  0  0  0  0  0  0  0  0  0  0
    7.0750  -15.7612   25.7091 C   0  0  0  0  0  0  0  0  0  0  0  0
    5.9608  -15.0276   25.6176 N   0  0  0  0  0  0  0  0  0  0  0  0
    6.2473  -13.7563   25.9789 C   0  0  0  0  0  0  0  0  0  0  0  0
    5.4131  -12.6568   26.0519 C   0  0  0  0  0  0  0  0  0  0  0  0
    5.9157  -11.4478   26.4650 C   0  0  0  0  0  0  0  0  0  0  0  0
    7.2487  -11.3461   26.8023 C   0  0  0  0  0  0  0  0  0  0  0  0
    8.0687  -12.4407   26.7267 C   0  0  0  0  0  0  0  0  0  0  0  0
    7.5902  -13.6716   26.3132 C   0  0  0  0  0  0  0  0  0  0  0  0
   10.7827  -16.9833   24.9769 C   0  0  0  0  0  0  0  0  0  0  0  0
   11.4815  -17.3284   24.0259 O   0  0  0  0  0  0  0  0  0  0  0  0
   10.3573  -17.9371   25.8985 O   0  0  0  0  0  0  0  0  0  0  0  0
  2  1  1  6
  2  4  1  0
  2  3  1  0
  4  6  1  0
  4  5  1  6
  6  7  2  0
  9  8  1  1
 10  9  1  0
 10  6  1  0
 11 12  2  0
 11  9  1  0
 13 11  1  0
 14 13  1  0
 14 25  1  0
 14 15  1  1
 16 15  1  0
 17 16  2  0
 18 19  1  0
 18 17  1  0
 19 24  2  0
 20 19  1  0
 20 21  2  0
 21 22  1  0
 22 23  2  0
 24 16  1  0
 24 23  1  0
 25 27  1  0
 26 25  2  0
M  END
$$$$
