TAW.pdb
     RDKit          3D

 27 28  0  0  1  0  0  0  0  0999 V2000
    9.0670  -12.6863   20.3335 C   0  0  0  0  0  0  0  0  0  0  0  0
    8.1543  -13.1896   19.2176 C   0  0  1  0  0  0  0  0  0  0  0  0
    8.3158  -12.4469   18.0618 O   0  0  0  0  0  0  0  0  0  0  0  0
    8.3924  -14.6744   18.9919 C   0  0  2  0  0  0  0  0  0  0  0  0
    7.5437  -15.1002   17.9240 N   0  0  0  0  0  0  0  0  0  0  0  0
    8.1696  -15.4448   20.2446 C   0  0  0  0  0  0  0  0  0  0  0  0
    7.1688  -16.2011   20.3553 O   0  0  0  0  0  0  0  0  0  0  0  0
    9.8737  -17.6373   21.2570 C   0  0  0  0  0  0  0  0  0  0  0  0
    9.3164  -16.5307   22.1361 C   0  0  2  0  0  0  0  0  0  0  0  0
    9.0533  -15.3689   21.3544 N   0  0  0  0  0  0  0  0  0  0  0  0
   10.2031  -16.2690   23.2975 C   0  0  0  0  0  0  0  0  0  0  0  0
   11.3587  -16.7740   23.2892 O   0  0  0  0  0  0  0  0  0  0  0  0
    9.8288  -15.4867   24.4131 N   0  0  0  0  0  0  0  0  0  0  0  0
   10.0874  -15.8859   25.8117 C   0  0  1  0  0  0  0  0  0  0  0  0
    8.8215  -16.2102   26.5067 C   0  0  0  0  0  0  0  0  0  0  0  0
    7.6579  -15.3801   26.2733 C   0  0  0  0  0  0  0  0  0  0  0  0
    6.3724  -15.7742   25.8877 C   0  0  0  0  0  0  0  0  0  0  0  0
    5.6029  -14.6885   25.7565 N   0  0  0  0  0  0  0  0  0  0  0  0
    6.3435  -13.5942   26.0447 C   0  0  0  0  0  0  0  0  0  0  0  0
    5.9722  -12.2630   26.0565 C   0  0  0  0  0  0  0  0  0  0  0  0
    6.8921  -11.3034   26.3996 C   0  0  0  0  0  0  0  0  0  0  0  0
    8.1767  -11.6808   26.7285 C   0  0  0  0  0  0  0  0  0  0  0  0
    8.5365  -13.0024   26.7138 C   0  0  0  0  0  0  0  0  0  0  0  0
    7.6310  -13.9913   26.3715 C   0  0  0  0  0  0  0  0  0  0  0  0
   11.1786  -16.8597   25.8996 C   0  0  0  0  0  0  0  0  0  0  0  0
   11.6774  -17.1991   26.9710 O   0  0  0  0  0  0  0  0  0  0  0  0
   11.6569  -17.4119   24.7137 O   0  0  0  0  0  0  0  0  0  0  0  0
  2  1  1  1
  2  4  1  0
  2  3  1  0
  4  6  1  0
  4  5  1  6
  6  7  2  0
  9  8  1  6
 10  9  1  0
 10  6  1  0
 11 12  2  0
 11  9  1  0
 13 11  1  0
 14 13  1  0
 14 25  1  0
 14 15  1  6
 16 15  1  0
 17 16  2  0
 18 19  1  0
 18 17  1  0
 19 24  2  0
 20 19  1  0
 20 21  2  0
 21 22  1  0
 22 23  2  0
 24 16  1  0
 24 23  1  0
 25 27  1  0
 26 25  2  0
M  END
$$$$
