TAW.pdb
     RDKit          3D

 27 28  0  0  1  0  0  0  0  0999 V2000
   10.7860  -13.5073   19.4887 C   0  0  0  0  0  0  0  0  0  0  0  0
    9.3895  -13.0014   19.1350 C   0  0  1  0  0  0  0  0  0  0  0  0
    9.4348  -12.0738   18.1099 O   0  0  0  0  0  0  0  0  0  0  0  0
    8.4844  -14.1800   18.8121 C   0  0  2  0  0  0  0  0  0  0  0  0
    7.1993  -13.6655   18.4574 N   0  0  0  0  0  0  0  0  0  0  0  0
    8.4266  -15.1336   19.9522 C   0  0  0  0  0  0  0  0  0  0  0  0
    7.7324  -14.8669   20.9684 O   0  0  0  0  0  0  0  0  0  0  0  0
    9.6499  -18.5850   20.7503 C   0  0  0  0  0  0  0  0  0  0  0  0
    9.0716  -17.2220   21.0900 C   0  0  2  0  0  0  0  0  0  0  0  0
    9.1347  -16.3652   19.9534 N   0  0  0  0  0  0  0  0  0  0  0  0
    9.7209  -16.6479   22.2952 C   0  0  0  0  0  0  0  0  0  0  0  0
   10.7562  -15.9457   22.1355 O   0  0  0  0  0  0  0  0  0  0  0  0
    9.2473  -16.8418   23.6123 N   0  0  0  0  0  0  0  0  0  0  0  0
    9.9520  -16.3466   24.8126 C   0  0  1  0  0  0  0  0  0  0  0  0
    9.5363  -14.9621   25.1304 C   0  0  0  0  0  0  0  0  0  0  0  0
    8.1458  -14.6976   25.4368 C   0  0  0  0  0  0  0  0  0  0  0  0
    7.0614  -15.5796   25.3849 C   0  0  0  0  0  0  0  0  0  0  0  0
    5.9463  -14.9222   25.7201 N   0  0  0  0  0  0  0  0  0  0  0  0
    6.2654  -13.6362   25.9910 C   0  0  0  0  0  0  0  0  0  0  0  0
    5.4478  -12.5958   26.3898 C   0  0  0  0  0  0  0  0  0  0  0  0
    5.9906  -11.3577   26.6296 C   0  0  0  0  0  0  0  0  0  0  0  0
    7.3468  -11.1682   26.4693 C   0  0  0  0  0  0  0  0  0  0  0  0
    8.1499  -12.2047   26.0733 C   0  0  0  0  0  0  0  0  0  0  0  0
    7.6308  -13.4630   25.8237 C   0  0  0  0  0  0  0  0  0  0  0  0
    9.9215  -17.3304   25.8978 C   0  0  0  0  0  0  0  0  0  0  0  0
    9.1698  -18.3034   25.8875 O   0  0  0  0  0  0  0  0  0  0  0  0
   10.7841  -17.1402   26.9748 O   0  0  0  0  0  0  0  0  0  0  0  0
  2  1  1  6
  2  4  1  0
  2  3  1  0
  4  6  1  0
  4  5  1  1
  6  7  2  0
  9  8  1  6
 10  9  1  0
 10  6  1  0
 11 12  2  0
 11  9  1  0
 13 11  1  0
 14 13  1  0
 14 25  1  0
 14 15  1  1
 16 15  1  0
 17 16  2  0
 18 19  1  0
 18 17  1  0
 19 24  2  0
 20 19  1  0
 20 21  2  0
 21 22  1  0
 22 23  2  0
 24 16  1  0
 24 23  1  0
 25 27  1  0
 26 25  2  0
M  END
$$$$
