TAW.pdb
     RDKit          3D

 27 28  0  0  1  0  0  0  0  0999 V2000
   10.5158  -13.2899   19.6537 C   0  0  0  0  0  0  0  0  0  0  0  0
    9.0888  -13.0727   19.1559 C   0  0  1  0  0  0  0  0  0  0  0  0
    9.0638  -12.2546   18.0407 O   0  0  0  0  0  0  0  0  0  0  0  0
    8.4238  -14.4170   18.9051 C   0  0  2  0  0  0  0  0  0  0  0  0
    7.0925  -14.1723   18.4468 N   0  0  0  0  0  0  0  0  0  0  0  0
    8.4640  -15.2659   20.1259 C   0  0  0  0  0  0  0  0  0  0  0  0
    7.7830  -14.9544   21.1383 O   0  0  0  0  0  0  0  0  0  0  0  0
    9.8681  -18.5890   21.1314 C   0  0  0  0  0  0  0  0  0  0  0  0
    9.2222  -17.2390   21.3922 C   0  0  2  0  0  0  0  0  0  0  0  0
    9.2539  -16.4436   20.2106 N   0  0  0  0  0  0  0  0  0  0  0  0
    9.8330  -16.5692   22.5678 C   0  0  0  0  0  0  0  0  0  0  0  0
   10.7844  -15.7660   22.3669 O   0  0  0  0  0  0  0  0  0  0  0  0
    9.4112  -16.7782   23.9000 N   0  0  0  0  0  0  0  0  0  0  0  0
   10.1746  -16.3179   25.0780 C   0  0  1  0  0  0  0  0  0  0  0  0
    9.6856  -14.9983   25.5366 C   0  0  0  0  0  0  0  0  0  0  0  0
    8.2932  -14.8540   25.9080 C   0  0  0  0  0  0  0  0  0  0  0  0
    7.3016  -15.8391   25.9622 C   0  0  0  0  0  0  0  0  0  0  0  0
    6.1450  -15.2760   26.3271 N   0  0  0  0  0  0  0  0  0  0  0  0
    6.3470  -13.9520   26.5146 C   0  0  0  0  0  0  0  0  0  0  0  0
    5.4508  -12.9757   26.9067 C   0  0  0  0  0  0  0  0  0  0  0  0
    5.8782  -11.6792   27.0530 C   0  0  0  0  0  0  0  0  0  0  0  0
    7.1985  -11.3676   26.8064 C   0  0  0  0  0  0  0  0  0  0  0  0
    8.0800  -12.3412   26.4176 C   0  0  0  0  0  0  0  0  0  0  0  0
    7.6776  -13.6560   26.2614 C   0  0  0  0  0  0  0  0  0  0  0  0
   10.3073  -17.3782   26.0804 C   0  0  0  0  0  0  0  0  0  0  0  0
    9.6796  -18.4334   26.0139 O   0  0  0  0  0  0  0  0  0  0  0  0
   11.1826  -17.1654   27.1428 O   0  0  0  0  0  0  0  0  0  0  0  0
  2  1  1  6
  2  4  1  0
  2  3  1  0
  4  6  1  0
  4  5  1  1
  6  7  2  0
  9  8  1  6
 10  9  1  0
 10  6  1  0
 11 12  2  0
 11  9  1  0
 13 11  1  0
 14 13  1  0
 14 25  1  0
 14 15  1  1
 16 15  1  0
 17 16  2  0
 18 19  1  0
 18 17  1  0
 19 24  2  0
 20 19  1  0
 20 21  2  0
 21 22  1  0
 22 23  2  0
 24 16  1  0
 24 23  1  0
 25 27  1  0
 26 25  2  0
M  END
$$$$
