MWQ.pdb
     RDKit          3D

 32 33  0  0  1  0  0  0  0  0999 V2000
   31.2705  -20.8056  -18.8020 C   0  0  0  0  0  0  0  0  0  0  0  0
   31.2849  -22.5436  -19.2473 S   0  0  0  0  0  0  0  0  0  0  0  0
   29.8377  -23.4712  -18.7939 C   0  0  0  0  0  0  0  0  0  0  0  0
   29.3012  -23.2232  -17.4114 C   0  0  0  0  0  0  0  0  0  0  0  0
   27.9939  -22.5311  -17.4644 C   0  0  2  0  0  0  0  0  0  0  0  0
   28.0825  -21.1928  -18.0112 N   0  0  0  0  0  0  0  0  0  0  0  0
   27.4495  -22.4175  -16.0550 C   0  0  0  0  0  0  0  0  0  0  0  0
   27.3024  -23.4299  -15.3382 O   0  0  0  0  0  0  0  0  0  0  0  0
   27.0916  -21.1762  -15.5029 N   0  0  0  0  0  0  0  0  0  0  0  0
   26.5765  -21.0602  -14.1518 C   0  0  1  0  0  0  0  0  0  0  0  0
   27.2727  -20.0223  -13.3610 C   0  0  0  0  0  0  0  0  0  0  0  0
   26.9130  -20.0852  -11.9420 C   0  0  0  0  0  0  0  0  0  0  0  0
   25.7104  -19.7407  -11.3611 C   0  0  0  0  0  0  0  0  0  0  0  0
   25.7934  -19.9055  -10.0305 N   0  0  0  0  0  0  0  0  0  0  0  0
   27.0277  -20.3547   -9.7073 C   0  0  0  0  0  0  0  0  0  0  0  0
   27.5517  -20.6761   -8.4710 C   0  0  0  0  0  0  0  0  0  0  0  0
   28.8512  -21.1381   -8.4288 C   0  0  0  0  0  0  0  0  0  0  0  0
   29.5854  -21.2682   -9.5889 C   0  0  0  0  0  0  0  0  0  0  0  0
   29.0458  -20.9444  -10.7914 C   0  0  0  0  0  0  0  0  0  0  0  0
   27.7319  -20.4698  -10.8925 C   0  0  0  0  0  0  0  0  0  0  0  0
   25.1045  -21.0703  -14.1254 C   0  0  0  0  0  0  0  0  0  0  0  0
   24.3974  -20.5685  -15.0386 O   0  0  0  0  0  0  0  0  0  0  0  0
   21.4431  -22.6343   -9.1212 N   0  0  0  0  0  0  0  0  0  0  0  0
   20.4906  -22.3746  -10.1290 C   0  0  0  0  0  0  0  0  0  0  0  0
   19.2764  -22.3846   -9.8780 O   0  0  0  0  0  0  0  0  0  0  0  0
   20.9032  -22.0752  -11.5481 C   0  0  0  0  0  0  0  0  0  0  0  0
   22.3843  -22.0579  -11.6865 C   0  0  0  0  0  0  0  0  0  0  0  0
   22.9041  -21.7628  -13.0631 C   0  0  2  0  0  0  0  0  0  0  0  0
   24.3638  -21.6578  -13.0494 N   0  0  0  0  0  0  0  0  0  0  0  0
   22.3493  -20.4819  -13.5357 C   0  0  0  0  0  0  0  0  0  0  0  0
   21.4488  -20.3448  -14.3976 O   0  0  0  0  0  0  0  0  0  0  0  0
   22.8714  -19.2981  -12.9739 O   0  0  0  0  0  0  0  0  0  0  0  0
  1  2  1  0
  3  2  1  0
  4  3  1  0
  5  4  1  0
  5  6  1  1
  7  5  1  0
  7  8  2  0
  9  7  1  0
 10  9  1  0
 11 12  1  0
 10 11  1  6
 12 13  2  0
 13 14  1  0
 15 14  1  0
 16 15  2  0
 17 16  1  0
 18 19  1  0
 18 17  2  0
 19 20  2  0
 20 12  1  0
 20 15  1  0
 21 10  1  0
 22 21  2  0
 23 24  1  0
 24 26  1  0
 24 25  2  0
 26 27  1  0
 28 27  1  1
 28 29  1  0
 28 30  1  0
 29 21  1  0
 30 31  2  0
 30 32  1  0
M  END
$$$$
