MWQ.pdb
     RDKit          3D

 32 33  0  0  1  0  0  0  0  0999 V2000
   27.8752  -18.5086  -17.8099 C   0  0  0  0  0  0  0  0  0  0  0  0
   28.9409  -18.6662  -16.3752 S   0  0  0  0  0  0  0  0  0  0  0  0
   28.3454  -17.9084  -14.8812 C   0  0  0  0  0  0  0  0  0  0  0  0
   27.3585  -18.7126  -14.0814 C   0  0  0  0  0  0  0  0  0  0  0  0
   28.0261  -19.8377  -13.3891 C   0  0  2  0  0  0  0  0  0  0  0  0
   28.5616  -20.8273  -14.3012 N   0  0  0  0  0  0  0  0  0  0  0  0
   27.0113  -20.5303  -12.5024 C   0  0  0  0  0  0  0  0  0  0  0  0
   26.3680  -21.5198  -12.9116 O   0  0  0  0  0  0  0  0  0  0  0  0
   26.7565  -20.0893  -11.1931 N   0  0  0  0  0  0  0  0  0  0  0  0
   25.6162  -20.5662  -10.4339 C   0  0  1  0  0  0  0  0  0  0  0  0
   25.7813  -20.3811   -8.9759 C   0  0  0  0  0  0  0  0  0  0  0  0
   27.1359  -20.7212   -8.5328 C   0  0  0  0  0  0  0  0  0  0  0  0
   28.0844  -21.4580   -9.2108 C   0  0  0  0  0  0  0  0  0  0  0  0
   29.1848  -21.5783   -8.4497 N   0  0  0  0  0  0  0  0  0  0  0  0
   28.9936  -20.9359   -7.2748 C   0  0  0  0  0  0  0  0  0  0  0  0
   29.8526  -20.7838   -6.2046 C   0  0  0  0  0  0  0  0  0  0  0  0
   29.4038  -20.0515   -5.1246 C   0  0  0  0  0  0  0  0  0  0  0  0
   28.1405  -19.4986   -5.1307 C   0  0  0  0  0  0  0  0  0  0  0  0
   27.3158  -19.6642   -6.1959 C   0  0  0  0  0  0  0  0  0  0  0  0
   27.7194  -20.3987   -7.3182 C   0  0  0  0  0  0  0  0  0  0  0  0
   24.3419  -20.1445  -11.0388 C   0  0  0  0  0  0  0  0  0  0  0  0
   24.1754  -19.0171  -11.5746 O   0  0  0  0  0  0  0  0  0  0  0  0
   21.8997  -22.1731  -15.7935 N   0  0  0  0  0  0  0  0  0  0  0  0
   21.9290  -23.1055  -14.7351 C   0  0  0  0  0  0  0  0  0  0  0  0
   21.9866  -24.3236  -14.9588 O   0  0  0  0  0  0  0  0  0  0  0  0
   21.8915  -22.6659  -13.2932 C   0  0  0  0  0  0  0  0  0  0  0  0
   21.9964  -21.1864  -13.1780 C   0  0  0  0  0  0  0  0  0  0  0  0
   21.9641  -20.6403  -11.7805 C   0  0  2  0  0  0  0  0  0  0  0  0
   23.1892  -20.9943  -11.0622 N   0  0  0  0  0  0  0  0  0  0  0  0
   20.8164  -21.2120  -11.0540 C   0  0  0  0  0  0  0  0  0  0  0  0
   20.8810  -22.0278  -10.1038 O   0  0  0  0  0  0  0  0  0  0  0  0
   19.5250  -20.8117  -11.4562 O   0  0  0  0  0  0  0  0  0  0  0  0
  1  2  1  0
  3  2  1  0
  4  3  1  0
  5  4  1  0
  5  6  1  6
  7  5  1  0
  7  8  2  0
  9  7  1  0
 10  9  1  0
 11 12  1  0
 10 11  1  1
 12 13  2  0
 13 14  1  0
 15 14  1  0
 16 15  2  0
 17 16  1  0
 18 19  1  0
 18 17  2  0
 19 20  2  0
 20 12  1  0
 20 15  1  0
 21 10  1  0
 22 21  2  0
 23 24  1  0
 24 26  1  0
 24 25  2  0
 26 27  1  0
 28 27  1  6
 28 29  1  0
 28 30  1  0
 29 21  1  0
 30 31  2  0
 30 32  1  0
M  END
$$$$
