MWQ.pdb
     RDKit          3D

 32 33  0  0  1  0  0  0  0  0999 V2000
   25.8013  -18.3263  -20.7711 C   0  0  0  0  0  0  0  0  0  0  0  0
   27.5211  -18.3368  -20.2598 S   0  0  0  0  0  0  0  0  0  0  0  0
   28.1056  -19.8534  -19.5395 C   0  0  0  0  0  0  0  0  0  0  0  0
   27.2757  -20.4143  -18.4183 C   0  0  0  0  0  0  0  0  0  0  0  0
   27.0064  -19.3849  -17.3894 C   0  0  2  0  0  0  0  0  0  0  0  0
   28.1928  -18.6540  -16.9943 N   0  0  0  0  0  0  0  0  0  0  0  0
   26.4541  -20.0681  -16.1549 C   0  0  0  0  0  0  0  0  0  0  0  0
   25.5579  -20.9337  -16.2448 O   0  0  0  0  0  0  0  0  0  0  0  0
   26.9261  -19.7566  -14.8689 N   0  0  0  0  0  0  0  0  0  0  0  0
   26.3476  -20.3488  -13.6778 C   0  0  1  0  0  0  0  0  0  0  0  0
   27.1828  -20.1459  -12.4742 C   0  0  0  0  0  0  0  0  0  0  0  0
   26.6022  -20.7891  -11.2926 C   0  0  0  0  0  0  0  0  0  0  0  0
   26.0348  -22.0434  -11.2090 C   0  0  0  0  0  0  0  0  0  0  0  0
   25.5844  -22.2478   -9.9600 N   0  0  0  0  0  0  0  0  0  0  0  0
   25.8393  -21.1556   -9.2038 C   0  0  0  0  0  0  0  0  0  0  0  0
   25.5707  -20.9269   -7.8689 C   0  0  0  0  0  0  0  0  0  0  0  0
   25.9632  -19.7157   -7.3370 C   0  0  0  0  0  0  0  0  0  0  0  0
   26.5997  -18.7792   -8.1242 C   0  0  0  0  0  0  0  0  0  0  0  0
   26.8510  -19.0297   -9.4343 C   0  0  0  0  0  0  0  0  0  0  0  0
   26.4737  -20.2417  -10.0262 C   0  0  0  0  0  0  0  0  0  0  0  0
   24.9075  -20.0626  -13.5694 C   0  0  0  0  0  0  0  0  0  0  0  0
   24.4191  -18.9162  -13.7514 O   0  0  0  0  0  0  0  0  0  0  0  0
   20.0796  -24.3173  -14.6513 N   0  0  0  0  0  0  0  0  0  0  0  0
   19.7172  -22.9682  -14.8493 C   0  0  0  0  0  0  0  0  0  0  0  0
   18.8882  -22.6502  -15.7147 O   0  0  0  0  0  0  0  0  0  0  0  0
   20.3177  -21.8591  -14.0229 C   0  0  0  0  0  0  0  0  0  0  0  0
   21.8038  -21.9265  -14.0290 C   0  0  0  0  0  0  0  0  0  0  0  0
   22.5061  -20.8350  -13.2755 C   0  0  2  0  0  0  0  0  0  0  0  0
   23.9492  -21.0771  -13.2468 N   0  0  0  0  0  0  0  0  0  0  0  0
   22.0123  -20.7975  -11.8874 C   0  0  0  0  0  0  0  0  0  0  0  0
   22.3960  -21.5381  -10.9510 O   0  0  0  0  0  0  0  0  0  0  0  0
   21.0189  -19.8464  -11.5741 O   0  0  0  0  0  0  0  0  0  0  0  0
  1  2  1  0
  3  2  1  0
  4  3  1  0
  5  4  1  0
  5  6  1  1
  7  5  1  0
  7  8  2  0
  9  7  1  0
 10  9  1  0
 11 12  1  0
 10 11  1  1
 12 13  2  0
 13 14  1  0
 15 14  1  0
 16 15  2  0
 17 16  1  0
 18 19  1  0
 18 17  2  0
 19 20  2  0
 20 12  1  0
 20 15  1  0
 21 10  1  0
 22 21  2  0
 23 24  1  0
 24 26  1  0
 24 25  2  0
 26 27  1  0
 28 27  1  6
 28 29  1  0
 28 30  1  0
 29 21  1  0
 30 31  2  0
 30 32  1  0
M  END
$$$$
