MWQ.pdb
     RDKit          3D

 32 33  0  0  1  0  0  0  0  0999 V2000
   16.2254  -13.9945  -20.8459 C   0  0  0  0  0  0  0  0  0  0  0  0
   16.7584  -12.9437  -19.4928 S   0  0  0  0  0  0  0  0  0  0  0  0
   16.0625  -13.3190  -17.9005 C   0  0  0  0  0  0  0  0  0  0  0  0
   16.4813  -12.4217  -16.7692 C   0  0  0  0  0  0  0  0  0  0  0  0
   17.9264  -12.5655  -16.4833 C   0  0  2  0  0  0  0  0  0  0  0  0
   18.2660  -13.8516  -15.9101 N   0  0  0  0  0  0  0  0  0  0  0  0
   18.3312  -11.4968  -15.4883 C   0  0  0  0  0  0  0  0  0  0  0  0
   17.8896  -11.5048  -14.3198 O   0  0  0  0  0  0  0  0  0  0  0  0
   19.2140  -10.4618  -15.8394 N   0  0  0  0  0  0  0  0  0  0  0  0
   19.5962   -9.4296  -14.8947 C   0  0  1  0  0  0  0  0  0  0  0  0
   20.9283   -8.8550  -15.1825 C   0  0  0  0  0  0  0  0  0  0  0  0
   21.2936   -7.8146  -14.2177 C   0  0  0  0  0  0  0  0  0  0  0  0
   21.5811   -7.9709  -12.8779 C   0  0  0  0  0  0  0  0  0  0  0  0
   21.8317   -6.7695  -12.3315 N   0  0  0  0  0  0  0  0  0  0  0  0
   21.7190   -5.8104  -13.2787 C   0  0  0  0  0  0  0  0  0  0  0  0
   21.9036   -4.4459  -13.1761 C   0  0  0  0  0  0  0  0  0  0  0  0
   21.7437   -3.6921  -14.3208 C   0  0  0  0  0  0  0  0  0  0  0  0
   21.4116   -4.2959  -15.5153 C   0  0  0  0  0  0  0  0  0  0  0  0
   21.2353   -5.6397  -15.5880 C   0  0  0  0  0  0  0  0  0  0  0  0
   21.3842   -6.4528  -14.4573 C   0  0  0  0  0  0  0  0  0  0  0  0
   18.4896   -8.4957  -14.6281 C   0  0  0  0  0  0  0  0  0  0  0  0
   17.7039   -8.0878  -15.5238 O   0  0  0  0  0  0  0  0  0  0  0  0
   15.9902   -7.4404   -8.8917 N   0  0  0  0  0  0  0  0  0  0  0  0
   15.2772   -6.5166   -9.6845 C   0  0  0  0  0  0  0  0  0  0  0  0
   14.3589   -5.8370   -9.2028 O   0  0  0  0  0  0  0  0  0  0  0  0
   15.5972   -6.3153  -11.1442 C   0  0  0  0  0  0  0  0  0  0  0  0
   16.6656   -7.2472  -11.5952 C   0  0  0  0  0  0  0  0  0  0  0  0
   17.0813   -7.1118  -13.0309 C   0  0  2  0  0  0  0  0  0  0  0  0
   18.2242   -7.9797  -13.3187 N   0  0  0  0  0  0  0  0  0  0  0  0
   17.4754   -5.7176  -13.3008 C   0  0  0  0  0  0  0  0  0  0  0  0
   16.7090   -4.7251  -13.3039 O   0  0  0  0  0  0  0  0  0  0  0  0
   18.8347   -5.4669  -13.5819 O   0  0  0  0  0  0  0  0  0  0  0  0
  1  2  1  0
  3  2  1  0
  4  3  1  0
  5  4  1  0
  5  6  1  1
  7  5  1  0
  7  8  2  0
  9  7  1  0
 10  9  1  0
 11 12  1  0
 10 11  1  6
 12 13  2  0
 13 14  1  0
 15 14  1  0
 16 15  2  0
 17 16  1  0
 18 19  1  0
 18 17  2  0
 19 20  2  0
 20 12  1  0
 20 15  1  0
 21 10  1  0
 22 21  2  0
 23 24  1  0
 24 26  1  0
 24 25  2  0
 26 27  1  0
 28 27  1  1
 28 29  1  0
 28 30  1  0
 29 21  1  0
 30 31  2  0
 30 32  1  0
M  END
$$$$
