MWQ.pdb
     RDKit          3D

 32 33  0  0  1  0  0  0  0  0999 V2000
   31.0856  -24.3017  -16.0498 C   0  0  0  0  0  0  0  0  0  0  0  0
   30.0047  -24.0548  -17.4604 S   0  0  0  0  0  0  0  0  0  0  0  0
   28.6934  -22.8759  -17.2343 C   0  0  0  0  0  0  0  0  0  0  0  0
   28.0540  -22.8529  -15.8737 C   0  0  0  0  0  0  0  0  0  0  0  0
   26.9722  -21.8447  -15.8114 C   0  0  2  0  0  0  0  0  0  0  0  0
   27.4604  -20.4833  -15.8906 N   0  0  0  0  0  0  0  0  0  0  0  0
   26.2449  -21.9968  -14.4908 C   0  0  0  0  0  0  0  0  0  0  0  0
   25.9662  -23.1263  -14.0359 O   0  0  0  0  0  0  0  0  0  0  0  0
   25.8588  -20.8799  -13.7312 N   0  0  0  0  0  0  0  0  0  0  0  0
   25.0848  -21.0150  -12.5118 C   0  0  1  0  0  0  0  0  0  0  0  0
   25.5239  -20.0849  -11.4491 C   0  0  0  0  0  0  0  0  0  0  0  0
   26.7687  -20.5284  -10.8162 C   0  0  0  0  0  0  0  0  0  0  0  0
   27.8587  -21.1181  -11.4217 C   0  0  0  0  0  0  0  0  0  0  0  0
   28.7827  -21.4105  -10.4915 N   0  0  0  0  0  0  0  0  0  0  0  0
   28.3346  -21.0277   -9.2740 C   0  0  0  0  0  0  0  0  0  0  0  0
   28.9507  -21.1158   -8.0414 C   0  0  0  0  0  0  0  0  0  0  0  0
   28.2673  -20.6218   -6.9492 C   0  0  0  0  0  0  0  0  0  0  0  0
   27.0155  -20.0636   -7.1011 C   0  0  0  0  0  0  0  0  0  0  0  0
   26.4325  -19.9901   -8.3246 C   0  0  0  0  0  0  0  0  0  0  0  0
   27.0803  -20.4768   -9.4670 C   0  0  0  0  0  0  0  0  0  0  0  0
   23.6417  -21.1087  -12.7881 C   0  0  0  0  0  0  0  0  0  0  0  0
   23.0910  -20.5388  -13.7668 O   0  0  0  0  0  0  0  0  0  0  0  0
   19.4043  -24.1861   -9.0763 N   0  0  0  0  0  0  0  0  0  0  0  0
   18.5766  -23.5859  -10.0484 C   0  0  0  0  0  0  0  0  0  0  0  0
   17.3438  -23.7098  -10.0019 O   0  0  0  0  0  0  0  0  0  0  0  0
   19.1498  -22.7718  -11.1809 C   0  0  0  0  0  0  0  0  0  0  0  0
   20.6245  -22.6277  -11.0484 C   0  0  0  0  0  0  0  0  0  0  0  0
   21.2991  -21.8365  -12.1307 C   0  0  2  0  0  0  0  0  0  0  0  0
   22.7520  -21.8621  -11.9561 N   0  0  0  0  0  0  0  0  0  0  0  0
   20.8474  -20.4350  -12.0716 C   0  0  0  0  0  0  0  0  0  0  0  0
   21.1952  -19.5865  -11.2162 O   0  0  0  0  0  0  0  0  0  0  0  0
   19.9426  -19.9991  -13.0620 O   0  0  0  0  0  0  0  0  0  0  0  0
  1  2  1  0
  3  2  1  0
  4  3  1  0
  5  4  1  0
  5  6  1  1
  7  5  1  0
  7  8  2  0
  9  7  1  0
 10  9  1  0
 11 12  1  0
 10 11  1  1
 12 13  2  0
 13 14  1  0
 15 14  1  0
 16 15  2  0
 17 16  1  0
 18 19  1  0
 18 17  2  0
 19 20  2  0
 20 12  1  0
 20 15  1  0
 21 10  1  0
 22 21  2  0
 23 24  1  0
 24 26  1  0
 24 25  2  0
 26 27  1  0
 28 27  1  1
 28 29  1  0
 28 30  1  0
 29 21  1  0
 30 31  2  0
 30 32  1  0
M  END
$$$$
