MWQ.pdb
     RDKit          3D

 32 33  0  0  1  0  0  0  0  0999 V2000
   28.0745  -16.0734  -15.4929 C   0  0  0  0  0  0  0  0  0  0  0  0
   27.9393  -17.3535  -16.7428 S   0  0  0  0  0  0  0  0  0  0  0  0
   28.2600  -19.0125  -16.1902 C   0  0  0  0  0  0  0  0  0  0  0  0
   27.9533  -19.2979  -14.7463 C   0  0  0  0  0  0  0  0  0  0  0  0
   28.3109  -20.6897  -14.3916 C   0  0  2  0  0  0  0  0  0  0  0  0
   27.9558  -21.6461  -15.4199 N   0  0  0  0  0  0  0  0  0  0  0  0
   27.5663  -21.0736  -13.1291 C   0  0  0  0  0  0  0  0  0  0  0  0
   26.4604  -21.6518  -13.1846 O   0  0  0  0  0  0  0  0  0  0  0  0
   28.0882  -20.7962  -11.8546 N   0  0  0  0  0  0  0  0  0  0  0  0
   27.2887  -20.9410  -10.6529 C   0  0  1  0  0  0  0  0  0  0  0  0
   28.0574  -20.6724   -9.4182 C   0  0  0  0  0  0  0  0  0  0  0  0
   27.1806  -20.4914   -8.2584 C   0  0  0  0  0  0  0  0  0  0  0  0
   25.8039  -20.5680   -8.2223 C   0  0  0  0  0  0  0  0  0  0  0  0
   25.3741  -20.3029   -6.9775 N   0  0  0  0  0  0  0  0  0  0  0  0
   26.4353  -20.0510   -6.1774 C   0  0  0  0  0  0  0  0  0  0  0  0
   26.4705  -19.7507   -4.8302 C   0  0  0  0  0  0  0  0  0  0  0  0
   27.7080  -19.5588   -4.2509 C   0  0  0  0  0  0  0  0  0  0  0  0
   28.8577  -19.6670   -5.0047 C   0  0  0  0  0  0  0  0  0  0  0  0
   28.7944  -19.9628   -6.3279 C   0  0  0  0  0  0  0  0  0  0  0  0
   27.5651  -20.1666   -6.9674 C   0  0  0  0  0  0  0  0  0  0  0  0
   25.9705  -20.3005  -10.7930 C   0  0  0  0  0  0  0  0  0  0  0  0
   25.8125  -19.0514  -10.8180 O   0  0  0  0  0  0  0  0  0  0  0  0
   22.6502  -22.8961  -15.0457 N   0  0  0  0  0  0  0  0  0  0  0  0
   21.7148  -21.9143  -14.6565 C   0  0  0  0  0  0  0  0  0  0  0  0
   20.6563  -21.7571  -15.2827 O   0  0  0  0  0  0  0  0  0  0  0  0
   21.9583  -21.0173  -13.4692 C   0  0  0  0  0  0  0  0  0  0  0  0
   23.2378  -21.3570  -12.7905 C   0  0  0  0  0  0  0  0  0  0  0  0
   23.5666  -20.5370  -11.5773 C   0  0  2  0  0  0  0  0  0  0  0  0
   24.7615  -21.0591  -10.9128 N   0  0  0  0  0  0  0  0  0  0  0  0
   22.4427  -20.5919  -10.6256 C   0  0  0  0  0  0  0  0  0  0  0  0
   22.4170  -21.2463   -9.5562 O   0  0  0  0  0  0  0  0  0  0  0  0
   21.2877  -19.8443  -10.9366 O   0  0  0  0  0  0  0  0  0  0  0  0
  1  2  1  0
  3  2  1  0
  4  3  1  0
  5  4  1  0
  5  6  1  6
  7  5  1  0
  7  8  2  0
  9  7  1  0
 10  9  1  0
 11 12  1  0
 10 11  1  1
 12 13  2  0
 13 14  1  0
 15 14  1  0
 16 15  2  0
 17 16  1  0
 18 19  1  0
 18 17  2  0
 19 20  2  0
 20 12  1  0
 20 15  1  0
 21 10  1  0
 22 21  2  0
 23 24  1  0
 24 26  1  0
 24 25  2  0
 26 27  1  0
 28 27  1  6
 28 29  1  0
 28 30  1  0
 29 21  1  0
 30 31  2  0
 30 32  1  0
M  END
$$$$
