MWQ.pdb
     RDKit          3D

 32 33  0  0  1  0  0  0  0  0999 V2000
   29.5678  -21.9905   -3.9774 C   0  0  0  0  0  0  0  0  0  0  0  0
   28.2967  -20.7403   -4.1787 S   0  0  0  0  0  0  0  0  0  0  0  0
   28.3529  -19.8163   -5.6965 C   0  0  0  0  0  0  0  0  0  0  0  0
   27.3833  -20.2413   -6.7641 C   0  0  0  0  0  0  0  0  0  0  0  0
   27.5251  -19.4029   -7.9756 C   0  0  2  0  0  0  0  0  0  0  0  0
   27.3542  -17.9893   -7.7103 N   0  0  0  0  0  0  0  0  0  0  0  0
   26.4641  -19.8151   -8.9758 C   0  0  0  0  0  0  0  0  0  0  0  0
   25.3460  -19.2586   -8.9941 O   0  0  0  0  0  0  0  0  0  0  0  0
   26.6959  -20.8329   -9.9160 N   0  0  0  0  0  0  0  0  0  0  0  0
   26.2569  -20.7156  -11.2936 C   0  0  1  0  0  0  0  0  0  0  0  0
   27.2420  -21.2545  -12.2562 C   0  0  0  0  0  0  0  0  0  0  0  0
   26.8227  -21.0397  -13.6436 C   0  0  0  0  0  0  0  0  0  0  0  0
   26.9724  -19.8977  -14.4022 C   0  0  0  0  0  0  0  0  0  0  0  0
   26.4224  -20.0899  -15.6126 N   0  0  0  0  0  0  0  0  0  0  0  0
   25.9076  -21.3389  -15.6814 C   0  0  0  0  0  0  0  0  0  0  0  0
   25.2684  -21.9712  -16.7293 C   0  0  0  0  0  0  0  0  0  0  0  0
   24.8575  -23.2739  -16.5340 C   0  0  0  0  0  0  0  0  0  0  0  0
   25.0851  -23.9061  -15.3297 C   0  0  0  0  0  0  0  0  0  0  0  0
   25.7154  -23.2608  -14.3156 C   0  0  0  0  0  0  0  0  0  0  0  0
   26.1528  -21.9379  -14.4587 C   0  0  0  0  0  0  0  0  0  0  0  0
   24.8498  -21.1176  -11.4549 C   0  0  0  0  0  0  0  0  0  0  0  0
   24.3254  -22.0598  -10.8044 O   0  0  0  0  0  0  0  0  0  0  0  0
   20.4692  -21.5762  -10.0703 N   0  0  0  0  0  0  0  0  0  0  0  0
   19.6442  -21.1507  -11.1327 C   0  0  0  0  0  0  0  0  0  0  0  0
   18.4481  -21.4734  -11.1810 O   0  0  0  0  0  0  0  0  0  0  0  0
   20.1763  -20.2900  -12.2506 C   0  0  0  0  0  0  0  0  0  0  0  0
   21.6086  -19.9508  -12.0347 C   0  0  0  0  0  0  0  0  0  0  0  0
   22.5991  -20.9180  -12.6143 C   0  0  2  0  0  0  0  0  0  0  0  0
   23.9675  -20.4593  -12.3713 N   0  0  0  0  0  0  0  0  0  0  0  0
   22.3939  -21.0210  -14.0701 C   0  0  0  0  0  0  0  0  0  0  0  0
   22.9167  -20.2840  -14.9395 O   0  0  0  0  0  0  0  0  0  0  0  0
   21.5340  -22.0368  -14.5372 O   0  0  0  0  0  0  0  0  0  0  0  0
  1  2  1  0
  3  2  1  0
  4  3  1  0
  5  4  1  0
  5  6  1  1
  7  5  1  0
  7  8  2  0
  9  7  1  0
 10  9  1  0
 11 12  1  0
 10 11  1  6
 12 13  2  0
 13 14  1  0
 15 14  1  0
 16 15  2  0
 17 16  1  0
 18 19  1  0
 18 17  2  0
 19 20  2  0
 20 12  1  0
 20 15  1  0
 21 10  1  0
 22 21  2  0
 23 24  1  0
 24 26  1  0
 24 25  2  0
 26 27  1  0
 28 27  1  6
 28 29  1  0
 28 30  1  0
 29 21  1  0
 30 31  2  0
 30 32  1  0
M  END
$$$$
