MWQ.pdb
     RDKit          3D

 32 33  0  0  1  0  0  0  0  0999 V2000
   19.2163  -25.5809  -10.6385 C   0  0  0  0  0  0  0  0  0  0  0  0
   18.8145  -23.9291  -10.0647 S   0  0  0  0  0  0  0  0  0  0  0  0
   18.1167  -22.8354  -11.2802 C   0  0  0  0  0  0  0  0  0  0  0  0
   19.0490  -21.8041  -11.8527 C   0  0  0  0  0  0  0  0  0  0  0  0
   19.9129  -22.3917  -12.9011 C   0  0  2  0  0  0  0  0  0  0  0  0
   20.6649  -23.5399  -12.4385 N   0  0  0  0  0  0  0  0  0  0  0  0
   20.9074  -21.3416  -13.3527 C   0  0  0  0  0  0  0  0  0  0  0  0
   20.5230  -20.2689  -13.8645 O   0  0  0  0  0  0  0  0  0  0  0  0
   22.2923  -21.5325  -13.2137 N   0  0  0  0  0  0  0  0  0  0  0  0
   23.2516  -20.5699  -13.7210 C   0  0  1  0  0  0  0  0  0  0  0  0
   24.4973  -20.5292  -12.9249 C   0  0  0  0  0  0  0  0  0  0  0  0
   25.4940  -19.6332  -13.5170 C   0  0  0  0  0  0  0  0  0  0  0  0
   25.4904  -18.2539  -13.5217 C   0  0  0  0  0  0  0  0  0  0  0  0
   26.5602  -17.8066  -14.1999 N   0  0  0  0  0  0  0  0  0  0  0  0
   27.2821  -18.8585  -14.6494 C   0  0  0  0  0  0  0  0  0  0  0  0
   28.4583  -18.8745  -15.3724 C   0  0  0  0  0  0  0  0  0  0  0  0
   28.9992  -20.1049  -15.6846 C   0  0  0  0  0  0  0  0  0  0  0  0
   28.3747  -21.2664  -15.2811 C   0  0  0  0  0  0  0  0  0  0  0  0
   27.2185  -21.2220  -14.5717 C   0  0  0  0  0  0  0  0  0  0  0  0
   26.6249  -20.0008  -14.2281 C   0  0  0  0  0  0  0  0  0  0  0  0
   23.3762  -20.6427  -15.1862 C   0  0  0  0  0  0  0  0  0  0  0  0
   23.4669  -21.7300  -15.8150 O   0  0  0  0  0  0  0  0  0  0  0  0
   19.7395  -21.2704  -17.7792 N   0  0  0  0  0  0  0  0  0  0  0  0
   19.8409  -19.9421  -18.2437 C   0  0  0  0  0  0  0  0  0  0  0  0
   18.8293  -19.2940  -18.5503 O   0  0  0  0  0  0  0  0  0  0  0  0
   21.1752  -19.2548  -18.3876 C   0  0  0  0  0  0  0  0  0  0  0  0
   22.2950  -20.1782  -18.0614 C   0  0  0  0  0  0  0  0  0  0  0  0
   23.5143  -19.5355  -17.4676 C   0  0  2  0  0  0  0  0  0  0  0  0
   23.4027  -19.4711  -16.0097 N   0  0  0  0  0  0  0  0  0  0  0  0
   23.6498  -18.1624  -17.9855 C   0  0  0  0  0  0  0  0  0  0  0  0
   23.2975  -17.1154  -17.3921 O   0  0  0  0  0  0  0  0  0  0  0  0
   24.2265  -18.0011  -19.2626 O   0  0  0  0  0  0  0  0  0  0  0  0
  1  2  1  0
  3  2  1  0
  4  3  1  0
  5  4  1  0
  5  6  1  1
  7  5  1  0
  7  8  2  0
  9  7  1  0
 10  9  1  0
 11 12  1  0
 10 11  1  1
 12 13  2  0
 13 14  1  0
 15 14  1  0
 16 15  2  0
 17 16  1  0
 18 19  1  0
 18 17  2  0
 19 20  2  0
 20 12  1  0
 20 15  1  0
 21 10  1  0
 22 21  2  0
 23 24  1  0
 24 26  1  0
 24 25  2  0
 26 27  1  0
 28 27  1  6
 28 29  1  0
 28 30  1  0
 29 21  1  0
 30 31  2  0
 30 32  1  0
M  END
$$$$
