MWQ.pdb
     RDKit          3D

 32 33  0  0  1  0  0  0  0  0999 V2000
   27.1886  -22.9383  -18.6009 C   0  0  0  0  0  0  0  0  0  0  0  0
   27.0489  -21.1581  -18.4260 S   0  0  0  0  0  0  0  0  0  0  0  0
   27.8353  -20.4565  -16.9943 C   0  0  0  0  0  0  0  0  0  0  0  0
   27.1347  -20.6761  -15.6824 C   0  0  0  0  0  0  0  0  0  0  0  0
   27.9971  -21.4193  -14.7366 C   0  0  2  0  0  0  0  0  0  0  0  0
   28.2871  -22.7692  -15.1744 N   0  0  0  0  0  0  0  0  0  0  0  0
   27.2849  -21.5111  -13.4024 C   0  0  0  0  0  0  0  0  0  0  0  0
   26.1795  -22.0839  -13.3009 O   0  0  0  0  0  0  0  0  0  0  0  0
   27.8373  -20.9591  -12.2346 N   0  0  0  0  0  0  0  0  0  0  0  0
   27.0900  -20.8916  -10.9932 C   0  0  1  0  0  0  0  0  0  0  0  0
   27.9002  -20.3855   -9.8641 C   0  0  0  0  0  0  0  0  0  0  0  0
   27.1196  -20.3018   -8.6270 C   0  0  0  0  0  0  0  0  0  0  0  0
   25.7600  -20.4765   -8.4748 C   0  0  0  0  0  0  0  0  0  0  0  0
   25.4254  -20.2799   -7.1887 N   0  0  0  0  0  0  0  0  0  0  0  0
   26.5340  -19.9779   -6.4748 C   0  0  0  0  0  0  0  0  0  0  0  0
   26.6682  -19.7164   -5.1257 C   0  0  0  0  0  0  0  0  0  0  0  0
   27.9365  -19.4552   -4.6491 C   0  0  0  0  0  0  0  0  0  0  0  0
   29.0194  -19.4592   -5.5030 C   0  0  0  0  0  0  0  0  0  0  0  0
   28.8590  -19.7188   -6.8255 C   0  0  0  0  0  0  0  0  0  0  0  0
   27.5944  -19.9896   -7.3633 C   0  0  0  0  0  0  0  0  0  0  0  0
   25.7518  -20.3107  -11.1917 C   0  0  0  0  0  0  0  0  0  0  0  0
   25.5403  -19.0699  -11.2310 O   0  0  0  0  0  0  0  0  0  0  0  0
   21.2750  -22.7763  -14.6892 N   0  0  0  0  0  0  0  0  0  0  0  0
   22.1420  -21.7362  -15.0851 C   0  0  0  0  0  0  0  0  0  0  0  0
   22.3204  -21.4751  -16.2839 O   0  0  0  0  0  0  0  0  0  0  0  0
   22.8866  -20.9004  -14.0747 C   0  0  0  0  0  0  0  0  0  0  0  0
   22.5491  -21.3081  -12.6844 C   0  0  0  0  0  0  0  0  0  0  0  0
   23.2566  -20.5537  -11.5969 C   0  0  2  0  0  0  0  0  0  0  0  0
   24.5834  -21.1225  -11.3565 N   0  0  0  0  0  0  0  0  0  0  0  0
   22.4784  -20.6424  -10.3485 C   0  0  0  0  0  0  0  0  0  0  0  0
   21.6111  -19.8226   -9.9637 O   0  0  0  0  0  0  0  0  0  0  0  0
   22.7241  -21.7451   -9.5040 O   0  0  0  0  0  0  0  0  0  0  0  0
  1  2  1  0
  3  2  1  0
  4  3  1  0
  5  4  1  0
  5  6  1  6
  7  5  1  0
  7  8  2  0
  9  7  1  0
 10  9  1  0
 11 12  1  0
 10 11  1  1
 12 13  2  0
 13 14  1  0
 15 14  1  0
 16 15  2  0
 17 16  1  0
 18 19  1  0
 18 17  2  0
 19 20  2  0
 20 12  1  0
 20 15  1  0
 21 10  1  0
 22 21  2  0
 23 24  1  0
 24 26  1  0
 24 25  2  0
 26 27  1  0
 28 27  1  6
 28 29  1  0
 28 30  1  0
 29 21  1  0
 30 31  2  0
 30 32  1  0
M  END
$$$$
