MWQ.pdb
     RDKit          3D

 32 33  0  0  1  0  0  0  0  0999 V2000
   30.3221  -18.7122  -15.9172 C   0  0  0  0  0  0  0  0  0  0  0  0
   28.7629  -17.8503  -15.7051 S   0  0  0  0  0  0  0  0  0  0  0  0
   27.3004  -18.7965  -16.0606 C   0  0  0  0  0  0  0  0  0  0  0  0
   26.6212  -19.4307  -14.8786 C   0  0  0  0  0  0  0  0  0  0  0  0
   27.3746  -20.6128  -14.4035 C   0  0  2  0  0  0  0  0  0  0  0  0
   27.2852  -21.7425  -15.3057 N   0  0  0  0  0  0  0  0  0  0  0  0
   26.8048  -21.0444  -13.0675 C   0  0  0  0  0  0  0  0  0  0  0  0
   25.6949  -21.6129  -12.9945 O   0  0  0  0  0  0  0  0  0  0  0  0
   27.4990  -20.8236  -11.8663 N   0  0  0  0  0  0  0  0  0  0  0  0
   26.8252  -20.8291  -10.5817 C   0  0  1  0  0  0  0  0  0  0  0  0
   27.7302  -20.4995   -9.4592 C   0  0  0  0  0  0  0  0  0  0  0  0
   27.0178  -20.4538   -8.1797 C   0  0  0  0  0  0  0  0  0  0  0  0
   25.7069  -20.8036   -7.9317 C   0  0  0  0  0  0  0  0  0  0  0  0
   25.4225  -20.5824   -6.6376 N   0  0  0  0  0  0  0  0  0  0  0  0
   26.5171  -20.0922   -6.0121 C   0  0  0  0  0  0  0  0  0  0  0  0
   26.6907  -19.7393   -4.6886 C   0  0  0  0  0  0  0  0  0  0  0  0
   27.9352  -19.2810   -4.3079 C   0  0  0  0  0  0  0  0  0  0  0  0
   28.9573  -19.1851   -5.2288 C   0  0  0  0  0  0  0  0  0  0  0  0
   28.7591  -19.5382   -6.5243 C   0  0  0  0  0  0  0  0  0  0  0  0
   27.5160  -20.0090   -6.9656 C   0  0  0  0  0  0  0  0  0  0  0  0
   25.5274  -20.1366  -10.6423 C   0  0  0  0  0  0  0  0  0  0  0  0
   25.4198  -18.8856  -10.7383 O   0  0  0  0  0  0  0  0  0  0  0  0
   23.6217  -17.9534  -14.4469 N   0  0  0  0  0  0  0  0  0  0  0  0
   22.2783  -18.2271  -14.1139 C   0  0  0  0  0  0  0  0  0  0  0  0
   21.3509  -17.5721  -14.6121 O   0  0  0  0  0  0  0  0  0  0  0  0
   21.9117  -19.3212  -13.1433 C   0  0  0  0  0  0  0  0  0  0  0  0
   23.1250  -19.9344  -12.5391 C   0  0  0  0  0  0  0  0  0  0  0  0
   23.0283  -20.2600  -11.0772 C   0  0  2  0  0  0  0  0  0  0  0  0
   24.2820  -20.8426  -10.5967 N   0  0  0  0  0  0  0  0  0  0  0  0
   21.9470  -21.2375  -10.8602 C   0  0  0  0  0  0  0  0  0  0  0  0
   20.8808  -21.0267  -10.2346 O   0  0  0  0  0  0  0  0  0  0  0  0
   22.1171  -22.5291  -11.4010 O   0  0  0  0  0  0  0  0  0  0  0  0
  1  2  1  0
  3  2  1  0
  4  3  1  0
  5  4  1  0
  5  6  1  6
  7  5  1  0
  7  8  2  0
  9  7  1  0
 10  9  1  0
 11 12  1  0
 10 11  1  1
 12 13  2  0
 13 14  1  0
 15 14  1  0
 16 15  2  0
 17 16  1  0
 18 19  1  0
 18 17  2  0
 19 20  2  0
 20 12  1  0
 20 15  1  0
 21 10  1  0
 22 21  2  0
 23 24  1  0
 24 26  1  0
 24 25  2  0
 26 27  1  0
 28 27  1  6
 28 29  1  0
 28 30  1  0
 29 21  1  0
 30 31  2  0
 30 32  1  0
M  END
$$$$
