MWQ.pdb
     RDKit          3D

 32 33  0  0  1  0  0  0  0  0999 V2000
   28.4290  -16.4797  -17.4105 C   0  0  0  0  0  0  0  0  0  0  0  0
   27.7810  -17.5466  -18.6993 S   0  0  0  0  0  0  0  0  0  0  0  0
   27.8249  -19.2903  -18.3559 C   0  0  0  0  0  0  0  0  0  0  0  0
   27.1147  -19.7352  -17.1076 C   0  0  0  0  0  0  0  0  0  0  0  0
   28.0261  -20.4880  -16.2168 C   0  0  2  0  0  0  0  0  0  0  0  0
   28.5020  -21.7231  -16.8051 N   0  0  0  0  0  0  0  0  0  0  0  0
   27.2786  -20.8410  -14.9470 C   0  0  0  0  0  0  0  0  0  0  0  0
   26.2377  -21.5305  -14.9833 O   0  0  0  0  0  0  0  0  0  0  0  0
   27.7252  -20.4093  -13.6868 N   0  0  0  0  0  0  0  0  0  0  0  0
   27.0115  -20.7401  -12.4681 C   0  0  1  0  0  0  0  0  0  0  0  0
   27.8043  -20.4699  -11.2492 C   0  0  0  0  0  0  0  0  0  0  0  0
   27.0264  -20.7037  -10.0297 C   0  0  0  0  0  0  0  0  0  0  0  0
   25.9821  -21.5870   -9.8524 C   0  0  0  0  0  0  0  0  0  0  0  0
   25.5095  -21.4746   -8.5999 N   0  0  0  0  0  0  0  0  0  0  0  0
   26.2169  -20.5340   -7.9331 C   0  0  0  0  0  0  0  0  0  0  0  0
   26.0941  -20.1010   -6.6278 C   0  0  0  0  0  0  0  0  0  0  0  0
   26.9725  -19.1304   -6.1918 C   0  0  0  0  0  0  0  0  0  0  0  0
   27.9322  -18.6224   -7.0420 C   0  0  0  0  0  0  0  0  0  0  0  0
   28.0305  -19.0657   -8.3211 C   0  0  0  0  0  0  0  0  0  0  0  0
   27.1644  -20.0486   -8.8166 C   0  0  0  0  0  0  0  0  0  0  0  0
   25.6203  -20.2593  -12.5020 C   0  0  0  0  0  0  0  0  0  0  0  0
   25.3031  -19.0989  -12.8742 O   0  0  0  0  0  0  0  0  0  0  0  0
   21.6729  -24.3191  -14.6259 N   0  0  0  0  0  0  0  0  0  0  0  0
   20.8143  -23.2039  -14.5275 C   0  0  0  0  0  0  0  0  0  0  0  0
   19.6808  -23.2245  -15.0295 O   0  0  0  0  0  0  0  0  0  0  0  0
   21.2335  -21.9445  -13.8121 C   0  0  0  0  0  0  0  0  0  0  0  0
   22.6030  -22.0764  -13.2463 C   0  0  0  0  0  0  0  0  0  0  0  0
   23.1511  -20.8483  -12.5802 C   0  0  2  0  0  0  0  0  0  0  0  0
   24.5171  -21.0848  -12.1109 N   0  0  0  0  0  0  0  0  0  0  0  0
   22.3129  -20.5014  -11.4188 C   0  0  0  0  0  0  0  0  0  0  0  0
   22.3709  -21.0351  -10.2855 O   0  0  0  0  0  0  0  0  0  0  0  0
   21.3567  -19.4783  -11.5870 O   0  0  0  0  0  0  0  0  0  0  0  0
  1  2  1  0
  3  2  1  0
  4  3  1  0
  5  4  1  0
  5  6  1  6
  7  5  1  0
  7  8  2  0
  9  7  1  0
 10  9  1  0
 11 12  1  0
 10 11  1  1
 12 13  2  0
 13 14  1  0
 15 14  1  0
 16 15  2  0
 17 16  1  0
 18 19  1  0
 18 17  2  0
 19 20  2  0
 20 12  1  0
 20 15  1  0
 21 10  1  0
 22 21  2  0
 23 24  1  0
 24 26  1  0
 24 25  2  0
 26 27  1  0
 28 27  1  1
 28 29  1  0
 28 30  1  0
 29 21  1  0
 30 31  2  0
 30 32  1  0
M  END
$$$$
