MWQ.pdb
     RDKit          3D

 32 33  0  0  1  0  0  0  0  0999 V2000
   23.9193  -22.3258  -17.9513 C   0  0  0  0  0  0  0  0  0  0  0  0
   25.2646  -21.1420  -17.8626 S   0  0  0  0  0  0  0  0  0  0  0  0
   26.6944  -21.6619  -16.9428 C   0  0  0  0  0  0  0  0  0  0  0  0
   26.4553  -22.0333  -15.5056 C   0  0  0  0  0  0  0  0  0  0  0  0
   26.6971  -20.8794  -14.6108 C   0  0  2  0  0  0  0  0  0  0  0  0
   28.0744  -20.4314  -14.6227 N   0  0  0  0  0  0  0  0  0  0  0  0
   26.3583  -21.2885  -13.1918 C   0  0  0  0  0  0  0  0  0  0  0  0
   25.6173  -22.2681  -12.9638 O   0  0  0  0  0  0  0  0  0  0  0  0
   26.8619  -20.5865  -12.0840 N   0  0  0  0  0  0  0  0  0  0  0  0
   26.4473  -20.8970  -10.7291 C   0  0  1  0  0  0  0  0  0  0  0  0
   27.5127  -20.6495   -9.7336 C   0  0  0  0  0  0  0  0  0  0  0  0
   26.9939  -20.6677   -8.3635 C   0  0  0  0  0  0  0  0  0  0  0  0
   25.7809  -21.1591   -7.9279 C   0  0  0  0  0  0  0  0  0  0  0  0
   25.6650  -20.9549   -6.6052 N   0  0  0  0  0  0  0  0  0  0  0  0
   26.7768  -20.3372   -6.1446 C   0  0  0  0  0  0  0  0  0  0  0  0
   27.1005  -19.9505   -4.8593 C   0  0  0  0  0  0  0  0  0  0  0  0
   28.3275  -19.3508   -4.6628 C   0  0  0  0  0  0  0  0  0  0  0  0
   29.1871  -19.1526   -5.7229 C   0  0  0  0  0  0  0  0  0  0  0  0
   28.8434  -19.5420   -6.9768 C   0  0  0  0  0  0  0  0  0  0  0  0
   27.6103  -20.1546   -7.2336 C   0  0  0  0  0  0  0  0  0  0  0  0
   25.1013  -20.3770  -10.4367 C   0  0  0  0  0  0  0  0  0  0  0  0
   24.4226  -20.7472   -9.4426 O   0  0  0  0  0  0  0  0  0  0  0  0
   22.6367  -19.4595  -16.0507 N   0  0  0  0  0  0  0  0  0  0  0  0
   21.5881  -19.2687  -15.1263 C   0  0  0  0  0  0  0  0  0  0  0  0
   20.5339  -18.7097  -15.4630 O   0  0  0  0  0  0  0  0  0  0  0  0
   21.7013  -19.7326  -13.6960 C   0  0  0  0  0  0  0  0  0  0  0  0
   22.7674  -18.9900  -12.9714 C   0  0  0  0  0  0  0  0  0  0  0  0
   23.0277  -19.4380  -11.5628 C   0  0  2  0  0  0  0  0  0  0  0  0
   24.4611  -19.4031  -11.2692 N   0  0  0  0  0  0  0  0  0  0  0  0
   22.5501  -20.8214  -11.3891 C   0  0  0  0  0  0  0  0  0  0  0  0
   22.8945  -21.8096  -12.0800 O   0  0  0  0  0  0  0  0  0  0  0  0
   21.6221  -21.0660  -10.3554 O   0  0  0  0  0  0  0  0  0  0  0  0
  1  2  1  0
  3  2  1  0
  4  3  1  0
  5  4  1  0
  5  6  1  1
  7  5  1  0
  7  8  2  0
  9  7  1  0
 10  9  1  0
 11 12  1  0
 10 11  1  1
 12 13  2  0
 13 14  1  0
 15 14  1  0
 16 15  2  0
 17 16  1  0
 18 19  1  0
 18 17  2  0
 19 20  2  0
 20 12  1  0
 20 15  1  0
 21 10  1  0
 22 21  2  0
 23 24  1  0
 24 26  1  0
 24 25  2  0
 26 27  1  0
 28 27  1  6
 28 29  1  0
 28 30  1  0
 29 21  1  0
 30 31  2  0
 30 32  1  0
M  END
$$$$
