MWQ.pdb
     RDKit          3D

 32 33  0  0  1  0  0  0  0  0999 V2000
   26.9278  -22.3500  -21.5428 C   0  0  0  0  0  0  0  0  0  0  0  0
   26.6343  -22.8709  -19.8511 S   0  0  0  0  0  0  0  0  0  0  0  0
   27.1467  -21.7284  -18.5891 C   0  0  0  0  0  0  0  0  0  0  0  0
   27.0499  -22.2228  -17.1725 C   0  0  0  0  0  0  0  0  0  0  0  0
   27.4698  -21.1761  -16.2140 C   0  0  2  0  0  0  0  0  0  0  0  0
   28.8950  -21.1819  -15.9562 N   0  0  0  0  0  0  0  0  0  0  0  0
   26.7625  -21.4160  -14.8956 C   0  0  0  0  0  0  0  0  0  0  0  0
   25.5429  -21.6833  -14.8588 O   0  0  0  0  0  0  0  0  0  0  0  0
   27.4473  -21.3479  -13.6708 N   0  0  0  0  0  0  0  0  0  0  0  0
   26.7439  -21.3048  -12.4029 C   0  0  1  0  0  0  0  0  0  0  0  0
   27.6582  -21.2149  -11.2439 C   0  0  0  0  0  0  0  0  0  0  0  0
   26.9301  -21.0054   -9.9898 C   0  0  0  0  0  0  0  0  0  0  0  0
   25.5645  -21.0119   -9.7968 C   0  0  0  0  0  0  0  0  0  0  0  0
   25.2939  -20.7424   -8.5089 N   0  0  0  0  0  0  0  0  0  0  0  0
   26.4511  -20.5562   -7.8338 C   0  0  0  0  0  0  0  0  0  0  0  0
   26.6554  -20.2767   -6.4971 C   0  0  0  0  0  0  0  0  0  0  0  0
   27.9593  -20.1564   -6.0620 C   0  0  0  0  0  0  0  0  0  0  0  0
   29.0083  -20.3127   -6.9435 C   0  0  0  0  0  0  0  0  0  0  0  0
   28.7791  -20.5866   -8.2529 C   0  0  0  0  0  0  0  0  0  0  0  0
   27.4759  -20.7185   -8.7489 C   0  0  0  0  0  0  0  0  0  0  0  0
   25.5973  -20.3822  -12.4451 C   0  0  0  0  0  0  0  0  0  0  0  0
   25.7115  -19.1558  -12.7072 O   0  0  0  0  0  0  0  0  0  0  0  0
   23.2323  -19.8017  -16.9717 N   0  0  0  0  0  0  0  0  0  0  0  0
   22.1026  -19.2699  -16.3149 C   0  0  0  0  0  0  0  0  0  0  0  0
   21.2142  -18.6810  -16.9484 O   0  0  0  0  0  0  0  0  0  0  0  0
   21.9257  -19.3923  -14.8225 C   0  0  0  0  0  0  0  0  0  0  0  0
   23.1302  -19.9879  -14.1841 C   0  0  0  0  0  0  0  0  0  0  0  0
   23.0857  -20.0949  -12.6878 C   0  0  2  0  0  0  0  0  0  0  0  0
   24.2569  -20.8174  -12.1894 N   0  0  0  0  0  0  0  0  0  0  0  0
   21.8760  -20.8323  -12.2818 C   0  0  0  0  0  0  0  0  0  0  0  0
   21.7328  -22.0779  -12.3043 O   0  0  0  0  0  0  0  0  0  0  0  0
   20.7750  -20.0780  -11.8252 O   0  0  0  0  0  0  0  0  0  0  0  0
  1  2  1  0
  3  2  1  0
  4  3  1  0
  5  4  1  0
  5  6  1  1
  7  5  1  0
  7  8  2  0
  9  7  1  0
 10  9  1  0
 11 12  1  0
 10 11  1  1
 12 13  2  0
 13 14  1  0
 15 14  1  0
 16 15  2  0
 17 16  1  0
 18 19  1  0
 18 17  2  0
 19 20  2  0
 20 12  1  0
 20 15  1  0
 21 10  1  0
 22 21  2  0
 23 24  1  0
 24 26  1  0
 24 25  2  0
 26 27  1  0
 28 27  1  6
 28 29  1  0
 28 30  1  0
 29 21  1  0
 30 31  2  0
 30 32  1  0
M  END
$$$$
