VIR.pdb
     RDKit          3D

 27 26  0  0  1  0  0  0  0  0999 V2000
   18.4275  -24.4088   -7.3807 C   0  0  0  0  0  0  0  0  0  0  0  0
   17.8470  -24.8777   -6.0902 C   0  0  1  0  0  0  0  0  0  0  0  0
   16.4170  -24.3561   -6.0145 C   0  0  0  0  0  0  0  0  0  0  0  0
   17.7809  -26.3612   -5.9151 C   0  0  2  0  0  0  0  0  0  0  0  0
   16.8508  -26.8484   -6.9435 N   0  0  0  0  0  0  0  0  0  0  0  0
   17.2654  -26.8137   -4.6128 C   0  0  0  0  0  0  0  0  0  0  0  0
   16.0311  -27.0245   -4.4986 O   0  0  0  0  0  0  0  0  0  0  0  0
   17.2309  -30.0919   -2.1270 C   0  0  0  0  0  0  0  0  0  0  0  0
   18.6144  -29.4998   -1.9511 C   0  0  0  0  0  0  0  0  0  0  0  0
   18.4518  -28.1479   -1.3031 C   0  0  2  0  0  0  0  0  0  0  0  0
   17.9035  -28.3383    0.0968 C   0  0  0  0  0  0  0  0  0  0  0  0
   17.5663  -27.2307   -2.1258 C   0  0  2  0  0  0  0  0  0  0  0  0
   18.0714  -27.0343   -3.4575 N   0  0  0  0  0  0  0  0  0  0  0  0
   17.4907  -25.9356   -1.3723 C   0  0  0  0  0  0  0  0  0  0  0  0
   18.5564  -25.2891   -1.2201 O   0  0  0  0  0  0  0  0  0  0  0  0
   10.6964  -20.6256   -0.8304 N   0  0  0  0  0  0  0  0  0  0  0  0
   11.7286  -19.8023   -0.3069 C   0  0  0  0  0  0  0  0  0  0  0  0
   11.4996  -18.5632   -0.1020 N   0  0  0  0  0  0  0  0  0  0  0  0
   12.9964  -20.3923   -0.0254 N   0  0  0  0  0  0  0  0  0  0  0  0
   13.1511  -21.8020   -0.3739 C   0  0  0  0  0  0  0  0  0  0  0  0
   14.5470  -22.2455   -0.0912 C   0  0  0  0  0  0  0  0  0  0  0  0
   14.7416  -23.6526   -0.5437 C   0  0  0  0  0  0  0  0  0  0  0  0
   16.1500  -24.0984   -0.2460 C   0  0  2  0  0  0  0  0  0  0  0  0
   16.2987  -25.4330   -0.8439 N   0  0  0  0  0  0  0  0  0  0  0  0
   16.2321  -24.2106    1.2467 C   0  0  0  0  0  0  0  0  0  0  0  0
   16.7411  -23.1604    1.9938 O   0  0  0  0  0  0  0  0  0  0  0  0
   15.8501  -25.2381    1.8529 O   0  0  0  0  0  0  0  0  0  0  0  0
  2  4  1  0
  2  1  1  6
  3  2  1  0
  4  5  1  6
  6  4  1  0
  7  6  2  0
  9  8  1  0
 10  9  1  0
 10 11  1  1
 12 10  1  0
 12 13  1  6
 13  6  1  0
 14 15  2  0
 14 12  1  0
 16 17  1  0
 17 18  2  0
 19 17  1  0
 20 19  1  0
 21 20  1  0
 21 22  1  0
 23 22  1  1
 23 24  1  0
 24 14  1  0
 25 26  1  0
 25 23  1  0
 27 25  2  0
M  END
$$$$
