VIR.pdb
     RDKit          3D

 27 26  0  0  1  0  0  0  0  0999 V2000
   18.8363  -16.0504  -15.3552 C   0  0  0  0  0  0  0  0  0  0  0  0
   19.6023  -15.5232  -16.5204 C   0  0  1  0  0  0  0  0  0  0  0  0
   19.1200  -16.2668  -17.7602 C   0  0  0  0  0  0  0  0  0  0  0  0
   19.4346  -14.0628  -16.7938 C   0  0  2  0  0  0  0  0  0  0  0  0
   20.0190  -13.8306  -18.1221 N   0  0  0  0  0  0  0  0  0  0  0  0
   20.1262  -13.1679  -15.8518 C   0  0  0  0  0  0  0  0  0  0  0  0
   19.7273  -13.1302  -14.6601 O   0  0  0  0  0  0  0  0  0  0  0  0
   25.3559   -9.8461  -15.3455 C   0  0  0  0  0  0  0  0  0  0  0  0
   24.0106  -10.2118  -14.7522 C   0  0  0  0  0  0  0  0  0  0  0  0
   23.2644  -11.0225  -15.7818 C   0  0  2  0  0  0  0  0  0  0  0  0
   23.1867  -10.2271  -17.0694 C   0  0  0  0  0  0  0  0  0  0  0  0
   21.8849  -11.4231  -15.2930 C   0  0  2  0  0  0  0  0  0  0  0  0
   21.2288  -12.3311  -16.1942 N   0  0  0  0  0  0  0  0  0  0  0  0
   21.1090  -10.1483  -15.1390 C   0  0  0  0  0  0  0  0  0  0  0  0
   20.5448   -9.6847  -16.1605 O   0  0  0  0  0  0  0  0  0  0  0  0
   15.8432   -8.1036   -8.8140 N   0  0  0  0  0  0  0  0  0  0  0  0
   15.7432   -6.9123   -9.5809 C   0  0  0  0  0  0  0  0  0  0  0  0
   14.8490   -6.0500   -9.2867 N   0  0  0  0  0  0  0  0  0  0  0  0
   16.6526   -6.7179  -10.6626 N   0  0  0  0  0  0  0  0  0  0  0  0
   17.5931   -7.8034  -10.9265 C   0  0  0  0  0  0  0  0  0  0  0  0
   18.3476   -7.5281  -12.1835 C   0  0  0  0  0  0  0  0  0  0  0  0
   19.3412   -8.6108  -12.4350 C   0  0  0  0  0  0  0  0  0  0  0  0
   20.1181   -8.3140  -13.6918 C   0  0  2  0  0  0  0  0  0  0  0  0
   20.9944   -9.4715  -13.9218 N   0  0  0  0  0  0  0  0  0  0  0  0
   20.9558   -7.1116  -13.3753 C   0  0  0  0  0  0  0  0  0  0  0  0
   20.4621   -5.8397  -13.6173 O   0  0  0  0  0  0  0  0  0  0  0  0
   22.1063   -7.2181  -12.8914 O   0  0  0  0  0  0  0  0  0  0  0  0
  2  4  1  0
  2  1  1  1
  3  2  1  0
  4  5  1  6
  6  4  1  0
  7  6  2  0
  9  8  1  0
 10  9  1  0
 10 11  1  6
 12 10  1  0
 12 13  1  6
 13  6  1  0
 14 15  2  0
 14 12  1  0
 16 17  1  0
 17 18  2  0
 19 17  1  0
 20 19  1  0
 21 20  1  0
 21 22  1  0
 23 22  1  1
 23 24  1  0
 24 14  1  0
 25 26  1  0
 25 23  1  0
 27 25  2  0
M  END
$$$$
