VIR.pdb
     RDKit          3D

 27 26  0  0  1  0  0  0  0  0999 V2000
   27.8104  -18.8367  -18.0243 C   0  0  0  0  0  0  0  0  0  0  0  0
   27.1682  -19.4652  -16.8347 C   0  0  1  0  0  0  0  0  0  0  0  0
   25.9523  -20.2411  -17.3268 C   0  0  0  0  0  0  0  0  0  0  0  0
   28.0231  -20.4282  -16.0750 C   0  0  2  0  0  0  0  0  0  0  0  0
   28.2633  -21.5587  -16.9829 N   0  0  0  0  0  0  0  0  0  0  0  0
   27.4128  -20.9745  -14.8521 C   0  0  0  0  0  0  0  0  0  0  0  0
   26.7031  -22.0079  -14.9479 O   0  0  0  0  0  0  0  0  0  0  0  0
   30.0202  -21.1143  -10.1823 C   0  0  0  0  0  0  0  0  0  0  0  0
   29.1181  -21.4922  -11.3395 C   0  0  0  0  0  0  0  0  0  0  0  0
   27.7991  -20.7901  -11.1362 C   0  0  2  0  0  0  0  0  0  0  0  0
   27.1184  -21.3706   -9.9130 C   0  0  0  0  0  0  0  0  0  0  0  0
   26.9125  -20.8885  -12.3637 C   0  0  2  0  0  0  0  0  0  0  0  0
   27.5689  -20.4125  -13.5509 N   0  0  0  0  0  0  0  0  0  0  0  0
   25.6834  -20.0843  -12.0577 C   0  0  0  0  0  0  0  0  0  0  0  0
   25.7270  -18.8494  -12.2806 O   0  0  0  0  0  0  0  0  0  0  0  0
   21.0060  -21.6343  -17.8497 N   0  0  0  0  0  0  0  0  0  0  0  0
   22.4093  -21.6658  -17.6328 C   0  0  0  0  0  0  0  0  0  0  0  0
   23.1702  -22.1757  -18.5221 N   0  0  0  0  0  0  0  0  0  0  0  0
   22.9253  -21.1224  -16.4191 N   0  0  0  0  0  0  0  0  0  0  0  0
   21.9678  -20.4441  -15.5498 C   0  0  0  0  0  0  0  0  0  0  0  0
   22.6761  -19.8501  -14.3790 C   0  0  0  0  0  0  0  0  0  0  0  0
   23.0591  -20.9189  -13.4127 C   0  0  0  0  0  0  0  0  0  0  0  0
   23.1591  -20.3441  -12.0232 C   0  0  2  0  0  0  0  0  0  0  0  0
   24.5142  -20.6506  -11.5431 N   0  0  0  0  0  0  0  0  0  0  0  0
   22.1580  -21.0981  -11.2004 C   0  0  0  0  0  0  0  0  0  0  0  0
   20.8887  -20.5777  -11.0050 O   0  0  0  0  0  0  0  0  0  0  0  0
   22.4333  -22.2010  -10.6742 O   0  0  0  0  0  0  0  0  0  0  0  0
  2  4  1  0
  2  1  1  6
  3  2  1  0
  4  5  1  6
  6  4  1  0
  7  6  2  0
  9  8  1  0
 10  9  1  0
 10 11  1  1
 12 10  1  0
 12 13  1  6
 13  6  1  0
 14 15  2  0
 14 12  1  0
 16 17  1  0
 17 18  2  0
 19 17  1  0
 20 19  1  0
 21 20  1  0
 21 22  1  0
 23 22  1  6
 23 24  1  0
 24 14  1  0
 25 26  1  0
 25 23  1  0
 27 25  2  0
M  END
$$$$
