VIR.pdb
     RDKit          3D

 27 26  0  0  1  0  0  0  0  0999 V2000
   28.1725  -19.0432  -17.4065 C   0  0  0  0  0  0  0  0  0  0  0  0
   28.4116  -18.3322  -16.1182 C   0  0  1  0  0  0  0  0  0  0  0  0
   29.0464  -16.9866  -16.4483 C   0  0  0  0  0  0  0  0  0  0  0  0
   27.1909  -18.0510  -15.3017 C   0  0  2  0  0  0  0  0  0  0  0  0
   27.6530  -17.2886  -14.1333 N   0  0  0  0  0  0  0  0  0  0  0  0
   26.4910  -19.2424  -14.7946 C   0  0  0  0  0  0  0  0  0  0  0  0
   25.9855  -20.0384  -15.6263 O   0  0  0  0  0  0  0  0  0  0  0  0
   26.3188  -20.7446   -9.1739 C   0  0  0  0  0  0  0  0  0  0  0  0
   25.8876  -20.1040  -10.4774 C   0  0  0  0  0  0  0  0  0  0  0  0
   26.0206  -21.1438  -11.5614 C   0  0  2  0  0  0  0  0  0  0  0  0
   27.4676  -21.5872  -11.6401 C   0  0  0  0  0  0  0  0  0  0  0  0
   25.5241  -20.6301  -12.9001 C   0  0  2  0  0  0  0  0  0  0  0  0
   26.3424  -19.5653  -13.4137 N   0  0  0  0  0  0  0  0  0  0  0  0
   24.1118  -20.1762  -12.6764 C   0  0  0  0  0  0  0  0  0  0  0  0
   23.9404  -19.0488  -12.1508 O   0  0  0  0  0  0  0  0  0  0  0  0
   15.8755  -21.5747  -14.4582 N   0  0  0  0  0  0  0  0  0  0  0  0
   16.5886  -21.4514  -15.6803 C   0  0  0  0  0  0  0  0  0  0  0  0
   15.9422  -21.3323  -16.7746 N   0  0  0  0  0  0  0  0  0  0  0  0
   18.0146  -21.4649  -15.6434 N   0  0  0  0  0  0  0  0  0  0  0  0
   18.6301  -21.9438  -14.4088 C   0  0  0  0  0  0  0  0  0  0  0  0
   19.3654  -20.8302  -13.7421 C   0  0  0  0  0  0  0  0  0  0  0  0
   20.8279  -20.9485  -14.0059 C   0  0  0  0  0  0  0  0  0  0  0  0
   21.6055  -20.5639  -12.7736 C   0  0  2  0  0  0  0  0  0  0  0  0
   23.0014  -20.9493  -13.0258 N   0  0  0  0  0  0  0  0  0  0  0  0
   21.0498  -21.4064  -11.6650 C   0  0  0  0  0  0  0  0  0  0  0  0
   20.0008  -20.9327  -10.8935 O   0  0  0  0  0  0  0  0  0  0  0  0
   21.5084  -22.5432  -11.4072 O   0  0  0  0  0  0  0  0  0  0  0  0
  2  4  1  0
  2  1  1  6
  3  2  1  0
  4  5  1  1
  6  4  1  0
  7  6  2  0
  9  8  1  0
 10  9  1  0
 10 11  1  6
 12 10  1  0
 12 13  1  1
 13  6  1  0
 14 15  2  0
 14 12  1  0
 16 17  1  0
 17 18  2  0
 19 17  1  0
 20 19  1  0
 21 20  1  0
 21 22  1  0
 23 22  1  6
 23 24  1  0
 24 14  1  0
 25 26  1  0
 25 23  1  0
 27 25  2  0
M  END
$$$$
