VIR.pdb
     RDKit          3D

 27 26  0  0  1  0  0  0  0  0999 V2000
   17.9896  -26.6051   -8.1824 C   0  0  0  0  0  0  0  0  0  0  0  0
   18.5289  -25.3202   -8.7123 C   0  0  1  0  0  0  0  0  0  0  0  0
   17.4223  -24.6595   -9.5257 C   0  0  0  0  0  0  0  0  0  0  0  0
   18.9633  -24.3297   -7.6799 C   0  0  2  0  0  0  0  0  0  0  0  0
   17.7500  -23.9626   -6.9363 N   0  0  0  0  0  0  0  0  0  0  0  0
   19.5402  -23.0849   -8.2129 C   0  0  0  0  0  0  0  0  0  0  0  0
   18.7680  -22.1216   -8.4509 O   0  0  0  0  0  0  0  0  0  0  0  0
   23.7989  -19.3830   -8.3556 C   0  0  0  0  0  0  0  0  0  0  0  0
   23.5771  -20.3742   -9.4799 C   0  0  0  0  0  0  0  0  0  0  0  0
   22.9962  -21.6270   -8.8741 C   0  0  2  0  0  0  0  0  0  0  0  0
   23.6889  -22.8310   -9.4802 C   0  0  0  0  0  0  0  0  0  0  0  0
   21.4922  -21.6996   -9.0615 C   0  0  2  0  0  0  0  0  0  0  0  0
   20.9265  -22.8875   -8.4820 N   0  0  0  0  0  0  0  0  0  0  0  0
   21.2519  -21.6444  -10.5414 C   0  0  0  0  0  0  0  0  0  0  0  0
   21.3367  -22.7197  -11.1841 O   0  0  0  0  0  0  0  0  0  0  0  0
   18.8219  -17.5662  -17.4675 N   0  0  0  0  0  0  0  0  0  0  0  0
   17.9881  -18.4627  -16.7475 C   0  0  0  0  0  0  0  0  0  0  0  0
   17.0740  -19.1037  -17.3665 N   0  0  0  0  0  0  0  0  0  0  0  0
   18.2021  -18.6180  -15.3457 N   0  0  0  0  0  0  0  0  0  0  0  0
   19.2703  -17.8153  -14.7566 C   0  0  0  0  0  0  0  0  0  0  0  0
   20.4425  -18.6822  -14.4408 C   0  0  0  0  0  0  0  0  0  0  0  0
   20.5450  -18.8929  -12.9685 C   0  0  0  0  0  0  0  0  0  0  0  0
   20.7682  -20.3536  -12.6724 C   0  0  2  0  0  0  0  0  0  0  0  0
   20.9428  -20.4607  -11.2168 N   0  0  0  0  0  0  0  0  0  0  0  0
   22.0537  -20.7131  -13.3549 C   0  0  0  0  0  0  0  0  0  0  0  0
   22.0314  -21.4146  -14.5497 O   0  0  0  0  0  0  0  0  0  0  0  0
   23.1664  -20.3962  -12.8749 O   0  0  0  0  0  0  0  0  0  0  0  0
  2  4  1  0
  2  1  1  1
  3  2  1  0
  4  5  1  6
  6  4  1  0
  7  6  2  0
  9  8  1  0
 10  9  1  0
 10 11  1  6
 12 10  1  0
 12 13  1  6
 13  6  1  0
 14 15  2  0
 14 12  1  0
 16 17  1  0
 17 18  2  0
 19 17  1  0
 20 19  1  0
 21 20  1  0
 21 22  1  0
 23 22  1  1
 23 24  1  0
 24 14  1  0
 25 26  1  0
 25 23  1  0
 27 25  2  0
M  END
$$$$
