VIR.pdb
     RDKit          3D

 27 26  0  0  1  0  0  0  0  0999 V2000
   28.5886  -17.8422  -15.7169 C   0  0  0  0  0  0  0  0  0  0  0  0
   27.5483  -18.6780  -15.0524 C   0  0  1  0  0  0  0  0  0  0  0  0
   26.6430  -19.2364  -16.1439 C   0  0  0  0  0  0  0  0  0  0  0  0
   28.0620  -19.8449  -14.2713 C   0  0  2  0  0  0  0  0  0  0  0  0
   28.7376  -20.7160  -15.2433 N   0  0  0  0  0  0  0  0  0  0  0  0
   27.0283  -20.6547  -13.6063 C   0  0  0  0  0  0  0  0  0  0  0  0
   26.5964  -21.6765  -14.1980 O   0  0  0  0  0  0  0  0  0  0  0  0
   26.2634  -20.1261   -8.1652 C   0  0  0  0  0  0  0  0  0  0  0  0
   26.3606  -20.9817   -9.4119 C   0  0  0  0  0  0  0  0  0  0  0  0
   25.1626  -20.6694  -10.2728 C   0  0  2  0  0  0  0  0  0  0  0  0
   23.9448  -21.3532   -9.6845 C   0  0  0  0  0  0  0  0  0  0  0  0
   25.3841  -21.0772  -11.7174 C   0  0  2  0  0  0  0  0  0  0  0  0
   26.4742  -20.3634  -12.3251 N   0  0  0  0  0  0  0  0  0  0  0  0
   24.0909  -20.8119  -12.4302 C   0  0  0  0  0  0  0  0  0  0  0  0
   23.6293  -19.6452  -12.3808 O   0  0  0  0  0  0  0  0  0  0  0  0
   17.7351  -24.2670  -14.4567 N   0  0  0  0  0  0  0  0  0  0  0  0
   17.6470  -23.9891  -15.8468 C   0  0  0  0  0  0  0  0  0  0  0  0
   16.4996  -23.8316  -16.3836 N   0  0  0  0  0  0  0  0  0  0  0  0
   18.8533  -23.8944  -16.6022 N   0  0  0  0  0  0  0  0  0  0  0  0
   20.1013  -24.0462  -15.8591 C   0  0  0  0  0  0  0  0  0  0  0  0
   20.4358  -22.7710  -15.1612 C   0  0  0  0  0  0  0  0  0  0  0  0
   21.7554  -22.8893  -14.4775 C   0  0  0  0  0  0  0  0  0  0  0  0
   22.0796  -21.6045  -13.7597 C   0  0  2  0  0  0  0  0  0  0  0  0
   23.3953  -21.7988  -13.1335 N   0  0  0  0  0  0  0  0  0  0  0  0
   21.0370  -21.4634  -12.6917 C   0  0  0  0  0  0  0  0  0  0  0  0
   19.9332  -20.6529  -12.9034 O   0  0  0  0  0  0  0  0  0  0  0  0
   21.1301  -22.0628  -11.5957 O   0  0  0  0  0  0  0  0  0  0  0  0
  2  4  1  0
  2  1  1  6
  3  2  1  0
  4  5  1  6
  6  4  1  0
  7  6  2  0
  9  8  1  0
 10  9  1  0
 10 11  1  1
 12 10  1  0
 12 13  1  6
 13  6  1  0
 14 15  2  0
 14 12  1  0
 16 17  1  0
 17 18  2  0
 19 17  1  0
 20 19  1  0
 21 20  1  0
 21 22  1  0
 23 22  1  6
 23 24  1  0
 24 14  1  0
 25 26  1  0
 25 23  1  0
 27 25  2  0
M  END
$$$$
