VIR.pdb
     RDKit          3D

 27 26  0  0  1  0  0  0  0  0999 V2000
   29.2552  -24.9713  -18.6680 C   0  0  0  0  0  0  0  0  0  0  0  0
   28.3675  -24.0720  -17.8770 C   0  0  1  0  0  0  0  0  0  0  0  0
   27.4124  -24.9544  -17.0821 C   0  0  0  0  0  0  0  0  0  0  0  0
   29.0614  -23.1835  -16.8948 C   0  0  2  0  0  0  0  0  0  0  0  0
   29.7946  -24.0782  -15.9882 N   0  0  0  0  0  0  0  0  0  0  0  0
   28.1714  -22.3564  -16.0640 C   0  0  0  0  0  0  0  0  0  0  0  0
   27.9342  -22.7294  -14.8870 O   0  0  0  0  0  0  0  0  0  0  0  0
   28.3603  -16.9658  -16.1896 C   0  0  0  0  0  0  0  0  0  0  0  0
   28.2368  -18.3865  -15.6777 C   0  0  0  0  0  0  0  0  0  0  0  0
   26.8366  -18.8586  -15.9788 C   0  0  2  0  0  0  0  0  0  0  0  0
   25.8563  -18.0301  -15.1730 C   0  0  0  0  0  0  0  0  0  0  0  0
   26.6692  -20.3410  -15.7018 C   0  0  2  0  0  0  0  0  0  0  0  0
   27.5513  -21.1486  -16.4997 N   0  0  0  0  0  0  0  0  0  0  0  0
   25.2304  -20.6595  -15.9834 C   0  0  0  0  0  0  0  0  0  0  0  0
   24.8466  -20.6054  -17.1778 O   0  0  0  0  0  0  0  0  0  0  0  0
   19.0186  -23.6230  -10.5482 N   0  0  0  0  0  0  0  0  0  0  0  0
   18.3281  -23.6372  -11.7894 C   0  0  0  0  0  0  0  0  0  0  0  0
   17.1318  -24.0801  -11.8366 N   0  0  0  0  0  0  0  0  0  0  0  0
   19.0000  -23.1521  -12.9504 N   0  0  0  0  0  0  0  0  0  0  0  0
   20.3895  -22.7385  -12.7742 C   0  0  0  0  0  0  0  0  0  0  0  0
   20.9718  -22.3397  -14.0884 C   0  0  0  0  0  0  0  0  0  0  0  0
   22.3533  -21.8119  -13.9003 C   0  0  0  0  0  0  0  0  0  0  0  0
   22.9079  -21.3406  -15.2199 C   0  0  2  0  0  0  0  0  0  0  0  0
   24.3197  -21.0075  -14.9823 N   0  0  0  0  0  0  0  0  0  0  0  0
   22.1514  -20.0898  -15.5532 C   0  0  0  0  0  0  0  0  0  0  0  0
   22.4604  -18.9012  -14.9114 O   0  0  0  0  0  0  0  0  0  0  0  0
   21.2341  -20.0813  -16.4061 O   0  0  0  0  0  0  0  0  0  0  0  0
  2  4  1  0
  2  1  1  1
  3  2  1  0
  4  5  1  1
  6  4  1  0
  7  6  2  0
  9  8  1  0
 10  9  1  0
 10 11  1  1
 12 10  1  0
 12 13  1  6
 13  6  1  0
 14 15  2  0
 14 12  1  0
 16 17  1  0
 17 18  2  0
 19 17  1  0
 20 19  1  0
 21 20  1  0
 21 22  1  0
 23 22  1  1
 23 24  1  0
 24 14  1  0
 25 26  1  0
 25 23  1  0
 27 25  2  0
M  END
$$$$
