VIR.pdb
     RDKit          3D

 27 26  0  0  1  0  0  0  0  0999 V2000
   21.7416  -14.2920  -21.1505 C   0  0  0  0  0  0  0  0  0  0  0  0
   22.1130  -13.3574  -20.0500 C   0  0  1  0  0  0  0  0  0  0  0  0
   20.8221  -12.9046  -19.3782 C   0  0  0  0  0  0  0  0  0  0  0  0
   22.9830  -13.9356  -18.9802 C   0  0  2  0  0  0  0  0  0  0  0  0
   22.2837  -15.1332  -18.4939 N   0  0  0  0  0  0  0  0  0  0  0  0
   23.2077  -13.0610  -17.8179 C   0  0  0  0  0  0  0  0  0  0  0  0
   22.3442  -13.0468  -16.9041 O   0  0  0  0  0  0  0  0  0  0  0  0
   28.2833  -11.7487  -16.1581 C   0  0  0  0  0  0  0  0  0  0  0  0
   26.8319  -12.1832  -16.1725 C   0  0  0  0  0  0  0  0  0  0  0  0
   25.9879  -10.9451  -16.3419 C   0  0  2  0  0  0  0  0  0  0  0  0
   26.1669  -10.0598  -15.1250 C   0  0  0  0  0  0  0  0  0  0  0  0
   24.5269  -11.2851  -16.5706 C   0  0  2  0  0  0  0  0  0  0  0  0
   24.3460  -12.2190  -17.6486 N   0  0  0  0  0  0  0  0  0  0  0  0
   23.8335   -9.9845  -16.8507 C   0  0  0  0  0  0  0  0  0  0  0  0
   24.1858   -9.3469  -17.8735 O   0  0  0  0  0  0  0  0  0  0  0  0
   15.8094   -7.6794  -16.3227 N   0  0  0  0  0  0  0  0  0  0  0  0
   16.3247   -6.5189  -16.9594 C   0  0  0  0  0  0  0  0  0  0  0  0
   15.5715   -5.4993  -17.1101 N   0  0  0  0  0  0  0  0  0  0  0  0
   17.6772   -6.5321  -17.4124 N   0  0  0  0  0  0  0  0  0  0  0  0
   18.4534   -7.7321  -17.1125 C   0  0  0  0  0  0  0  0  0  0  0  0
   19.8732   -7.3644  -16.8400 C   0  0  0  0  0  0  0  0  0  0  0  0
   20.6833   -8.5905  -16.5889 C   0  0  0  0  0  0  0  0  0  0  0  0
   22.1092   -8.2110  -16.2827 C   0  0  2  0  0  0  0  0  0  0  0  0
   22.8285   -9.4675  -16.0289 N   0  0  0  0  0  0  0  0  0  0  0  0
   22.0515   -7.4073  -15.0185 C   0  0  0  0  0  0  0  0  0  0  0  0
   21.9288   -6.0283  -15.0788 O   0  0  0  0  0  0  0  0  0  0  0  0
   22.1114   -7.9477  -13.8900 O   0  0  0  0  0  0  0  0  0  0  0  0
  2  4  1  0
  2  1  1  6
  3  2  1  0
  4  5  1  1
  6  4  1  0
  7  6  2  0
  9  8  1  0
 10  9  1  0
 10 11  1  1
 12 10  1  0
 12 13  1  6
 13  6  1  0
 14 15  2  0
 14 12  1  0
 16 17  1  0
 17 18  2  0
 19 17  1  0
 20 19  1  0
 21 20  1  0
 21 22  1  0
 23 22  1  1
 23 24  1  0
 24 14  1  0
 25 26  1  0
 25 23  1  0
 27 25  2  0
M  END
$$$$
