VIR.pdb
     RDKit          3D

 27 26  0  0  1  0  0  0  0  0999 V2000
   28.4999  -19.5303  -16.7855 C   0  0  0  0  0  0  0  0  0  0  0  0
   27.2911  -19.9403  -16.0154 C   0  0  1  0  0  0  0  0  0  0  0  0
   26.2701  -20.4721  -17.0141 C   0  0  0  0  0  0  0  0  0  0  0  0
   27.5090  -21.0151  -14.9990 C   0  0  2  0  0  0  0  0  0  0  0  0
   27.8908  -22.2156  -15.7558 N   0  0  0  0  0  0  0  0  0  0  0  0
   26.3256  -21.3647  -14.1966 C   0  0  0  0  0  0  0  0  0  0  0  0
   25.6361  -22.3556  -14.5480 O   0  0  0  0  0  0  0  0  0  0  0  0
   26.2138  -20.4741   -8.7590 C   0  0  0  0  0  0  0  0  0  0  0  0
   26.0643  -21.1479  -10.1078 C   0  0  0  0  0  0  0  0  0  0  0  0
   24.8856  -20.5155  -10.8042 C   0  0  2  0  0  0  0  0  0  0  0  0
   23.6313  -20.8041  -10.0042 C   0  0  0  0  0  0  0  0  0  0  0  0
   24.7526  -20.9961  -12.2372 C   0  0  2  0  0  0  0  0  0  0  0  0
   25.8983  -20.6551  -13.0360 N   0  0  0  0  0  0  0  0  0  0  0  0
   23.5023  -20.3654  -12.7757 C   0  0  0  0  0  0  0  0  0  0  0  0
   23.4719  -19.1127  -12.8561 O   0  0  0  0  0  0  0  0  0  0  0  0
   17.9002  -25.9055  -14.8710 N   0  0  0  0  0  0  0  0  0  0  0  0
   19.2680  -26.0016  -14.5004 C   0  0  0  0  0  0  0  0  0  0  0  0
   19.9008  -27.0896  -14.7139 N   0  0  0  0  0  0  0  0  0  0  0  0
   19.8935  -24.8703  -13.8976 N   0  0  0  0  0  0  0  0  0  0  0  0
   19.0706  -23.6731  -13.7484 C   0  0  0  0  0  0  0  0  0  0  0  0
   19.8954  -22.5531  -13.2094 C   0  0  0  0  0  0  0  0  0  0  0  0
   20.3789  -21.6877  -14.3229 C   0  0  0  0  0  0  0  0  0  0  0  0
   21.1728  -20.5327  -13.7690 C   0  0  2  0  0  0  0  0  0  0  0  0
   22.3916  -21.1090  -13.1832 N   0  0  0  0  0  0  0  0  0  0  0  0
   20.3270  -19.9460  -12.6791 C   0  0  0  0  0  0  0  0  0  0  0  0
   19.4545  -18.9074  -12.9620 O   0  0  0  0  0  0  0  0  0  0  0  0
   20.3823  -20.3689  -11.5013 O   0  0  0  0  0  0  0  0  0  0  0  0
  2  4  1  0
  2  1  1  6
  3  2  1  0
  4  5  1  6
  6  4  1  0
  7  6  2  0
  9  8  1  0
 10  9  1  0
 10 11  1  1
 12 10  1  0
 12 13  1  6
 13  6  1  0
 14 15  2  0
 14 12  1  0
 16 17  1  0
 17 18  2  0
 19 17  1  0
 20 19  1  0
 21 20  1  0
 21 22  1  0
 23 22  1  1
 23 24  1  0
 24 14  1  0
 25 26  1  0
 25 23  1  0
 27 25  2  0
M  END
$$$$
