VIR.pdb
     RDKit          3D

 27 26  0  0  1  0  0  0  0  0999 V2000
   26.1802  -17.5045  -15.5617 C   0  0  0  0  0  0  0  0  0  0  0  0
   27.0954  -18.5259  -16.1462 C   0  0  1  0  0  0  0  0  0  0  0  0
   28.2882  -17.7861  -16.7399 C   0  0  0  0  0  0  0  0  0  0  0  0
   27.6400  -19.5299  -15.1813 C   0  0  2  0  0  0  0  0  0  0  0  0
   28.4242  -20.4783  -15.9846 N   0  0  0  0  0  0  0  0  0  0  0  0
   26.6260  -20.3104  -14.4538 C   0  0  0  0  0  0  0  0  0  0  0  0
   26.0853  -21.2824  -15.0401 O   0  0  0  0  0  0  0  0  0  0  0  0
   26.7806  -20.3668   -8.9483 C   0  0  0  0  0  0  0  0  0  0  0  0
   26.6800  -20.9463  -10.3446 C   0  0  0  0  0  0  0  0  0  0  0  0
   25.3226  -20.5824  -10.8916 C   0  0  2  0  0  0  0  0  0  0  0  0
   24.2662  -21.3733  -10.1466 C   0  0  0  0  0  0  0  0  0  0  0  0
   25.2367  -20.8148  -12.3886 C   0  0  2  0  0  0  0  0  0  0  0  0
   26.2068  -20.0434  -13.1174 N   0  0  0  0  0  0  0  0  0  0  0  0
   23.8368  -20.4528  -12.7886 C   0  0  0  0  0  0  0  0  0  0  0  0
   23.4033  -19.3293  -12.4330 O   0  0  0  0  0  0  0  0  0  0  0  0
   17.2330  -23.1419  -15.0805 N   0  0  0  0  0  0  0  0  0  0  0  0
   17.0903  -22.5969  -16.3844 C   0  0  0  0  0  0  0  0  0  0  0  0
   15.9254  -22.3085  -16.8197 N   0  0  0  0  0  0  0  0  0  0  0  0
   18.2627  -22.3885  -17.1697 N   0  0  0  0  0  0  0  0  0  0  0  0
   19.5347  -22.7511  -16.5507 C   0  0  0  0  0  0  0  0  0  0  0  0
   19.9056  -21.7384  -15.5201 C   0  0  0  0  0  0  0  0  0  0  0  0
   21.2716  -22.0178  -14.9922 C   0  0  0  0  0  0  0  0  0  0  0  0
   21.6570  -20.9683  -13.9818 C   0  0  2  0  0  0  0  0  0  0  0  0
   23.0140  -21.3059  -13.5288 N   0  0  0  0  0  0  0  0  0  0  0  0
   20.6973  -21.1323  -12.8417 C   0  0  0  0  0  0  0  0  0  0  0  0
   19.6168  -20.2739  -12.7164 O   0  0  0  0  0  0  0  0  0  0  0  0
   20.8403  -22.0336  -11.9836 O   0  0  0  0  0  0  0  0  0  0  0  0
  2  4  1  0
  2  1  1  1
  3  2  1  0
  4  5  1  6
  6  4  1  0
  7  6  2  0
  9  8  1  0
 10  9  1  0
 10 11  1  1
 12 10  1  0
 12 13  1  6
 13  6  1  0
 14 15  2  0
 14 12  1  0
 16 17  1  0
 17 18  2  0
 19 17  1  0
 20 19  1  0
 21 20  1  0
 21 22  1  0
 23 22  1  6
 23 24  1  0
 24 14  1  0
 25 26  1  0
 25 23  1  0
 27 25  2  0
M  END
$$$$
