VIR.pdb
     RDKit          3D

 27 26  0  0  1  0  0  0  0  0999 V2000
   20.4833  -22.5358  -10.2638 C   0  0  0  0  0  0  0  0  0  0  0  0
   21.4828  -21.7261  -11.0172 C   0  0  1  0  0  0  0  0  0  0  0  0
   20.7980  -20.4326  -11.4422 C   0  0  0  0  0  0  0  0  0  0  0  0
   22.7081  -21.3407  -10.2518 C   0  0  2  0  0  0  0  0  0  0  0  0
   22.2325  -20.6080   -9.0699 N   0  0  0  0  0  0  0  0  0  0  0  0
   23.6385  -20.4535  -10.9684 C   0  0  0  0  0  0  0  0  0  0  0  0
   23.4572  -19.2115  -10.8948 O   0  0  0  0  0  0  0  0  0  0  0  0
   29.5209  -19.9735  -12.2609 C   0  0  0  0  0  0  0  0  0  0  0  0
   28.1424  -19.5463  -12.7220 C   0  0  0  0  0  0  0  0  0  0  0  0
   27.1368  -20.4353  -12.0346 C   0  0  2  0  0  0  0  0  0  0  0  0
   27.4220  -21.8765  -12.4065 C   0  0  0  0  0  0  0  0  0  0  0  0
   25.7112  -20.0455  -12.3781 C   0  0  2  0  0  0  0  0  0  0  0  0
   24.7440  -20.9031  -11.7488 N   0  0  0  0  0  0  0  0  0  0  0  0
   25.6086  -20.1091  -13.8735 C   0  0  0  0  0  0  0  0  0  0  0  0
   25.6103  -21.2454  -14.4079 O   0  0  0  0  0  0  0  0  0  0  0  0
   22.8470  -13.8631  -19.3000 N   0  0  0  0  0  0  0  0  0  0  0  0
   22.9699  -14.9594  -20.1947 C   0  0  0  0  0  0  0  0  0  0  0  0
   22.5768  -14.8306  -21.4024 N   0  0  0  0  0  0  0  0  0  0  0  0
   23.5329  -16.1770  -19.7098 N   0  0  0  0  0  0  0  0  0  0  0  0
   23.8539  -16.2251  -18.2860 C   0  0  0  0  0  0  0  0  0  0  0  0
   24.4128  -17.5631  -17.9357 C   0  0  0  0  0  0  0  0  0  0  0  0
   24.6374  -17.6580  -16.4650 C   0  0  0  0  0  0  0  0  0  0  0  0
   25.2526  -18.9907  -16.1237 C   0  0  2  0  0  0  0  0  0  0  0  0
   25.5133  -18.9700  -14.6772 N   0  0  0  0  0  0  0  0  0  0  0  0
   26.5561  -19.0360  -16.8630 C   0  0  0  0  0  0  0  0  0  0  0  0
   26.6821  -19.8203  -17.9983 O   0  0  0  0  0  0  0  0  0  0  0  0
   27.5525  -18.3783  -16.4839 O   0  0  0  0  0  0  0  0  0  0  0  0
  2  4  1  0
  2  1  1  1
  3  2  1  0
  4  5  1  1
  6  4  1  0
  7  6  2  0
  9  8  1  0
 10  9  1  0
 10 11  1  6
 12 10  1  0
 12 13  1  1
 13  6  1  0
 14 15  2  0
 14 12  1  0
 16 17  1  0
 17 18  2  0
 19 17  1  0
 20 19  1  0
 21 20  1  0
 21 22  1  0
 23 22  1  6
 23 24  1  0
 24 14  1  0
 25 26  1  0
 25 23  1  0
 27 25  2  0
M  END
$$$$
