VIR.pdb
     RDKit          3D

 27 26  0  0  1  0  0  0  0  0999 V2000
   23.9017  -26.6979  -15.9390 C   0  0  0  0  0  0  0  0  0  0  0  0
   25.0157  -25.7073  -15.9279 C   0  0  1  0  0  0  0  0  0  0  0  0
   26.1285  -26.2593  -16.8109 C   0  0  0  0  0  0  0  0  0  0  0  0
   24.6749  -24.3491  -16.4521 C   0  0  2  0  0  0  0  0  0  0  0  0
   25.9087  -23.5567  -16.3539 N   0  0  0  0  0  0  0  0  0  0  0  0
   23.6355  -23.6311  -15.6967 C   0  0  0  0  0  0  0  0  0  0  0  0
   23.9904  -22.9021  -14.7357 O   0  0  0  0  0  0  0  0  0  0  0  0
   21.1967  -21.0463  -18.1368 C   0  0  0  0  0  0  0  0  0  0  0  0
   21.1689  -20.9431  -16.6255 C   0  0  0  0  0  0  0  0  0  0  0  0
   20.3721  -22.1124  -16.1041 C   0  0  2  0  0  0  0  0  0  0  0  0
   19.1645  -21.5871  -15.3543 C   0  0  0  0  0  0  0  0  0  0  0  0
   21.2138  -23.0242  -15.2309 C   0  0  2  0  0  0  0  0  0  0  0  0
   22.2393  -23.7011  -15.9774 N   0  0  0  0  0  0  0  0  0  0  0  0
   20.2612  -23.9978  -14.6021 C   0  0  0  0  0  0  0  0  0  0  0  0
   19.7582  -24.8787  -15.3423 O   0  0  0  0  0  0  0  0  0  0  0  0
   18.3205  -24.9797   -6.1492 N   0  0  0  0  0  0  0  0  0  0  0  0
   18.5480  -26.2821   -6.6682 C   0  0  0  0  0  0  0  0  0  0  0  0
   18.7157  -27.2580   -5.8624 N   0  0  0  0  0  0  0  0  0  0  0  0
   18.5817  -26.4572   -8.0834 N   0  0  0  0  0  0  0  0  0  0  0  0
   18.2961  -25.2760   -8.8933 C   0  0  0  0  0  0  0  0  0  0  0  0
   18.3225  -25.6338  -10.3412 C   0  0  0  0  0  0  0  0  0  0  0  0
   19.0987  -24.6181  -11.1084 C   0  0  0  0  0  0  0  0  0  0  0  0
   19.0458  -24.9349  -12.5807 C   0  0  2  0  0  0  0  0  0  0  0  0
   19.9203  -23.9595  -13.2475 N   0  0  0  0  0  0  0  0  0  0  0  0
   17.6255  -24.6940  -12.9958 C   0  0  0  0  0  0  0  0  0  0  0  0
   16.8223  -25.7596  -13.3693 O   0  0  0  0  0  0  0  0  0  0  0  0
   17.1306  -23.5434  -13.0172 O   0  0  0  0  0  0  0  0  0  0  0  0
  2  4  1  0
  2  1  1  6
  3  2  1  0
  4  5  1  1
  6  4  1  0
  7  6  2  0
  9  8  1  0
 10  9  1  0
 10 11  1  1
 12 10  1  0
 12 13  1  6
 13  6  1  0
 14 15  2  0
 14 12  1  0
 16 17  1  0
 17 18  2  0
 19 17  1  0
 20 19  1  0
 21 20  1  0
 21 22  1  0
 23 22  1  1
 23 24  1  0
 24 14  1  0
 25 26  1  0
 25 23  1  0
 27 25  2  0
M  END
$$$$
