VIR.pdb
     RDKit          3D

 27 26  0  0  1  0  0  0  0  0999 V2000
   27.3662  -15.5142  -15.8055 C   0  0  0  0  0  0  0  0  0  0  0  0
   26.7558  -16.7206  -15.1774 C   0  0  1  0  0  0  0  0  0  0  0  0
   25.4174  -16.9668  -15.8634 C   0  0  0  0  0  0  0  0  0  0  0  0
   27.5490  -17.9821  -15.3013 C   0  0  2  0  0  0  0  0  0  0  0  0
   27.6037  -18.2857  -16.7382 N   0  0  0  0  0  0  0  0  0  0  0  0
   26.9649  -19.1550  -14.6308 C   0  0  0  0  0  0  0  0  0  0  0  0
   26.2007  -19.9031  -15.2920 O   0  0  0  0  0  0  0  0  0  0  0  0
   29.7632  -21.3947  -10.7391 C   0  0  0  0  0  0  0  0  0  0  0  0
   28.7951  -21.5995  -11.8864 C   0  0  0  0  0  0  0  0  0  0  0  0
   27.4407  -21.1180  -11.4305 C   0  0  2  0  0  0  0  0  0  0  0  0
   26.7487  -22.2393  -10.6818 C   0  0  0  0  0  0  0  0  0  0  0  0
   26.5979  -20.6227  -12.5909 C   0  0  2  0  0  0  0  0  0  0  0  0
   27.2047  -19.5108  -13.2710 N   0  0  0  0  0  0  0  0  0  0  0  0
   25.2657  -20.2490  -12.0110 C   0  0  0  0  0  0  0  0  0  0  0  0
   25.1969  -19.1807  -11.3548 O   0  0  0  0  0  0  0  0  0  0  0  0
   18.8994  -19.1418  -16.8621 N   0  0  0  0  0  0  0  0  0  0  0  0
   19.5802  -17.9054  -16.7030 C   0  0  0  0  0  0  0  0  0  0  0  0
   19.0371  -16.8311  -17.1278 N   0  0  0  0  0  0  0  0  0  0  0  0
   20.8579  -17.9058  -16.0689 N   0  0  0  0  0  0  0  0  0  0  0  0
   21.3801  -19.2056  -15.6558 C   0  0  0  0  0  0  0  0  0  0  0  0
   21.5583  -19.2346  -14.1751 C   0  0  0  0  0  0  0  0  0  0  0  0
   22.8654  -19.8609  -13.8262 C   0  0  0  0  0  0  0  0  0  0  0  0
   22.7815  -20.5019  -12.4648 C   0  0  2  0  0  0  0  0  0  0  0  0
   24.1204  -21.0333  -12.1723 N   0  0  0  0  0  0  0  0  0  0  0  0
   21.8165  -21.6397  -12.6121 C   0  0  0  0  0  0  0  0  0  0  0  0
   22.2276  -22.8256  -13.1992 O   0  0  0  0  0  0  0  0  0  0  0  0
   20.6311  -21.5547  -12.2162 O   0  0  0  0  0  0  0  0  0  0  0  0
  2  4  1  0
  2  1  1  6
  3  2  1  0
  4  5  1  6
  6  4  1  0
  7  6  2  0
  9  8  1  0
 10  9  1  0
 10 11  1  6
 12 10  1  0
 12 13  1  1
 13  6  1  0
 14 15  2  0
 14 12  1  0
 16 17  1  0
 17 18  2  0
 19 17  1  0
 20 19  1  0
 21 20  1  0
 21 22  1  0
 23 22  1  6
 23 24  1  0
 24 14  1  0
 25 26  1  0
 25 23  1  0
 27 25  2  0
M  END
$$$$
