VIR.pdb
     RDKit          3D

 27 26  0  0  1  0  0  0  0  0999 V2000
   28.2063  -17.6794  -17.6487 C   0  0  0  0  0  0  0  0  0  0  0  0
   27.7179  -18.5043  -16.5071 C   0  0  1  0  0  0  0  0  0  0  0  0
   26.3866  -19.1190  -16.9224 C   0  0  0  0  0  0  0  0  0  0  0  0
   28.6112  -19.6316  -16.0985 C   0  0  2  0  0  0  0  0  0  0  0  0
   28.6894  -20.5271  -17.2612 N   0  0  0  0  0  0  0  0  0  0  0  0
   28.1254  -20.4334  -14.9638 C   0  0  0  0  0  0  0  0  0  0  0  0
   27.3179  -21.3690  -15.1947 O   0  0  0  0  0  0  0  0  0  0  0  0
   31.0939  -21.5819  -10.4683 C   0  0  0  0  0  0  0  0  0  0  0  0
   30.1319  -21.7460  -11.6273 C   0  0  0  0  0  0  0  0  0  0  0  0
   28.8834  -20.9678  -11.2962 C   0  0  2  0  0  0  0  0  0  0  0  0
   28.2227  -21.5939  -10.0846 C   0  0  0  0  0  0  0  0  0  0  0  0
   27.9307  -20.9012  -12.4753 C   0  0  2  0  0  0  0  0  0  0  0  0
   28.5076  -20.2259  -13.6059 N   0  0  0  0  0  0  0  0  0  0  0  0
   26.7035  -20.1930  -11.9822 C   0  0  0  0  0  0  0  0  0  0  0  0
   26.6826  -18.9403  -12.0662 O   0  0  0  0  0  0  0  0  0  0  0  0
   21.3226  -18.4482  -16.8630 N   0  0  0  0  0  0  0  0  0  0  0  0
   20.4615  -18.3050  -15.7425 C   0  0  0  0  0  0  0  0  0  0  0  0
   19.4342  -17.5526  -15.8329 N   0  0  0  0  0  0  0  0  0  0  0  0
   20.7763  -19.0123  -14.5444 N   0  0  0  0  0  0  0  0  0  0  0  0
   22.1471  -19.4989  -14.4158 C   0  0  0  0  0  0  0  0  0  0  0  0
   22.3486  -20.1001  -13.0655 C   0  0  0  0  0  0  0  0  0  0  0  0
   23.7537  -20.5763  -12.9187 C   0  0  0  0  0  0  0  0  0  0  0  0
   24.2187  -20.3766  -11.4992 C   0  0  2  0  0  0  0  0  0  0  0  0
   25.6038  -20.8656  -11.4428 N   0  0  0  0  0  0  0  0  0  0  0  0
   23.3455  -21.2595  -10.6593 C   0  0  0  0  0  0  0  0  0  0  0  0
   22.1542  -20.7710  -10.1471 O   0  0  0  0  0  0  0  0  0  0  0  0
   23.6602  -22.4439  -10.3997 O   0  0  0  0  0  0  0  0  0  0  0  0
  2  4  1  0
  2  1  1  6
  3  2  1  0
  4  5  1  6
  6  4  1  0
  7  6  2  0
  9  8  1  0
 10  9  1  0
 10 11  1  1
 12 10  1  0
 12 13  1  6
 13  6  1  0
 14 15  2  0
 14 12  1  0
 16 17  1  0
 17 18  2  0
 19 17  1  0
 20 19  1  0
 21 20  1  0
 21 22  1  0
 23 22  1  6
 23 24  1  0
 24 14  1  0
 25 26  1  0
 25 23  1  0
 27 25  2  0
M  END
$$$$
