VIR.pdb
     RDKit          3D

 27 26  0  0  1  0  0  0  0  0999 V2000
   25.7717  -13.6741  -17.2569 C   0  0  0  0  0  0  0  0  0  0  0  0
   24.4224  -13.5919  -17.8853 C   0  0  1  0  0  0  0  0  0  0  0  0
   23.5703  -14.7057  -17.2886 C   0  0  0  0  0  0  0  0  0  0  0  0
   23.6851  -12.3103  -17.6622 C   0  0  2  0  0  0  0  0  0  0  0  0
   23.6360  -12.1207  -16.2057 N   0  0  0  0  0  0  0  0  0  0  0  0
   22.2965  -12.2960  -18.1499 C   0  0  0  0  0  0  0  0  0  0  0  0
   22.0974  -12.3535  -19.3900 O   0  0  0  0  0  0  0  0  0  0  0  0
   19.2619  -15.5326  -17.2229 C   0  0  0  0  0  0  0  0  0  0  0  0
   19.0780  -14.3737  -18.1814 C   0  0  0  0  0  0  0  0  0  0  0  0
   18.8660  -13.1297  -17.3558 C   0  0  2  0  0  0  0  0  0  0  0  0
   17.4143  -12.7093  -17.4671 C   0  0  0  0  0  0  0  0  0  0  0  0
   19.8014  -12.0099  -17.7725 C   0  0  2  0  0  0  0  0  0  0  0  0
   21.1463  -12.2216  -17.3104 N   0  0  0  0  0  0  0  0  0  0  0  0
   19.2206  -10.7474  -17.2072 C   0  0  0  0  0  0  0  0  0  0  0  0
   19.2139  -10.6195  -15.9581 O   0  0  0  0  0  0  0  0  0  0  0  0
   12.0686   -8.7102  -14.9796 N   0  0  0  0  0  0  0  0  0  0  0  0
   12.5776   -7.3893  -14.8630 C   0  0  0  0  0  0  0  0  0  0  0  0
   11.8165   -6.4594  -14.4322 N   0  0  0  0  0  0  0  0  0  0  0  0
   13.9330   -7.1443  -15.2342 N   0  0  0  0  0  0  0  0  0  0  0  0
   14.6950   -8.2936  -15.7150 C   0  0  0  0  0  0  0  0  0  0  0  0
   15.9793   -7.8352  -16.3196 C   0  0  0  0  0  0  0  0  0  0  0  0
   16.7476   -9.0013  -16.8415 C   0  0  0  0  0  0  0  0  0  0  0  0
   18.0225   -8.5281  -17.4909 C   0  0  2  0  0  0  0  0  0  0  0  0
   18.6966   -9.7282  -18.0068 N   0  0  0  0  0  0  0  0  0  0  0  0
   18.8430   -7.9335  -16.3860 C   0  0  0  0  0  0  0  0  0  0  0  0
   19.6804   -8.7409  -15.6330 O   0  0  0  0  0  0  0  0  0  0  0  0
   18.7975   -6.7115  -16.1148 O   0  0  0  0  0  0  0  0  0  0  0  0
  2  4  1  0
  2  1  1  1
  3  2  1  0
  4  5  1  1
  6  4  1  0
  7  6  2  0
  9  8  1  0
 10  9  1  0
 10 11  1  6
 12 10  1  0
 12 13  1  1
 13  6  1  0
 14 15  2  0
 14 12  1  0
 16 17  1  0
 17 18  2  0
 19 17  1  0
 20 19  1  0
 21 20  1  0
 21 22  1  0
 23 22  1  1
 23 24  1  0
 24 14  1  0
 25 26  1  0
 25 23  1  0
 27 25  2  0
M  END
$$$$
