VIR.pdb
     RDKit          3D

 27 26  0  0  1  0  0  0  0  0999 V2000
   28.9523  -20.5680  -19.0028 C   0  0  0  0  0  0  0  0  0  0  0  0
   28.3115  -21.3091  -17.8792 C   0  0  1  0  0  0  0  0  0  0  0  0
   29.3129  -21.3566  -16.7313 C   0  0  0  0  0  0  0  0  0  0  0  0
   27.0566  -20.7012  -17.3395 C   0  0  2  0  0  0  0  0  0  0  0  0
   27.3933  -19.3107  -17.0032 N   0  0  0  0  0  0  0  0  0  0  0  0
   26.5343  -21.3305  -16.1157 C   0  0  0  0  0  0  0  0  0  0  0  0
   26.1346  -22.5209  -16.1790 O   0  0  0  0  0  0  0  0  0  0  0  0
   28.7503  -19.9240  -12.0834 C   0  0  0  0  0  0  0  0  0  0  0  0
   27.9268  -21.1758  -12.3079 C   0  0  0  0  0  0  0  0  0  0  0  0
   26.4801  -20.7593  -12.3949 C   0  0  2  0  0  0  0  0  0  0  0  0
   25.7473  -21.2754  -11.1728 C   0  0  0  0  0  0  0  0  0  0  0  0
   25.8296  -21.2435  -13.6773 C   0  0  2  0  0  0  0  0  0  0  0  0
   26.4475  -20.6830  -14.8483 N   0  0  0  0  0  0  0  0  0  0  0  0
   24.3827  -20.8582  -13.5841 C   0  0  0  0  0  0  0  0  0  0  0  0
   24.1096  -19.6334  -13.5386 O   0  0  0  0  0  0  0  0  0  0  0  0
   16.6417  -22.2711  -13.8271 N   0  0  0  0  0  0  0  0  0  0  0  0
   16.9678  -22.9960  -15.0043 C   0  0  0  0  0  0  0  0  0  0  0  0
   16.1861  -22.9404  -16.0120 N   0  0  0  0  0  0  0  0  0  0  0  0
   18.1673  -23.7678  -15.0209 N   0  0  0  0  0  0  0  0  0  0  0  0
   18.9514  -23.7802  -13.7890 C   0  0  0  0  0  0  0  0  0  0  0  0
   19.6991  -22.4971  -13.6492 C   0  0  0  0  0  0  0  0  0  0  0  0
   21.1676  -22.7483  -13.7048 C   0  0  0  0  0  0  0  0  0  0  0  0
   21.9183  -21.4584  -13.4960 C   0  0  2  0  0  0  0  0  0  0  0  0
   23.3479  -21.7966  -13.5466 N   0  0  0  0  0  0  0  0  0  0  0  0
   21.5640  -21.0034  -12.1121 C   0  0  0  0  0  0  0  0  0  0  0  0
   20.7075  -19.9288  -11.9339 O   0  0  0  0  0  0  0  0  0  0  0  0
   22.0229  -21.5702  -11.0937 O   0  0  0  0  0  0  0  0  0  0  0  0
  2  4  1  0
  2  1  1  6
  3  2  1  0
  4  5  1  1
  6  4  1  0
  7  6  2  0
  9  8  1  0
 10  9  1  0
 10 11  1  1
 12 10  1  0
 12 13  1  6
 13  6  1  0
 14 15  2  0
 14 12  1  0
 16 17  1  0
 17 18  2  0
 19 17  1  0
 20 19  1  0
 21 20  1  0
 21 22  1  0
 23 22  1  1
 23 24  1  0
 24 14  1  0
 25 26  1  0
 25 23  1  0
 27 25  2  0
M  END
$$$$
