PCN.pdb
     RDKit          3D

 22 22  0  0  1  0  0  0  0  0999 V2000
   27.3268  -19.1518  -14.5104 N   0  0  0  0  0  0  0  0  0  0  0  0
   28.6620  -18.6845  -14.8376 C   0  0  0  0  0  0  0  0  0  0  0  0
   29.5622  -19.9093  -14.6424 C   0  0  0  0  0  0  0  0  0  0  0  0
   28.6348  -21.0703  -14.9229 C   0  0  0  0  0  0  0  0  0  0  0  0
   27.2366  -20.4942  -15.0463 C   0  0  1  0  0  0  0  0  0  0  0  0
   26.3631  -21.2951  -14.1724 C   0  0  0  0  0  0  0  0  0  0  0  0
   26.0736  -22.4601  -14.5401 O   0  0  0  0  0  0  0  0  0  0  0  0
   25.8445  -20.7860  -12.9339 N   0  0  0  0  0  0  0  0  0  0  0  0
   24.8477  -21.5547  -12.2817 C   0  0  1  0  0  0  0  0  0  0  0  0
   25.1125  -21.4138  -10.7730 C   0  0  0  0  0  0  0  0  0  0  0  0
   24.8972  -19.7085  -10.2576 S   0  0  0  0  0  0  0  0  0  0  0  0
   23.4664  -21.0563  -12.4819 C   0  0  0  0  0  0  0  0  0  0  0  0
   23.3870  -19.8216  -12.6886 O   0  0  0  0  0  0  0  0  0  0  0  0
   18.6751  -21.1594  -15.5397 N   0  0  0  0  0  0  0  0  0  0  0  0
   19.0289  -21.7034  -14.2703 C   0  0  0  0  0  0  0  0  0  0  0  0
   18.0823  -21.8233  -13.4268 O   0  0  0  0  0  0  0  0  0  0  0  0
   20.4011  -22.1080  -13.9357 C   0  0  0  0  0  0  0  0  0  0  0  0
   21.0098  -21.4140  -12.7690 C   0  0  2  0  0  0  0  0  0  0  0  0
   22.3282  -21.8637  -12.4499 N   0  0  0  0  0  0  0  0  0  0  0  0
   20.0805  -21.3044  -11.6216 C   0  0  0  0  0  0  0  0  0  0  0  0
   19.9437  -22.1867  -10.7435 O   0  0  0  0  0  0  0  0  0  0  0  0
   19.2763  -20.1609  -11.4524 O   0  0  0  0  0  0  0  0  0  0  0  0
  1  5  1  0
  2  1  1  0
  3  2  1  0
  3  4  1  0
  4  5  1  0
  6  8  1  0
  5  6  1  1
  7  6  2  0
  9 10  1  1
  9  8  1  0
 11 10  1  0
 12  9  1  0
 12 19  1  0
 13 12  2  0
 15 14  1  0
 16 15  2  0
 17 15  1  0
 18 19  1  0
 18 17  1  6
 20 18  1  0
 21 20  2  0
 22 20  1  0
M  END
$$$$
