PCN.pdb
     RDKit          3D

 22 22  0  0  1  0  0  0  0  0999 V2000
   28.1886   -9.9982  -19.2824 N   0  0  0  0  0  0  0  0  0  0  0  0
   29.3366  -10.7436  -19.7668 C   0  0  0  0  0  0  0  0  0  0  0  0
   28.9604  -12.2150  -19.5619 C   0  0  0  0  0  0  0  0  0  0  0  0
   27.4518  -12.2055  -19.6651 C   0  0  0  0  0  0  0  0  0  0  0  0
   27.0244  -10.7502  -19.7025 C   0  0  1  0  0  0  0  0  0  0  0  0
   25.9656  -10.5871  -18.6924 C   0  0  0  0  0  0  0  0  0  0  0  0
   24.8777  -11.1851  -18.8803 O   0  0  0  0  0  0  0  0  0  0  0  0
   26.1435   -9.7765  -17.5205 N   0  0  0  0  0  0  0  0  0  0  0  0
   25.0238   -9.6148  -16.6660 C   0  0  1  0  0  0  0  0  0  0  0  0
   25.3910  -10.3012  -15.3393 C   0  0  0  0  0  0  0  0  0  0  0  0
   27.1332  -10.0694  -14.9772 S   0  0  0  0  0  0  0  0  0  0  0  0
   24.7303   -8.2072  -16.3070 C   0  0  0  0  0  0  0  0  0  0  0  0
   25.5810   -7.3810  -16.7158 O   0  0  0  0  0  0  0  0  0  0  0  0
   21.9795   -3.5321  -17.3299 N   0  0  0  0  0  0  0  0  0  0  0  0
   22.9223   -4.2107  -16.5033 C   0  0  0  0  0  0  0  0  0  0  0  0
   23.4963   -3.5064  -15.6108 O   0  0  0  0  0  0  0  0  0  0  0  0
   23.2275   -5.6395  -16.6571 C   0  0  0  0  0  0  0  0  0  0  0  0
   23.2138   -6.4387  -15.4023 C   0  0  2  0  0  0  0  0  0  0  0  0
   23.6120   -7.8000  -15.5775 N   0  0  0  0  0  0  0  0  0  0  0  0
   21.9806   -6.2342  -14.6088 C   0  0  0  0  0  0  0  0  0  0  0  0
   20.8947   -6.8138  -14.8391 O   0  0  0  0  0  0  0  0  0  0  0  0
   21.9665   -5.3477  -13.5148 O   0  0  0  0  0  0  0  0  0  0  0  0
  1  5  1  0
  2  1  1  0
  3  2  1  0
  3  4  1  0
  4  5  1  0
  6  8  1  0
  5  6  1  1
  7  6  2  0
  9 10  1  1
  9  8  1  0
 11 10  1  0
 12  9  1  0
 12 19  1  0
 13 12  2  0
 15 14  1  0
 16 15  2  0
 17 15  1  0
 18 19  1  0
 18 17  1  6
 20 18  1  0
 21 20  2  0
 22 20  1  0
M  END
$$$$
