PCN.pdb
     RDKit          3D

 22 22  0  0  1  0  0  0  0  0999 V2000
   27.2897  -19.3533  -15.1872 N   0  0  0  0  0  0  0  0  0  0  0  0
   28.6415  -19.0496  -15.6216 C   0  0  0  0  0  0  0  0  0  0  0  0
   29.4830  -20.2333  -15.1327 C   0  0  0  0  0  0  0  0  0  0  0  0
   28.4958  -21.3786  -15.1174 C   0  0  0  0  0  0  0  0  0  0  0  0
   27.1260  -20.7797  -15.3762 C   0  0  1  0  0  0  0  0  0  0  0  0
   26.2268  -21.2957  -14.3307 C   0  0  0  0  0  0  0  0  0  0  0  0
   25.5458  -22.3172  -14.5936 O   0  0  0  0  0  0  0  0  0  0  0  0
   26.1120  -20.6712  -13.0427 N   0  0  0  0  0  0  0  0  0  0  0  0
   25.0866  -21.1388  -12.1826 C   0  0  1  0  0  0  0  0  0  0  0  0
   25.4301  -20.6157  -10.7775 C   0  0  0  0  0  0  0  0  0  0  0  0
   24.0406  -20.8508   -9.6665 S   0  0  0  0  0  0  0  0  0  0  0  0
   23.7428  -20.5911  -12.4834 C   0  0  0  0  0  0  0  0  0  0  0  0
   23.7181  -19.3495  -12.6602 O   0  0  0  0  0  0  0  0  0  0  0  0
   19.5430  -19.1178  -15.3720 N   0  0  0  0  0  0  0  0  0  0  0  0
   19.8909  -20.4629  -15.0519 C   0  0  0  0  0  0  0  0  0  0  0  0
   18.9872  -21.3387  -15.2473 O   0  0  0  0  0  0  0  0  0  0  0  0
   21.2107  -20.8366  -14.5256 C   0  0  0  0  0  0  0  0  0  0  0  0
   21.3239  -20.8769  -13.0428 C   0  0  2  0  0  0  0  0  0  0  0  0
   22.5822  -21.3620  -12.5702 N   0  0  0  0  0  0  0  0  0  0  0  0
   20.1309  -21.4681  -12.3951 C   0  0  0  0  0  0  0  0  0  0  0  0
   20.0629  -22.6548  -12.0010 O   0  0  0  0  0  0  0  0  0  0  0  0
   18.9717  -20.6979  -12.1801 O   0  0  0  0  0  0  0  0  0  0  0  0
  1  5  1  0
  2  1  1  0
  3  2  1  0
  3  4  1  0
  4  5  1  0
  6  8  1  0
  5  6  1  1
  7  6  2  0
  9 10  1  1
  9  8  1  0
 11 10  1  0
 12  9  1  0
 12 19  1  0
 13 12  2  0
 15 14  1  0
 16 15  2  0
 17 15  1  0
 18 19  1  0
 18 17  1  6
 20 18  1  0
 21 20  2  0
 22 20  1  0
M  END
$$$$
