PCN.pdb
     RDKit          3D

 22 22  0  0  1  0  0  0  0  0999 V2000
   25.0832  -13.7872  -19.1877 N   0  0  0  0  0  0  0  0  0  0  0  0
   25.6358  -15.0459  -19.6550 C   0  0  0  0  0  0  0  0  0  0  0  0
   25.7334  -15.9187  -18.3992 C   0  0  0  0  0  0  0  0  0  0  0  0
   24.6202  -15.3912  -17.5221 C   0  0  0  0  0  0  0  0  0  0  0  0
   24.0908  -14.1375  -18.1928 C   0  0  1  0  0  0  0  0  0  0  0  0
   24.0568  -13.0826  -17.1661 C   0  0  0  0  0  0  0  0  0  0  0  0
   23.3531  -13.2793  -16.1452 O   0  0  0  0  0  0  0  0  0  0  0  0
   24.7946  -11.8581  -17.3016 N   0  0  0  0  0  0  0  0  0  0  0  0
   24.6337  -10.8861  -16.2821 C   0  0  1  0  0  0  0  0  0  0  0  0
   25.9316  -10.0607  -16.2642 C   0  0  0  0  0  0  0  0  0  0  0  0
   27.2733  -11.0217  -15.5595 S   0  0  0  0  0  0  0  0  0  0  0  0
   23.5532   -9.9054  -16.5410 C   0  0  0  0  0  0  0  0  0  0  0  0
   23.4646   -9.5372  -17.7369 O   0  0  0  0  0  0  0  0  0  0  0  0
   18.5505   -8.0678  -17.3946 N   0  0  0  0  0  0  0  0  0  0  0  0
   19.1401   -8.2613  -16.1109 C   0  0  0  0  0  0  0  0  0  0  0  0
   18.6232   -7.6039  -15.1504 O   0  0  0  0  0  0  0  0  0  0  0  0
   20.2788   -9.1627  -15.8892 C   0  0  0  0  0  0  0  0  0  0  0  0
   21.6126   -8.5078  -15.8156 C   0  0  2  0  0  0  0  0  0  0  0  0
   22.6895   -9.4122  -15.5616 N   0  0  0  0  0  0  0  0  0  0  0  0
   21.6018   -7.2827  -14.9842 C   0  0  0  0  0  0  0  0  0  0  0  0
   22.0067   -7.2355  -13.8001 O   0  0  0  0  0  0  0  0  0  0  0  0
   21.1204   -6.0648  -15.5019 O   0  0  0  0  0  0  0  0  0  0  0  0
  1  5  1  0
  2  1  1  0
  3  2  1  0
  3  4  1  0
  4  5  1  0
  6  8  1  0
  5  6  1  1
  7  6  2  0
  9 10  1  6
  9  8  1  0
 11 10  1  0
 12  9  1  0
 12 19  1  0
 13 12  2  0
 15 14  1  0
 16 15  2  0
 17 15  1  0
 18 19  1  0
 18 17  1  1
 20 18  1  0
 21 20  2  0
 22 20  1  0
M  END
$$$$
