PCN.pdb
     RDKit          3D

 22 22  0  0  1  0  0  0  0  0999 V2000
   19.9441  -11.2321  -18.5290 N   0  0  0  0  0  0  0  0  0  0  0  0
   19.7313  -12.5150  -19.1748 C   0  0  0  0  0  0  0  0  0  0  0  0
   19.1597  -13.4152  -18.0741 C   0  0  0  0  0  0  0  0  0  0  0  0
   18.4501  -12.4402  -17.1616 C   0  0  0  0  0  0  0  0  0  0  0  0
   18.8174  -11.0474  -17.6382 C   0  0  1  0  0  0  0  0  0  0  0  0
   19.2670  -10.2933  -16.4561 C   0  0  0  0  0  0  0  0  0  0  0  0
   18.4216  -10.0443  -15.5619 O   0  0  0  0  0  0  0  0  0  0  0  0
   20.6226   -9.8446  -16.3042 N   0  0  0  0  0  0  0  0  0  0  0  0
   20.9414   -9.1273  -15.1235 C   0  0  1  0  0  0  0  0  0  0  0  0
   22.3181   -9.6388  -14.6664 C   0  0  0  0  0  0  0  0  0  0  0  0
   22.8487   -8.7690  -13.1892 S   0  0  0  0  0  0  0  0  0  0  0  0
   21.1159   -7.6695  -15.3252 C   0  0  0  0  0  0  0  0  0  0  0  0
   21.8469   -7.3659  -16.2983 O   0  0  0  0  0  0  0  0  0  0  0  0
   19.2407   -2.3327  -15.8246 N   0  0  0  0  0  0  0  0  0  0  0  0
   19.7124   -3.0116  -14.6630 C   0  0  0  0  0  0  0  0  0  0  0  0
   20.3028   -2.2929  -13.7931 O   0  0  0  0  0  0  0  0  0  0  0  0
   19.5370   -4.4566  -14.4632 C   0  0  0  0  0  0  0  0  0  0  0  0
   20.7552   -5.2862  -14.6654 C   0  0  2  0  0  0  0  0  0  0  0  0
   20.5314   -6.6901  -14.5204 N   0  0  0  0  0  0  0  0  0  0  0  0
   21.9347   -4.7530  -13.9465 C   0  0  0  0  0  0  0  0  0  0  0  0
   22.1998   -5.0072  -12.7493 O   0  0  0  0  0  0  0  0  0  0  0  0
   22.8518   -3.9047  -14.5963 O   0  0  0  0  0  0  0  0  0  0  0  0
  1  5  1  0
  2  1  1  0
  3  2  1  0
  3  4  1  0
  4  5  1  0
  6  8  1  0
  5  6  1  1
  7  6  2  0
  9 10  1  6
  9  8  1  0
 11 10  1  0
 12  9  1  0
 12 19  1  0
 13 12  2  0
 15 14  1  0
 16 15  2  0
 17 15  1  0
 18 19  1  0
 18 17  1  1
 20 18  1  0
 21 20  2  0
 22 20  1  0
M  END
$$$$
