PCN.pdb
     RDKit          3D

 22 22  0  0  1  0  0  0  0  0999 V2000
   22.7310  -10.6924  -16.1463 N   0  0  0  0  0  0  0  0  0  0  0  0
   22.9597  -12.0860  -16.4836 C   0  0  0  0  0  0  0  0  0  0  0  0
   21.5575  -12.6872  -16.6276 C   0  0  0  0  0  0  0  0  0  0  0  0
   20.7168  -11.5079  -17.0627 C   0  0  0  0  0  0  0  0  0  0  0  0
   21.5940  -10.2760  -16.9408 C   0  0  1  0  0  0  0  0  0  0  0  0
   20.8264   -9.2752  -16.1810 C   0  0  0  0  0  0  0  0  0  0  0  0
   19.8053   -8.7840  -16.7216 O   0  0  0  0  0  0  0  0  0  0  0  0
   21.2099   -8.8558  -14.8622 N   0  0  0  0  0  0  0  0  0  0  0  0
   20.4532   -7.8161  -14.2651 C   0  0  1  0  0  0  0  0  0  0  0  0
   20.2882   -8.1984  -12.7843 C   0  0  0  0  0  0  0  0  0  0  0  0
   21.8545   -8.7487  -12.1030 S   0  0  0  0  0  0  0  0  0  0  0  0
   21.1319   -6.4988  -14.2530 C   0  0  0  0  0  0  0  0  0  0  0  0
   22.3818   -6.5617  -14.1677 O   0  0  0  0  0  0  0  0  0  0  0  0
   22.6453   -1.5720  -14.7322 N   0  0  0  0  0  0  0  0  0  0  0  0
   22.4237   -2.4291  -15.8498 C   0  0  0  0  0  0  0  0  0  0  0  0
   22.8694   -2.0184  -16.9699 O   0  0  0  0  0  0  0  0  0  0  0  0
   21.7234   -3.7156  -15.7357 C   0  0  0  0  0  0  0  0  0  0  0  0
   21.1214   -4.0044  -14.4062 C   0  0  2  0  0  0  0  0  0  0  0  0
   20.4682   -5.2730  -14.3287 N   0  0  0  0  0  0  0  0  0  0  0  0
   20.3527   -2.8596  -13.8670 C   0  0  0  0  0  0  0  0  0  0  0  0
   19.1130   -2.8687  -13.6902 O   0  0  0  0  0  0  0  0  0  0  0  0
   21.0000   -1.6608  -13.5109 O   0  0  0  0  0  0  0  0  0  0  0  0
  1  5  1  0
  2  1  1  0
  3  2  1  0
  3  4  1  0
  4  5  1  0
  6  8  1  0
  5  6  1  1
  7  6  2  0
  9 10  1  1
  9  8  1  0
 11 10  1  0
 12  9  1  0
 12 19  1  0
 13 12  2  0
 15 14  1  0
 16 15  2  0
 17 15  1  0
 18 19  1  0
 18 17  1  6
 20 18  1  0
 21 20  2  0
 22 20  1  0
M  END
$$$$
