PCN.pdb
     RDKit          3D

 22 22  0  0  1  0  0  0  0  0999 V2000
   24.5818  -18.4990  -17.6968 N   0  0  0  0  0  0  0  0  0  0  0  0
   25.0583  -19.8682  -17.7767 C   0  0  0  0  0  0  0  0  0  0  0  0
   24.9666  -20.3971  -16.3413 C   0  0  0  0  0  0  0  0  0  0  0  0
   23.8324  -19.5929  -15.7466 C   0  0  0  0  0  0  0  0  0  0  0  0
   23.4785  -18.5197  -16.7589 C   0  0  1  0  0  0  0  0  0  0  0  0
   23.4490  -17.2383  -16.0342 C   0  0  0  0  0  0  0  0  0  0  0  0
   22.6748  -17.1374  -15.0510 O   0  0  0  0  0  0  0  0  0  0  0  0
   24.2684  -16.1229  -16.4173 N   0  0  0  0  0  0  0  0  0  0  0  0
   24.1509  -14.9363  -15.6503 C   0  0  1  0  0  0  0  0  0  0  0  0
   25.5603  -14.3239  -15.5843 C   0  0  0  0  0  0  0  0  0  0  0  0
   26.6858  -15.4363  -14.7381 S   0  0  0  0  0  0  0  0  0  0  0  0
   23.3021  -13.8919  -16.2708 C   0  0  0  0  0  0  0  0  0  0  0  0
   23.4163  -13.8057  -17.5170 O   0  0  0  0  0  0  0  0  0  0  0  0
   19.4764  -10.4238  -17.2503 N   0  0  0  0  0  0  0  0  0  0  0  0
   19.4164  -10.8251  -15.8835 C   0  0  0  0  0  0  0  0  0  0  0  0
   18.4387  -10.3694  -15.2065 O   0  0  0  0  0  0  0  0  0  0  0  0
   20.4158  -11.7124  -15.2732 C   0  0  0  0  0  0  0  0  0  0  0  0
   21.5335  -12.1297  -16.1620 C   0  0  2  0  0  0  0  0  0  0  0  0
   22.4379  -13.0578  -15.5596 N   0  0  0  0  0  0  0  0  0  0  0  0
   22.1661  -10.9865  -16.8585 C   0  0  0  0  0  0  0  0  0  0  0  0
   21.5985  -10.3013  -17.7397 O   0  0  0  0  0  0  0  0  0  0  0  0
   23.4843  -10.5966  -16.5529 O   0  0  0  0  0  0  0  0  0  0  0  0
  1  5  1  0
  2  1  1  0
  3  2  1  0
  3  4  1  0
  4  5  1  0
  6  8  1  0
  5  6  1  1
  7  6  2  0
  9 10  1  6
  9  8  1  0
 11 10  1  0
 12  9  1  0
 12 19  1  0
 13 12  2  0
 15 14  1  0
 16 15  2  0
 17 15  1  0
 18 19  1  0
 18 17  1  1
 20 18  1  0
 21 20  2  0
 22 20  1  0
M  END
$$$$
