PCN.pdb
     RDKit          3D

 22 22  0  0  1  0  0  0  0  0999 V2000
   28.2631  -22.3473  -11.0938 N   0  0  0  0  0  0  0  0  0  0  0  0
   29.5724  -22.4161  -10.4700 C   0  0  0  0  0  0  0  0  0  0  0  0
   30.0594  -20.9637  -10.4254 C   0  0  0  0  0  0  0  0  0  0  0  0
   28.7753  -20.1688  -10.3501 C   0  0  0  0  0  0  0  0  0  0  0  0
   27.6392  -21.1500  -10.5700 C   0  0  1  0  0  0  0  0  0  0  0  0
   26.7700  -20.5751  -11.6102 C   0  0  0  0  0  0  0  0  0  0  0  0
   26.3064  -19.4243  -11.4181 O   0  0  0  0  0  0  0  0  0  0  0  0
   26.4462  -21.2849  -12.8158 N   0  0  0  0  0  0  0  0  0  0  0  0
   25.6793  -20.5964  -13.7894 C   0  0  1  0  0  0  0  0  0  0  0  0
   26.2691  -20.9839  -15.1562 C   0  0  0  0  0  0  0  0  0  0  0  0
   28.0567  -20.8283  -15.1319 S   0  0  0  0  0  0  0  0  0  0  0  0
   24.2574  -21.0099  -13.8485 C   0  0  0  0  0  0  0  0  0  0  0  0
   24.0781  -22.2511  -13.8182 O   0  0  0  0  0  0  0  0  0  0  0  0
   21.1078  -22.3726  -11.8713 N   0  0  0  0  0  0  0  0  0  0  0  0
   20.6994  -21.0099  -11.7768 C   0  0  0  0  0  0  0  0  0  0  0  0
   20.0392  -20.6921  -10.7352 O   0  0  0  0  0  0  0  0  0  0  0  0
   21.0125  -20.0149  -12.8115 C   0  0  0  0  0  0  0  0  0  0  0  0
   21.8106  -20.5143  -13.9634 C   0  0  2  0  0  0  0  0  0  0  0  0
   23.1842  -20.1212  -13.9311 N   0  0  0  0  0  0  0  0  0  0  0  0
   21.1241  -20.3197  -15.2607 C   0  0  0  0  0  0  0  0  0  0  0  0
   21.3214  -19.3424  -16.0185 O   0  0  0  0  0  0  0  0  0  0  0  0
   20.1826  -21.2580  -15.7256 O   0  0  0  0  0  0  0  0  0  0  0  0
  1  5  1  0
  2  1  1  0
  3  2  1  0
  3  4  1  0
  4  5  1  0
  6  8  1  0
  5  6  1  6
  7  6  2  0
  9 10  1  6
  9  8  1  0
 11 10  1  0
 12  9  1  0
 12 19  1  0
 13 12  2  0
 15 14  1  0
 16 15  2  0
 17 15  1  0
 18 19  1  0
 18 17  1  1
 20 18  1  0
 21 20  2  0
 22 20  1  0
M  END
$$$$
