PCN.pdb
     RDKit          3D

 22 22  0  0  1  0  0  0  0  0999 V2000
   28.0046  -20.6703  -13.7890 N   0  0  0  0  0  0  0  0  0  0  0  0
   29.0295  -21.1956  -12.9048 C   0  0  0  0  0  0  0  0  0  0  0  0
   28.7211  -20.5741  -11.5384 C   0  0  0  0  0  0  0  0  0  0  0  0
   27.2254  -20.3561  -11.5854 C   0  0  0  0  0  0  0  0  0  0  0  0
   26.7851  -20.6456  -13.0082 C   0  0  1  0  0  0  0  0  0  0  0  0
   25.9660  -19.5028  -13.4455 C   0  0  0  0  0  0  0  0  0  0  0  0
   24.9672  -19.1958  -12.7496 O   0  0  0  0  0  0  0  0  0  0  0  0
   26.2759  -18.7457  -14.6257 N   0  0  0  0  0  0  0  0  0  0  0  0
   25.3904  -17.6950  -14.9751 C   0  0  1  0  0  0  0  0  0  0  0  0
   26.2257  -16.6703  -15.7613 C   0  0  0  0  0  0  0  0  0  0  0  0
   27.4116  -15.8689  -14.6789 S   0  0  0  0  0  0  0  0  0  0  0  0
   24.3016  -18.0975  -15.8963 C   0  0  0  0  0  0  0  0  0  0  0  0
   24.6467  -18.9227  -16.7757 O   0  0  0  0  0  0  0  0  0  0  0  0
   19.9247  -21.1576  -15.2223 N   0  0  0  0  0  0  0  0  0  0  0  0
   19.9480  -19.7351  -15.1296 C   0  0  0  0  0  0  0  0  0  0  0  0
   18.8280  -19.1447  -15.2670 O   0  0  0  0  0  0  0  0  0  0  0  0
   21.1831  -18.9764  -14.8902 C   0  0  0  0  0  0  0  0  0  0  0  0
   21.8294  -18.4012  -16.1005 C   0  0  2  0  0  0  0  0  0  0  0  0
   22.9923  -17.6192  -15.8207 N   0  0  0  0  0  0  0  0  0  0  0  0
   20.8553  -17.7823  -17.0281 C   0  0  0  0  0  0  0  0  0  0  0  0
   19.8129  -18.3481  -17.4297 O   0  0  0  0  0  0  0  0  0  0  0  0
   21.0579  -16.4791  -17.5214 O   0  0  0  0  0  0  0  0  0  0  0  0
  1  5  1  0
  2  1  1  0
  3  2  1  0
  3  4  1  0
  4  5  1  0
  6  8  1  0
  5  6  1  6
  7  6  2  0
  9 10  1  6
  9  8  1  0
 11 10  1  0
 12  9  1  0
 12 19  1  0
 13 12  2  0
 15 14  1  0
 16 15  2  0
 17 15  1  0
 18 19  1  0
 18 17  1  1
 20 18  1  0
 21 20  2  0
 22 20  1  0
M  END
$$$$
