PCN.pdb
     RDKit          3D

 22 22  0  0  1  0  0  0  0  0999 V2000
   45.0572  -17.6082  -10.7139 N   0  0  0  0  0  0  0  0  0  0  0  0
   45.0726  -19.0542  -10.8442 C   0  0  0  0  0  0  0  0  0  0  0  0
   43.9596  -19.5414   -9.9103 C   0  0  0  0  0  0  0  0  0  0  0  0
   42.9854  -18.3849   -9.8978 C   0  0  0  0  0  0  0  0  0  0  0  0
   43.6608  -17.2355  -10.6222 C   0  0  1  0  0  0  0  0  0  0  0  0
   43.5427  -16.0518   -9.7544 C   0  0  0  0  0  0  0  0  0  0  0  0
   42.3970  -15.5746   -9.5649 O   0  0  0  0  0  0  0  0  0  0  0  0
   44.6839  -15.4420   -9.1315 N   0  0  0  0  0  0  0  0  0  0  0  0
   44.4401  -14.3719   -8.2341 C   0  0  1  0  0  0  0  0  0  0  0  0
   45.7132  -14.2236   -7.3836 C   0  0  0  0  0  0  0  0  0  0  0  0
   45.8019  -15.5317   -6.1583 S   0  0  0  0  0  0  0  0  0  0  0  0
   44.2562  -13.0563   -8.8910 C   0  0  0  0  0  0  0  0  0  0  0  0
   44.8606  -12.9347   -9.9834 O   0  0  0  0  0  0  0  0  0  0  0  0
   42.3530   -8.3835  -10.3811 N   0  0  0  0  0  0  0  0  0  0  0  0
   41.7720   -8.7513   -9.1321 C   0  0  0  0  0  0  0  0  0  0  0  0
   40.8490   -7.9899   -8.6958 O   0  0  0  0  0  0  0  0  0  0  0  0
   42.2002   -9.9366   -8.3771 C   0  0  0  0  0  0  0  0  0  0  0  0
   43.2315  -10.7816   -9.0371 C   0  0  2  0  0  0  0  0  0  0  0  0
   43.4835  -12.0185   -8.3671 N   0  0  0  0  0  0  0  0  0  0  0  0
   44.4355  -10.0128   -9.4264 C   0  0  0  0  0  0  0  0  0  0  0  0
   45.3232   -9.6461   -8.6228 O   0  0  0  0  0  0  0  0  0  0  0  0
   44.6521   -9.6437  -10.7680 O   0  0  0  0  0  0  0  0  0  0  0  0
  1  5  1  0
  2  1  1  0
  3  2  1  0
  3  4  1  0
  4  5  1  0
  6  8  1  0
  5  6  1  1
  7  6  2  0
  9 10  1  1
  9  8  1  0
 11 10  1  0
 12  9  1  0
 12 19  1  0
 13 12  2  0
 15 14  1  0
 16 15  2  0
 17 15  1  0
 18 19  1  0
 18 17  1  1
 20 18  1  0
 21 20  2  0
 22 20  1  0
M  END
$$$$
