KYY.pdb
     RDKit          3D

 34 35  0  0  1  0  0  0  0  0999 V2000
   29.8403  -34.7117   -5.1821 N   0  0  0  0  0  0  0  0  0  0  0  0
   28.9809  -35.3069   -4.2008 C   0  0  1  0  0  0  0  0  0  0  0  0
   29.7737  -35.9532   -3.0571 C   0  0  0  0  0  0  0  0  0  0  0  0
   30.3361  -37.2337   -3.5916 C   0  0  0  0  0  0  0  0  0  0  0  0
   31.2084  -37.9345   -2.5663 C   0  0  0  0  0  0  0  0  0  0  0  0
   31.7437  -39.2063   -3.1987 C   0  0  0  0  0  0  0  0  0  0  0  0
   32.7154  -39.7670   -2.2722 N   0  0  0  0  0  0  0  0  0  0  0  0
   28.1272  -34.2865   -3.5567 C   0  0  0  0  0  0  0  0  0  0  0  0
   28.6162  -33.5611   -2.6639 O   0  0  0  0  0  0  0  0  0  0  0  0
   22.0801  -28.3804   -1.5779 O   0  0  0  0  0  0  0  0  0  0  0  0
   22.7502  -29.4252   -2.2011 C   0  0  0  0  0  0  0  0  0  0  0  0
   22.2885  -30.7216   -2.1956 C   0  0  0  0  0  0  0  0  0  0  0  0
   22.9512  -31.7717   -2.8147 C   0  0  0  0  0  0  0  0  0  0  0  0
   24.1275  -31.4745   -3.4598 C   0  0  0  0  0  0  0  0  0  0  0  0
   24.8832  -32.5506   -4.1402 C   0  0  0  0  0  0  0  0  0  0  0  0
   26.0279  -33.0403   -3.2998 C   0  0  2  0  0  0  0  0  0  0  0  0
   26.7700  -34.0981   -3.9114 N   0  0  0  0  0  0  0  0  0  0  0  0
   25.4846  -33.4805   -1.9873 C   0  0  0  0  0  0  0  0  0  0  0  0
   25.1321  -34.6842   -1.8797 O   0  0  0  0  0  0  0  0  0  0  0  0
   24.6297  -30.1966   -3.4939 C   0  0  0  0  0  0  0  0  0  0  0  0
   23.9335  -29.1814   -2.8620 C   0  0  0  0  0  0  0  0  0  0  0  0
   29.6313  -32.4520    4.6069 O   0  0  0  0  0  0  0  0  0  0  0  0
   28.6502  -32.8838    3.6996 C   0  0  0  0  0  0  0  0  0  0  0  0
   28.8935  -33.9556    2.8614 C   0  0  0  0  0  0  0  0  0  0  0  0
   27.9454  -34.3947    1.9648 C   0  0  0  0  0  0  0  0  0  0  0  0
   26.6912  -33.7732    1.8626 C   0  0  0  0  0  0  0  0  0  0  0  0
   25.7144  -34.2617    0.8771 C   0  0  0  0  0  0  0  0  0  0  0  0
   24.8244  -33.1496    0.3661 C   0  0  2  0  0  0  0  0  0  0  0  0
   25.3546  -32.6104   -0.8782 N   0  0  0  0  0  0  0  0  0  0  0  0
   24.7308  -32.0288    1.3239 C   0  0  0  0  0  0  0  0  0  0  0  0
   24.0325  -32.2121    2.5008 O   0  0  0  0  0  0  0  0  0  0  0  0
   26.4826  -32.7083    2.7128 C   0  0  0  0  0  0  0  0  0  0  0  0
   27.4311  -32.2708    3.6087 C   0  0  0  0  0  0  0  0  0  0  0  0
   25.2632  -30.9423    1.0842 O   0  0  0  0  0  0  0  0  0  0  0  0
  2  1  1  6
  2  3  1  0
  4  3  1  0
  5  4  1  0
  6  5  1  0
  7  6  1  0
  8  2  1  0
  8  9  2  0
 10 11  1  0
 11 21  2  0
 11 12  1  0
 12 13  2  0
 13 14  1  0
 14 15  1  0
 16 15  1  6
 16 17  1  0
 17  8  1  0
 18 16  1  0
 19 18  2  0
 20 14  2  0
 21 20  1  0
 23 22  1  0
 23 24  2  0
 25 24  1  0
 26 25  2  0
 27 26  1  0
 28 27  1  1
 28 29  1  0
 28 30  1  0
 29 18  1  0
 30 34  2  0
 30 31  1  0
 32 33  2  0
 32 26  1  0
 33 23  1  0
M  END
$$$$
