KYY.pdb
     RDKit          3D

 34 35  0  0  1  0  0  0  0  0999 V2000
   28.0646  -22.7665  -19.4080 N   0  0  0  0  0  0  0  0  0  0  0  0
   28.4440  -21.6674  -18.5690 C   0  0  1  0  0  0  0  0  0  0  0  0
   28.1424  -20.3127  -19.2234 C   0  0  0  0  0  0  0  0  0  0  0  0
   28.2057  -20.5250  -20.7041 C   0  0  0  0  0  0  0  0  0  0  0  0
   29.6022  -20.2823  -21.2464 C   0  0  0  0  0  0  0  0  0  0  0  0
   29.5067  -20.1866  -22.7583 C   0  0  0  0  0  0  0  0  0  0  0  0
   28.4488  -19.2340  -23.0593 N   0  0  0  0  0  0  0  0  0  0  0  0
   27.6721  -21.6730  -17.3085 C   0  0  0  0  0  0  0  0  0  0  0  0
   26.5359  -22.1939  -17.2943 O   0  0  0  0  0  0  0  0  0  0  0  0
   24.5682  -20.2799   -9.2973 O   0  0  0  0  0  0  0  0  0  0  0  0
   25.4325  -20.3585  -10.3817 C   0  0  0  0  0  0  0  0  0  0  0  0
   25.9016  -19.2499  -11.0488 C   0  0  0  0  0  0  0  0  0  0  0  0
   26.7645  -19.3186  -12.1331 C   0  0  0  0  0  0  0  0  0  0  0  0
   27.1555  -20.5708  -12.5420 C   0  0  0  0  0  0  0  0  0  0  0  0
   28.0753  -20.7126  -13.6934 C   0  0  0  0  0  0  0  0  0  0  0  0
   27.3393  -21.0894  -14.9475 C   0  0  2  0  0  0  0  0  0  0  0  0
   28.1703  -21.1074  -16.1105 N   0  0  0  0  0  0  0  0  0  0  0  0
   26.2142  -20.1340  -15.1297 C   0  0  0  0  0  0  0  0  0  0  0  0
   26.4902  -18.9928  -15.5837 O   0  0  0  0  0  0  0  0  0  0  0  0
   26.7154  -21.7075  -11.9091 C   0  0  0  0  0  0  0  0  0  0  0  0
   25.8554  -21.5894  -10.8317 C   0  0  0  0  0  0  0  0  0  0  0  0
   20.7408  -23.4531  -18.8655 O   0  0  0  0  0  0  0  0  0  0  0  0
   21.4598  -22.4044  -18.2692 C   0  0  0  0  0  0  0  0  0  0  0  0
   20.8287  -21.5168  -17.4181 C   0  0  0  0  0  0  0  0  0  0  0  0
   21.5151  -20.4820  -16.8234 C   0  0  0  0  0  0  0  0  0  0  0  0
   22.8849  -20.2832  -17.0556 C   0  0  0  0  0  0  0  0  0  0  0  0
   23.5757  -19.1531  -16.4156 C   0  0  0  0  0  0  0  0  0  0  0  0
   23.8597  -19.4205  -14.9535 C   0  0  2  0  0  0  0  0  0  0  0  0
   24.8720  -20.4584  -14.8178 N   0  0  0  0  0  0  0  0  0  0  0  0
   22.6581  -19.8843  -14.2302 C   0  0  0  0  0  0  0  0  0  0  0  0
   22.6791  -21.1259  -13.6265 O   0  0  0  0  0  0  0  0  0  0  0  0
   23.4821  -21.1863  -17.9089 C   0  0  0  0  0  0  0  0  0  0  0  0
   22.7947  -22.2203  -18.5024 C   0  0  0  0  0  0  0  0  0  0  0  0
   21.6467  -19.1815  -14.1625 O   0  0  0  0  0  0  0  0  0  0  0  0
  2  1  1  6
  2  3  1  0
  4  3  1  0
  5  4  1  0
  6  5  1  0
  7  6  1  0
  8  2  1  0
  8  9  2  0
 10 11  1  0
 11 21  2  0
 11 12  1  0
 12 13  2  0
 13 14  1  0
 14 15  1  0
 16 15  1  1
 16 17  1  0
 17  8  1  0
 18 16  1  0
 19 18  2  0
 20 14  2  0
 21 20  1  0
 23 22  1  0
 23 24  2  0
 25 24  1  0
 26 25  2  0
 27 26  1  0
 28 27  1  6
 28 29  1  0
 28 30  1  0
 29 18  1  0
 30 34  2  0
 30 31  1  0
 32 33  2  0
 32 26  1  0
 33 23  1  0
M  END
$$$$
