KYY.pdb
     RDKit          3D

 34 35  0  0  1  0  0  0  0  0999 V2000
   28.6009  -19.9122  -18.4582 N   0  0  0  0  0  0  0  0  0  0  0  0
   27.4849  -20.4139  -17.7108 C   0  0  1  0  0  0  0  0  0  0  0  0
   27.9011  -20.9164  -16.3220 C   0  0  0  0  0  0  0  0  0  0  0  0
   28.6841  -22.1746  -16.5351 C   0  0  0  0  0  0  0  0  0  0  0  0
   27.7762  -23.3804  -16.6935 C   0  0  0  0  0  0  0  0  0  0  0  0
   28.6534  -24.6055  -16.8769 C   0  0  0  0  0  0  0  0  0  0  0  0
   27.7697  -25.7215  -17.1779 N   0  0  0  0  0  0  0  0  0  0  0  0
   26.4938  -19.3466  -17.4593 C   0  0  0  0  0  0  0  0  0  0  0  0
   26.8276  -18.3574  -16.7719 O   0  0  0  0  0  0  0  0  0  0  0  0
   19.9855  -13.6484  -17.4819 O   0  0  0  0  0  0  0  0  0  0  0  0
   20.8996  -14.6382  -17.8193 C   0  0  0  0  0  0  0  0  0  0  0  0
   22.2578  -14.4211  -17.8641 C   0  0  0  0  0  0  0  0  0  0  0  0
   23.1783  -15.4032  -18.2005 C   0  0  0  0  0  0  0  0  0  0  0  0
   22.6814  -16.6488  -18.5001 C   0  0  0  0  0  0  0  0  0  0  0  0
   23.6113  -17.7407  -18.8671 C   0  0  0  0  0  0  0  0  0  0  0  0
   24.2607  -18.3462  -17.6554 C   0  0  2  0  0  0  0  0  0  0  0  0
   25.1739  -19.4010  -17.9674 N   0  0  0  0  0  0  0  0  0  0  0  0
   23.1874  -18.8407  -16.7525 C   0  0  0  0  0  0  0  0  0  0  0  0
   22.6842  -19.9652  -17.0112 O   0  0  0  0  0  0  0  0  0  0  0  0
   21.3345  -16.9158  -18.4694 C   0  0  0  0  0  0  0  0  0  0  0  0
   20.4542  -15.9042  -18.1281 C   0  0  0  0  0  0  0  0  0  0  0  0
   17.5327  -20.0419  -10.0966 O   0  0  0  0  0  0  0  0  0  0  0  0
   18.5933  -19.5913  -10.8993 C   0  0  0  0  0  0  0  0  0  0  0  0
   18.5494  -18.3378  -11.4802 C   0  0  0  0  0  0  0  0  0  0  0  0
   19.5783  -17.8770  -12.2704 C   0  0  0  0  0  0  0  0  0  0  0  0
   20.7161  -18.6597  -12.5208 C   0  0  0  0  0  0  0  0  0  0  0  0
   21.7836  -18.1368  -13.3873 C   0  0  0  0  0  0  0  0  0  0  0  0
   21.7031  -18.7056  -14.7873 C   0  0  2  0  0  0  0  0  0  0  0  0
   22.7236  -18.1057  -15.6351 N   0  0  0  0  0  0  0  0  0  0  0  0
   20.3956  -18.4385  -15.4208 C   0  0  0  0  0  0  0  0  0  0  0  0
   20.1300  -17.1695  -15.8957 O   0  0  0  0  0  0  0  0  0  0  0  0
   20.7266  -19.9034  -11.9262 C   0  0  0  0  0  0  0  0  0  0  0  0
   19.6975  -20.3625  -11.1363 C   0  0  0  0  0  0  0  0  0  0  0  0
   19.5475  -19.3279  -15.5268 O   0  0  0  0  0  0  0  0  0  0  0  0
  2  1  1  1
  2  3  1  0
  4  3  1  0
  5  4  1  0
  6  5  1  0
  7  6  1  0
  8  2  1  0
  8  9  2  0
 10 11  1  0
 11 21  2  0
 11 12  1  0
 12 13  2  0
 13 14  1  0
 14 15  1  0
 16 15  1  6
 16 17  1  0
 17  8  1  0
 18 16  1  0
 19 18  2  0
 20 14  2  0
 21 20  1  0
 23 22  1  0
 23 24  2  0
 25 24  1  0
 26 25  2  0
 27 26  1  0
 28 27  1  1
 28 29  1  0
 28 30  1  0
 29 18  1  0
 30 34  2  0
 30 31  1  0
 32 33  2  0
 32 26  1  0
 33 23  1  0
M  END
$$$$
