KYY.pdb
     RDKit          3D

 34 35  0  0  1  0  0  0  0  0999 V2000
   28.1540  -21.6378  -18.6927 N   0  0  0  0  0  0  0  0  0  0  0  0
   27.9089  -20.4664  -17.9030 C   0  0  1  0  0  0  0  0  0  0  0  0
   26.9617  -19.4855  -18.6066 C   0  0  0  0  0  0  0  0  0  0  0  0
   26.7133  -20.0335  -19.9776 C   0  0  0  0  0  0  0  0  0  0  0  0
   25.3183  -20.6178  -20.1039 C   0  0  0  0  0  0  0  0  0  0  0  0
   25.1131  -21.0297  -21.5504 C   0  0  0  0  0  0  0  0  0  0  0  0
   23.8252  -21.7028  -21.6234 N   0  0  0  0  0  0  0  0  0  0  0  0
   27.2373  -20.8154  -16.6334 C   0  0  0  0  0  0  0  0  0  0  0  0
   26.3423  -21.6880  -16.6394 O   0  0  0  0  0  0  0  0  0  0  0  0
   24.2570  -21.2303   -8.4692 O   0  0  0  0  0  0  0  0  0  0  0  0
   25.0177  -20.8867   -9.5792 C   0  0  0  0  0  0  0  0  0  0  0  0
   24.9008  -19.6761  -10.2231 C   0  0  0  0  0  0  0  0  0  0  0  0
   25.6558  -19.3244  -11.3328 C   0  0  0  0  0  0  0  0  0  0  0  0
   26.5600  -20.2512  -11.7924 C   0  0  0  0  0  0  0  0  0  0  0  0
   27.3963  -19.9373  -12.9730 C   0  0  0  0  0  0  0  0  0  0  0  0
   26.8325  -20.5407  -14.2278 C   0  0  2  0  0  0  0  0  0  0  0  0
   27.5680  -20.1962  -15.4043 N   0  0  0  0  0  0  0  0  0  0  0  0
   25.4165  -20.1048  -14.3563 C   0  0  0  0  0  0  0  0  0  0  0  0
   25.2024  -18.9665  -14.8494 O   0  0  0  0  0  0  0  0  0  0  0  0
   26.7143  -21.4731  -11.1845 C   0  0  0  0  0  0  0  0  0  0  0  0
   25.9389  -21.7795  -10.0802 C   0  0  0  0  0  0  0  0  0  0  0  0
   21.1141  -15.0222  -17.0641 O   0  0  0  0  0  0  0  0  0  0  0  0
   21.4844  -16.3257  -16.6954 C   0  0  0  0  0  0  0  0  0  0  0  0
   20.6237  -17.1171  -15.9582 C   0  0  0  0  0  0  0  0  0  0  0  0
   20.9673  -18.3973  -15.5864 C   0  0  0  0  0  0  0  0  0  0  0  0
   22.2062  -18.9545  -15.9393 C   0  0  0  0  0  0  0  0  0  0  0  0
   22.5414  -20.3192  -15.5045 C   0  0  0  0  0  0  0  0  0  0  0  0
   22.9813  -20.3580  -14.0571 C   0  0  2  0  0  0  0  0  0  0  0  0
   24.3245  -20.9102  -13.9525 N   0  0  0  0  0  0  0  0  0  0  0  0
   22.0954  -21.2026  -13.2300 C   0  0  0  0  0  0  0  0  0  0  0  0
   20.9155  -20.6670  -12.7532 O   0  0  0  0  0  0  0  0  0  0  0  0
   23.0394  -18.1381  -16.6739 C   0  0  0  0  0  0  0  0  0  0  0  0
   22.6944  -16.8586  -17.0451 C   0  0  0  0  0  0  0  0  0  0  0  0
   22.3971  -22.3684  -12.9628 O   0  0  0  0  0  0  0  0  0  0  0  0
  2  1  1  6
  2  3  1  0
  4  3  1  0
  5  4  1  0
  6  5  1  0
  7  6  1  0
  8  2  1  0
  8  9  2  0
 10 11  1  0
 11 21  2  0
 11 12  1  0
 12 13  2  0
 13 14  1  0
 14 15  1  0
 16 15  1  1
 16 17  1  0
 17  8  1  0
 18 16  1  0
 19 18  2  0
 20 14  2  0
 21 20  1  0
 23 22  1  0
 23 24  2  0
 25 24  1  0
 26 25  2  0
 27 26  1  0
 28 27  1  6
 28 29  1  0
 28 30  1  0
 29 18  1  0
 30 34  2  0
 30 31  1  0
 32 33  2  0
 32 26  1  0
 33 23  1  0
M  END
$$$$
