KYY.pdb
     RDKit          3D

 34 35  0  0  1  0  0  0  0  0999 V2000
   28.4334  -23.5112  -20.5166 N   0  0  0  0  0  0  0  0  0  0  0  0
   27.3703  -23.8551  -19.6181 C   0  0  1  0  0  0  0  0  0  0  0  0
   27.5943  -23.2790  -18.2137 C   0  0  0  0  0  0  0  0  0  0  0  0
   28.6720  -24.1004  -17.5770 C   0  0  0  0  0  0  0  0  0  0  0  0
   28.2060  -25.5174  -17.2974 C   0  0  0  0  0  0  0  0  0  0  0  0
   29.3086  -26.2307  -16.5360 C   0  0  0  0  0  0  0  0  0  0  0  0
   28.9063  -27.6231  -16.4077 N   0  0  0  0  0  0  0  0  0  0  0  0
   26.0860  -23.2836  -20.0748 C   0  0  0  0  0  0  0  0  0  0  0  0
   26.0441  -22.0831  -20.4205 O   0  0  0  0  0  0  0  0  0  0  0  0
   25.8650  -23.7469  -26.6013 O   0  0  0  0  0  0  0  0  0  0  0  0
   25.1531  -23.8487  -25.4132 C   0  0  0  0  0  0  0  0  0  0  0  0
   24.0119  -23.1230  -25.1580 C   0  0  0  0  0  0  0  0  0  0  0  0
   23.2947  -23.2175  -23.9741 C   0  0  0  0  0  0  0  0  0  0  0  0
   23.7700  -24.0884  -23.0235 C   0  0  0  0  0  0  0  0  0  0  0  0
   23.0504  -24.2355  -21.7381 C   0  0  0  0  0  0  0  0  0  0  0  0
   23.7031  -23.4405  -20.6434 C   0  0  2  0  0  0  0  0  0  0  0  0
   24.8945  -24.0452  -20.1349 N   0  0  0  0  0  0  0  0  0  0  0  0
   22.7110  -23.2531  -19.5516 C   0  0  0  0  0  0  0  0  0  0  0  0
   22.1501  -24.2831  -19.0943 O   0  0  0  0  0  0  0  0  0  0  0  0
   24.9041  -24.8350  -23.2305 C   0  0  0  0  0  0  0  0  0  0  0  0
   25.5865  -24.7071  -24.4274 C   0  0  0  0  0  0  0  0  0  0  0  0
   18.2267  -26.9583  -15.6160 O   0  0  0  0  0  0  0  0  0  0  0  0
   19.1461  -25.9360  -15.9023 C   0  0  0  0  0  0  0  0  0  0  0  0
   18.8743  -24.6285  -15.5459 C   0  0  0  0  0  0  0  0  0  0  0  0
   19.7618  -23.6117  -15.8174 C   0  0  0  0  0  0  0  0  0  0  0  0
   20.9808  -23.8582  -16.4679 C   0  0  0  0  0  0  0  0  0  0  0  0
   21.8916  -22.7398  -16.7566 C   0  0  0  0  0  0  0  0  0  0  0  0
   21.4169  -21.9151  -17.9332 C   0  0  2  0  0  0  0  0  0  0  0  0
   22.3841  -21.9826  -19.0196 N   0  0  0  0  0  0  0  0  0  0  0  0
   21.2523  -20.4897  -17.5819 C   0  0  0  0  0  0  0  0  0  0  0  0
   21.9824  -19.5427  -18.2724 O   0  0  0  0  0  0  0  0  0  0  0  0
   21.2193  -25.1724  -16.8089 C   0  0  0  0  0  0  0  0  0  0  0  0
   20.3312  -26.1878  -16.5365 C   0  0  0  0  0  0  0  0  0  0  0  0
   20.4789  -20.1413  -16.6865 O   0  0  0  0  0  0  0  0  0  0  0  0
  2  1  1  6
  2  3  1  0
  4  3  1  0
  5  4  1  0
  6  5  1  0
  7  6  1  0
  8  2  1  0
  8  9  2  0
 10 11  1  0
 11 21  2  0
 11 12  1  0
 12 13  2  0
 13 14  1  0
 14 15  1  0
 16 15  1  6
 16 17  1  0
 17  8  1  0
 18 16  1  0
 19 18  2  0
 20 14  2  0
 21 20  1  0
 23 22  1  0
 23 24  2  0
 25 24  1  0
 26 25  2  0
 27 26  1  0
 28 27  1  1
 28 29  1  0
 28 30  1  0
 29 18  1  0
 30 34  2  0
 30 31  1  0
 32 33  2  0
 32 26  1  0
 33 23  1  0
M  END
$$$$
