KYY.pdb
     RDKit          3D

 34 35  0  0  1  0  0  0  0  0999 V2000
   28.4775  -26.2666  -16.1087 N   0  0  0  0  0  0  0  0  0  0  0  0
   28.1490  -26.2014  -17.5028 C   0  0  1  0  0  0  0  0  0  0  0  0
   29.0406  -27.1206  -18.3481 C   0  0  0  0  0  0  0  0  0  0  0  0
   30.4581  -26.7557  -18.0332 C   0  0  0  0  0  0  0  0  0  0  0  0
   31.4401  -27.5169  -18.9047 C   0  0  0  0  0  0  0  0  0  0  0  0
   32.8270  -26.9569  -18.6454 C   0  0  0  0  0  0  0  0  0  0  0  0
   33.7569  -27.7290  -19.4555 N   0  0  0  0  0  0  0  0  0  0  0  0
   26.7673  -26.6682  -17.7431 C   0  0  0  0  0  0  0  0  0  0  0  0
   26.5699  -27.8759  -17.9981 O   0  0  0  0  0  0  0  0  0  0  0  0
   24.4282  -32.6775  -18.2261 O   0  0  0  0  0  0  0  0  0  0  0  0
   24.3062  -31.3506  -17.8344 C   0  0  0  0  0  0  0  0  0  0  0  0
   23.1307  -30.6426  -17.9395 C   0  0  0  0  0  0  0  0  0  0  0  0
   22.9995  -29.3170  -17.5515 C   0  0  0  0  0  0  0  0  0  0  0  0
   24.1165  -28.7025  -17.0388 C   0  0  0  0  0  0  0  0  0  0  0  0
   24.0426  -27.2886  -16.6064 C   0  0  0  0  0  0  0  0  0  0  0  0
   24.3337  -26.3466  -17.7398 C   0  0  2  0  0  0  0  0  0  0  0  0
   25.6527  -25.7970  -17.6975 N   0  0  0  0  0  0  0  0  0  0  0  0
   23.3188  -25.2599  -17.7118 C   0  0  0  0  0  0  0  0  0  0  0  0
   23.4241  -24.3911  -16.8069 O   0  0  0  0  0  0  0  0  0  0  0  0
   25.3125  -29.3661  -16.9134 C   0  0  0  0  0  0  0  0  0  0  0  0
   25.3954  -30.6880  -17.3139 C   0  0  0  0  0  0  0  0  0  0  0  0
   26.2487  -20.3358  -20.3366 O   0  0  0  0  0  0  0  0  0  0  0  0
   25.0380  -21.0295  -20.1782 C   0  0  0  0  0  0  0  0  0  0  0  0
   24.8025  -22.1979  -20.8783 C   0  0  0  0  0  0  0  0  0  0  0  0
   23.6225  -22.8930  -20.7376 C   0  0  0  0  0  0  0  0  0  0  0  0
   22.6075  -22.4457  -19.8777 C   0  0  0  0  0  0  0  0  0  0  0  0
   21.3539  -23.2081  -19.7721 C   0  0  0  0  0  0  0  0  0  0  0  0
   21.3195  -24.0674  -18.5270 C   0  0  2  0  0  0  0  0  0  0  0  0
   22.2619  -25.1707  -18.6493 N   0  0  0  0  0  0  0  0  0  0  0  0
   19.9846  -24.6560  -18.2952 C   0  0  0  0  0  0  0  0  0  0  0  0
   19.8533  -26.0304  -18.2824 O   0  0  0  0  0  0  0  0  0  0  0  0
   22.8755  -21.2781  -19.1957 C   0  0  0  0  0  0  0  0  0  0  0  0
   24.0557  -20.5845  -19.3372 C   0  0  0  0  0  0  0  0  0  0  0  0
   18.9966  -23.9393  -18.1168 O   0  0  0  0  0  0  0  0  0  0  0  0
  2  1  1  1
  2  3  1  0
  4  3  1  0
  5  4  1  0
  6  5  1  0
  7  6  1  0
  8  2  1  0
  8  9  2  0
 10 11  1  0
 11 21  2  0
 11 12  1  0
 12 13  2  0
 13 14  1  0
 14 15  1  0
 16 15  1  1
 16 17  1  0
 17  8  1  0
 18 16  1  0
 19 18  2  0
 20 14  2  0
 21 20  1  0
 23 22  1  0
 23 24  2  0
 25 24  1  0
 26 25  2  0
 27 26  1  0
 28 27  1  6
 28 29  1  0
 28 30  1  0
 29 18  1  0
 30 34  2  0
 30 31  1  0
 32 33  2  0
 32 26  1  0
 33 23  1  0
M  END
$$$$
