KYY.pdb
     RDKit          3D

 34 35  0  0  1  0  0  0  0  0999 V2000
   28.7716  -23.8073  -17.3046 N   0  0  0  0  0  0  0  0  0  0  0  0
   28.1940  -22.5020  -17.1688 C   0  0  1  0  0  0  0  0  0  0  0  0
   27.3173  -22.1322  -18.3726 C   0  0  0  0  0  0  0  0  0  0  0  0
   28.2366  -21.9737  -19.5436 C   0  0  0  0  0  0  0  0  0  0  0  0
   28.8102  -20.5707  -19.6205 C   0  0  0  0  0  0  0  0  0  0  0  0
   29.6378  -20.4727  -20.8893 C   0  0  0  0  0  0  0  0  0  0  0  0
   30.2059  -19.1337  -20.9255 N   0  0  0  0  0  0  0  0  0  0  0  0
   27.2951  -22.4406  -15.9971 C   0  0  0  0  0  0  0  0  0  0  0  0
   26.5645  -23.4217  -15.7399 O   0  0  0  0  0  0  0  0  0  0  0  0
   23.0182  -20.5091   -8.6836 O   0  0  0  0  0  0  0  0  0  0  0  0
   23.9276  -20.4733   -9.7328 C   0  0  0  0  0  0  0  0  0  0  0  0
   25.1073  -21.1820   -9.7274 C   0  0  0  0  0  0  0  0  0  0  0  0
   26.0219  -21.1519  -10.7703 C   0  0  0  0  0  0  0  0  0  0  0  0
   25.7093  -20.3656  -11.8529 C   0  0  0  0  0  0  0  0  0  0  0  0
   26.6435  -20.2901  -12.9989 C   0  0  0  0  0  0  0  0  0  0  0  0
   26.3151  -21.3119  -14.0499 C   0  0  2  0  0  0  0  0  0  0  0  0
   27.2270  -21.3081  -15.1508 N   0  0  0  0  0  0  0  0  0  0  0  0
   24.9286  -21.0594  -14.5250 C   0  0  0  0  0  0  0  0  0  0  0  0
   24.7639  -20.1439  -15.3732 O   0  0  0  0  0  0  0  0  0  0  0  0
   24.5445  -19.6398  -11.9062 C   0  0  0  0  0  0  0  0  0  0  0  0
   23.6625  -19.7012  -10.8418 C   0  0  0  0  0  0  0  0  0  0  0  0
   16.3115  -21.1659  -16.2313 O   0  0  0  0  0  0  0  0  0  0  0  0
   17.6332  -21.5221  -15.9175 C   0  0  0  0  0  0  0  0  0  0  0  0
   17.9679  -21.9148  -14.6352 C   0  0  0  0  0  0  0  0  0  0  0  0
   19.2575  -22.2678  -14.3067 C   0  0  0  0  0  0  0  0  0  0  0  0
   20.2881  -22.2441  -15.2591 C   0  0  0  0  0  0  0  0  0  0  0  0
   21.6562  -22.6098  -14.8611 C   0  0  0  0  0  0  0  0  0  0  0  0
   22.4850  -21.3940  -14.5079 C   0  0  2  0  0  0  0  0  0  0  0  0
   23.8121  -21.7989  -14.0663 N   0  0  0  0  0  0  0  0  0  0  0  0
   21.8801  -20.6088  -13.4125 C   0  0  0  0  0  0  0  0  0  0  0  0
   21.3269  -19.3768  -13.6999 O   0  0  0  0  0  0  0  0  0  0  0  0
   19.9192  -21.8479  -16.5269 C   0  0  0  0  0  0  0  0  0  0  0  0
   18.6296  -21.4956  -16.8538 C   0  0  0  0  0  0  0  0  0  0  0  0
   21.8661  -21.0377  -12.2561 O   0  0  0  0  0  0  0  0  0  0  0  0
  2  1  1  6
  2  3  1  0
  4  3  1  0
  5  4  1  0
  6  5  1  0
  7  6  1  0
  8  2  1  0
  8  9  2  0
 10 11  1  0
 11 21  2  0
 11 12  1  0
 12 13  2  0
 13 14  1  0
 14 15  1  0
 16 15  1  1
 16 17  1  0
 17  8  1  0
 18 16  1  0
 19 18  2  0
 20 14  2  0
 21 20  1  0
 23 22  1  0
 23 24  2  0
 25 24  1  0
 26 25  2  0
 27 26  1  0
 28 27  1  1
 28 29  1  0
 28 30  1  0
 29 18  1  0
 30 34  2  0
 30 31  1  0
 32 33  2  0
 32 26  1  0
 33 23  1  0
M  END
$$$$
