KYY.pdb
     RDKit          3D

 34 35  0  0  1  0  0  0  0  0999 V2000
   28.8968  -24.1720  -17.3423 N   0  0  0  0  0  0  0  0  0  0  0  0
   28.5917  -22.7903  -17.1110 C   0  0  1  0  0  0  0  0  0  0  0  0
   27.7465  -22.1900  -18.2423 C   0  0  0  0  0  0  0  0  0  0  0  0
   28.7019  -21.7488  -19.3073 C   0  0  0  0  0  0  0  0  0  0  0  0
   29.1758  -20.3249  -19.0810 C   0  0  0  0  0  0  0  0  0  0  0  0
   30.0221  -19.9186  -20.2738 C   0  0  0  0  0  0  0  0  0  0  0  0
   30.4827  -18.5606  -20.0270 N   0  0  0  0  0  0  0  0  0  0  0  0
   27.7797  -22.6256  -15.8869 C   0  0  0  0  0  0  0  0  0  0  0  0
   26.9294  -23.4957  -15.6004 O   0  0  0  0  0  0  0  0  0  0  0  0
   24.0950  -20.1377   -8.4181 O   0  0  0  0  0  0  0  0  0  0  0  0
   24.9416  -20.1960   -9.5175 C   0  0  0  0  0  0  0  0  0  0  0  0
   24.8247  -19.3540  -10.5998 C   0  0  0  0  0  0  0  0  0  0  0  0
   25.6651  -19.4053  -11.7026 C   0  0  0  0  0  0  0  0  0  0  0  0
   26.6577  -20.3554  -11.6880 C   0  0  0  0  0  0  0  0  0  0  0  0
   27.5879  -20.4621  -12.8348 C   0  0  0  0  0  0  0  0  0  0  0  0
   27.0597  -21.3890  -13.8923 C   0  0  2  0  0  0  0  0  0  0  0  0
   27.9264  -21.5146  -15.0223 N   0  0  0  0  0  0  0  0  0  0  0  0
   25.7233  -20.8941  -14.3173 C   0  0  0  0  0  0  0  0  0  0  0  0
   25.6912  -19.9864  -15.1890 O   0  0  0  0  0  0  0  0  0  0  0  0
   26.8159  -21.2185  -10.6315 C   0  0  0  0  0  0  0  0  0  0  0  0
   25.9532  -21.1298   -9.5532 C   0  0  0  0  0  0  0  0  0  0  0  0
   22.0357  -27.1838  -14.5270 O   0  0  0  0  0  0  0  0  0  0  0  0
   22.2598  -25.8217  -14.7849 C   0  0  0  0  0  0  0  0  0  0  0  0
   21.3107  -24.8775  -14.4410 C   0  0  0  0  0  0  0  0  0  0  0  0
   21.5107  -23.5374  -14.6851 C   0  0  0  0  0  0  0  0  0  0  0  0
   22.6865  -23.0717  -15.2938 C   0  0  0  0  0  0  0  0  0  0  0  0
   22.8512  -21.6334  -15.5546 C   0  0  0  0  0  0  0  0  0  0  0  0
   23.2568  -20.8770  -14.3083 C   0  0  2  0  0  0  0  0  0  0  0  0
   24.5120  -21.3996  -13.7871 N   0  0  0  0  0  0  0  0  0  0  0  0
   22.2517  -20.9994  -13.2327 C   0  0  0  0  0  0  0  0  0  0  0  0
   21.0135  -20.4131  -13.4053 O   0  0  0  0  0  0  0  0  0  0  0  0
   23.6108  -24.0398  -15.6234 C   0  0  0  0  0  0  0  0  0  0  0  0
   23.4096  -25.3790  -15.3785 C   0  0  0  0  0  0  0  0  0  0  0  0
   22.5056  -21.6119  -12.1927 O   0  0  0  0  0  0  0  0  0  0  0  0
  2  1  1  6
  2  3  1  0
  4  3  1  0
  5  4  1  0
  6  5  1  0
  7  6  1  0
  8  2  1  0
  8  9  2  0
 10 11  1  0
 11 21  2  0
 11 12  1  0
 12 13  2  0
 13 14  1  0
 14 15  1  0
 16 15  1  1
 16 17  1  0
 17  8  1  0
 18 16  1  0
 19 18  2  0
 20 14  2  0
 21 20  1  0
 23 22  1  0
 23 24  2  0
 25 24  1  0
 26 25  2  0
 27 26  1  0
 28 27  1  6
 28 29  1  0
 28 30  1  0
 29 18  1  0
 30 34  2  0
 30 31  1  0
 32 33  2  0
 32 26  1  0
 33 23  1  0
M  END
$$$$
