YGI.pdb
     RDKit          3D

 25 25  0  0  1  0  0  0  0  0999 V2000
   28.7417  -19.8299   -3.2458 O   0  0  0  0  0  0  0  0  0  0  0  0
   28.2932  -19.7883   -4.5630 C   0  0  0  0  0  0  0  0  0  0  0  0
   28.7929  -18.8380   -5.4275 C   0  0  0  0  0  0  0  0  0  0  0  0
   28.3544  -18.7838   -6.7469 C   0  0  0  0  0  0  0  0  0  0  0  0
   27.4180  -19.6677   -7.2261 C   0  0  0  0  0  0  0  0  0  0  0  0
   26.9349  -19.6304   -8.6279 C   0  0  0  0  0  0  0  0  0  0  0  0
   27.0997  -21.0192   -9.2033 C   0  0  2  0  0  0  0  0  0  0  0  0
   28.5215  -21.2575   -9.3379 N   0  0  0  0  0  0  0  0  0  0  0  0
   26.4668  -21.1674  -10.5195 C   0  0  0  0  0  0  0  0  0  0  0  0
   27.1202  -20.9073  -11.5557 O   0  0  0  0  0  0  0  0  0  0  0  0
   26.9202  -20.6135   -6.3676 C   0  0  0  0  0  0  0  0  0  0  0  0
   27.3550  -20.6754   -5.0398 C   0  0  0  0  0  0  0  0  0  0  0  0
   25.1153  -21.6019  -10.6926 N   0  0  0  0  0  0  0  0  0  0  0  0
   24.4844  -21.7102  -11.9620 C   0  0  0  0  0  0  0  0  0  0  0  0
   23.5077  -20.6754  -12.2968 C   0  0  0  0  0  0  0  0  0  0  0  0
   23.1802  -19.7846  -11.4296 O   0  0  0  0  0  0  0  0  0  0  0  0
   22.5890  -18.3949  -17.2734 C   0  0  0  0  0  0  0  0  0  0  0  0
   22.8362  -18.5595  -15.7801 C   0  0  0  0  0  0  0  0  0  0  0  0
   21.6088  -19.1674  -15.1856 C   0  0  2  0  0  0  0  0  0  0  0  0
   20.4662  -18.1874  -15.3523 C   0  0  0  0  0  0  0  0  0  0  0  0
   21.7651  -19.5653  -13.7463 C   0  0  2  0  0  0  0  0  0  0  0  0
   22.8288  -20.5136  -13.5330 N   0  0  0  0  0  0  0  0  0  0  0  0
   20.5062  -20.1843  -13.2663 C   0  0  0  0  0  0  0  0  0  0  0  0
   20.1729  -21.5156  -13.4474 O   0  0  0  0  0  0  0  0  0  0  0  0
   19.6889  -19.4541  -12.6558 O   0  0  0  0  0  0  0  0  0  0  0  0
  2 12  2  0
  2  1  1  0
  3  2  1  0
  4  5  1  0
  4  3  2  0
  5 11  2  0
  6  5  1  0
  7  9  1  0
  7  6  1  0
  7  8  1  6
  9 10  2  0
 11 12  1  0
 13 14  1  0
 13  9  1  0
 15 22  1  0
 15 14  1  0
 16 15  2  0
 18 17  1  0
 19 20  1  1
 19 18  1  0
 21 22  1  6
 21 19  1  0
 23 21  1  0
 24 23  1  0
 25 23  2  0
M  END
$$$$
