YGI.pdb
     RDKit          3D

 25 25  0  0  1  0  0  0  0  0999 V2000
   21.3337  -37.6595   -7.7115 O   0  0  0  0  0  0  0  0  0  0  0  0
   22.0595  -37.1438   -8.7815 C   0  0  0  0  0  0  0  0  0  0  0  0
   23.4363  -37.2125   -8.7725 C   0  0  0  0  0  0  0  0  0  0  0  0
   24.1755  -36.7014   -9.8347 C   0  0  0  0  0  0  0  0  0  0  0  0
   23.5626  -36.1172  -10.9168 C   0  0  0  0  0  0  0  0  0  0  0  0
   24.3283  -35.5653  -12.0609 C   0  0  0  0  0  0  0  0  0  0  0  0
   24.2301  -34.0579  -11.9896 C   0  0  2  0  0  0  0  0  0  0  0  0
   24.8324  -33.5350  -13.1981 N   0  0  0  0  0  0  0  0  0  0  0  0
   24.9318  -33.4973  -10.8285 C   0  0  0  0  0  0  0  0  0  0  0  0
   26.1838  -33.4973  -10.8000 O   0  0  0  0  0  0  0  0  0  0  0  0
   22.1935  -36.0481  -10.9273 C   0  0  0  0  0  0  0  0  0  0  0  0
   21.4423  -36.5592   -9.8640 C   0  0  0  0  0  0  0  0  0  0  0  0
   24.2537  -32.9377   -9.7005 N   0  0  0  0  0  0  0  0  0  0  0  0
   24.9255  -32.4488   -8.5468 C   0  0  0  0  0  0  0  0  0  0  0  0
   25.2283  -33.4268   -7.5034 C   0  0  0  0  0  0  0  0  0  0  0  0
   24.8985  -34.6605   -7.6522 O   0  0  0  0  0  0  0  0  0  0  0  0
   29.7753  -33.5447   -4.3995 C   0  0  0  0  0  0  0  0  0  0  0  0
   28.6011  -33.8136   -5.3307 C   0  0  0  0  0  0  0  0  0  0  0  0
   27.3795  -33.9564   -4.4841 C   0  0  2  0  0  0  0  0  0  0  0  0
   27.6151  -35.0815   -3.4981 C   0  0  0  0  0  0  0  0  0  0  0  0
   26.1211  -34.1895   -5.2694 C   0  0  2  0  0  0  0  0  0  0  0  0
   25.8806  -33.1784   -6.2673 N   0  0  0  0  0  0  0  0  0  0  0  0
   24.9595  -34.1992   -4.3480 C   0  0  0  0  0  0  0  0  0  0  0  0
   24.4482  -35.3376   -3.7492 O   0  0  0  0  0  0  0  0  0  0  0  0
   24.4031  -33.1039   -4.0938 O   0  0  0  0  0  0  0  0  0  0  0  0
  2 12  2  0
  2  1  1  0
  3  2  1  0
  4  5  1  0
  4  3  2  0
  5 11  2  0
  6  5  1  0
  7  9  1  0
  7  6  1  0
  7  8  1  6
  9 10  2  0
 11 12  1  0
 13 14  1  0
 13  9  1  0
 15 22  1  0
 15 14  1  0
 16 15  2  0
 18 17  1  0
 19 20  1  1
 19 18  1  0
 21 22  1  6
 21 19  1  0
 23 21  1  0
 24 23  1  0
 25 23  2  0
M  END
$$$$
