YGI.pdb
     RDKit          3D

 25 25  0  0  1  0  0  0  0  0999 V2000
   15.9291  -20.3989  -15.5340 O   0  0  0  0  0  0  0  0  0  0  0  0
   17.1295  -20.9054  -15.0437 C   0  0  0  0  0  0  0  0  0  0  0  0
   18.0706  -21.4054  -15.9182 C   0  0  0  0  0  0  0  0  0  0  0  0
   19.2751  -21.9150  -15.4433 C   0  0  0  0  0  0  0  0  0  0  0  0
   19.5626  -21.9359  -14.0999 C   0  0  0  0  0  0  0  0  0  0  0  0
   20.8390  -22.4736  -13.5692 C   0  0  0  0  0  0  0  0  0  0  0  0
   21.8227  -21.3270  -13.5014 C   0  0  2  0  0  0  0  0  0  0  0  0
   22.0891  -20.9143  -14.8634 N   0  0  0  0  0  0  0  0  0  0  0  0
   23.0900  -21.7030  -12.8628 C   0  0  0  0  0  0  0  0  0  0  0  0
   23.8925  -22.4501  -13.4677 O   0  0  0  0  0  0  0  0  0  0  0  0
   18.6278  -21.4390  -13.2290 C   0  0  0  0  0  0  0  0  0  0  0  0
   17.4143  -20.9248  -13.6972 C   0  0  0  0  0  0  0  0  0  0  0  0
   23.4713  -21.2555  -11.5591 N   0  0  0  0  0  0  0  0  0  0  0  0
   24.7012  -21.6082  -10.9392 C   0  0  0  0  0  0  0  0  0  0  0  0
   25.8980  -20.9240  -11.4254 C   0  0  0  0  0  0  0  0  0  0  0  0
   25.8609  -19.6707  -11.7097 O   0  0  0  0  0  0  0  0  0  0  0  0
   30.0352  -20.5060   -9.4982 C   0  0  0  0  0  0  0  0  0  0  0  0
   29.7769  -21.7931  -10.2693 C   0  0  0  0  0  0  0  0  0  0  0  0
   29.6329  -21.4324  -11.7110 C   0  0  2  0  0  0  0  0  0  0  0  0
   30.8160  -20.5729  -12.1048 C   0  0  0  0  0  0  0  0  0  0  0  0
   28.3397  -20.7428  -12.0375 C   0  0  2  0  0  0  0  0  0  0  0  0
   27.1788  -21.4975  -11.6391 N   0  0  0  0  0  0  0  0  0  0  0  0
   28.2541  -20.5229  -13.5013 C   0  0  0  0  0  0  0  0  0  0  0  0
   28.5326  -19.3200  -14.1271 O   0  0  0  0  0  0  0  0  0  0  0  0
   27.9065  -21.4901  -14.2207 O   0  0  0  0  0  0  0  0  0  0  0  0
  2 12  2  0
  2  1  1  0
  3  2  1  0
  4  5  1  0
  4  3  2  0
  5 11  2  0
  6  5  1  0
  7  9  1  0
  7  6  1  0
  7  8  1  6
  9 10  2  0
 11 12  1  0
 13 14  1  0
 13  9  1  0
 15 22  1  0
 15 14  1  0
 16 15  2  0
 18 17  1  0
 19 20  1  1
 19 18  1  0
 21 22  1  6
 21 19  1  0
 23 21  1  0
 24 23  1  0
 25 23  2  0
M  END
$$$$
