YGI.pdb
     RDKit          3D

 25 25  0  0  1  0  0  0  0  0999 V2000
   20.8406  -21.9732   -6.3301 O   0  0  0  0  0  0  0  0  0  0  0  0
   21.8869  -21.5783   -7.1590 C   0  0  0  0  0  0  0  0  0  0  0  0
   23.1408  -22.1247   -6.9877 C   0  0  0  0  0  0  0  0  0  0  0  0
   24.1966  -21.7400   -7.8083 C   0  0  0  0  0  0  0  0  0  0  0  0
   24.0248  -20.8117   -8.8065 C   0  0  0  0  0  0  0  0  0  0  0  0
   25.1341  -20.3853   -9.6940 C   0  0  0  0  0  0  0  0  0  0  0  0
   24.6226  -20.4318  -11.1164 C   0  0  2  0  0  0  0  0  0  0  0  0
   24.1011  -21.7644  -11.3373 N   0  0  0  0  0  0  0  0  0  0  0  0
   25.6725  -20.1627  -12.1066 C   0  0  0  0  0  0  0  0  0  0  0  0
   26.3565  -19.1175  -12.0179 O   0  0  0  0  0  0  0  0  0  0  0  0
   22.7784  -20.2673   -8.9782 C   0  0  0  0  0  0  0  0  0  0  0  0
   21.7113  -20.6479   -8.1581 C   0  0  0  0  0  0  0  0  0  0  0  0
   25.9673  -21.0450  -13.1927 N   0  0  0  0  0  0  0  0  0  0  0  0
   26.9485  -20.7665  -14.1832 C   0  0  0  0  0  0  0  0  0  0  0  0
   26.6515  -19.6746  -15.1086 C   0  0  0  0  0  0  0  0  0  0  0  0
   25.4501  -19.2330  -15.2300 O   0  0  0  0  0  0  0  0  0  0  0  0
   27.2189  -14.9634  -17.3779 C   0  0  0  0  0  0  0  0  0  0  0  0
   28.0089  -15.9745  -18.1975 C   0  0  0  0  0  0  0  0  0  0  0  0
   28.3770  -17.1006  -17.2888 C   0  0  2  0  0  0  0  0  0  0  0  0
   29.4099  -17.9575  -17.9905 C   0  0  0  0  0  0  0  0  0  0  0  0
   27.2065  -17.9304  -16.8461 C   0  0  2  0  0  0  0  0  0  0  0  0
   27.5738  -18.9930  -15.9451 N   0  0  0  0  0  0  0  0  0  0  0  0
   26.5625  -18.5463  -18.0312 C   0  0  0  0  0  0  0  0  0  0  0  0
   26.7208  -19.8695  -18.4056 O   0  0  0  0  0  0  0  0  0  0  0  0
   25.8255  -17.8212  -18.7417 O   0  0  0  0  0  0  0  0  0  0  0  0
  2 12  2  0
  2  1  1  0
  3  2  1  0
  4  5  1  0
  4  3  2  0
  5 11  2  0
  6  5  1  0
  7  9  1  0
  7  6  1  0
  7  8  1  6
  9 10  2  0
 11 12  1  0
 13 14  1  0
 13  9  1  0
 15 22  1  0
 15 14  1  0
 16 15  2  0
 18 17  1  0
 19 20  1  6
 19 18  1  0
 21 22  1  1
 21 19  1  0
 23 21  1  0
 24 23  1  0
 25 23  2  0
M  END
$$$$
