YGI.pdb
     RDKit          3D

 25 25  0  0  1  0  0  0  0  0999 V2000
   19.2148  -18.7662  -15.7325 O   0  0  0  0  0  0  0  0  0  0  0  0
   20.1012  -19.3701  -14.8452 C   0  0  0  0  0  0  0  0  0  0  0  0
   20.8306  -20.4689  -15.2463 C   0  0  0  0  0  0  0  0  0  0  0  0
   21.7205  -21.0834  -14.3708 C   0  0  0  0  0  0  0  0  0  0  0  0
   21.8992  -20.6190  -13.0901 C   0  0  0  0  0  0  0  0  0  0  0  0
   22.8415  -21.2564  -12.1384 C   0  0  0  0  0  0  0  0  0  0  0  0
   23.9079  -20.2381  -11.8027 C   0  0  2  0  0  0  0  0  0  0  0  0
   24.6291  -19.9585  -13.0267 N   0  0  0  0  0  0  0  0  0  0  0  0
   24.8569  -20.7214  -10.7923 C   0  0  0  0  0  0  0  0  0  0  0  0
   24.4289  -21.2557   -9.7437 O   0  0  0  0  0  0  0  0  0  0  0  0
   21.1746  -19.5263  -12.6896 C   0  0  0  0  0  0  0  0  0  0  0  0
   20.2778  -18.9023  -13.5628 C   0  0  0  0  0  0  0  0  0  0  0  0
   26.2755  -20.6156  -10.9384 N   0  0  0  0  0  0  0  0  0  0  0  0
   27.1998  -21.0882   -9.9670 C   0  0  0  0  0  0  0  0  0  0  0  0
   27.0621  -20.5469   -8.6161 C   0  0  0  0  0  0  0  0  0  0  0  0
   26.1351  -19.6978   -8.3466 O   0  0  0  0  0  0  0  0  0  0  0  0
   28.7445  -21.2186   -2.8275 C   0  0  0  0  0  0  0  0  0  0  0  0
   28.5614  -20.0968   -3.8405 C   0  0  0  0  0  0  0  0  0  0  0  0
   28.7434  -20.6851   -5.2007 C   0  0  2  0  0  0  0  0  0  0  0  0
   30.1479  -20.3678   -5.6702 C   0  0  0  0  0  0  0  0  0  0  0  0
   27.7273  -20.2201   -6.2036 C   0  0  2  0  0  0  0  0  0  0  0  0
   27.8687  -20.8548   -7.4893 N   0  0  0  0  0  0  0  0  0  0  0  0
   27.8665  -18.7577   -6.4048 C   0  0  0  0  0  0  0  0  0  0  0  0
   27.2951  -17.7995   -5.5854 O   0  0  0  0  0  0  0  0  0  0  0  0
   28.5468  -18.3619   -7.3818 O   0  0  0  0  0  0  0  0  0  0  0  0
  2 12  2  0
  2  1  1  0
  3  2  1  0
  4  5  1  0
  4  3  2  0
  5 11  2  0
  6  5  1  0
  7  9  1  0
  7  6  1  0
  7  8  1  6
  9 10  2  0
 11 12  1  0
 13 14  1  0
 13  9  1  0
 15 22  1  0
 15 14  1  0
 16 15  2  0
 18 17  1  0
 19 20  1  6
 19 18  1  0
 21 22  1  6
 21 19  1  0
 23 21  1  0
 24 23  1  0
 25 23  2  0
M  END
$$$$
