YGI.pdb
     RDKit          3D

 25 25  0  0  1  0  0  0  0  0999 V2000
   18.5559  -19.2371  -16.0375 O   0  0  0  0  0  0  0  0  0  0  0  0
   19.6364  -19.7430  -15.3204 C   0  0  0  0  0  0  0  0  0  0  0  0
   20.4145  -20.7414  -15.8663 C   0  0  0  0  0  0  0  0  0  0  0  0
   21.4977  -21.2571  -15.1617 C   0  0  0  0  0  0  0  0  0  0  0  0
   21.8237  -20.7922  -13.9106 C   0  0  0  0  0  0  0  0  0  0  0  0
   22.9732  -21.3256  -13.1397 C   0  0  0  0  0  0  0  0  0  0  0  0
   24.0181  -20.2348  -13.0672 C   0  0  2  0  0  0  0  0  0  0  0  0
   24.4830  -20.0010  -14.4184 N   0  0  0  0  0  0  0  0  0  0  0  0
   25.1649  -20.6017  -12.2274 C   0  0  0  0  0  0  0  0  0  0  0  0
   24.9760  -20.9749  -11.0471 O   0  0  0  0  0  0  0  0  0  0  0  0
   21.0509  -19.7993  -13.3662 C   0  0  0  0  0  0  0  0  0  0  0  0
   19.9602  -19.2749  -14.0671 C   0  0  0  0  0  0  0  0  0  0  0  0
   26.5177  -20.5570  -12.6889 N   0  0  0  0  0  0  0  0  0  0  0  0
   27.6397  -20.7924  -11.8480 C   0  0  0  0  0  0  0  0  0  0  0  0
   27.3528  -21.2170  -10.4790 C   0  0  0  0  0  0  0  0  0  0  0  0
   27.0683  -22.4448  -10.2245 O   0  0  0  0  0  0  0  0  0  0  0  0
   28.8690  -19.7747   -4.7213 C   0  0  0  0  0  0  0  0  0  0  0  0
   27.9515  -20.6316   -5.5827 C   0  0  0  0  0  0  0  0  0  0  0  0
   27.9991  -20.0853   -6.9714 C   0  0  2  0  0  0  0  0  0  0  0  0
   27.4678  -18.6674   -6.9415 C   0  0  0  0  0  0  0  0  0  0  0  0
   27.2516  -20.9146   -7.9754 C   0  0  2  0  0  0  0  0  0  0  0  0
   27.3463  -20.4003   -9.3180 N   0  0  0  0  0  0  0  0  0  0  0  0
   25.8155  -20.9566   -7.6089 C   0  0  0  0  0  0  0  0  0  0  0  0
   24.8058  -20.3548   -8.3399 O   0  0  0  0  0  0  0  0  0  0  0  0
   25.4936  -21.5783   -6.5678 O   0  0  0  0  0  0  0  0  0  0  0  0
  2 12  2  0
  2  1  1  0
  3  2  1  0
  4  5  1  0
  4  3  2  0
  5 11  2  0
  6  5  1  0
  7  9  1  0
  7  6  1  0
  7  8  1  6
  9 10  2  0
 11 12  1  0
 13 14  1  0
 13  9  1  0
 15 22  1  0
 15 14  1  0
 16 15  2  0
 18 17  1  0
 19 20  1  1
 19 18  1  0
 21 22  1  6
 21 19  1  0
 23 21  1  0
 24 23  1  0
 25 23  2  0
M  END
$$$$
