YGI.pdb
     RDKit          3D

 25 25  0  0  1  0  0  0  0  0999 V2000
   15.4306  -24.6106    1.2836 O   0  0  0  0  0  0  0  0  0  0  0  0
   15.5397  -23.5004    2.1164 C   0  0  0  0  0  0  0  0  0  0  0  0
   14.4608  -22.6583    2.2810 C   0  0  0  0  0  0  0  0  0  0  0  0
   14.5545  -21.5448    3.1100 C   0  0  0  0  0  0  0  0  0  0  0  0
   15.7147  -21.2515    3.7850 C   0  0  0  0  0  0  0  0  0  0  0  0
   15.8394  -20.0709    4.6742 C   0  0  0  0  0  0  0  0  0  0  0  0
   15.9845  -18.8506    3.7928 C   0  0  2  0  0  0  0  0  0  0  0  0
   17.2922  -18.9250    3.1756 N   0  0  0  0  0  0  0  0  0  0  0  0
   15.8846  -17.5928    4.5433 C   0  0  0  0  0  0  0  0  0  0  0  0
   14.7835  -17.0014    4.6202 O   0  0  0  0  0  0  0  0  0  0  0  0
   16.7885  -22.0880    3.6224 C   0  0  0  0  0  0  0  0  0  0  0  0
   16.7035  -23.2095    2.7912 C   0  0  0  0  0  0  0  0  0  0  0  0
   16.9975  -16.9885    5.2077 N   0  0  0  0  0  0  0  0  0  0  0  0
   16.8926  -15.8102    5.9962 C   0  0  0  0  0  0  0  0  0  0  0  0
   18.1385  -15.2780    6.5451 C   0  0  0  0  0  0  0  0  0  0  0  0
   19.2435  -15.9165    6.3891 O   0  0  0  0  0  0  0  0  0  0  0  0
   21.2424  -10.1826    7.2166 C   0  0  0  0  0  0  0  0  0  0  0  0
   21.1565  -11.6220    7.7054 C   0  0  0  0  0  0  0  0  0  0  0  0
   19.7766  -12.1135    7.4160 C   0  0  2  0  0  0  0  0  0  0  0  0
   18.7965  -11.2582    8.1916 C   0  0  0  0  0  0  0  0  0  0  0  0
   19.5744  -13.5693    7.7233 C   0  0  2  0  0  0  0  0  0  0  0  0
   18.3004  -14.0712    7.2748 N   0  0  0  0  0  0  0  0  0  0  0  0
   19.6512  -13.7792    9.1890 C   0  0  0  0  0  0  0  0  0  0  0  0
   20.8238  -14.0293    9.8809 O   0  0  0  0  0  0  0  0  0  0  0  0
   18.5838  -13.7269    9.8461 O   0  0  0  0  0  0  0  0  0  0  0  0
  2 12  2  0
  2  1  1  0
  3  2  1  0
  4  5  1  0
  4  3  2  0
  5 11  2  0
  6  5  1  0
  7  9  1  0
  7  6  1  0
  7  8  1  1
  9 10  2  0
 11 12  1  0
 13 14  1  0
 13  9  1  0
 15 22  1  0
 15 14  1  0
 16 15  2  0
 18 17  1  0
 19 20  1  1
 19 18  1  0
 21 22  1  1
 21 19  1  0
 23 21  1  0
 24 23  1  0
 25 23  2  0
M  END
$$$$
