YGI.pdb
     RDKit          3D

 25 25  0  0  1  0  0  0  0  0999 V2000
   13.5514  -22.6111   -1.3815 O   0  0  0  0  0  0  0  0  0  0  0  0
   13.9144  -22.0846   -0.1450 C   0  0  0  0  0  0  0  0  0  0  0  0
   15.1857  -22.2969    0.3439 C   0  0  0  0  0  0  0  0  0  0  0  0
   15.5633  -21.7771    1.5781 C   0  0  0  0  0  0  0  0  0  0  0  0
   14.6892  -21.0423    2.3422 C   0  0  0  0  0  0  0  0  0  0  0  0
   15.0678  -20.4778    3.6605 C   0  0  0  0  0  0  0  0  0  0  0  0
   15.8062  -19.1828    3.4061 C   0  0  2  0  0  0  0  0  0  0  0  0
   17.0461  -19.5242    2.7408 N   0  0  0  0  0  0  0  0  0  0  0  0
   16.1157  -18.4533    4.6418 C   0  0  0  0  0  0  0  0  0  0  0  0
   15.1841  -18.0000    5.3452 O   0  0  0  0  0  0  0  0  0  0  0  0
   13.4245  -20.8303    1.8574 C   0  0  0  0  0  0  0  0  0  0  0  0
   13.0362  -21.3489    0.6179 C   0  0  0  0  0  0  0  0  0  0  0  0
   17.4506  -18.2241    5.1008 N   0  0  0  0  0  0  0  0  0  0  0  0
   17.7555  -17.5827    6.3324 C   0  0  0  0  0  0  0  0  0  0  0  0
   19.1727  -17.4081    6.6451 C   0  0  0  0  0  0  0  0  0  0  0  0
   20.0713  -18.0124    5.9521 O   0  0  0  0  0  0  0  0  0  0  0  0
   21.1965  -13.3246    9.9968 C   0  0  0  0  0  0  0  0  0  0  0  0
   20.8938  -14.1972    8.7865 C   0  0  0  0  0  0  0  0  0  0  0  0
   21.4633  -15.5512    9.0546 C   0  0  2  0  0  0  0  0  0  0  0  0
   22.9634  -15.4121    9.2098 C   0  0  0  0  0  0  0  0  0  0  0  0
   21.1274  -16.5696    8.0037 C   0  0  2  0  0  0  0  0  0  0  0  0
   19.7239  -16.6079    7.6799 N   0  0  0  0  0  0  0  0  0  0  0  0
   21.5170  -17.9181    8.4814 C   0  0  0  0  0  0  0  0  0  0  0  0
   22.6234  -18.6163    8.0294 O   0  0  0  0  0  0  0  0  0  0  0  0
   20.7970  -18.4627    9.3525 O   0  0  0  0  0  0  0  0  0  0  0  0
  2 12  2  0
  2  1  1  0
  3  2  1  0
  4  5  1  0
  4  3  2  0
  5 11  2  0
  6  5  1  0
  7  9  1  0
  7  6  1  0
  7  8  1  1
  9 10  2  0
 11 12  1  0
 13 14  1  0
 13  9  1  0
 15 22  1  0
 15 14  1  0
 16 15  2  0
 18 17  1  0
 19 20  1  6
 19 18  1  0
 21 22  1  1
 21 19  1  0
 23 21  1  0
 24 23  1  0
 25 23  2  0
M  END
$$$$
