YGI.pdb
     RDKit          3D

 25 25  0  0  1  0  0  0  0  0999 V2000
   19.5350  -17.2919  -19.3142 O   0  0  0  0  0  0  0  0  0  0  0  0
   20.7139  -17.7817  -18.7590 C   0  0  0  0  0  0  0  0  0  0  0  0
   21.8149  -16.9592  -18.6527 C   0  0  0  0  0  0  0  0  0  0  0  0
   23.0002  -17.4344  -18.1001 C   0  0  0  0  0  0  0  0  0  0  0  0
   23.1102  -18.7267  -17.6468 C   0  0  0  0  0  0  0  0  0  0  0  0
   24.3623  -19.2565  -17.0540 C   0  0  0  0  0  0  0  0  0  0  0  0
   24.1336  -19.4076  -15.5668 C   0  0  2  0  0  0  0  0  0  0  0  0
   23.8740  -18.0841  -15.0401 N   0  0  0  0  0  0  0  0  0  0  0  0
   25.2925  -19.9774  -14.8688 C   0  0  0  0  0  0  0  0  0  0  0  0
   25.6833  -21.1323  -15.1545 O   0  0  0  0  0  0  0  0  0  0  0  0
   22.0161  -19.5459  -17.7518 C   0  0  0  0  0  0  0  0  0  0  0  0
   20.8206  -19.0770  -18.3058 C   0  0  0  0  0  0  0  0  0  0  0  0
   26.0192  -19.2745  -13.8573 N   0  0  0  0  0  0  0  0  0  0  0  0
   27.1492  -19.8163  -13.1860 C   0  0  0  0  0  0  0  0  0  0  0  0
   26.8785  -20.6244  -11.9984 C   0  0  0  0  0  0  0  0  0  0  0  0
   26.5452  -21.8607  -12.1145 O   0  0  0  0  0  0  0  0  0  0  0  0
   28.0674  -19.2334   -6.4704 C   0  0  0  0  0  0  0  0  0  0  0  0
   27.1969  -19.3991   -7.7085 C   0  0  0  0  0  0  0  0  0  0  0  0
   27.5327  -20.7189   -8.3208 C   0  0  2  0  0  0  0  0  0  0  0  0
   29.0052  -20.7161   -8.6748 C   0  0  0  0  0  0  0  0  0  0  0  0
   26.6960  -21.0620   -9.5195 C   0  0  2  0  0  0  0  0  0  0  0  0
   26.9387  -20.1971  -10.6461 N   0  0  0  0  0  0  0  0  0  0  0  0
   25.2602  -20.9509   -9.1667 C   0  0  0  0  0  0  0  0  0  0  0  0
   24.5651  -21.8882   -8.4221 O   0  0  0  0  0  0  0  0  0  0  0  0
   24.6334  -19.9415   -9.5692 O   0  0  0  0  0  0  0  0  0  0  0  0
  2 12  2  0
  2  1  1  0
  3  2  1  0
  4  5  1  0
  4  3  2  0
  5 11  2  0
  6  5  1  0
  7  9  1  0
  7  6  1  0
  7  8  1  1
  9 10  2  0
 11 12  1  0
 13 14  1  0
 13  9  1  0
 15 22  1  0
 15 14  1  0
 16 15  2  0
 18 17  1  0
 19 20  1  6
 19 18  1  0
 21 22  1  6
 21 19  1  0
 23 21  1  0
 24 23  1  0
 25 23  2  0
M  END
$$$$
