YGI.pdb
     RDKit          3D

 25 25  0  0  1  0  0  0  0  0999 V2000
   29.0710  -19.6310   -4.9920 O   0  0  0  0  0  0  0  0  0  0  0  0
   28.7375  -19.7178   -6.3408 C   0  0  0  0  0  0  0  0  0  0  0  0
   27.5211  -19.2393   -6.7783 C   0  0  0  0  0  0  0  0  0  0  0  0
   27.1735  -19.3190   -8.1232 C   0  0  0  0  0  0  0  0  0  0  0  0
   28.0238  -19.8722   -9.0499 C   0  0  0  0  0  0  0  0  0  0  0  0
   27.6764  -19.9686  -10.4886 C   0  0  0  0  0  0  0  0  0  0  0  0
   26.5205  -20.9356  -10.6140 C   0  0  2  0  0  0  0  0  0  0  0  0
   27.0630  -22.2690  -10.4582 N   0  0  0  0  0  0  0  0  0  0  0  0
   25.8443  -20.8471  -11.9139 C   0  0  0  0  0  0  0  0  0  0  0  0
   25.0971  -19.8729  -12.1602 O   0  0  0  0  0  0  0  0  0  0  0  0
   29.2340  -20.3485   -8.6164 C   0  0  0  0  0  0  0  0  0  0  0  0
   29.5918  -20.2726   -7.2665 C   0  0  0  0  0  0  0  0  0  0  0  0
   25.9921  -21.8316  -12.9406 N   0  0  0  0  0  0  0  0  0  0  0  0
   25.3842  -21.7243  -14.2213 C   0  0  0  0  0  0  0  0  0  0  0  0
   23.9461  -21.9784  -14.2854 C   0  0  0  0  0  0  0  0  0  0  0  0
   23.5044  -23.1390  -14.6186 O   0  0  0  0  0  0  0  0  0  0  0  0
   21.1667  -19.8953  -10.2381 C   0  0  0  0  0  0  0  0  0  0  0  0
   21.7536  -20.8533  -11.2657 C   0  0  0  0  0  0  0  0  0  0  0  0
   20.9796  -20.6844  -12.5313 C   0  0  2  0  0  0  0  0  0  0  0  0
   19.5477  -21.1031  -12.2706 C   0  0  0  0  0  0  0  0  0  0  0  0
   21.5521  -21.4373  -13.6975 C   0  0  2  0  0  0  0  0  0  0  0  0
   22.9051  -21.0533  -14.0107 N   0  0  0  0  0  0  0  0  0  0  0  0
   20.7225  -21.1877  -14.9008 C   0  0  0  0  0  0  0  0  0  0  0  0
   20.8018  -20.0464  -15.6801 O   0  0  0  0  0  0  0  0  0  0  0  0
   19.8939  -22.0683  -15.2352 O   0  0  0  0  0  0  0  0  0  0  0  0
  2 12  2  0
  2  1  1  0
  3  2  1  0
  4  5  1  0
  4  3  2  0
  5 11  2  0
  6  5  1  0
  7  9  1  0
  7  6  1  0
  7  8  1  6
  9 10  2  0
 11 12  1  0
 13 14  1  0
 13  9  1  0
 15 22  1  0
 15 14  1  0
 16 15  2  0
 18 17  1  0
 19 20  1  1
 19 18  1  0
 21 22  1  6
 21 19  1  0
 23 21  1  0
 24 23  1  0
 25 23  2  0
M  END
$$$$
