YGI.pdb
     RDKit          3D

 25 25  0  0  1  0  0  0  0  0999 V2000
   29.2571  -19.8354   -3.3948 O   0  0  0  0  0  0  0  0  0  0  0  0
   28.7502  -19.7617   -4.6892 C   0  0  0  0  0  0  0  0  0  0  0  0
   29.5460  -19.2903   -5.7112 C   0  0  0  0  0  0  0  0  0  0  0  0
   29.0536  -19.2109   -7.0101 C   0  0  0  0  0  0  0  0  0  0  0  0
   27.7700  -19.5962   -7.3130 C   0  0  0  0  0  0  0  0  0  0  0  0
   27.2220  -19.5210   -8.6892 C   0  0  0  0  0  0  0  0  0  0  0  0
   27.0681  -20.9375   -9.1958 C   0  0  2  0  0  0  0  0  0  0  0  0
   28.4005  -21.4880   -9.3304 N   0  0  0  0  0  0  0  0  0  0  0  0
   26.3929  -21.0049  -10.4976 C   0  0  0  0  0  0  0  0  0  0  0  0
   27.0720  -21.1067  -11.5448 O   0  0  0  0  0  0  0  0  0  0  0  0
   26.9772  -20.0652   -6.2976 C   0  0  0  0  0  0  0  0  0  0  0  0
   27.4637  -20.1486   -4.9891 C   0  0  0  0  0  0  0  0  0  0  0  0
   24.9710  -20.9602  -10.6440 N   0  0  0  0  0  0  0  0  0  0  0  0
   24.3182  -20.7765  -11.8935 C   0  0  0  0  0  0  0  0  0  0  0  0
   22.8640  -20.6327  -11.8563 C   0  0  0  0  0  0  0  0  0  0  0  0
   22.2548  -20.4686  -10.7361 O   0  0  0  0  0  0  0  0  0  0  0  0
   19.3438  -17.1544  -12.4321 C   0  0  0  0  0  0  0  0  0  0  0  0
   19.3103  -18.0510  -13.6621 C   0  0  0  0  0  0  0  0  0  0  0  0
   20.6249  -18.7545  -13.7416 C   0  0  2  0  0  0  0  0  0  0  0  0
   20.9438  -18.9995  -15.2017 C   0  0  0  0  0  0  0  0  0  0  0  0
   20.6749  -20.0367  -12.9618 C   0  0  2  0  0  0  0  0  0  0  0  0
   21.9781  -20.6514  -12.9652 N   0  0  0  0  0  0  0  0  0  0  0  0
   19.7172  -21.0065  -13.5455 C   0  0  0  0  0  0  0  0  0  0  0  0
   20.0853  -22.1203  -14.2803 O   0  0  0  0  0  0  0  0  0  0  0  0
   18.4927  -20.8050  -13.3617 O   0  0  0  0  0  0  0  0  0  0  0  0
  2 12  2  0
  2  1  1  0
  3  2  1  0
  4  5  1  0
  4  3  2  0
  5 11  2  0
  6  5  1  0
  7  9  1  0
  7  6  1  0
  7  8  1  6
  9 10  2  0
 11 12  1  0
 13 14  1  0
 13  9  1  0
 15 22  1  0
 15 14  1  0
 16 15  2  0
 18 17  1  0
 19 20  1  6
 19 18  1  0
 21 22  1  6
 21 19  1  0
 23 21  1  0
 24 23  1  0
 25 23  2  0
M  END
$$$$
