YGI.pdb
     RDKit          3D

 25 25  0  0  1  0  0  0  0  0999 V2000
   19.0585  -20.6026  -15.3636 O   0  0  0  0  0  0  0  0  0  0  0  0
   20.0574  -20.4589  -14.4047 C   0  0  0  0  0  0  0  0  0  0  0  0
   20.0151  -21.2140  -13.2522 C   0  0  0  0  0  0  0  0  0  0  0  0
   21.0062  -21.0815  -12.2847 C   0  0  0  0  0  0  0  0  0  0  0  0
   22.0493  -20.2018  -12.4454 C   0  0  0  0  0  0  0  0  0  0  0  0
   23.1176  -20.0425  -11.4289 C   0  0  0  0  0  0  0  0  0  0  0  0
   24.3985  -20.5801  -12.0266 C   0  0  2  0  0  0  0  0  0  0  0  0
   24.2338  -22.0117  -12.1674 N   0  0  0  0  0  0  0  0  0  0  0  0
   25.5721  -20.3178  -11.1846 C   0  0  0  0  0  0  0  0  0  0  0  0
   25.8771  -19.1385  -10.8944 O   0  0  0  0  0  0  0  0  0  0  0  0
   22.0929  -19.4501  -13.5910 C   0  0  0  0  0  0  0  0  0  0  0  0
   21.1011  -19.5766  -14.5689 C   0  0  0  0  0  0  0  0  0  0  0  0
   26.4078  -21.3548  -10.6634 N   0  0  0  0  0  0  0  0  0  0  0  0
   27.5921  -21.1050   -9.9176 C   0  0  0  0  0  0  0  0  0  0  0  0
   27.4150  -20.7338   -8.5149 C   0  0  0  0  0  0  0  0  0  0  0  0
   26.2719  -20.8750   -7.9436 O   0  0  0  0  0  0  0  0  0  0  0  0
   31.5368  -21.2658   -4.9449 C   0  0  0  0  0  0  0  0  0  0  0  0
   30.1672  -21.4022   -5.5960 C   0  0  0  0  0  0  0  0  0  0  0  0
   29.4580  -20.0990   -5.4284 C   0  0  2  0  0  0  0  0  0  0  0  0
   29.1754  -19.8994   -3.9540 C   0  0  0  0  0  0  0  0  0  0  0  0
   28.1958  -19.9873   -6.2339 C   0  0  2  0  0  0  0  0  0  0  0  0
   28.4022  -20.2036   -7.6434 N   0  0  0  0  0  0  0  0  0  0  0  0
   27.6215  -18.6308   -6.0651 C   0  0  0  0  0  0  0  0  0  0  0  0
   26.6724  -18.2983   -5.1140 O   0  0  0  0  0  0  0  0  0  0  0  0
   28.0216  -17.7243   -6.8346 O   0  0  0  0  0  0  0  0  0  0  0  0
  2 12  2  0
  2  1  1  0
  3  2  1  0
  4  5  1  0
  4  3  2  0
  5 11  2  0
  6  5  1  0
  7  9  1  0
  7  6  1  0
  7  8  1  1
  9 10  2  0
 11 12  1  0
 13 14  1  0
 13  9  1  0
 15 22  1  0
 15 14  1  0
 16 15  2  0
 18 17  1  0
 19 20  1  1
 19 18  1  0
 21 22  1  6
 21 19  1  0
 23 21  1  0
 24 23  1  0
 25 23  2  0
M  END
$$$$
