YYQ.pdb
     RDKit          3D

 34 35  0  0  1  0  0  0  0  0999 V2000
   24.9996   -8.0201  -24.1233 O   0  0  0  0  0  0  0  0  0  0  0  0
   24.2434   -7.9882  -22.9586 C   0  0  0  0  0  0  0  0  0  0  0  0
   24.9461   -8.0968  -21.7652 C   0  0  0  0  0  0  0  0  0  0  0  0
   24.1912   -8.0654  -20.5883 C   0  0  0  0  0  0  0  0  0  0  0  0
   22.8226   -7.9330  -20.6277 C   0  0  0  0  0  0  0  0  0  0  0  0
   22.0686   -7.9045  -19.3646 C   0  0  0  0  0  0  0  0  0  0  0  0
   22.0582   -9.3151  -18.7820 C   0  0  2  0  0  0  0  0  0  0  0  0
   21.3537  -10.2249  -19.6540 N   0  0  0  0  0  0  0  0  0  0  0  0
   21.3478   -9.2371  -17.4878 C   0  0  0  0  0  0  0  0  0  0  0  0
   20.1539   -9.6269  -17.3562 O   0  0  0  0  0  0  0  0  0  0  0  0
   22.1604   -7.8283  -21.8212 C   0  0  0  0  0  0  0  0  0  0  0  0
   22.8768   -7.8554  -23.0166 C   0  0  0  0  0  0  0  0  0  0  0  0
   22.2745  -14.9484  -14.9642 O   0  0  0  0  0  0  0  0  0  0  0  0
   22.2839  -13.5725  -14.7458 C   0  0  0  0  0  0  0  0  0  0  0  0
   23.4434  -12.8414  -14.9036 C   0  0  0  0  0  0  0  0  0  0  0  0
   23.4992  -11.4744  -14.6976 C   0  0  0  0  0  0  0  0  0  0  0  0
   22.3712  -10.7822  -14.3190 C   0  0  0  0  0  0  0  0  0  0  0  0
   22.3479   -9.3212  -14.0786 C   0  0  0  0  0  0  0  0  0  0  0  0
   21.4356   -8.5971  -15.0422 C   0  0  2  0  0  0  0  0  0  0  0  0
   22.0276   -8.7091  -16.3621 N   0  0  0  0  0  0  0  0  0  0  0  0
   21.4342   -7.1566  -14.6427 C   0  0  0  0  0  0  0  0  0  0  0  0
   20.9136   -6.8297  -13.5517 O   0  0  0  0  0  0  0  0  0  0  0  0
   21.2079  -11.4986  -14.1579 C   0  0  0  0  0  0  0  0  0  0  0  0
   21.1559  -12.8738  -14.3662 C   0  0  0  0  0  0  0  0  0  0  0  0
   22.5381   -2.4974  -18.7291 N   0  0  0  0  0  0  0  0  0  0  0  0
   22.3140   -1.7841  -17.5373 C   0  0  0  0  0  0  0  0  0  0  0  0
   22.2918   -0.5425  -17.5316 O   0  0  0  0  0  0  0  0  0  0  0  0
   22.0985   -2.5150  -16.2550 C   0  0  0  0  0  0  0  0  0  0  0  0
   22.1884   -4.0000  -16.4439 C   0  0  0  0  0  0  0  0  0  0  0  0
   21.8832   -4.7046  -15.1476 C   0  0  2  0  0  0  0  0  0  0  0  0
   21.9970   -6.1433  -15.4458 N   0  0  0  0  0  0  0  0  0  0  0  0
   20.4769   -4.4929  -14.7437 C   0  0  0  0  0  0  0  0  0  0  0  0
   19.5831   -3.7416  -15.4716 O   0  0  0  0  0  0  0  0  0  0  0  0
   20.0368   -5.0218  -13.6624 O   0  0  0  0  0  0  0  0  0  0  0  0
  2  1  1  0
  2  3  2  0
  4  3  1  0
  5  4  2  0
  6  5  1  0
  7  6  1  0
  7  8  1  6
  9 10  2  0
  9  7  1  0
 11 12  2  0
 11  5  1  0
 12  2  1  0
 13 14  1  0
 14 15  2  0
 15 16  1  0
 17 16  2  0
 17 18  1  0
 19 18  1  1
 19 20  1  0
 20  9  1  0
 21 19  1  0
 21 31  1  0
 22 21  2  0
 23 17  1  0
 24 14  1  0
 24 23  2  0
 25 26  1  0
 26 27  2  0
 26 28  1  0
 28 29  1  0
 30 29  1  6
 30 31  1  0
 30 32  1  0
 32 34  2  0
 32 33  1  0
M  END
$$$$
