YYQ.pdb
     RDKit          3D

 34 35  0  0  1  0  0  0  0  0999 V2000
   27.7751  -16.5548  -22.4576 O   0  0  0  0  0  0  0  0  0  0  0  0
   27.2504  -17.4061  -21.4935 C   0  0  0  0  0  0  0  0  0  0  0  0
   26.4832  -16.8120  -20.4995 C   0  0  0  0  0  0  0  0  0  0  0  0
   25.9515  -17.6629  -19.5253 C   0  0  0  0  0  0  0  0  0  0  0  0
   26.1859  -19.0178  -19.5638 C   0  0  0  0  0  0  0  0  0  0  0  0
   25.6064  -19.8754  -18.5181 C   0  0  0  0  0  0  0  0  0  0  0  0
   26.5554  -19.8795  -17.3227 C   0  0  2  0  0  0  0  0  0  0  0  0
   27.7493  -20.6355  -17.6184 N   0  0  0  0  0  0  0  0  0  0  0  0
   25.8344  -20.5295  -16.2077 C   0  0  0  0  0  0  0  0  0  0  0  0
   25.9908  -21.7520  -15.9331 O   0  0  0  0  0  0  0  0  0  0  0  0
   26.9469  -19.5718  -20.5577 C   0  0  0  0  0  0  0  0  0  0  0  0
   27.4948  -18.7574  -21.5474 C   0  0  0  0  0  0  0  0  0  0  0  0
   29.7694  -21.2565  -11.1074 O   0  0  0  0  0  0  0  0  0  0  0  0
   28.5421  -20.8092  -11.5920 C   0  0  0  0  0  0  0  0  0  0  0  0
   27.3604  -21.3379  -11.1145 C   0  0  0  0  0  0  0  0  0  0  0  0
   26.1199  -20.9244  -11.5664 C   0  0  0  0  0  0  0  0  0  0  0  0
   26.0221  -19.9475  -12.5312 C   0  0  0  0  0  0  0  0  0  0  0  0
   24.7343  -19.4506  -13.0673 C   0  0  0  0  0  0  0  0  0  0  0  0
   24.2554  -20.2617  -14.2497 C   0  0  2  0  0  0  0  0  0  0  0  0
   24.9415  -19.7567  -15.4242 N   0  0  0  0  0  0  0  0  0  0  0  0
   22.7930  -19.9913  -14.4006 C   0  0  0  0  0  0  0  0  0  0  0  0
   22.4238  -18.8816  -14.8483 O   0  0  0  0  0  0  0  0  0  0  0  0
   27.1925  -19.4114  -13.0163 C   0  0  0  0  0  0  0  0  0  0  0  0
   28.4386  -19.8301  -12.5591 C   0  0  0  0  0  0  0  0  0  0  0  0
   18.4936  -24.4937  -13.9938 N   0  0  0  0  0  0  0  0  0  0  0  0
   18.7070  -23.8811  -15.2423 C   0  0  0  0  0  0  0  0  0  0  0  0
   18.2957  -24.4070  -16.2893 O   0  0  0  0  0  0  0  0  0  0  0  0
   19.4356  -22.5822  -15.3256 C   0  0  0  0  0  0  0  0  0  0  0  0
   19.6868  -22.0016  -13.9659 C   0  0  0  0  0  0  0  0  0  0  0  0
   20.3579  -20.6589  -14.0939 C   0  0  2  0  0  0  0  0  0  0  0  0
   21.8046  -20.9373  -14.0586 N   0  0  0  0  0  0  0  0  0  0  0  0
   20.0876  -19.8125  -12.9123 C   0  0  0  0  0  0  0  0  0  0  0  0
   18.9934  -18.9849  -12.8060 O   0  0  0  0  0  0  0  0  0  0  0  0
   20.8970  -19.8259  -11.9188 O   0  0  0  0  0  0  0  0  0  0  0  0
  2  1  1  0
  2  3  2  0
  4  3  1  0
  5  4  2  0
  6  5  1  0
  7  6  1  0
  7  8  1  6
  9 10  2  0
  9  7  1  0
 11 12  2  0
 11  5  1  0
 12  2  1  0
 13 14  1  0
 14 15  2  0
 15 16  1  0
 17 16  2  0
 17 18  1  0
 19 18  1  1
 19 20  1  0
 20  9  1  0
 21 19  1  0
 21 31  1  0
 22 21  2  0
 23 17  1  0
 24 14  1  0
 24 23  2  0
 25 26  1  0
 26 27  2  0
 26 28  1  0
 28 29  1  0
 30 29  1  1
 30 31  1  0
 30 32  1  0
 32 34  2  0
 32 33  1  0
M  END
$$$$
