YYQ.pdb
     RDKit          3D

 34 35  0  0  1  0  0  0  0  0999 V2000
   30.6724  -27.2344  -16.8534 O   0  0  0  0  0  0  0  0  0  0  0  0
   30.0669  -26.0360  -16.4976 C   0  0  0  0  0  0  0  0  0  0  0  0
   30.9194  -24.9834  -16.1894 C   0  0  0  0  0  0  0  0  0  0  0  0
   30.3169  -23.7734  -15.8303 C   0  0  0  0  0  0  0  0  0  0  0  0
   28.9476  -23.6486  -15.7891 C   0  0  0  0  0  0  0  0  0  0  0  0
   28.3569  -22.3567  -15.4060 C   0  0  0  0  0  0  0  0  0  0  0  0
   27.6061  -21.7979  -16.6116 C   0  0  2  0  0  0  0  0  0  0  0  0
   28.5289  -21.3400  -17.6232 N   0  0  0  0  0  0  0  0  0  0  0  0
   26.8120  -20.6497  -16.1253 C   0  0  0  0  0  0  0  0  0  0  0  0
   27.3132  -19.4981  -15.9940 O   0  0  0  0  0  0  0  0  0  0  0  0
   28.1355  -24.7062  -16.0988 C   0  0  0  0  0  0  0  0  0  0  0  0
   28.6974  -25.9291  -16.4616 C   0  0  0  0  0  0  0  0  0  0  0  0
   22.3432  -20.8482  -21.2055 O   0  0  0  0  0  0  0  0  0  0  0  0
   22.8660  -20.3363  -20.0199 C   0  0  0  0  0  0  0  0  0  0  0  0
   22.0372  -20.0146  -18.9647 C   0  0  0  0  0  0  0  0  0  0  0  0
   22.5121  -19.5040  -17.7697 C   0  0  0  0  0  0  0  0  0  0  0  0
   23.8608  -19.2951  -17.5905 C   0  0  0  0  0  0  0  0  0  0  0  0
   24.4479  -18.7525  -16.3441 C   0  0  0  0  0  0  0  0  0  0  0  0
   24.5856  -19.8070  -15.2699 C   0  0  2  0  0  0  0  0  0  0  0  0
   25.4478  -20.8482  -15.7968 N   0  0  0  0  0  0  0  0  0  0  0  0
   23.2246  -20.3841  -15.0481 C   0  0  0  0  0  0  0  0  0  0  0  0
   22.8159  -21.2870  -15.8135 O   0  0  0  0  0  0  0  0  0  0  0  0
   24.6989  -19.6115  -18.6345 C   0  0  0  0  0  0  0  0  0  0  0  0
   24.2172  -20.1250  -19.8352 C   0  0  0  0  0  0  0  0  0  0  0  0
   20.5398  -20.7574   -9.5035 N   0  0  0  0  0  0  0  0  0  0  0  0
   19.4765  -21.1723  -10.3261 C   0  0  0  0  0  0  0  0  0  0  0  0
   18.4349  -21.6377   -9.8358 O   0  0  0  0  0  0  0  0  0  0  0  0
   19.5868  -21.0578  -11.8093 C   0  0  0  0  0  0  0  0  0  0  0  0
   20.9018  -20.4661  -12.2212 C   0  0  0  0  0  0  0  0  0  0  0  0
   21.0652  -20.5618  -13.7159 C   0  0  2  0  0  0  0  0  0  0  0  0
   22.3753  -19.9534  -14.0080 N   0  0  0  0  0  0  0  0  0  0  0  0
   20.0717  -19.7202  -14.4161 C   0  0  0  0  0  0  0  0  0  0  0  0
   18.8980  -20.2100  -14.9416 O   0  0  0  0  0  0  0  0  0  0  0  0
   20.2863  -18.4649  -14.5598 O   0  0  0  0  0  0  0  0  0  0  0  0
  2  1  1  0
  2  3  2  0
  4  3  1  0
  5  4  2  0
  6  5  1  0
  7  6  1  0
  7  8  1  6
  9 10  2  0
  9  7  1  0
 11 12  2  0
 11  5  1  0
 12  2  1  0
 13 14  1  0
 14 15  2  0
 15 16  1  0
 17 16  2  0
 17 18  1  0
 19 18  1  6
 19 20  1  0
 20  9  1  0
 21 19  1  0
 21 31  1  0
 22 21  2  0
 23 17  1  0
 24 14  1  0
 24 23  2  0
 25 26  1  0
 26 27  2  0
 26 28  1  0
 28 29  1  0
 30 29  1  1
 30 31  1  0
 30 32  1  0
 32 34  2  0
 32 33  1  0
M  END
$$$$
