YYQ.pdb
     RDKit          3D

 34 35  0  0  1  0  0  0  0  0999 V2000
   30.1319  -20.3134  -22.8646 O   0  0  0  0  0  0  0  0  0  0  0  0
   29.3230  -20.6131  -21.7759 C   0  0  0  0  0  0  0  0  0  0  0  0
   29.4553  -19.7891  -20.6654 C   0  0  0  0  0  0  0  0  0  0  0  0
   28.6440  -20.0847  -19.5653 C   0  0  0  0  0  0  0  0  0  0  0  0
   27.7644  -21.1418  -19.5973 C   0  0  0  0  0  0  0  0  0  0  0  0
   26.9301  -21.4160  -18.4170 C   0  0  0  0  0  0  0  0  0  0  0  0
   27.8042  -22.0820  -17.3578 C   0  0  2  0  0  0  0  0  0  0  0  0
   28.2406  -23.3857  -17.7985 N   0  0  0  0  0  0  0  0  0  0  0  0
   26.9678  -22.2346  -16.1484 C   0  0  0  0  0  0  0  0  0  0  0  0
   26.1948  -23.2205  -15.9905 O   0  0  0  0  0  0  0  0  0  0  0  0
   27.6584  -21.9349  -20.7082 C   0  0  0  0  0  0  0  0  0  0  0  0
   28.4498  -21.6730  -21.8253 C   0  0  0  0  0  0  0  0  0  0  0  0
   24.2605  -20.3083   -7.8819 O   0  0  0  0  0  0  0  0  0  0  0  0
   24.9333  -20.3546   -9.1010 C   0  0  0  0  0  0  0  0  0  0  0  0
   24.5533  -19.5396  -10.1475 C   0  0  0  0  0  0  0  0  0  0  0  0
   25.1921  -19.5518  -11.3747 C   0  0  0  0  0  0  0  0  0  0  0  0
   26.2541  -20.3989  -11.5968 C   0  0  0  0  0  0  0  0  0  0  0  0
   26.9896  -20.4727  -12.8799 C   0  0  0  0  0  0  0  0  0  0  0  0
   26.2462  -21.2790  -13.9202 C   0  0  2  0  0  0  0  0  0  0  0  0
   27.0361  -21.2445  -15.1368 N   0  0  0  0  0  0  0  0  0  0  0  0
   24.9517  -20.5759  -14.1740 C   0  0  0  0  0  0  0  0  0  0  0  0
   24.8734  -19.7758  -15.1341 O   0  0  0  0  0  0  0  0  0  0  0  0
   26.6437  -21.2173  -10.5619 C   0  0  0  0  0  0  0  0  0  0  0  0
   25.9985  -21.2020   -9.3287 C   0  0  0  0  0  0  0  0  0  0  0  0
   20.0486  -22.7857  -16.5103 N   0  0  0  0  0  0  0  0  0  0  0  0
   20.2547  -21.3954  -16.4456 C   0  0  0  0  0  0  0  0  0  0  0  0
   19.3156  -20.6025  -16.6229 O   0  0  0  0  0  0  0  0  0  0  0  0
   21.6140  -20.8511  -16.1610 C   0  0  0  0  0  0  0  0  0  0  0  0
   22.2522  -21.5421  -14.9930 C   0  0  0  0  0  0  0  0  0  0  0  0
   22.4285  -20.5728  -13.8532 C   0  0  2  0  0  0  0  0  0  0  0  0
   23.8074  -20.7755  -13.3743 N   0  0  0  0  0  0  0  0  0  0  0  0
   21.5563  -20.9258  -12.7129 C   0  0  0  0  0  0  0  0  0  0  0  0
   20.3322  -20.3406  -12.4842 O   0  0  0  0  0  0  0  0  0  0  0  0
   21.9325  -21.8187  -11.8739 O   0  0  0  0  0  0  0  0  0  0  0  0
  2  1  1  0
  2  3  2  0
  4  3  1  0
  5  4  2  0
  6  5  1  0
  7  6  1  0
  7  8  1  6
  9 10  2  0
  9  7  1  0
 11 12  2  0
 11  5  1  0
 12  2  1  0
 13 14  1  0
 14 15  2  0
 15 16  1  0
 17 16  2  0
 17 18  1  0
 19 18  1  1
 19 20  1  0
 20  9  1  0
 21 19  1  0
 21 31  1  0
 22 21  2  0
 23 17  1  0
 24 14  1  0
 24 23  2  0
 25 26  1  0
 26 27  2  0
 26 28  1  0
 28 29  1  0
 30 29  1  6
 30 31  1  0
 30 32  1  0
 32 34  2  0
 32 33  1  0
M  END
$$$$
