YYQ.pdb
     RDKit          3D

 34 35  0  0  1  0  0  0  0  0999 V2000
   31.1548  -19.3862  -22.6320 O   0  0  0  0  0  0  0  0  0  0  0  0
   30.3815  -19.9981  -21.6537 C   0  0  0  0  0  0  0  0  0  0  0  0
   30.3450  -19.3696  -20.4155 C   0  0  0  0  0  0  0  0  0  0  0  0
   29.5684  -19.9800  -19.4254 C   0  0  0  0  0  0  0  0  0  0  0  0
   28.8814  -21.1440  -19.6811 C   0  0  0  0  0  0  0  0  0  0  0  0
   28.0765  -21.7512  -18.6097 C   0  0  0  0  0  0  0  0  0  0  0  0
   28.9924  -22.0244  -17.4197 C   0  0  2  0  0  0  0  0  0  0  0  0
   29.8854  -23.1232  -17.7016 N   0  0  0  0  0  0  0  0  0  0  0  0
   28.1193  -22.3891  -16.2839 C   0  0  0  0  0  0  0  0  0  0  0  0
   27.7823  -23.5847  -16.0570 O   0  0  0  0  0  0  0  0  0  0  0  0
   28.9386  -21.7381  -20.9131 C   0  0  0  0  0  0  0  0  0  0  0  0
   29.7017  -21.1608  -21.9266 C   0  0  0  0  0  0  0  0  0  0  0  0
   23.0756  -20.5506   -9.1467 O   0  0  0  0  0  0  0  0  0  0  0  0
   24.0112  -20.5205  -10.1785 C   0  0  0  0  0  0  0  0  0  0  0  0
   25.2452  -21.1196  -10.0292 C   0  0  0  0  0  0  0  0  0  0  0  0
   26.2043  -21.1146  -11.0262 C   0  0  0  0  0  0  0  0  0  0  0  0
   25.9521  -20.4960  -12.2298 C   0  0  0  0  0  0  0  0  0  0  0  0
   26.9245  -20.4459  -13.3455 C   0  0  0  0  0  0  0  0  0  0  0  0
   26.7545  -21.6013  -14.3052 C   0  0  2  0  0  0  0  0  0  0  0  0
   27.6470  -21.3660  -15.4246 N   0  0  0  0  0  0  0  0  0  0  0  0
   25.3455  -21.5519  -14.8022 C   0  0  0  0  0  0  0  0  0  0  0  0
   24.9930  -20.5990  -15.5342 O   0  0  0  0  0  0  0  0  0  0  0  0
   24.7257  -19.8945  -12.3925 C   0  0  0  0  0  0  0  0  0  0  0  0
   23.7633  -19.9019  -11.3870 C   0  0  0  0  0  0  0  0  0  0  0  0
   25.2083  -26.1714  -16.3301 N   0  0  0  0  0  0  0  0  0  0  0  0
   23.8577  -25.7785  -16.2955 C   0  0  0  0  0  0  0  0  0  0  0  0
   23.0538  -26.1826  -17.1513 O   0  0  0  0  0  0  0  0  0  0  0  0
   23.3697  -24.8646  -15.2223 C   0  0  0  0  0  0  0  0  0  0  0  0
   22.7420  -23.6280  -15.7932 C   0  0  0  0  0  0  0  0  0  0  0  0
   22.9706  -22.4598  -14.8698 C   0  0  2  0  0  0  0  0  0  0  0  0
   24.3898  -22.5378  -14.4808 N   0  0  0  0  0  0  0  0  0  0  0  0
   22.2057  -22.6146  -13.6141 C   0  0  0  0  0  0  0  0  0  0  0  0
   20.8769  -22.2800  -13.4888 O   0  0  0  0  0  0  0  0  0  0  0  0
   22.7824  -23.0802  -12.5685 O   0  0  0  0  0  0  0  0  0  0  0  0
  2  1  1  0
  2  3  2  0
  4  3  1  0
  5  4  2  0
  6  5  1  0
  7  6  1  0
  7  8  1  6
  9 10  2  0
  9  7  1  0
 11 12  2  0
 11  5  1  0
 12  2  1  0
 13 14  1  0
 14 15  2  0
 15 16  1  0
 17 16  2  0
 17 18  1  0
 19 18  1  1
 19 20  1  0
 20  9  1  0
 21 19  1  0
 21 31  1  0
 22 21  2  0
 23 17  1  0
 24 14  1  0
 24 23  2  0
 25 26  1  0
 26 27  2  0
 26 28  1  0
 28 29  1  0
 30 29  1  6
 30 31  1  0
 30 32  1  0
 32 34  2  0
 32 33  1  0
M  END
$$$$
