YYQ.pdb
     RDKit          3D

 34 35  0  0  1  0  0  0  0  0999 V2000
   23.0795  -15.3287  -23.3359 O   0  0  0  0  0  0  0  0  0  0  0  0
   22.9337  -16.2571  -22.3131 C   0  0  0  0  0  0  0  0  0  0  0  0
   22.8195  -17.5864  -22.7000 C   0  0  0  0  0  0  0  0  0  0  0  0
   22.6724  -18.5270  -21.6755 C   0  0  0  0  0  0  0  0  0  0  0  0
   22.6442  -18.1390  -20.3561 C   0  0  0  0  0  0  0  0  0  0  0  0
   22.4879  -19.1628  -19.3111 C   0  0  0  0  0  0  0  0  0  0  0  0
   23.8729  -19.5126  -18.7735 C   0  0  2  0  0  0  0  0  0  0  0  0
   24.6028  -20.3191  -19.7227 N   0  0  0  0  0  0  0  0  0  0  0  0
   23.6655  -20.2918  -17.5344 C   0  0  0  0  0  0  0  0  0  0  0  0
   23.5593  -21.5500  -17.5461 O   0  0  0  0  0  0  0  0  0  0  0  0
   22.7594  -16.8199  -20.0085 C   0  0  0  0  0  0  0  0  0  0  0  0
   22.9076  -15.8517  -21.0003 C   0  0  0  0  0  0  0  0  0  0  0  0
   23.5429  -21.6502   -8.7503 O   0  0  0  0  0  0  0  0  0  0  0  0
   23.6736  -21.1072  -10.0266 C   0  0  0  0  0  0  0  0  0  0  0  0
   22.7214  -20.2422  -10.5258 C   0  0  0  0  0  0  0  0  0  0  0  0
   22.8101  -19.6795  -11.7866 C   0  0  0  0  0  0  0  0  0  0  0  0
   23.8782  -19.9718  -12.6043 C   0  0  0  0  0  0  0  0  0  0  0  0
   24.0463  -19.4121  -13.9649 C   0  0  0  0  0  0  0  0  0  0  0  0
   23.3819  -20.2655  -15.0210 C   0  0  2  0  0  0  0  0  0  0  0  0
   23.5835  -19.6055  -16.2973 N   0  0  0  0  0  0  0  0  0  0  0  0
   21.9183  -20.2751  -14.7169 C   0  0  0  0  0  0  0  0  0  0  0  0
   21.2766  -19.2021  -14.7875 O   0  0  0  0  0  0  0  0  0  0  0  0
   24.8352  -20.8328  -12.1193 C   0  0  0  0  0  0  0  0  0  0  0  0
   24.7423  -21.3969  -10.8503 C   0  0  0  0  0  0  0  0  0  0  0  0
   17.9703  -24.2090  -16.8340 N   0  0  0  0  0  0  0  0  0  0  0  0
   17.3918  -22.9362  -16.6767 C   0  0  0  0  0  0  0  0  0  0  0  0
   16.3849  -22.6086  -17.3253 O   0  0  0  0  0  0  0  0  0  0  0  0
   17.9847  -21.9558  -15.7214 C   0  0  0  0  0  0  0  0  0  0  0  0
   19.2231  -22.4973  -15.0717 C   0  0  0  0  0  0  0  0  0  0  0  0
   19.7741  -21.4928  -14.0934 C   0  0  2  0  0  0  0  0  0  0  0  0
   21.2243  -21.4471  -14.3516 N   0  0  0  0  0  0  0  0  0  0  0  0
   19.6335  -21.9711  -12.7016 C   0  0  0  0  0  0  0  0  0  0  0  0
   18.5686  -21.6484  -11.8922 O   0  0  0  0  0  0  0  0  0  0  0  0
   20.5352  -22.7258  -12.1917 O   0  0  0  0  0  0  0  0  0  0  0  0
  2  1  1  0
  2  3  2  0
  4  3  1  0
  5  4  2  0
  6  5  1  0
  7  6  1  0
  7  8  1  6
  9 10  2  0
  9  7  1  0
 11 12  2  0
 11  5  1  0
 12  2  1  0
 13 14  1  0
 14 15  2  0
 15 16  1  0
 17 16  2  0
 17 18  1  0
 19 18  1  1
 19 20  1  0
 20  9  1  0
 21 19  1  0
 21 31  1  0
 22 21  2  0
 23 17  1  0
 24 14  1  0
 24 23  2  0
 25 26  1  0
 26 27  2  0
 26 28  1  0
 28 29  1  0
 30 29  1  6
 30 31  1  0
 30 32  1  0
 32 34  2  0
 32 33  1  0
M  END
$$$$
