YYQ.pdb
     RDKit          3D

 34 35  0  0  1  0  0  0  0  0999 V2000
   32.1601  -17.6867  -18.8421 O   0  0  0  0  0  0  0  0  0  0  0  0
   30.9308  -17.6462  -18.1967 C   0  0  0  0  0  0  0  0  0  0  0  0
   30.2266  -18.8421  -18.1382 C   0  0  0  0  0  0  0  0  0  0  0  0
   28.9879  -18.8091  -17.4898 C   0  0  0  0  0  0  0  0  0  0  0  0
   28.5055  -17.6428  -16.9427 C   0  0  0  0  0  0  0  0  0  0  0  0
   27.1974  -17.6543  -16.2695 C   0  0  0  0  0  0  0  0  0  0  0  0
   26.1113  -17.7613  -17.3365 C   0  0  2  0  0  0  0  0  0  0  0  0
   26.0421  -16.5513  -18.1210 N   0  0  0  0  0  0  0  0  0  0  0  0
   24.8300  -17.9504  -16.6239 C   0  0  0  0  0  0  0  0  0  0  0  0
   24.2953  -17.0238  -15.9530 O   0  0  0  0  0  0  0  0  0  0  0  0
   29.2252  -16.4806  -17.0177 C   0  0  0  0  0  0  0  0  0  0  0  0
   30.4643  -16.4722  -17.6558 C   0  0  0  0  0  0  0  0  0  0  0  0
   17.3411  -22.1610  -14.3384 O   0  0  0  0  0  0  0  0  0  0  0  0
   18.5185  -21.7437  -14.9553 C   0  0  0  0  0  0  0  0  0  0  0  0
   19.6650  -22.5074  -14.8763 C   0  0  0  0  0  0  0  0  0  0  0  0
   20.8556  -22.1325  -15.4728 C   0  0  0  0  0  0  0  0  0  0  0  0
   20.9370  -20.9557  -16.1823 C   0  0  0  0  0  0  0  0  0  0  0  0
   22.1722  -20.4838  -16.8487 C   0  0  0  0  0  0  0  0  0  0  0  0
   22.9624  -19.5308  -15.9813 C   0  0  2  0  0  0  0  0  0  0  0  0
   24.1831  -19.2092  -16.6965 N   0  0  0  0  0  0  0  0  0  0  0  0
   23.3233  -20.2728  -14.7348 C   0  0  0  0  0  0  0  0  0  0  0  0
   24.2357  -21.1293  -14.7808 O   0  0  0  0  0  0  0  0  0  0  0  0
   19.8013  -20.1842  -16.2693 C   0  0  0  0  0  0  0  0  0  0  0  0
   18.6052  -20.5650  -15.6678 C   0  0  0  0  0  0  0  0  0  0  0  0
   26.1568  -21.3894  -11.3445 N   0  0  0  0  0  0  0  0  0  0  0  0
   25.4214  -21.2360  -10.1549 C   0  0  0  0  0  0  0  0  0  0  0  0
   25.7673  -21.8147   -9.1122 O   0  0  0  0  0  0  0  0  0  0  0  0
   24.2073  -20.3697  -10.1301 C   0  0  0  0  0  0  0  0  0  0  0  0
   23.9038  -19.8052  -11.4859 C   0  0  0  0  0  0  0  0  0  0  0  0
   23.0239  -20.7555  -12.2556 C   0  0  2  0  0  0  0  0  0  0  0  0
   22.6772  -20.0489  -13.5015 N   0  0  0  0  0  0  0  0  0  0  0  0
   21.7409  -20.9798  -11.5561 C   0  0  0  0  0  0  0  0  0  0  0  0
   21.5412  -21.9886  -10.6419 O   0  0  0  0  0  0  0  0  0  0  0  0
   20.7418  -20.2128  -11.7934 O   0  0  0  0  0  0  0  0  0  0  0  0
  2  1  1  0
  2  3  2  0
  4  3  1  0
  5  4  2  0
  6  5  1  0
  7  6  1  0
  7  8  1  1
  9 10  2  0
  9  7  1  0
 11 12  2  0
 11  5  1  0
 12  2  1  0
 13 14  1  0
 14 15  2  0
 15 16  1  0
 17 16  2  0
 17 18  1  0
 19 18  1  6
 19 20  1  0
 20  9  1  0
 21 19  1  0
 21 31  1  0
 22 21  2  0
 23 17  1  0
 24 14  1  0
 24 23  2  0
 25 26  1  0
 26 27  2  0
 26 28  1  0
 28 29  1  0
 30 29  1  1
 30 31  1  0
 30 32  1  0
 32 34  2  0
 32 33  1  0
M  END
$$$$
