YYQ.pdb
     RDKit          3D

 34 35  0  0  1  0  0  0  0  0999 V2000
   22.5663  -16.5884  -19.6435 O   0  0  0  0  0  0  0  0  0  0  0  0
   23.2727  -15.5306  -19.0854 C   0  0  0  0  0  0  0  0  0  0  0  0
   24.3396  -15.0425  -19.8291 C   0  0  0  0  0  0  0  0  0  0  0  0
   25.0557  -13.9773  -19.2735 C   0  0  0  0  0  0  0  0  0  0  0  0
   24.7080  -13.4509  -18.0511 C   0  0  0  0  0  0  0  0  0  0  0  0
   25.4893  -12.3303  -17.5049 C   0  0  0  0  0  0  0  0  0  0  0  0
   26.9474  -12.7694  -17.4016 C   0  0  2  0  0  0  0  0  0  0  0  0
   27.0939  -13.8396  -16.4438 N   0  0  0  0  0  0  0  0  0  0  0  0
   27.7150  -11.5947  -16.9363 C   0  0  0  0  0  0  0  0  0  0  0  0
   27.9282  -11.3784  -15.7107 O   0  0  0  0  0  0  0  0  0  0  0  0
   23.6503  -13.9554  -17.3435 C   0  0  0  0  0  0  0  0  0  0  0  0
   22.9114  -15.0170  -17.8630 C   0  0  0  0  0  0  0  0  0  0  0  0
   34.0315  -13.5538  -18.1196 O   0  0  0  0  0  0  0  0  0  0  0  0
   33.0821  -12.5407  -18.2347 C   0  0  0  0  0  0  0  0  0  0  0  0
   31.8853  -12.7663  -18.8834 C   0  0  0  0  0  0  0  0  0  0  0  0
   30.9142  -11.7906  -19.0215 C   0  0  0  0  0  0  0  0  0  0  0  0
   31.1157  -10.5315  -18.5030 C   0  0  0  0  0  0  0  0  0  0  0  0
   30.1278   -9.4335  -18.6087 C   0  0  0  0  0  0  0  0  0  0  0  0
   29.0447   -9.5350  -17.5591 C   0  0  2  0  0  0  0  0  0  0  0  0
   28.2262  -10.6849  -17.8951 N   0  0  0  0  0  0  0  0  0  0  0  0
   28.2057   -8.3035  -17.6775 C   0  0  0  0  0  0  0  0  0  0  0  0
   28.6701   -7.2117  -17.2772 O   0  0  0  0  0  0  0  0  0  0  0  0
   32.3047  -10.2925  -17.8536 C   0  0  0  0  0  0  0  0  0  0  0  0
   33.2792  -11.2768  -17.7167 C   0  0  0  0  0  0  0  0  0  0  0  0
   23.1589   -8.1882  -21.2806 N   0  0  0  0  0  0  0  0  0  0  0  0
   22.8549   -8.4190  -19.9264 C   0  0  0  0  0  0  0  0  0  0  0  0
   21.7649   -8.9111  -19.5924 O   0  0  0  0  0  0  0  0  0  0  0  0
   23.8453   -8.0732  -18.8659 C   0  0  0  0  0  0  0  0  0  0  0  0
   25.0731   -7.4348  -19.4438 C   0  0  0  0  0  0  0  0  0  0  0  0
   26.0562   -7.1198  -18.3465 C   0  0  2  0  0  0  0  0  0  0  0  0
   26.9056   -8.3177  -18.2237 N   0  0  0  0  0  0  0  0  0  0  0  0
   25.3738   -6.9816  -17.0423 C   0  0  0  0  0  0  0  0  0  0  0  0
   24.6134   -5.8884  -16.6958 O   0  0  0  0  0  0  0  0  0  0  0  0
   25.4781   -7.9107  -16.1657 O   0  0  0  0  0  0  0  0  0  0  0  0
  2  1  1  0
  2  3  2  0
  4  3  1  0
  5  4  2  0
  6  5  1  0
  7  6  1  0
  7  8  1  1
  9 10  2  0
  9  7  1  0
 11 12  2  0
 11  5  1  0
 12  2  1  0
 13 14  1  0
 14 15  2  0
 15 16  1  0
 17 16  2  0
 17 18  1  0
 19 18  1  6
 19 20  1  0
 20  9  1  0
 21 19  1  0
 21 31  1  0
 22 21  2  0
 23 17  1  0
 24 14  1  0
 24 23  2  0
 25 26  1  0
 26 27  2  0
 26 28  1  0
 28 29  1  0
 30 29  1  6
 30 31  1  0
 30 32  1  0
 32 34  2  0
 32 33  1  0
M  END
$$$$
