YYQ.pdb
     RDKit          3D

 34 35  0  0  1  0  0  0  0  0999 V2000
   14.4582  -10.2655  -21.0394 O   0  0  0  0  0  0  0  0  0  0  0  0
   14.8558  -10.1297  -19.7154 C   0  0  0  0  0  0  0  0  0  0  0  0
   14.7916  -11.2756  -18.9329 C   0  0  0  0  0  0  0  0  0  0  0  0
   15.1904  -11.1467  -17.5986 C   0  0  0  0  0  0  0  0  0  0  0  0
   15.6219   -9.9387  -17.1017 C   0  0  0  0  0  0  0  0  0  0  0  0
   16.0322   -9.8491  -15.6917 C   0  0  0  0  0  0  0  0  0  0  0  0
   17.5435  -10.0503  -15.6197 C   0  0  2  0  0  0  0  0  0  0  0  0
   17.8837  -11.4438  -15.7835 N   0  0  0  0  0  0  0  0  0  0  0  0
   17.9703   -9.6022  -14.2771 C   0  0  0  0  0  0  0  0  0  0  0  0
   17.9223  -10.3645  -13.2716 O   0  0  0  0  0  0  0  0  0  0  0  0
   15.6732   -8.8279  -17.9002 C   0  0  0  0  0  0  0  0  0  0  0  0
   15.2842   -8.9153  -19.2358 C   0  0  0  0  0  0  0  0  0  0  0  0
   24.3864  -10.2450  -15.1325 O   0  0  0  0  0  0  0  0  0  0  0  0
   23.3566   -9.4383  -14.6533 C   0  0  0  0  0  0  0  0  0  0  0  0
   23.0102   -9.4560  -13.3178 C   0  0  0  0  0  0  0  0  0  0  0  0
   21.9952   -8.6724  -12.7982 C   0  0  0  0  0  0  0  0  0  0  0  0
   21.2801   -7.8287  -13.6176 C   0  0  0  0  0  0  0  0  0  0  0  0
   20.1804   -6.9594  -13.1401 C   0  0  0  0  0  0  0  0  0  0  0  0
   18.9180   -7.7394  -12.8522 C   0  0  2  0  0  0  0  0  0  0  0  0
   18.4473   -8.2777  -14.1147 N   0  0  0  0  0  0  0  0  0  0  0  0
   17.9070   -6.7617  -12.3459 C   0  0  0  0  0  0  0  0  0  0  0  0
   17.2970   -6.0392  -13.1669 O   0  0  0  0  0  0  0  0  0  0  0  0
   21.6148   -7.8008  -14.9516 C   0  0  0  0  0  0  0  0  0  0  0  0
   22.6366   -8.5907  -15.4705 C   0  0  0  0  0  0  0  0  0  0  0  0
   14.7466   -7.6736   -7.2691 N   0  0  0  0  0  0  0  0  0  0  0  0
   14.4021   -6.3223   -7.4557 C   0  0  0  0  0  0  0  0  0  0  0  0
   13.4446   -5.8183   -6.8465 O   0  0  0  0  0  0  0  0  0  0  0  0
   15.1882   -5.4706   -8.3947 C   0  0  0  0  0  0  0  0  0  0  0  0
   16.3132   -6.2363   -9.0247 C   0  0  0  0  0  0  0  0  0  0  0  0
   16.4772   -5.8220  -10.4639 C   0  0  2  0  0  0  0  0  0  0  0  0
   17.6082   -6.6163  -10.9754 N   0  0  0  0  0  0  0  0  0  0  0  0
   16.9046   -4.4105  -10.5673 C   0  0  0  0  0  0  0  0  0  0  0  0
   16.0257   -3.3524  -10.6057 O   0  0  0  0  0  0  0  0  0  0  0  0
   18.1523   -4.1241  -10.6284 O   0  0  0  0  0  0  0  0  0  0  0  0
  2  1  1  0
  2  3  2  0
  4  3  1  0
  5  4  2  0
  6  5  1  0
  7  6  1  0
  7  8  1  1
  9 10  2  0
  9  7  1  0
 11 12  2  0
 11  5  1  0
 12  2  1  0
 13 14  1  0
 14 15  2  0
 15 16  1  0
 17 16  2  0
 17 18  1  0
 19 18  1  6
 19 20  1  0
 20  9  1  0
 21 19  1  0
 21 31  1  0
 22 21  2  0
 23 17  1  0
 24 14  1  0
 24 23  2  0
 25 26  1  0
 26 27  2  0
 26 28  1  0
 28 29  1  0
 30 29  1  1
 30 31  1  0
 30 32  1  0
 32 34  2  0
 32 33  1  0
M  END
$$$$
