YYQ.pdb
     RDKit          3D

 34 35  0  0  1  0  0  0  0  0999 V2000
   29.0154  -15.7994  -22.1748 O   0  0  0  0  0  0  0  0  0  0  0  0
   28.3616  -16.7117  -21.3565 C   0  0  0  0  0  0  0  0  0  0  0  0
   28.4143  -16.4620  -19.9911 C   0  0  0  0  0  0  0  0  0  0  0  0
   27.7581  -17.3765  -19.1609 C   0  0  0  0  0  0  0  0  0  0  0  0
   27.0983  -18.4633  -19.6859 C   0  0  0  0  0  0  0  0  0  0  0  0
   26.4213  -19.3995  -18.7750 C   0  0  0  0  0  0  0  0  0  0  0  0
   27.4876  -20.2126  -18.0460 C   0  0  2  0  0  0  0  0  0  0  0  0
   27.9907  -21.2713  -18.8888 N   0  0  0  0  0  0  0  0  0  0  0  0
   26.8347  -20.8066  -16.8601 C   0  0  0  0  0  0  0  0  0  0  0  0
   26.1563  -21.8692  -16.9327 O   0  0  0  0  0  0  0  0  0  0  0  0
   27.0654  -18.6804  -21.0372 C   0  0  0  0  0  0  0  0  0  0  0  0
   27.7073  -17.7920  -21.8982 C   0  0  0  0  0  0  0  0  0  0  0  0
   24.2422  -20.8443   -8.3241 O   0  0  0  0  0  0  0  0  0  0  0  0
   24.8976  -20.5971   -9.5285 C   0  0  0  0  0  0  0  0  0  0  0  0
   26.0815  -21.2378   -9.8315 C   0  0  0  0  0  0  0  0  0  0  0  0
   26.7661  -21.0233  -11.0144 C   0  0  0  0  0  0  0  0  0  0  0  0
   26.2760  -20.1415  -11.9508 C   0  0  0  0  0  0  0  0  0  0  0  0
   26.9479  -19.8564  -13.2393 C   0  0  0  0  0  0  0  0  0  0  0  0
   26.3332  -20.6236  -14.3875 C   0  0  2  0  0  0  0  0  0  0  0  0
   26.9750  -20.1639  -15.6049 N   0  0  0  0  0  0  0  0  0  0  0  0
   24.8878  -20.2459  -14.4404 C   0  0  0  0  0  0  0  0  0  0  0  0
   24.5517  -19.2178  -15.0714 O   0  0  0  0  0  0  0  0  0  0  0  0
   25.0963  -19.4956  -11.6619 C   0  0  0  0  0  0  0  0  0  0  0  0
   24.4104  -19.7141  -10.4706 C   0  0  0  0  0  0  0  0  0  0  0  0
   21.7760  -23.0436  -17.7822 N   0  0  0  0  0  0  0  0  0  0  0  0
   20.6629  -22.5276  -17.0935 C   0  0  0  0  0  0  0  0  0  0  0  0
   19.5139  -22.6673  -17.5430 O   0  0  0  0  0  0  0  0  0  0  0  0
   20.8495  -21.8004  -15.8045 C   0  0  0  0  0  0  0  0  0  0  0  0
   22.2978  -21.7102  -15.4259 C   0  0  0  0  0  0  0  0  0  0  0  0
   22.4506  -20.9150  -14.1554 C   0  0  2  0  0  0  0  0  0  0  0  0
   23.8798  -21.0015  -13.8067 N   0  0  0  0  0  0  0  0  0  0  0  0
   21.7291  -21.5556  -13.0352 C   0  0  0  0  0  0  0  0  0  0  0  0
   22.3471  -22.3222  -12.0740 O   0  0  0  0  0  0  0  0  0  0  0  0
   20.4604  -21.4102  -12.9266 O   0  0  0  0  0  0  0  0  0  0  0  0
  2  1  1  0
  2  3  2  0
  4  3  1  0
  5  4  2  0
  6  5  1  0
  7  6  1  0
  7  8  1  6
  9 10  2  0
  9  7  1  0
 11 12  2  0
 11  5  1  0
 12  2  1  0
 13 14  1  0
 14 15  2  0
 15 16  1  0
 17 16  2  0
 17 18  1  0
 19 18  1  1
 19 20  1  0
 20  9  1  0
 21 19  1  0
 21 31  1  0
 22 21  2  0
 23 17  1  0
 24 14  1  0
 24 23  2  0
 25 26  1  0
 26 27  2  0
 26 28  1  0
 28 29  1  0
 30 29  1  6
 30 31  1  0
 30 32  1  0
 32 34  2  0
 32 33  1  0
M  END
$$$$
