YYQ.pdb
     RDKit          3D

 34 35  0  0  1  0  0  0  0  0999 V2000
   22.7543   -9.0930  -20.9570 O   0  0  0  0  0  0  0  0  0  0  0  0
   21.8878   -9.8316  -20.1613 C   0  0  0  0  0  0  0  0  0  0  0  0
   21.3472   -9.1730  -19.0642 C   0  0  0  0  0  0  0  0  0  0  0  0
   20.4738   -9.9104  -18.2583 C   0  0  0  0  0  0  0  0  0  0  0  0
   20.1753  -11.2208  -18.5513 C   0  0  0  0  0  0  0  0  0  0  0  0
   19.2509  -11.9583  -17.6760 C   0  0  0  0  0  0  0  0  0  0  0  0
   17.8336  -11.7697  -18.2101 C   0  0  2  0  0  0  0  0  0  0  0  0
   17.3927  -10.4075  -18.0243 N   0  0  0  0  0  0  0  0  0  0  0  0
   16.9600  -12.6720  -17.4303 C   0  0  0  0  0  0  0  0  0  0  0  0
   15.9955  -12.2374  -16.7408 O   0  0  0  0  0  0  0  0  0  0  0  0
   20.7255  -11.8406  -19.6409 C   0  0  0  0  0  0  0  0  0  0  0  0
   21.6008  -11.1398  -20.4689 C   0  0  0  0  0  0  0  0  0  0  0  0
   11.4165  -18.8089  -15.2041 O   0  0  0  0  0  0  0  0  0  0  0  0
   12.2981  -17.8802  -15.7529 C   0  0  0  0  0  0  0  0  0  0  0  0
   12.4899  -16.6514  -15.1552 C   0  0  0  0  0  0  0  0  0  0  0  0
   13.3546  -15.6991  -15.6646 C   0  0  0  0  0  0  0  0  0  0  0  0
   14.0694  -15.9531  -16.8132 C   0  0  0  0  0  0  0  0  0  0  0  0
   15.0132  -14.9880  -17.4220 C   0  0  0  0  0  0  0  0  0  0  0  0
   16.3838  -15.0497  -16.7873 C   0  0  2  0  0  0  0  0  0  0  0  0
   17.2133  -14.0661  -17.4579 N   0  0  0  0  0  0  0  0  0  0  0  0
   16.9353  -16.4097  -17.0717 C   0  0  0  0  0  0  0  0  0  0  0  0
   17.1724  -16.7328  -18.2581 O   0  0  0  0  0  0  0  0  0  0  0  0
   13.8879  -17.1745  -17.4198 C   0  0  0  0  0  0  0  0  0  0  0  0
   13.0171  -18.1300  -16.9041 C   0  0  0  0  0  0  0  0  0  0  0  0
   21.2037  -19.4431  -13.9783 N   0  0  0  0  0  0  0  0  0  0  0  0
   21.3674  -19.1683  -15.3484 C   0  0  0  0  0  0  0  0  0  0  0  0
   22.4943  -19.1736  -15.8698 O   0  0  0  0  0  0  0  0  0  0  0  0
   20.1805  -18.8646  -16.1995 C   0  0  0  0  0  0  0  0  0  0  0  0
   18.9135  -18.8551  -15.3972 C   0  0  0  0  0  0  0  0  0  0  0  0
   17.7251  -18.7046  -16.3109 C   0  0  2  0  0  0  0  0  0  0  0  0
   17.2020  -17.3507  -16.0558 N   0  0  0  0  0  0  0  0  0  0  0  0
   16.6371  -19.6293  -15.9278 C   0  0  0  0  0  0  0  0  0  0  0  0
   16.5433  -20.9227  -16.3879 O   0  0  0  0  0  0  0  0  0  0  0  0
   15.7161  -19.2352  -15.1284 O   0  0  0  0  0  0  0  0  0  0  0  0
  2  1  1  0
  2  3  2  0
  4  3  1  0
  5  4  2  0
  6  5  1  0
  7  6  1  0
  7  8  1  1
  9 10  2  0
  9  7  1  0
 11 12  2  0
 11  5  1  0
 12  2  1  0
 13 14  1  0
 14 15  2  0
 15 16  1  0
 17 16  2  0
 17 18  1  0
 19 18  1  6
 19 20  1  0
 20  9  1  0
 21 19  1  0
 21 31  1  0
 22 21  2  0
 23 17  1  0
 24 14  1  0
 24 23  2  0
 25 26  1  0
 26 27  2  0
 26 28  1  0
 28 29  1  0
 30 29  1  1
 30 31  1  0
 30 32  1  0
 32 34  2  0
 32 33  1  0
M  END
$$$$
