YYQ.pdb
     RDKit          3D

 34 35  0  0  1  0  0  0  0  0999 V2000
   29.5451  -20.5375   -5.5918 O   0  0  0  0  0  0  0  0  0  0  0  0
   28.7492  -20.5239   -6.7301 C   0  0  0  0  0  0  0  0  0  0  0  0
   27.5672  -19.7989   -6.6461 C   0  0  0  0  0  0  0  0  0  0  0  0
   26.7606  -19.7807   -7.7885 C   0  0  0  0  0  0  0  0  0  0  0  0
   27.1334  -20.4520   -8.9298 C   0  0  0  0  0  0  0  0  0  0  0  0
   26.2540  -20.4053  -10.1084 C   0  0  0  0  0  0  0  0  0  0  0  0
   26.8507  -21.3062  -11.1863 C   0  0  2  0  0  0  0  0  0  0  0  0
   28.1107  -20.7799  -11.6549 N   0  0  0  0  0  0  0  0  0  0  0  0
   25.8872  -21.3261  -12.3074 C   0  0  0  0  0  0  0  0  0  0  0  0
   25.9902  -20.5411  -13.2911 O   0  0  0  0  0  0  0  0  0  0  0  0
   28.3054  -21.1576   -8.9794 C   0  0  0  0  0  0  0  0  0  0  0  0
   29.1371  -21.2004   -7.8616 C   0  0  0  0  0  0  0  0  0  0  0  0
   18.6738  -24.1355  -16.7217 O   0  0  0  0  0  0  0  0  0  0  0  0
   19.7510  -24.0128  -15.8466 C   0  0  0  0  0  0  0  0  0  0  0  0
   19.5467  -23.7211  -14.5135 C   0  0  0  0  0  0  0  0  0  0  0  0
   20.5856  -23.5902  -13.6092 C   0  0  0  0  0  0  0  0  0  0  0  0
   21.8893  -23.7507  -14.0207 C   0  0  0  0  0  0  0  0  0  0  0  0
   23.0556  -23.6266  -13.1167 C   0  0  0  0  0  0  0  0  0  0  0  0
   23.7573  -22.2963  -13.2670 C   0  0  2  0  0  0  0  0  0  0  0  0
   24.8166  -22.2540  -12.2763 N   0  0  0  0  0  0  0  0  0  0  0  0
   22.7566  -21.2355  -12.9383 C   0  0  0  0  0  0  0  0  0  0  0  0
   22.4089  -21.0776  -11.7457 O   0  0  0  0  0  0  0  0  0  0  0  0
   22.1076  -24.0419  -15.3473 C   0  0  0  0  0  0  0  0  0  0  0  0
   21.0598  -24.1729  -16.2540 C   0  0  0  0  0  0  0  0  0  0  0  0
   22.2367  -16.1551  -16.2887 N   0  0  0  0  0  0  0  0  0  0  0  0
   21.5609  -17.2766  -16.8036 C   0  0  0  0  0  0  0  0  0  0  0  0
   21.2889  -17.3578  -18.0124 O   0  0  0  0  0  0  0  0  0  0  0  0
   21.1593  -18.3915  -15.8976 C   0  0  0  0  0  0  0  0  0  0  0  0
   21.6397  -18.1640  -14.4953 C   0  0  0  0  0  0  0  0  0  0  0  0
   21.2305  -19.3169  -13.6161 C   0  0  2  0  0  0  0  0  0  0  0  0
   22.1833  -20.3997  -13.9188 N   0  0  0  0  0  0  0  0  0  0  0  0
   19.9020  -19.8375  -14.0029 C   0  0  0  0  0  0  0  0  0  0  0  0
   19.7203  -20.8505  -14.9162 O   0  0  0  0  0  0  0  0  0  0  0  0
   18.8438  -19.3386  -13.4795 O   0  0  0  0  0  0  0  0  0  0  0  0
  2  1  1  0
  2  3  2  0
  4  3  1  0
  5  4  2  0
  6  5  1  0
  7  6  1  0
  7  8  1  6
  9 10  2  0
  9  7  1  0
 11 12  2  0
 11  5  1  0
 12  2  1  0
 13 14  1  0
 14 15  2  0
 15 16  1  0
 17 16  2  0
 17 18  1  0
 19 18  1  1
 19 20  1  0
 20  9  1  0
 21 19  1  0
 21 31  1  0
 22 21  2  0
 23 17  1  0
 24 14  1  0
 24 23  2  0
 25 26  1  0
 26 27  2  0
 26 28  1  0
 28 29  1  0
 30 29  1  6
 30 31  1  0
 30 32  1  0
 32 34  2  0
 32 33  1  0
M  END
$$$$
