YYQ.pdb
     RDKit          3D

 34 35  0  0  1  0  0  0  0  0999 V2000
   27.9441  -15.8865  -16.2979 O   0  0  0  0  0  0  0  0  0  0  0  0
   27.0396  -14.8436  -16.4519 C   0  0  0  0  0  0  0  0  0  0  0  0
   27.0965  -14.1521  -17.6554 C   0  0  0  0  0  0  0  0  0  0  0  0
   26.1888  -13.1007  -17.8177 C   0  0  0  0  0  0  0  0  0  0  0  0
   25.2911  -12.7802  -16.8258 C   0  0  0  0  0  0  0  0  0  0  0  0
   24.3541  -11.6662  -17.0397 C   0  0  0  0  0  0  0  0  0  0  0  0
   22.9859  -12.2509  -17.3799 C   0  0  2  0  0  0  0  0  0  0  0  0
   23.0324  -12.9709  -18.6304 N   0  0  0  0  0  0  0  0  0  0  0  0
   22.0552  -11.1100  -17.5124 C   0  0  0  0  0  0  0  0  0  0  0  0
   21.9719  -10.4355  -18.5766 O   0  0  0  0  0  0  0  0  0  0  0  0
   25.2613  -13.4821  -15.6509 C   0  0  0  0  0  0  0  0  0  0  0  0
   26.1498  -14.5372  -15.4505 C   0  0  0  0  0  0  0  0  0  0  0  0
   15.7167  -13.0502  -19.4504 O   0  0  0  0  0  0  0  0  0  0  0  0
   16.5167  -12.3413  -18.5569 C   0  0  0  0  0  0  0  0  0  0  0  0
   17.4801  -12.9860  -17.8084 C   0  0  0  0  0  0  0  0  0  0  0  0
   18.2965  -12.3227  -16.9097 C   0  0  0  0  0  0  0  0  0  0  0  0
   18.1709  -10.9639  -16.7287 C   0  0  0  0  0  0  0  0  0  0  0  0
   19.0045  -10.1816  -15.7876 C   0  0  0  0  0  0  0  0  0  0  0  0
   20.2740   -9.6745  -16.4328 C   0  0  2  0  0  0  0  0  0  0  0  0
   21.2323  -10.7637  -16.4118 N   0  0  0  0  0  0  0  0  0  0  0  0
   20.7912   -8.5697  -15.5689 C   0  0  0  0  0  0  0  0  0  0  0  0
   21.5883   -8.8453  -14.6432 O   0  0  0  0  0  0  0  0  0  0  0  0
   17.2143  -10.3083  -17.4686 C   0  0  0  0  0  0  0  0  0  0  0  0
   16.3948  -10.9791  -18.3718 C   0  0  0  0  0  0  0  0  0  0  0  0
   23.8049   -4.0847  -17.5080 N   0  0  0  0  0  0  0  0  0  0  0  0
   23.5223   -3.5339  -16.2446 C   0  0  0  0  0  0  0  0  0  0  0  0
   24.0811   -2.4926  -15.8633 O   0  0  0  0  0  0  0  0  0  0  0  0
   22.5402   -4.1982  -15.3395 C   0  0  0  0  0  0  0  0  0  0  0  0
   21.9624   -5.4337  -15.9630 C   0  0  0  0  0  0  0  0  0  0  0  0
   21.0112   -6.0997  -15.0031 C   0  0  2  0  0  0  0  0  0  0  0  0
   20.4184   -7.2220  -15.7519 N   0  0  0  0  0  0  0  0  0  0  0  0
   19.8820   -5.2072  -14.6655 C   0  0  0  0  0  0  0  0  0  0  0  0
   19.8847   -4.3555  -13.5848 O   0  0  0  0  0  0  0  0  0  0  0  0
   18.8296   -5.2046  -15.3969 O   0  0  0  0  0  0  0  0  0  0  0  0
  2  1  1  0
  2  3  2  0
  4  3  1  0
  5  4  2  0
  6  5  1  0
  7  6  1  0
  7  8  1  6
  9 10  2  0
  9  7  1  0
 11 12  2  0
 11  5  1  0
 12  2  1  0
 13 14  1  0
 14 15  2  0
 15 16  1  0
 17 16  2  0
 17 18  1  0
 19 18  1  1
 19 20  1  0
 20  9  1  0
 21 19  1  0
 21 31  1  0
 22 21  2  0
 23 17  1  0
 24 14  1  0
 24 23  2  0
 25 26  1  0
 26 27  2  0
 26 28  1  0
 28 29  1  0
 30 29  1  6
 30 31  1  0
 30 32  1  0
 32 34  2  0
 32 33  1  0
M  END
$$$$
