YYQ.pdb
     RDKit          3D

 34 35  0  0  1  0  0  0  0  0999 V2000
   23.8484  -14.1856  -24.1082 O   0  0  0  0  0  0  0  0  0  0  0  0
   23.6053  -13.7349  -22.8170 C   0  0  0  0  0  0  0  0  0  0  0  0
   23.0146  -12.4828  -22.7032 C   0  0  0  0  0  0  0  0  0  0  0  0
   22.7668  -12.0222  -21.4061 C   0  0  0  0  0  0  0  0  0  0  0  0
   23.0974  -12.7831  -20.3088 C   0  0  0  0  0  0  0  0  0  0  0  0
   22.8182  -12.2590  -18.9628 C   0  0  0  0  0  0  0  0  0  0  0  0
   24.0652  -11.5339  -18.4639 C   0  0  2  0  0  0  0  0  0  0  0  0
   25.1306  -12.4707  -18.1962 N   0  0  0  0  0  0  0  0  0  0  0  0
   23.6895  -10.8554  -17.2053 C   0  0  0  0  0  0  0  0  0  0  0  0
   23.6028  -11.4782  -16.1103 O   0  0  0  0  0  0  0  0  0  0  0  0
   23.6787  -14.0138  -20.4559 C   0  0  0  0  0  0  0  0  0  0  0  0
   23.9421  -14.5083  -21.7322 C   0  0  0  0  0  0  0  0  0  0  0  0
   27.3220   -5.0814  -19.2219 O   0  0  0  0  0  0  0  0  0  0  0  0
   26.5881   -5.8246  -18.3000 C   0  0  0  0  0  0  0  0  0  0  0  0
   26.7818   -7.1852  -18.1771 C   0  0  0  0  0  0  0  0  0  0  0  0
   26.0761   -7.9625  -17.2760 C   0  0  0  0  0  0  0  0  0  0  0  0
   25.1342   -7.3890  -16.4522 C   0  0  0  0  0  0  0  0  0  0  0  0
   24.3376   -8.1503  -15.4629 C   0  0  0  0  0  0  0  0  0  0  0  0
   23.0571   -8.6931  -16.0550 C   0  0  2  0  0  0  0  0  0  0  0  0
   23.4189   -9.4645  -17.2294 N   0  0  0  0  0  0  0  0  0  0  0  0
   22.2449   -7.5163  -16.4911 C   0  0  0  0  0  0  0  0  0  0  0  0
   22.3958   -7.0712  -17.6518 O   0  0  0  0  0  0  0  0  0  0  0  0
   24.9307   -6.0330  -16.5639 C   0  0  0  0  0  0  0  0  0  0  0  0
   25.6427   -5.2545  -17.4718 C   0  0  0  0  0  0  0  0  0  0  0  0
   16.4199   -7.0053  -16.3243 N   0  0  0  0  0  0  0  0  0  0  0  0
   16.7280   -5.6748  -16.6624 C   0  0  0  0  0  0  0  0  0  0  0  0
   15.8437   -4.8942  -17.0504 O   0  0  0  0  0  0  0  0  0  0  0  0
   18.1315   -5.1803  -16.5584 C   0  0  0  0  0  0  0  0  0  0  0  0
   19.0735   -6.2736  -16.1506 C   0  0  0  0  0  0  0  0  0  0  0  0
   20.4786   -5.7375  -16.0609 C   0  0  2  0  0  0  0  0  0  0  0  0
   21.3104   -6.8815  -15.6471 N   0  0  0  0  0  0  0  0  0  0  0  0
   20.6019   -4.7432  -14.9737 C   0  0  0  0  0  0  0  0  0  0  0  0
   21.1564   -5.0255  -13.7464 O   0  0  0  0  0  0  0  0  0  0  0  0
   20.1773   -3.5471  -15.1514 O   0  0  0  0  0  0  0  0  0  0  0  0
  2  1  1  0
  2  3  2  0
  4  3  1  0
  5  4  2  0
  6  5  1  0
  7  6  1  0
  7  8  1  1
  9 10  2  0
  9  7  1  0
 11 12  2  0
 11  5  1  0
 12  2  1  0
 13 14  1  0
 14 15  2  0
 15 16  1  0
 17 16  2  0
 17 18  1  0
 19 18  1  6
 19 20  1  0
 20  9  1  0
 21 19  1  0
 21 31  1  0
 22 21  2  0
 23 17  1  0
 24 14  1  0
 24 23  2  0
 25 26  1  0
 26 27  2  0
 26 28  1  0
 28 29  1  0
 30 29  1  1
 30 31  1  0
 30 32  1  0
 32 34  2  0
 32 33  1  0
M  END
$$$$
