SYV.pdb
     RDKit          3D

 26 26  0  0  1  0  0  0  0  0999 V2000
   21.7743   -9.2880  -18.1381 O   0  0  0  0  0  0  0  0  0  0  0  0
   22.9474   -9.2579  -17.3949 C   0  0  0  0  0  0  0  0  0  0  0  0
   22.6430   -9.7436  -15.9944 C   0  0  2  0  0  0  0  0  0  0  0  0
   22.1368  -11.0982  -15.9798 N   0  0  0  0  0  0  0  0  0  0  0  0
   21.6908   -8.8178  -15.3019 C   0  0  0  0  0  0  0  0  0  0  0  0
   20.5300   -9.1982  -14.9915 O   0  0  0  0  0  0  0  0  0  0  0  0
   17.8576   -4.5461   -8.9920 O   0  0  0  0  0  0  0  0  0  0  0  0
   18.5945   -5.2157   -9.9799 C   0  0  0  0  0  0  0  0  0  0  0  0
   19.8681   -5.6501   -9.6766 C   0  0  0  0  0  0  0  0  0  0  0  0
   20.6171   -6.3112  -10.6267 C   0  0  0  0  0  0  0  0  0  0  0  0
   20.1351   -6.5662  -11.9081 C   0  0  0  0  0  0  0  0  0  0  0  0
   20.9578   -7.2369  -12.8979 C   0  0  0  0  0  0  0  0  0  0  0  0
   21.1147   -6.6139  -14.2334 C   0  0  2  0  0  0  0  0  0  0  0  0
   22.0421   -7.4976  -14.9694 N   0  0  0  0  0  0  0  0  0  0  0  0
   21.6760   -5.2635  -14.2331 C   0  0  0  0  0  0  0  0  0  0  0  0
   22.9111   -5.1362  -13.9102 O   0  0  0  0  0  0  0  0  0  0  0  0
   18.8633   -6.1199  -12.1758 C   0  0  0  0  0  0  0  0  0  0  0  0
   18.1051   -5.4550  -11.2263 C   0  0  0  0  0  0  0  0  0  0  0  0
   20.4507   -1.9999  -16.5862 C   0  0  0  0  0  0  0  0  0  0  0  0
   21.7741   -2.2209  -15.9439 C   0  0  2  0  0  0  0  0  0  0  0  0
   22.6040   -3.1034  -16.8384 C   0  0  0  0  0  0  0  0  0  0  0  0
   21.6758   -2.8314  -14.5587 C   0  0  2  0  0  0  0  0  0  0  0  0
   20.9584   -4.0775  -14.5709 N   0  0  0  0  0  0  0  0  0  0  0  0
   21.0255   -1.8731  -13.6476 C   0  0  0  0  0  0  0  0  0  0  0  0
   19.8553   -2.0438  -13.2714 O   0  0  0  0  0  0  0  0  0  0  0  0
   21.7173   -0.7337  -13.1778 O   0  0  0  0  0  0  0  0  0  0  0  0
  2  1  1  0
  3  2  1  0
  3  4  1  6
  5  3  1  0
  6  5  2  0
  7  8  1  0
  8  9  2  0
  9 10  1  0
 11 10  2  0
 11 12  1  0
 13 12  1  1
 13 14  1  0
 14  5  1  0
 15 13  1  0
 15 16  2  0
 17 11  1  0
 18 17  2  0
 18  8  1  0
 20 19  1  6
 20 21  1  0
 22 20  1  0
 22 23  1  6
 23 15  1  0
 24 22  1  0
 25 24  2  0
 26 24  1  0
M  END
$$$$
