SYV.pdb
     RDKit          3D

 26 26  0  0  1  0  0  0  0  0999 V2000
   21.2498   -5.7469  -12.8306 O   0  0  0  0  0  0  0  0  0  0  0  0
   21.8475   -6.7676  -13.5589 C   0  0  0  0  0  0  0  0  0  0  0  0
   20.7899   -7.4336  -14.4121 C   0  0  2  0  0  0  0  0  0  0  0  0
   19.7328   -8.0208  -13.6190 N   0  0  0  0  0  0  0  0  0  0  0  0
   21.4002   -8.4582  -15.3182 C   0  0  0  0  0  0  0  0  0  0  0  0
   21.2912   -9.6888  -15.0683 O   0  0  0  0  0  0  0  0  0  0  0  0
   16.8840  -10.9886  -19.5365 O   0  0  0  0  0  0  0  0  0  0  0  0
   18.1569  -10.4358  -19.3323 C   0  0  0  0  0  0  0  0  0  0  0  0
   19.2496  -11.2773  -19.3119 C   0  0  0  0  0  0  0  0  0  0  0  0
   20.5136  -10.7636  -19.1133 C   0  0  0  0  0  0  0  0  0  0  0  0
   20.7423   -9.4025  -18.9283 C   0  0  0  0  0  0  0  0  0  0  0  0
   22.0804   -8.8935  -18.6901 C   0  0  0  0  0  0  0  0  0  0  0  0
   22.7038   -9.1222  -17.3652 C   0  0  2  0  0  0  0  0  0  0  0  0
   22.1143   -8.1008  -16.4754 N   0  0  0  0  0  0  0  0  0  0  0  0
   24.1585   -8.9777  -17.3236 C   0  0  0  0  0  0  0  0  0  0  0  0
   24.6354   -7.7868  -17.3383 O   0  0  0  0  0  0  0  0  0  0  0  0
   19.6318   -8.5935  -18.9545 C   0  0  0  0  0  0  0  0  0  0  0  0
   18.3590   -9.1025  -19.1535 C   0  0  0  0  0  0  0  0  0  0  0  0
   27.1422  -12.1216  -16.7273 C   0  0  0  0  0  0  0  0  0  0  0  0
   27.2279  -10.7106  -16.2644 C   0  0  2  0  0  0  0  0  0  0  0  0
   26.6911  -10.6293  -14.8598 C   0  0  0  0  0  0  0  0  0  0  0  0
   26.4860   -9.7374  -17.1609 C   0  0  2  0  0  0  0  0  0  0  0  0
   25.0880  -10.0583  -17.2608 N   0  0  0  0  0  0  0  0  0  0  0  0
   27.1086   -9.7318  -18.4965 C   0  0  0  0  0  0  0  0  0  0  0  0
   26.5686  -10.3067  -19.4545 O   0  0  0  0  0  0  0  0  0  0  0  0
   28.3376   -9.0713  -18.7221 O   0  0  0  0  0  0  0  0  0  0  0  0
  2  1  1  0
  3  2  1  0
  3  4  1  1
  5  3  1  0
  6  5  2  0
  7  8  1  0
  8  9  2  0
  9 10  1  0
 11 10  2  0
 11 12  1  0
 13 12  1  6
 13 14  1  0
 14  5  1  0
 15 13  1  0
 15 16  2  0
 17 11  1  0
 18 17  2  0
 18  8  1  0
 20 19  1  6
 20 21  1  0
 22 20  1  0
 22 23  1  6
 23 15  1  0
 24 22  1  0
 25 24  2  0
 26 24  1  0
M  END
$$$$
