SYV.pdb
     RDKit          3D

 26 26  0  0  1  0  0  0  0  0999 V2000
   23.3111   -8.8963  -21.9023 O   0  0  0  0  0  0  0  0  0  0  0  0
   22.3027   -8.6436  -20.9811 C   0  0  0  0  0  0  0  0  0  0  0  0
   22.1948   -9.8298  -20.0476 C   0  0  2  0  0  0  0  0  0  0  0  0
   21.6007  -10.9819  -20.6887 N   0  0  0  0  0  0  0  0  0  0  0  0
   21.4373   -9.4678  -18.8073 C   0  0  0  0  0  0  0  0  0  0  0  0
   20.1941   -9.2635  -18.8458 O   0  0  0  0  0  0  0  0  0  0  0  0
   17.4235  -14.0826  -16.7047 O   0  0  0  0  0  0  0  0  0  0  0  0
   18.4024  -13.1220  -16.4106 C   0  0  0  0  0  0  0  0  0  0  0  0
   18.0249  -11.9719  -15.7492 C   0  0  0  0  0  0  0  0  0  0  0  0
   18.9644  -11.0093  -15.4461 C   0  0  0  0  0  0  0  0  0  0  0  0
   20.3078  -11.1487  -15.7853 C   0  0  0  0  0  0  0  0  0  0  0  0
   21.2691  -10.1048  -15.4812 C   0  0  0  0  0  0  0  0  0  0  0  0
   21.3235   -8.9102  -16.3565 C   0  0  2  0  0  0  0  0  0  0  0  0
   22.0686   -9.3403  -17.5575 N   0  0  0  0  0  0  0  0  0  0  0  0
   22.0061   -7.7479  -15.7890 C   0  0  0  0  0  0  0  0  0  0  0  0
   23.2826   -7.8084  -15.6757 O   0  0  0  0  0  0  0  0  0  0  0  0
   20.6485  -12.3061  -16.4431 C   0  0  0  0  0  0  0  0  0  0  0  0
   19.7103  -13.2774  -16.7508 C   0  0  0  0  0  0  0  0  0  0  0  0
   20.4934   -3.7285  -15.5868 C   0  0  0  0  0  0  0  0  0  0  0  0
   21.9028   -4.1871  -15.7132 C   0  0  2  0  0  0  0  0  0  0  0  0
   22.2145   -4.3948  -17.1717 C   0  0  0  0  0  0  0  0  0  0  0  0
   22.1947   -5.4557  -14.9341 C   0  0  2  0  0  0  0  0  0  0  0  0
   21.3632   -6.5494  -15.3582 N   0  0  0  0  0  0  0  0  0  0  0  0
   22.0107   -5.1982  -13.4949 C   0  0  0  0  0  0  0  0  0  0  0  0
   21.0984   -5.7497  -12.8597 O   0  0  0  0  0  0  0  0  0  0  0  0
   22.8686   -4.3162  -12.7995 O   0  0  0  0  0  0  0  0  0  0  0  0
  2  1  1  0
  3  2  1  0
  3  4  1  6
  5  3  1  0
  6  5  2  0
  7  8  1  0
  8  9  2  0
  9 10  1  0
 11 10  2  0
 11 12  1  0
 13 12  1  1
 13 14  1  0
 14  5  1  0
 15 13  1  0
 15 16  2  0
 17 11  1  0
 18 17  2  0
 18  8  1  0
 20 19  1  6
 20 21  1  0
 22 20  1  0
 22 23  1  6
 23 15  1  0
 24 22  1  0
 25 24  2  0
 26 24  1  0
M  END
$$$$
