SYV.pdb
     RDKit          3D

 26 26  0  0  1  0  0  0  0  0999 V2000
   29.3460  -23.9560  -16.7967 O   0  0  0  0  0  0  0  0  0  0  0  0
   29.2415  -22.6633  -16.2992 C   0  0  0  0  0  0  0  0  0  0  0  0
   28.5745  -21.7971  -17.3456 C   0  0  2  0  0  0  0  0  0  0  0  0
   29.5314  -21.0599  -18.1408 N   0  0  0  0  0  0  0  0  0  0  0  0
   27.5831  -20.8665  -16.7174 C   0  0  0  0  0  0  0  0  0  0  0  0
   27.9389  -19.7348  -16.2914 O   0  0  0  0  0  0  0  0  0  0  0  0
   19.3847  -17.5656  -15.2022 O   0  0  0  0  0  0  0  0  0  0  0  0
   20.5494  -18.2389  -15.5994 C   0  0  0  0  0  0  0  0  0  0  0  0
   21.6265  -17.4975  -16.0384 C   0  0  0  0  0  0  0  0  0  0  0  0
   22.7852  -18.1306  -16.4354 C   0  0  0  0  0  0  0  0  0  0  0  0
   22.9203  -19.5164  -16.4129 C   0  0  0  0  0  0  0  0  0  0  0  0
   24.1410  -20.1573  -16.8664 C   0  0  0  0  0  0  0  0  0  0  0  0
   25.2678  -20.2972  -15.9141 C   0  0  2  0  0  0  0  0  0  0  0  0
   26.2263  -21.2065  -16.5751 N   0  0  0  0  0  0  0  0  0  0  0  0
   24.9215  -20.8680  -14.6128 C   0  0  0  0  0  0  0  0  0  0  0  0
   24.5887  -22.1066  -14.5798 O   0  0  0  0  0  0  0  0  0  0  0  0
   21.8283  -20.2235  -15.9702 C   0  0  0  0  0  0  0  0  0  0  0  0
   20.6612  -19.5942  -15.5698 C   0  0  0  0  0  0  0  0  0  0  0  0
   26.6516  -20.7158  -10.9659 C   0  0  0  0  0  0  0  0  0  0  0  0
   25.2011  -20.3863  -10.9533 C   0  0  2  0  0  0  0  0  0  0  0  0
   24.5751  -21.0072   -9.7325 C   0  0  0  0  0  0  0  0  0  0  0  0
   24.4696  -20.8432  -12.2012 C   0  0  2  0  0  0  0  0  0  0  0  0
   24.9320  -20.1560  -13.3766 N   0  0  0  0  0  0  0  0  0  0  0  0
   23.0216  -20.6370  -12.0218 C   0  0  0  0  0  0  0  0  0  0  0  0
   22.4990  -19.5376  -12.2630 O   0  0  0  0  0  0  0  0  0  0  0  0
   22.1891  -21.6860  -11.5699 O   0  0  0  0  0  0  0  0  0  0  0  0
  2  1  1  0
  3  2  1  0
  3  4  1  1
  5  3  1  0
  6  5  2  0
  7  8  1  0
  8  9  2  0
  9 10  1  0
 11 10  2  0
 11 12  1  0
 13 12  1  6
 13 14  1  0
 14  5  1  0
 15 13  1  0
 15 16  2  0
 17 11  1  0
 18 17  2  0
 18  8  1  0
 20 19  1  6
 20 21  1  0
 22 20  1  0
 22 23  1  6
 23 15  1  0
 24 22  1  0
 25 24  2  0
 26 24  1  0
M  END
$$$$
