SYV.pdb
     RDKit          3D

 26 26  0  0  1  0  0  0  0  0999 V2000
   26.4662  -19.2454  -17.5690 O   0  0  0  0  0  0  0  0  0  0  0  0
   26.9691  -18.5541  -16.4741 C   0  0  0  0  0  0  0  0  0  0  0  0
   27.7625  -19.5180  -15.6189 C   0  0  2  0  0  0  0  0  0  0  0  0
   28.6303  -20.3657  -16.4060 N   0  0  0  0  0  0  0  0  0  0  0  0
   26.8547  -20.3447  -14.7611 C   0  0  0  0  0  0  0  0  0  0  0  0
   26.7700  -21.5916  -14.9241 O   0  0  0  0  0  0  0  0  0  0  0  0
   29.8846  -21.4294   -8.2237 O   0  0  0  0  0  0  0  0  0  0  0  0
   28.8184  -21.0585   -9.0564 C   0  0  0  0  0  0  0  0  0  0  0  0
   27.5771  -20.8520   -8.4916 C   0  0  0  0  0  0  0  0  0  0  0  0
   26.5097  -20.4867   -9.2841 C   0  0  0  0  0  0  0  0  0  0  0  0
   26.6308  -20.3129  -10.6605 C   0  0  0  0  0  0  0  0  0  0  0  0
   25.4826  -19.9585  -11.4744 C   0  0  0  0  0  0  0  0  0  0  0  0
   25.3131  -20.6167  -12.7914 C   0  0  2  0  0  0  0  0  0  0  0  0
   26.0642  -19.7765  -13.7467 N   0  0  0  0  0  0  0  0  0  0  0  0
   23.9338  -20.7239  -13.2657 C   0  0  0  0  0  0  0  0  0  0  0  0
   23.3782  -19.6583  -13.7149 O   0  0  0  0  0  0  0  0  0  0  0  0
   27.8808  -20.5268  -11.1894 C   0  0  0  0  0  0  0  0  0  0  0  0
   28.9578  -20.8939  -10.3995 C   0  0  0  0  0  0  0  0  0  0  0  0
   20.1555  -23.0975  -15.2398 C   0  0  0  0  0  0  0  0  0  0  0  0
   21.5144  -23.1205  -14.6351 C   0  0  2  0  0  0  0  0  0  0  0  0
   21.6293  -24.3339  -13.7508 C   0  0  0  0  0  0  0  0  0  0  0  0
   21.8418  -21.8684  -13.8436 C   0  0  2  0  0  0  0  0  0  0  0  0
   23.1608  -21.9230  -13.2739 N   0  0  0  0  0  0  0  0  0  0  0  0
   20.8327  -21.6813  -12.7861 C   0  0  0  0  0  0  0  0  0  0  0  0
   21.1134  -21.8809  -11.5940 O   0  0  0  0  0  0  0  0  0  0  0  0
   19.5180  -21.2693  -13.1016 O   0  0  0  0  0  0  0  0  0  0  0  0
  2  1  1  0
  3  2  1  0
  3  4  1  6
  5  3  1  0
  6  5  2  0
  7  8  1  0
  8  9  2  0
  9 10  1  0
 11 10  2  0
 11 12  1  0
 13 12  1  1
 13 14  1  0
 14  5  1  0
 15 13  1  0
 15 16  2  0
 17 11  1  0
 18 17  2  0
 18  8  1  0
 20 19  1  1
 20 21  1  0
 22 20  1  0
 22 23  1  1
 23 15  1  0
 24 22  1  0
 25 24  2  0
 26 24  1  0
M  END
$$$$
