SYV.pdb
     RDKit          3D

 26 26  0  0  1  0  0  0  0  0999 V2000
   41.6658  -13.5547  -12.8581 O   0  0  0  0  0  0  0  0  0  0  0  0
   41.7599  -12.5238  -11.9318 C   0  0  0  0  0  0  0  0  0  0  0  0
   40.6695  -11.5152  -12.2213 C   0  0  2  0  0  0  0  0  0  0  0  0
   40.7162  -11.0303  -13.5829 N   0  0  0  0  0  0  0  0  0  0  0  0
   40.7254  -10.3738  -11.2532 C   0  0  0  0  0  0  0  0  0  0  0  0
   41.3713   -9.3263  -11.5256 O   0  0  0  0  0  0  0  0  0  0  0  0
   37.4660   -4.6655   -5.2861 O   0  0  0  0  0  0  0  0  0  0  0  0
   37.8089   -5.6921   -6.1785 C   0  0  0  0  0  0  0  0  0  0  0  0
   36.7982   -6.3865   -6.8100 C   0  0  0  0  0  0  0  0  0  0  0  0
   37.1037   -7.4008   -7.6925 C   0  0  0  0  0  0  0  0  0  0  0  0
   38.4165   -7.7642   -7.9817 C   0  0  0  0  0  0  0  0  0  0  0  0
   38.7079   -8.8570   -8.8913 C   0  0  0  0  0  0  0  0  0  0  0  0
   40.1178   -9.2760   -9.0723 C   0  0  2  0  0  0  0  0  0  0  0  0
   40.0685  -10.4159  -10.0108 N   0  0  0  0  0  0  0  0  0  0  0  0
   40.8020   -9.7158   -7.8568 C   0  0  0  0  0  0  0  0  0  0  0  0
   40.2832  -10.6923   -7.2063 O   0  0  0  0  0  0  0  0  0  0  0  0
   39.3978   -7.0519   -7.3352 C   0  0  0  0  0  0  0  0  0  0  0  0
   39.0984   -6.0318   -6.4474 C   0  0  0  0  0  0  0  0  0  0  0  0
   44.8995   -9.5532   -7.0172 C   0  0  0  0  0  0  0  0  0  0  0  0
   43.8675  -10.4238   -6.3929 C   0  0  2  0  0  0  0  0  0  0  0  0
   43.6417  -11.6187   -7.2810 C   0  0  0  0  0  0  0  0  0  0  0  0
   42.5531   -9.7106   -6.1380 C   0  0  2  0  0  0  0  0  0  0  0  0
   42.0054   -9.1477   -7.3425 N   0  0  0  0  0  0  0  0  0  0  0  0
   42.7561   -8.6592   -5.1256 C   0  0  0  0  0  0  0  0  0  0  0  0
   42.9741   -8.9497   -3.9391 O   0  0  0  0  0  0  0  0  0  0  0  0
   42.7079   -7.2917   -5.4792 O   0  0  0  0  0  0  0  0  0  0  0  0
  2  1  1  0
  3  2  1  0
  3  4  1  6
  5  3  1  0
  6  5  2  0
  7  8  1  0
  8  9  2  0
  9 10  1  0
 11 10  2  0
 11 12  1  0
 13 12  1  1
 13 14  1  0
 14  5  1  0
 15 13  1  0
 15 16  2  0
 17 11  1  0
 18 17  2  0
 18  8  1  0
 20 19  1  6
 20 21  1  0
 22 20  1  0
 22 23  1  6
 23 15  1  0
 24 22  1  0
 25 24  2  0
 26 24  1  0
M  END
$$$$
