SYV.pdb
     RDKit          3D

 26 26  0  0  1  0  0  0  0  0999 V2000
   30.6604  -19.8051  -13.4846 O   0  0  0  0  0  0  0  0  0  0  0  0
   29.5296  -20.3580  -12.8972 C   0  0  0  0  0  0  0  0  0  0  0  0
   29.8386  -20.6591  -11.4467 C   0  0  2  0  0  0  0  0  0  0  0  0
   30.8376  -21.6944  -11.3006 N   0  0  0  0  0  0  0  0  0  0  0  0
   28.5927  -21.0195  -10.6976 C   0  0  0  0  0  0  0  0  0  0  0  0
   28.3040  -22.2242  -10.4652 O   0  0  0  0  0  0  0  0  0  0  0  0
   28.8318  -20.1497   -3.7186 O   0  0  0  0  0  0  0  0  0  0  0  0
   28.1397  -20.0226   -4.9321 C   0  0  0  0  0  0  0  0  0  0  0  0
   28.2701  -18.8521   -5.6501 C   0  0  0  0  0  0  0  0  0  0  0  0
   27.6023  -18.6974   -6.8464 C   0  0  0  0  0  0  0  0  0  0  0  0
   26.7834  -19.6921   -7.3747 C   0  0  0  0  0  0  0  0  0  0  0  0
   26.0678  -19.4894   -8.6210 C   0  0  0  0  0  0  0  0  0  0  0  0
   26.3427  -20.4015   -9.7562 C   0  0  2  0  0  0  0  0  0  0  0  0
   27.6976  -20.0440  -10.2243 N   0  0  0  0  0  0  0  0  0  0  0  0
   25.4246  -20.2869  -10.8889 C   0  0  0  0  0  0  0  0  0  0  0  0
   25.5894  -19.2954  -11.6862 O   0  0  0  0  0  0  0  0  0  0  0  0
   26.6764  -20.8443   -6.6336 C   0  0  0  0  0  0  0  0  0  0  0  0
   27.3442  -21.0068   -5.4311 C   0  0  0  0  0  0  0  0  0  0  0  0
   22.8422  -21.9807  -14.5476 C   0  0  0  0  0  0  0  0  0  0  0  0
   23.6451  -22.1680  -13.3094 C   0  0  2  0  0  0  0  0  0  0  0  0
   23.1538  -23.4001  -12.5967 C   0  0  0  0  0  0  0  0  0  0  0  0
   23.5970  -20.9738  -12.3751 C   0  0  2  0  0  0  0  0  0  0  0  0
   24.3644  -21.1962  -11.1796 N   0  0  0  0  0  0  0  0  0  0  0  0
   22.1944  -20.6743  -12.0371 C   0  0  0  0  0  0  0  0  0  0  0  0
   21.4051  -20.2585  -12.8996 O   0  0  0  0  0  0  0  0  0  0  0  0
   21.7105  -20.8525  -10.7211 O   0  0  0  0  0  0  0  0  0  0  0  0
  2  1  1  0
  3  2  1  0
  3  4  1  6
  5  3  1  0
  6  5  2  0
  7  8  1  0
  8  9  2  0
  9 10  1  0
 11 10  2  0
 11 12  1  0
 13 12  1  1
 13 14  1  0
 14  5  1  0
 15 13  1  0
 15 16  2  0
 17 11  1  0
 18 17  2  0
 18  8  1  0
 20 19  1  6
 20 21  1  0
 22 20  1  0
 22 23  1  1
 23 15  1  0
 24 22  1  0
 25 24  2  0
 26 24  1  0
M  END
$$$$
