SYV.pdb
     RDKit          3D

 26 26  0  0  1  0  0  0  0  0999 V2000
   22.2004   -8.7083  -19.2181 O   0  0  0  0  0  0  0  0  0  0  0  0
   21.6638   -9.9829  -19.0889 C   0  0  0  0  0  0  0  0  0  0  0  0
   21.8960  -10.4619  -17.6723 C   0  0  2  0  0  0  0  0  0  0  0  0
   21.5170  -11.8456  -17.4905 N   0  0  0  0  0  0  0  0  0  0  0  0
   21.1836   -9.5866  -16.6877 C   0  0  0  0  0  0  0  0  0  0  0  0
   19.9461   -9.7149  -16.4859 O   0  0  0  0  0  0  0  0  0  0  0  0
   18.8052   -5.8652   -9.2156 O   0  0  0  0  0  0  0  0  0  0  0  0
   19.4750   -6.4111  -10.3206 C   0  0  0  0  0  0  0  0  0  0  0  0
   18.9060   -7.4820  -10.9779 C   0  0  0  0  0  0  0  0  0  0  0  0
   19.5404   -8.0402  -12.0673 C   0  0  0  0  0  0  0  0  0  0  0  0
   20.7575   -7.5609  -12.5450 C   0  0  0  0  0  0  0  0  0  0  0  0
   21.4179   -8.1883  -13.6750 C   0  0  0  0  0  0  0  0  0  0  0  0
   21.1253   -7.6872  -15.0386 C   0  0  2  0  0  0  0  0  0  0  0  0
   21.8526   -8.5931  -15.9513 N   0  0  0  0  0  0  0  0  0  0  0  0
   21.5632   -6.3186  -15.3108 C   0  0  0  0  0  0  0  0  0  0  0  0
   22.8171   -6.1255  -15.5015 O   0  0  0  0  0  0  0  0  0  0  0  0
   21.2955   -6.4938  -11.8668 C   0  0  0  0  0  0  0  0  0  0  0  0
   20.6639   -5.9279  -10.7717 C   0  0  0  0  0  0  0  0  0  0  0  0
   20.9974   -3.9094  -18.1098 C   0  0  0  0  0  0  0  0  0  0  0  0
   20.7143   -3.2044  -16.8309 C   0  0  2  0  0  0  0  0  0  0  0  0
   21.2413   -1.7971  -16.9279 C   0  0  0  0  0  0  0  0  0  0  0  0
   21.3057   -3.8979  -15.6182 C   0  0  2  0  0  0  0  0  0  0  0  0
   20.7031   -5.1829  -15.3876 N   0  0  0  0  0  0  0  0  0  0  0  0
   21.1440   -3.0348  -14.4348 C   0  0  0  0  0  0  0  0  0  0  0  0
   20.0999   -3.0599  -13.7647 O   0  0  0  0  0  0  0  0  0  0  0  0
   22.1741   -2.1551  -14.0314 O   0  0  0  0  0  0  0  0  0  0  0  0
  2  1  1  0
  3  2  1  0
  3  4  1  6
  5  3  1  0
  6  5  2  0
  7  8  1  0
  8  9  2  0
  9 10  1  0
 11 10  2  0
 11 12  1  0
 13 12  1  1
 13 14  1  0
 14  5  1  0
 15 13  1  0
 15 16  2  0
 17 11  1  0
 18 17  2  0
 18  8  1  0
 20 19  1  6
 20 21  1  0
 22 20  1  0
 22 23  1  1
 23 15  1  0
 24 22  1  0
 25 24  2  0
 26 24  1  0
M  END
$$$$
