SYV.pdb
     RDKit          3D

 26 26  0  0  1  0  0  0  0  0999 V2000
   18.8386  -14.2063  -19.2561 O   0  0  0  0  0  0  0  0  0  0  0  0
   18.7178  -13.1437  -18.3697 C   0  0  0  0  0  0  0  0  0  0  0  0
   19.9410  -13.1180  -17.4791 C   0  0  2  0  0  0  0  0  0  0  0  0
   20.1731  -14.3874  -16.8266 N   0  0  0  0  0  0  0  0  0  0  0  0
   19.8448  -12.0161  -16.4692 C   0  0  0  0  0  0  0  0  0  0  0  0
   20.0692  -12.2367  -15.2487 O   0  0  0  0  0  0  0  0  0  0  0  0
   22.8963   -4.6024  -13.3921 O   0  0  0  0  0  0  0  0  0  0  0  0
   22.4147   -5.8363  -13.8540 C   0  0  0  0  0  0  0  0  0  0  0  0
   22.5272   -6.1310  -15.1968 C   0  0  0  0  0  0  0  0  0  0  0  0
   22.0631   -7.3357  -15.6809 C   0  0  0  0  0  0  0  0  0  0  0  0
   21.4725   -8.2902  -14.8567 C   0  0  0  0  0  0  0  0  0  0  0  0
   20.9646   -9.5369  -15.3992 C   0  0  0  0  0  0  0  0  0  0  0  0
   19.5547   -9.5942  -15.8521 C   0  0  2  0  0  0  0  0  0  0  0  0
   19.5039  -10.7006  -16.8298 N   0  0  0  0  0  0  0  0  0  0  0  0
   19.0569   -8.3848  -16.5066 C   0  0  0  0  0  0  0  0  0  0  0  0
   19.4455   -8.1597  -17.7083 O   0  0  0  0  0  0  0  0  0  0  0  0
   21.3767   -7.9637  -13.5253 C   0  0  0  0  0  0  0  0  0  0  0  0
   21.8406   -6.7555  -13.0320 C   0  0  0  0  0  0  0  0  0  0  0  0
   15.5495   -6.2082  -15.6518 C   0  0  0  0  0  0  0  0  0  0  0  0
   16.3527   -6.1234  -16.9010 C   0  0  2  0  0  0  0  0  0  0  0  0
   15.8826   -7.1928  -17.8513 C   0  0  0  0  0  0  0  0  0  0  0  0
   17.8455   -6.2569  -16.6664 C   0  0  2  0  0  0  0  0  0  0  0  0
   18.1671   -7.4396  -15.9146 N   0  0  0  0  0  0  0  0  0  0  0  0
   18.3400   -5.0556  -15.9709 C   0  0  0  0  0  0  0  0  0  0  0  0
   18.3955   -3.9601  -16.5510 O   0  0  0  0  0  0  0  0  0  0  0  0
   18.7643   -5.1192  -14.6242 O   0  0  0  0  0  0  0  0  0  0  0  0
  2  1  1  0
  3  2  1  0
  3  4  1  1
  5  3  1  0
  6  5  2  0
  7  8  1  0
  8  9  2  0
  9 10  1  0
 11 10  2  0
 11 12  1  0
 13 12  1  6
 13 14  1  0
 14  5  1  0
 15 13  1  0
 15 16  2  0
 17 11  1  0
 18 17  2  0
 18  8  1  0
 20 19  1  1
 20 21  1  0
 22 20  1  0
 22 23  1  1
 23 15  1  0
 24 22  1  0
 25 24  2  0
 26 24  1  0
M  END
$$$$
