SYV.pdb
     RDKit          3D

 26 26  0  0  1  0  0  0  0  0999 V2000
   28.3390  -19.7172  -18.4930 O   0  0  0  0  0  0  0  0  0  0  0  0
   27.4355  -20.1564  -17.5337 C   0  0  0  0  0  0  0  0  0  0  0  0
   28.0817  -21.2691  -16.7371 C   0  0  2  0  0  0  0  0  0  0  0  0
   28.3087  -22.4550  -17.5329 N   0  0  0  0  0  0  0  0  0  0  0  0
   27.2710  -21.5976  -15.5213 C   0  0  0  0  0  0  0  0  0  0  0  0
   26.4905  -22.5873  -15.5129 O   0  0  0  0  0  0  0  0  0  0  0  0
   24.6978  -20.4872   -6.9427 O   0  0  0  0  0  0  0  0  0  0  0  0
   25.3197  -20.4779   -8.2000 C   0  0  0  0  0  0  0  0  0  0  0  0
   25.5941  -21.6828   -8.8127 C   0  0  0  0  0  0  0  0  0  0  0  0
   26.2047  -21.7061  -10.0486 C   0  0  0  0  0  0  0  0  0  0  0  0
   26.5651  -20.5417  -10.7218 C   0  0  0  0  0  0  0  0  0  0  0  0
   27.2351  -20.5972  -12.0081 C   0  0  0  0  0  0  0  0  0  0  0  0
   26.4919  -21.1270  -13.1757 C   0  0  2  0  0  0  0  0  0  0  0  0
   27.3410  -20.8276  -14.3470 N   0  0  0  0  0  0  0  0  0  0  0  0
   25.1754  -20.5319  -13.4034 C   0  0  0  0  0  0  0  0  0  0  0  0
   25.1389  -19.3320  -13.8560 O   0  0  0  0  0  0  0  0  0  0  0  0
   26.2771  -19.3598  -10.0828 C   0  0  0  0  0  0  0  0  0  0  0  0
   25.6640  -19.3287   -8.8412 C   0  0  0  0  0  0  0  0  0  0  0  0
   21.6704  -22.3025  -14.7290 C   0  0  0  0  0  0  0  0  0  0  0  0
   22.0505  -20.8646  -14.7059 C   0  0  2  0  0  0  0  0  0  0  0  0
   22.9577  -20.5857  -15.8751 C   0  0  0  0  0  0  0  0  0  0  0  0
   22.7234  -20.4409  -13.4140 C   0  0  2  0  0  0  0  0  0  0  0  0
   23.9290  -21.1848  -13.1677 N   0  0  0  0  0  0  0  0  0  0  0  0
   21.7796  -20.6066  -12.2946 C   0  0  0  0  0  0  0  0  0  0  0  0
   21.9914  -21.4397  -11.3996 O   0  0  0  0  0  0  0  0  0  0  0  0
   20.6078  -19.8210  -12.2104 O   0  0  0  0  0  0  0  0  0  0  0  0
  2  1  1  0
  3  2  1  0
  3  4  1  6
  5  3  1  0
  6  5  2  0
  7  8  1  0
  8  9  2  0
  9 10  1  0
 11 10  2  0
 11 12  1  0
 13 12  1  1
 13 14  1  0
 14  5  1  0
 15 13  1  0
 15 16  2  0
 17 11  1  0
 18 17  2  0
 18  8  1  0
 20 19  1  1
 20 21  1  0
 22 20  1  0
 22 23  1  1
 23 15  1  0
 24 22  1  0
 25 24  2  0
 26 24  1  0
M  END
$$$$
