SYV.pdb
     RDKit          3D

 26 26  0  0  1  0  0  0  0  0999 V2000
   28.6531  -20.1636  -19.4511 O   0  0  0  0  0  0  0  0  0  0  0  0
   27.6949  -20.6434  -18.5674 C   0  0  0  0  0  0  0  0  0  0  0  0
   28.3183  -21.7380  -17.7287 C   0  0  2  0  0  0  0  0  0  0  0  0
   28.5082  -22.9620  -18.4750 N   0  0  0  0  0  0  0  0  0  0  0  0
   27.5090  -21.9934  -16.4946 C   0  0  0  0  0  0  0  0  0  0  0  0
   26.6822  -22.9437  -16.4491 O   0  0  0  0  0  0  0  0  0  0  0  0
   24.9448  -20.3212   -8.0184 O   0  0  0  0  0  0  0  0  0  0  0  0
   25.6003  -20.4898   -9.2471 C   0  0  0  0  0  0  0  0  0  0  0  0
   25.8872  -19.3729  -10.0040 C   0  0  0  0  0  0  0  0  0  0  0  0
   26.5307  -19.5065  -11.2160 C   0  0  0  0  0  0  0  0  0  0  0  0
   26.9128  -20.7462  -11.7222 C   0  0  0  0  0  0  0  0  0  0  0  0
   27.5610  -20.8594  -13.0159 C   0  0  0  0  0  0  0  0  0  0  0  0
   26.7949  -21.4309  -14.1485 C   0  0  2  0  0  0  0  0  0  0  0  0
   27.6315  -21.1958  -15.3432 N   0  0  0  0  0  0  0  0  0  0  0  0
   25.4832  -20.8290  -14.3852 C   0  0  0  0  0  0  0  0  0  0  0  0
   25.4547  -19.6694  -14.9334 O   0  0  0  0  0  0  0  0  0  0  0  0
   26.6115  -21.8368  -10.9425 C   0  0  0  0  0  0  0  0  0  0  0  0
   25.9653  -21.7103   -9.7239 C   0  0  0  0  0  0  0  0  0  0  0  0
   21.0268  -20.4065  -15.7705 C   0  0  0  0  0  0  0  0  0  0  0  0
   22.3325  -21.0892  -15.5658 C   0  0  2  0  0  0  0  0  0  0  0  0
   22.1045  -22.5777  -15.5642 C   0  0  0  0  0  0  0  0  0  0  0  0
   23.0366  -20.6704  -14.2890 C   0  0  2  0  0  0  0  0  0  0  0  0
   24.2330  -21.4345  -14.0602 N   0  0  0  0  0  0  0  0  0  0  0  0
   22.1107  -20.8127  -13.1515 C   0  0  0  0  0  0  0  0  0  0  0  0
   22.2734  -21.7044  -12.3041 O   0  0  0  0  0  0  0  0  0  0  0  0
   21.0123  -19.9370  -12.9953 O   0  0  0  0  0  0  0  0  0  0  0  0
  2  1  1  0
  3  2  1  0
  3  4  1  6
  5  3  1  0
  6  5  2  0
  7  8  1  0
  8  9  2  0
  9 10  1  0
 11 10  2  0
 11 12  1  0
 13 12  1  1
 13 14  1  0
 14  5  1  0
 15 13  1  0
 15 16  2  0
 17 11  1  0
 18 17  2  0
 18  8  1  0
 20 19  1  1
 20 21  1  0
 22 20  1  0
 22 23  1  1
 23 15  1  0
 24 22  1  0
 25 24  2  0
 26 24  1  0
M  END
$$$$
