SYV.pdb
     RDKit          3D

 26 26  0  0  1  0  0  0  0  0999 V2000
   28.7781  -22.4096  -16.0110 O   0  0  0  0  0  0  0  0  0  0  0  0
   27.6880  -23.2671  -16.0877 C   0  0  0  0  0  0  0  0  0  0  0  0
   26.4518  -22.4486  -16.3907 C   0  0  2  0  0  0  0  0  0  0  0  0
   26.4881  -21.8667  -17.7140 N   0  0  0  0  0  0  0  0  0  0  0  0
   26.2448  -21.3877  -15.3539 C   0  0  0  0  0  0  0  0  0  0  0  0
   26.6199  -20.2019  -15.5588 O   0  0  0  0  0  0  0  0  0  0  0  0
   19.5174  -23.4263  -13.4523 O   0  0  0  0  0  0  0  0  0  0  0  0
   20.6574  -22.6094  -13.4778 C   0  0  0  0  0  0  0  0  0  0  0  0
   20.8368  -21.6901  -12.4652 C   0  0  0  0  0  0  0  0  0  0  0  0
   21.9474  -20.8730  -12.4628 C   0  0  0  0  0  0  0  0  0  0  0  0
   22.9183  -20.9353  -13.4590 C   0  0  0  0  0  0  0  0  0  0  0  0
   24.0615  -20.0411  -13.4475 C   0  0  0  0  0  0  0  0  0  0  0  0
   25.3963  -20.5962  -13.1214 C   0  0  2  0  0  0  0  0  0  0  0  0
   25.6304  -21.6604  -14.1190 N   0  0  0  0  0  0  0  0  0  0  0  0
   25.5216  -21.1855  -11.7888 C   0  0  0  0  0  0  0  0  0  0  0  0
   25.3390  -22.4508  -11.6819 O   0  0  0  0  0  0  0  0  0  0  0  0
   22.7079  -21.8619  -14.4517 C   0  0  0  0  0  0  0  0  0  0  0  0
   21.5946  -22.6860  -14.4607 C   0  0  0  0  0  0  0  0  0  0  0  0
   27.0076  -19.3500   -8.0966 C   0  0  0  0  0  0  0  0  0  0  0  0
   27.0208  -20.7872   -8.4799 C   0  0  2  0  0  0  0  0  0  0  0  0
   28.3176  -21.0877   -9.1839 C   0  0  0  0  0  0  0  0  0  0  0  0
   25.8492  -21.1865   -9.3571 C   0  0  2  0  0  0  0  0  0  0  0  0
   25.8379  -20.4633  -10.5998 N   0  0  0  0  0  0  0  0  0  0  0  0
   24.5912  -20.9652   -8.6223 C   0  0  0  0  0  0  0  0  0  0  0  0
   23.7535  -20.1429   -9.0247 O   0  0  0  0  0  0  0  0  0  0  0  0
   24.3051  -21.6838   -7.4393 O   0  0  0  0  0  0  0  0  0  0  0  0
  2  1  1  0
  3  2  1  0
  3  4  1  6
  5  3  1  0
  6  5  2  0
  7  8  1  0
  8  9  2  0
  9 10  1  0
 11 10  2  0
 11 12  1  0
 13 12  1  6
 13 14  1  0
 14  5  1  0
 15 13  1  0
 15 16  2  0
 17 11  1  0
 18 17  2  0
 18  8  1  0
 20 19  1  6
 20 21  1  0
 22 20  1  0
 22 23  1  6
 23 15  1  0
 24 22  1  0
 25 24  2  0
 26 24  1  0
M  END
$$$$
