SYV.pdb
     RDKit          3D

 26 26  0  0  1  0  0  0  0  0999 V2000
   19.5072   -8.0350  -20.5380 O   0  0  0  0  0  0  0  0  0  0  0  0
   19.4022   -7.2176  -19.4199 C   0  0  0  0  0  0  0  0  0  0  0  0
   20.5527   -7.5275  -18.4870 C   0  0  2  0  0  0  0  0  0  0  0  0
   20.4946   -8.8773  -17.9715 N   0  0  0  0  0  0  0  0  0  0  0  0
   20.6139   -6.5370  -17.3651 C   0  0  0  0  0  0  0  0  0  0  0  0
   19.7023   -6.4878  -16.4960 O   0  0  0  0  0  0  0  0  0  0  0  0
   21.2410   -9.1233  -11.4337 O   0  0  0  0  0  0  0  0  0  0  0  0
   21.5745   -8.1110  -12.3456 C   0  0  0  0  0  0  0  0  0  0  0  0
   22.4374   -8.4084  -13.3798 C   0  0  0  0  0  0  0  0  0  0  0  0
   22.7840   -7.4345  -14.2921 C   0  0  0  0  0  0  0  0  0  0  0  0
   22.2910   -6.1344  -14.2150 C   0  0  0  0  0  0  0  0  0  0  0  0
   22.6977   -5.1213  -15.1714 C   0  0  0  0  0  0  0  0  0  0  0  0
   21.7002   -4.6221  -16.1471 C   0  0  2  0  0  0  0  0  0  0  0  0
   21.6771   -5.6270  -17.2299 N   0  0  0  0  0  0  0  0  0  0  0  0
   22.0013   -3.3198  -16.7407 C   0  0  0  0  0  0  0  0  0  0  0  0
   22.9801   -3.2587  -17.5678 O   0  0  0  0  0  0  0  0  0  0  0  0
   21.4343   -5.8732  -13.1728 C   0  0  0  0  0  0  0  0  0  0  0  0
   21.0817   -6.8465  -12.2526 C   0  0  0  0  0  0  0  0  0  0  0  0
   19.2655   -0.1860  -17.2587 C   0  0  0  0  0  0  0  0  0  0  0  0
   20.5120   -0.3975  -18.0424 C   0  0  2  0  0  0  0  0  0  0  0  0
   20.2140   -1.3381  -19.1799 C   0  0  0  0  0  0  0  0  0  0  0  0
   21.6611   -0.9358  -17.2110 C   0  0  2  0  0  0  0  0  0  0  0  0
   21.2865   -2.1138  -16.4765 N   0  0  0  0  0  0  0  0  0  0  0  0
   22.1329    0.1147  -16.2917 C   0  0  0  0  0  0  0  0  0  0  0  0
   21.9130    0.0415  -15.0726 O   0  0  0  0  0  0  0  0  0  0  0  0
   22.8485    1.2340  -16.7739 O   0  0  0  0  0  0  0  0  0  0  0  0
  2  1  1  0
  3  2  1  0
  3  4  1  1
  5  3  1  0
  6  5  2  0
  7  8  1  0
  8  9  2  0
  9 10  1  0
 11 10  2  0
 11 12  1  0
 13 12  1  1
 13 14  1  0
 14  5  1  0
 15 13  1  0
 15 16  2  0
 17 11  1  0
 18 17  2  0
 18  8  1  0
 20 19  1  1
 20 21  1  0
 22 20  1  0
 22 23  1  1
 23 15  1  0
 24 22  1  0
 25 24  2  0
 26 24  1  0
M  END
$$$$
