VWP.pdb
     RDKit          3D

 29 31  0  0  1  0  0  0  0  0999 V2000
   19.8481  -20.8214  -15.2299 C   0  0  0  0  0  0  0  0  0  0  0  0
   21.2699  -20.7342  -14.7868 C   0  0  1  0  0  0  0  0  0  0  0  0
   22.1671  -20.5191  -16.0067 C   0  0  0  0  0  0  0  0  0  0  0  0
   21.5566  -19.6188  -13.8120 C   0  0  2  0  0  0  0  0  0  0  0  0
   21.1304  -18.3787  -14.4812 N   0  0  0  0  0  0  0  0  0  0  0  0
   23.0089  -19.5273  -13.4631 C   0  0  0  0  0  0  0  0  0  0  0  0
   23.7019  -18.7823  -14.1511 O   0  0  0  0  0  0  0  0  0  0  0  0
   23.5146  -20.2715  -12.3959 N   0  0  0  0  0  0  0  0  0  0  0  0
   24.9468  -20.3376  -12.1365 C   0  0  1  0  0  0  0  0  0  0  0  0
   25.2039  -21.1261  -10.8686 C   0  0  0  0  0  0  0  0  0  0  0  0
   26.6026  -21.0812  -10.4370 C   0  0  0  0  0  0  0  0  0  0  0  0
   27.6930  -21.6240  -11.1278 C   0  0  0  0  0  0  0  0  0  0  0  0
   28.7957  -21.3947  -10.4350 N   0  0  0  0  0  0  0  0  0  0  0  0
   28.5275  -20.7160   -9.2905 C   0  0  0  0  0  0  0  0  0  0  0  0
   29.3284  -20.2564   -8.2633 C   0  0  0  0  0  0  0  0  0  0  0  0
   28.7713  -19.5815   -7.1989 C   0  0  0  0  0  0  0  0  0  0  0  0
   27.4167  -19.3815   -7.1891 C   0  0  0  0  0  0  0  0  0  0  0  0
   26.6208  -19.8373   -8.2088 C   0  0  0  0  0  0  0  0  0  0  0  0
   27.1493  -20.5273   -9.3066 C   0  0  0  0  0  0  0  0  0  0  0  0
   25.6672  -20.9641  -13.2474 C   0  0  0  0  0  0  0  0  0  0  0  0
   25.2016  -21.9959  -13.7862 O   0  0  0  0  0  0  0  0  0  0  0  0
   26.8814  -20.4427  -13.7427 N   0  0  0  0  0  0  0  0  0  0  0  0
   27.7828  -19.5128  -13.1172 C   0  0  0  0  0  0  0  0  0  0  0  0
   28.1722  -18.6029  -14.2733 C   0  0  0  0  0  0  0  0  0  0  0  0
   27.9709  -19.4317  -15.5142 C   0  0  0  0  0  0  0  0  0  0  0  0
   27.4983  -20.7706  -15.0374 C   0  0  1  0  0  0  0  0  0  0  0  0
   28.5813  -21.7445  -14.7843 C   0  0  0  0  0  0  0  0  0  0  0  0
   28.9177  -22.0040  -13.6101 O   0  0  0  0  0  0  0  0  0  0  0  0
   29.2594  -22.3995  -15.8024 O   0  0  0  0  0  0  0  0  0  0  0  0
  2  3  1  6
  2  1  1  0
  4  2  1  0
  4  5  1  6
  6  8  1  0
  6  4  1  0
  7  6  2  0
  9  8  1  0
  9 10  1  1
 10 11  1  0
 11 12  2  0
 11 19  1  0
 12 13  1  0
 13 14  1  0
 14 15  2  0
 16 15  1  0
 17 16  2  0
 18 19  2  0
 18 17  1  0
 19 14  1  0
 20 21  2  0
 20  9  1  0
 22 20  1  0
 23 22  1  0
 24 23  1  0
 25 24  1  0
 25 26  1  0
 26 22  1  0
 27 29  1  0
 26 27  1  1
 28 27  2  0
M  END
$$$$
