VWP.pdb
     RDKit          3D

 29 31  0  0  1  0  0  0  0  0999 V2000
   23.1031  -15.2545  -18.8955 C   0  0  0  0  0  0  0  0  0  0  0  0
   23.5948  -16.4012  -18.0776 C   0  0  1  0  0  0  0  0  0  0  0  0
   23.1000  -17.7105  -18.6942 C   0  0  0  0  0  0  0  0  0  0  0  0
   25.0966  -16.4935  -17.9644 C   0  0  2  0  0  0  0  0  0  0  0  0
   25.5987  -16.6089  -19.3434 N   0  0  0  0  0  0  0  0  0  0  0  0
   25.5352  -17.6828  -17.1693 C   0  0  0  0  0  0  0  0  0  0  0  0
   25.6667  -18.7422  -17.7768 O   0  0  0  0  0  0  0  0  0  0  0  0
   25.7740  -17.5527  -15.8001 N   0  0  0  0  0  0  0  0  0  0  0  0
   26.0731  -18.7155  -14.9747 C   0  0  1  0  0  0  0  0  0  0  0  0
   26.7495  -18.2756  -13.6923 C   0  0  0  0  0  0  0  0  0  0  0  0
   27.1444  -19.3965  -12.8365 C   0  0  0  0  0  0  0  0  0  0  0  0
   28.2689  -20.2111  -13.0171 C   0  0  0  0  0  0  0  0  0  0  0  0
   28.2996  -21.1177  -12.0550 N   0  0  0  0  0  0  0  0  0  0  0  0
   27.2480  -20.9751  -11.2087 C   0  0  0  0  0  0  0  0  0  0  0  0
   26.8536  -21.6648  -10.0788 C   0  0  0  0  0  0  0  0  0  0  0  0
   25.7134  -21.2910   -9.4014 C   0  0  0  0  0  0  0  0  0  0  0  0
   24.9910  -20.2284   -9.8749 C   0  0  0  0  0  0  0  0  0  0  0  0
   25.3821  -19.5429  -10.9966 C   0  0  0  0  0  0  0  0  0  0  0  0
   26.5338  -19.8926  -11.7121 C   0  0  0  0  0  0  0  0  0  0  0  0
   24.8607  -19.4688  -14.6455 C   0  0  0  0  0  0  0  0  0  0  0  0
   23.7754  -18.8610  -14.4886 O   0  0  0  0  0  0  0  0  0  0  0  0
   24.8668  -20.8721  -14.4977 N   0  0  0  0  0  0  0  0  0  0  0  0
   25.9925  -21.7591  -14.3761 C   0  0  0  0  0  0  0  0  0  0  0  0
   25.5809  -22.9357  -15.2490 C   0  0  0  0  0  0  0  0  0  0  0  0
   24.0758  -22.9009  -15.2758 C   0  0  0  0  0  0  0  0  0  0  0  0
   23.6800  -21.7379  -14.4190 C   0  0  1  0  0  0  0  0  0  0  0  0
   23.4642  -22.0748  -12.9959 C   0  0  0  0  0  0  0  0  0  0  0  0
   24.4243  -22.0351  -12.1985 O   0  0  0  0  0  0  0  0  0  0  0  0
   22.2262  -22.4412  -12.4872 O   0  0  0  0  0  0  0  0  0  0  0  0
  2  3  1  6
  2  1  1  0
  4  2  1  0
  4  5  1  6
  6  8  1  0
  6  4  1  0
  7  6  2  0
  9  8  1  0
  9 10  1  1
 10 11  1  0
 11 12  2  0
 11 19  1  0
 12 13  1  0
 13 14  1  0
 14 15  2  0
 16 15  1  0
 17 16  2  0
 18 19  2  0
 18 17  1  0
 19 14  1  0
 20 21  2  0
 20  9  1  0
 22 20  1  0
 23 22  1  0
 24 23  1  0
 25 24  1  0
 25 26  1  0
 26 22  1  0
 27 29  1  0
 26 27  1  1
 28 27  2  0
M  END
$$$$
