VWP.pdb
     RDKit          3D

 29 31  0  0  1  0  0  0  0  0999 V2000
   27.4809  -18.9173  -16.5848 C   0  0  0  0  0  0  0  0  0  0  0  0
   28.1418  -20.1356  -17.1365 C   0  0  1  0  0  0  0  0  0  0  0  0
   29.2007  -19.7175  -18.1578 C   0  0  0  0  0  0  0  0  0  0  0  0
   28.8240  -21.0012  -16.1060 C   0  0  2  0  0  0  0  0  0  0  0  0
   29.2289  -22.2272  -16.8133 N   0  0  0  0  0  0  0  0  0  0  0  0
   27.9174  -21.3538  -14.9689 C   0  0  0  0  0  0  0  0  0  0  0  0
   26.9321  -22.0382  -15.2327 O   0  0  0  0  0  0  0  0  0  0  0  0
   28.2133  -20.9055  -13.6805 N   0  0  0  0  0  0  0  0  0  0  0  0
   27.3402  -21.2170  -12.5564 C   0  0  1  0  0  0  0  0  0  0  0  0
   28.0794  -20.9914  -11.2533 C   0  0  0  0  0  0  0  0  0  0  0  0
   27.1845  -20.8169  -10.1072 C   0  0  0  0  0  0  0  0  0  0  0  0
   25.8029  -21.0450  -10.1019 C   0  0  0  0  0  0  0  0  0  0  0  0
   25.3299  -20.7794   -8.8959 N   0  0  0  0  0  0  0  0  0  0  0  0
   26.3172  -20.3758   -8.0563 C   0  0  0  0  0  0  0  0  0  0  0  0
   26.3217  -19.9960   -6.7283 C   0  0  0  0  0  0  0  0  0  0  0  0
   27.4999  -19.6256   -6.1174 C   0  0  0  0  0  0  0  0  0  0  0  0
   28.6528  -19.6449   -6.8559 C   0  0  0  0  0  0  0  0  0  0  0  0
   28.6493  -20.0221   -8.1746 C   0  0  0  0  0  0  0  0  0  0  0  0
   27.4727  -20.4046   -8.8304 C   0  0  0  0  0  0  0  0  0  0  0  0
   26.1285  -20.3942  -12.5713 C   0  0  0  0  0  0  0  0  0  0  0  0
   26.2252  -19.1453  -12.5182 O   0  0  0  0  0  0  0  0  0  0  0  0
   24.8382  -20.9608  -12.6457 N   0  0  0  0  0  0  0  0  0  0  0  0
   24.4403  -22.3247  -12.4218 C   0  0  0  0  0  0  0  0  0  0  0  0
   23.4302  -22.5604  -13.5353 C   0  0  0  0  0  0  0  0  0  0  0  0
   22.8986  -21.1951  -13.8827 C   0  0  0  0  0  0  0  0  0  0  0  0
   23.5951  -20.2406  -12.9623 C   0  0  1  0  0  0  0  0  0  0  0  0
   22.8842  -19.9922  -11.6902 C   0  0  0  0  0  0  0  0  0  0  0  0
   23.2021  -20.6356  -10.6683 O   0  0  0  0  0  0  0  0  0  0  0  0
   21.8605  -19.0636  -11.5674 O   0  0  0  0  0  0  0  0  0  0  0  0
  2  3  1  6
  2  1  1  0
  4  2  1  0
  4  5  1  6
  6  8  1  0
  6  4  1  0
  7  6  2  0
  9  8  1  0
  9 10  1  1
 10 11  1  0
 11 12  2  0
 11 19  1  0
 12 13  1  0
 13 14  1  0
 14 15  2  0
 16 15  1  0
 17 16  2  0
 18 19  2  0
 18 17  1  0
 19 14  1  0
 20 21  2  0
 20  9  1  0
 22 20  1  0
 23 22  1  0
 24 23  1  0
 25 24  1  0
 25 26  1  0
 26 22  1  0
 27 29  1  0
 26 27  1  1
 28 27  2  0
M  END
$$$$
