VWP.pdb
     RDKit          3D

 29 31  0  0  1  0  0  0  0  0999 V2000
   23.4193  -21.0948  -14.6234 C   0  0  0  0  0  0  0  0  0  0  0  0
   22.5690  -21.6604  -13.5361 C   0  0  1  0  0  0  0  0  0  0  0  0
   23.1787  -22.9764  -13.0505 C   0  0  0  0  0  0  0  0  0  0  0  0
   22.4100  -20.7642  -12.3326 C   0  0  2  0  0  0  0  0  0  0  0  0
   21.6565  -19.5895  -12.8012 N   0  0  0  0  0  0  0  0  0  0  0  0
   23.7262  -20.3256  -11.7720 C   0  0  0  0  0  0  0  0  0  0  0  0
   24.3538  -19.4867  -12.4132 O   0  0  0  0  0  0  0  0  0  0  0  0
   24.1851  -20.8695  -10.5711 N   0  0  0  0  0  0  0  0  0  0  0  0
   25.4670  -20.4701  -10.0055 C   0  0  1  0  0  0  0  0  0  0  0  0
   25.4242  -20.5941   -8.4961 C   0  0  0  0  0  0  0  0  0  0  0  0
   26.4468  -19.7898   -7.8236 C   0  0  0  0  0  0  0  0  0  0  0  0
   26.8085  -18.4781   -8.1542 C   0  0  0  0  0  0  0  0  0  0  0  0
   27.7662  -18.0788   -7.3345 N   0  0  0  0  0  0  0  0  0  0  0  0
   28.0917  -19.0510   -6.4449 C   0  0  0  0  0  0  0  0  0  0  0  0
   29.0103  -19.1102   -5.4150 C   0  0  0  0  0  0  0  0  0  0  0  0
   29.1282  -20.2543   -4.6564 C   0  0  0  0  0  0  0  0  0  0  0  0
   28.3178  -21.3186   -4.9492 C   0  0  0  0  0  0  0  0  0  0  0  0
   27.4053  -21.2606   -5.9715 C   0  0  0  0  0  0  0  0  0  0  0  0
   27.2563  -20.1163   -6.7646 C   0  0  0  0  0  0  0  0  0  0  0  0
   26.5640  -21.2901  -10.5249 C   0  0  0  0  0  0  0  0  0  0  0  0
   26.4591  -22.5394  -10.5254 O   0  0  0  0  0  0  0  0  0  0  0  0
   27.7505  -20.7201  -11.0335 N   0  0  0  0  0  0  0  0  0  0  0  0
   28.1356  -19.3351  -11.0791 C   0  0  0  0  0  0  0  0  0  0  0  0
   28.7668  -19.2137  -12.4585 C   0  0  0  0  0  0  0  0  0  0  0  0
   29.2342  -20.6029  -12.8033 C   0  0  0  0  0  0  0  0  0  0  0  0
   28.8783  -21.4565  -11.6251 C   0  0  1  0  0  0  0  0  0  0  0  0
   29.9387  -21.5523  -10.5996 C   0  0  0  0  0  0  0  0  0  0  0  0
   29.8562  -20.8673   -9.5589 O   0  0  0  0  0  0  0  0  0  0  0  0
   31.0448  -22.3795  -10.7337 O   0  0  0  0  0  0  0  0  0  0  0  0
  2  3  1  1
  2  1  1  0
  4  2  1  0
  4  5  1  6
  6  8  1  0
  6  4  1  0
  7  6  2  0
  9  8  1  0
  9 10  1  1
 10 11  1  0
 11 12  2  0
 11 19  1  0
 12 13  1  0
 13 14  1  0
 14 15  2  0
 16 15  1  0
 17 16  2  0
 18 19  2  0
 18 17  1  0
 19 14  1  0
 20 21  2  0
 20  9  1  0
 22 20  1  0
 23 22  1  0
 24 23  1  0
 25 24  1  0
 25 26  1  0
 26 22  1  0
 27 29  1  0
 26 27  1  1
 28 27  2  0
M  END
$$$$
