VWP.pdb
     RDKit          3D

 29 31  0  0  1  0  0  0  0  0999 V2000
   15.8349  -11.4676  -21.1680 C   0  0  0  0  0  0  0  0  0  0  0  0
   16.1892  -10.6197  -19.9928 C   0  0  1  0  0  0  0  0  0  0  0  0
   15.0903   -9.5794  -19.7706 C   0  0  0  0  0  0  0  0  0  0  0  0
   16.3620  -11.3785  -18.7002 C   0  0  2  0  0  0  0  0  0  0  0  0
   15.1279  -12.1615  -18.5241 N   0  0  0  0  0  0  0  0  0  0  0  0
   16.5510  -10.4687  -17.5273 C   0  0  0  0  0  0  0  0  0  0  0  0
   15.5447  -10.1553  -16.8967 O   0  0  0  0  0  0  0  0  0  0  0  0
   17.8304  -10.0184  -17.1972 N   0  0  0  0  0  0  0  0  0  0  0  0
   18.0571   -9.1954  -16.0165 C   0  0  1  0  0  0  0  0  0  0  0  0
   18.5282  -10.0633  -14.8674 C   0  0  0  0  0  0  0  0  0  0  0  0
   19.6351  -10.9499  -15.2325 C   0  0  0  0  0  0  0  0  0  0  0  0
   19.5151  -12.2066  -15.8385 C   0  0  0  0  0  0  0  0  0  0  0  0
   20.7233  -12.7146  -16.0133 N   0  0  0  0  0  0  0  0  0  0  0  0
   21.6842  -11.8710  -15.5575 C   0  0  0  0  0  0  0  0  0  0  0  0
   23.0625  -11.9527  -15.5195 C   0  0  0  0  0  0  0  0  0  0  0  0
   23.8035  -10.9208  -14.9858 C   0  0  0  0  0  0  0  0  0  0  0  0
   23.1420   -9.8247  -14.5001 C   0  0  0  0  0  0  0  0  0  0  0  0
   21.7733   -9.7427  -14.5377 C   0  0  0  0  0  0  0  0  0  0  0  0
   20.9861  -10.7703  -15.0715 C   0  0  0  0  0  0  0  0  0  0  0  0
   19.0524   -8.1512  -16.2706 C   0  0  0  0  0  0  0  0  0  0  0  0
   19.9020   -8.3109  -17.1786 O   0  0  0  0  0  0  0  0  0  0  0  0
   19.0914   -6.9547  -15.5235 N   0  0  0  0  0  0  0  0  0  0  0  0
   18.2027   -6.5154  -14.4814 C   0  0  0  0  0  0  0  0  0  0  0  0
   18.0227   -5.0388  -14.8025 C   0  0  0  0  0  0  0  0  0  0  0  0
   19.2552   -4.6487  -15.5745 C   0  0  0  0  0  0  0  0  0  0  0  0
   20.0946   -5.8866  -15.6543 C   0  0  1  0  0  0  0  0  0  0  0  0
   21.0606   -6.0403  -14.5459 C   0  0  0  0  0  0  0  0  0  0  0  0
   20.7363   -6.6871  -13.5282 O   0  0  0  0  0  0  0  0  0  0  0  0
   22.3353   -5.4928  -14.5754 O   0  0  0  0  0  0  0  0  0  0  0  0
  2  3  1  1
  2  1  1  0
  4  2  1  0
  4  5  1  1
  6  8  1  0
  6  4  1  0
  7  6  2  0
  9  8  1  0
  9 10  1  1
 10 11  1  0
 11 12  2  0
 11 19  1  0
 12 13  1  0
 13 14  1  0
 14 15  2  0
 16 15  1  0
 17 16  2  0
 18 19  2  0
 18 17  1  0
 19 14  1  0
 20 21  2  0
 20  9  1  0
 22 20  1  0
 23 22  1  0
 24 23  1  0
 25 24  1  0
 25 26  1  0
 26 22  1  0
 27 29  1  0
 26 27  1  1
 28 27  2  0
M  END
$$$$
