VWP.pdb
     RDKit          3D

 29 31  0  0  1  0  0  0  0  0999 V2000
   26.7362  -21.1097  -19.0534 C   0  0  0  0  0  0  0  0  0  0  0  0
   27.8554  -22.0883  -18.9294 C   0  0  1  0  0  0  0  0  0  0  0  0
   28.8103  -21.9165  -20.1117 C   0  0  0  0  0  0  0  0  0  0  0  0
   28.6702  -21.9537  -17.6665 C   0  0  2  0  0  0  0  0  0  0  0  0
   29.5874  -23.1051  -17.6537 N   0  0  0  0  0  0  0  0  0  0  0  0
   27.8196  -21.9757  -16.4356 C   0  0  0  0  0  0  0  0  0  0  0  0
   27.2773  -23.0404  -16.1514 O   0  0  0  0  0  0  0  0  0  0  0  0
   27.6745  -20.8166  -15.6714 N   0  0  0  0  0  0  0  0  0  0  0  0
   26.7915  -20.7847  -14.5129 C   0  0  1  0  0  0  0  0  0  0  0  0
   27.1889  -19.6473  -13.5944 C   0  0  0  0  0  0  0  0  0  0  0  0
   27.0731  -19.9872  -12.1746 C   0  0  0  0  0  0  0  0  0  0  0  0
   25.9361  -19.8072  -11.3772 C   0  0  0  0  0  0  0  0  0  0  0  0
   26.2031  -20.2236  -10.1509 N   0  0  0  0  0  0  0  0  0  0  0  0
   27.4751  -20.6872  -10.0530 C   0  0  0  0  0  0  0  0  0  0  0  0
   28.2026  -21.2151   -9.0042 C   0  0  0  0  0  0  0  0  0  0  0  0
   29.5077  -21.6129   -9.1968 C   0  0  0  0  0  0  0  0  0  0  0  0
   30.0563  -21.4717  -10.4434 C   0  0  0  0  0  0  0  0  0  0  0  0
   29.3346  -20.9479  -11.4855 C   0  0  0  0  0  0  0  0  0  0  0  0
   28.0067  -20.5322  -11.3292 C   0  0  0  0  0  0  0  0  0  0  0  0
   25.3908  -20.6178  -14.9077 C   0  0  0  0  0  0  0  0  0  0  0  0
   25.1074  -19.9251  -15.9135 O   0  0  0  0  0  0  0  0  0  0  0  0
   24.3331  -21.2162  -14.1903 N   0  0  0  0  0  0  0  0  0  0  0  0
   24.3923  -21.9930  -12.9813 C   0  0  0  0  0  0  0  0  0  0  0  0
   23.3999  -23.1126  -13.2600 C   0  0  0  0  0  0  0  0  0  0  0  0
   22.4475  -22.5516  -14.2825 C   0  0  0  0  0  0  0  0  0  0  0  0
   22.9055  -21.1488  -14.5392 C   0  0  1  0  0  0  0  0  0  0  0  0
   22.2780  -20.1337  -13.6667 C   0  0  0  0  0  0  0  0  0  0  0  0
   22.8951  -19.7111  -12.6668 O   0  0  0  0  0  0  0  0  0  0  0  0
   21.0134  -19.6140  -13.9034 O   0  0  0  0  0  0  0  0  0  0  0  0
  2  3  1  6
  2  1  1  0
  4  2  1  0
  4  5  1  1
  6  8  1  0
  6  4  1  0
  7  6  2  0
  9  8  1  0
  9 10  1  1
 10 11  1  0
 11 12  2  0
 11 19  1  0
 12 13  1  0
 13 14  1  0
 14 15  2  0
 16 15  1  0
 17 16  2  0
 18 19  2  0
 18 17  1  0
 19 14  1  0
 20 21  2  0
 20  9  1  0
 22 20  1  0
 23 22  1  0
 24 23  1  0
 25 24  1  0
 25 26  1  0
 26 22  1  0
 27 29  1  0
 26 27  1  1
 28 27  2  0
M  END
$$$$
