VWP.pdb
     RDKit          3D

 29 31  0  0  1  0  0  0  0  0999 V2000
   29.7251  -24.1851  -18.3741 C   0  0  0  0  0  0  0  0  0  0  0  0
   28.6929  -23.3883  -17.6495 C   0  0  1  0  0  0  0  0  0  0  0  0
   29.1472  -23.1663  -16.2060 C   0  0  0  0  0  0  0  0  0  0  0  0
   28.4112  -22.0324  -18.2487 C   0  0  2  0  0  0  0  0  0  0  0  0
   29.7218  -21.3805  -18.4053 N   0  0  0  0  0  0  0  0  0  0  0  0
   27.5349  -21.1940  -17.3723 C   0  0  0  0  0  0  0  0  0  0  0  0
   28.0887  -20.5381  -16.4938 O   0  0  0  0  0  0  0  0  0  0  0  0
   26.1540  -21.1850  -17.5764 N   0  0  0  0  0  0  0  0  0  0  0  0
   25.2704  -20.4147  -16.7111 C   0  0  1  0  0  0  0  0  0  0  0  0
   24.3395  -19.5652  -17.5520 C   0  0  0  0  0  0  0  0  0  0  0  0
   23.4129  -18.7621  -16.7512 C   0  0  0  0  0  0  0  0  0  0  0  0
   23.7697  -17.7503  -15.8513 C   0  0  0  0  0  0  0  0  0  0  0  0
   22.6709  -17.2511  -15.3109 N   0  0  0  0  0  0  0  0  0  0  0  0
   21.5608  -17.8671  -15.7914 C   0  0  0  0  0  0  0  0  0  0  0  0
   20.2130  -17.7018  -15.5382 C   0  0  0  0  0  0  0  0  0  0  0  0
   19.2846  -18.4867  -16.1868 C   0  0  0  0  0  0  0  0  0  0  0  0
   19.7313  -19.4241  -17.0794 C   0  0  0  0  0  0  0  0  0  0  0  0
   21.0694  -19.5886  -17.3317 C   0  0  0  0  0  0  0  0  0  0  0  0
   22.0427  -18.8110  -16.6925 C   0  0  0  0  0  0  0  0  0  0  0  0
   24.4748  -21.2848  -15.8419 C   0  0  0  0  0  0  0  0  0  0  0  0
   24.0295  -22.3686  -16.2879 O   0  0  0  0  0  0  0  0  0  0  0  0
   24.1874  -20.9462  -14.5024 N   0  0  0  0  0  0  0  0  0  0  0  0
   24.5643  -19.7658  -13.7721 C   0  0  0  0  0  0  0  0  0  0  0  0
   24.9508  -20.3291  -12.4123 C   0  0  0  0  0  0  0  0  0  0  0  0
   24.1963  -21.6266  -12.2924 C   0  0  0  0  0  0  0  0  0  0  0  0
   23.4027  -21.7544  -13.5562 C   0  0  1  0  0  0  0  0  0  0  0  0
   22.0462  -21.1709  -13.4856 C   0  0  0  0  0  0  0  0  0  0  0  0
   21.8449  -20.0190  -13.9234 O   0  0  0  0  0  0  0  0  0  0  0  0
   20.9612  -21.8482  -12.9473 O   0  0  0  0  0  0  0  0  0  0  0  0
  2  3  1  1
  2  1  1  0
  4  2  1  0
  4  5  1  1
  6  8  1  0
  6  4  1  0
  7  6  2  0
  9  8  1  0
  9 10  1  6
 10 11  1  0
 11 12  2  0
 11 19  1  0
 12 13  1  0
 13 14  1  0
 14 15  2  0
 16 15  1  0
 17 16  2  0
 18 19  2  0
 18 17  1  0
 19 14  1  0
 20 21  2  0
 20  9  1  0
 22 20  1  0
 23 22  1  0
 24 23  1  0
 25 24  1  0
 25 26  1  0
 26 22  1  0
 27 29  1  0
 26 27  1  1
 28 27  2  0
M  END
$$$$
