VWP.pdb
     RDKit          3D

 29 31  0  0  1  0  0  0  0  0999 V2000
   20.2403  -22.7365  -15.2837 C   0  0  0  0  0  0  0  0  0  0  0  0
   21.5075  -22.1294  -14.7828 C   0  0  1  0  0  0  0  0  0  0  0  0
   22.1825  -21.3592  -15.9188 C   0  0  0  0  0  0  0  0  0  0  0  0
   21.3326  -21.1728  -13.6291 C   0  0  2  0  0  0  0  0  0  0  0  0
   20.5054  -20.0686  -14.1426 N   0  0  0  0  0  0  0  0  0  0  0  0
   22.6377  -20.6341  -13.1337 C   0  0  0  0  0  0  0  0  0  0  0  0
   22.9590  -19.5119  -13.5159 O   0  0  0  0  0  0  0  0  0  0  0  0
   23.4260  -21.4039  -12.2766 N   0  0  0  0  0  0  0  0  0  0  0  0
   24.6944  -20.9008  -11.7659 C   0  0  1  0  0  0  0  0  0  0  0  0
   24.9356  -21.4371  -10.3696 C   0  0  0  0  0  0  0  0  0  0  0  0
   25.8552  -20.6091   -9.5863 C   0  0  0  0  0  0  0  0  0  0  0  0
   25.5494  -19.3780   -8.9932 C   0  0  0  0  0  0  0  0  0  0  0  0
   26.6248  -18.9230   -8.3727 N   0  0  0  0  0  0  0  0  0  0  0  0
   27.6698  -19.7793   -8.5040 C   0  0  0  0  0  0  0  0  0  0  0  0
   28.9723  -19.7463   -8.0455 C   0  0  0  0  0  0  0  0  0  0  0  0
   29.8364  -20.7790   -8.3381 C   0  0  0  0  0  0  0  0  0  0  0  0
   29.3722  -21.8268   -9.0875 C   0  0  0  0  0  0  0  0  0  0  0  0
   28.0788  -21.8604   -9.5429 C   0  0  0  0  0  0  0  0  0  0  0  0
   27.1714  -20.8304   -9.2670 C   0  0  0  0  0  0  0  0  0  0  0  0
   25.8134  -21.2855  -12.6293 C   0  0  0  0  0  0  0  0  0  0  0  0
   25.9493  -22.4835  -12.9730 O   0  0  0  0  0  0  0  0  0  0  0  0
   26.7569  -20.3461  -13.0970 N   0  0  0  0  0  0  0  0  0  0  0  0
   26.9899  -19.0018  -12.6417 C   0  0  0  0  0  0  0  0  0  0  0  0
   27.2005  -18.2444  -13.9448 C   0  0  0  0  0  0  0  0  0  0  0  0
   27.6753  -19.2784  -14.9311 C   0  0  0  0  0  0  0  0  0  0  0  0
   27.7372  -20.5677  -14.1714 C   0  0  1  0  0  0  0  0  0  0  0  0
   29.0445  -20.8388  -13.5367 C   0  0  0  0  0  0  0  0  0  0  0  0
   29.2575  -20.4508  -12.3691 O   0  0  0  0  0  0  0  0  0  0  0  0
   30.0701  -21.5151  -14.1820 O   0  0  0  0  0  0  0  0  0  0  0  0
  2  3  1  6
  2  1  1  0
  4  2  1  0
  4  5  1  6
  6  8  1  0
  6  4  1  0
  7  6  2  0
  9  8  1  0
  9 10  1  1
 10 11  1  0
 11 12  2  0
 11 19  1  0
 12 13  1  0
 13 14  1  0
 14 15  2  0
 16 15  1  0
 17 16  2  0
 18 19  2  0
 18 17  1  0
 19 14  1  0
 20 21  2  0
 20  9  1  0
 22 20  1  0
 23 22  1  0
 24 23  1  0
 25 24  1  0
 25 26  1  0
 26 22  1  0
 27 29  1  0
 26 27  1  1
 28 27  2  0
M  END
$$$$
