VWP.pdb
     RDKit          3D

 29 31  0  0  1  0  0  0  0  0999 V2000
   24.3112  -22.8147  -13.4359 C   0  0  0  0  0  0  0  0  0  0  0  0
   23.4871  -21.6183  -13.7747 C   0  0  1  0  0  0  0  0  0  0  0  0
   22.1805  -22.0728  -14.4269 C   0  0  0  0  0  0  0  0  0  0  0  0
   23.1257  -20.7501  -12.5948 C   0  0  2  0  0  0  0  0  0  0  0  0
   22.4101  -19.5903  -13.1515 N   0  0  0  0  0  0  0  0  0  0  0  0
   24.3315  -20.2820  -11.8423 C   0  0  0  0  0  0  0  0  0  0  0  0
   25.0796  -19.4977  -12.4199 O   0  0  0  0  0  0  0  0  0  0  0  0
   24.5601  -20.7399  -10.5436 N   0  0  0  0  0  0  0  0  0  0  0  0
   25.7849  -20.4009   -9.8310 C   0  0  1  0  0  0  0  0  0  0  0  0
   25.5010  -20.2837   -8.3474 C   0  0  0  0  0  0  0  0  0  0  0  0
   26.6086  -19.6905   -7.5949 C   0  0  0  0  0  0  0  0  0  0  0  0
   27.1574  -18.4196   -7.8063 C   0  0  0  0  0  0  0  0  0  0  0  0
   28.1407  -18.2291   -6.9431 N   0  0  0  0  0  0  0  0  0  0  0  0
   28.3057  -19.3084   -6.1366 C   0  0  0  0  0  0  0  0  0  0  0  0
   29.1812  -19.5823   -5.1040 C   0  0  0  0  0  0  0  0  0  0  0  0
   29.1200  -20.7911   -4.4455 C   0  0  0  0  0  0  0  0  0  0  0  0
   28.1770  -21.7025   -4.8395 C   0  0  0  0  0  0  0  0  0  0  0  0
   27.3070  -21.4312   -5.8646 C   0  0  0  0  0  0  0  0  0  0  0  0
   27.3383  -20.2151   -6.5578 C   0  0  0  0  0  0  0  0  0  0  0  0
   26.8280  -21.4072  -10.0435 C   0  0  0  0  0  0  0  0  0  0  0  0
   26.5523  -22.6236   -9.9168 O   0  0  0  0  0  0  0  0  0  0  0  0
   28.1494  -21.0553  -10.3919 N   0  0  0  0  0  0  0  0  0  0  0  0
   28.7530  -19.7504  -10.4286 C   0  0  0  0  0  0  0  0  0  0  0  0
   29.5818  -19.8064  -11.7037 C   0  0  0  0  0  0  0  0  0  0  0  0
   29.8652  -21.2682  -11.9275 C   0  0  0  0  0  0  0  0  0  0  0  0
   29.2168  -21.9882  -10.7853 C   0  0  1  0  0  0  0  0  0  0  0  0
   30.0946  -22.1857   -9.6124 C   0  0  0  0  0  0  0  0  0  0  0  0
   29.9724  -21.4426   -8.6163 O   0  0  0  0  0  0  0  0  0  0  0  0
   31.0682  -23.1729   -9.5570 O   0  0  0  0  0  0  0  0  0  0  0  0
  2  3  1  1
  2  1  1  0
  4  2  1  0
  4  5  1  6
  6  8  1  0
  6  4  1  0
  7  6  2  0
  9  8  1  0
  9 10  1  1
 10 11  1  0
 11 12  2  0
 11 19  1  0
 12 13  1  0
 13 14  1  0
 14 15  2  0
 16 15  1  0
 17 16  2  0
 18 19  2  0
 18 17  1  0
 19 14  1  0
 20 21  2  0
 20  9  1  0
 22 20  1  0
 23 22  1  0
 24 23  1  0
 25 24  1  0
 25 26  1  0
 26 22  1  0
 27 29  1  0
 26 27  1  1
 28 27  2  0
M  END
$$$$
