VWP.pdb
     RDKit          3D

 29 31  0  0  1  0  0  0  0  0999 V2000
   25.2571  -20.6956  -14.7966 C   0  0  0  0  0  0  0  0  0  0  0  0
   25.0440  -21.0129  -13.3546 C   0  0  1  0  0  0  0  0  0  0  0  0
   24.6025  -22.4708  -13.2178 C   0  0  0  0  0  0  0  0  0  0  0  0
   26.2617  -20.8253  -12.4837 C   0  0  2  0  0  0  0  0  0  0  0  0
   27.3072  -21.6858  -13.0614 N   0  0  0  0  0  0  0  0  0  0  0  0
   26.0120  -21.2235  -11.0631 C   0  0  0  0  0  0  0  0  0  0  0  0
   26.1383  -22.4137  -10.7871 O   0  0  0  0  0  0  0  0  0  0  0  0
   25.6535  -20.2554  -10.1235 N   0  0  0  0  0  0  0  0  0  0  0  0
   25.2723  -20.6276   -8.7674 C   0  0  1  0  0  0  0  0  0  0  0  0
   25.4717  -19.4499   -7.8355 C   0  0  0  0  0  0  0  0  0  0  0  0
   26.8418  -19.3424   -7.3294 C   0  0  0  0  0  0  0  0  0  0  0  0
   27.9141  -18.7267   -7.9867 C   0  0  0  0  0  0  0  0  0  0  0  0
   28.9941  -18.8267   -7.2303 N   0  0  0  0  0  0  0  0  0  0  0  0
   28.7271  -19.4843   -6.0731 C   0  0  0  0  0  0  0  0  0  0  0  0
   29.5098  -19.8290   -4.9886 C   0  0  0  0  0  0  0  0  0  0  0  0
   28.9598  -20.5131   -3.9264 C   0  0  0  0  0  0  0  0  0  0  0  0
   27.6304  -20.8373   -3.9762 C   0  0  0  0  0  0  0  0  0  0  0  0
   26.8523  -20.4950   -5.0527 C   0  0  0  0  0  0  0  0  0  0  0  0
   27.3746  -19.8006   -6.1506 C   0  0  0  0  0  0  0  0  0  0  0  0
   23.8753  -21.0631   -8.7008 C   0  0  0  0  0  0  0  0  0  0  0  0
   23.0887  -20.7710   -9.6323 O   0  0  0  0  0  0  0  0  0  0  0  0
   23.3740  -21.8107   -7.6141 N   0  0  0  0  0  0  0  0  0  0  0  0
   24.0475  -22.2037   -6.4055 C   0  0  0  0  0  0  0  0  0  0  0  0
   23.5696  -23.6356   -6.2126 C   0  0  0  0  0  0  0  0  0  0  0  0
   22.2489  -23.7122   -6.9316 C   0  0  0  0  0  0  0  0  0  0  0  0
   22.0081  -22.3426   -7.4881 C   0  0  1  0  0  0  0  0  0  0  0  0
   21.2575  -21.4422   -6.5875 C   0  0  0  0  0  0  0  0  0  0  0  0
   21.8734  -20.6016   -5.8995 O   0  0  0  0  0  0  0  0  0  0  0  0
   19.8761  -21.4814   -6.4620 O   0  0  0  0  0  0  0  0  0  0  0  0
  2  3  1  6
  2  1  1  0
  4  2  1  0
  4  5  1  6
  6  8  1  0
  6  4  1  0
  7  6  2  0
  9  8  1  0
  9 10  1  1
 10 11  1  0
 11 12  2  0
 11 19  1  0
 12 13  1  0
 13 14  1  0
 14 15  2  0
 16 15  1  0
 17 16  2  0
 18 19  2  0
 18 17  1  0
 19 14  1  0
 20 21  2  0
 20  9  1  0
 22 20  1  0
 23 22  1  0
 24 23  1  0
 25 24  1  0
 25 26  1  0
 26 22  1  0
 27 29  1  0
 26 27  1  1
 28 27  2  0
M  END
$$$$
