VWP.pdb
     RDKit          3D

 29 31  0  0  1  0  0  0  0  0999 V2000
   22.3207  -21.5206  -15.3221 C   0  0  0  0  0  0  0  0  0  0  0  0
   21.8191  -20.1345  -15.0930 C   0  0  1  0  0  0  0  0  0  0  0  0
   20.2974  -20.1160  -15.2457 C   0  0  0  0  0  0  0  0  0  0  0  0
   22.1445  -19.5654  -13.7340 C   0  0  2  0  0  0  0  0  0  0  0  0
   21.6218  -18.1892  -13.7373 N   0  0  0  0  0  0  0  0  0  0  0  0
   23.6161  -19.5430  -13.4640 C   0  0  0  0  0  0  0  0  0  0  0  0
   24.2460  -18.5771  -13.8869 O   0  0  0  0  0  0  0  0  0  0  0  0
   24.2086  -20.5922  -12.7593 N   0  0  0  0  0  0  0  0  0  0  0  0
   25.6576  -20.7096  -12.6619 C   0  0  1  0  0  0  0  0  0  0  0  0
   26.0222  -21.6638  -11.5429 C   0  0  0  0  0  0  0  0  0  0  0  0
   25.9578  -21.0463  -10.2165 C   0  0  0  0  0  0  0  0  0  0  0  0
   24.7934  -20.6259   -9.5621 C   0  0  0  0  0  0  0  0  0  0  0  0
   25.1231  -20.1146   -8.3881 N   0  0  0  0  0  0  0  0  0  0  0  0
   26.4653  -20.1577   -8.1903 C   0  0  0  0  0  0  0  0  0  0  0  0
   27.2725  -19.7539   -7.1447 C   0  0  0  0  0  0  0  0  0  0  0  0
   28.6378  -19.9245   -7.2172 C   0  0  0  0  0  0  0  0  0  0  0  0
   29.1655  -20.4994   -8.3424 C   0  0  0  0  0  0  0  0  0  0  0  0
   28.3647  -20.9009   -9.3811 C   0  0  0  0  0  0  0  0  0  0  0  0
   26.9737  -20.7441   -9.3448 C   0  0  0  0  0  0  0  0  0  0  0  0
   26.2446  -21.1903  -13.9149 C   0  0  0  0  0  0  0  0  0  0  0  0
   25.6419  -22.0576  -14.5904 O   0  0  0  0  0  0  0  0  0  0  0  0
   27.4789  -20.7069  -14.3987 N   0  0  0  0  0  0  0  0  0  0  0  0
   28.5357  -20.0538  -13.6739 C   0  0  0  0  0  0  0  0  0  0  0  0
   28.9590  -18.9497  -14.6320 C   0  0  0  0  0  0  0  0  0  0  0  0
   28.5648  -19.4403  -15.9999 C   0  0  0  0  0  0  0  0  0  0  0  0
   27.9556  -20.7921  -15.7879 C   0  0  1  0  0  0  0  0  0  0  0  0
   28.9170  -21.9125  -15.8642 C   0  0  0  0  0  0  0  0  0  0  0  0
   29.3499  -22.2812  -16.9759 O   0  0  0  0  0  0  0  0  0  0  0  0
   29.3739  -22.5916  -14.7437 O   0  0  0  0  0  0  0  0  0  0  0  0
  2  3  1  1
  2  1  1  0
  4  2  1  0
  4  5  1  6
  6  8  1  0
  6  4  1  0
  7  6  2  0
  9  8  1  0
  9 10  1  1
 10 11  1  0
 11 12  2  0
 11 19  1  0
 12 13  1  0
 13 14  1  0
 14 15  2  0
 16 15  1  0
 17 16  2  0
 18 19  2  0
 18 17  1  0
 19 14  1  0
 20 21  2  0
 20  9  1  0
 22 20  1  0
 23 22  1  0
 24 23  1  0
 25 24  1  0
 25 26  1  0
 26 22  1  0
 27 29  1  0
 26 27  1  1
 28 27  2  0
M  END
$$$$
