VWP.pdb
     RDKit          3D

 29 31  0  0  1  0  0  0  0  0999 V2000
   19.4697  -20.7449  -16.3405 C   0  0  0  0  0  0  0  0  0  0  0  0
   20.8270  -20.5009  -15.7715 C   0  0  1  0  0  0  0  0  0  0  0  0
   21.5009  -19.3641  -16.5415 C   0  0  0  0  0  0  0  0  0  0  0  0
   20.8371  -20.1257  -14.3100 C   0  0  2  0  0  0  0  0  0  0  0  0
   19.9966  -18.9223  -14.1967 N   0  0  0  0  0  0  0  0  0  0  0  0
   22.2147  -19.8248  -13.8094 C   0  0  0  0  0  0  0  0  0  0  0  0
   22.6237  -18.6762  -13.9580 O   0  0  0  0  0  0  0  0  0  0  0  0
   22.9695  -20.8323  -13.2062 N   0  0  0  0  0  0  0  0  0  0  0  0
   24.3777  -20.6311  -12.8909 C   0  0  1  0  0  0  0  0  0  0  0  0
   24.8392  -21.6839  -11.9040 C   0  0  0  0  0  0  0  0  0  0  0  0
   26.1621  -21.4043  -11.3414 C   0  0  0  0  0  0  0  0  0  0  0  0
   27.3884  -21.6074  -11.9863 C   0  0  0  0  0  0  0  0  0  0  0  0
   28.3654  -21.2468  -11.1715 N   0  0  0  0  0  0  0  0  0  0  0  0
   27.8793  -20.8003   -9.9853 C   0  0  0  0  0  0  0  0  0  0  0  0
   28.4898  -20.3251   -8.8410 C   0  0  0  0  0  0  0  0  0  0  0  0
   27.7289  -19.9322   -7.7616 C   0  0  0  0  0  0  0  0  0  0  0  0
   26.3659  -20.0248   -7.8549 C   0  0  0  0  0  0  0  0  0  0  0  0
   25.7589  -20.4962   -8.9909 C   0  0  0  0  0  0  0  0  0  0  0  0
   26.4976  -20.9053  -10.1078 C   0  0  0  0  0  0  0  0  0  0  0  0
   25.2135  -20.6979  -14.0920 C   0  0  0  0  0  0  0  0  0  0  0  0
   24.9369  -21.5213  -14.9961 O   0  0  0  0  0  0  0  0  0  0  0  0
   26.3329  -19.8582  -14.2742 N   0  0  0  0  0  0  0  0  0  0  0  0
   26.9724  -18.9920  -13.3206 C   0  0  0  0  0  0  0  0  0  0  0  0
   27.2623  -17.7480  -14.1479 C   0  0  0  0  0  0  0  0  0  0  0  0
   27.3359  -18.2289  -15.5729 C   0  0  0  0  0  0  0  0  0  0  0  0
   27.1075  -19.7081  -15.5158 C   0  0  1  0  0  0  0  0  0  0  0  0
   28.3413  -20.5101  -15.3745 C   0  0  0  0  0  0  0  0  0  0  0  0
   29.1399  -20.5899  -16.3311 O   0  0  0  0  0  0  0  0  0  0  0  0
   28.6669  -21.1941  -14.2119 O   0  0  0  0  0  0  0  0  0  0  0  0
  2  3  1  6
  2  1  1  0
  4  2  1  0
  4  5  1  6
  6  8  1  0
  6  4  1  0
  7  6  2  0
  9  8  1  0
  9 10  1  1
 10 11  1  0
 11 12  2  0
 11 19  1  0
 12 13  1  0
 13 14  1  0
 14 15  2  0
 16 15  1  0
 17 16  2  0
 18 19  2  0
 18 17  1  0
 19 14  1  0
 20 21  2  0
 20  9  1  0
 22 20  1  0
 23 22  1  0
 24 23  1  0
 25 24  1  0
 25 26  1  0
 26 22  1  0
 27 29  1  0
 26 27  1  1
 28 27  2  0
M  END
$$$$
