VWP.pdb
     RDKit          3D

 29 31  0  0  1  0  0  0  0  0999 V2000
   23.6549  -23.6786  -16.6555 C   0  0  0  0  0  0  0  0  0  0  0  0
   24.8697  -24.5141  -16.8833 C   0  0  1  0  0  0  0  0  0  0  0  0
   24.7873  -25.1587  -18.2678 C   0  0  0  0  0  0  0  0  0  0  0  0
   26.1738  -23.7585  -16.8128 C   0  0  2  0  0  0  0  0  0  0  0  0
   27.2344  -24.7722  -16.9351 N   0  0  0  0  0  0  0  0  0  0  0  0
   26.3334  -23.0181  -15.5223 C   0  0  0  0  0  0  0  0  0  0  0  0
   26.6503  -23.6781  -14.5361 O   0  0  0  0  0  0  0  0  0  0  0  0
   26.1227  -21.6388  -15.4828 N   0  0  0  0  0  0  0  0  0  0  0  0
   26.1715  -20.9059  -14.2245 C   0  0  1  0  0  0  0  0  0  0  0  0
   26.3107  -19.4223  -14.4985 C   0  0  0  0  0  0  0  0  0  0  0  0
   27.4893  -19.0942  -15.3035 C   0  0  0  0  0  0  0  0  0  0  0  0
   28.6497  -19.8701  -15.4149 C   0  0  0  0  0  0  0  0  0  0  0  0
   29.4983  -19.2574  -16.2229 N   0  0  0  0  0  0  0  0  0  0  0  0
   28.9852  -18.0878  -16.6828 C   0  0  0  0  0  0  0  0  0  0  0  0
   29.4792  -17.1166  -17.5316 C   0  0  0  0  0  0  0  0  0  0  0  0
   28.7205  -16.0058  -17.8301 C   0  0  0  0  0  0  0  0  0  0  0  0
   27.4770  -15.8939  -17.2678 C   0  0  0  0  0  0  0  0  0  0  0  0
   26.9855  -16.8580  -16.4251 C   0  0  0  0  0  0  0  0  0  0  0  0
   27.7262  -18.0002  -16.0975 C   0  0  0  0  0  0  0  0  0  0  0  0
   24.9692  -21.1361  -13.4200 C   0  0  0  0  0  0  0  0  0  0  0  0
   23.9796  -21.7103  -13.9325 O   0  0  0  0  0  0  0  0  0  0  0  0
   24.8812  -20.7322  -12.0707 N   0  0  0  0  0  0  0  0  0  0  0  0
   25.7926  -19.9158  -11.3147 C   0  0  0  0  0  0  0  0  0  0  0  0
   25.8383  -20.6300   -9.9717 C   0  0  0  0  0  0  0  0  0  0  0  0
   24.5361  -21.3802   -9.8779 C   0  0  0  0  0  0  0  0  0  0  0  0
   23.7922  -21.0637  -11.1388 C   0  0  1  0  0  0  0  0  0  0  0  0
   22.9076  -19.8831  -11.0445 C   0  0  0  0  0  0  0  0  0  0  0  0
   23.3103  -18.7744  -11.4542 O   0  0  0  0  0  0  0  0  0  0  0  0
   21.6269  -19.9410  -10.5136 O   0  0  0  0  0  0  0  0  0  0  0  0
  2  3  1  6
  2  1  1  0
  4  2  1  0
  4  5  1  1
  6  8  1  0
  6  4  1  0
  7  6  2  0
  9  8  1  0
  9 10  1  6
 10 11  1  0
 11 12  2  0
 11 19  1  0
 12 13  1  0
 13 14  1  0
 14 15  2  0
 16 15  1  0
 17 16  2  0
 18 19  2  0
 18 17  1  0
 19 14  1  0
 20 21  2  0
 20  9  1  0
 22 20  1  0
 23 22  1  0
 24 23  1  0
 25 24  1  0
 25 26  1  0
 26 22  1  0
 27 29  1  0
 26 27  1  1
 28 27  2  0
M  END
$$$$
