VWP.pdb
     RDKit          3D

 29 31  0  0  1  0  0  0  0  0999 V2000
   26.3740  -16.5925  -17.7863 C   0  0  0  0  0  0  0  0  0  0  0  0
   27.2215  -17.4672  -18.6477 C   0  0  1  0  0  0  0  0  0  0  0  0
   28.0973  -16.5941  -19.5478 C   0  0  0  0  0  0  0  0  0  0  0  0
   28.1370  -18.3972  -17.8903 C   0  0  2  0  0  0  0  0  0  0  0  0
   28.8240  -19.2062  -18.9104 N   0  0  0  0  0  0  0  0  0  0  0  0
   27.3890  -19.2961  -16.9566 C   0  0  0  0  0  0  0  0  0  0  0  0
   26.5745  -20.0670  -17.4574 O   0  0  0  0  0  0  0  0  0  0  0  0
   27.6350  -19.2307  -15.5841 N   0  0  0  0  0  0  0  0  0  0  0  0
   26.8262  -19.9876  -14.6378 C   0  0  1  0  0  0  0  0  0  0  0  0
   27.5333  -20.0605  -13.2998 C   0  0  0  0  0  0  0  0  0  0  0  0
   26.7901  -20.8270  -12.2974 C   0  0  0  0  0  0  0  0  0  0  0  0
   26.3532  -22.1505  -12.4336 C   0  0  0  0  0  0  0  0  0  0  0  0
   25.7151  -22.5061  -11.3314 N   0  0  0  0  0  0  0  0  0  0  0  0
   25.6852  -21.4921  -10.4294 C   0  0  0  0  0  0  0  0  0  0  0  0
   25.1478  -21.3803   -9.1619 C   0  0  0  0  0  0  0  0  0  0  0  0
   25.2704  -20.2018   -8.4586 C   0  0  0  0  0  0  0  0  0  0  0  0
   25.9329  -19.1569   -9.0453 C   0  0  0  0  0  0  0  0  0  0  0  0
   26.4671  -19.2672  -10.3038 C   0  0  0  0  0  0  0  0  0  0  0  0
   26.3627  -20.4475  -11.0498 C   0  0  0  0  0  0  0  0  0  0  0  0
   25.5057  -19.3814  -14.4520 C   0  0  0  0  0  0  0  0  0  0  0  0
   25.4095  -18.1433  -14.2795 O   0  0  0  0  0  0  0  0  0  0  0  0
   24.3208  -20.1476  -14.4615 N   0  0  0  0  0  0  0  0  0  0  0  0
   24.1707  -21.5706  -14.6075 C   0  0  0  0  0  0  0  0  0  0  0  0
   22.9676  -21.6819  -15.5327 C   0  0  0  0  0  0  0  0  0  0  0  0
   22.1934  -20.4064  -15.3302 C   0  0  0  0  0  0  0  0  0  0  0  0
   22.9540  -19.6273  -14.3017 C   0  0  1  0  0  0  0  0  0  0  0  0
   22.5353  -19.8871  -12.9079 C   0  0  0  0  0  0  0  0  0  0  0  0
   23.0949  -20.7906  -12.2523 O   0  0  0  0  0  0  0  0  0  0  0  0
   21.5325  -19.1665  -12.2751 O   0  0  0  0  0  0  0  0  0  0  0  0
  2  3  1  6
  2  1  1  0
  4  2  1  0
  4  5  1  6
  6  8  1  0
  6  4  1  0
  7  6  2  0
  9  8  1  0
  9 10  1  1
 10 11  1  0
 11 12  2  0
 11 19  1  0
 12 13  1  0
 13 14  1  0
 14 15  2  0
 16 15  1  0
 17 16  2  0
 18 19  2  0
 18 17  1  0
 19 14  1  0
 20 21  2  0
 20  9  1  0
 22 20  1  0
 23 22  1  0
 24 23  1  0
 25 24  1  0
 25 26  1  0
 26 22  1  0
 27 29  1  0
 26 27  1  1
 28 27  2  0
M  END
$$$$
