DEF.pdb
     RDKit          3D

 29 29  0  0  1  0  0  0  0  0999 V2000
   19.4567  -21.5522  -13.5417 N   0  0  0  0  0  0  0  0  0  0  0  0
   20.4802  -20.5360  -13.3866 C   0  0  1  0  0  0  0  0  0  0  0  0
   20.0485  -19.6182  -12.2780 C   0  0  0  0  0  0  0  0  0  0  0  0
   19.1265  -18.5986  -12.8853 C   0  0  0  0  0  0  0  0  0  0  0  0
   19.0797  -18.4124  -14.1420 O   0  0  0  0  0  0  0  0  0  0  0  0
   21.8088  -21.1334  -13.1663 C   0  0  0  0  0  0  0  0  0  0  0  0
   21.9089  -22.1153  -12.3701 O   0  0  0  0  0  0  0  0  0  0  0  0
   18.2836  -17.8119  -12.1147 O   0  0  0  0  0  0  0  0  0  0  0  0
   22.9959  -20.6886  -13.7838 N   0  0  0  0  0  0  0  0  0  0  0  0
   24.3112  -21.2649  -13.5602 C   0  0  1  0  0  0  0  0  0  0  0  0
   25.1996  -21.1515  -14.7521 C   0  0  0  0  0  0  0  0  0  0  0  0
   26.5538  -21.7400  -14.6324 C   0  0  0  0  0  0  0  0  0  0  0  0
   27.3389  -21.6063  -15.8712 C   0  0  0  0  0  0  0  0  0  0  0  0
   26.9158  -21.0856  -16.9067 O   0  0  0  0  0  0  0  0  0  0  0  0
   24.9648  -20.6555  -12.3677 C   0  0  0  0  0  0  0  0  0  0  0  0
   24.7440  -19.4495  -12.1227 O   0  0  0  0  0  0  0  0  0  0  0  0
   28.6603  -22.0981  -15.8971 O   0  0  0  0  0  0  0  0  0  0  0  0
   25.8207  -21.3701  -11.5000 N   0  0  0  0  0  0  0  0  0  0  0  0
   26.6161  -20.7334  -10.4832 C   0  0  1  0  0  0  0  0  0  0  0  0
   26.4361  -21.3506   -9.1185 C   0  0  0  0  0  0  0  0  0  0  0  0
   27.0989  -20.5575   -8.0555 C   0  0  0  0  0  0  0  0  0  0  0  0
   26.5403  -19.4411   -7.4720 C   0  0  0  0  0  0  0  0  0  0  0  0
   27.1719  -18.7167   -6.4858 C   0  0  0  0  0  0  0  0  0  0  0  0
   28.4198  -19.1060   -6.0458 C   0  0  0  0  0  0  0  0  0  0  0  0
   28.9924  -20.2214   -6.6198 C   0  0  0  0  0  0  0  0  0  0  0  0
   28.3497  -20.9360   -7.6046 C   0  0  0  0  0  0  0  0  0  0  0  0
   28.0741  -20.7718  -10.8330 C   0  0  0  0  0  0  0  0  0  0  0  0
   28.7543  -19.7229  -10.9179 O   0  0  0  0  0  0  0  0  0  0  0  0
   28.7334  -21.9664  -11.0775 O   0  0  0  0  0  0  0  0  0  0  0  0
  2  3  1  0
  2  1  1  1
  3  4  1  0
  4  5  2  0
  4  8  1  0
  6  2  1  0
  7  6  2  0
  9  6  1  0
 10  9  1  0
 10 11  1  6
 12 11  1  0
 13 12  1  0
 13 14  2  0
 15 18  1  0
 15 10  1  0
 16 15  2  0
 17 13  1  0
 19 18  1  0
 19 20  1  1
 21 26  2  0
 21 20  1  0
 22 21  1  0
 23 24  1  0
 23 22  2  0
 24 25  2  0
 25 26  1  0
 27 19  1  0
 28 27  2  0
 29 27  1  0
M  END
$$$$
