DEF.pdb
     RDKit          3D

 29 29  0  0  1  0  0  0  0  0999 V2000
   27.2478  -20.6052  -15.0967 N   0  0  0  0  0  0  0  0  0  0  0  0
   27.6954  -19.4586  -14.3291 C   0  0  1  0  0  0  0  0  0  0  0  0
   27.5174  -18.2373  -15.1860 C   0  0  0  0  0  0  0  0  0  0  0  0
   27.9877  -18.5970  -16.5672 C   0  0  0  0  0  0  0  0  0  0  0  0
   27.2142  -18.5163  -17.5728 O   0  0  0  0  0  0  0  0  0  0  0  0
   27.0009  -19.3690  -13.0328 C   0  0  0  0  0  0  0  0  0  0  0  0
   27.1419  -18.3165  -12.3396 O   0  0  0  0  0  0  0  0  0  0  0  0
   29.2802  -19.0328  -16.8182 O   0  0  0  0  0  0  0  0  0  0  0  0
   26.1784  -20.3810  -12.4967 N   0  0  0  0  0  0  0  0  0  0  0  0
   25.4346  -20.2708  -11.2530 C   0  0  1  0  0  0  0  0  0  0  0  0
   24.0219  -20.7286  -11.3844 C   0  0  0  0  0  0  0  0  0  0  0  0
   23.1598  -19.9702  -12.3203 C   0  0  0  0  0  0  0  0  0  0  0  0
   21.7817  -20.4878  -12.3638 C   0  0  0  0  0  0  0  0  0  0  0  0
   20.9518  -20.3249  -11.4655 O   0  0  0  0  0  0  0  0  0  0  0  0
   26.1185  -21.0110  -10.1552 C   0  0  0  0  0  0  0  0  0  0  0  0
   26.7168  -22.0715  -10.4388 O   0  0  0  0  0  0  0  0  0  0  0  0
   21.3636  -21.2188  -13.4950 O   0  0  0  0  0  0  0  0  0  0  0  0
   26.1255  -20.5761   -8.8109 N   0  0  0  0  0  0  0  0  0  0  0  0
   26.7929  -21.2951   -7.7576 C   0  0  1  0  0  0  0  0  0  0  0  0
   28.2089  -20.8284   -7.5278 C   0  0  0  0  0  0  0  0  0  0  0  0
   28.3667  -20.1469   -6.2206 C   0  0  0  0  0  0  0  0  0  0  0  0
   28.0167  -18.8334   -5.9945 C   0  0  0  0  0  0  0  0  0  0  0  0
   28.1715  -18.2173   -4.7728 C   0  0  0  0  0  0  0  0  0  0  0  0
   28.6982  -18.9255   -3.7128 C   0  0  0  0  0  0  0  0  0  0  0  0
   29.0534  -20.2412   -3.9229 C   0  0  0  0  0  0  0  0  0  0  0  0
   28.8932  -20.8443   -5.1493 C   0  0  0  0  0  0  0  0  0  0  0  0
   26.0406  -21.1836   -6.4647 C   0  0  0  0  0  0  0  0  0  0  0  0
   25.1019  -20.3659   -6.3225 O   0  0  0  0  0  0  0  0  0  0  0  0
   26.3491  -21.9781   -5.3716 O   0  0  0  0  0  0  0  0  0  0  0  0
  2  3  1  0
  2  1  1  6
  3  4  1  0
  4  5  2  0
  4  8  1  0
  6  2  1  0
  7  6  2  0
  9  6  1  0
 10  9  1  0
 10 11  1  6
 12 11  1  0
 13 12  1  0
 13 14  2  0
 15 18  1  0
 15 10  1  0
 16 15  2  0
 17 13  1  0
 19 18  1  0
 19 20  1  1
 21 26  2  0
 21 20  1  0
 22 21  1  0
 23 24  1  0
 23 22  2  0
 24 25  2  0
 25 26  1  0
 27 19  1  0
 28 27  2  0
 29 27  1  0
M  END
$$$$
