DEF.pdb
     RDKit          3D

 29 29  0  0  1  0  0  0  0  0999 V2000
   17.5183  -12.3238  -14.9282 N   0  0  0  0  0  0  0  0  0  0  0  0
   18.0712  -11.4334  -15.9310 C   0  0  1  0  0  0  0  0  0  0  0  0
   16.9613  -10.5426  -16.4131 C   0  0  0  0  0  0  0  0  0  0  0  0
   15.9563  -11.4246  -17.0989 C   0  0  0  0  0  0  0  0  0  0  0  0
   14.7250  -11.3961  -16.7836 O   0  0  0  0  0  0  0  0  0  0  0  0
   19.2340  -10.6903  -15.4149 C   0  0  0  0  0  0  0  0  0  0  0  0
   19.1274  -10.0921  -14.3019 O   0  0  0  0  0  0  0  0  0  0  0  0
   16.3138  -12.3102  -18.1044 O   0  0  0  0  0  0  0  0  0  0  0  0
   20.4759  -10.5928  -16.0756 N   0  0  0  0  0  0  0  0  0  0  0  0
   21.6361   -9.8876  -15.5571 C   0  0  1  0  0  0  0  0  0  0  0  0
   22.9239  -10.4816  -16.0171 C   0  0  0  0  0  0  0  0  0  0  0  0
   23.3122  -11.7785  -15.4158 C   0  0  0  0  0  0  0  0  0  0  0  0
   24.5625  -12.3117  -15.9826 C   0  0  0  0  0  0  0  0  0  0  0  0
   25.6854  -12.0728  -15.5304 O   0  0  0  0  0  0  0  0  0  0  0  0
   21.5801   -8.4399  -15.9057 C   0  0  0  0  0  0  0  0  0  0  0  0
   21.2169   -8.1219  -17.0591 O   0  0  0  0  0  0  0  0  0  0  0  0
   24.4946  -13.1505  -17.1142 O   0  0  0  0  0  0  0  0  0  0  0  0
   21.9161   -7.4086  -15.0004 N   0  0  0  0  0  0  0  0  0  0  0  0
   21.7859   -6.0112  -15.3201 C   0  0  1  0  0  0  0  0  0  0  0  0
   20.3509   -5.5668  -15.4574 C   0  0  0  0  0  0  0  0  0  0  0  0
   20.2430   -4.1391  -15.8422 C   0  0  0  0  0  0  0  0  0  0  0  0
   19.8267   -3.1441  -14.9846 C   0  0  0  0  0  0  0  0  0  0  0  0
   19.7323   -1.8228  -15.3608 C   0  0  0  0  0  0  0  0  0  0  0  0
   20.0637   -1.4541  -16.6479 C   0  0  0  0  0  0  0  0  0  0  0  0
   20.4823   -2.4382  -17.5184 C   0  0  0  0  0  0  0  0  0  0  0  0
   20.5719   -3.7550  -17.1288 C   0  0  0  0  0  0  0  0  0  0  0  0
   22.4511   -5.1543  -14.2842 C   0  0  0  0  0  0  0  0  0  0  0  0
   22.3948   -5.4391  -13.0653 O   0  0  0  0  0  0  0  0  0  0  0  0
   23.1566   -4.0116  -14.6276 O   0  0  0  0  0  0  0  0  0  0  0  0
  2  3  1  0
  2  1  1  1
  3  4  1  0
  4  5  2  0
  4  8  1  0
  6  2  1  0
  7  6  2  0
  9  6  1  0
 10  9  1  0
 10 11  1  6
 12 11  1  0
 13 12  1  0
 13 14  2  0
 15 18  1  0
 15 10  1  0
 16 15  2  0
 17 13  1  0
 19 18  1  0
 19 20  1  1
 21 26  2  0
 21 20  1  0
 22 21  1  0
 23 24  1  0
 23 22  2  0
 24 25  2  0
 25 26  1  0
 27 19  1  0
 28 27  2  0
 29 27  1  0
M  END
$$$$
