DEF.pdb
     RDKit          3D

 29 29  0  0  1  0  0  0  0  0999 V2000
   16.2139  -13.4478  -18.3181 N   0  0  0  0  0  0  0  0  0  0  0  0
   17.5031  -13.4147  -17.6541 C   0  0  1  0  0  0  0  0  0  0  0  0
   18.4211  -14.3479  -18.3918 C   0  0  0  0  0  0  0  0  0  0  0  0
   17.8814  -15.7373  -18.2010 C   0  0  0  0  0  0  0  0  0  0  0  0
   16.8538  -15.9569  -17.4854 O   0  0  0  0  0  0  0  0  0  0  0  0
   18.0256  -12.0409  -17.5521 C   0  0  0  0  0  0  0  0  0  0  0  0
   19.1971  -11.8687  -17.0982 O   0  0  0  0  0  0  0  0  0  0  0  0
   18.4698  -16.8465  -18.7899 O   0  0  0  0  0  0  0  0  0  0  0  0
   17.3100  -10.8852  -17.9270 N   0  0  0  0  0  0  0  0  0  0  0  0
   17.8204   -9.5279  -17.8297 C   0  0  1  0  0  0  0  0  0  0  0  0
   16.8091   -8.5034  -18.2177 C   0  0  0  0  0  0  0  0  0  0  0  0
   17.2595   -7.0922  -18.2265 C   0  0  0  0  0  0  0  0  0  0  0  0
   16.2515   -6.1816  -18.7953 C   0  0  0  0  0  0  0  0  0  0  0  0
   15.1521   -6.5445  -19.2218 O   0  0  0  0  0  0  0  0  0  0  0  0
   18.3396   -9.2501  -16.4608 C   0  0  0  0  0  0  0  0  0  0  0  0
   17.6698   -9.6452  -15.4817 O   0  0  0  0  0  0  0  0  0  0  0  0
   16.5410   -4.8032  -18.8665 O   0  0  0  0  0  0  0  0  0  0  0  0
   19.5492   -8.5636  -16.2125 N   0  0  0  0  0  0  0  0  0  0  0  0
   20.0316   -8.2793  -14.8865 C   0  0  1  0  0  0  0  0  0  0  0  0
   21.5323   -8.3785  -14.7689 C   0  0  0  0  0  0  0  0  0  0  0  0
   21.9930   -8.2355  -13.3670 C   0  0  0  0  0  0  0  0  0  0  0  0
   22.1601   -9.2965  -12.5037 C   0  0  0  0  0  0  0  0  0  0  0  0
   22.5885   -9.1436  -11.2040 C   0  0  0  0  0  0  0  0  0  0  0  0
   22.8693   -7.8823  -10.7217 C   0  0  0  0  0  0  0  0  0  0  0  0
   22.7072   -6.8100  -11.5733 C   0  0  0  0  0  0  0  0  0  0  0  0
   22.2781   -6.9774  -12.8700 C   0  0  0  0  0  0  0  0  0  0  0  0
   19.6098   -6.9114  -14.4385 C   0  0  0  0  0  0  0  0  0  0  0  0
   19.6025   -5.9379  -15.2273 O   0  0  0  0  0  0  0  0  0  0  0  0
   19.2097   -6.6630  -13.1347 O   0  0  0  0  0  0  0  0  0  0  0  0
  2  3  1  0
  2  1  1  6
  3  4  1  0
  4  5  2  0
  4  8  1  0
  6  2  1  0
  7  6  2  0
  9  6  1  0
 10  9  1  0
 10 11  1  1
 12 11  1  0
 13 12  1  0
 13 14  2  0
 15 18  1  0
 15 10  1  0
 16 15  2  0
 17 13  1  0
 19 18  1  0
 19 20  1  6
 21 26  2  0
 21 20  1  0
 22 21  1  0
 23 24  1  0
 23 22  2  0
 24 25  2  0
 25 26  1  0
 27 19  1  0
 28 27  2  0
 29 27  1  0
M  END
$$$$
