DEF.pdb
     RDKit          3D

 29 29  0  0  1  0  0  0  0  0999 V2000
   27.2265  -22.1655  -16.2000 N   0  0  0  0  0  0  0  0  0  0  0  0
   27.8792  -20.9502  -15.7515 C   0  0  1  0  0  0  0  0  0  0  0  0
   28.0002  -20.0328  -16.9353 C   0  0  0  0  0  0  0  0  0  0  0  0
   28.8708  -20.7285  -17.9434 C   0  0  0  0  0  0  0  0  0  0  0  0
   28.3707  -21.3934  -18.9047 O   0  0  0  0  0  0  0  0  0  0  0  0
   27.1704  -20.3426  -14.6118 C   0  0  0  0  0  0  0  0  0  0  0  0
   27.5476  -19.2046  -14.1986 O   0  0  0  0  0  0  0  0  0  0  0  0
   30.2555  -20.6836  -17.8809 O   0  0  0  0  0  0  0  0  0  0  0  0
   26.0873  -20.9406  -13.9353 N   0  0  0  0  0  0  0  0  0  0  0  0
   25.2757  -20.2806  -12.9263 C   0  0  1  0  0  0  0  0  0  0  0  0
   23.8363  -20.2011  -13.3068 C   0  0  0  0  0  0  0  0  0  0  0  0
   23.5346  -20.0801  -14.7520 C   0  0  0  0  0  0  0  0  0  0  0  0
   22.0880  -20.0687  -15.0277 C   0  0  0  0  0  0  0  0  0  0  0  0
   21.4888  -19.1223  -15.5451 O   0  0  0  0  0  0  0  0  0  0  0  0
   25.4248  -20.9474  -11.6020 C   0  0  0  0  0  0  0  0  0  0  0  0
   25.5814  -22.1876  -11.5774 O   0  0  0  0  0  0  0  0  0  0  0  0
   21.3201  -21.2012  -14.6863 O   0  0  0  0  0  0  0  0  0  0  0  0
   25.3983  -20.2504  -10.3733 N   0  0  0  0  0  0  0  0  0  0  0  0
   25.3026  -20.9118   -9.0984 C   0  0  1  0  0  0  0  0  0  0  0  0
   25.8207  -20.0734   -7.9564 C   0  0  0  0  0  0  0  0  0  0  0  0
   27.3018  -20.0082   -7.9390 C   0  0  0  0  0  0  0  0  0  0  0  0
   28.0161  -18.9623   -7.3962 C   0  0  0  0  0  0  0  0  0  0  0  0
   29.3925  -18.9194   -7.3900 C   0  0  0  0  0  0  0  0  0  0  0  0
   30.1103  -19.9576   -7.9460 C   0  0  0  0  0  0  0  0  0  0  0  0
   29.4102  -21.0119   -8.4933 C   0  0  0  0  0  0  0  0  0  0  0  0
   28.0344  -21.0417   -8.4926 C   0  0  0  0  0  0  0  0  0  0  0  0
   23.8863  -21.3025   -8.7960 C   0  0  0  0  0  0  0  0  0  0  0  0
   22.9274  -20.8592   -9.4696 O   0  0  0  0  0  0  0  0  0  0  0  0
   23.5752  -22.1696   -7.7603 O   0  0  0  0  0  0  0  0  0  0  0  0
  2  3  1  0
  2  1  1  6
  3  4  1  0
  4  5  2  0
  4  8  1  0
  6  2  1  0
  7  6  2  0
  9  6  1  0
 10  9  1  0
 10 11  1  6
 12 11  1  0
 13 12  1  0
 13 14  2  0
 15 18  1  0
 15 10  1  0
 16 15  2  0
 17 13  1  0
 19 18  1  0
 19 20  1  1
 21 26  2  0
 21 20  1  0
 22 21  1  0
 23 24  1  0
 23 22  2  0
 24 25  2  0
 25 26  1  0
 27 19  1  0
 28 27  2  0
 29 27  1  0
M  END
$$$$
