DEF.pdb
     RDKit          3D

 29 29  0  0  1  0  0  0  0  0999 V2000
   27.0701  -20.0331  -16.2467 N   0  0  0  0  0  0  0  0  0  0  0  0
   27.8220  -19.8413  -15.0212 C   0  0  1  0  0  0  0  0  0  0  0  0
   28.7379  -18.6679  -15.2259 C   0  0  0  0  0  0  0  0  0  0  0  0
   28.1803  -17.8694  -16.3704 C   0  0  0  0  0  0  0  0  0  0  0  0
   28.8283  -16.9027  -16.8820 O   0  0  0  0  0  0  0  0  0  0  0  0
   26.9321  -19.6914  -13.8566 C   0  0  0  0  0  0  0  0  0  0  0  0
   26.5311  -18.5298  -13.5440 O   0  0  0  0  0  0  0  0  0  0  0  0
   26.9391  -18.1411  -16.9262 O   0  0  0  0  0  0  0  0  0  0  0  0
   26.4860  -20.7591  -13.0507 N   0  0  0  0  0  0  0  0  0  0  0  0
   25.5967  -20.6193  -11.9098 C   0  0  1  0  0  0  0  0  0  0  0  0
   24.3780  -21.4707  -12.0220 C   0  0  0  0  0  0  0  0  0  0  0  0
   23.3660  -21.3308  -10.9493 C   0  0  0  0  0  0  0  0  0  0  0  0
   22.1548  -20.6272  -11.4042 C   0  0  0  0  0  0  0  0  0  0  0  0
   21.7359  -20.6485  -12.5646 O   0  0  0  0  0  0  0  0  0  0  0  0
   26.3141  -20.9080  -10.6359 C   0  0  0  0  0  0  0  0  0  0  0  0
   27.0351  -21.9279  -10.5800 O   0  0  0  0  0  0  0  0  0  0  0  0
   21.4119  -19.8756  -10.4705 O   0  0  0  0  0  0  0  0  0  0  0  0
   26.2214  -20.0887   -9.4885 N   0  0  0  0  0  0  0  0  0  0  0  0
   26.8609  -20.4122   -8.2402 C   0  0  1  0  0  0  0  0  0  0  0  0
   27.4984  -19.2177   -7.5751 C   0  0  0  0  0  0  0  0  0  0  0  0
   28.1422  -19.5733   -6.2878 C   0  0  0  0  0  0  0  0  0  0  0  0
   29.0981  -20.5570   -6.1555 C   0  0  0  0  0  0  0  0  0  0  0  0
   29.6846  -20.8736   -4.9505 C   0  0  0  0  0  0  0  0  0  0  0  0
   29.3154  -20.1896   -3.8110 C   0  0  0  0  0  0  0  0  0  0  0  0
   28.3600  -19.2021   -3.9267 C   0  0  0  0  0  0  0  0  0  0  0  0
   27.7822  -18.8962   -5.1375 C   0  0  0  0  0  0  0  0  0  0  0  0
   25.8895  -21.0291   -7.2780 C   0  0  0  0  0  0  0  0  0  0  0  0
   24.6571  -20.8232   -7.3705 O   0  0  0  0  0  0  0  0  0  0  0  0
   26.3104  -21.8528   -6.2457 O   0  0  0  0  0  0  0  0  0  0  0  0
  2  3  1  0
  2  1  1  6
  3  4  1  0
  4  5  2  0
  4  8  1  0
  6  2  1  0
  7  6  2  0
  9  6  1  0
 10  9  1  0
 10 11  1  6
 12 11  1  0
 13 12  1  0
 13 14  2  0
 15 18  1  0
 15 10  1  0
 16 15  2  0
 17 13  1  0
 19 18  1  0
 19 20  1  1
 21 26  2  0
 21 20  1  0
 22 21  1  0
 23 24  1  0
 23 22  2  0
 24 25  2  0
 25 26  1  0
 27 19  1  0
 28 27  2  0
 29 27  1  0
M  END
$$$$
