DEF.pdb
     RDKit          3D

 29 29  0  0  1  0  0  0  0  0999 V2000
   28.0457  -18.4112  -15.5639 N   0  0  0  0  0  0  0  0  0  0  0  0
   27.3414  -17.6200  -14.5729 C   0  0  1  0  0  0  0  0  0  0  0  0
   26.4374  -16.6694  -15.3055 C   0  0  0  0  0  0  0  0  0  0  0  0
   27.2585  -16.0282  -16.3885 C   0  0  0  0  0  0  0  0  0  0  0  0
   28.2341  -16.6379  -16.9295 O   0  0  0  0  0  0  0  0  0  0  0  0
   26.6307  -18.4721  -13.6036 C   0  0  0  0  0  0  0  0  0  0  0  0
   25.8489  -17.9223  -12.7703 O   0  0  0  0  0  0  0  0  0  0  0  0
   26.9992  -14.7475  -16.8531 O   0  0  0  0  0  0  0  0  0  0  0  0
   26.7564  -19.8747  -13.5317 N   0  0  0  0  0  0  0  0  0  0  0  0
   26.0126  -20.7265  -12.6189 C   0  0  1  0  0  0  0  0  0  0  0  0
   25.8115  -22.1043  -13.1519 C   0  0  0  0  0  0  0  0  0  0  0  0
   25.0987  -23.0611  -12.2741 C   0  0  0  0  0  0  0  0  0  0  0  0
   24.8117  -24.3390  -12.9475 C   0  0  0  0  0  0  0  0  0  0  0  0
   24.2060  -25.2776  -12.4234 O   0  0  0  0  0  0  0  0  0  0  0  0
   26.6704  -20.7794  -11.2829 C   0  0  0  0  0  0  0  0  0  0  0  0
   27.8533  -21.1797  -11.2204 O   0  0  0  0  0  0  0  0  0  0  0  0
   25.2481  -24.5226  -14.2759 O   0  0  0  0  0  0  0  0  0  0  0  0
   26.0266  -20.4006  -10.0836 N   0  0  0  0  0  0  0  0  0  0  0  0
   26.6242  -20.5704   -8.7852 C   0  0  1  0  0  0  0  0  0  0  0  0
   27.2554  -19.3072   -8.2547 C   0  0  0  0  0  0  0  0  0  0  0  0
   27.8306  -19.4964   -6.9014 C   0  0  0  0  0  0  0  0  0  0  0  0
   28.7768  -20.4513   -6.5980 C   0  0  0  0  0  0  0  0  0  0  0  0
   29.2990  -20.6123   -5.3341 C   0  0  0  0  0  0  0  0  0  0  0  0
   28.8719  -19.7936   -4.3095 C   0  0  0  0  0  0  0  0  0  0  0  0
   27.9254  -18.8330   -4.5969 C   0  0  0  0  0  0  0  0  0  0  0  0
   27.4120  -18.6831   -5.8648 C   0  0  0  0  0  0  0  0  0  0  0  0
   25.6170  -21.0542   -7.7846 C   0  0  0  0  0  0  0  0  0  0  0  0
   24.3897  -20.8604   -7.9456 O   0  0  0  0  0  0  0  0  0  0  0  0
   25.9976  -21.7360   -6.6393 O   0  0  0  0  0  0  0  0  0  0  0  0
  2  3  1  0
  2  1  1  6
  3  4  1  0
  4  5  2  0
  4  8  1  0
  6  2  1  0
  7  6  2  0
  9  6  1  0
 10  9  1  0
 10 11  1  6
 12 11  1  0
 13 12  1  0
 13 14  2  0
 15 18  1  0
 15 10  1  0
 16 15  2  0
 17 13  1  0
 19 18  1  0
 19 20  1  1
 21 26  2  0
 21 20  1  0
 22 21  1  0
 23 24  1  0
 23 22  2  0
 24 25  2  0
 25 26  1  0
 27 19  1  0
 28 27  2  0
 29 27  1  0
M  END
$$$$
