DEF.pdb
     RDKit          3D

 29 29  0  0  1  0  0  0  0  0999 V2000
   23.6708  -13.1866  -20.1222 N   0  0  0  0  0  0  0  0  0  0  0  0
   22.6318  -12.7251  -19.2213 C   0  0  1  0  0  0  0  0  0  0  0  0
   22.8081  -13.4442  -17.9138 C   0  0  0  0  0  0  0  0  0  0  0  0
   22.3728  -14.8659  -18.1318 C   0  0  0  0  0  0  0  0  0  0  0  0
   21.4557  -15.1585  -18.9623 O   0  0  0  0  0  0  0  0  0  0  0  0
   22.6425  -11.2580  -19.0870 C   0  0  0  0  0  0  0  0  0  0  0  0
   23.7557  -10.6522  -19.1287 O   0  0  0  0  0  0  0  0  0  0  0  0
   22.9428  -15.9274  -17.4451 O   0  0  0  0  0  0  0  0  0  0  0  0
   21.4900  -10.4643  -18.9128 N   0  0  0  0  0  0  0  0  0  0  0  0
   21.4954   -9.0186  -18.7648 C   0  0  1  0  0  0  0  0  0  0  0  0
   20.2065   -8.3928  -19.1771 C   0  0  0  0  0  0  0  0  0  0  0  0
   19.0040   -8.7680  -18.3976 C   0  0  0  0  0  0  0  0  0  0  0  0
   17.9587   -7.7314  -18.4385 C   0  0  0  0  0  0  0  0  0  0  0  0
   17.3928   -7.3586  -19.4695 O   0  0  0  0  0  0  0  0  0  0  0  0
   21.8377   -8.6266  -17.3684 C   0  0  0  0  0  0  0  0  0  0  0  0
   21.4735   -9.3765  -16.4365 O   0  0  0  0  0  0  0  0  0  0  0  0
   17.5647   -7.1128  -17.2340 O   0  0  0  0  0  0  0  0  0  0  0  0
   22.5522   -7.4519  -17.0435 N   0  0  0  0  0  0  0  0  0  0  0  0
   22.9814   -7.1398  -15.7055 C   0  0  1  0  0  0  0  0  0  0  0  0
   24.4642   -6.8812  -15.6050 C   0  0  0  0  0  0  0  0  0  0  0  0
   25.2654   -8.0397  -16.0676 C   0  0  0  0  0  0  0  0  0  0  0  0
   25.4551   -9.1851  -15.3254 C   0  0  0  0  0  0  0  0  0  0  0  0
   26.2037  -10.2511  -15.7722 C   0  0  0  0  0  0  0  0  0  0  0  0
   26.8002  -10.1934  -17.0145 C   0  0  0  0  0  0  0  0  0  0  0  0
   26.6199   -9.0538  -17.7696 C   0  0  0  0  0  0  0  0  0  0  0  0
   25.8691   -7.9959  -17.3106 C   0  0  0  0  0  0  0  0  0  0  0  0
   22.2534   -5.9434  -15.1684 C   0  0  0  0  0  0  0  0  0  0  0  0
   22.4332   -5.5403  -13.9958 O   0  0  0  0  0  0  0  0  0  0  0  0
   21.3511   -5.2314  -15.9432 O   0  0  0  0  0  0  0  0  0  0  0  0
  2  3  1  0
  2  1  1  6
  3  4  1  0
  4  5  2  0
  4  8  1  0
  6  2  1  0
  7  6  2  0
  9  6  1  0
 10  9  1  0
 10 11  1  1
 12 11  1  0
 13 12  1  0
 13 14  2  0
 15 18  1  0
 15 10  1  0
 16 15  2  0
 17 13  1  0
 19 18  1  0
 19 20  1  6
 21 26  2  0
 21 20  1  0
 22 21  1  0
 23 24  1  0
 23 22  2  0
 24 25  2  0
 25 26  1  0
 27 19  1  0
 28 27  2  0
 29 27  1  0
M  END
$$$$
