DEF.pdb
     RDKit          3D

 29 29  0  0  1  0  0  0  0  0999 V2000
   17.0253  -11.4474  -18.1004 N   0  0  0  0  0  0  0  0  0  0  0  0
   18.2093  -11.3849  -18.9361 C   0  0  1  0  0  0  0  0  0  0  0  0
   17.7758  -11.5949  -20.3593 C   0  0  0  0  0  0  0  0  0  0  0  0
   17.3174  -13.0215  -20.4732 C   0  0  0  0  0  0  0  0  0  0  0  0
   16.2019  -13.3996  -19.9946 O   0  0  0  0  0  0  0  0  0  0  0  0
   18.9522  -10.1292  -18.7311 C   0  0  0  0  0  0  0  0  0  0  0  0
   20.0203   -9.9411  -19.3883 O   0  0  0  0  0  0  0  0  0  0  0  0
   18.0794  -13.9953  -21.1012 O   0  0  0  0  0  0  0  0  0  0  0  0
   18.5590   -9.1050  -17.8454 N   0  0  0  0  0  0  0  0  0  0  0  0
   19.3196   -7.8927  -17.5919 C   0  0  1  0  0  0  0  0  0  0  0  0
   18.5170   -6.8434  -16.9010 C   0  0  0  0  0  0  0  0  0  0  0  0
   19.2326   -5.6069  -16.5094 C   0  0  0  0  0  0  0  0  0  0  0  0
   18.8554   -5.1379  -15.1653 C   0  0  0  0  0  0  0  0  0  0  0  0
   19.6341   -4.5952  -14.3770 O   0  0  0  0  0  0  0  0  0  0  0  0
   20.5570   -8.1916  -16.8173 C   0  0  0  0  0  0  0  0  0  0  0  0
   20.4474   -8.8349  -15.7508 O   0  0  0  0  0  0  0  0  0  0  0  0
   17.5246   -5.3105  -14.7318 O   0  0  0  0  0  0  0  0  0  0  0  0
   21.8471   -7.7856  -17.2259 N   0  0  0  0  0  0  0  0  0  0  0  0
   23.0460   -8.1571  -16.5212 C   0  0  1  0  0  0  0  0  0  0  0  0
   23.7286   -9.3661  -17.1112 C   0  0  0  0  0  0  0  0  0  0  0  0
   25.0223   -9.6560  -16.4476 C   0  0  0  0  0  0  0  0  0  0  0  0
   26.2484   -9.3251  -16.9823 C   0  0  0  0  0  0  0  0  0  0  0  0
   27.4401   -9.6034  -16.3508 C   0  0  0  0  0  0  0  0  0  0  0  0
   27.4319  -10.2411  -15.1278 C   0  0  0  0  0  0  0  0  0  0  0  0
   26.2127  -10.5788  -14.5792 C   0  0  0  0  0  0  0  0  0  0  0  0
   25.0294  -10.2946  -15.2215 C   0  0  0  0  0  0  0  0  0  0  0  0
   24.0292   -7.0247  -16.4907 C   0  0  0  0  0  0  0  0  0  0  0  0
   24.1293   -6.2195  -17.4454 O   0  0  0  0  0  0  0  0  0  0  0  0
   24.8692   -6.8183  -15.4076 O   0  0  0  0  0  0  0  0  0  0  0  0
  2  3  1  0
  2  1  1  1
  3  4  1  0
  4  5  2  0
  4  8  1  0
  6  2  1  0
  7  6  2  0
  9  6  1  0
 10  9  1  0
 10 11  1  1
 12 11  1  0
 13 12  1  0
 13 14  2  0
 15 18  1  0
 15 10  1  0
 16 15  2  0
 17 13  1  0
 19 18  1  0
 19 20  1  6
 21 26  2  0
 21 20  1  0
 22 21  1  0
 23 24  1  0
 23 22  2  0
 24 25  2  0
 25 26  1  0
 27 19  1  0
 28 27  2  0
 29 27  1  0
M  END
$$$$
