DEF.pdb
     RDKit          3D

 29 29  0  0  1  0  0  0  0  0999 V2000
   18.0421  -11.5677  -17.3356 N   0  0  0  0  0  0  0  0  0  0  0  0
   17.9244  -10.6837  -16.1915 C   0  0  1  0  0  0  0  0  0  0  0  0
   18.3641  -11.4490  -14.9755 C   0  0  0  0  0  0  0  0  0  0  0  0
   17.3251  -12.5046  -14.7210 C   0  0  0  0  0  0  0  0  0  0  0  0
   17.5552  -13.7321  -14.9584 O   0  0  0  0  0  0  0  0  0  0  0  0
   18.6722   -9.4307  -16.3950 C   0  0  0  0  0  0  0  0  0  0  0  0
   19.9395   -9.4732  -16.3980 O   0  0  0  0  0  0  0  0  0  0  0  0
   16.0693  -12.1999  -14.2175 O   0  0  0  0  0  0  0  0  0  0  0  0
   18.0754   -8.1680  -16.5896 N   0  0  0  0  0  0  0  0  0  0  0  0
   18.8061   -6.9370  -16.8401 C   0  0  1  0  0  0  0  0  0  0  0  0
   18.0079   -5.9401  -17.6093 C   0  0  0  0  0  0  0  0  0  0  0  0
   17.6799   -6.2877  -19.0114 C   0  0  0  0  0  0  0  0  0  0  0  0
   16.9000   -5.2363  -19.6860 C   0  0  0  0  0  0  0  0  0  0  0  0
   17.2783   -4.6311  -20.6925 O   0  0  0  0  0  0  0  0  0  0  0  0
   19.2938   -6.3375  -15.5660 C   0  0  0  0  0  0  0  0  0  0  0  0
   18.4815   -6.2046  -14.6248 O   0  0  0  0  0  0  0  0  0  0  0  0
   15.6380   -4.8833  -19.1649 O   0  0  0  0  0  0  0  0  0  0  0  0
   20.6262   -5.9117  -15.3669 N   0  0  0  0  0  0  0  0  0  0  0  0
   21.0643   -5.2391  -14.1721 C   0  0  1  0  0  0  0  0  0  0  0  0
   21.8192   -6.1417  -13.2281 C   0  0  0  0  0  0  0  0  0  0  0  0
   22.7477   -7.0481  -13.9453 C   0  0  0  0  0  0  0  0  0  0  0  0
   22.7273   -8.4204  -13.8206 C   0  0  0  0  0  0  0  0  0  0  0  0
   23.5989   -9.2462  -14.4949 C   0  0  0  0  0  0  0  0  0  0  0  0
   24.5432   -8.6991  -15.3384 C   0  0  0  0  0  0  0  0  0  0  0  0
   24.5764   -7.3274  -15.4742 C   0  0  0  0  0  0  0  0  0  0  0  0
   23.6992   -6.5140  -14.7940 C   0  0  0  0  0  0  0  0  0  0  0  0
   21.9342   -4.0623  -14.5012 C   0  0  0  0  0  0  0  0  0  0  0  0
   22.3169   -3.8391  -15.6732 O   0  0  0  0  0  0  0  0  0  0  0  0
   22.3529   -3.1707  -13.5259 O   0  0  0  0  0  0  0  0  0  0  0  0
  2  3  1  0
  2  1  1  6
  3  4  1  0
  4  5  2  0
  4  8  1  0
  6  2  1  0
  7  6  2  0
  9  6  1  0
 10  9  1  0
 10 11  1  1
 12 11  1  0
 13 12  1  0
 13 14  2  0
 15 18  1  0
 15 10  1  0
 16 15  2  0
 17 13  1  0
 19 18  1  0
 19 20  1  1
 21 26  2  0
 21 20  1  0
 22 21  1  0
 23 24  1  0
 23 22  2  0
 24 25  2  0
 25 26  1  0
 27 19  1  0
 28 27  2  0
 29 27  1  0
M  END
$$$$
