DEF.pdb
     RDKit          3D

 29 29  0  0  1  0  0  0  0  0999 V2000
   18.9523  -13.5023  -18.8677 N   0  0  0  0  0  0  0  0  0  0  0  0
   19.1717  -12.1691  -19.3954 C   0  0  1  0  0  0  0  0  0  0  0  0
   18.3750  -12.0425  -20.6631 C   0  0  0  0  0  0  0  0  0  0  0  0
   18.9351  -13.0417  -21.6358 C   0  0  0  0  0  0  0  0  0  0  0  0
   20.1729  -13.0634  -21.9250 O   0  0  0  0  0  0  0  0  0  0  0  0
   18.8525  -11.1318  -18.3990 C   0  0  0  0  0  0  0  0  0  0  0  0
   18.9552   -9.9137  -18.7359 O   0  0  0  0  0  0  0  0  0  0  0  0
   18.1392  -13.9867  -22.2659 O   0  0  0  0  0  0  0  0  0  0  0  0
   18.4347  -11.3959  -17.0783 N   0  0  0  0  0  0  0  0  0  0  0  0
   18.1566  -10.3778  -16.0791 C   0  0  1  0  0  0  0  0  0  0  0  0
   17.4727  -10.9263  -14.8732 C   0  0  0  0  0  0  0  0  0  0  0  0
   16.3028  -11.8032  -15.1115 C   0  0  0  0  0  0  0  0  0  0  0  0
   16.2855  -12.9758  -14.2206 C   0  0  0  0  0  0  0  0  0  0  0  0
   15.8471  -12.9632  -13.0673 O   0  0  0  0  0  0  0  0  0  0  0  0
   19.4028   -9.6614  -15.6863 C   0  0  0  0  0  0  0  0  0  0  0  0
   20.4858  -10.2840  -15.7394 O   0  0  0  0  0  0  0  0  0  0  0  0
   16.7979  -14.2006  -14.6959 O   0  0  0  0  0  0  0  0  0  0  0  0
   19.4236   -8.3155  -15.2572 N   0  0  0  0  0  0  0  0  0  0  0  0
   20.6362   -7.5494  -15.1367 C   0  0  1  0  0  0  0  0  0  0  0  0
   21.1636   -7.0638  -16.4640 C   0  0  0  0  0  0  0  0  0  0  0  0
   22.4084   -6.2724  -16.3142 C   0  0  0  0  0  0  0  0  0  0  0  0
   22.4334   -4.9002  -16.1908 C   0  0  0  0  0  0  0  0  0  0  0  0
   23.6003   -4.1822  -16.0532 C   0  0  0  0  0  0  0  0  0  0  0  0
   24.8106   -4.8435  -16.0352 C   0  0  0  0  0  0  0  0  0  0  0  0
   24.8026   -6.2170  -16.1575 C   0  0  0  0  0  0  0  0  0  0  0  0
   23.6287   -6.9218  -16.2944 C   0  0  0  0  0  0  0  0  0  0  0  0
   20.4401   -6.3624  -14.2408 C   0  0  0  0  0  0  0  0  0  0  0  0
   21.3005   -6.0351  -13.3909 O   0  0  0  0  0  0  0  0  0  0  0  0
   19.3010   -5.5758  -14.3127 O   0  0  0  0  0  0  0  0  0  0  0  0
  2  3  1  0
  2  1  1  1
  3  4  1  0
  4  5  2  0
  4  8  1  0
  6  2  1  0
  7  6  2  0
  9  6  1  0
 10  9  1  0
 10 11  1  1
 12 11  1  0
 13 12  1  0
 13 14  2  0
 15 18  1  0
 15 10  1  0
 16 15  2  0
 17 13  1  0
 19 18  1  0
 19 20  1  6
 21 26  2  0
 21 20  1  0
 22 21  1  0
 23 24  1  0
 23 22  2  0
 24 25  2  0
 25 26  1  0
 27 19  1  0
 28 27  2  0
 29 27  1  0
M  END
$$$$
