DEF.pdb
     RDKit          3D

 29 29  0  0  1  0  0  0  0  0999 V2000
   28.3887  -20.8105  -17.9875 N   0  0  0  0  0  0  0  0  0  0  0  0
   28.2894  -21.6863  -16.8354 C   0  0  1  0  0  0  0  0  0  0  0  0
   29.5937  -22.4211  -16.7063 C   0  0  0  0  0  0  0  0  0  0  0  0
   29.7065  -23.3293  -17.8982 C   0  0  0  0  0  0  0  0  0  0  0  0
   30.6332  -24.1950  -17.9867 O   0  0  0  0  0  0  0  0  0  0  0  0
   27.9149  -20.9431  -15.6197 C   0  0  0  0  0  0  0  0  0  0  0  0
   28.7755  -20.1811  -15.0842 O   0  0  0  0  0  0  0  0  0  0  0  0
   28.8134  -23.2733  -18.9578 O   0  0  0  0  0  0  0  0  0  0  0  0
   26.6519  -21.0165  -14.9970 N   0  0  0  0  0  0  0  0  0  0  0  0
   26.2299  -20.1867  -13.8810 C   0  0  1  0  0  0  0  0  0  0  0  0
   25.2434  -19.1427  -14.2806 C   0  0  0  0  0  0  0  0  0  0  0  0
   24.4347  -19.4181  -15.4908 C   0  0  0  0  0  0  0  0  0  0  0  0
   23.0553  -18.9156  -15.3742 C   0  0  0  0  0  0  0  0  0  0  0  0
   22.0786  -19.6255  -15.1201 O   0  0  0  0  0  0  0  0  0  0  0  0
   25.6815  -21.0202  -12.7741 C   0  0  0  0  0  0  0  0  0  0  0  0
   24.9359  -21.9797  -13.0684 O   0  0  0  0  0  0  0  0  0  0  0  0
   22.8132  -17.5390  -15.5614 O   0  0  0  0  0  0  0  0  0  0  0  0
   25.9608  -20.7820  -11.4097 N   0  0  0  0  0  0  0  0  0  0  0  0
   25.3011  -21.4839  -10.3401 C   0  0  1  0  0  0  0  0  0  0  0  0
   26.2537  -21.9740   -9.2780 C   0  0  0  0  0  0  0  0  0  0  0  0
   27.0024  -20.8625   -8.6438 C   0  0  0  0  0  0  0  0  0  0  0  0
   28.3242  -20.5790   -8.9105 C   0  0  0  0  0  0  0  0  0  0  0  0
   29.0031  -19.5420   -8.3105 C   0  0  0  0  0  0  0  0  0  0  0  0
   28.3526  -18.7373   -7.3985 C   0  0  0  0  0  0  0  0  0  0  0  0
   27.0294  -19.0080   -7.1207 C   0  0  0  0  0  0  0  0  0  0  0  0
   26.3632  -20.0478   -7.7278 C   0  0  0  0  0  0  0  0  0  0  0  0
   24.2633  -20.6213   -9.6853 C   0  0  0  0  0  0  0  0  0  0  0  0
   24.2496  -19.3787   -9.8455 O   0  0  0  0  0  0  0  0  0  0  0  0
   23.2748  -21.1586   -8.8756 O   0  0  0  0  0  0  0  0  0  0  0  0
  2  3  1  0
  2  1  1  6
  3  4  1  0
  4  5  2  0
  4  8  1  0
  6  2  1  0
  7  6  2  0
  9  6  1  0
 10  9  1  0
 10 11  1  6
 12 11  1  0
 13 12  1  0
 13 14  2  0
 15 18  1  0
 15 10  1  0
 16 15  2  0
 17 13  1  0
 19 18  1  0
 19 20  1  1
 21 26  2  0
 21 20  1  0
 22 21  1  0
 23 24  1  0
 23 22  2  0
 24 25  2  0
 25 26  1  0
 27 19  1  0
 28 27  2  0
 29 27  1  0
M  END
$$$$
