DEF.pdb
     RDKit          3D

 29 29  0  0  1  0  0  0  0  0999 V2000
   23.7807  -18.9766  -20.7134 N   0  0  0  0  0  0  0  0  0  0  0  0
   23.6568  -18.3340  -19.4188 C   0  0  1  0  0  0  0  0  0  0  0  0
   22.5021  -17.3755  -19.4931 C   0  0  0  0  0  0  0  0  0  0  0  0
   22.9673  -16.1874  -20.2870 C   0  0  0  0  0  0  0  0  0  0  0  0
   22.1664  -15.5237  -21.0178 O   0  0  0  0  0  0  0  0  0  0  0  0
   23.5273  -19.3215  -18.3332 C   0  0  0  0  0  0  0  0  0  0  0  0
   22.4799  -20.0345  -18.2823 O   0  0  0  0  0  0  0  0  0  0  0  0
   24.2845  -15.7537  -20.2660 O   0  0  0  0  0  0  0  0  0  0  0  0
   24.4954  -19.5369  -17.3308 N   0  0  0  0  0  0  0  0  0  0  0  0
   24.3639  -20.4941  -16.2452 C   0  0  1  0  0  0  0  0  0  0  0  0
   25.6757  -20.8616  -15.6396 C   0  0  0  0  0  0  0  0  0  0  0  0
   26.6618  -21.5151  -16.5311 C   0  0  0  0  0  0  0  0  0  0  0  0
   27.9339  -21.8062  -15.8487 C   0  0  0  0  0  0  0  0  0  0  0  0
   28.1849  -21.4843  -14.6843 O   0  0  0  0  0  0  0  0  0  0  0  0
   23.4337  -19.9874  -15.1970 C   0  0  0  0  0  0  0  0  0  0  0  0
   23.5016  -18.7803  -14.8781 O   0  0  0  0  0  0  0  0  0  0  0  0
   28.9428  -22.4957  -16.5525 O   0  0  0  0  0  0  0  0  0  0  0  0
   22.4795  -20.8004  -14.5453 N   0  0  0  0  0  0  0  0  0  0  0  0
   21.1651  -20.3346  -14.1887 C   0  0  1  0  0  0  0  0  0  0  0  0
   20.5125  -19.5161  -15.2749 C   0  0  0  0  0  0  0  0  0  0  0  0
   19.8283  -18.3166  -14.7352 C   0  0  0  0  0  0  0  0  0  0  0  0
   19.8926  -17.9275  -13.4148 C   0  0  0  0  0  0  0  0  0  0  0  0
   19.2493  -16.8098  -12.9318 C   0  0  0  0  0  0  0  0  0  0  0  0
   18.5012  -16.0292  -13.7882 C   0  0  0  0  0  0  0  0  0  0  0  0
   18.4271  -16.4052  -15.1128 C   0  0  0  0  0  0  0  0  0  0  0  0
   19.0752  -17.5248  -15.5819 C   0  0  0  0  0  0  0  0  0  0  0  0
   20.2586  -21.4801  -13.8481 C   0  0  0  0  0  0  0  0  0  0  0  0
   20.3691  -22.5924  -14.4140 O   0  0  0  0  0  0  0  0  0  0  0  0
   19.2601  -21.3601  -12.8940 O   0  0  0  0  0  0  0  0  0  0  0  0
  2  3  1  0
  2  1  1  6
  3  4  1  0
  4  5  2  0
  4  8  1  0
  6  2  1  0
  7  6  2  0
  9  6  1  0
 10  9  1  0
 10 11  1  1
 12 11  1  0
 13 12  1  0
 13 14  2  0
 15 18  1  0
 15 10  1  0
 16 15  2  0
 17 13  1  0
 19 18  1  0
 19 20  1  6
 21 26  2  0
 21 20  1  0
 22 21  1  0
 23 24  1  0
 23 22  2  0
 24 25  2  0
 25 26  1  0
 27 19  1  0
 28 27  2  0
 29 27  1  0
M  END
$$$$
