DEF.pdb
     RDKit          3D

 29 29  0  0  1  0  0  0  0  0999 V2000
   38.6727  -32.5544  -18.3464 N   0  0  0  0  0  0  0  0  0  0  0  0
   38.0456  -31.5458  -17.5136 C   0  0  1  0  0  0  0  0  0  0  0  0
   39.1353  -30.6859  -16.9384 C   0  0  0  0  0  0  0  0  0  0  0  0
   39.8779  -31.5273  -15.9390 C   0  0  0  0  0  0  0  0  0  0  0  0
   39.5880  -32.7518  -15.7577 O   0  0  0  0  0  0  0  0  0  0  0  0
   37.0304  -30.7813  -18.2590 C   0  0  0  0  0  0  0  0  0  0  0  0
   37.3208  -30.3544  -19.4172 O   0  0  0  0  0  0  0  0  0  0  0  0
   40.9112  -31.0186  -15.1665 O   0  0  0  0  0  0  0  0  0  0  0  0
   35.7402  -30.4840  -17.7740 N   0  0  0  0  0  0  0  0  0  0  0  0
   34.7166  -29.7762  -18.5246 C   0  0  1  0  0  0  0  0  0  0  0  0
   33.5466  -30.6384  -18.8568 C   0  0  0  0  0  0  0  0  0  0  0  0
   32.4950  -30.0357  -19.7085 C   0  0  0  0  0  0  0  0  0  0  0  0
   31.1619  -30.6040  -19.4463 C   0  0  0  0  0  0  0  0  0  0  0  0
   30.4791  -30.3395  -18.4532 O   0  0  0  0  0  0  0  0  0  0  0  0
   34.2696  -28.5552  -17.7964 C   0  0  0  0  0  0  0  0  0  0  0  0
   33.7619  -28.6945  -16.6624 O   0  0  0  0  0  0  0  0  0  0  0  0
   30.6121  -31.5100  -20.3767 O   0  0  0  0  0  0  0  0  0  0  0  0
   34.3900  -27.2491  -18.3214 N   0  0  0  0  0  0  0  0  0  0  0  0
   33.9396  -26.0767  -17.6183 C   0  0  1  0  0  0  0  0  0  0  0  0
   35.0517  -25.3541  -16.8995 C   0  0  0  0  0  0  0  0  0  0  0  0
   35.5726  -26.1333  -15.7507 C   0  0  0  0  0  0  0  0  0  0  0  0
   36.6422  -26.9982  -15.8338 C   0  0  0  0  0  0  0  0  0  0  0  0
   37.1114  -27.7141  -14.7552 C   0  0  0  0  0  0  0  0  0  0  0  0
   36.5001  -27.5765  -13.5264 C   0  0  0  0  0  0  0  0  0  0  0  0
   35.4283  -26.7147  -13.4267 C   0  0  0  0  0  0  0  0  0  0  0  0
   34.9699  -26.0054  -14.5131 C   0  0  0  0  0  0  0  0  0  0  0  0
   33.2699  -25.1104  -18.5498 C   0  0  0  0  0  0  0  0  0  0  0  0
   33.2361  -25.3103  -19.7862 O   0  0  0  0  0  0  0  0  0  0  0  0
   32.6597  -23.9554  -18.0860 O   0  0  0  0  0  0  0  0  0  0  0  0
  2  3  1  0
  2  1  1  6
  3  4  1  0
  4  5  2  0
  4  8  1  0
  6  2  1  0
  7  6  2  0
  9  6  1  0
 10  9  1  0
 10 11  1  1
 12 11  1  0
 13 12  1  0
 13 14  2  0
 15 18  1  0
 15 10  1  0
 16 15  2  0
 17 13  1  0
 19 18  1  0
 19 20  1  6
 21 26  2  0
 21 20  1  0
 22 21  1  0
 23 24  1  0
 23 22  2  0
 24 25  2  0
 25 26  1  0
 27 19  1  0
 28 27  2  0
 29 27  1  0
M  END
$$$$
