DEF.pdb
     RDKit          3D

 29 29  0  0  1  0  0  0  0  0999 V2000
   24.2695  -18.0699  -14.8351 N   0  0  0  0  0  0  0  0  0  0  0  0
   23.4081  -18.9004  -14.0152 C   0  0  1  0  0  0  0  0  0  0  0  0
   22.2797  -19.3836  -14.8818 C   0  0  0  0  0  0  0  0  0  0  0  0
   21.5379  -18.1662  -15.3570 C   0  0  0  0  0  0  0  0  0  0  0  0
   20.2714  -18.1626  -15.4670 O   0  0  0  0  0  0  0  0  0  0  0  0
   24.1595  -19.9923  -13.3720 C   0  0  0  0  0  0  0  0  0  0  0  0
   23.5121  -20.9185  -12.7966 O   0  0  0  0  0  0  0  0  0  0  0  0
   22.1887  -16.9901  -15.6986 O   0  0  0  0  0  0  0  0  0  0  0  0
   25.5662  -20.0864  -13.3477 N   0  0  0  0  0  0  0  0  0  0  0  0
   26.3103  -21.2405  -12.8717 C   0  0  1  0  0  0  0  0  0  0  0  0
   27.4714  -21.5768  -13.7443 C   0  0  0  0  0  0  0  0  0  0  0  0
   27.1723  -21.8859  -15.1619 C   0  0  0  0  0  0  0  0  0  0  0  0
   28.3871  -22.1590  -15.9485 C   0  0  0  0  0  0  0  0  0  0  0  0
   29.0572  -23.1906  -15.8526 O   0  0  0  0  0  0  0  0  0  0  0  0
   26.7605  -21.0419  -11.4651 C   0  0  0  0  0  0  0  0  0  0  0  0
   27.8887  -20.5397  -11.2695 O   0  0  0  0  0  0  0  0  0  0  0  0
   28.8300  -21.1933  -16.8758 O   0  0  0  0  0  0  0  0  0  0  0  0
   25.9783  -21.3916  -10.3416 N   0  0  0  0  0  0  0  0  0  0  0  0
   26.4386  -21.2363   -8.9867 C   0  0  1  0  0  0  0  0  0  0  0  0
   27.2274  -19.9687   -8.7713 C   0  0  0  0  0  0  0  0  0  0  0  0
   27.7530  -19.8664   -7.3888 C   0  0  0  0  0  0  0  0  0  0  0  0
   28.7296  -20.6934   -6.8776 C   0  0  0  0  0  0  0  0  0  0  0  0
   29.2048  -20.5834   -5.5898 C   0  0  0  0  0  0  0  0  0  0  0  0
   28.6964  -19.6098   -4.7554 C   0  0  0  0  0  0  0  0  0  0  0  0
   27.7186  -18.7741   -5.2521 C   0  0  0  0  0  0  0  0  0  0  0  0
   27.2529  -18.8955   -6.5413 C   0  0  0  0  0  0  0  0  0  0  0  0
   25.2917  -21.2517   -8.0201 C   0  0  0  0  0  0  0  0  0  0  0  0
   25.4303  -21.6702   -6.8472 O   0  0  0  0  0  0  0  0  0  0  0  0
   24.0298  -20.8047   -8.3798 O   0  0  0  0  0  0  0  0  0  0  0  0
  2  3  1  0
  2  1  1  6
  3  4  1  0
  4  5  2  0
  4  8  1  0
  6  2  1  0
  7  6  2  0
  9  6  1  0
 10  9  1  0
 10 11  1  6
 12 11  1  0
 13 12  1  0
 13 14  2  0
 15 18  1  0
 15 10  1  0
 16 15  2  0
 17 13  1  0
 19 18  1  0
 19 20  1  6
 21 26  2  0
 21 20  1  0
 22 21  1  0
 23 24  1  0
 23 22  2  0
 24 25  2  0
 25 26  1  0
 27 19  1  0
 28 27  2  0
 29 27  1  0
M  END
$$$$
