GLF.pdb
     RDKit          3D

 24 24  0  0  1  0  0  0  0  0999 V2000
   27.0049  -16.7434  -16.2852 N   0  0  0  0  0  0  0  0  0  0  0  0
   26.8626  -16.9172  -14.8643 C   0  0  0  0  0  0  0  0  0  0  0  0
   26.6780  -18.3625  -14.5158 C   0  0  0  0  0  0  0  0  0  0  0  0
   26.2203  -19.1420  -15.3915 O   0  0  0  0  0  0  0  0  0  0  0  0
   30.0272  -21.0842  -10.9019 C   0  0  0  0  0  0  0  0  0  0  0  0
   29.1534  -20.6833  -12.0647 C   0  0  1  0  0  0  0  0  0  0  0  0
   29.4078  -21.7231  -13.1668 C   0  0  0  0  0  0  0  0  0  0  0  0
   27.7021  -20.7228  -11.7702 C   0  0  0  0  0  0  0  0  0  0  0  0
   26.7790  -20.1735  -12.7967 C   0  0  2  0  0  0  0  0  0  0  0  0
   27.0186  -18.8285  -13.2155 N   0  0  0  0  0  0  0  0  0  0  0  0
   25.3885  -20.3036  -12.2121 C   0  0  0  0  0  0  0  0  0  0  0  0
   25.2207  -20.0115  -11.0019 O   0  0  0  0  0  0  0  0  0  0  0  0
   24.2834  -20.7355  -12.9635 N   0  0  0  0  0  0  0  0  0  0  0  0
   22.9375  -20.8401  -12.4242 C   0  0  1  0  0  0  0  0  0  0  0  0
   22.3894  -19.4070  -12.4056 C   0  0  0  0  0  0  0  0  0  0  0  0
   21.0428  -19.4753  -11.8111 C   0  0  0  0  0  0  0  0  0  0  0  0
   19.9348  -19.2813  -12.6082 C   0  0  0  0  0  0  0  0  0  0  0  0
   18.6572  -19.3370  -12.0911 C   0  0  0  0  0  0  0  0  0  0  0  0
   18.4384  -19.5902  -10.7495 C   0  0  0  0  0  0  0  0  0  0  0  0
   19.5635  -19.7814   -9.9701 C   0  0  0  0  0  0  0  0  0  0  0  0
   20.8451  -19.7314  -10.4589 C   0  0  0  0  0  0  0  0  0  0  0  0
   22.0472  -21.6200  -13.2920 C   0  0  0  0  0  0  0  0  0  0  0  0
   21.0309  -22.3595  -12.7054 O   0  0  0  0  0  0  0  0  0  0  0  0
   22.1672  -21.6443  -14.5287 O   0  0  0  0  0  0  0  0  0  0  0  0
  1  2  1  0
  3  4  2  0
  3  2  1  0
  6  5  1  1
  6  8  1  0
  7  6  1  0
  9  8  1  1
  9 11  1  0
  9 10  1  0
 10  3  1  0
 11 12  2  0
 13 11  1  0
 13 14  1  0
 14 15  1  6
 14 22  1  0
 16 15  1  0
 17 16  2  0
 18 17  1  0
 19 20  1  0
 19 18  2  0
 20 21  2  0
 21 16  1  0
 22 24  2  0
 22 23  1  0
M  END
$$$$
