GLF.pdb
     RDKit          3D

 24 24  0  0  1  0  0  0  0  0999 V2000
   21.8336  -19.3304  -13.0256 N   0  0  0  0  0  0  0  0  0  0  0  0
   23.1920  -19.1123  -13.4454 C   0  0  0  0  0  0  0  0  0  0  0  0
   24.1182  -20.0977  -12.8007 C   0  0  0  0  0  0  0  0  0  0  0  0
   23.7443  -21.2941  -12.6870 O   0  0  0  0  0  0  0  0  0  0  0  0
   29.4944  -19.8493  -13.9515 C   0  0  0  0  0  0  0  0  0  0  0  0
   28.0486  -20.1504  -13.6427 C   0  0  1  0  0  0  0  0  0  0  0  0
   27.7291  -21.4759  -14.3509 C   0  0  0  0  0  0  0  0  0  0  0  0
   27.7704  -20.3602  -12.2028 C   0  0  0  0  0  0  0  0  0  0  0  0
   26.3572  -20.5848  -11.8031 C   0  0  2  0  0  0  0  0  0  0  0  0
   25.3923  -19.6728  -12.3316 N   0  0  0  0  0  0  0  0  0  0  0  0
   26.3460  -20.5453  -10.2897 C   0  0  0  0  0  0  0  0  0  0  0  0
   27.1683  -19.7959   -9.7066 O   0  0  0  0  0  0  0  0  0  0  0  0
   25.4580  -21.3086   -9.5142 N   0  0  0  0  0  0  0  0  0  0  0  0
   25.3853  -21.2282   -8.0646 C   0  0  1  0  0  0  0  0  0  0  0  0
   25.6944  -19.7657   -7.7178 C   0  0  0  0  0  0  0  0  0  0  0  0
   26.7840  -19.7859   -6.7260 C   0  0  0  0  0  0  0  0  0  0  0  0
   26.7655  -20.7192   -5.7113 C   0  0  0  0  0  0  0  0  0  0  0  0
   27.7659  -20.7716   -4.7631 C   0  0  0  0  0  0  0  0  0  0  0  0
   28.8286  -19.8876   -4.7940 C   0  0  0  0  0  0  0  0  0  0  0  0
   28.8260  -18.9614   -5.8196 C   0  0  0  0  0  0  0  0  0  0  0  0
   27.8438  -18.8874   -6.7755 C   0  0  0  0  0  0  0  0  0  0  0  0
   24.0365  -21.5052   -7.5568 C   0  0  0  0  0  0  0  0  0  0  0  0
   23.8612  -21.6550   -6.1891 O   0  0  0  0  0  0  0  0  0  0  0  0
   23.0474  -21.6107   -8.3016 O   0  0  0  0  0  0  0  0  0  0  0  0
  1  2  1  0
  3  4  2  0
  3  2  1  0
  6  5  1  1
  6  8  1  0
  7  6  1  0
  9  8  1  6
  9 11  1  0
  9 10  1  0
 10  3  1  0
 11 12  2  0
 13 11  1  0
 13 14  1  0
 14 15  1  6
 14 22  1  0
 16 15  1  0
 17 16  2  0
 18 17  1  0
 19 20  1  0
 19 18  2  0
 20 21  2  0
 21 16  1  0
 22 24  2  0
 22 23  1  0
M  END
$$$$
