GLF.pdb
     RDKit          3D

 24 24  0  0  1  0  0  0  0  0999 V2000
   21.4613  -13.3405  -19.6194 N   0  0  0  0  0  0  0  0  0  0  0  0
   21.7363  -11.9662  -19.9434 C   0  0  0  0  0  0  0  0  0  0  0  0
   22.4292  -11.2752  -18.8090 C   0  0  0  0  0  0  0  0  0  0  0  0
   21.7331  -10.8035  -17.8725 O   0  0  0  0  0  0  0  0  0  0  0  0
   26.1257  -10.1727  -15.0729 C   0  0  0  0  0  0  0  0  0  0  0  0
   26.6916  -10.1339  -16.4710 C   0  0  1  0  0  0  0  0  0  0  0  0
   28.0802  -10.7863  -16.3864 C   0  0  0  0  0  0  0  0  0  0  0  0
   25.9136  -10.9175  -17.4586 C   0  0  0  0  0  0  0  0  0  0  0  0
   24.5553  -10.4262  -17.8068 C   0  0  2  0  0  0  0  0  0  0  0  0
   23.8474  -11.1629  -18.8059 N   0  0  0  0  0  0  0  0  0  0  0  0
   24.7367   -8.9877  -18.2424 C   0  0  0  0  0  0  0  0  0  0  0  0
   25.3594   -8.7618  -19.3098 O   0  0  0  0  0  0  0  0  0  0  0  0
   24.2399   -7.9001  -17.5057 N   0  0  0  0  0  0  0  0  0  0  0  0
   24.3341   -6.5193  -17.9504 C   0  0  1  0  0  0  0  0  0  0  0  0
   22.9299   -5.9299  -17.7619 C   0  0  0  0  0  0  0  0  0  0  0  0
   22.5891   -6.0922  -16.3375 C   0  0  0  0  0  0  0  0  0  0  0  0
   22.7179   -5.0211  -15.4791 C   0  0  0  0  0  0  0  0  0  0  0  0
   22.4095   -5.1313  -14.1392 C   0  0  0  0  0  0  0  0  0  0  0  0
   21.9581   -6.3236  -13.6042 C   0  0  0  0  0  0  0  0  0  0  0  0
   21.8369   -7.3832  -14.4831 C   0  0  0  0  0  0  0  0  0  0  0  0
   22.1367   -7.3007  -15.8200 C   0  0  0  0  0  0  0  0  0  0  0  0
   25.2403   -5.7237  -17.1138 C   0  0  0  0  0  0  0  0  0  0  0  0
   25.5184   -4.4190  -17.4935 O   0  0  0  0  0  0  0  0  0  0  0  0
   25.7672   -6.1713  -16.0812 O   0  0  0  0  0  0  0  0  0  0  0  0
  1  2  1  0
  3  4  2  0
  3  2  1  0
  6  5  1  1
  6  8  1  0
  7  6  1  0
  9  8  1  6
  9 11  1  0
  9 10  1  0
 10  3  1  0
 11 12  2  0
 13 11  1  0
 13 14  1  0
 14 15  1  1
 14 22  1  0
 16 15  1  0
 17 16  2  0
 18 17  1  0
 19 20  1  0
 19 18  2  0
 20 21  2  0
 21 16  1  0
 22 24  2  0
 22 23  1  0
M  END
$$$$
