GLF.pdb
     RDKit          3D

 24 24  0  0  1  0  0  0  0  0999 V2000
   23.2004  -16.7461  -14.5436 N   0  0  0  0  0  0  0  0  0  0  0  0
   24.3573  -16.9769  -13.7205 C   0  0  0  0  0  0  0  0  0  0  0  0
   24.3352  -18.3568  -13.1375 C   0  0  0  0  0  0  0  0  0  0  0  0
   23.3145  -18.7284  -12.5018 O   0  0  0  0  0  0  0  0  0  0  0  0
   24.7697  -23.5288  -12.9874 C   0  0  0  0  0  0  0  0  0  0  0  0
   26.1646  -22.9540  -12.9838 C   0  0  1  0  0  0  0  0  0  0  0  0
   26.9833  -23.8173  -13.9560 C   0  0  0  0  0  0  0  0  0  0  0  0
   26.2443  -21.5611  -13.4821 C   0  0  0  0  0  0  0  0  0  0  0  0
   25.5208  -20.5155  -12.7135 C   0  0  2  0  0  0  0  0  0  0  0  0
   25.4547  -19.2178  -13.3084 N   0  0  0  0  0  0  0  0  0  0  0  0
   26.2094  -20.4434  -11.3671 C   0  0  0  0  0  0  0  0  0  0  0  0
   27.4287  -20.1427  -11.3362 O   0  0  0  0  0  0  0  0  0  0  0  0
   25.5442  -20.6978  -10.1567 N   0  0  0  0  0  0  0  0  0  0  0  0
   26.2244  -20.8247   -8.8782 C   0  0  1  0  0  0  0  0  0  0  0  0
   26.6501  -19.4009   -8.4957 C   0  0  0  0  0  0  0  0  0  0  0  0
   27.3910  -19.5060   -7.2264 C   0  0  0  0  0  0  0  0  0  0  0  0
   28.5314  -20.2784   -7.1643 C   0  0  0  0  0  0  0  0  0  0  0  0
   29.2537  -20.4031   -5.9958 C   0  0  0  0  0  0  0  0  0  0  0  0
   28.8605  -19.7564   -4.8387 C   0  0  0  0  0  0  0  0  0  0  0  0
   27.7150  -18.9882   -4.9246 C   0  0  0  0  0  0  0  0  0  0  0  0
   26.9780  -18.8471   -6.0740 C   0  0  0  0  0  0  0  0  0  0  0  0
   25.3304  -21.2969   -7.8144 C   0  0  0  0  0  0  0  0  0  0  0  0
   23.9617  -21.1537   -7.9869 O   0  0  0  0  0  0  0  0  0  0  0  0
   25.7498  -21.8188   -6.7674 O   0  0  0  0  0  0  0  0  0  0  0  0
  1  2  1  0
  3  4  2  0
  3  2  1  0
  6  5  1  6
  6  8  1  0
  7  6  1  0
  9  8  1  6
  9 11  1  0
  9 10  1  0
 10  3  1  0
 11 12  2  0
 13 11  1  0
 13 14  1  0
 14 15  1  1
 14 22  1  0
 16 15  1  0
 17 16  2  0
 18 17  1  0
 19 20  1  0
 19 18  2  0
 20 21  2  0
 21 16  1  0
 22 24  2  0
 22 23  1  0
M  END
$$$$
