GLF.pdb
     RDKit          3D

 24 24  0  0  1  0  0  0  0  0999 V2000
   22.1125  -20.2709  -14.3994 N   0  0  0  0  0  0  0  0  0  0  0  0
   23.2336  -19.5676  -13.8357 C   0  0  0  0  0  0  0  0  0  0  0  0
   24.2097  -19.1712  -14.9008 C   0  0  0  0  0  0  0  0  0  0  0  0
   24.0385  -19.6052  -16.0697 O   0  0  0  0  0  0  0  0  0  0  0  0
   26.6645  -14.0462  -15.5311 C   0  0  0  0  0  0  0  0  0  0  0  0
   26.0031  -15.3828  -15.7595 C   0  0  1  0  0  0  0  0  0  0  0  0
   25.7721  -15.4901  -17.2747 C   0  0  0  0  0  0  0  0  0  0  0  0
   26.8393  -16.5433  -15.3740 C   0  0  0  0  0  0  0  0  0  0  0  0
   26.2578  -17.8983  -15.5569 C   0  0  2  0  0  0  0  0  0  0  0  0
   25.3036  -18.3199  -14.5803 N   0  0  0  0  0  0  0  0  0  0  0  0
   27.4345  -18.8505  -15.5892 C   0  0  0  0  0  0  0  0  0  0  0  0
   28.2977  -18.7628  -14.6808 O   0  0  0  0  0  0  0  0  0  0  0  0
   27.6000  -19.8234  -16.5884 N   0  0  0  0  0  0  0  0  0  0  0  0
   28.7005  -20.7730  -16.6097 C   0  0  1  0  0  0  0  0  0  0  0  0
   28.2331  -21.9632  -15.7615 C   0  0  0  0  0  0  0  0  0  0  0  0
   26.9479  -22.4092  -16.3277 C   0  0  0  0  0  0  0  0  0  0  0  0
   26.9362  -23.1668  -17.4796 C   0  0  0  0  0  0  0  0  0  0  0  0
   25.7550  -23.6041  -18.0417 C   0  0  0  0  0  0  0  0  0  0  0  0
   24.5338  -23.2985  -17.4698 C   0  0  0  0  0  0  0  0  0  0  0  0
   24.5699  -22.5384  -16.3163 C   0  0  0  0  0  0  0  0  0  0  0  0
   25.7306  -22.0906  -15.7363 C   0  0  0  0  0  0  0  0  0  0  0  0
   28.9632  -21.2933  -17.9566 C   0  0  0  0  0  0  0  0  0  0  0  0
   28.1613  -20.8605  -19.0022 O   0  0  0  0  0  0  0  0  0  0  0  0
   29.8734  -22.1045  -18.1972 O   0  0  0  0  0  0  0  0  0  0  0  0
  1  2  1  0
  3  4  2  0
  3  2  1  0
  6  5  1  6
  6  8  1  0
  7  6  1  0
  9  8  1  1
  9 11  1  0
  9 10  1  0
 10  3  1  0
 11 12  2  0
 13 11  1  0
 13 14  1  0
 14 15  1  1
 14 22  1  0
 16 15  1  0
 17 16  2  0
 18 17  1  0
 19 20  1  0
 19 18  2  0
 20 21  2  0
 21 16  1  0
 22 24  2  0
 22 23  1  0
M  END
$$$$
