GLF.pdb
     RDKit          3D

 24 24  0  0  1  0  0  0  0  0999 V2000
   20.5676  -19.8792  -13.2644 N   0  0  0  0  0  0  0  0  0  0  0  0
   21.4940  -19.1288  -12.4596 C   0  0  0  0  0  0  0  0  0  0  0  0
   22.5749  -20.0139  -11.9185 C   0  0  0  0  0  0  0  0  0  0  0  0
   22.3557  -20.6579  -10.8596 O   0  0  0  0  0  0  0  0  0  0  0  0
   26.3568  -22.6760  -15.3062 C   0  0  0  0  0  0  0  0  0  0  0  0
   25.3159  -22.2834  -14.2870 C   0  0  1  0  0  0  0  0  0  0  0  0
   24.8420  -23.5924  -13.6367 C   0  0  0  0  0  0  0  0  0  0  0  0
   25.8346  -21.4293  -13.1933 C   0  0  0  0  0  0  0  0  0  0  0  0
   24.8683  -20.9773  -12.1592 C   0  0  2  0  0  0  0  0  0  0  0  0
   23.8193  -20.1132  -12.6008 N   0  0  0  0  0  0  0  0  0  0  0  0
   25.6969  -20.2966  -11.0906 C   0  0  0  0  0  0  0  0  0  0  0  0
   26.0150  -19.0931  -11.2590 O   0  0  0  0  0  0  0  0  0  0  0  0
   26.1228  -20.9522   -9.9239 N   0  0  0  0  0  0  0  0  0  0  0  0
   27.0421  -20.3647   -8.9631 C   0  0  1  0  0  0  0  0  0  0  0  0
   26.5274  -20.7976   -7.5838 C   0  0  0  0  0  0  0  0  0  0  0  0
   27.4084  -20.1670   -6.5850 C   0  0  0  0  0  0  0  0  0  0  0  0
   27.2851  -18.8195   -6.3209 C   0  0  0  0  0  0  0  0  0  0  0  0
   28.0899  -18.1910   -5.3936 C   0  0  0  0  0  0  0  0  0  0  0  0
   29.0540  -18.8905   -4.6915 C   0  0  0  0  0  0  0  0  0  0  0  0
   29.1595  -20.2394   -4.9727 C   0  0  0  0  0  0  0  0  0  0  0  0
   28.3718  -20.8892   -5.8899 C   0  0  0  0  0  0  0  0  0  0  0  0
   28.4024  -20.9004   -9.0920 C   0  0  0  0  0  0  0  0  0  0  0  0
   29.4724  -20.0247   -8.9835 O   0  0  0  0  0  0  0  0  0  0  0  0
   28.6333  -22.1047   -9.2940 O   0  0  0  0  0  0  0  0  0  0  0  0
  1  2  1  0
  3  4  2  0
  3  2  1  0
  6  5  1  6
  6  8  1  0
  7  6  1  0
  9  8  1  6
  9 11  1  0
  9 10  1  0
 10  3  1  0
 11 12  2  0
 13 11  1  0
 13 14  1  0
 14 15  1  1
 14 22  1  0
 16 15  1  0
 17 16  2  0
 18 17  1  0
 19 20  1  0
 19 18  2  0
 20 21  2  0
 21 16  1  0
 22 24  2  0
 22 23  1  0
M  END
$$$$
