GLF.pdb
     RDKit          3D

 24 24  0  0  1  0  0  0  0  0999 V2000
   28.7873  -22.1283  -14.9264 N   0  0  0  0  0  0  0  0  0  0  0  0
   28.5019  -20.9986  -14.0829 C   0  0  0  0  0  0  0  0  0  0  0  0
   27.6024  -21.3880  -12.9498 C   0  0  0  0  0  0  0  0  0  0  0  0
   26.6877  -22.2255  -13.1641 O   0  0  0  0  0  0  0  0  0  0  0  0
   25.7328  -21.6066   -7.7940 C   0  0  0  0  0  0  0  0  0  0  0  0
   26.0880  -20.2278   -8.2929 C   0  0  1  0  0  0  0  0  0  0  0  0
   26.6791  -19.4785   -7.0887 C   0  0  0  0  0  0  0  0  0  0  0  0
   27.1254  -20.2177   -9.3504 C   0  0  0  0  0  0  0  0  0  0  0  0
   26.7985  -20.8830  -10.6380 C   0  0  2  0  0  0  0  0  0  0  0  0
   27.7922  -20.8127  -11.6626 N   0  0  0  0  0  0  0  0  0  0  0  0
   25.5071  -20.2508  -11.1121 C   0  0  0  0  0  0  0  0  0  0  0  0
   25.4567  -18.9995  -11.2105 O   0  0  0  0  0  0  0  0  0  0  0  0
   24.3683  -21.0023  -11.4449 N   0  0  0  0  0  0  0  0  0  0  0  0
   23.1913  -20.4360  -12.0833 C   0  0  1  0  0  0  0  0  0  0  0  0
   23.1791  -21.0099  -13.5063 C   0  0  0  0  0  0  0  0  0  0  0  0
   21.9870  -20.4599  -14.1755 C   0  0  0  0  0  0  0  0  0  0  0  0
   20.8806  -21.2606  -14.3644 C   0  0  0  0  0  0  0  0  0  0  0  0
   19.7451  -20.7844  -14.9861 C   0  0  0  0  0  0  0  0  0  0  0  0
   19.6728  -19.4821  -15.4450 C   0  0  0  0  0  0  0  0  0  0  0  0
   20.7933  -18.6984  -15.2448 C   0  0  0  0  0  0  0  0  0  0  0  0
   21.9354  -19.1468  -14.6295 C   0  0  0  0  0  0  0  0  0  0  0  0
   21.9447  -20.8716  -11.4429 C   0  0  0  0  0  0  0  0  0  0  0  0
   21.8503  -22.1824  -10.9996 O   0  0  0  0  0  0  0  0  0  0  0  0
   20.9723  -20.1146  -11.2825 O   0  0  0  0  0  0  0  0  0  0  0  0
  1  2  1  0
  3  4  2  0
  3  2  1  0
  6  5  1  1
  6  8  1  0
  7  6  1  0
  9  8  1  1
  9 11  1  0
  9 10  1  0
 10  3  1  0
 11 12  2  0
 13 11  1  0
 13 14  1  0
 14 15  1  6
 14 22  1  0
 16 15  1  0
 17 16  2  0
 18 17  1  0
 19 20  1  0
 19 18  2  0
 20 21  2  0
 21 16  1  0
 22 24  2  0
 22 23  1  0
M  END
$$$$
