GLF.pdb
     RDKit          3D

 24 24  0  0  1  0  0  0  0  0999 V2000
   29.4151  -21.1603  -17.1008 N   0  0  0  0  0  0  0  0  0  0  0  0
   28.6349  -20.2280  -16.3317 C   0  0  0  0  0  0  0  0  0  0  0  0
   28.2842  -20.7984  -14.9915 C   0  0  0  0  0  0  0  0  0  0  0  0
   27.2972  -21.5745  -14.9041 O   0  0  0  0  0  0  0  0  0  0  0  0
   32.0543  -21.4207  -10.5141 C   0  0  0  0  0  0  0  0  0  0  0  0
   31.0168  -21.7023  -11.5727 C   0  0  1  0  0  0  0  0  0  0  0  0
   30.4955  -23.1200  -11.2914 C   0  0  0  0  0  0  0  0  0  0  0  0
   29.8429  -20.8001  -11.5219 C   0  0  0  0  0  0  0  0  0  0  0  0
   28.7880  -20.9888  -12.5511 C   0  0  2  0  0  0  0  0  0  0  0  0
   29.0620  -20.4591  -13.8497 N   0  0  0  0  0  0  0  0  0  0  0  0
   27.5363  -20.3587  -11.9783 C   0  0  0  0  0  0  0  0  0  0  0  0
   27.3983  -19.1138  -12.0732 O   0  0  0  0  0  0  0  0  0  0  0  0
   26.5274  -21.1053  -11.3481 N   0  0  0  0  0  0  0  0  0  0  0  0
   25.3677  -20.5073  -10.7073 C   0  0  1  0  0  0  0  0  0  0  0  0
   24.1725  -21.3713  -11.1310 C   0  0  0  0  0  0  0  0  0  0  0  0
   22.9588  -20.6655  -10.6837 C   0  0  0  0  0  0  0  0  0  0  0  0
   22.3916  -20.9868   -9.4689 C   0  0  0  0  0  0  0  0  0  0  0  0
   21.2558  -20.3500   -9.0137 C   0  0  0  0  0  0  0  0  0  0  0  0
   20.6409  -19.3622   -9.7606 C   0  0  0  0  0  0  0  0  0  0  0  0
   21.2269  -19.0569  -10.9743 C   0  0  0  0  0  0  0  0  0  0  0  0
   22.3563  -19.6747  -11.4507 C   0  0  0  0  0  0  0  0  0  0  0  0
   25.4402  -20.5779   -9.2431 C   0  0  0  0  0  0  0  0  0  0  0  0
   24.9412  -19.5164   -8.5030 O   0  0  0  0  0  0  0  0  0  0  0  0
   25.9297  -21.5488   -8.6413 O   0  0  0  0  0  0  0  0  0  0  0  0
  1  2  1  0
  3  4  2  0
  3  2  1  0
  6  5  1  1
  6  8  1  0
  7  6  1  0
  9  8  1  1
  9 11  1  0
  9 10  1  0
 10  3  1  0
 11 12  2  0
 13 11  1  0
 13 14  1  0
 14 15  1  6
 14 22  1  0
 16 15  1  0
 17 16  2  0
 18 17  1  0
 19 20  1  0
 19 18  2  0
 20 21  2  0
 21 16  1  0
 22 24  2  0
 22 23  1  0
M  END
$$$$
