GLF.pdb
     RDKit          3D

 24 24  0  0  1  0  0  0  0  0999 V2000
   28.3256  -21.5930  -15.0169 N   0  0  0  0  0  0  0  0  0  0  0  0
   28.0828  -20.5213  -14.0886 C   0  0  0  0  0  0  0  0  0  0  0  0
   27.4905  -21.0389  -12.8135 C   0  0  0  0  0  0  0  0  0  0  0  0
   26.9001  -22.1503  -12.8285 O   0  0  0  0  0  0  0  0  0  0  0  0
   26.6492  -21.4465   -7.4383 C   0  0  0  0  0  0  0  0  0  0  0  0
   26.3744  -20.0754   -8.0047 C   0  0  1  0  0  0  0  0  0  0  0  0
   26.8383  -19.0728   -6.9369 C   0  0  0  0  0  0  0  0  0  0  0  0
   27.1376  -19.7676   -9.2366 C   0  0  0  0  0  0  0  0  0  0  0  0
   26.8193  -20.5555  -10.4553 C   0  0  2  0  0  0  0  0  0  0  0  0
   27.6021  -20.2763  -11.6178 N   0  0  0  0  0  0  0  0  0  0  0  0
   25.3525  -20.3063  -10.7354 C   0  0  0  0  0  0  0  0  0  0  0  0
   25.0014  -19.1554  -11.0962 O   0  0  0  0  0  0  0  0  0  0  0  0
   24.3725  -21.3043  -10.6092 N   0  0  0  0  0  0  0  0  0  0  0  0
   22.9697  -21.0969  -10.9297 C   0  0  1  0  0  0  0  0  0  0  0  0
   22.5679  -22.2896  -11.8076 C   0  0  0  0  0  0  0  0  0  0  0  0
   21.1662  -22.0703  -12.2057 C   0  0  0  0  0  0  0  0  0  0  0  0
   20.8845  -21.3000  -13.3139 C   0  0  0  0  0  0  0  0  0  0  0  0
   19.5864  -21.0704  -13.7200 C   0  0  0  0  0  0  0  0  0  0  0  0
   18.5149  -21.6056  -13.0292 C   0  0  0  0  0  0  0  0  0  0  0  0
   18.8213  -22.3740  -11.9222 C   0  0  0  0  0  0  0  0  0  0  0  0
   20.1032  -22.6181  -11.4965 C   0  0  0  0  0  0  0  0  0  0  0  0
   22.1123  -21.1424   -9.7395 C   0  0  0  0  0  0  0  0  0  0  0  0
   21.0034  -20.3107   -9.6895 O   0  0  0  0  0  0  0  0  0  0  0  0
   22.3395  -21.8947   -8.7768 O   0  0  0  0  0  0  0  0  0  0  0  0
  1  2  1  0
  3  4  2  0
  3  2  1  0
  6  5  1  1
  6  8  1  0
  7  6  1  0
  9  8  1  1
  9 11  1  0
  9 10  1  0
 10  3  1  0
 11 12  2  0
 13 11  1  0
 13 14  1  0
 14 15  1  6
 14 22  1  0
 16 15  1  0
 17 16  2  0
 18 17  1  0
 19 20  1  0
 19 18  2  0
 20 21  2  0
 21 16  1  0
 22 24  2  0
 22 23  1  0
M  END
$$$$
