GLF.pdb
     RDKit          3D

 24 24  0  0  1  0  0  0  0  0999 V2000
   28.4375  -23.3716  -16.1577 N   0  0  0  0  0  0  0  0  0  0  0  0
   27.2472  -23.4604  -15.3548 C   0  0  0  0  0  0  0  0  0  0  0  0
   27.1795  -22.3348  -14.3684 C   0  0  0  0  0  0  0  0  0  0  0  0
   28.1699  -21.5657  -14.2597 O   0  0  0  0  0  0  0  0  0  0  0  0
   22.7875  -19.1146  -14.4529 C   0  0  0  0  0  0  0  0  0  0  0  0
   24.1634  -19.7228  -14.3375 C   0  0  1  0  0  0  0  0  0  0  0  0
   25.1573  -18.5679  -14.5359 C   0  0  0  0  0  0  0  0  0  0  0  0
   24.4539  -20.3098  -13.0088 C   0  0  0  0  0  0  0  0  0  0  0  0
   25.7751  -20.9633  -12.8218 C   0  0  2  0  0  0  0  0  0  0  0  0
   26.0110  -22.1528  -13.5778 N   0  0  0  0  0  0  0  0  0  0  0  0
   25.8867  -21.2502  -11.3395 C   0  0  0  0  0  0  0  0  0  0  0  0
   25.3553  -22.2972  -10.8931 O   0  0  0  0  0  0  0  0  0  0  0  0
   26.5568  -20.3979  -10.4469 N   0  0  0  0  0  0  0  0  0  0  0  0
   26.5343  -20.5692   -9.0034 C   0  0  1  0  0  0  0  0  0  0  0  0
   27.0860  -19.2593   -8.4252 C   0  0  0  0  0  0  0  0  0  0  0  0
   27.7403  -19.6008   -7.1498 C   0  0  0  0  0  0  0  0  0  0  0  0
   27.4790  -18.8464   -6.0257 C   0  0  0  0  0  0  0  0  0  0  0  0
   28.0707  -19.1326   -4.8130 C   0  0  0  0  0  0  0  0  0  0  0  0
   28.9511  -20.1901   -4.6779 C   0  0  0  0  0  0  0  0  0  0  0  0
   29.1978  -20.9320   -5.8175 C   0  0  0  0  0  0  0  0  0  0  0  0
   28.6229  -20.6690   -7.0358 C   0  0  0  0  0  0  0  0  0  0  0  0
   25.1715  -20.7194   -8.4800 C   0  0  0  0  0  0  0  0  0  0  0  0
   24.1452  -20.0155   -9.0924 O   0  0  0  0  0  0  0  0  0  0  0  0
   24.9008  -21.4505   -7.5122 O   0  0  0  0  0  0  0  0  0  0  0  0
  1  2  1  0
  3  4  2  0
  3  2  1  0
  6  5  1  1
  6  8  1  0
  7  6  1  0
  9  8  1  1
  9 11  1  0
  9 10  1  0
 10  3  1  0
 11 12  2  0
 13 11  1  0
 13 14  1  0
 14 15  1  1
 14 22  1  0
 16 15  1  0
 17 16  2  0
 18 17  1  0
 19 20  1  0
 19 18  2  0
 20 21  2  0
 21 16  1  0
 22 24  2  0
 22 23  1  0
M  END
$$$$
