GLF.pdb
     RDKit          3D

 24 24  0  0  1  0  0  0  0  0999 V2000
   28.9846  -17.7069  -17.1939 N   0  0  0  0  0  0  0  0  0  0  0  0
   27.9538  -17.3244  -16.2663 C   0  0  0  0  0  0  0  0  0  0  0  0
   27.2803  -18.5297  -15.6848 C   0  0  0  0  0  0  0  0  0  0  0  0
   26.9039  -19.4457  -16.4615 O   0  0  0  0  0  0  0  0  0  0  0  0
   28.7738  -21.2179  -12.3464 C   0  0  0  0  0  0  0  0  0  0  0  0
   27.3586  -21.1550  -11.8274 C   0  0  1  0  0  0  0  0  0  0  0  0
   27.4681  -21.1252  -10.2951 C   0  0  0  0  0  0  0  0  0  0  0  0
   26.6243  -19.9312  -12.2246 C   0  0  0  0  0  0  0  0  0  0  0  0
   26.3855  -19.7154  -13.6751 C   0  0  2  0  0  0  0  0  0  0  0  0
   27.0780  -18.6213  -14.2796 N   0  0  0  0  0  0  0  0  0  0  0  0
   24.8892  -19.5390  -13.8244 C   0  0  0  0  0  0  0  0  0  0  0  0
   24.3734  -18.4631  -13.4314 O   0  0  0  0  0  0  0  0  0  0  0  0
   24.0578  -20.5242  -14.3817 N   0  0  0  0  0  0  0  0  0  0  0  0
   22.7271  -20.2523  -14.8999 C   0  0  1  0  0  0  0  0  0  0  0  0
   22.9447  -19.4703  -16.2021 C   0  0  0  0  0  0  0  0  0  0  0  0
   21.6088  -19.1894  -16.7568 C   0  0  0  0  0  0  0  0  0  0  0  0
   20.8769  -18.1280  -16.2683 C   0  0  0  0  0  0  0  0  0  0  0  0
   19.6228  -17.8312  -16.7602 C   0  0  0  0  0  0  0  0  0  0  0  0
   19.0501  -18.5891  -17.7648 C   0  0  0  0  0  0  0  0  0  0  0  0
   19.8018  -19.6475  -18.2388 C   0  0  0  0  0  0  0  0  0  0  0  0
   21.0513  -19.9646  -17.7674 C   0  0  0  0  0  0  0  0  0  0  0  0
   22.0069  -21.4790  -15.2609 C   0  0  0  0  0  0  0  0  0  0  0  0
   20.6395  -21.5354  -15.0353 O   0  0  0  0  0  0  0  0  0  0  0  0
   22.5720  -22.4672  -15.7595 O   0  0  0  0  0  0  0  0  0  0  0  0
  1  2  1  0
  3  4  2  0
  3  2  1  0
  6  5  1  6
  6  8  1  0
  7  6  1  0
  9  8  1  1
  9 11  1  0
  9 10  1  0
 10  3  1  0
 11 12  2  0
 13 11  1  0
 13 14  1  0
 14 15  1  6
 14 22  1  0
 16 15  1  0
 17 16  2  0
 18 17  1  0
 19 20  1  0
 19 18  2  0
 20 21  2  0
 21 16  1  0
 22 24  2  0
 22 23  1  0
M  END
$$$$
