GLF.pdb
     RDKit          3D

 24 24  0  0  1  0  0  0  0  0999 V2000
   29.3541  -22.1710  -14.8550 N   0  0  0  0  0  0  0  0  0  0  0  0
   29.3189  -21.0672  -13.9332 C   0  0  0  0  0  0  0  0  0  0  0  0
   28.3788  -21.3435  -12.8000 C   0  0  0  0  0  0  0  0  0  0  0  0
   27.4058  -22.1173  -12.9965 O   0  0  0  0  0  0  0  0  0  0  0  0
   27.7826  -19.9517   -6.6843 C   0  0  0  0  0  0  0  0  0  0  0  0
   27.2711  -20.5798   -7.9571 C   0  0  1  0  0  0  0  0  0  0  0  0
   25.8733  -19.9870   -8.1925 C   0  0  0  0  0  0  0  0  0  0  0  0
   28.0777  -20.2551   -9.1565 C   0  0  0  0  0  0  0  0  0  0  0  0
   27.6946  -20.9043  -10.4369 C   0  0  2  0  0  0  0  0  0  0  0  0
   28.5960  -20.7349  -11.5326 N   0  0  0  0  0  0  0  0  0  0  0  0
   26.3296  -20.3508  -10.7870 C   0  0  0  0  0  0  0  0  0  0  0  0
   26.2063  -19.1078  -10.9199 O   0  0  0  0  0  0  0  0  0  0  0  0
   25.2006  -21.1661  -10.9685 N   0  0  0  0  0  0  0  0  0  0  0  0
   23.9696  -20.7058  -11.5899 C   0  0  1  0  0  0  0  0  0  0  0  0
   23.7214  -21.6591  -12.7664 C   0  0  0  0  0  0  0  0  0  0  0  0
   22.4828  -21.2075  -13.4246 C   0  0  0  0  0  0  0  0  0  0  0  0
   22.5116  -20.1009  -14.2465 C   0  0  0  0  0  0  0  0  0  0  0  0
   21.3746  -19.6456  -14.8811 C   0  0  0  0  0  0  0  0  0  0  0  0
   20.1590  -20.2835  -14.7168 C   0  0  0  0  0  0  0  0  0  0  0  0
   20.1541  -21.3900  -13.8888 C   0  0  0  0  0  0  0  0  0  0  0  0
   21.2703  -21.8638  -13.2456 C   0  0  0  0  0  0  0  0  0  0  0  0
   22.8123  -20.8301  -10.6960 C   0  0  0  0  0  0  0  0  0  0  0  0
   22.8108  -21.8455   -9.7512 O   0  0  0  0  0  0  0  0  0  0  0  0
   21.8357  -20.0636  -10.7516 O   0  0  0  0  0  0  0  0  0  0  0  0
  1  2  1  0
  3  4  2  0
  3  2  1  0
  6  5  1  1
  6  8  1  0
  7  6  1  0
  9  8  1  1
  9 11  1  0
  9 10  1  0
 10  3  1  0
 11 12  2  0
 13 11  1  0
 13 14  1  0
 14 15  1  6
 14 22  1  0
 16 15  1  0
 17 16  2  0
 18 17  1  0
 19 20  1  0
 19 18  2  0
 20 21  2  0
 21 16  1  0
 22 24  2  0
 22 23  1  0
M  END
$$$$
