GLF.pdb
     RDKit          3D

 24 24  0  0  1  0  0  0  0  0999 V2000
   21.0444  -21.0364  -13.0886 N   0  0  0  0  0  0  0  0  0  0  0  0
   21.6576  -20.0795  -12.2069 C   0  0  0  0  0  0  0  0  0  0  0  0
   22.8879  -20.6485  -11.5687 C   0  0  0  0  0  0  0  0  0  0  0  0
   22.7577  -21.5610  -10.7117 O   0  0  0  0  0  0  0  0  0  0  0  0
   28.0039  -20.3905  -14.1845 C   0  0  0  0  0  0  0  0  0  0  0  0
   26.7286  -20.8026  -13.4915 C   0  0  1  0  0  0  0  0  0  0  0  0
   26.7337  -22.3388  -13.4687 C   0  0  0  0  0  0  0  0  0  0  0  0
   26.6373  -20.3570  -12.0816 C   0  0  0  0  0  0  0  0  0  0  0  0
   25.3774  -20.6494  -11.3503 C   0  0  2  0  0  0  0  0  0  0  0  0
   24.1710  -20.1557  -11.9358 N   0  0  0  0  0  0  0  0  0  0  0  0
   25.5636  -20.0738   -9.9625 C   0  0  0  0  0  0  0  0  0  0  0  0
   25.2230  -18.8816   -9.7607 O   0  0  0  0  0  0  0  0  0  0  0  0
   26.0990  -20.8144   -8.8961 N   0  0  0  0  0  0  0  0  0  0  0  0
   26.5588  -20.2154   -7.6539 C   0  0  1  0  0  0  0  0  0  0  0  0
   27.2031  -21.3593   -6.8595 C   0  0  0  0  0  0  0  0  0  0  0  0
   27.8906  -20.7437   -5.7108 C   0  0  0  0  0  0  0  0  0  0  0  0
   29.2164  -20.3825   -5.8229 C   0  0  0  0  0  0  0  0  0  0  0  0
   29.8963  -19.8038   -4.7715 C   0  0  0  0  0  0  0  0  0  0  0  0
   29.2723  -19.5630   -3.5613 C   0  0  0  0  0  0  0  0  0  0  0  0
   27.9439  -19.9332   -3.4721 C   0  0  0  0  0  0  0  0  0  0  0  0
   27.2441  -20.5104   -4.5022 C   0  0  0  0  0  0  0  0  0  0  0  0
   27.6072  -19.2119   -7.8723 C   0  0  0  0  0  0  0  0  0  0  0  0
   27.5637  -18.0371   -7.1361 O   0  0  0  0  0  0  0  0  0  0  0  0
   28.5304  -19.3722   -8.6886 O   0  0  0  0  0  0  0  0  0  0  0  0
  1  2  1  0
  3  4  2  0
  3  2  1  0
  6  5  1  1
  6  8  1  0
  7  6  1  0
  9  8  1  6
  9 11  1  0
  9 10  1  0
 10  3  1  0
 11 12  2  0
 13 11  1  0
 13 14  1  0
 14 15  1  1
 14 22  1  0
 16 15  1  0
 17 16  2  0
 18 17  1  0
 19 20  1  0
 19 18  2  0
 20 21  2  0
 21 16  1  0
 22 24  2  0
 22 23  1  0
M  END
$$$$
