GLF.pdb
     RDKit          3D

 24 24  0  0  1  0  0  0  0  0999 V2000
   14.2578  -13.3535    4.8220 N   0  0  0  0  0  0  0  0  0  0  0  0
   14.5656  -14.3774    3.8597 C   0  0  0  0  0  0  0  0  0  0  0  0
   15.3396  -15.4935    4.4919 C   0  0  0  0  0  0  0  0  0  0  0  0
   15.1490  -15.7474    5.7098 O   0  0  0  0  0  0  0  0  0  0  0  0
   16.7967  -20.2221    1.6674 C   0  0  0  0  0  0  0  0  0  0  0  0
   16.3251  -19.2621    2.7315 C   0  0  1  0  0  0  0  0  0  0  0  0
   15.8055  -20.1301    3.8879 C   0  0  0  0  0  0  0  0  0  0  0  0
   17.3978  -18.4070    3.2908 C   0  0  0  0  0  0  0  0  0  0  0  0
   16.9985  -17.3471    4.2524 C   0  0  2  0  0  0  0  0  0  0  0  0
   16.2681  -16.2420    3.7165 N   0  0  0  0  0  0  0  0  0  0  0  0
   18.2833  -16.8681    4.8942 C   0  0  0  0  0  0  0  0  0  0  0  0
   19.1749  -16.3829    4.1541 O   0  0  0  0  0  0  0  0  0  0  0  0
   18.5185  -16.9434    6.2767 N   0  0  0  0  0  0  0  0  0  0  0  0
   19.7603  -16.5216    6.9039 C   0  0  1  0  0  0  0  0  0  0  0  0
   19.3837  -15.3412    7.8090 C   0  0  0  0  0  0  0  0  0  0  0  0
   19.5177  -14.1213    6.9934 C   0  0  0  0  0  0  0  0  0  0  0  0
   20.7080  -13.4255    6.9974 C   0  0  0  0  0  0  0  0  0  0  0  0
   20.8745  -12.2794    6.2482 C   0  0  0  0  0  0  0  0  0  0  0  0
   19.8510  -11.7831    5.4621 C   0  0  0  0  0  0  0  0  0  0  0  0
   18.6676  -12.4967    5.4738 C   0  0  0  0  0  0  0  0  0  0  0  0
   18.4754  -13.6393    6.2096 C   0  0  0  0  0  0  0  0  0  0  0  0
   20.3253  -17.5576    7.7765 C   0  0  0  0  0  0  0  0  0  0  0  0
   21.5751  -17.3418    8.3380 O   0  0  0  0  0  0  0  0  0  0  0  0
   19.7301  -18.6182    8.0318 O   0  0  0  0  0  0  0  0  0  0  0  0
  1  2  1  0
  3  4  2  0
  3  2  1  0
  6  5  1  6
  6  8  1  0
  7  6  1  0
  9  8  1  6
  9 11  1  0
  9 10  1  0
 10  3  1  0
 11 12  2  0
 13 11  1  0
 13 14  1  0
 14 15  1  1
 14 22  1  0
 16 15  1  0
 17 16  2  0
 18 17  1  0
 19 20  1  0
 19 18  2  0
 20 21  2  0
 21 16  1  0
 22 24  2  0
 22 23  1  0
M  END
$$$$
