CAM.pdb
     RDKit          3D

 20 19  0  0  1  0  0  0  0  0999 V2000
    7.2436  -13.5246   18.4320 N   0  0  0  0  0  0  0  0  0  0  0  0
    8.2164  -14.3727   19.0887 C   0  0  1  0  0  0  0  0  0  0  0  0
    9.4133  -13.4648   19.4003 C   0  0  0  0  0  0  0  0  0  0  0  0
    8.8100  -12.0460   20.3934 S   0  0  0  0  0  0  0  0  0  0  0  0
    7.7293  -14.8854   20.3861 C   0  0  0  0  0  0  0  0  0  0  0  0
    6.8673  -14.2074   21.0022 O   0  0  0  0  0  0  0  0  0  0  0  0
    7.7941  -18.1522   22.1015 C   0  0  0  0  0  0  0  0  0  0  0  0
    7.6473  -16.6285   22.2230 C   0  0  2  0  0  0  0  0  0  0  0  0
    8.1661  -16.0866   20.9821 N   0  0  0  0  0  0  0  0  0  0  0  0
    8.5233  -16.1382   23.3296 C   0  0  0  0  0  0  0  0  0  0  0  0
    9.7861  -16.0647   23.1979 O   0  0  0  0  0  0  0  0  0  0  0  0
    5.5200  -11.6771   25.7549 C   0  0  0  0  0  0  0  0  0  0  0  0
    6.7871  -11.9895   27.0076 S   0  0  0  0  0  0  0  0  0  0  0  0
    8.1937  -12.9274   26.3126 C   0  0  0  0  0  0  0  0  0  0  0  0
    8.0538  -14.3956   26.6073 C   0  0  0  0  0  0  0  0  0  0  0  0
    8.8609  -15.2095   25.6492 C   0  0  2  0  0  0  0  0  0  0  0  0
    7.9918  -15.7321   24.5771 N   0  0  0  0  0  0  0  0  0  0  0  0
    9.4437  -16.3766   26.3302 C   0  0  0  0  0  0  0  0  0  0  0  0
   10.7016  -16.2205   26.9494 O   0  0  0  0  0  0  0  0  0  0  0  0
    8.9132  -17.5163   26.4106 O   0  0  0  0  0  0  0  0  0  0  0  0
  2  1  1  1
  3  2  1  0
  4  3  1  0
  5  2  1  0
  6  5  2  0
  8  7  1  6
  8 10  1  0
  8  9  1  0
  9  5  1  0
 10 11  2  0
 13 12  1  0
 13 14  1  0
 14 15  1  0
 16 15  1  1
 17 16  1  0
 17 10  1  0
 18 19  1  0
 18 16  1  0
 20 18  2  0
M  END
$$$$
