CAM.pdb
     RDKit          3D

 20 19  0  0  1  0  0  0  0  0999 V2000
    7.7575  -13.6616   17.6970 N   0  0  0  0  0  0  0  0  0  0  0  0
    8.8199  -14.4508   18.2848 C   0  0  1  0  0  0  0  0  0  0  0  0
    9.9671  -13.4674   18.5506 C   0  0  0  0  0  0  0  0  0  0  0  0
    9.3648  -12.1908   19.7213 S   0  0  0  0  0  0  0  0  0  0  0  0
    8.4395  -15.0164   19.5958 C   0  0  0  0  0  0  0  0  0  0  0  0
    7.5580  -14.4169   20.2635 O   0  0  0  0  0  0  0  0  0  0  0  0
    9.2690  -18.1738   21.4292 C   0  0  0  0  0  0  0  0  0  0  0  0
    8.5343  -16.8269   21.3657 C   0  0  2  0  0  0  0  0  0  0  0  0
    8.9989  -16.1860   20.1508 N   0  0  0  0  0  0  0  0  0  0  0  0
    8.9667  -15.9778   22.5165 C   0  0  0  0  0  0  0  0  0  0  0  0
   10.0210  -15.2685   22.4629 O   0  0  0  0  0  0  0  0  0  0  0  0
    6.2821  -10.9433   27.8038 C   0  0  0  0  0  0  0  0  0  0  0  0
    5.9866  -12.1961   26.5327 S   0  0  0  0  0  0  0  0  0  0  0  0
    7.5075  -13.1397   26.1613 C   0  0  0  0  0  0  0  0  0  0  0  0
    7.2629  -14.1340   25.0597 C   0  0  0  0  0  0  0  0  0  0  0  0
    8.5071  -14.9004   24.7492 C   0  0  2  0  0  0  0  0  0  0  0  0
    8.2256  -15.9210   23.7211 N   0  0  0  0  0  0  0  0  0  0  0  0
    8.9795  -15.6193   25.9432 C   0  0  0  0  0  0  0  0  0  0  0  0
    8.8186  -17.0204   25.9779 O   0  0  0  0  0  0  0  0  0  0  0  0
    9.5212  -15.0888   26.9491 O   0  0  0  0  0  0  0  0  0  0  0  0
  2  1  1  1
  3  2  1  0
  4  3  1  0
  5  2  1  0
  6  5  2  0
  8  7  1  1
  8 10  1  0
  8  9  1  0
  9  5  1  0
 10 11  2  0
 13 12  1  0
 13 14  1  0
 14 15  1  0
 16 15  1  1
 17 16  1  0
 17 10  1  0
 18 19  1  0
 18 16  1  0
 20 18  2  0
M  END
$$$$
