CAM.pdb
     RDKit          3D

 20 19  0  0  1  0  0  0  0  0999 V2000
    8.2595  -14.8604   16.9701 N   0  0  0  0  0  0  0  0  0  0  0  0
    8.7216  -14.3955   18.2614 C   0  0  1  0  0  0  0  0  0  0  0  0
    8.0409  -13.0380   18.4801 C   0  0  0  0  0  0  0  0  0  0  0  0
    8.6448  -12.3459   20.0674 S   0  0  0  0  0  0  0  0  0  0  0  0
    8.2767  -15.2711   19.3654 C   0  0  0  0  0  0  0  0  0  0  0  0
    7.0557  -15.5672   19.4280 O   0  0  0  0  0  0  0  0  0  0  0  0
    9.5463  -17.9068   21.3772 C   0  0  0  0  0  0  0  0  0  0  0  0
    8.6960  -16.6309   21.4617 C   0  0  2  0  0  0  0  0  0  0  0  0
    9.1301  -15.7989   20.3562 N   0  0  0  0  0  0  0  0  0  0  0  0
    9.0236  -15.9061   22.7265 C   0  0  0  0  0  0  0  0  0  0  0  0
   10.1461  -15.3325   22.8949 O   0  0  0  0  0  0  0  0  0  0  0  0
    6.3785  -10.6731   27.3184 C   0  0  0  0  0  0  0  0  0  0  0  0
    6.0502  -12.2243   26.4477 S   0  0  0  0  0  0  0  0  0  0  0  0
    7.5512  -13.2629   26.3482 C   0  0  0  0  0  0  0  0  0  0  0  0
    7.2417  -14.5881   25.7078 C   0  0  0  0  0  0  0  0  0  0  0  0
    8.4621  -15.1690   25.0713 C   0  0  2  0  0  0  0  0  0  0  0  0
    8.1024  -15.8224   23.7979 N   0  0  0  0  0  0  0  0  0  0  0  0
    9.0451  -16.2099   25.9328 C   0  0  0  0  0  0  0  0  0  0  0  0
    9.8923  -15.8000   26.9837 O   0  0  0  0  0  0  0  0  0  0  0  0
    8.8528  -17.4492   25.8143 O   0  0  0  0  0  0  0  0  0  0  0  0
  2  1  1  6
  3  2  1  0
  4  3  1  0
  5  2  1  0
  6  5  2  0
  8  7  1  1
  8 10  1  0
  8  9  1  0
  9  5  1  0
 10 11  2  0
 13 12  1  0
 13 14  1  0
 14 15  1  0
 16 15  1  1
 17 16  1  0
 17 10  1  0
 18 19  1  0
 18 16  1  0
 20 18  2  0
M  END
$$$$
