CAM.pdb
     RDKit          3D

 20 19  0  0  1  0  0  0  0  0999 V2000
    6.7620  -20.0096   21.3702 N   0  0  0  0  0  0  0  0  0  0  0  0
    6.4641  -18.7650   22.0479 C   0  0  1  0  0  0  0  0  0  0  0  0
    6.7379  -19.0277   23.5345 C   0  0  0  0  0  0  0  0  0  0  0  0
    5.4219  -20.1354   24.1702 S   0  0  0  0  0  0  0  0  0  0  0  0
    7.3718  -17.6726   21.6403 C   0  0  0  0  0  0  0  0  0  0  0  0
    8.6086  -17.9023   21.6405 O   0  0  0  0  0  0  0  0  0  0  0  0
    6.9258  -14.1837   20.3524 C   0  0  0  0  0  0  0  0  0  0  0  0
    7.8310  -15.2884   20.9166 C   0  0  2  0  0  0  0  0  0  0  0  0
    6.9447  -16.3866   21.2498 N   0  0  0  0  0  0  0  0  0  0  0  0
    8.4538  -14.8105   22.1879 C   0  0  0  0  0  0  0  0  0  0  0  0
    9.3595  -13.9178   22.1923 O   0  0  0  0  0  0  0  0  0  0  0  0
    7.0873  -10.6908   27.9293 C   0  0  0  0  0  0  0  0  0  0  0  0
    6.3785  -12.1859   27.1983 S   0  0  0  0  0  0  0  0  0  0  0  0
    7.6837  -13.3268   26.6182 C   0  0  0  0  0  0  0  0  0  0  0  0
    7.3228  -13.9151   25.2820 C   0  0  0  0  0  0  0  0  0  0  0  0
    8.4751  -14.6711   24.7051 C   0  0  2  0  0  0  0  0  0  0  0  0
    8.0672  -15.3271   23.4477 N   0  0  0  0  0  0  0  0  0  0  0  0
    8.8999  -15.7398   25.6233 C   0  0  0  0  0  0  0  0  0  0  0  0
    8.8943  -17.0658   25.1417 O   0  0  0  0  0  0  0  0  0  0  0  0
    9.2726  -15.5743   26.8151 O   0  0  0  0  0  0  0  0  0  0  0  0
  2  1  1  6
  3  2  1  0
  4  3  1  0
  5  2  1  0
  6  5  2  0
  8  7  1  1
  8 10  1  0
  8  9  1  0
  9  5  1  0
 10 11  2  0
 13 12  1  0
 13 14  1  0
 14 15  1  0
 16 15  1  1
 17 16  1  0
 17 10  1  0
 18 19  1  0
 18 16  1  0
 20 18  2  0
M  END
$$$$
