CAM.pdb
     RDKit          3D

 20 19  0  0  1  0  0  0  0  0999 V2000
    6.2060  -20.0471   20.9291 N   0  0  0  0  0  0  0  0  0  0  0  0
    6.3035  -18.6921   21.4304 C   0  0  1  0  0  0  0  0  0  0  0  0
    5.5134  -18.6798   22.7455 C   0  0  0  0  0  0  0  0  0  0  0  0
    3.7321  -18.8469   22.3427 S   0  0  0  0  0  0  0  0  0  0  0  0
    7.6918  -18.3182   21.7711 C   0  0  0  0  0  0  0  0  0  0  0  0
    8.3997  -19.1651   22.3745 O   0  0  0  0  0  0  0  0  0  0  0  0
   10.1743  -16.1162   20.3923 C   0  0  0  0  0  0  0  0  0  0  0  0
    9.6685  -16.7347   21.7037 C   0  0  2  0  0  0  0  0  0  0  0  0
    8.2789  -17.0730   21.4649 N   0  0  0  0  0  0  0  0  0  0  0  0
    9.7012  -15.6981   22.7793 C   0  0  0  0  0  0  0  0  0  0  0  0
    9.7227  -14.4559   22.5079 O   0  0  0  0  0  0  0  0  0  0  0  0
    6.5247  -11.7734   27.2575 C   0  0  0  0  0  0  0  0  0  0  0  0
    7.4712  -12.7132   26.0354 S   0  0  0  0  0  0  0  0  0  0  0  0
    6.7420  -14.3660   25.7558 C   0  0  0  0  0  0  0  0  0  0  0  0
    7.5334  -15.1320   24.7317 C   0  0  0  0  0  0  0  0  0  0  0  0
    8.9622  -15.2585   25.1494 C   0  0  2  0  0  0  0  0  0  0  0  0
    9.7100  -16.0471   24.1510 N   0  0  0  0  0  0  0  0  0  0  0  0
    9.0623  -15.9843   26.4256 C   0  0  0  0  0  0  0  0  0  0  0  0
    9.6009  -15.2994   27.5350 O   0  0  0  0  0  0  0  0  0  0  0  0
    8.7055  -17.1770   26.6180 O   0  0  0  0  0  0  0  0  0  0  0  0
  2  1  1  1
  3  2  1  0
  4  3  1  0
  5  2  1  0
  6  5  2  0
  8  7  1  6
  8 10  1  0
  8  9  1  0
  9  5  1  0
 10 11  2  0
 13 12  1  0
 13 14  1  0
 14 15  1  0
 16 15  1  6
 17 16  1  0
 17 10  1  0
 18 19  1  0
 18 16  1  0
 20 18  2  0
M  END
$$$$
