CAM.pdb
     RDKit          3D

 20 19  0  0  1  0  0  0  0  0999 V2000
    7.5641  -15.0131   18.0039 N   0  0  0  0  0  0  0  0  0  0  0  0
    8.4846  -14.6094   19.0463 C   0  0  1  0  0  0  0  0  0  0  0  0
    8.1089  -13.1628   19.3925 C   0  0  0  0  0  0  0  0  0  0  0  0
    8.7928  -12.0681   18.0898 S   0  0  0  0  0  0  0  0  0  0  0  0
    8.3103  -15.3964   20.2847 C   0  0  0  0  0  0  0  0  0  0  0  0
    7.2014  -15.3299   20.8748 O   0  0  0  0  0  0  0  0  0  0  0  0
   10.2403  -18.0618   22.0306 C   0  0  0  0  0  0  0  0  0  0  0  0
    9.1462  -16.9851   22.0726 C   0  0  2  0  0  0  0  0  0  0  0  0
    9.3054  -16.2194   20.8516 N   0  0  0  0  0  0  0  0  0  0  0  0
    9.4085  -16.0640   23.2194 C   0  0  0  0  0  0  0  0  0  0  0  0
   10.3235  -15.1821   23.1705 O   0  0  0  0  0  0  0  0  0  0  0  0
    5.4455  -12.0699   26.3182 C   0  0  0  0  0  0  0  0  0  0  0  0
    7.1437  -12.0204   26.9396 S   0  0  0  0  0  0  0  0  0  0  0  0
    7.8166  -13.7038   27.1735 C   0  0  0  0  0  0  0  0  0  0  0  0
    7.6224  -14.5332   25.9339 C   0  0  0  0  0  0  0  0  0  0  0  0
    8.9002  -15.1937   25.5304 C   0  0  2  0  0  0  0  0  0  0  0  0
    8.6530  -16.1274   24.4146 N   0  0  0  0  0  0  0  0  0  0  0  0
    9.4387  -15.9935   26.6420 C   0  0  0  0  0  0  0  0  0  0  0  0
   10.1188  -15.3154   27.6754 O   0  0  0  0  0  0  0  0  0  0  0  0
    9.3456  -17.2446   26.7547 O   0  0  0  0  0  0  0  0  0  0  0  0
  2  1  1  6
  3  2  1  0
  4  3  1  0
  5  2  1  0
  6  5  2  0
  8  7  1  6
  8 10  1  0
  8  9  1  0
  9  5  1  0
 10 11  2  0
 13 12  1  0
 13 14  1  0
 14 15  1  0
 16 15  1  1
 17 16  1  0
 17 10  1  0
 18 19  1  0
 18 16  1  0
 20 18  2  0
M  END
$$$$
