CAM.pdb
     RDKit          3D

 20 19  0  0  1  0  0  0  0  0999 V2000
    7.1769  -14.5854   18.7112 N   0  0  0  0  0  0  0  0  0  0  0  0
    8.3261  -14.3473   19.5596 C   0  0  1  0  0  0  0  0  0  0  0  0
    8.1978  -12.8929   20.0311 C   0  0  0  0  0  0  0  0  0  0  0  0
    8.6535  -11.7974   18.6327 S   0  0  0  0  0  0  0  0  0  0  0  0
    8.3092  -15.1860   20.7760 C   0  0  0  0  0  0  0  0  0  0  0  0
    7.2693  -15.1780   21.4838 O   0  0  0  0  0  0  0  0  0  0  0  0
   10.5263  -17.8466   22.1632 C   0  0  0  0  0  0  0  0  0  0  0  0
    9.3469  -16.8806   22.3478 C   0  0  2  0  0  0  0  0  0  0  0  0
    9.3826  -15.9973   21.1985 N   0  0  0  0  0  0  0  0  0  0  0  0
    9.5824  -16.0462   23.5647 C   0  0  0  0  0  0  0  0  0  0  0  0
   10.5020  -15.1687   23.6038 O   0  0  0  0  0  0  0  0  0  0  0  0
    6.4558  -11.3102   27.1155 C   0  0  0  0  0  0  0  0  0  0  0  0
    5.9211  -12.7050   26.0954 S   0  0  0  0  0  0  0  0  0  0  0  0
    7.3504  -13.6313   25.4316 C   0  0  0  0  0  0  0  0  0  0  0  0
    7.7605  -14.7280   26.3755 C   0  0  0  0  0  0  0  0  0  0  0  0
    9.0368  -15.3637   25.9297 C   0  0  2  0  0  0  0  0  0  0  0  0
    8.7949  -16.1911   24.7319 N   0  0  0  0  0  0  0  0  0  0  0  0
    9.5532  -16.2656   26.9716 C   0  0  0  0  0  0  0  0  0  0  0  0
    9.5290  -17.6528   26.7164 O   0  0  0  0  0  0  0  0  0  0  0  0
   10.0205  -15.9051   28.0844 O   0  0  0  0  0  0  0  0  0  0  0  0
  2  1  1  6
  3  2  1  0
  4  3  1  0
  5  2  1  0
  6  5  2  0
  8  7  1  6
  8 10  1  0
  8  9  1  0
  9  5  1  0
 10 11  2  0
 13 12  1  0
 13 14  1  0
 14 15  1  0
 16 15  1  1
 17 16  1  0
 17 10  1  0
 18 19  1  0
 18 16  1  0
 20 18  2  0
M  END
$$$$
