CAM.pdb
     RDKit          3D

 20 19  0  0  1  0  0  0  0  0999 V2000
    7.8106  -14.7044   17.2500 N   0  0  0  0  0  0  0  0  0  0  0  0
    8.7725  -14.4545   18.3033 C   0  0  1  0  0  0  0  0  0  0  0  0
    8.7005  -12.9471   18.5799 C   0  0  0  0  0  0  0  0  0  0  0  0
    9.9565  -12.5398   19.8526 S   0  0  0  0  0  0  0  0  0  0  0  0
    8.4105  -15.1309   19.5661 C   0  0  0  0  0  0  0  0  0  0  0  0
    7.2861  -14.8773   20.0699 O   0  0  0  0  0  0  0  0  0  0  0  0
    9.8222  -17.9460   21.5526 C   0  0  0  0  0  0  0  0  0  0  0  0
    8.8823  -16.7344   21.4702 C   0  0  2  0  0  0  0  0  0  0  0  0
    9.2420  -16.0442   20.2468 N   0  0  0  0  0  0  0  0  0  0  0  0
    9.1708  -15.8117   22.6094 C   0  0  0  0  0  0  0  0  0  0  0  0
   10.1961  -15.0594   22.6150 O   0  0  0  0  0  0  0  0  0  0  0  0
    6.0791  -11.2725   28.2365 C   0  0  0  0  0  0  0  0  0  0  0  0
    5.8832  -12.3422   26.7909 S   0  0  0  0  0  0  0  0  0  0  0  0
    7.4422  -13.2063   26.3855 C   0  0  0  0  0  0  0  0  0  0  0  0
    7.2852  -14.0337   25.1394 C   0  0  0  0  0  0  0  0  0  0  0  0
    8.5569  -14.7452   24.8099 C   0  0  2  0  0  0  0  0  0  0  0  0
    8.3186  -15.7296   23.7365 N   0  0  0  0  0  0  0  0  0  0  0  0
    9.0415  -15.4988   25.9773 C   0  0  0  0  0  0  0  0  0  0  0  0
    8.9443  -16.9057   25.9426 O   0  0  0  0  0  0  0  0  0  0  0  0
    9.5414  -14.9936   27.0173 O   0  0  0  0  0  0  0  0  0  0  0  0
  2  1  1  6
  3  2  1  0
  4  3  1  0
  5  2  1  0
  6  5  2  0
  8  7  1  1
  8 10  1  0
  8  9  1  0
  9  5  1  0
 10 11  2  0
 13 12  1  0
 13 14  1  0
 14 15  1  0
 16 15  1  1
 17 16  1  0
 17 10  1  0
 18 19  1  0
 18 16  1  0
 20 18  2  0
M  END
$$$$
