CAM.pdb
     RDKit          3D

 20 19  0  0  1  0  0  0  0  0999 V2000
    5.3518  -19.7193   21.9122 N   0  0  0  0  0  0  0  0  0  0  0  0
    5.7613  -18.7784   22.9340 C   0  0  1  0  0  0  0  0  0  0  0  0
    6.3579  -19.6282   24.0635 C   0  0  0  0  0  0  0  0  0  0  0  0
    5.7033  -18.9999   25.6572 S   0  0  0  0  0  0  0  0  0  0  0  0
    6.8388  -17.8799   22.4704 C   0  0  0  0  0  0  0  0  0  0  0  0
    8.0070  -18.3423   22.4092 O   0  0  0  0  0  0  0  0  0  0  0  0
    6.9260  -14.4841   20.9192 C   0  0  0  0  0  0  0  0  0  0  0  0
    7.6722  -15.6831   21.5221 C   0  0  2  0  0  0  0  0  0  0  0  0
    6.6461  -16.5354   22.0907 N   0  0  0  0  0  0  0  0  0  0  0  0
    8.5365  -15.2087   22.6447 C   0  0  0  0  0  0  0  0  0  0  0  0
    9.4919  -14.3918   22.4514 O   0  0  0  0  0  0  0  0  0  0  0  0
    5.5953  -11.2537   26.6226 C   0  0  0  0  0  0  0  0  0  0  0  0
    6.3363  -12.8533   27.0280 S   0  0  0  0  0  0  0  0  0  0  0  0
    7.6436  -13.3040   25.8324 C   0  0  0  0  0  0  0  0  0  0  0  0
    8.2549  -14.6320   26.1856 C   0  0  0  0  0  0  0  0  0  0  0  0
    9.1472  -15.1151   25.0891 C   0  0  2  0  0  0  0  0  0  0  0  0
    8.3350  -15.6443   23.9763 N   0  0  0  0  0  0  0  0  0  0  0  0
    9.9908  -16.2236   25.5637 C   0  0  0  0  0  0  0  0  0  0  0  0
   10.9728  -15.9377   26.5353 O   0  0  0  0  0  0  0  0  0  0  0  0
    9.9133  -17.4193   25.1752 O   0  0  0  0  0  0  0  0  0  0  0  0
  2  1  1  6
  3  2  1  0
  4  3  1  0
  5  2  1  0
  6  5  2  0
  8  7  1  1
  8 10  1  0
  8  9  1  0
  9  5  1  0
 10 11  2  0
 13 12  1  0
 13 14  1  0
 14 15  1  0
 16 15  1  1
 17 16  1  0
 17 10  1  0
 18 19  1  0
 18 16  1  0
 20 18  2  0
M  END
$$$$
