CAM.pdb
     RDKit          3D

 20 19  0  0  1  0  0  0  0  0999 V2000
    7.9431  -14.4107   17.1494 N   0  0  0  0  0  0  0  0  0  0  0  0
    8.6158  -14.0882   18.3906 C   0  0  1  0  0  0  0  0  0  0  0  0
    8.1915  -12.6535   18.7303 C   0  0  0  0  0  0  0  0  0  0  0  0
    8.8854  -12.2269   20.3734 S   0  0  0  0  0  0  0  0  0  0  0  0
    8.1622  -14.9369   19.5119 C   0  0  0  0  0  0  0  0  0  0  0  0
    6.9326  -15.1862   19.6032 O   0  0  0  0  0  0  0  0  0  0  0  0
    9.2512  -17.7571   21.1635 C   0  0  0  0  0  0  0  0  0  0  0  0
    8.5982  -16.4147   21.5232 C   0  0  2  0  0  0  0  0  0  0  0  0
    9.0164  -15.4880   20.4894 N   0  0  0  0  0  0  0  0  0  0  0  0
    9.1603  -15.9275   22.8190 C   0  0  0  0  0  0  0  0  0  0  0  0
   10.3851  -15.6054   22.9354 O   0  0  0  0  0  0  0  0  0  0  0  0
    5.7407  -10.9181   25.9049 C   0  0  0  0  0  0  0  0  0  0  0  0
    6.1560  -12.5677   26.5203 S   0  0  0  0  0  0  0  0  0  0  0  0
    7.4888  -13.3320   25.5298 C   0  0  0  0  0  0  0  0  0  0  0  0
    7.8531  -14.6841   26.0785 C   0  0  0  0  0  0  0  0  0  0  0  0
    8.9242  -15.3213   25.2549 C   0  0  2  0  0  0  0  0  0  0  0  0
    8.3589  -15.8010   23.9788 N   0  0  0  0  0  0  0  0  0  0  0  0
    9.4719  -16.4993   25.9462 C   0  0  0  0  0  0  0  0  0  0  0  0
   10.4227  -16.2845   26.9660 O   0  0  0  0  0  0  0  0  0  0  0  0
    9.1637  -17.6968   25.7058 O   0  0  0  0  0  0  0  0  0  0  0  0
  2  1  1  6
  3  2  1  0
  4  3  1  0
  5  2  1  0
  6  5  2  0
  8  7  1  6
  8 10  1  0
  8  9  1  0
  9  5  1  0
 10 11  2  0
 13 12  1  0
 13 14  1  0
 14 15  1  0
 16 15  1  1
 17 16  1  0
 17 10  1  0
 18 19  1  0
 18 16  1  0
 20 18  2  0
M  END
$$$$
