CAM.pdb
     RDKit          3D

 20 19  0  0  1  0  0  0  0  0999 V2000
    6.2969  -19.1252   20.5432 N   0  0  0  0  0  0  0  0  0  0  0  0
    5.8902  -17.7770   20.8807 C   0  0  1  0  0  0  0  0  0  0  0  0
    5.3530  -17.8541   22.3158 C   0  0  0  0  0  0  0  0  0  0  0  0
    6.6294  -18.6553   23.3607 S   0  0  0  0  0  0  0  0  0  0  0  0
    7.0302  -16.8372   20.9091 C   0  0  0  0  0  0  0  0  0  0  0  0
    8.1717  -17.3020   21.1605 O   0  0  0  0  0  0  0  0  0  0  0  0
    7.4818  -13.2131   20.0888 C   0  0  0  0  0  0  0  0  0  0  0  0
    8.0469  -14.5330   20.6332 C   0  0  2  0  0  0  0  0  0  0  0  0
    6.9251  -15.4509   20.6726 N   0  0  0  0  0  0  0  0  0  0  0  0
    8.5090  -14.3259   22.0389 C   0  0  0  0  0  0  0  0  0  0  0  0
    9.4939  -13.5693   22.3125 O   0  0  0  0  0  0  0  0  0  0  0  0
    7.3925  -10.7528   27.2571 C   0  0  0  0  0  0  0  0  0  0  0  0
    6.3612  -12.2362   27.1666 S   0  0  0  0  0  0  0  0  0  0  0  0
    7.3336  -13.6925   26.6423 C   0  0  0  0  0  0  0  0  0  0  0  0
    7.0080  -14.0687   25.2229 C   0  0  0  0  0  0  0  0  0  0  0  0
    8.2135  -14.6107   24.5265 C   0  0  2  0  0  0  0  0  0  0  0  0
    7.8745  -14.9606   23.1335 N   0  0  0  0  0  0  0  0  0  0  0  0
    8.6690  -15.8497   25.1768 C   0  0  0  0  0  0  0  0  0  0  0  0
    9.2218  -15.7523   26.4710 O   0  0  0  0  0  0  0  0  0  0  0  0
    8.6086  -17.0035   24.6749 O   0  0  0  0  0  0  0  0  0  0  0  0
  2  1  1  1
  3  2  1  0
  4  3  1  0
  5  2  1  0
  6  5  2  0
  8  7  1  1
  8 10  1  0
  8  9  1  0
  9  5  1  0
 10 11  2  0
 13 12  1  0
 13 14  1  0
 14 15  1  0
 16 15  1  1
 17 16  1  0
 17 10  1  0
 18 19  1  0
 18 16  1  0
 20 18  2  0
M  END
$$$$
