CAM.pdb
     RDKit          3D

 20 19  0  0  1  0  0  0  0  0999 V2000
    8.0727  -14.5679   16.7527 N   0  0  0  0  0  0  0  0  0  0  0  0
    8.6463  -14.1695   18.0213 C   0  0  1  0  0  0  0  0  0  0  0  0
    8.0833  -12.7716   18.3090 C   0  0  0  0  0  0  0  0  0  0  0  0
    8.7360  -12.2160   19.9302 S   0  0  0  0  0  0  0  0  0  0  0  0
    8.2058  -15.0368   19.1336 C   0  0  0  0  0  0  0  0  0  0  0  0
    6.9871  -15.3418   19.1967 O   0  0  0  0  0  0  0  0  0  0  0  0
    9.4594  -17.7505   20.9354 C   0  0  0  0  0  0  0  0  0  0  0  0
    8.6538  -16.4657   21.1772 C   0  0  2  0  0  0  0  0  0  0  0  0
    9.0612  -15.5472   20.1319 N   0  0  0  0  0  0  0  0  0  0  0  0
    9.0624  -15.8696   22.4850 C   0  0  0  0  0  0  0  0  0  0  0  0
   10.2211  -15.3753   22.6595 O   0  0  0  0  0  0  0  0  0  0  0  0
    6.3487  -10.8164   27.0678 C   0  0  0  0  0  0  0  0  0  0  0  0
    6.1359  -12.5768   26.7103 S   0  0  0  0  0  0  0  0  0  0  0  0
    7.5937  -13.2619   25.8461 C   0  0  0  0  0  0  0  0  0  0  0  0
    7.4448  -14.7444   25.6414 C   0  0  0  0  0  0  0  0  0  0  0  0
    8.6172  -15.2994   24.9002 C   0  0  2  0  0  0  0  0  0  0  0  0
    8.1816  -15.8258   23.5921 N   0  0  0  0  0  0  0  0  0  0  0  0
    9.2042  -16.4289   25.6384 C   0  0  0  0  0  0  0  0  0  0  0  0
   10.2329  -16.1511   26.5630 O   0  0  0  0  0  0  0  0  0  0  0  0
    8.8661  -17.6363   25.5171 O   0  0  0  0  0  0  0  0  0  0  0  0
  2  1  1  6
  3  2  1  0
  4  3  1  0
  5  2  1  0
  6  5  2  0
  8  7  1  6
  8 10  1  0
  8  9  1  0
  9  5  1  0
 10 11  2  0
 13 12  1  0
 13 14  1  0
 14 15  1  0
 16 15  1  1
 17 16  1  0
 17 10  1  0
 18 19  1  0
 18 16  1  0
 20 18  2  0
M  END
$$$$
