CAM.pdb
     RDKit          3D

 20 19  0  0  1  0  0  0  0  0999 V2000
    8.0632  -13.8309   17.6134 N   0  0  0  0  0  0  0  0  0  0  0  0
    9.0555  -14.1278   18.6255 C   0  0  1  0  0  0  0  0  0  0  0  0
    9.5305  -12.7668   19.1507 C   0  0  0  0  0  0  0  0  0  0  0  0
   10.9091  -13.0576   20.3247 S   0  0  0  0  0  0  0  0  0  0  0  0
    8.4805  -14.8466   19.7815 C   0  0  0  0  0  0  0  0  0  0  0  0
    7.3632  -14.4661   20.2164 O   0  0  0  0  0  0  0  0  0  0  0  0
    9.2018  -18.0257   21.5589 C   0  0  0  0  0  0  0  0  0  0  0  0
    8.5491  -16.6358   21.5740 C   0  0  2  0  0  0  0  0  0  0  0  0
    9.1010  -15.9332   20.4320 N   0  0  0  0  0  0  0  0  0  0  0  0
    8.9802  -15.9050   22.8038 C   0  0  0  0  0  0  0  0  0  0  0  0
   10.1694  -15.4758   22.9420 O   0  0  0  0  0  0  0  0  0  0  0  0
    5.9612  -11.2023   26.5270 C   0  0  0  0  0  0  0  0  0  0  0  0
    6.3802  -12.5558   27.6516 S   0  0  0  0  0  0  0  0  0  0  0  0
    7.7502  -13.5702   26.9916 C   0  0  0  0  0  0  0  0  0  0  0  0
    7.3797  -14.1667   25.6616 C   0  0  0  0  0  0  0  0  0  0  0  0
    8.5244  -14.9349   25.0859 C   0  0  2  0  0  0  0  0  0  0  0  0
    8.0880  -15.6548   23.8738 N   0  0  0  0  0  0  0  0  0  0  0  0
    8.9913  -15.9535   26.0398 C   0  0  0  0  0  0  0  0  0  0  0  0
    9.9074  -15.5555   27.0361 O   0  0  0  0  0  0  0  0  0  0  0  0
    8.6417  -17.1637   26.0463 O   0  0  0  0  0  0  0  0  0  0  0  0
  2  1  1  6
  3  2  1  0
  4  3  1  0
  5  2  1  0
  6  5  2  0
  8  7  1  1
  8 10  1  0
  8  9  1  0
  9  5  1  0
 10 11  2  0
 13 12  1  0
 13 14  1  0
 14 15  1  0
 16 15  1  1
 17 16  1  0
 17 10  1  0
 18 19  1  0
 18 16  1  0
 20 18  2  0
M  END
$$$$
