CAM.pdb
     RDKit          3D

 20 19  0  0  1  0  0  0  0  0999 V2000
    7.2951  -15.4884   18.9584 N   0  0  0  0  0  0  0  0  0  0  0  0
    8.1674  -14.9453   19.9788 C   0  0  1  0  0  0  0  0  0  0  0  0
    7.3105  -13.9452   20.7658 C   0  0  0  0  0  0  0  0  0  0  0  0
    8.3043  -13.3302   22.1791 S   0  0  0  0  0  0  0  0  0  0  0  0
    8.6082  -15.9724   20.9453 C   0  0  0  0  0  0  0  0  0  0  0  0
    7.7262  -16.6755   21.5022 O   0  0  0  0  0  0  0  0  0  0  0  0
   11.7017  -17.8089   21.5620 C   0  0  0  0  0  0  0  0  0  0  0  0
   10.4002  -17.2734   22.1762 C   0  0  2  0  0  0  0  0  0  0  0  0
    9.9541  -16.2187   21.2867 N   0  0  0  0  0  0  0  0  0  0  0  0
   10.7031  -16.6486   23.4992 C   0  0  0  0  0  0  0  0  0  0  0  0
   11.2280  -15.4935   23.5867 O   0  0  0  0  0  0  0  0  0  0  0  0
   10.2514  -13.1526   29.4838 C   0  0  0  0  0  0  0  0  0  0  0  0
   10.0098  -13.9637   27.8850 S   0  0  0  0  0  0  0  0  0  0  0  0
    9.7318  -15.7594   28.0845 C   0  0  0  0  0  0  0  0  0  0  0  0
    9.4508  -16.4066   26.7563 C   0  0  0  0  0  0  0  0  0  0  0  0
   10.7210  -16.6833   26.0202 C   0  0  2  0  0  0  0  0  0  0  0  0
   10.4214  -17.3104   24.7183 N   0  0  0  0  0  0  0  0  0  0  0  0
   11.5521  -17.6383   26.7703 C   0  0  0  0  0  0  0  0  0  0  0  0
   11.4563  -19.0049   26.4333 O   0  0  0  0  0  0  0  0  0  0  0  0
   12.3512  -17.3410   27.6976 O   0  0  0  0  0  0  0  0  0  0  0  0
  2  1  1  6
  3  2  1  0
  4  3  1  0
  5  2  1  0
  6  5  2  0
  8  7  1  6
  8 10  1  0
  8  9  1  0
  9  5  1  0
 10 11  2  0
 13 12  1  0
 13 14  1  0
 14 15  1  0
 16 15  1  1
 17 16  1  0
 17 10  1  0
 18 19  1  0
 18 16  1  0
 20 18  2  0
M  END
$$$$
