MYK.pdb
     RDKit          3D

 30 30  0  0  1  0  0  0  0  0999 V2000
   23.1799  -16.1290   -0.0735 C   0  0  0  0  0  0  0  0  0  0  0  0
   21.7270  -15.6634    0.9329 S   0  0  0  0  0  0  0  0  0  0  0  0
   20.6928  -17.1409    1.1983 C   0  0  0  0  0  0  0  0  0  0  0  0
   19.5000  -16.7943    2.0328 C   0  0  0  0  0  0  0  0  0  0  0  0
   18.6391  -17.9930    2.2607 C   0  0  2  0  0  0  0  0  0  0  0  0
   17.6720  -17.9810    1.1298 N   0  0  0  0  0  0  0  0  0  0  0  0
   17.8628  -17.8652    3.5129 C   0  0  0  0  0  0  0  0  0  0  0  0
   16.7270  -17.2831    3.5426 O   0  0  0  0  0  0  0  0  0  0  0  0
   13.6967  -22.8903    3.8732 O   0  0  0  0  0  0  0  0  0  0  0  0
   14.6429  -22.1112    4.5293 C   0  0  0  0  0  0  0  0  0  0  0  0
   15.9562  -22.5113    4.6486 C   0  0  0  0  0  0  0  0  0  0  0  0
   16.8424  -21.6877    5.3130 C   0  0  0  0  0  0  0  0  0  0  0  0
   16.4748  -20.4828    5.8632 C   0  0  0  0  0  0  0  0  0  0  0  0
   17.3950  -19.6008    6.5803 C   0  0  0  0  0  0  0  0  0  0  0  0
   17.4942  -18.1949    5.9742 C   0  0  2  0  0  0  0  0  0  0  0  0
   18.3006  -18.3769    4.7842 N   0  0  0  0  0  0  0  0  0  0  0  0
   18.2007  -17.3301    6.9168 C   0  0  0  0  0  0  0  0  0  0  0  0
   19.4749  -17.4614    6.9860 O   0  0  0  0  0  0  0  0  0  0  0  0
   15.1561  -20.1048    5.7308 C   0  0  0  0  0  0  0  0  0  0  0  0
   14.2351  -20.9116    5.0664 C   0  0  0  0  0  0  0  0  0  0  0  0
   17.6173  -16.3663    7.7546 N   0  0  0  0  0  0  0  0  0  0  0  0
   18.4969  -15.5492    8.5937 C   0  0  1  0  0  0  0  0  0  0  0  0
   18.3157  -14.0953    8.2894 C   0  0  0  0  0  0  0  0  0  0  0  0
   19.2018  -13.2635    9.1679 C   0  0  0  0  0  0  0  0  0  0  0  0
   19.0137  -11.7780    8.9778 C   0  0  0  0  0  0  0  0  0  0  0  0
   20.0398  -11.0859    9.8828 C   0  0  0  0  0  0  0  0  0  0  0  0
   19.8519   -9.6603    9.7236 N   0  0  0  0  0  0  0  0  0  0  0  0
   18.2363  -15.8868   10.0118 C   0  0  0  0  0  0  0  0  0  0  0  0
   16.9268  -16.0267   10.4562 O   0  0  0  0  0  0  0  0  0  0  0  0
   19.1343  -16.0583   10.8549 O   0  0  0  0  0  0  0  0  0  0  0  0
  1  2  1  0
  2  3  1  0
  4  5  1  0
  4  3  1  0
  5  6  1  6
  7  5  1  0
  7  8  2  0
  9 10  1  0
 10 11  2  0
 11 12  1  0
 13 12  2  0
 13 14  1  0
 15 14  1  1
 15 16  1  0
 16  7  1  0
 17 15  1  0
 18 17  2  0
 19 13  1  0
 20 10  1  0
 20 19  2  0
 21 17  1  0
 22 21  1  0
 22 28  1  0
 22 23  1  1
 24 23  1  0
 25 26  1  0
 25 24  1  0
 27 26  1  0
 28 29  1  0
 30 28  2  0
M  END
$$$$
