MYK.pdb
     RDKit          3D

 30 30  0  0  1  0  0  0  0  0999 V2000
   30.7263  -22.3283  -10.1609 C   0  0  0  0  0  0  0  0  0  0  0  0
   29.0343  -21.6459  -10.2698 S   0  0  0  0  0  0  0  0  0  0  0  0
   28.7417  -21.0575  -11.9702 C   0  0  0  0  0  0  0  0  0  0  0  0
   27.4049  -20.3916  -12.0642 C   0  0  0  0  0  0  0  0  0  0  0  0
   26.3025  -21.3989  -12.0489 C   0  0  2  0  0  0  0  0  0  0  0  0
   26.5489  -22.2434  -13.2490 N   0  0  0  0  0  0  0  0  0  0  0  0
   24.9835  -20.7527  -12.2212 C   0  0  0  0  0  0  0  0  0  0  0  0
   24.5096  -19.9502  -11.3488 O   0  0  0  0  0  0  0  0  0  0  0  0
   17.6064  -17.8705  -16.2499 O   0  0  0  0  0  0  0  0  0  0  0  0
   18.8707  -18.3305  -15.8995 C   0  0  0  0  0  0  0  0  0  0  0  0
   19.8148  -17.5002  -15.3355 C   0  0  0  0  0  0  0  0  0  0  0  0
   21.0502  -18.0241  -15.0121 C   0  0  0  0  0  0  0  0  0  0  0  0
   21.3838  -19.3402  -15.2273 C   0  0  0  0  0  0  0  0  0  0  0  0
   22.6899  -19.9125  -14.9023 C   0  0  0  0  0  0  0  0  0  0  0  0
   22.8252  -20.3370  -13.4343 C   0  0  2  0  0  0  0  0  0  0  0  0
   24.1325  -20.9579  -13.3629 N   0  0  0  0  0  0  0  0  0  0  0  0
   21.7947  -21.3303  -13.1397 C   0  0  0  0  0  0  0  0  0  0  0  0
   21.9920  -22.5213  -13.5739 O   0  0  0  0  0  0  0  0  0  0  0  0
   20.4229  -20.1505  -15.7925 C   0  0  0  0  0  0  0  0  0  0  0  0
   19.1658  -19.6546  -16.1309 C   0  0  0  0  0  0  0  0  0  0  0  0
   20.6077  -21.1059  -12.4243 N   0  0  0  0  0  0  0  0  0  0  0  0
   19.8233  -22.2663  -11.9956 C   0  0  1  0  0  0  0  0  0  0  0  0
   19.7018  -22.2997  -10.5046 C   0  0  0  0  0  0  0  0  0  0  0  0
   18.8242  -23.4381  -10.0775 C   0  0  0  0  0  0  0  0  0  0  0  0
   18.7906  -23.6436   -8.5825 C   0  0  0  0  0  0  0  0  0  0  0  0
   17.9055  -24.8694   -8.3273 C   0  0  0  0  0  0  0  0  0  0  0  0
   17.9219  -25.1146   -6.9016 N   0  0  0  0  0  0  0  0  0  0  0  0
   18.5150  -22.2280  -12.6883 C   0  0  0  0  0  0  0  0  0  0  0  0
   17.7979  -21.0384  -12.7386 O   0  0  0  0  0  0  0  0  0  0  0  0
   18.0006  -23.2150  -13.2431 O   0  0  0  0  0  0  0  0  0  0  0  0
  1  2  1  0
  2  3  1  0
  4  5  1  0
  4  3  1  0
  5  6  1  6
  7  5  1  0
  7  8  2  0
  9 10  1  0
 10 11  2  0
 11 12  1  0
 13 12  2  0
 13 14  1  0
 15 14  1  6
 15 16  1  0
 16  7  1  0
 17 15  1  0
 18 17  2  0
 19 13  1  0
 20 10  1  0
 20 19  2  0
 21 17  1  0
 22 21  1  0
 22 28  1  0
 22 23  1  1
 24 23  1  0
 25 26  1  0
 25 24  1  0
 27 26  1  0
 28 29  1  0
 30 28  2  0
M  END
$$$$
