MYK.pdb
     RDKit          3D

 30 30  0  0  1  0  0  0  0  0999 V2000
   26.1805  -17.9238  -18.9101 C   0  0  0  0  0  0  0  0  0  0  0  0
   26.1550  -19.6451  -19.5240 S   0  0  0  0  0  0  0  0  0  0  0  0
   26.8934  -20.7344  -18.2625 C   0  0  0  0  0  0  0  0  0  0  0  0
   27.9661  -20.0069  -17.5147 C   0  0  0  0  0  0  0  0  0  0  0  0
   28.6184  -20.8991  -16.5105 C   0  0  2  0  0  0  0  0  0  0  0  0
   28.9930  -22.1176  -17.2782 N   0  0  0  0  0  0  0  0  0  0  0  0
   27.6637  -21.3105  -15.4587 C   0  0  0  0  0  0  0  0  0  0  0  0
   27.0867  -22.4490  -15.4834 O   0  0  0  0  0  0  0  0  0  0  0  0
   22.8883  -20.8603   -7.9513 O   0  0  0  0  0  0  0  0  0  0  0  0
   23.8176  -20.6698   -8.9675 C   0  0  0  0  0  0  0  0  0  0  0  0
   25.0971  -21.1748   -8.8853 C   0  0  0  0  0  0  0  0  0  0  0  0
   25.9681  -20.9479   -9.9317 C   0  0  0  0  0  0  0  0  0  0  0  0
   25.6174  -20.2390  -11.0561 C   0  0  0  0  0  0  0  0  0  0  0  0
   26.5278  -19.9779  -12.1706 C   0  0  0  0  0  0  0  0  0  0  0  0
   26.3713  -20.9653  -13.3343 C   0  0  2  0  0  0  0  0  0  0  0  0
   27.3072  -20.4891  -14.3327 N   0  0  0  0  0  0  0  0  0  0  0  0
   25.0087  -20.8628  -13.8521 C   0  0  0  0  0  0  0  0  0  0  0  0
   24.7430  -19.8535  -14.5981 O   0  0  0  0  0  0  0  0  0  0  0  0
   24.3326  -19.7440  -11.1148 C   0  0  0  0  0  0  0  0  0  0  0  0
   23.4277  -19.9546  -10.0767 C   0  0  0  0  0  0  0  0  0  0  0  0
   23.9608  -21.7659  -13.6122 N   0  0  0  0  0  0  0  0  0  0  0  0
   22.6527  -21.4890  -14.2100 C   0  0  1  0  0  0  0  0  0  0  0  0
   22.3562  -22.4636  -15.3061 C   0  0  0  0  0  0  0  0  0  0  0  0
   22.1388  -23.8354  -14.7406 C   0  0  0  0  0  0  0  0  0  0  0  0
   21.8201  -24.8742  -15.7882 C   0  0  0  0  0  0  0  0  0  0  0  0
   21.5989  -26.1960  -15.0432 C   0  0  0  0  0  0  0  0  0  0  0  0
   21.2663  -27.1926  -16.0378 N   0  0  0  0  0  0  0  0  0  0  0  0
   21.6362  -21.4931  -13.1331 C   0  0  0  0  0  0  0  0  0  0  0  0
   20.3426  -21.0644  -13.4066 O   0  0  0  0  0  0  0  0  0  0  0  0
   21.8681  -21.8640  -11.9689 O   0  0  0  0  0  0  0  0  0  0  0  0
  1  2  1  0
  2  3  1  0
  4  5  1  0
  4  3  1  0
  5  6  1  6
  7  5  1  0
  7  8  2  0
  9 10  1  0
 10 11  2  0
 11 12  1  0
 13 12  2  0
 13 14  1  0
 15 14  1  1
 15 16  1  0
 16  7  1  0
 17 15  1  0
 18 17  2  0
 19 13  1  0
 20 10  1  0
 20 19  2  0
 21 17  1  0
 22 21  1  0
 22 28  1  0
 22 23  1  6
 24 23  1  0
 25 26  1  0
 25 24  1  0
 27 26  1  0
 28 29  1  0
 30 28  2  0
M  END
$$$$
