MYK.pdb
     RDKit          3D

 30 30  0  0  1  0  0  0  0  0999 V2000
   17.9372  -33.4810  -12.0044 C   0  0  0  0  0  0  0  0  0  0  0  0
   18.3745  -32.0564  -10.9462 S   0  0  0  0  0  0  0  0  0  0  0  0
   20.0047  -31.4191  -11.4556 C   0  0  0  0  0  0  0  0  0  0  0  0
   20.3304  -30.1690  -10.7003 C   0  0  0  0  0  0  0  0  0  0  0  0
   19.8223  -28.9619  -11.4178 C   0  0  2  0  0  0  0  0  0  0  0  0
   20.8737  -28.6535  -12.4247 N   0  0  0  0  0  0  0  0  0  0  0  0
   19.7213  -27.8004  -10.5081 C   0  0  0  0  0  0  0  0  0  0  0  0
   20.7529  -27.1462  -10.1372 O   0  0  0  0  0  0  0  0  0  0  0  0
   20.2178  -21.9188  -13.5416 O   0  0  0  0  0  0  0  0  0  0  0  0
   19.5514  -22.7477  -12.6463 C   0  0  0  0  0  0  0  0  0  0  0  0
   18.9354  -23.9108  -13.0544 C   0  0  0  0  0  0  0  0  0  0  0  0
   18.2918  -24.6864  -12.1114 C   0  0  0  0  0  0  0  0  0  0  0  0
   18.2365  -24.3515  -10.7793 C   0  0  0  0  0  0  0  0  0  0  0  0
   17.5509  -25.1530   -9.7661 C   0  0  0  0  0  0  0  0  0  0  0  0
   18.4625  -26.1722   -9.0705 C   0  0  2  0  0  0  0  0  0  0  0  0
   18.4810  -27.3062   -9.9722 N   0  0  0  0  0  0  0  0  0  0  0  0
   17.8443  -26.5628   -7.8053 C   0  0  0  0  0  0  0  0  0  0  0  0
   16.8408  -27.3595   -7.8684 O   0  0  0  0  0  0  0  0  0  0  0  0
   18.8598  -23.1837  -10.3958 C   0  0  0  0  0  0  0  0  0  0  0  0
   19.5186  -22.3773  -11.3213 C   0  0  0  0  0  0  0  0  0  0  0  0
   18.2452  -26.1498   -6.5247 N   0  0  0  0  0  0  0  0  0  0  0  0
   17.4845  -26.6298   -5.3686 C   0  0  1  0  0  0  0  0  0  0  0  0
   18.2894  -26.4955   -4.1144 C   0  0  0  0  0  0  0  0  0  0  0  0
   17.4929  -26.9575   -2.9308 C   0  0  0  0  0  0  0  0  0  0  0  0
   18.2884  -26.9964   -1.6486 C   0  0  0  0  0  0  0  0  0  0  0  0
   17.3600  -27.5727   -0.5729 C   0  0  0  0  0  0  0  0  0  0  0  0
   18.1481  -27.7228    0.6310 N   0  0  0  0  0  0  0  0  0  0  0  0
   16.1980  -25.8981   -5.3191 C   0  0  0  0  0  0  0  0  0  0  0  0
   15.0402  -26.5673   -4.9401 O   0  0  0  0  0  0  0  0  0  0  0  0
   16.0802  -24.6927   -5.6015 O   0  0  0  0  0  0  0  0  0  0  0  0
  1  2  1  0
  2  3  1  0
  4  5  1  0
  4  3  1  0
  5  6  1  6
  7  5  1  0
  7  8  2  0
  9 10  1  0
 10 11  2  0
 11 12  1  0
 13 12  2  0
 13 14  1  0
 15 14  1  6
 15 16  1  0
 16  7  1  0
 17 15  1  0
 18 17  2  0
 19 13  1  0
 20 10  1  0
 20 19  2  0
 21 17  1  0
 22 21  1  0
 22 28  1  0
 22 23  1  1
 24 23  1  0
 25 26  1  0
 25 24  1  0
 27 26  1  0
 28 29  1  0
 30 28  2  0
M  END
$$$$
