MYK.pdb
     RDKit          3D

 30 30  0  0  1  0  0  0  0  0999 V2000
   25.5310  -18.1891  -19.5449 C   0  0  0  0  0  0  0  0  0  0  0  0
   26.8359  -18.9569  -20.5687 S   0  0  0  0  0  0  0  0  0  0  0  0
   27.8376  -20.0616  -19.5202 C   0  0  0  0  0  0  0  0  0  0  0  0
   27.0531  -20.4858  -18.3185 C   0  0  0  0  0  0  0  0  0  0  0  0
   27.9120  -21.2391  -17.3567 C   0  0  2  0  0  0  0  0  0  0  0  0
   28.1993  -22.5290  -18.0408 N   0  0  0  0  0  0  0  0  0  0  0  0
   27.1776  -21.5486  -16.1110 C   0  0  0  0  0  0  0  0  0  0  0  0
   26.4291  -22.5778  -16.0106 O   0  0  0  0  0  0  0  0  0  0  0  0
   24.0570  -20.6376   -7.8616 O   0  0  0  0  0  0  0  0  0  0  0  0
   24.7929  -20.4839   -9.0310 C   0  0  0  0  0  0  0  0  0  0  0  0
   25.2087  -19.2454   -9.4696 C   0  0  0  0  0  0  0  0  0  0  0  0
   25.9365  -19.1664  -10.6397 C   0  0  0  0  0  0  0  0  0  0  0  0
   26.2671  -20.2694  -11.3907 C   0  0  0  0  0  0  0  0  0  0  0  0
   27.0275  -20.2066  -12.6384 C   0  0  0  0  0  0  0  0  0  0  0  0
   26.4362  -21.0691  -13.7609 C   0  0  2  0  0  0  0  0  0  0  0  0
   27.2398  -20.7419  -14.9214 N   0  0  0  0  0  0  0  0  0  0  0  0
   25.0541  -20.6530  -13.9893 C   0  0  0  0  0  0  0  0  0  0  0  0
   24.8734  -19.5074  -14.5377 O   0  0  0  0  0  0  0  0  0  0  0  0
   25.8398  -21.4965  -10.9314 C   0  0  0  0  0  0  0  0  0  0  0  0
   25.1036  -21.6125   -9.7545 C   0  0  0  0  0  0  0  0  0  0  0  0
   23.9029  -21.3890  -13.6666 N   0  0  0  0  0  0  0  0  0  0  0  0
   22.5945  -20.7901  -13.9398 C   0  0  1  0  0  0  0  0  0  0  0  0
   21.6461  -21.8156  -14.4765 C   0  0  0  0  0  0  0  0  0  0  0  0
   20.2948  -21.2076  -14.7065 C   0  0  0  0  0  0  0  0  0  0  0  0
   19.2812  -22.1835  -15.2528 C   0  0  0  0  0  0  0  0  0  0  0  0
   17.9941  -21.3878  -15.5004 C   0  0  0  0  0  0  0  0  0  0  0  0
   16.9956  -22.3287  -15.9593 N   0  0  0  0  0  0  0  0  0  0  0  0
   22.1111  -20.1378  -12.7013 C   0  0  0  0  0  0  0  0  0  0  0  0
   22.3960  -20.7093  -11.4667 O   0  0  0  0  0  0  0  0  0  0  0  0
   21.4496  -19.0848  -12.6909 O   0  0  0  0  0  0  0  0  0  0  0  0
  1  2  1  0
  2  3  1  0
  4  5  1  0
  4  3  1  0
  5  6  1  6
  7  5  1  0
  7  8  2  0
  9 10  1  0
 10 11  2  0
 11 12  1  0
 13 12  2  0
 13 14  1  0
 15 14  1  1
 15 16  1  0
 16  7  1  0
 17 15  1  0
 18 17  2  0
 19 13  1  0
 20 10  1  0
 20 19  2  0
 21 17  1  0
 22 21  1  0
 22 28  1  0
 22 23  1  1
 24 23  1  0
 25 26  1  0
 25 24  1  0
 27 26  1  0
 28 29  1  0
 30 28  2  0
M  END
$$$$
