MYK.pdb
     RDKit          3D

 30 30  0  0  1  0  0  0  0  0999 V2000
   19.8936  -28.5315  -20.9570 C   0  0  0  0  0  0  0  0  0  0  0  0
   21.1469  -27.3695  -21.6045 S   0  0  0  0  0  0  0  0  0  0  0  0
   21.5029  -26.1135  -20.3321 C   0  0  0  0  0  0  0  0  0  0  0  0
   22.0574  -26.7643  -19.1039 C   0  0  0  0  0  0  0  0  0  0  0  0
   21.8063  -25.9261  -17.8938 C   0  0  2  0  0  0  0  0  0  0  0  0
   22.7794  -24.8058  -18.0046 N   0  0  0  0  0  0  0  0  0  0  0  0
   22.1194  -26.6679  -16.6534 C   0  0  0  0  0  0  0  0  0  0  0  0
   23.3225  -26.8686  -16.2764 O   0  0  0  0  0  0  0  0  0  0  0  0
   21.6108  -29.7340   -8.4497 O   0  0  0  0  0  0  0  0  0  0  0  0
   21.3174  -29.1834   -9.6921 C   0  0  0  0  0  0  0  0  0  0  0  0
   20.1693  -29.5130  -10.3794 C   0  0  0  0  0  0  0  0  0  0  0  0
   19.9413  -28.9280  -11.6085 C   0  0  0  0  0  0  0  0  0  0  0  0
   20.8092  -28.0287  -12.1811 C   0  0  0  0  0  0  0  0  0  0  0  0
   20.5921  -27.4061  -13.4865 C   0  0  0  0  0  0  0  0  0  0  0  0
   21.5062  -27.9573  -14.5885 C   0  0  2  0  0  0  0  0  0  0  0  0
   21.1225  -27.2157  -15.7726 N   0  0  0  0  0  0  0  0  0  0  0  0
   21.2041  -29.3743  -14.7788 C   0  0  0  0  0  0  0  0  0  0  0  0
   20.1849  -29.6607  -15.5033 O   0  0  0  0  0  0  0  0  0  0  0  0
   21.9502  -27.7153  -11.4745 C   0  0  0  0  0  0  0  0  0  0  0  0
   22.2115  -28.2870  -10.2313 C   0  0  0  0  0  0  0  0  0  0  0  0
   21.9249  -30.4544  -14.2449 N   0  0  0  0  0  0  0  0  0  0  0  0
   21.4251  -31.8104  -14.4831 C   0  0  1  0  0  0  0  0  0  0  0  0
   22.3336  -32.8245  -13.8623 C   0  0  0  0  0  0  0  0  0  0  0  0
   21.7891  -34.2069  -14.0649 C   0  0  0  0  0  0  0  0  0  0  0  0
   22.7471  -35.2974  -13.6508 C   0  0  0  0  0  0  0  0  0  0  0  0
   21.9808  -36.6209  -13.7616 C   0  0  0  0  0  0  0  0  0  0  0  0
   22.8607  -37.6620  -13.2770 N   0  0  0  0  0  0  0  0  0  0  0  0
   20.0328  -31.8898  -13.9850 C   0  0  0  0  0  0  0  0  0  0  0  0
   19.7457  -31.5032  -12.6810 O   0  0  0  0  0  0  0  0  0  0  0  0
   19.0772  -32.2897  -14.6730 O   0  0  0  0  0  0  0  0  0  0  0  0
  1  2  1  0
  2  3  1  0
  4  5  1  0
  4  3  1  0
  5  6  1  6
  7  5  1  0
  7  8  2  0
  9 10  1  0
 10 11  2  0
 11 12  1  0
 13 12  2  0
 13 14  1  0
 15 14  1  1
 15 16  1  0
 16  7  1  0
 17 15  1  0
 18 17  2  0
 19 13  1  0
 20 10  1  0
 20 19  2  0
 21 17  1  0
 22 21  1  0
 22 28  1  0
 22 23  1  1
 24 23  1  0
 25 26  1  0
 25 24  1  0
 27 26  1  0
 28 29  1  0
 30 28  2  0
M  END
$$$$
