MYK.pdb
     RDKit          3D

 30 30  0  0  1  0  0  0  0  0999 V2000
   19.3401  -14.4080  -20.6865 C   0  0  0  0  0  0  0  0  0  0  0  0
   19.3098  -13.3779  -19.1770 S   0  0  0  0  0  0  0  0  0  0  0  0
   19.0295  -11.6403  -19.6518 C   0  0  0  0  0  0  0  0  0  0  0  0
   19.2402  -10.7418  -18.4738 C   0  0  0  0  0  0  0  0  0  0  0  0
   18.9977   -9.3142  -18.8389 C   0  0  2  0  0  0  0  0  0  0  0  0
   20.1638   -8.9395  -19.6839 N   0  0  0  0  0  0  0  0  0  0  0  0
   19.0155   -8.4446  -17.6429 C   0  0  0  0  0  0  0  0  0  0  0  0
   18.1743   -8.5904  -16.6938 O   0  0  0  0  0  0  0  0  0  0  0  0
   23.5555  -11.1531  -13.6877 O   0  0  0  0  0  0  0  0  0  0  0  0
   22.9904   -9.9778  -14.1694 C   0  0  0  0  0  0  0  0  0  0  0  0
   22.0744   -9.2579  -13.4334 C   0  0  0  0  0  0  0  0  0  0  0  0
   21.5535   -8.0993  -13.9733 C   0  0  0  0  0  0  0  0  0  0  0  0
   21.9071   -7.6285  -15.2154 C   0  0  0  0  0  0  0  0  0  0  0  0
   21.3593   -6.4099  -15.8103 C   0  0  0  0  0  0  0  0  0  0  0  0
   19.8973   -6.5480  -16.2544 C   0  0  2  0  0  0  0  0  0  0  0  0
   19.9626   -7.3812  -17.4381 N   0  0  0  0  0  0  0  0  0  0  0  0
   19.3929   -5.2246  -16.6145 C   0  0  0  0  0  0  0  0  0  0  0  0
   19.7640   -4.7474  -17.7460 O   0  0  0  0  0  0  0  0  0  0  0  0
   22.8247   -8.3659  -15.9321 C   0  0  0  0  0  0  0  0  0  0  0  0
   23.3704   -9.5397  -15.4173 C   0  0  0  0  0  0  0  0  0  0  0  0
   18.5381   -4.4245  -15.8397 N   0  0  0  0  0  0  0  0  0  0  0  0
   18.0731   -3.1547  -16.4025 C   0  0  1  0  0  0  0  0  0  0  0  0
   16.7668   -3.3374  -17.1092 C   0  0  0  0  0  0  0  0  0  0  0  0
   16.2541   -2.0194  -17.6080 C   0  0  0  0  0  0  0  0  0  0  0  0
   14.9690   -2.1315  -18.3917 C   0  0  0  0  0  0  0  0  0  0  0  0
   14.6492   -0.7260  -18.9146 C   0  0  0  0  0  0  0  0  0  0  0  0
   13.4281   -0.8276  -19.6838 N   0  0  0  0  0  0  0  0  0  0  0  0
   18.0134   -2.1541  -15.3125 C   0  0  0  0  0  0  0  0  0  0  0  0
   17.9143   -2.5795  -13.9930 O   0  0  0  0  0  0  0  0  0  0  0  0
   18.0469   -0.9256  -15.5031 O   0  0  0  0  0  0  0  0  0  0  0  0
  1  2  1  0
  2  3  1  0
  4  5  1  0
  4  3  1  0
  5  6  1  6
  7  5  1  0
  7  8  2  0
  9 10  1  0
 10 11  2  0
 11 12  1  0
 13 12  2  0
 13 14  1  0
 15 14  1  6
 15 16  1  0
 16  7  1  0
 17 15  1  0
 18 17  2  0
 19 13  1  0
 20 10  1  0
 20 19  2  0
 21 17  1  0
 22 21  1  0
 22 28  1  0
 22 23  1  1
 24 23  1  0
 25 26  1  0
 25 24  1  0
 27 26  1  0
 28 29  1  0
 30 28  2  0
M  END
$$$$
