MYK.pdb
     RDKit          3D

 30 30  0  0  1  0  0  0  0  0999 V2000
   23.2831  -31.1585  -17.4520 C   0  0  0  0  0  0  0  0  0  0  0  0
   23.0229  -29.7851  -16.2745 S   0  0  0  0  0  0  0  0  0  0  0  0
   24.1181  -28.4004  -16.7289 C   0  0  0  0  0  0  0  0  0  0  0  0
   23.7818  -27.1878  -15.9191 C   0  0  0  0  0  0  0  0  0  0  0  0
   22.4697  -26.6108  -16.3382 C   0  0  2  0  0  0  0  0  0  0  0  0
   22.8268  -25.4823  -17.2401 N   0  0  0  0  0  0  0  0  0  0  0  0
   21.7395  -26.0452  -15.1834 C   0  0  0  0  0  0  0  0  0  0  0  0
   22.2432  -25.1256  -14.4552 O   0  0  0  0  0  0  0  0  0  0  0  0
   19.3522  -20.2764  -16.8771 O   0  0  0  0  0  0  0  0  0  0  0  0
   19.1422  -21.5174  -16.2868 C   0  0  0  0  0  0  0  0  0  0  0  0
   19.1027  -22.6774  -17.0297 C   0  0  0  0  0  0  0  0  0  0  0  0
   18.8902  -23.8753  -16.3778 C   0  0  0  0  0  0  0  0  0  0  0  0
   18.7155  -23.9656  -15.0173 C   0  0  0  0  0  0  0  0  0  0  0  0
   18.4783  -25.2228  -14.3086 C   0  0  0  0  0  0  0  0  0  0  0  0
   19.7433  -25.8191  -13.6778 C   0  0  2  0  0  0  0  0  0  0  0  0
   20.4222  -26.4635  -14.7839 N   0  0  0  0  0  0  0  0  0  0  0  0
   19.3443  -26.8248  -12.6956 C   0  0  0  0  0  0  0  0  0  0  0  0
   18.9335  -27.9522  -13.1495 O   0  0  0  0  0  0  0  0  0  0  0  0
   18.7591  -22.7919  -14.2963 C   0  0  0  0  0  0  0  0  0  0  0  0
   18.9717  -21.5655  -14.9221 C   0  0  0  0  0  0  0  0  0  0  0  0
   19.3689  -26.6754  -11.2997 N   0  0  0  0  0  0  0  0  0  0  0  0
   18.9205  -27.7973  -10.4716 C   0  0  1  0  0  0  0  0  0  0  0  0
   19.0773  -27.4766   -9.0185 C   0  0  0  0  0  0  0  0  0  0  0  0
   18.2804  -26.2568   -8.6639 C   0  0  0  0  0  0  0  0  0  0  0  0
   18.4410  -25.8307   -7.2248 C   0  0  0  0  0  0  0  0  0  0  0  0
   17.6531  -24.5254   -7.0626 C   0  0  0  0  0  0  0  0  0  0  0  0
   17.8244  -24.0945   -5.6922 N   0  0  0  0  0  0  0  0  0  0  0  0
   17.5282  -28.1306  -10.8502 C   0  0  0  0  0  0  0  0  0  0  0  0
   17.0505  -29.4203  -10.6487 O   0  0  0  0  0  0  0  0  0  0  0  0
   16.7359  -27.3125  -11.3497 O   0  0  0  0  0  0  0  0  0  0  0  0
  1  2  1  0
  2  3  1  0
  4  5  1  0
  4  3  1  0
  5  6  1  6
  7  5  1  0
  7  8  2  0
  9 10  1  0
 10 11  2  0
 11 12  1  0
 13 12  2  0
 13 14  1  0
 15 14  1  6
 15 16  1  0
 16  7  1  0
 17 15  1  0
 18 17  2  0
 19 13  1  0
 20 10  1  0
 20 19  2  0
 21 17  1  0
 22 21  1  0
 22 28  1  0
 22 23  1  1
 24 23  1  0
 25 26  1  0
 25 24  1  0
 27 26  1  0
 28 29  1  0
 30 28  2  0
M  END
$$$$
