MYK.pdb
     RDKit          3D

 30 30  0  0  1  0  0  0  0  0999 V2000
   26.7615  -24.9000  -19.9204 C   0  0  0  0  0  0  0  0  0  0  0  0
   28.2206  -24.0549  -20.6256 S   0  0  0  0  0  0  0  0  0  0  0  0
   28.8068  -22.7989  -19.4415 C   0  0  0  0  0  0  0  0  0  0  0  0
   28.2797  -23.0931  -18.0722 C   0  0  0  0  0  0  0  0  0  0  0  0
   27.1828  -22.1482  -17.7061 C   0  0  2  0  0  0  0  0  0  0  0  0
   27.8144  -20.8018  -17.7578 N   0  0  0  0  0  0  0  0  0  0  0  0
   26.7231  -22.3722  -16.3185 C   0  0  0  0  0  0  0  0  0  0  0  0
   26.1656  -23.4645  -15.9638 O   0  0  0  0  0  0  0  0  0  0  0  0
   24.7619  -20.4291   -7.8322 O   0  0  0  0  0  0  0  0  0  0  0  0
   25.3043  -20.5007   -9.1102 C   0  0  0  0  0  0  0  0  0  0  0  0
   26.2151  -21.4743   -9.4587 C   0  0  0  0  0  0  0  0  0  0  0  0
   26.7131  -21.4862  -10.7460 C   0  0  0  0  0  0  0  0  0  0  0  0
   26.3415  -20.5687  -11.6999 C   0  0  0  0  0  0  0  0  0  0  0  0
   26.8650  -20.5568  -13.0654 C   0  0  0  0  0  0  0  0  0  0  0  0
   26.2373  -21.6234  -13.9721 C   0  0  2  0  0  0  0  0  0  0  0  0
   26.8620  -21.4064  -15.2613 N   0  0  0  0  0  0  0  0  0  0  0  0
   24.8029  -21.3634  -14.0730 C   0  0  0  0  0  0  0  0  0  0  0  0
   24.4415  -20.3552  -14.7792 O   0  0  0  0  0  0  0  0  0  0  0  0
   25.4296  -19.6049  -11.3271 C   0  0  0  0  0  0  0  0  0  0  0  0
   24.9068  -19.5638  -10.0365 C   0  0  0  0  0  0  0  0  0  0  0  0
   23.7802  -22.1138  -13.4711 N   0  0  0  0  0  0  0  0  0  0  0  0
   22.3933  -21.6883  -13.6734 C   0  0  1  0  0  0  0  0  0  0  0  0
   21.4500  -22.8185  -13.4058 C   0  0  0  0  0  0  0  0  0  0  0  0
   20.0302  -22.3625  -13.5643 C   0  0  0  0  0  0  0  0  0  0  0  0
   19.0157  -23.4404  -13.2688 C   0  0  0  0  0  0  0  0  0  0  0  0
   17.6442  -22.8682  -13.6463 C   0  0  0  0  0  0  0  0  0  0  0  0
   16.6550  -23.8536  -13.2677 N   0  0  0  0  0  0  0  0  0  0  0  0
   22.1399  -20.5015  -12.8246 C   0  0  0  0  0  0  0  0  0  0  0  0
   22.7567  -20.3994  -11.5832 O   0  0  0  0  0  0  0  0  0  0  0  0
   21.3923  -19.5647  -13.1564 O   0  0  0  0  0  0  0  0  0  0  0  0
  1  2  1  0
  2  3  1  0
  4  5  1  0
  4  3  1  0
  5  6  1  1
  7  5  1  0
  7  8  2  0
  9 10  1  0
 10 11  2  0
 11 12  1  0
 13 12  2  0
 13 14  1  0
 15 14  1  1
 15 16  1  0
 16  7  1  0
 17 15  1  0
 18 17  2  0
 19 13  1  0
 20 10  1  0
 20 19  2  0
 21 17  1  0
 22 21  1  0
 22 28  1  0
 22 23  1  1
 24 23  1  0
 25 26  1  0
 25 24  1  0
 27 26  1  0
 28 29  1  0
 30 28  2  0
M  END
$$$$
