MYK.pdb
     RDKit          3D

 30 30  0  0  1  0  0  0  0  0999 V2000
   21.7179  -15.4196  -18.2532 C   0  0  0  0  0  0  0  0  0  0  0  0
   20.3592  -14.5448  -19.1072 S   0  0  0  0  0  0  0  0  0  0  0  0
   20.9471  -12.8978  -19.6219 C   0  0  0  0  0  0  0  0  0  0  0  0
   20.9838  -11.9713  -18.4474 C   0  0  0  0  0  0  0  0  0  0  0  0
   21.4635  -10.6155  -18.8494 C   0  0  2  0  0  0  0  0  0  0  0  0
   22.9057  -10.8053  -19.1631 N   0  0  0  0  0  0  0  0  0  0  0  0
   21.3737   -9.6597  -17.7246 C   0  0  0  0  0  0  0  0  0  0  0  0
   21.9593   -9.8760  -16.6111 O   0  0  0  0  0  0  0  0  0  0  0  0
   22.5181   -2.0092  -13.9393 O   0  0  0  0  0  0  0  0  0  0  0  0
   22.3956   -3.2547  -14.5446 C   0  0  0  0  0  0  0  0  0  0  0  0
   22.2088   -4.4045  -13.8082 C   0  0  0  0  0  0  0  0  0  0  0  0
   22.0950   -5.6077  -14.4749 C   0  0  0  0  0  0  0  0  0  0  0  0
   22.1594   -5.7129  -15.8440 C   0  0  0  0  0  0  0  0  0  0  0  0
   22.0521   -6.9785  -16.5691 C   0  0  0  0  0  0  0  0  0  0  0  0
   20.6197   -7.5230  -16.6437 C   0  0  2  0  0  0  0  0  0  0  0  0
   20.6403   -8.4232  -17.7789 N   0  0  0  0  0  0  0  0  0  0  0  0
   19.7123   -6.4107  -16.9172 C   0  0  0  0  0  0  0  0  0  0  0  0
   19.7381   -5.9148  -18.1000 O   0  0  0  0  0  0  0  0  0  0  0  0
   22.3467   -4.5492  -16.5582 C   0  0  0  0  0  0  0  0  0  0  0  0
   22.4654   -3.3180  -15.9175 C   0  0  0  0  0  0  0  0  0  0  0  0
   18.8120   -5.8328  -16.0080 N   0  0  0  0  0  0  0  0  0  0  0  0
   17.9840   -4.7139  -16.4641 C   0  0  1  0  0  0  0  0  0  0  0  0
   16.5672   -4.8884  -16.0155 C   0  0  0  0  0  0  0  0  0  0  0  0
   15.9749   -6.1240  -16.6246 C   0  0  0  0  0  0  0  0  0  0  0  0
   14.5433   -6.3699  -16.2143 C   0  0  0  0  0  0  0  0  0  0  0  0
   14.0611   -7.5882  -17.0109 C   0  0  0  0  0  0  0  0  0  0  0  0
   12.7044   -7.8606  -16.5887 N   0  0  0  0  0  0  0  0  0  0  0  0
   18.5976   -3.4534  -15.9871 C   0  0  0  0  0  0  0  0  0  0  0  0
   18.4704   -2.2961  -16.7463 O   0  0  0  0  0  0  0  0  0  0  0  0
   19.2364   -3.3577  -14.9243 O   0  0  0  0  0  0  0  0  0  0  0  0
  1  2  1  0
  2  3  1  0
  4  5  1  0
  4  3  1  0
  5  6  1  1
  7  5  1  0
  7  8  2  0
  9 10  1  0
 10 11  2  0
 11 12  1  0
 13 12  2  0
 13 14  1  0
 15 14  1  6
 15 16  1  0
 16  7  1  0
 17 15  1  0
 18 17  2  0
 19 13  1  0
 20 10  1  0
 20 19  2  0
 21 17  1  0
 22 21  1  0
 22 28  1  0
 22 23  1  1
 24 23  1  0
 25 26  1  0
 25 24  1  0
 27 26  1  0
 28 29  1  0
 30 28  2  0
M  END
$$$$
