MYK.pdb
     RDKit          3D

 30 30  0  0  1  0  0  0  0  0999 V2000
   30.2728  -21.8152  -21.3153 C   0  0  0  0  0  0  0  0  0  0  0  0
   29.2083  -22.1737  -19.8736 S   0  0  0  0  0  0  0  0  0  0  0  0
   30.2407  -22.2172  -18.3718 C   0  0  0  0  0  0  0  0  0  0  0  0
   29.3987  -22.5270  -17.1741 C   0  0  0  0  0  0  0  0  0  0  0  0
   28.1142  -21.7663  -17.2111 C   0  0  2  0  0  0  0  0  0  0  0  0
   28.5241  -20.3360  -17.1833 N   0  0  0  0  0  0  0  0  0  0  0  0
   27.3046  -22.0220  -16.0002 C   0  0  0  0  0  0  0  0  0  0  0  0
   26.8411  -23.1815  -15.7348 O   0  0  0  0  0  0  0  0  0  0  0  0
   23.5572  -20.7946   -8.0473 O   0  0  0  0  0  0  0  0  0  0  0  0
   24.2410  -20.6464   -9.2486 C   0  0  0  0  0  0  0  0  0  0  0  0
   23.6517  -20.0702  -10.3531 C   0  0  0  0  0  0  0  0  0  0  0  0
   24.3896  -19.9546  -11.5138 C   0  0  0  0  0  0  0  0  0  0  0  0
   25.6895  -20.3892  -11.6199 C   0  0  0  0  0  0  0  0  0  0  0  0
   26.4849  -20.2864  -12.8428 C   0  0  0  0  0  0  0  0  0  0  0  0
   26.1024  -21.3183  -13.9117 C   0  0  2  0  0  0  0  0  0  0  0  0
   26.9752  -21.0144  -15.0277 N   0  0  0  0  0  0  0  0  0  0  0  0
   24.7124  -21.0918  -14.3015 C   0  0  0  0  0  0  0  0  0  0  0  0
   24.4638  -20.0363  -14.9870 O   0  0  0  0  0  0  0  0  0  0  0  0
   26.2565  -20.9620  -10.5020 C   0  0  0  0  0  0  0  0  0  0  0  0
   25.5406  -21.0941   -9.3143 C   0  0  0  0  0  0  0  0  0  0  0  0
   23.6209  -21.9213  -13.9982 N   0  0  0  0  0  0  0  0  0  0  0  0
   22.3051  -21.5635  -14.5329 C   0  0  1  0  0  0  0  0  0  0  0  0
   21.6715  -22.7396  -15.2070 C   0  0  0  0  0  0  0  0  0  0  0  0
   20.2891  -22.3925  -15.6728 C   0  0  0  0  0  0  0  0  0  0  0  0
   19.6035  -23.5159  -16.4119 C   0  0  0  0  0  0  0  0  0  0  0  0
   18.2389  -22.9788  -16.8598 C   0  0  0  0  0  0  0  0  0  0  0  0
   17.5742  -24.0499  -17.5697 N   0  0  0  0  0  0  0  0  0  0  0  0
   21.4866  -21.0109  -13.4294 C   0  0  0  0  0  0  0  0  0  0  0  0
   21.4631  -21.6581  -12.1996 O   0  0  0  0  0  0  0  0  0  0  0  0
   20.8001  -19.9789  -13.5315 O   0  0  0  0  0  0  0  0  0  0  0  0
  1  2  1  0
  2  3  1  0
  4  5  1  0
  4  3  1  0
  5  6  1  1
  7  5  1  0
  7  8  2  0
  9 10  1  0
 10 11  2  0
 11 12  1  0
 13 12  2  0
 13 14  1  0
 15 14  1  1
 15 16  1  0
 16  7  1  0
 17 15  1  0
 18 17  2  0
 19 13  1  0
 20 10  1  0
 20 19  2  0
 21 17  1  0
 22 21  1  0
 22 28  1  0
 22 23  1  1
 24 23  1  0
 25 26  1  0
 25 24  1  0
 27 26  1  0
 28 29  1  0
 30 28  2  0
M  END
$$$$
