MYK.pdb
     RDKit          3D

 30 30  0  0  1  0  0  0  0  0999 V2000
   30.6928  -25.6951  -17.3580 C   0  0  0  0  0  0  0  0  0  0  0  0
   30.4936  -24.6697  -18.8577 S   0  0  0  0  0  0  0  0  0  0  0  0
   30.2485  -22.9334  -18.3594 C   0  0  0  0  0  0  0  0  0  0  0  0
   29.5145  -22.8678  -17.0570 C   0  0  0  0  0  0  0  0  0  0  0  0
   28.0706  -22.5528  -17.2712 C   0  0  2  0  0  0  0  0  0  0  0  0
   28.0543  -21.1197  -17.6715 N   0  0  0  0  0  0  0  0  0  0  0  0
   27.3032  -22.6732  -16.0128 C   0  0  0  0  0  0  0  0  0  0  0  0
   27.1440  -23.7968  -15.4281 O   0  0  0  0  0  0  0  0  0  0  0  0
   22.9256  -20.4474   -8.6359 O   0  0  0  0  0  0  0  0  0  0  0  0
   23.6443  -20.4303   -9.8259 C   0  0  0  0  0  0  0  0  0  0  0  0
   23.1122  -19.9150  -10.9880 C   0  0  0  0  0  0  0  0  0  0  0  0
   23.8821  -19.9299  -12.1334 C   0  0  0  0  0  0  0  0  0  0  0  0
   25.1595  -20.4365  -12.1691 C   0  0  0  0  0  0  0  0  0  0  0  0
   25.9878  -20.4718  -13.3740 C   0  0  0  0  0  0  0  0  0  0  0  0
   25.8481  -21.7720  -14.1762 C   0  0  2  0  0  0  0  0  0  0  0  0
   26.6831  -21.5620  -15.3417 N   0  0  0  0  0  0  0  0  0  0  0  0
   24.4545  -21.9155  -14.5918 C   0  0  0  0  0  0  0  0  0  0  0  0
   24.0544  -21.1709  -15.5569 O   0  0  0  0  0  0  0  0  0  0  0  0
   25.6694  -20.9461  -10.9945 C   0  0  0  0  0  0  0  0  0  0  0  0
   24.9198  -20.9467   -9.8203 C   0  0  0  0  0  0  0  0  0  0  0  0
   23.5100  -22.7930  -14.0359 N   0  0  0  0  0  0  0  0  0  0  0  0
   22.1424  -22.7666  -14.5596 C   0  0  1  0  0  0  0  0  0  0  0  0
   21.4454  -24.0611  -14.2813 C   0  0  0  0  0  0  0  0  0  0  0  0
   20.0702  -24.0529  -14.8792 C   0  0  0  0  0  0  0  0  0  0  0  0
   19.3281  -25.3548  -14.6988 C   0  0  0  0  0  0  0  0  0  0  0  0
   17.9811  -25.1954  -15.4138 C   0  0  0  0  0  0  0  0  0  0  0  0
   17.2255  -26.4046  -15.1687 N   0  0  0  0  0  0  0  0  0  0  0  0
   21.4453  -21.5921  -13.9874 C   0  0  0  0  0  0  0  0  0  0  0  0
   20.6698  -20.7840  -14.8106 O   0  0  0  0  0  0  0  0  0  0  0  0
   21.5085  -21.2711  -12.7875 O   0  0  0  0  0  0  0  0  0  0  0  0
  1  2  1  0
  2  3  1  0
  4  5  1  0
  4  3  1  0
  5  6  1  1
  7  5  1  0
  7  8  2  0
  9 10  1  0
 10 11  2  0
 11 12  1  0
 13 12  2  0
 13 14  1  0
 15 14  1  1
 15 16  1  0
 16  7  1  0
 17 15  1  0
 18 17  2  0
 19 13  1  0
 20 10  1  0
 20 19  2  0
 21 17  1  0
 22 21  1  0
 22 28  1  0
 22 23  1  1
 24 23  1  0
 25 26  1  0
 25 24  1  0
 27 26  1  0
 28 29  1  0
 30 28  2  0
M  END
$$$$
