TYI.pdb
     RDKit          3D

 28 28  0  0  1  0  0  0  0  0999 V2000
   16.4595  -16.2447  -17.6562 C   0  0  0  0  0  0  0  0  0  0  0  0
   16.8272  -14.7887  -17.8387 C   0  0  1  0  0  0  0  0  0  0  0  0
   15.6599  -14.1072  -18.1581 O   0  0  0  0  0  0  0  0  0  0  0  0
   17.3806  -14.1883  -16.5615 C   0  0  2  0  0  0  0  0  0  0  0  0
   16.4067  -14.3405  -15.4722 N   0  0  0  0  0  0  0  0  0  0  0  0
   17.7180  -12.7574  -16.7340 C   0  0  0  0  0  0  0  0  0  0  0  0
   18.6289  -12.4549  -17.5494 O   0  0  0  0  0  0  0  0  0  0  0  0
   17.0173   -3.9185  -15.8949 O   0  0  0  0  0  0  0  0  0  0  0  0
   16.8528   -5.3041  -15.9752 C   0  0  0  0  0  0  0  0  0  0  0  0
   16.2278   -5.9071  -14.9061 C   0  0  0  0  0  0  0  0  0  0  0  0
   16.0499   -7.2673  -14.9520 C   0  0  0  0  0  0  0  0  0  0  0  0
   16.4707   -8.0396  -16.0191 C   0  0  0  0  0  0  0  0  0  0  0  0
   16.2142   -9.4973  -15.9372 C   0  0  0  0  0  0  0  0  0  0  0  0
   17.4626  -10.3092  -16.2004 C   0  0  2  0  0  0  0  0  0  0  0  0
   17.0955  -11.7054  -16.0543 N   0  0  0  0  0  0  0  0  0  0  0  0
   18.4696   -9.8933  -15.1988 C   0  0  0  0  0  0  0  0  0  0  0  0
   18.3162  -10.2714  -14.0159 O   0  0  0  0  0  0  0  0  0  0  0  0
   17.0853   -7.4145  -17.0609 C   0  0  0  0  0  0  0  0  0  0  0  0
   17.2844   -6.0366  -17.0519 C   0  0  0  0  0  0  0  0  0  0  0  0
   23.8869  -10.6124  -13.9001 C   0  0  0  0  0  0  0  0  0  0  0  0
   22.8257   -9.5446  -13.7300 C   0  0  0  0  0  0  0  0  0  0  0  0
   21.7469   -9.8115  -14.7420 C   0  0  2  0  0  0  0  0  0  0  0  0
   22.3647   -9.6803  -16.1191 C   0  0  0  0  0  0  0  0  0  0  0  0
   20.6101   -8.8230  -14.6683 C   0  0  2  0  0  0  0  0  0  0  0  0
   19.5630   -9.0905  -15.6016 N   0  0  0  0  0  0  0  0  0  0  0  0
   21.1812   -7.4894  -14.9686 C   0  0  0  0  0  0  0  0  0  0  0  0
   21.9529   -6.8728  -14.1878 O   0  0  0  0  0  0  0  0  0  0  0  0
   20.8662   -6.8695  -16.1600 O   0  0  0  0  0  0  0  0  0  0  0  0
  2  1  1  1
  3  2  1  0
  4  2  1  0
  4  6  1  0
  4  5  1  1
  6 15  1  0
  7  6  2  0
  9  8  1  0
 10  9  2  0
 11 10  1  0
 12 11  2  0
 12 18  1  0
 13 12  1  0
 14 16  1  0
 14 13  1  1
 15 14  1  0
 16 25  1  0
 17 16  2  0
 18 19  2  0
 19  9  1  0
 21 20  1  0
 22 21  1  0
 22 24  1  0
 22 23  1  6
 24 26  1  0
 24 25  1  6
 26 27  2  0
 26 28  1  0
M  END
$$$$
