TYI.pdb
     RDKit          3D

 28 28  0  0  1  0  0  0  0  0999 V2000
   19.1362  -13.4111  -18.4837 C   0  0  0  0  0  0  0  0  0  0  0  0
   20.2034  -14.1621  -19.2488 C   0  0  1  0  0  0  0  0  0  0  0  0
   19.5904  -15.2607  -19.8375 O   0  0  0  0  0  0  0  0  0  0  0  0
   20.7983  -13.3140  -20.3555 C   0  0  2  0  0  0  0  0  0  0  0  0
   21.8063  -14.0869  -21.0936 N   0  0  0  0  0  0  0  0  0  0  0  0
   21.4092  -12.0752  -19.8235 C   0  0  0  0  0  0  0  0  0  0  0  0
   22.6043  -12.1229  -19.4288 O   0  0  0  0  0  0  0  0  0  0  0  0
   15.3999   -8.2614  -20.9264 O   0  0  0  0  0  0  0  0  0  0  0  0
   16.7734   -8.2713  -20.6678 C   0  0  0  0  0  0  0  0  0  0  0  0
   17.5405   -9.0801  -21.4768 C   0  0  0  0  0  0  0  0  0  0  0  0
   18.8939   -9.1138  -21.2505 C   0  0  0  0  0  0  0  0  0  0  0  0
   19.5025   -8.3744  -20.2530 C   0  0  0  0  0  0  0  0  0  0  0  0
   20.9730   -8.5060  -20.1199 C   0  0  0  0  0  0  0  0  0  0  0  0
   21.3604   -9.6370  -19.1938 C   0  0  2  0  0  0  0  0  0  0  0  0
   20.7542  -10.8432  -19.7255 N   0  0  0  0  0  0  0  0  0  0  0  0
   20.8353   -9.2980  -17.8522 C   0  0  0  0  0  0  0  0  0  0  0  0
   19.7279   -9.7730  -17.5149 O   0  0  0  0  0  0  0  0  0  0  0  0
   18.7175   -7.5844  -19.4698 C   0  0  0  0  0  0  0  0  0  0  0  0
   17.3407   -7.5229  -19.6677 C   0  0  0  0  0  0  0  0  0  0  0  0
   23.3660  -11.0076  -13.9516 C   0  0  0  0  0  0  0  0  0  0  0  0
   22.3307  -10.4823  -14.9249 C   0  0  0  0  0  0  0  0  0  0  0  0
   22.1879   -9.0057  -14.6827 C   0  0  2  0  0  0  0  0  0  0  0  0
   21.6459   -8.8195  -13.2802 C   0  0  0  0  0  0  0  0  0  0  0  0
   21.2160   -8.3433  -15.6269 C   0  0  2  0  0  0  0  0  0  0  0  0
   21.5902   -8.4577  -17.0002 N   0  0  0  0  0  0  0  0  0  0  0  0
   21.1784   -6.9070  -15.2655 C   0  0  0  0  0  0  0  0  0  0  0  0
   21.8400   -6.0218  -15.8687 O   0  0  0  0  0  0  0  0  0  0  0  0
   20.3842   -6.4924  -14.2165 O   0  0  0  0  0  0  0  0  0  0  0  0
  2  1  1  6
  3  2  1  0
  4  2  1  0
  4  6  1  0
  4  5  1  1
  6 15  1  0
  7  6  2  0
  9  8  1  0
 10  9  2  0
 11 10  1  0
 12 11  2  0
 12 18  1  0
 13 12  1  0
 14 16  1  0
 14 13  1  6
 15 14  1  0
 16 25  1  0
 17 16  2  0
 18 19  2  0
 19  9  1  0
 21 20  1  0
 22 21  1  0
 22 24  1  0
 22 23  1  1
 24 26  1  0
 24 25  1  6
 26 27  2  0
 26 28  1  0
M  END
$$$$
