TYI.pdb
     RDKit          3D

 28 28  0  0  1  0  0  0  0  0999 V2000
   29.8187  -23.4815  -19.2560 C   0  0  0  0  0  0  0  0  0  0  0  0
   28.9852  -22.9015  -18.1348 C   0  0  1  0  0  0  0  0  0  0  0  0
   29.8611  -22.5219  -17.1259 O   0  0  0  0  0  0  0  0  0  0  0  0
   28.2293  -21.6661  -18.5825 C   0  0  2  0  0  0  0  0  0  0  0  0
   29.1715  -20.6515  -19.0734 N   0  0  0  0  0  0  0  0  0  0  0  0
   27.4123  -21.1003  -17.4855 C   0  0  0  0  0  0  0  0  0  0  0  0
   27.8081  -20.0389  -16.9351 O   0  0  0  0  0  0  0  0  0  0  0  0
   20.5390  -19.7439  -12.0783 O   0  0  0  0  0  0  0  0  0  0  0  0
   21.3955  -20.0980  -13.1245 C   0  0  0  0  0  0  0  0  0  0  0  0
   21.8135  -21.4101  -13.1530 C   0  0  0  0  0  0  0  0  0  0  0  0
   22.6556  -21.7922  -14.1673 C   0  0  0  0  0  0  0  0  0  0  0  0
   23.0909  -20.9172  -15.1456 C   0  0  0  0  0  0  0  0  0  0  0  0
   23.9988  -21.4643  -16.1820 C   0  0  0  0  0  0  0  0  0  0  0  0
   25.4448  -21.1128  -15.9131 C   0  0  2  0  0  0  0  0  0  0  0  0
   26.2220  -21.6598  -17.0095 N   0  0  0  0  0  0  0  0  0  0  0  0
   25.8066  -21.7279  -14.6165 C   0  0  0  0  0  0  0  0  0  0  0  0
   25.9053  -22.9741  -14.5618 O   0  0  0  0  0  0  0  0  0  0  0  0
   22.6603  -19.6267  -15.0903 C   0  0  0  0  0  0  0  0  0  0  0  0
   21.8057  -19.2003  -14.0773 C   0  0  0  0  0  0  0  0  0  0  0  0
   29.7166  -21.0159  -10.2822 C   0  0  0  0  0  0  0  0  0  0  0  0
   28.3145  -21.5302  -10.5373 C   0  0  0  0  0  0  0  0  0  0  0  0
   27.8680  -20.9905  -11.8672 C   0  0  2  0  0  0  0  0  0  0  0  0
   27.7759  -19.4832  -11.7450 C   0  0  0  0  0  0  0  0  0  0  0  0
   26.5049  -21.4876  -12.2791 C   0  0  2  0  0  0  0  0  0  0  0  0
   26.0279  -20.9005  -13.4902 N   0  0  0  0  0  0  0  0  0  0  0  0
   25.5713  -21.1361  -11.1839 C   0  0  0  0  0  0  0  0  0  0  0  0
   25.5831  -21.6944  -10.0555 O   0  0  0  0  0  0  0  0  0  0  0  0
   24.6300  -20.1482  -11.3862 O   0  0  0  0  0  0  0  0  0  0  0  0
  2  1  1  6
  3  2  1  0
  4  2  1  0
  4  6  1  0
  4  5  1  1
  6 15  1  0
  7  6  2  0
  9  8  1  0
 10  9  2  0
 11 10  1  0
 12 11  2  0
 12 18  1  0
 13 12  1  0
 14 16  1  0
 14 13  1  6
 15 14  1  0
 16 25  1  0
 17 16  2  0
 18 19  2  0
 19  9  1  0
 21 20  1  0
 22 21  1  0
 22 24  1  0
 22 23  1  1
 24 26  1  0
 24 25  1  6
 26 27  2  0
 26 28  1  0
M  END
$$$$
