TYI.pdb
     RDKit          3D

 28 28  0  0  1  0  0  0  0  0999 V2000
   27.3376  -18.4108  -13.9490 C   0  0  0  0  0  0  0  0  0  0  0  0
   27.4690  -19.7115  -14.7101 C   0  0  1  0  0  0  0  0  0  0  0  0
   27.9645  -19.4018  -15.9701 O   0  0  0  0  0  0  0  0  0  0  0  0
   28.4527  -20.6520  -14.0426 C   0  0  2  0  0  0  0  0  0  0  0  0
   28.5789  -21.8869  -14.8285 N   0  0  0  0  0  0  0  0  0  0  0  0
   28.0399  -20.9798  -12.6595 C   0  0  0  0  0  0  0  0  0  0  0  0
   27.1513  -21.8571  -12.4957 O   0  0  0  0  0  0  0  0  0  0  0  0
   27.2918  -20.2026   -3.8703 O   0  0  0  0  0  0  0  0  0  0  0  0
   27.7694  -20.2128   -5.1838 C   0  0  0  0  0  0  0  0  0  0  0  0
   27.3767  -19.1626   -5.9837 C   0  0  0  0  0  0  0  0  0  0  0  0
   27.8276  -19.1412   -7.2800 C   0  0  0  0  0  0  0  0  0  0  0  0
   28.6498  -20.1236   -7.8006 C   0  0  0  0  0  0  0  0  0  0  0  0
   29.0618  -19.9754   -9.2169 C   0  0  0  0  0  0  0  0  0  0  0  0
   28.0913  -20.6451  -10.1636 C   0  0  2  0  0  0  0  0  0  0  0  0
   28.5674  -20.3840  -11.5091 N   0  0  0  0  0  0  0  0  0  0  0  0
   26.7617  -20.0425   -9.9196 C   0  0  0  0  0  0  0  0  0  0  0  0
   26.6437  -18.8032  -10.0455 O   0  0  0  0  0  0  0  0  0  0  0  0
   29.0208  -21.1488   -6.9850 C   0  0  0  0  0  0  0  0  0  0  0  0
   28.5844  -21.2063   -5.6642 C   0  0  0  0  0  0  0  0  0  0  0  0
   21.8968  -20.1041  -12.5578 C   0  0  0  0  0  0  0  0  0  0  0  0
   22.3676  -19.9131  -11.1305 C   0  0  0  0  0  0  0  0  0  0  0  0
   23.7293  -20.5387  -11.0141 C   0  0  2  0  0  0  0  0  0  0  0  0
   23.5729  -22.0281  -11.2438 C   0  0  0  0  0  0  0  0  0  0  0  0
   24.3463  -20.3614   -9.6494 C   0  0  2  0  0  0  0  0  0  0  0  0
   25.6759  -20.8737   -9.5558 N   0  0  0  0  0  0  0  0  0  0  0  0
   23.4881  -21.0971   -8.6918 C   0  0  0  0  0  0  0  0  0  0  0  0
   23.8533  -22.1433   -8.0942 O   0  0  0  0  0  0  0  0  0  0  0  0
   22.2175  -20.6314   -8.4237 O   0  0  0  0  0  0  0  0  0  0  0  0
  2  1  1  1
  3  2  1  0
  4  2  1  0
  4  6  1  0
  4  5  1  6
  6 15  1  0
  7  6  2  0
  9  8  1  0
 10  9  2  0
 11 10  1  0
 12 11  2  0
 12 18  1  0
 13 12  1  0
 14 16  1  0
 14 13  1  1
 15 14  1  0
 16 25  1  0
 17 16  2  0
 18 19  2  0
 19  9  1  0
 21 20  1  0
 22 21  1  0
 22 24  1  0
 22 23  1  1
 24 26  1  0
 24 25  1  6
 26 27  2  0
 26 28  1  0
M  END
$$$$
