TYI.pdb
     RDKit          3D

 28 28  0  0  1  0  0  0  0  0999 V2000
   28.4268  -21.7800  -18.6015 C   0  0  0  0  0  0  0  0  0  0  0  0
   27.2777  -21.7247  -17.6192 C   0  0  1  0  0  0  0  0  0  0  0  0
   26.2112  -22.4019  -18.1963 O   0  0  0  0  0  0  0  0  0  0  0  0
   27.6214  -22.4225  -16.3181 C   0  0  2  0  0  0  0  0  0  0  0  0
   27.8127  -23.8598  -16.5546 N   0  0  0  0  0  0  0  0  0  0  0  0
   26.5692  -22.2197  -15.2970 C   0  0  0  0  0  0  0  0  0  0  0  0
   25.8429  -23.2010  -14.9878 O   0  0  0  0  0  0  0  0  0  0  0  0
   29.8261  -21.6566   -9.1587 O   0  0  0  0  0  0  0  0  0  0  0  0
   28.7880  -21.2013   -9.9763 C   0  0  0  0  0  0  0  0  0  0  0  0
   29.1526  -20.7221  -11.2150 C   0  0  0  0  0  0  0  0  0  0  0  0
   28.1577  -20.2667  -12.0439 C   0  0  0  0  0  0  0  0  0  0  0  0
   26.8232  -20.2734  -11.6819 C   0  0  0  0  0  0  0  0  0  0  0  0
   25.8540  -19.7522  -12.6752 C   0  0  0  0  0  0  0  0  0  0  0  0
   25.3356  -20.8406  -13.5880 C   0  0  2  0  0  0  0  0  0  0  0  0
   26.3181  -21.0094  -14.6424 N   0  0  0  0  0  0  0  0  0  0  0  0
   24.0314  -20.3803  -14.1146 C   0  0  0  0  0  0  0  0  0  0  0  0
   24.0318  -19.5026  -15.0065 O   0  0  0  0  0  0  0  0  0  0  0  0
   26.4944  -20.7533  -10.4509 C   0  0  0  0  0  0  0  0  0  0  0  0
   27.4744  -21.2241   -9.5812 C   0  0  0  0  0  0  0  0  0  0  0  0
   19.3681  -21.5398  -16.8325 C   0  0  0  0  0  0  0  0  0  0  0  0
   19.4948  -21.1762  -15.3672 C   0  0  0  0  0  0  0  0  0  0  0  0
   20.8666  -21.5909  -14.9136 C   0  0  2  0  0  0  0  0  0  0  0  0
   20.7054  -22.7766  -13.9845 C   0  0  0  0  0  0  0  0  0  0  0  0
   21.5838  -20.5134  -14.1396 C   0  0  2  0  0  0  0  0  0  0  0  0
   22.8365  -20.9382  -13.6016 N   0  0  0  0  0  0  0  0  0  0  0  0
   20.6952  -20.1265  -13.0191 C   0  0  0  0  0  0  0  0  0  0  0  0
   20.9021  -20.4586  -11.8224 O   0  0  0  0  0  0  0  0  0  0  0  0
   19.5756  -19.3621  -13.2744 O   0  0  0  0  0  0  0  0  0  0  0  0
  2  1  1  6
  3  2  1  0
  4  2  1  0
  4  6  1  0
  4  5  1  6
  6 15  1  0
  7  6  2  0
  9  8  1  0
 10  9  2  0
 11 10  1  0
 12 11  2  0
 12 18  1  0
 13 12  1  0
 14 16  1  0
 14 13  1  1
 15 14  1  0
 16 25  1  0
 17 16  2  0
 18 19  2  0
 19  9  1  0
 21 20  1  0
 22 21  1  0
 22 24  1  0
 22 23  1  1
 24 26  1  0
 24 25  1  1
 26 27  2  0
 26 28  1  0
M  END
$$$$
