TYI.pdb
     RDKit          3D

 28 28  0  0  1  0  0  0  0  0999 V2000
   28.9200  -20.5881  -18.6907 C   0  0  0  0  0  0  0  0  0  0  0  0
   27.8678  -20.7431  -17.6150 C   0  0  1  0  0  0  0  0  0  0  0  0
   26.6724  -21.0518  -18.2512 O   0  0  0  0  0  0  0  0  0  0  0  0
   28.1986  -21.8818  -16.6705 C   0  0  2  0  0  0  0  0  0  0  0  0
   28.2077  -23.1551  -17.4031 N   0  0  0  0  0  0  0  0  0  0  0  0
   27.2348  -21.9568  -15.5496 C   0  0  0  0  0  0  0  0  0  0  0  0
   26.3357  -22.8376  -15.5957 O   0  0  0  0  0  0  0  0  0  0  0  0
   23.5031  -20.4050   -7.6596 O   0  0  0  0  0  0  0  0  0  0  0  0
   24.2807  -20.3486   -8.8196 C   0  0  0  0  0  0  0  0  0  0  0  0
   25.4154  -21.1292   -8.8318 C   0  0  0  0  0  0  0  0  0  0  0  0
   26.2025  -21.0979   -9.9559 C   0  0  0  0  0  0  0  0  0  0  0  0
   25.8985  -20.3208  -11.0585 C   0  0  0  0  0  0  0  0  0  0  0  0
   26.8366  -20.3829  -12.2047 C   0  0  0  0  0  0  0  0  0  0  0  0
   26.2611  -21.1589  -13.3681 C   0  0  2  0  0  0  0  0  0  0  0  0
   27.2472  -21.1163  -14.4317 N   0  0  0  0  0  0  0  0  0  0  0  0
   24.9997  -20.4884  -13.7549 C   0  0  0  0  0  0  0  0  0  0  0  0
   25.0732  -19.3794  -14.3298 O   0  0  0  0  0  0  0  0  0  0  0  0
   24.7702  -19.5600  -11.0162 C   0  0  0  0  0  0  0  0  0  0  0  0
   23.9458  -19.5644   -9.8943 C   0  0  0  0  0  0  0  0  0  0  0  0
   20.6605  -20.3210  -17.1632 C   0  0  0  0  0  0  0  0  0  0  0  0
   20.8646  -20.0833  -15.6809 C   0  0  0  0  0  0  0  0  0  0  0  0
   22.1652  -20.7291  -15.2925 C   0  0  2  0  0  0  0  0  0  0  0  0
   21.9980  -22.2274  -15.4423 C   0  0  0  0  0  0  0  0  0  0  0  0
   22.5507  -20.4655  -13.8584 C   0  0  2  0  0  0  0  0  0  0  0  0
   23.7624  -21.1120  -13.4676 N   0  0  0  0  0  0  0  0  0  0  0  0
   21.4468  -20.9816  -13.0158 C   0  0  0  0  0  0  0  0  0  0  0  0
   20.3191  -20.4278  -12.9332 O   0  0  0  0  0  0  0  0  0  0  0  0
   21.6397  -22.1279  -12.2731 O   0  0  0  0  0  0  0  0  0  0  0  0
  2  1  1  6
  3  2  1  0
  4  2  1  0
  4  6  1  0
  4  5  1  6
  6 15  1  0
  7  6  2  0
  9  8  1  0
 10  9  2  0
 11 10  1  0
 12 11  2  0
 12 18  1  0
 13 12  1  0
 14 16  1  0
 14 13  1  1
 15 14  1  0
 16 25  1  0
 17 16  2  0
 18 19  2  0
 19  9  1  0
 21 20  1  0
 22 21  1  0
 22 24  1  0
 22 23  1  1
 24 26  1  0
 24 25  1  1
 26 27  2  0
 26 28  1  0
M  END
$$$$
