TYI.pdb
     RDKit          3D

 28 28  0  0  1  0  0  0  0  0999 V2000
   20.2209  -11.8417  -19.0056 C   0  0  0  0  0  0  0  0  0  0  0  0
   20.7159  -13.1197  -18.3652 C   0  0  1  0  0  0  0  0  0  0  0  0
   20.5106  -14.1440  -19.2805 O   0  0  0  0  0  0  0  0  0  0  0  0
   22.2005  -13.0554  -18.0657 C   0  0  2  0  0  0  0  0  0  0  0  0
   22.6505  -14.3265  -17.4825 N   0  0  0  0  0  0  0  0  0  0  0  0
   22.5227  -11.9415  -17.1457 C   0  0  0  0  0  0  0  0  0  0  0  0
   22.3603  -12.1242  -15.9102 O   0  0  0  0  0  0  0  0  0  0  0  0
   28.7527  -12.7487  -16.2895 O   0  0  0  0  0  0  0  0  0  0  0  0
   27.7271  -11.8045  -16.3894 C   0  0  0  0  0  0  0  0  0  0  0  0
   27.1670  -11.6422  -17.6371 C   0  0  0  0  0  0  0  0  0  0  0  0
   26.1567  -10.7226  -17.7711 C   0  0  0  0  0  0  0  0  0  0  0  0
   25.6905   -9.9663  -16.7116 C   0  0  0  0  0  0  0  0  0  0  0  0
   24.5943   -9.0104  -16.9981 C   0  0  0  0  0  0  0  0  0  0  0  0
   23.2383   -9.5791  -16.6450 C   0  0  2  0  0  0  0  0  0  0  0  0
   22.9991  -10.6894  -17.5479 N   0  0  0  0  0  0  0  0  0  0  0  0
   22.2508   -8.4923  -16.8297 C   0  0  0  0  0  0  0  0  0  0  0  0
   22.0857   -8.0348  -17.9826 O   0  0  0  0  0  0  0  0  0  0  0  0
   26.2644  -10.1495  -15.4905 C   0  0  0  0  0  0  0  0  0  0  0  0
   27.2916  -11.0725  -15.3139 C   0  0  0  0  0  0  0  0  0  0  0  0
   16.7515   -7.2809  -16.4373 C   0  0  0  0  0  0  0  0  0  0  0  0
   18.0586   -6.5628  -16.1708 C   0  0  0  0  0  0  0  0  0  0  0  0
   19.1271   -7.6083  -16.0141 C   0  0  2  0  0  0  0  0  0  0  0  0
   18.8591   -8.3505  -14.7208 C   0  0  0  0  0  0  0  0  0  0  0  0
   20.5143   -7.0250  -15.9130 C   0  0  2  0  0  0  0  0  0  0  0  0
   21.5308   -8.0075  -15.7122 N   0  0  0  0  0  0  0  0  0  0  0  0
   20.5094   -6.1059  -14.7511 C   0  0  0  0  0  0  0  0  0  0  0  0
   20.9594   -6.4178  -13.6173 O   0  0  0  0  0  0  0  0  0  0  0  0
   19.9899   -4.8359  -14.8932 O   0  0  0  0  0  0  0  0  0  0  0  0
  2  1  1  6
  3  2  1  0
  4  2  1  0
  4  6  1  0
  4  5  1  1
  6 15  1  0
  7  6  2  0
  9  8  1  0
 10  9  2  0
 11 10  1  0
 12 11  2  0
 12 18  1  0
 13 12  1  0
 14 16  1  0
 14 13  1  6
 15 14  1  0
 16 25  1  0
 17 16  2  0
 18 19  2  0
 19  9  1  0
 21 20  1  0
 22 21  1  0
 22 24  1  0
 22 23  1  1
 24 26  1  0
 24 25  1  1
 26 27  2  0
 26 28  1  0
M  END
$$$$
