TYI.pdb
     RDKit          3D

 28 28  0  0  1  0  0  0  0  0999 V2000
   16.6975   -8.6263  -15.7104 C   0  0  0  0  0  0  0  0  0  0  0  0
   17.4823   -9.8667  -16.0764 C   0  0  1  0  0  0  0  0  0  0  0  0
   17.5065   -9.9431  -17.4630 O   0  0  0  0  0  0  0  0  0  0  0  0
   18.9159   -9.7839  -15.5909 C   0  0  2  0  0  0  0  0  0  0  0  0
   19.6600  -10.9767  -16.0171 N   0  0  0  0  0  0  0  0  0  0  0  0
   18.9852   -9.6512  -14.1182 C   0  0  0  0  0  0  0  0  0  0  0  0
   18.8385  -10.6889  -13.4197 O   0  0  0  0  0  0  0  0  0  0  0  0
   22.4180   -3.5891  -14.7305 O   0  0  0  0  0  0  0  0  0  0  0  0
   21.9940   -4.6968  -13.9910 C   0  0  0  0  0  0  0  0  0  0  0  0
   21.1683   -4.4354  -12.9201 C   0  0  0  0  0  0  0  0  0  0  0  0
   20.7330   -5.5006  -12.1718 C   0  0  0  0  0  0  0  0  0  0  0  0
   21.0906   -6.8063  -12.4534 C   0  0  0  0  0  0  0  0  0  0  0  0
   20.5478   -7.8596  -11.5626 C   0  0  0  0  0  0  0  0  0  0  0  0
   19.1707   -8.3129  -11.9926 C   0  0  2  0  0  0  0  0  0  0  0  0
   19.2042   -8.4495  -13.4368 N   0  0  0  0  0  0  0  0  0  0  0  0
   18.2152   -7.2701  -11.5568 C   0  0  0  0  0  0  0  0  0  0  0  0
   18.0652   -6.2650  -12.2870 O   0  0  0  0  0  0  0  0  0  0  0  0
   21.9080   -7.0326  -13.5185 C   0  0  0  0  0  0  0  0  0  0  0  0
   22.3707   -5.9788  -14.3019 C   0  0  0  0  0  0  0  0  0  0  0  0
   13.7773   -8.8468   -8.7174 C   0  0  0  0  0  0  0  0  0  0  0  0
   14.6897   -8.2388   -9.7629 C   0  0  0  0  0  0  0  0  0  0  0  0
   15.4065   -7.0829   -9.1229 C   0  0  2  0  0  0  0  0  0  0  0  0
   14.3883   -5.9877   -8.8794 C   0  0  0  0  0  0  0  0  0  0  0  0
   16.4867   -6.4994   -9.9989 C   0  0  2  0  0  0  0  0  0  0  0  0
   17.5076   -7.4367  -10.3428 N   0  0  0  0  0  0  0  0  0  0  0  0
   17.1027   -5.3880   -9.2373 C   0  0  0  0  0  0  0  0  0  0  0  0
   18.1679   -5.5059   -8.5763 O   0  0  0  0  0  0  0  0  0  0  0  0
   16.4967   -4.1488   -9.2364 O   0  0  0  0  0  0  0  0  0  0  0  0
  2  1  1  6
  3  2  1  0
  4  2  1  0
  4  6  1  0
  4  5  1  1
  6 15  1  0
  7  6  2  0
  9  8  1  0
 10  9  2  0
 11 10  1  0
 12 11  2  0
 12 18  1  0
 13 12  1  0
 14 16  1  0
 14 13  1  6
 15 14  1  0
 16 25  1  0
 17 16  2  0
 18 19  2  0
 19  9  1  0
 21 20  1  0
 22 21  1  0
 22 24  1  0
 22 23  1  6
 24 26  1  0
 24 25  1  1
 26 27  2  0
 26 28  1  0
M  END
$$$$
