TYI.pdb
     RDKit          3D

 28 28  0  0  1  0  0  0  0  0999 V2000
   20.7189  -15.5847  -19.7613 C   0  0  0  0  0  0  0  0  0  0  0  0
   20.9961  -14.1755  -19.2864 C   0  0  1  0  0  0  0  0  0  0  0  0
   21.4741  -14.2670  -17.9855 O   0  0  0  0  0  0  0  0  0  0  0  0
   22.0634  -13.5029  -20.1269 C   0  0  2  0  0  0  0  0  0  0  0  0
   23.3253  -14.2484  -20.0265 N   0  0  0  0  0  0  0  0  0  0  0  0
   22.2783  -12.0983  -19.7121 C   0  0  0  0  0  0  0  0  0  0  0  0
   23.2799  -11.8362  -18.9949 O   0  0  0  0  0  0  0  0  0  0  0  0
   21.4851   -3.3333  -19.2246 O   0  0  0  0  0  0  0  0  0  0  0  0
   21.2466   -4.6830  -19.4982 C   0  0  0  0  0  0  0  0  0  0  0  0
   22.1923   -5.3261  -20.2657 C   0  0  0  0  0  0  0  0  0  0  0  0
   21.9894   -6.6528  -20.5537 C   0  0  0  0  0  0  0  0  0  0  0  0
   20.8846   -7.3533  -20.1057 C   0  0  0  0  0  0  0  0  0  0  0  0
   20.7919   -8.7817  -20.4912 C   0  0  0  0  0  0  0  0  0  0  0  0
   21.6319   -9.6667  -19.5978 C   0  0  2  0  0  0  0  0  0  0  0  0
   21.4459  -11.0295  -20.0600 N   0  0  0  0  0  0  0  0  0  0  0  0
   21.1397   -9.4787  -18.2148 C   0  0  0  0  0  0  0  0  0  0  0  0
   20.0521  -10.0104  -17.8982 O   0  0  0  0  0  0  0  0  0  0  0  0
   19.9674   -6.6900  -19.3490 C   0  0  0  0  0  0  0  0  0  0  0  0
   20.1372   -5.3442  -19.0353 C   0  0  0  0  0  0  0  0  0  0  0  0
   22.7293  -10.1104  -12.6892 C   0  0  0  0  0  0  0  0  0  0  0  0
   21.9015   -9.1721  -13.5435 C   0  0  0  0  0  0  0  0  0  0  0  0
   22.2736   -9.4179  -14.9790 C   0  0  2  0  0  0  0  0  0  0  0  0
   23.7218   -9.0095  -15.1557 C   0  0  0  0  0  0  0  0  0  0  0  0
   21.4589   -8.5993  -15.9490 C   0  0  2  0  0  0  0  0  0  0  0  0
   21.9027   -8.7132  -17.3015 N   0  0  0  0  0  0  0  0  0  0  0  0
   21.5851   -7.1846  -15.5279 C   0  0  0  0  0  0  0  0  0  0  0  0
   22.3558   -6.3602  -16.0861 O   0  0  0  0  0  0  0  0  0  0  0  0
   20.8290   -6.7217  -14.4711 O   0  0  0  0  0  0  0  0  0  0  0  0
  2  1  1  6
  3  2  1  0
  4  2  1  0
  4  6  1  0
  4  5  1  1
  6 15  1  0
  7  6  2  0
  9  8  1  0
 10  9  2  0
 11 10  1  0
 12 11  2  0
 12 18  1  0
 13 12  1  0
 14 16  1  0
 14 13  1  6
 15 14  1  0
 16 25  1  0
 17 16  2  0
 18 19  2  0
 19  9  1  0
 21 20  1  0
 22 21  1  0
 22 24  1  0
 22 23  1  1
 24 26  1  0
 24 25  1  6
 26 27  2  0
 26 28  1  0
M  END
$$$$
