TYI.pdb
     RDKit          3D

 28 28  0  0  1  0  0  0  0  0999 V2000
   23.9180  -18.6455  -18.0395 C   0  0  0  0  0  0  0  0  0  0  0  0
   23.6511  -18.8372  -16.5629 C   0  0  1  0  0  0  0  0  0  0  0  0
   22.9627  -20.0353  -16.4222 O   0  0  0  0  0  0  0  0  0  0  0  0
   24.9398  -18.9467  -15.7722 C   0  0  2  0  0  0  0  0  0  0  0  0
   25.7267  -20.0914  -16.2506 N   0  0  0  0  0  0  0  0  0  0  0  0
   24.6785  -19.0908  -14.3224 C   0  0  0  0  0  0  0  0  0  0  0  0
   24.0245  -18.1840  -13.7425 O   0  0  0  0  0  0  0  0  0  0  0  0
   18.6471  -21.5510  -12.7712 O   0  0  0  0  0  0  0  0  0  0  0  0
   20.0147  -21.5374  -12.4833 C   0  0  0  0  0  0  0  0  0  0  0  0
   20.8458  -22.0666  -13.4457 C   0  0  0  0  0  0  0  0  0  0  0  0
   22.1955  -22.0692  -13.1955 C   0  0  0  0  0  0  0  0  0  0  0  0
   22.7391  -21.5661  -12.0278 C   0  0  0  0  0  0  0  0  0  0  0  0
   24.2135  -21.6324  -11.8889 C   0  0  0  0  0  0  0  0  0  0  0  0
   24.8661  -20.2868  -12.1137 C   0  0  2  0  0  0  0  0  0  0  0  0
   25.1062  -20.1683  -13.5398 N   0  0  0  0  0  0  0  0  0  0  0  0
   26.1260  -20.2808  -11.3373 C   0  0  0  0  0  0  0  0  0  0  0  0
   27.1737  -20.6554  -11.9100 O   0  0  0  0  0  0  0  0  0  0  0  0
   21.8917  -21.0497  -11.0956 C   0  0  0  0  0  0  0  0  0  0  0  0
   20.5165  -21.0289  -11.3120 C   0  0  0  0  0  0  0  0  0  0  0  0
   28.1585  -18.8133   -5.6736 C   0  0  0  0  0  0  0  0  0  0  0  0
   28.4658  -19.3107   -7.0712 C   0  0  0  0  0  0  0  0  0  0  0  0
   27.1634  -19.4076   -7.8152 C   0  0  2  0  0  0  0  0  0  0  0  0
   26.3164  -20.4578   -7.1260 C   0  0  0  0  0  0  0  0  0  0  0  0
   27.3330  -19.8437   -9.2491 C   0  0  2  0  0  0  0  0  0  0  0  0
   26.1108  -19.8573   -9.9873 N   0  0  0  0  0  0  0  0  0  0  0  0
   27.8809  -21.2197   -9.2169 C   0  0  0  0  0  0  0  0  0  0  0  0
   27.1644  -22.2502   -9.1175 O   0  0  0  0  0  0  0  0  0  0  0  0
   29.2450  -21.4085   -9.2987 O   0  0  0  0  0  0  0  0  0  0  0  0
  2  1  1  6
  3  2  1  0
  4  2  1  0
  4  6  1  0
  4  5  1  6
  6 15  1  0
  7  6  2  0
  9  8  1  0
 10  9  2  0
 11 10  1  0
 12 11  2  0
 12 18  1  0
 13 12  1  0
 14 16  1  0
 14 13  1  6
 15 14  1  0
 16 25  1  0
 17 16  2  0
 18 19  2  0
 19  9  1  0
 21 20  1  0
 22 21  1  0
 22 24  1  0
 22 23  1  1
 24 26  1  0
 24 25  1  1
 26 27  2  0
 26 28  1  0
M  END
$$$$
