FCC.pdb
     RDKit          3D

 24 24  0  0  1  0  0  0  0  0999 V2000
   24.8651  -11.0497  -17.8340 N   0  0  0  0  0  0  0  0  0  0  0  0
   24.7210  -10.6389  -16.4266 C   0  0  1  0  0  0  0  0  0  0  0  0
   26.0707  -10.0906  -16.0233 C   0  0  0  0  0  0  0  0  0  0  0  0
   27.1547  -11.0992  -16.0565 C   0  0  0  0  0  0  0  0  0  0  0  0
   27.0714  -12.3144  -15.4131 C   0  0  0  0  0  0  0  0  0  0  0  0
   28.0942  -13.2481  -15.4628 C   0  0  0  0  0  0  0  0  0  0  0  0
   29.2507  -12.9817  -16.1732 C   0  0  0  0  0  0  0  0  0  0  0  0
   29.3490  -11.7768  -16.8186 C   0  0  0  0  0  0  0  0  0  0  0  0
   28.3321  -10.8635  -16.7620 C   0  0  0  0  0  0  0  0  0  0  0  0
   23.7112   -9.5609  -16.3077 C   0  0  0  0  0  0  0  0  0  0  0  0
   23.3920   -8.8293  -17.2908 O   0  0  0  0  0  0  0  0  0  0  0  0
   23.0326   -9.2707  -15.0938 N   0  0  0  0  0  0  0  0  0  0  0  0
   21.9341   -8.2843  -15.0543 C   0  0  1  0  0  0  0  0  0  0  0  0
   21.0618   -8.7326  -13.8938 C   0  0  0  0  0  0  0  0  0  0  0  0
   20.2221  -10.2855  -14.1726 S   0  0  0  0  0  0  0  0  0  0  0  0
   22.4527   -6.9335  -14.8648 C   0  0  0  0  0  0  0  0  0  0  0  0
   23.4643   -6.7001  -14.1384 O   0  0  0  0  0  0  0  0  0  0  0  0
   21.8485   -5.8174  -15.4875 N   0  0  0  0  0  0  0  0  0  0  0  0
   22.4320   -4.4776  -15.3792 C   0  0  1  0  0  0  0  0  0  0  0  0
   22.6879   -3.8941  -16.7550 C   0  0  0  0  0  0  0  0  0  0  0  0
   23.3210   -2.2124  -16.6636 S   0  0  0  0  0  0  0  0  0  0  0  0
   21.4929   -3.5757  -14.6836 C   0  0  0  0  0  0  0  0  0  0  0  0
   21.8775   -2.5916  -13.8068 O   0  0  0  0  0  0  0  0  0  0  0  0
   20.2634   -3.7069  -14.8993 O   0  0  0  0  0  0  0  0  0  0  0  0
  2  1  1  6
  2 10  1  0
  3  2  1  0
  4  3  1  0
  5  4  2  0
  6  5  1  0
  7  6  2  0
  7  8  1  0
  8  9  2  0
  9  4  1  0
 10 11  2  0
 12 10  1  0
 12 13  1  0
 13 14  1  1
 14 15  1  0
 16 17  2  0
 16 13  1  0
 18 16  1  0
 19 18  1  0
 19 20  1  6
 21 20  1  0
 22 19  1  0
 23 22  1  0
 24 22  2  0
M  END
$$$$
