FCC.pdb
     RDKit          3D

 24 24  0  0  1  0  0  0  0  0999 V2000
   23.5630  -13.4410  -17.4556 N   0  0  0  0  0  0  0  0  0  0  0  0
   22.5694  -12.4320  -17.8617 C   0  0  1  0  0  0  0  0  0  0  0  0
   21.2589  -13.1765  -17.9785 C   0  0  0  0  0  0  0  0  0  0  0  0
   21.2033  -14.1017  -19.1335 C   0  0  0  0  0  0  0  0  0  0  0  0
   21.2770  -15.4713  -19.0044 C   0  0  0  0  0  0  0  0  0  0  0  0
   21.2153  -16.3205  -20.0977 C   0  0  0  0  0  0  0  0  0  0  0  0
   21.0757  -15.8080  -21.3747 C   0  0  0  0  0  0  0  0  0  0  0  0
   21.0012  -14.4473  -21.5198 C   0  0  0  0  0  0  0  0  0  0  0  0
   21.0631  -13.6195  -20.4325 C   0  0  0  0  0  0  0  0  0  0  0  0
   22.4375  -11.3916  -16.8148 C   0  0  0  0  0  0  0  0  0  0  0  0
   22.6201  -11.6473  -15.5881 O   0  0  0  0  0  0  0  0  0  0  0  0
   22.0996  -10.0428  -17.1065 N   0  0  0  0  0  0  0  0  0  0  0  0
   21.9587   -9.0443  -16.0276 C   0  0  1  0  0  0  0  0  0  0  0  0
   23.2448   -8.2373  -16.0856 C   0  0  0  0  0  0  0  0  0  0  0  0
   23.4709   -7.3383  -17.6137 S   0  0  0  0  0  0  0  0  0  0  0  0
   20.7769   -8.2141  -16.2364 C   0  0  0  0  0  0  0  0  0  0  0  0
   20.3825   -7.8897  -17.3960 O   0  0  0  0  0  0  0  0  0  0  0  0
   20.0124   -7.7325  -15.1492 N   0  0  0  0  0  0  0  0  0  0  0  0
   18.7988   -6.9399  -15.3645 C   0  0  1  0  0  0  0  0  0  0  0  0
   17.8919   -7.0122  -14.1517 C   0  0  0  0  0  0  0  0  0  0  0  0
   17.4565   -8.7086  -13.7394 S   0  0  0  0  0  0  0  0  0  0  0  0
   19.1547   -5.5216  -15.5670 C   0  0  0  0  0  0  0  0  0  0  0  0
   18.2707   -4.5586  -15.9868 O   0  0  0  0  0  0  0  0  0  0  0  0
   20.3363   -5.1615  -15.3446 O   0  0  0  0  0  0  0  0  0  0  0  0
  2  1  1  1
  2 10  1  0
  3  2  1  0
  4  3  1  0
  5  4  2  0
  6  5  1  0
  7  6  2  0
  7  8  1  0
  8  9  2  0
  9  4  1  0
 10 11  2  0
 12 10  1  0
 12 13  1  0
 13 14  1  6
 14 15  1  0
 16 17  2  0
 16 13  1  0
 18 16  1  0
 19 18  1  0
 19 20  1  1
 21 20  1  0
 22 19  1  0
 23 22  1  0
 24 22  2  0
M  END
$$$$
