FCC.pdb
     RDKit          3D

 24 24  0  0  1  0  0  0  0  0999 V2000
   25.1182  -21.4495   -7.6731 N   0  0  0  0  0  0  0  0  0  0  0  0
   25.6316  -20.4827   -8.6590 C   0  0  1  0  0  0  0  0  0  0  0  0
   27.1338  -20.4902   -8.4912 C   0  0  0  0  0  0  0  0  0  0  0  0
   27.5868  -19.9722   -7.1798 C   0  0  0  0  0  0  0  0  0  0  0  0
   28.2581  -20.7442   -6.2572 C   0  0  0  0  0  0  0  0  0  0  0  0
   28.6804  -20.2382   -5.0382 C   0  0  0  0  0  0  0  0  0  0  0  0
   28.4352  -18.9181   -4.7059 C   0  0  0  0  0  0  0  0  0  0  0  0
   27.7680  -18.1371   -5.6131 C   0  0  0  0  0  0  0  0  0  0  0  0
   27.3564  -18.6485   -6.8133 C   0  0  0  0  0  0  0  0  0  0  0  0
   25.3010  -20.9271  -10.0335 C   0  0  0  0  0  0  0  0  0  0  0  0
   25.3378  -22.1470  -10.3712 O   0  0  0  0  0  0  0  0  0  0  0  0
   24.9218  -20.0264  -11.0647 N   0  0  0  0  0  0  0  0  0  0  0  0
   24.4849  -20.5234  -12.3850 C   0  0  1  0  0  0  0  0  0  0  0  0
   23.2081  -21.2954  -12.0975 C   0  0  0  0  0  0  0  0  0  0  0  0
   22.1280  -20.5003  -10.9161 S   0  0  0  0  0  0  0  0  0  0  0  0
   24.2641  -19.4179  -13.3115 C   0  0  0  0  0  0  0  0  0  0  0  0
   23.5715  -18.4056  -12.9935 O   0  0  0  0  0  0  0  0  0  0  0  0
   24.8169  -19.4242  -14.6125 N   0  0  0  0  0  0  0  0  0  0  0  0
   24.7125  -18.2546  -15.4892 C   0  0  1  0  0  0  0  0  0  0  0  0
   25.9141  -18.1686  -16.4097 C   0  0  0  0  0  0  0  0  0  0  0  0
   27.4632  -18.1858  -15.4947 S   0  0  0  0  0  0  0  0  0  0  0  0
   23.5112  -18.3698  -16.3392 C   0  0  0  0  0  0  0  0  0  0  0  0
   22.8793  -17.3023  -16.9276 O   0  0  0  0  0  0  0  0  0  0  0  0
   23.0279  -19.5099  -16.5443 O   0  0  0  0  0  0  0  0  0  0  0  0
  2  1  1  1
  2 10  1  0
  3  2  1  0
  4  3  1  0
  5  4  2  0
  6  5  1  0
  7  6  2  0
  7  8  1  0
  8  9  2  0
  9  4  1  0
 10 11  2  0
 12 10  1  0
 12 13  1  0
 13 14  1  1
 14 15  1  0
 16 17  2  0
 16 13  1  0
 18 16  1  0
 19 18  1  0
 19 20  1  6
 21 20  1  0
 22 19  1  0
 23 22  1  0
 24 22  2  0
M  END
$$$$
