FCC.pdb
     RDKit          3D

 24 24  0  0  1  0  0  0  0  0999 V2000
   23.0866  -11.0732  -16.2226 N   0  0  0  0  0  0  0  0  0  0  0  0
   22.0084  -10.1075  -16.4963 C   0  0  1  0  0  0  0  0  0  0  0  0
   20.8197  -10.9367  -16.9260 C   0  0  0  0  0  0  0  0  0  0  0  0
   20.9018  -11.4099  -18.3269 C   0  0  0  0  0  0  0  0  0  0  0  0
   20.6711  -10.5926  -19.4117 C   0  0  0  0  0  0  0  0  0  0  0  0
   20.7604  -11.0532  -20.7156 C   0  0  0  0  0  0  0  0  0  0  0  0
   21.0899  -12.3721  -20.9707 C   0  0  0  0  0  0  0  0  0  0  0  0
   21.3222  -13.1979  -19.9020 C   0  0  0  0  0  0  0  0  0  0  0  0
   21.2310  -12.7311  -18.6194 C   0  0  0  0  0  0  0  0  0  0  0  0
   21.6556   -9.3687  -15.2612 C   0  0  0  0  0  0  0  0  0  0  0  0
   21.7318   -9.9024  -14.1153 O   0  0  0  0  0  0  0  0  0  0  0  0
   21.2099   -8.0198  -15.2703 N   0  0  0  0  0  0  0  0  0  0  0  0
   20.8615   -7.3260  -14.0140 C   0  0  1  0  0  0  0  0  0  0  0  0
   21.3962   -5.9156  -14.1973 C   0  0  0  0  0  0  0  0  0  0  0  0
   21.0869   -4.8344  -12.8081 S   0  0  0  0  0  0  0  0  0  0  0  0
   19.4196   -7.3444  -13.7906 C   0  0  0  0  0  0  0  0  0  0  0  0
   18.5927   -7.2006  -14.7399 O   0  0  0  0  0  0  0  0  0  0  0  0
   18.8756   -7.5262  -12.4985 N   0  0  0  0  0  0  0  0  0  0  0  0
   17.4270   -7.5758  -12.2830 C   0  0  1  0  0  0  0  0  0  0  0  0
   17.1106   -8.1330  -10.9089 C   0  0  0  0  0  0  0  0  0  0  0  0
   17.7798   -9.7881  -10.6854 S   0  0  0  0  0  0  0  0  0  0  0  0
   16.8626   -6.2133  -12.3488 C   0  0  0  0  0  0  0  0  0  0  0  0
   15.5221   -5.9304  -12.2598 O   0  0  0  0  0  0  0  0  0  0  0  0
   17.6475   -5.2448  -12.4950 O   0  0  0  0  0  0  0  0  0  0  0  0
  2  1  1  1
  2 10  1  0
  3  2  1  0
  4  3  1  0
  5  4  2  0
  6  5  1  0
  7  6  2  0
  7  8  1  0
  8  9  2  0
  9  4  1  0
 10 11  2  0
 12 10  1  0
 12 13  1  0
 13 14  1  6
 14 15  1  0
 16 17  2  0
 16 13  1  0
 18 16  1  0
 19 18  1  0
 19 20  1  1
 21 20  1  0
 22 19  1  0
 23 22  1  0
 24 22  2  0
M  END
$$$$
