FCC.pdb
     RDKit          3D

 24 24  0  0  1  0  0  0  0  0999 V2000
   26.8114  -18.2696  -16.5421 N   0  0  0  0  0  0  0  0  0  0  0  0
   26.3268  -18.0420  -15.1697 C   0  0  1  0  0  0  0  0  0  0  0  0
   25.3443  -16.8976  -15.2703 C   0  0  0  0  0  0  0  0  0  0  0  0
   25.9758  -15.6017  -15.6094 C   0  0  0  0  0  0  0  0  0  0  0  0
   26.8004  -14.9173  -14.7437 C   0  0  0  0  0  0  0  0  0  0  0  0
   27.3879  -13.7091  -15.0831 C   0  0  0  0  0  0  0  0  0  0  0  0
   27.1590  -13.1442  -16.3247 C   0  0  0  0  0  0  0  0  0  0  0  0
   26.3407  -13.8128  -17.1974 C   0  0  0  0  0  0  0  0  0  0  0  0
   25.7667  -15.0050  -16.8503 C   0  0  0  0  0  0  0  0  0  0  0  0
   25.6146  -19.2423  -14.6716 C   0  0  0  0  0  0  0  0  0  0  0  0
   24.9184  -19.9744  -15.4351 O   0  0  0  0  0  0  0  0  0  0  0  0
   25.6593  -19.6570  -13.3135 N   0  0  0  0  0  0  0  0  0  0  0  0
   24.8761  -20.8192  -12.8477 C   0  0  1  0  0  0  0  0  0  0  0  0
   25.4422  -21.1333  -11.4731 C   0  0  0  0  0  0  0  0  0  0  0  0
   27.1543  -21.6461  -11.4915 S   0  0  0  0  0  0  0  0  0  0  0  0
   23.4524  -20.5029  -12.7987 C   0  0  0  0  0  0  0  0  0  0  0  0
   23.0271  -19.3964  -12.3514 O   0  0  0  0  0  0  0  0  0  0  0  0
   22.4770  -21.4202  -13.2519 N   0  0  0  0  0  0  0  0  0  0  0  0
   21.0514  -21.0812  -13.2429 C   0  0  1  0  0  0  0  0  0  0  0  0
   20.5736  -20.7464  -14.6424 C   0  0  0  0  0  0  0  0  0  0  0  0
   18.8029  -20.4305  -14.6894 S   0  0  0  0  0  0  0  0  0  0  0  0
   20.2633  -22.2367  -12.7709 C   0  0  0  0  0  0  0  0  0  0  0  0
   19.0761  -22.1318  -12.0893 O   0  0  0  0  0  0  0  0  0  0  0  0
   20.6955  -23.3924  -13.0011 O   0  0  0  0  0  0  0  0  0  0  0  0
  2  1  1  6
  2 10  1  0
  3  2  1  0
  4  3  1  0
  5  4  2  0
  6  5  1  0
  7  6  2  0
  7  8  1  0
  8  9  2  0
  9  4  1  0
 10 11  2  0
 12 10  1  0
 12 13  1  0
 13 14  1  1
 14 15  1  0
 16 17  2  0
 16 13  1  0
 18 16  1  0
 19 18  1  0
 19 20  1  6
 21 20  1  0
 22 19  1  0
 23 22  1  0
 24 22  2  0
M  END
$$$$
