FCC.pdb
     RDKit          3D

 24 24  0  0  1  0  0  0  0  0999 V2000
   26.6928  -18.2961   -7.9577 N   0  0  0  0  0  0  0  0  0  0  0  0
   27.1352  -19.6150   -8.4425 C   0  0  1  0  0  0  0  0  0  0  0  0
   26.9045  -20.5688   -7.2926 C   0  0  0  0  0  0  0  0  0  0  0  0
   27.7794  -20.3133   -6.1254 C   0  0  0  0  0  0  0  0  0  0  0  0
   29.1466  -20.4788   -6.1595 C   0  0  0  0  0  0  0  0  0  0  0  0
   29.9488  -20.2270   -5.0580 C   0  0  0  0  0  0  0  0  0  0  0  0
   29.3895  -19.7941   -3.8694 C   0  0  0  0  0  0  0  0  0  0  0  0
   28.0304  -19.6248   -3.8193 C   0  0  0  0  0  0  0  0  0  0  0  0
   27.2493  -19.8767   -4.9138 C   0  0  0  0  0  0  0  0  0  0  0  0
   26.3058  -20.0431   -9.5935 C   0  0  0  0  0  0  0  0  0  0  0  0
   25.0928  -19.6991   -9.7112 O   0  0  0  0  0  0  0  0  0  0  0  0
   26.8050  -20.8634  -10.6406 N   0  0  0  0  0  0  0  0  0  0  0  0
   26.3853  -20.6484  -12.0401 C   0  0  1  0  0  0  0  0  0  0  0  0
   27.5986  -21.0416  -12.8660 C   0  0  0  0  0  0  0  0  0  0  0  0
   28.9010  -19.8175  -12.8731 S   0  0  0  0  0  0  0  0  0  0  0  0
   25.2133  -21.4558  -12.3631 C   0  0  0  0  0  0  0  0  0  0  0  0
   25.2028  -22.7132  -12.2080 O   0  0  0  0  0  0  0  0  0  0  0  0
   24.0290  -20.8691  -12.8646 N   0  0  0  0  0  0  0  0  0  0  0  0
   22.8581  -21.6848  -13.1978 C   0  0  1  0  0  0  0  0  0  0  0  0
   21.5963  -21.0635  -12.6314 C   0  0  0  0  0  0  0  0  0  0  0  0
   21.7352  -20.7543  -10.8644 S   0  0  0  0  0  0  0  0  0  0  0  0
   22.6966  -21.7566  -14.6633 C   0  0  0  0  0  0  0  0  0  0  0  0
   23.4570  -21.0440  -15.5573 O   0  0  0  0  0  0  0  0  0  0  0  0
   21.8121  -22.5129  -15.1335 O   0  0  0  0  0  0  0  0  0  0  0  0
  2  1  1  1
  2 10  1  0
  3  2  1  0
  4  3  1  0
  5  4  2  0
  6  5  1  0
  7  6  2  0
  7  8  1  0
  8  9  2  0
  9  4  1  0
 10 11  2  0
 12 10  1  0
 12 13  1  0
 13 14  1  6
 14 15  1  0
 16 17  2  0
 16 13  1  0
 18 16  1  0
 19 18  1  0
 19 20  1  1
 21 20  1  0
 22 19  1  0
 23 22  1  0
 24 22  2  0
M  END
$$$$
