FCC.pdb
     RDKit          3D

 24 24  0  0  1  0  0  0  0  0999 V2000
   19.2966  -13.1322  -17.6989 N   0  0  0  0  0  0  0  0  0  0  0  0
   19.9022  -11.8933  -18.2171 C   0  0  1  0  0  0  0  0  0  0  0  0
   19.1070  -11.5384  -19.4527 C   0  0  0  0  0  0  0  0  0  0  0  0
   19.3961  -12.4098  -20.6147 C   0  0  0  0  0  0  0  0  0  0  0  0
   20.5510  -12.3123  -21.3592 C   0  0  0  0  0  0  0  0  0  0  0  0
   20.8061  -13.1428  -22.4388 C   0  0  0  0  0  0  0  0  0  0  0  0
   19.8909  -14.1121  -22.8075 C   0  0  0  0  0  0  0  0  0  0  0  0
   18.7367  -14.2215  -22.0768 C   0  0  0  0  0  0  0  0  0  0  0  0
   18.4966  -13.3957  -21.0130 C   0  0  0  0  0  0  0  0  0  0  0  0
   19.7612  -10.8001  -17.2265 C   0  0  0  0  0  0  0  0  0  0  0  0
   18.7463  -10.7019  -16.4756 O   0  0  0  0  0  0  0  0  0  0  0  0
   20.7447   -9.7906  -17.0473 N   0  0  0  0  0  0  0  0  0  0  0  0
   20.5150   -8.6614  -16.1238 C   0  0  1  0  0  0  0  0  0  0  0  0
   21.8410   -8.4828  -15.4037 C   0  0  0  0  0  0  0  0  0  0  0  0
   21.8966   -7.0592  -14.3245 S   0  0  0  0  0  0  0  0  0  0  0  0
   20.1186   -7.4622  -16.8547 C   0  0  0  0  0  0  0  0  0  0  0  0
   20.5917   -7.1872  -17.9975 O   0  0  0  0  0  0  0  0  0  0  0  0
   19.1822   -6.5481  -16.3198 N   0  0  0  0  0  0  0  0  0  0  0  0
   18.8065   -5.3318  -17.0456 C   0  0  1  0  0  0  0  0  0  0  0  0
   17.4064   -5.4599  -17.6130 C   0  0  0  0  0  0  0  0  0  0  0  0
   16.8263   -3.9124  -18.3245 S   0  0  0  0  0  0  0  0  0  0  0  0
   18.8070   -4.1775  -16.1253 C   0  0  0  0  0  0  0  0  0  0  0  0
   18.7901   -2.8670  -16.5344 O   0  0  0  0  0  0  0  0  0  0  0  0
   18.8240   -4.3952  -14.8893 O   0  0  0  0  0  0  0  0  0  0  0  0
  2  1  1  1
  2 10  1  0
  3  2  1  0
  4  3  1  0
  5  4  2  0
  6  5  1  0
  7  6  2  0
  7  8  1  0
  8  9  2  0
  9  4  1  0
 10 11  2  0
 12 10  1  0
 12 13  1  0
 13 14  1  6
 14 15  1  0
 16 17  2  0
 16 13  1  0
 18 16  1  0
 19 18  1  0
 19 20  1  1
 21 20  1  0
 22 19  1  0
 23 22  1  0
 24 22  2  0
M  END
$$$$
