FCC.pdb
     RDKit          3D

 24 24  0  0  1  0  0  0  0  0999 V2000
   15.7969   -7.2132   -7.8594 N   0  0  0  0  0  0  0  0  0  0  0  0
   16.2419   -7.6381   -9.1979 C   0  0  1  0  0  0  0  0  0  0  0  0
   15.0540   -7.4240  -10.1079 C   0  0  0  0  0  0  0  0  0  0  0  0
   13.9255   -8.3438   -9.8366 C   0  0  0  0  0  0  0  0  0  0  0  0
   13.9934   -9.7025  -10.0541 C   0  0  0  0  0  0  0  0  0  0  0  0
   12.9283  -10.5475   -9.7865 C   0  0  0  0  0  0  0  0  0  0  0  0
   11.7431  -10.0417   -9.2838 C   0  0  0  0  0  0  0  0  0  0  0  0
   11.6596   -8.6918   -9.0622 C   0  0  0  0  0  0  0  0  0  0  0  0
   12.7184   -7.8681   -9.3304 C   0  0  0  0  0  0  0  0  0  0  0  0
   17.3605   -6.7841   -9.6617 C   0  0  0  0  0  0  0  0  0  0  0  0
   17.8142   -5.8328   -8.9596 O   0  0  0  0  0  0  0  0  0  0  0  0
   18.0013   -6.9670  -10.9165 N   0  0  0  0  0  0  0  0  0  0  0  0
   19.2225   -6.2125  -11.2633 C   0  0  1  0  0  0  0  0  0  0  0  0
   20.2657   -6.7006  -10.2722 C   0  0  0  0  0  0  0  0  0  0  0  0
   20.6407   -8.4427  -10.4101 S   0  0  0  0  0  0  0  0  0  0  0  0
   19.6156   -6.4634  -12.6461 C   0  0  0  0  0  0  0  0  0  0  0  0
   19.4874   -7.6042  -13.1824 O   0  0  0  0  0  0  0  0  0  0  0  0
   20.1587   -5.4398  -13.4559 N   0  0  0  0  0  0  0  0  0  0  0  0
   20.5647   -5.6995  -14.8397 C   0  0  1  0  0  0  0  0  0  0  0  0
   19.5984   -5.0492  -15.8104 C   0  0  0  0  0  0  0  0  0  0  0  0
   18.9959   -3.4677  -15.1994 S   0  0  0  0  0  0  0  0  0  0  0  0
   21.8993   -5.1197  -15.0886 C   0  0  0  0  0  0  0  0  0  0  0  0
   22.6294   -5.3314  -16.2319 O   0  0  0  0  0  0  0  0  0  0  0  0
   22.4088   -4.3854  -14.2073 O   0  0  0  0  0  0  0  0  0  0  0  0
  2  1  1  1
  2 10  1  0
  3  2  1  0
  4  3  1  0
  5  4  2  0
  6  5  1  0
  7  6  2  0
  7  8  1  0
  8  9  2  0
  9  4  1  0
 10 11  2  0
 12 10  1  0
 12 13  1  0
 13 14  1  1
 14 15  1  0
 16 17  2  0
 16 13  1  0
 18 16  1  0
 19 18  1  0
 19 20  1  6
 21 20  1  0
 22 19  1  0
 23 22  1  0
 24 22  2  0
M  END
$$$$
