FCC.pdb
     RDKit          3D

 24 24  0  0  1  0  0  0  0  0999 V2000
   15.9031  -10.6583  -11.0823 N   0  0  0  0  0  0  0  0  0  0  0  0
   15.1082   -9.4197  -11.1467 C   0  0  1  0  0  0  0  0  0  0  0  0
   14.3715   -9.3407   -9.8292 C   0  0  0  0  0  0  0  0  0  0  0  0
   13.0970  -10.0948   -9.8162 C   0  0  0  0  0  0  0  0  0  0  0  0
   12.9601  -11.3304   -9.2226 C   0  0  0  0  0  0  0  0  0  0  0  0
   11.7562  -12.0167   -9.2147 C   0  0  0  0  0  0  0  0  0  0  0  0
   10.6357  -11.4708   -9.8144 C   0  0  0  0  0  0  0  0  0  0  0  0
   10.7558  -10.2422  -10.4095 C   0  0  0  0  0  0  0  0  0  0  0  0
   11.9499   -9.5746  -10.4104 C   0  0  0  0  0  0  0  0  0  0  0  0
   16.0009   -8.2430  -11.2675 C   0  0  0  0  0  0  0  0  0  0  0  0
   17.1207   -8.1872  -10.6786 O   0  0  0  0  0  0  0  0  0  0  0  0
   15.6703   -7.1010  -12.0453 N   0  0  0  0  0  0  0  0  0  0  0  0
   16.5609   -5.9236  -12.0830 C   0  0  1  0  0  0  0  0  0  0  0  0
   16.8572   -5.7176  -13.5590 C   0  0  0  0  0  0  0  0  0  0  0  0
   17.7308   -4.2009  -13.9207 S   0  0  0  0  0  0  0  0  0  0  0  0
   15.9142   -4.7611  -11.4830 C   0  0  0  0  0  0  0  0  0  0  0  0
   14.6954   -4.4883  -11.6961 O   0  0  0  0  0  0  0  0  0  0  0  0
   16.6207   -3.8822  -10.6304 N   0  0  0  0  0  0  0  0  0  0  0  0
   15.9886   -2.6764  -10.0884 C   0  0  1  0  0  0  0  0  0  0  0  0
   16.1708   -2.6083   -8.5847 C   0  0  0  0  0  0  0  0  0  0  0  0
   15.5108   -1.0822   -7.8971 S   0  0  0  0  0  0  0  0  0  0  0  0
   16.6221   -1.4745  -10.6657 C   0  0  0  0  0  0  0  0  0  0  0  0
   15.9679   -0.2862  -10.8778 O   0  0  0  0  0  0  0  0  0  0  0  0
   17.8342   -1.5303  -10.9869 O   0  0  0  0  0  0  0  0  0  0  0  0
  2  1  1  1
  2 10  1  0
  3  2  1  0
  4  3  1  0
  5  4  2  0
  6  5  1  0
  7  6  2  0
  7  8  1  0
  8  9  2  0
  9  4  1  0
 10 11  2  0
 12 10  1  0
 12 13  1  0
 13 14  1  6
 14 15  1  0
 16 17  2  0
 16 13  1  0
 18 16  1  0
 19 18  1  0
 19 20  1  1
 21 20  1  0
 22 19  1  0
 23 22  1  0
 24 22  2  0
M  END
$$$$
