FCC.pdb
     RDKit          3D

 24 24  0  0  1  0  0  0  0  0999 V2000
   24.0104  -20.5923  -17.2412 N   0  0  0  0  0  0  0  0  0  0  0  0
   24.7397  -19.5818  -16.4555 C   0  0  1  0  0  0  0  0  0  0  0  0
   23.6823  -18.6458  -15.9160 C   0  0  0  0  0  0  0  0  0  0  0  0
   23.0559  -17.7965  -16.9550 C   0  0  0  0  0  0  0  0  0  0  0  0
   23.7403  -16.8146  -17.6372 C   0  0  0  0  0  0  0  0  0  0  0  0
   23.1375  -16.0354  -18.6118 C   0  0  0  0  0  0  0  0  0  0  0  0
   21.8058  -16.2242  -18.9339 C   0  0  0  0  0  0  0  0  0  0  0  0
   21.1111  -17.1972  -18.2639 C   0  0  0  0  0  0  0  0  0  0  0  0
   21.7176  -17.9600  -17.3039 C   0  0  0  0  0  0  0  0  0  0  0  0
   25.4377  -20.2232  -15.3166 C   0  0  0  0  0  0  0  0  0  0  0  0
   24.9194  -21.1755  -14.6624 O   0  0  0  0  0  0  0  0  0  0  0  0
   26.7279  -19.8214  -14.8779 N   0  0  0  0  0  0  0  0  0  0  0  0
   27.3171  -20.3755  -13.6423 C   0  0  1  0  0  0  0  0  0  0  0  0
   28.7084  -19.7679  -13.5784 C   0  0  0  0  0  0  0  0  0  0  0  0
   29.5418  -20.0217  -12.0178 S   0  0  0  0  0  0  0  0  0  0  0  0
   26.5095  -20.0275  -12.4777 C   0  0  0  0  0  0  0  0  0  0  0  0
   25.8643  -18.9390  -12.4110 O   0  0  0  0  0  0  0  0  0  0  0  0
   26.4074  -20.8939  -11.3654 N   0  0  0  0  0  0  0  0  0  0  0  0
   25.7126  -20.4830  -10.1423 C   0  0  1  0  0  0  0  0  0  0  0  0
   24.2981  -21.0285  -10.1231 C   0  0  0  0  0  0  0  0  0  0  0  0
   23.5010  -20.7710   -8.5308 S   0  0  0  0  0  0  0  0  0  0  0  0
   26.4121  -21.0254   -8.9610 C   0  0  0  0  0  0  0  0  0  0  0  0
   27.2211  -22.1344   -8.9874 O   0  0  0  0  0  0  0  0  0  0  0  0
   26.2659  -20.4450   -7.8577 O   0  0  0  0  0  0  0  0  0  0  0  0
  2  1  1  6
  2 10  1  0
  3  2  1  0
  4  3  1  0
  5  4  2  0
  6  5  1  0
  7  6  2  0
  7  8  1  0
  8  9  2  0
  9  4  1  0
 10 11  2  0
 12 10  1  0
 12 13  1  0
 13 14  1  1
 14 15  1  0
 16 17  2  0
 16 13  1  0
 18 16  1  0
 19 18  1  0
 19 20  1  6
 21 20  1  0
 22 19  1  0
 23 22  1  0
 24 22  2  0
M  END
$$$$
