FCC.pdb
     RDKit          3D

 24 24  0  0  1  0  0  0  0  0999 V2000
   16.2868  -14.6351    4.8219 N   0  0  0  0  0  0  0  0  0  0  0  0
   17.1625  -15.7644    5.1798 C   0  0  1  0  0  0  0  0  0  0  0  0
   18.4187  -15.5801    4.3593 C   0  0  0  0  0  0  0  0  0  0  0  0
   18.2404  -15.8936    2.9230 C   0  0  0  0  0  0  0  0  0  0  0  0
   18.3144  -14.9413    1.9303 C   0  0  0  0  0  0  0  0  0  0  0  0
   18.1520  -15.2566    0.5907 C   0  0  0  0  0  0  0  0  0  0  0  0
   17.9060  -16.5615    0.2039 C   0  0  0  0  0  0  0  0  0  0  0  0
   17.8292  -17.5207    1.1798 C   0  0  0  0  0  0  0  0  0  0  0  0
   17.9915  -17.1966    2.4989 C   0  0  0  0  0  0  0  0  0  0  0  0
   17.5163  -15.7036    6.6175 C   0  0  0  0  0  0  0  0  0  0  0  0
   17.6280  -14.6037    7.2350 O   0  0  0  0  0  0  0  0  0  0  0  0
   17.7543  -16.8635    7.4026 N   0  0  0  0  0  0  0  0  0  0  0  0
   18.2064  -16.7528    8.8042 C   0  0  1  0  0  0  0  0  0  0  0  0
   17.2808  -17.6775    9.5767 C   0  0  0  0  0  0  0  0  0  0  0  0
   15.5712  -17.1560    9.5830 S   0  0  0  0  0  0  0  0  0  0  0  0
   19.6071  -17.1414    8.9326 C   0  0  0  0  0  0  0  0  0  0  0  0
   20.1037  -18.0904    8.2557 O   0  0  0  0  0  0  0  0  0  0  0  0
   20.4796  -16.4726    9.8212 N   0  0  0  0  0  0  0  0  0  0  0  0
   21.8849  -16.8678    9.9491 C   0  0  1  0  0  0  0  0  0  0  0  0
   22.7402  -15.6788   10.3406 C   0  0  0  0  0  0  0  0  0  0  0  0
   24.2734  -15.6165    9.4010 S   0  0  0  0  0  0  0  0  0  0  0  0
   22.0263  -17.8834   11.0111 C   0  0  0  0  0  0  0  0  0  0  0  0
   21.2162  -17.9584   12.1171 O   0  0  0  0  0  0  0  0  0  0  0  0
   22.9406  -18.7370   10.9075 O   0  0  0  0  0  0  0  0  0  0  0  0
  2  1  1  6
  2 10  1  0
  3  2  1  0
  4  3  1  0
  5  4  2  0
  6  5  1  0
  7  6  2  0
  7  8  1  0
  8  9  2  0
  9  4  1  0
 10 11  2  0
 12 10  1  0
 12 13  1  0
 13 14  1  1
 14 15  1  0
 16 17  2  0
 16 13  1  0
 18 16  1  0
 19 18  1  0
 19 20  1  1
 21 20  1  0
 22 19  1  0
 23 22  1  0
 24 22  2  0
M  END
$$$$
