FCC.pdb
     RDKit          3D

 24 24  0  0  1  0  0  0  0  0999 V2000
   17.3960  -21.2301  -14.7083 N   0  0  0  0  0  0  0  0  0  0  0  0
   17.5349  -21.2731  -13.2424 C   0  0  1  0  0  0  0  0  0  0  0  0
   17.9535  -19.8794  -12.8329 C   0  0  0  0  0  0  0  0  0  0  0  0
   17.1283  -18.8099  -13.4399 C   0  0  0  0  0  0  0  0  0  0  0  0
   15.9619  -18.3461  -12.8722 C   0  0  0  0  0  0  0  0  0  0  0  0
   15.2078  -17.3387  -13.4525 C   0  0  0  0  0  0  0  0  0  0  0  0
   15.6118  -16.7587  -14.6414 C   0  0  0  0  0  0  0  0  0  0  0  0
   16.7701  -17.2093  -15.2188 C   0  0  0  0  0  0  0  0  0  0  0  0
   17.5058  -18.2045  -14.6359 C   0  0  0  0  0  0  0  0  0  0  0  0
   16.2306  -21.5859  -12.6125 C   0  0  0  0  0  0  0  0  0  0  0  0
   15.1309  -21.3517  -13.1950 O   0  0  0  0  0  0  0  0  0  0  0  0
   16.1178  -22.1663  -11.3206 N   0  0  0  0  0  0  0  0  0  0  0  0
   14.7960  -22.4783  -10.7405 C   0  0  1  0  0  0  0  0  0  0  0  0
   14.8523  -23.9676  -10.4446 C   0  0  0  0  0  0  0  0  0  0  0  0
   13.5702  -24.5381   -9.3377 S   0  0  0  0  0  0  0  0  0  0  0  0
   14.5535  -21.6862   -9.5391 C   0  0  0  0  0  0  0  0  0  0  0  0
   15.5019  -21.1880   -8.8626 O   0  0  0  0  0  0  0  0  0  0  0  0
   13.2427  -21.4353   -9.0732 N   0  0  0  0  0  0  0  0  0  0  0  0
   13.0020  -20.6086   -7.8874 C   0  0  1  0  0  0  0  0  0  0  0  0
   11.7748  -19.7399   -8.0826 C   0  0  0  0  0  0  0  0  0  0  0  0
   11.3991  -18.7696   -6.6148 S   0  0  0  0  0  0  0  0  0  0  0  0
   12.7516  -21.4715   -6.7162 C   0  0  0  0  0  0  0  0  0  0  0  0
   13.2043  -21.1993   -5.4488 O   0  0  0  0  0  0  0  0  0  0  0  0
   12.0843  -22.5224   -6.8764 O   0  0  0  0  0  0  0  0  0  0  0  0
  2  1  1  6
  2 10  1  0
  3  2  1  0
  4  3  1  0
  5  4  2  0
  6  5  1  0
  7  6  2  0
  7  8  1  0
  8  9  2  0
  9  4  1  0
 10 11  2  0
 12 10  1  0
 12 13  1  0
 13 14  1  1
 14 15  1  0
 16 17  2  0
 16 13  1  0
 18 16  1  0
 19 18  1  0
 19 20  1  6
 21 20  1  0
 22 19  1  0
 23 22  1  0
 24 22  2  0
M  END
$$$$
