WEM.pdb
     RDKit          3D

 32 33  0  0  1  0  0  0  0  0999 V2000
   28.6549  -20.8813  -10.9983 N   0  0  0  0  0  0  0  0  0  0  0  0
   27.3750  -21.2652  -10.4242 C   0  0  1  0  0  0  0  0  0  0  0  0
   27.1496  -20.3675   -9.2037 C   0  0  0  0  0  0  0  0  0  0  0  0
   28.1622  -20.6914   -8.1892 C   0  0  0  0  0  0  0  0  0  0  0  0
   29.1936  -21.5930   -8.3394 C   0  0  0  0  0  0  0  0  0  0  0  0
   29.8975  -21.6116   -7.2019 N   0  0  0  0  0  0  0  0  0  0  0  0
   29.3287  -20.7378   -6.3350 C   0  0  0  0  0  0  0  0  0  0  0  0
   29.6575  -20.3920   -5.0574 C   0  0  0  0  0  0  0  0  0  0  0  0
   28.9033  -19.4583   -4.3669 C   0  0  0  0  0  0  0  0  0  0  0  0
   27.8019  -18.8649   -4.9749 C   0  0  0  0  0  0  0  0  0  0  0  0
   27.4766  -19.2206   -6.2676 C   0  0  0  0  0  0  0  0  0  0  0  0
   28.2327  -20.1432   -6.9307 C   0  0  0  0  0  0  0  0  0  0  0  0
   26.2370  -20.9718  -11.3352 C   0  0  0  0  0  0  0  0  0  0  0  0
   26.2709  -19.9131  -12.0448 O   0  0  0  0  0  0  0  0  0  0  0  0
   25.1377  -21.8146  -11.4398 N   0  0  0  0  0  0  0  0  0  0  0  0
   24.2682  -21.8231  -12.7109 C   0  0  1  0  0  0  0  0  0  0  0  0
   24.2958  -23.1843  -13.2097 C   0  0  0  0  0  0  0  0  0  0  0  0
   23.5546  -23.6296  -14.3766 C   0  0  0  0  0  0  0  0  0  0  0  0
   23.5923  -24.9881  -14.8669 C   0  0  0  0  0  0  0  0  0  0  0  0
   24.6530  -25.5894  -15.0803 O   0  0  0  0  0  0  0  0  0  0  0  0
   23.1220  -21.0974  -12.2944 C   0  0  0  0  0  0  0  0  0  0  0  0
   22.8081  -21.0764  -11.0367 O   0  0  0  0  0  0  0  0  0  0  0  0
   22.4153  -25.7189  -15.1343 O   0  0  0  0  0  0  0  0  0  0  0  0
   18.3799  -14.8805  -13.2535 C   0  0  0  0  0  0  0  0  0  0  0  0
   19.7185  -15.9703  -13.6471 S   0  0  0  0  0  0  0  0  0  0  0  0
   19.7698  -17.5411  -12.8296 C   0  0  0  0  0  0  0  0  0  0  0  0
   20.9527  -18.3743  -13.1365 C   0  0  0  0  0  0  0  0  0  0  0  0
   21.0753  -19.7046  -12.4929 C   0  0  2  0  0  0  0  0  0  0  0  0
   22.2569  -20.3594  -13.0942 N   0  0  0  0  0  0  0  0  0  0  0  0
   19.8687  -20.5628  -12.5962 C   0  0  0  0  0  0  0  0  0  0  0  0
   18.8157  -20.4636  -11.7168 O   0  0  0  0  0  0  0  0  0  0  0  0
   19.7742  -21.4117  -13.5049 O   0  0  0  0  0  0  0  0  0  0  0  0
  2  1  1  6
  2 13  1  0
  3  4  1  0
  3  2  1  0
  4 12  1  0
  4  5  2  0
  5  6  1  0
  7  8  2  0
  7  6  1  0
  9  8  1  0
 10  9  2  0
 11 10  1  0
 11 12  2  0
 12  7  1  0
 13 14  2  0
 15 13  1  0
 15 16  1  0
 16 17  1  1
 18 17  1  0
 19 18  1  0
 20 19  2  0
 21 16  1  0
 21 22  2  0
 23 19  1  0
 25 24  1  0
 25 26  1  0
 26 27  1  0
 28 27  1  6
 28 29  1  0
 29 21  1  0
 30 28  1  0
 31 30  1  0
 32 30  2  0
M  END
$$$$
