WEM.pdb
     RDKit          3D

 32 33  0  0  1  0  0  0  0  0999 V2000
   26.8633  -22.4681  -12.3713 N   0  0  0  0  0  0  0  0  0  0  0  0
   25.9635  -21.5282  -11.7214 C   0  0  1  0  0  0  0  0  0  0  0  0
   26.7131  -20.1964  -11.6179 C   0  0  0  0  0  0  0  0  0  0  0  0
   27.8085  -20.3482  -10.6502 C   0  0  0  0  0  0  0  0  0  0  0  0
   29.1116  -20.6783  -10.9535 C   0  0  0  0  0  0  0  0  0  0  0  0
   29.8055  -20.7217   -9.8106 N   0  0  0  0  0  0  0  0  0  0  0  0
   28.9636  -20.4253   -8.7899 C   0  0  0  0  0  0  0  0  0  0  0  0
   29.1720  -20.3402   -7.4449 C   0  0  0  0  0  0  0  0  0  0  0  0
   28.1297  -20.0180   -6.5922 C   0  0  0  0  0  0  0  0  0  0  0  0
   26.8590  -19.7780   -7.1047 C   0  0  0  0  0  0  0  0  0  0  0  0
   26.6572  -19.8663   -8.4666 C   0  0  0  0  0  0  0  0  0  0  0  0
   27.6978  -20.1854   -9.2899 C   0  0  0  0  0  0  0  0  0  0  0  0
   24.7631  -21.2328  -12.5477 C   0  0  0  0  0  0  0  0  0  0  0  0
   24.8590  -21.2867  -13.8180 O   0  0  0  0  0  0  0  0  0  0  0  0
   23.5389  -20.9012  -11.9810 N   0  0  0  0  0  0  0  0  0  0  0  0
   22.2580  -20.8650  -12.8351 C   0  0  1  0  0  0  0  0  0  0  0  0
   21.1629  -21.1647  -11.9332 C   0  0  0  0  0  0  0  0  0  0  0  0
   19.7708  -21.2125  -12.3446 C   0  0  0  0  0  0  0  0  0  0  0  0
   18.6842  -21.4772  -11.4300 C   0  0  0  0  0  0  0  0  0  0  0  0
   17.4982  -21.4643  -11.7842 O   0  0  0  0  0  0  0  0  0  0  0  0
   22.4333  -19.6743  -13.5872 C   0  0  0  0  0  0  0  0  0  0  0  0
   22.8204  -18.5946  -12.9830 O   0  0  0  0  0  0  0  0  0  0  0  0
   18.9083  -21.7689  -10.0678 O   0  0  0  0  0  0  0  0  0  0  0  0
   23.2960  -19.1118  -20.1237 C   0  0  0  0  0  0  0  0  0  0  0  0
   23.6502  -17.5207  -19.4329 S   0  0  0  0  0  0  0  0  0  0  0  0
   23.0421  -17.1753  -17.8053 C   0  0  0  0  0  0  0  0  0  0  0  0
   22.9450  -18.3456  -16.9060 C   0  0  0  0  0  0  0  0  0  0  0  0
   22.3602  -18.1618  -15.5558 C   0  0  2  0  0  0  0  0  0  0  0  0
   22.2484  -19.5084  -14.9550 N   0  0  0  0  0  0  0  0  0  0  0  0
   21.0597  -17.4468  -15.5296 C   0  0  0  0  0  0  0  0  0  0  0  0
   20.9728  -16.0775  -15.4327 O   0  0  0  0  0  0  0  0  0  0  0  0
   19.9889  -18.0821  -15.6003 O   0  0  0  0  0  0  0  0  0  0  0  0
  2  1  1  6
  2 13  1  0
  3  4  1  0
  3  2  1  0
  4 12  1  0
  4  5  2  0
  5  6  1  0
  7  8  2  0
  7  6  1  0
  9  8  1  0
 10  9  2  0
 11 10  1  0
 11 12  2  0
 12  7  1  0
 13 14  2  0
 15 13  1  0
 15 16  1  0
 16 17  1  1
 18 17  1  0
 19 18  1  0
 20 19  2  0
 21 16  1  0
 21 22  2  0
 23 19  1  0
 25 24  1  0
 25 26  1  0
 26 27  1  0
 28 27  1  6
 28 29  1  0
 29 21  1  0
 30 28  1  0
 31 30  1  0
 32 30  2  0
M  END
$$$$
