WEM.pdb
     RDKit          3D

 32 33  0  0  1  0  0  0  0  0999 V2000
   26.8973  -21.2385  -12.6043 N   0  0  0  0  0  0  0  0  0  0  0  0
   25.7590  -21.3339  -11.7042 C   0  0  1  0  0  0  0  0  0  0  0  0
   26.0285  -20.3694  -10.5451 C   0  0  0  0  0  0  0  0  0  0  0  0
   27.3564  -20.6636   -9.9887 C   0  0  0  0  0  0  0  0  0  0  0  0
   28.3786  -21.3148  -10.6445 C   0  0  0  0  0  0  0  0  0  0  0  0
   29.4226  -21.3931   -9.8116 N   0  0  0  0  0  0  0  0  0  0  0  0
   29.0780  -20.8030   -8.6405 C   0  0  0  0  0  0  0  0  0  0  0  0
   29.7747  -20.6235   -7.4820 C   0  0  0  0  0  0  0  0  0  0  0  0
   29.1901  -19.9805   -6.4040 C   0  0  0  0  0  0  0  0  0  0  0  0
   27.8838  -19.5116   -6.4970 C   0  0  0  0  0  0  0  0  0  0  0  0
   27.1864  -19.6975   -7.6727 C   0  0  0  0  0  0  0  0  0  0  0  0
   27.7807  -20.3340   -8.7236 C   0  0  0  0  0  0  0  0  0  0  0  0
   24.5021  -20.8444  -12.3300 C   0  0  0  0  0  0  0  0  0  0  0  0
   24.3388  -19.5898  -12.4885 O   0  0  0  0  0  0  0  0  0  0  0  0
   23.4994  -21.7095  -12.7492 N   0  0  0  0  0  0  0  0  0  0  0  0
   22.1892  -21.1669  -13.3497 C   0  0  1  0  0  0  0  0  0  0  0  0
   22.4986  -20.7831  -14.7133 C   0  0  0  0  0  0  0  0  0  0  0  0
   21.5514  -20.1326  -15.6015 C   0  0  0  0  0  0  0  0  0  0  0  0
   20.7989  -18.9562  -15.2313 C   0  0  0  0  0  0  0  0  0  0  0  0
   19.5640  -18.9072  -15.3000 O   0  0  0  0  0  0  0  0  0  0  0  0
   21.2448  -22.1432  -12.9389 C   0  0  0  0  0  0  0  0  0  0  0  0
   21.6627  -23.2225  -12.3547 O   0  0  0  0  0  0  0  0  0  0  0  0
   21.4284  -17.7826  -14.7651 O   0  0  0  0  0  0  0  0  0  0  0  0
   17.7942  -24.4250   -7.1375 C   0  0  0  0  0  0  0  0  0  0  0  0
   18.7105  -23.4647   -8.3090 S   0  0  0  0  0  0  0  0  0  0  0  0
   18.4734  -23.8174  -10.0287 C   0  0  0  0  0  0  0  0  0  0  0  0
   19.2724  -22.9904  -10.9589 C   0  0  0  0  0  0  0  0  0  0  0  0
   19.0144  -23.1019  -12.4149 C   0  0  2  0  0  0  0  0  0  0  0  0
   19.8624  -22.0863  -13.0750 N   0  0  0  0  0  0  0  0  0  0  0  0
   17.5908  -22.9597  -12.8103 C   0  0  0  0  0  0  0  0  0  0  0  0
   16.7902  -24.0435  -13.0865 O   0  0  0  0  0  0  0  0  0  0  0  0
   17.0710  -21.8296  -12.9005 O   0  0  0  0  0  0  0  0  0  0  0  0
  2  1  1  6
  2 13  1  0
  3  4  1  0
  3  2  1  0
  4 12  1  0
  4  5  2  0
  5  6  1  0
  7  8  2  0
  7  6  1  0
  9  8  1  0
 10  9  2  0
 11 10  1  0
 11 12  2  0
 12  7  1  0
 13 14  2  0
 15 13  1  0
 15 16  1  0
 16 17  1  6
 18 17  1  0
 19 18  1  0
 20 19  2  0
 21 16  1  0
 21 22  2  0
 23 19  1  0
 25 24  1  0
 25 26  1  0
 26 27  1  0
 28 27  1  1
 28 29  1  0
 29 21  1  0
 30 28  1  0
 31 30  1  0
 32 30  2  0
M  END
$$$$
