WEM.pdb
     RDKit          3D

 32 33  0  0  1  0  0  0  0  0999 V2000
   21.6918  -20.5451  -17.0345 N   0  0  0  0  0  0  0  0  0  0  0  0
   22.1723  -19.9323  -15.8062 C   0  0  1  0  0  0  0  0  0  0  0  0
   21.1251  -20.2231  -14.7268 C   0  0  0  0  0  0  0  0  0  0  0  0
   20.0449  -19.2334  -14.8419 C   0  0  0  0  0  0  0  0  0  0  0  0
   19.0591  -19.2249  -15.8048 C   0  0  0  0  0  0  0  0  0  0  0  0
   18.2666  -18.1712  -15.5781 N   0  0  0  0  0  0  0  0  0  0  0  0
   18.7345  -17.5131  -14.4888 C   0  0  0  0  0  0  0  0  0  0  0  0
   18.2924  -16.3892  -13.8554 C   0  0  0  0  0  0  0  0  0  0  0  0
   18.9573  -15.9035  -12.7422 C   0  0  0  0  0  0  0  0  0  0  0  0
   20.0842  -16.5620  -12.2612 C   0  0  0  0  0  0  0  0  0  0  0  0
   20.5245  -17.6982  -12.9081 C   0  0  0  0  0  0  0  0  0  0  0  0
   19.8551  -18.1605  -14.0039 C   0  0  0  0  0  0  0  0  0  0  0  0
   23.4233  -20.5657  -15.3114 C   0  0  0  0  0  0  0  0  0  0  0  0
   23.4637  -21.8332  -15.1795 O   0  0  0  0  0  0  0  0  0  0  0  0
   24.5512  -19.8215  -14.9892 N   0  0  0  0  0  0  0  0  0  0  0  0
   25.8148  -20.5044  -14.4335 C   0  0  1  0  0  0  0  0  0  0  0  0
   26.9069  -20.0947  -15.2948 C   0  0  0  0  0  0  0  0  0  0  0  0
   27.0744  -18.7414  -15.7946 C   0  0  0  0  0  0  0  0  0  0  0  0
   27.6050  -18.4418  -17.1046 C   0  0  0  0  0  0  0  0  0  0  0  0
   28.4946  -17.6005  -17.2858 O   0  0  0  0  0  0  0  0  0  0  0  0
   25.6985  -20.2608  -13.0403 C   0  0  0  0  0  0  0  0  0  0  0  0
   25.1519  -19.1578  -12.6335 O   0  0  0  0  0  0  0  0  0  0  0  0
   27.1396  -19.0936  -18.2662 O   0  0  0  0  0  0  0  0  0  0  0  0
   22.4370  -21.1894   -6.3800 C   0  0  0  0  0  0  0  0  0  0  0  0
   22.9879  -21.6462   -7.9993 S   0  0  0  0  0  0  0  0  0  0  0  0
   24.4613  -20.8794   -8.6151 C   0  0  0  0  0  0  0  0  0  0  0  0
   24.8121  -21.2165  -10.0119 C   0  0  0  0  0  0  0  0  0  0  0  0
   26.0327  -20.6192  -10.6055 C   0  0  2  0  0  0  0  0  0  0  0  0
   26.1010  -21.0953  -12.0038 N   0  0  0  0  0  0  0  0  0  0  0  0
   27.2905  -20.9083   -9.8723 C   0  0  0  0  0  0  0  0  0  0  0  0
   27.6240  -20.2708   -8.7001 O   0  0  0  0  0  0  0  0  0  0  0  0
   28.0931  -21.7580  -10.3071 O   0  0  0  0  0  0  0  0  0  0  0  0
  2  1  1  6
  2 13  1  0
  3  4  1  0
  3  2  1  0
  4 12  1  0
  4  5  2  0
  5  6  1  0
  7  8  2  0
  7  6  1  0
  9  8  1  0
 10  9  2  0
 11 10  1  0
 11 12  2  0
 12  7  1  0
 13 14  2  0
 15 13  1  0
 15 16  1  0
 16 17  1  6
 18 17  1  0
 19 18  1  0
 20 19  2  0
 21 16  1  0
 21 22  2  0
 23 19  1  0
 25 24  1  0
 25 26  1  0
 26 27  1  0
 28 27  1  1
 28 29  1  0
 29 21  1  0
 30 28  1  0
 31 30  1  0
 32 30  2  0
M  END
$$$$
