WEM.pdb
     RDKit          3D

 32 33  0  0  1  0  0  0  0  0999 V2000
   25.2828  -21.0243   -8.6076 N   0  0  0  0  0  0  0  0  0  0  0  0
   26.2250  -20.3409   -9.4797 C   0  0  1  0  0  0  0  0  0  0  0  0
   27.6281  -20.6722   -8.9624 C   0  0  0  0  0  0  0  0  0  0  0  0
   27.8516  -19.9389   -7.7086 C   0  0  0  0  0  0  0  0  0  0  0  0
   27.2460  -18.7544   -7.3491 C   0  0  0  0  0  0  0  0  0  0  0  0
   27.7060  -18.4024   -6.1432 N   0  0  0  0  0  0  0  0  0  0  0  0
   28.5922  -19.3437   -5.7342 C   0  0  0  0  0  0  0  0  0  0  0  0
   29.3332  -19.4498   -4.5943 C   0  0  0  0  0  0  0  0  0  0  0  0
   30.1856  -20.5251   -4.4089 C   0  0  0  0  0  0  0  0  0  0  0  0
   30.2911  -21.5076   -5.3880 C   0  0  0  0  0  0  0  0  0  0  0  0
   29.5378  -21.3923   -6.5380 C   0  0  0  0  0  0  0  0  0  0  0  0
   28.7037  -20.3245   -6.7014 C   0  0  0  0  0  0  0  0  0  0  0  0
   26.1913  -20.8674  -10.8699 C   0  0  0  0  0  0  0  0  0  0  0  0
   26.5123  -22.0837  -11.0777 O   0  0  0  0  0  0  0  0  0  0  0  0
   25.8200  -20.0776  -11.9506 N   0  0  0  0  0  0  0  0  0  0  0  0
   25.7340  -20.6712  -13.3690 C   0  0  1  0  0  0  0  0  0  0  0  0
   24.3553  -21.0813  -13.5521 C   0  0  0  0  0  0  0  0  0  0  0  0
   23.8474  -21.6749  -14.7765 C   0  0  0  0  0  0  0  0  0  0  0  0
   22.4651  -22.0538  -14.9578 C   0  0  0  0  0  0  0  0  0  0  0  0
   21.8435  -21.8233  -16.0032 O   0  0  0  0  0  0  0  0  0  0  0  0
   26.4407  -19.7110  -14.1387 C   0  0  0  0  0  0  0  0  0  0  0  0
   27.3020  -18.9391  -13.5529 O   0  0  0  0  0  0  0  0  0  0  0  0
   21.7329  -22.7146  -13.9488 O   0  0  0  0  0  0  0  0  0  0  0  0
   29.9953  -23.2068  -14.6462 C   0  0  0  0  0  0  0  0  0  0  0  0
   30.2418  -22.6668  -16.3142 S   0  0  0  0  0  0  0  0  0  0  0  0
   29.4449  -21.1681  -16.8212 C   0  0  0  0  0  0  0  0  0  0  0  0
   28.2020  -20.8358  -16.0915 C   0  0  0  0  0  0  0  0  0  0  0  0
   27.5456  -19.5327  -16.3559 C   0  0  2  0  0  0  0  0  0  0  0  0
   26.3359  -19.4870  -15.5068 N   0  0  0  0  0  0  0  0  0  0  0  0
   27.2181  -19.2752  -17.7805 C   0  0  0  0  0  0  0  0  0  0  0  0
   28.1242  -18.7269  -18.6582 O   0  0  0  0  0  0  0  0  0  0  0  0
   26.0898  -19.5591  -18.2298 O   0  0  0  0  0  0  0  0  0  0  0  0
  2  1  1  1
  2 13  1  0
  3  4  1  0
  3  2  1  0
  4 12  1  0
  4  5  2  0
  5  6  1  0
  7  8  2  0
  7  6  1  0
  9  8  1  0
 10  9  2  0
 11 10  1  0
 11 12  2  0
 12  7  1  0
 13 14  2  0
 15 13  1  0
 15 16  1  0
 16 17  1  6
 18 17  1  0
 19 18  1  0
 20 19  2  0
 21 16  1  0
 21 22  2  0
 23 19  1  0
 25 24  1  0
 25 26  1  0
 26 27  1  0
 28 27  1  6
 28 29  1  0
 29 21  1  0
 30 28  1  0
 31 30  1  0
 32 30  2  0
M  END
$$$$
