WEM.pdb
     RDKit          3D

 32 33  0  0  1  0  0  0  0  0999 V2000
   28.2258  -21.5145  -13.3328 N   0  0  0  0  0  0  0  0  0  0  0  0
   26.9367  -21.6994  -12.6853 C   0  0  1  0  0  0  0  0  0  0  0  0
   26.8195  -20.6120  -11.6129 C   0  0  0  0  0  0  0  0  0  0  0  0
   27.8524  -20.8445  -10.5938 C   0  0  0  0  0  0  0  0  0  0  0  0
   29.1314  -21.2990  -10.8318 C   0  0  0  0  0  0  0  0  0  0  0  0
   29.7673  -21.3831   -9.6578 N   0  0  0  0  0  0  0  0  0  0  0  0
   28.9123  -20.9900   -8.6816 C   0  0  0  0  0  0  0  0  0  0  0  0
   29.0683  -20.8974   -7.3299 C   0  0  0  0  0  0  0  0  0  0  0  0
   28.0237  -20.4636   -6.5311 C   0  0  0  0  0  0  0  0  0  0  0  0
   26.8046  -20.1181   -7.1049 C   0  0  0  0  0  0  0  0  0  0  0  0
   26.6557  -20.2148   -8.4730 C   0  0  0  0  0  0  0  0  0  0  0  0
   27.6975  -20.6448   -9.2427 C   0  0  0  0  0  0  0  0  0  0  0  0
   25.7996  -21.4532  -13.6112 C   0  0  0  0  0  0  0  0  0  0  0  0
   25.6617  -20.2948  -14.1259 O   0  0  0  0  0  0  0  0  0  0  0  0
   24.8823  -22.4447  -13.9355 N   0  0  0  0  0  0  0  0  0  0  0  0
   23.7158  -22.1560  -14.8986 C   0  0  1  0  0  0  0  0  0  0  0  0
   23.8825  -23.0628  -16.0177 C   0  0  0  0  0  0  0  0  0  0  0  0
   23.1947  -22.9096  -17.2877 C   0  0  0  0  0  0  0  0  0  0  0  0
   23.4447  -21.8141  -18.1958 C   0  0  0  0  0  0  0  0  0  0  0  0
   24.5805  -21.5267  -18.5952 O   0  0  0  0  0  0  0  0  0  0  0  0
   22.6064  -22.0964  -14.0156 C   0  0  0  0  0  0  0  0  0  0  0  0
   22.8035  -22.2280  -12.7410 O   0  0  0  0  0  0  0  0  0  0  0  0
   22.4035  -20.9984  -18.6872 O   0  0  0  0  0  0  0  0  0  0  0  0
   20.2777  -20.4642   -9.2649 C   0  0  0  0  0  0  0  0  0  0  0  0
   20.7215  -19.1264  -10.3362 S   0  0  0  0  0  0  0  0  0  0  0  0
   20.1279  -19.1752  -12.0046 C   0  0  0  0  0  0  0  0  0  0  0  0
   20.9093  -20.0263  -12.9281 C   0  0  0  0  0  0  0  0  0  0  0  0
   20.3393  -21.3270  -13.3550 C   0  0  2  0  0  0  0  0  0  0  0  0
   21.2731  -21.8925  -14.3523 N   0  0  0  0  0  0  0  0  0  0  0  0
   18.9549  -21.2590  -13.8859 C   0  0  0  0  0  0  0  0  0  0  0  0
   17.8483  -21.3777  -13.0776 O   0  0  0  0  0  0  0  0  0  0  0  0
   18.7544  -21.0846  -15.1044 O   0  0  0  0  0  0  0  0  0  0  0  0
  2  1  1  6
  2 13  1  0
  3  4  1  0
  3  2  1  0
  4 12  1  0
  4  5  2  0
  5  6  1  0
  7  8  2  0
  7  6  1  0
  9  8  1  0
 10  9  2  0
 11 10  1  0
 11 12  2  0
 12  7  1  0
 13 14  2  0
 15 13  1  0
 15 16  1  0
 16 17  1  6
 18 17  1  0
 19 18  1  0
 20 19  2  0
 21 16  1  0
 21 22  2  0
 23 19  1  0
 25 24  1  0
 25 26  1  0
 26 27  1  0
 28 27  1  6
 28 29  1  0
 29 21  1  0
 30 28  1  0
 31 30  1  0
 32 30  2  0
M  END
$$$$
