WEM.pdb
     RDKit          3D

 32 33  0  0  1  0  0  0  0  0999 V2000
   25.0916  -21.9446  -14.3183 N   0  0  0  0  0  0  0  0  0  0  0  0
   23.8522  -22.5474  -14.7829 C   0  0  1  0  0  0  0  0  0  0  0  0
   23.8881  -24.0183  -14.3570 C   0  0  0  0  0  0  0  0  0  0  0  0
   24.5392  -24.7986  -15.4183 C   0  0  0  0  0  0  0  0  0  0  0  0
   25.8667  -25.1674  -15.4483 C   0  0  0  0  0  0  0  0  0  0  0  0
   26.0786  -25.8642  -16.5705 N   0  0  0  0  0  0  0  0  0  0  0  0
   24.9083  -25.9420  -17.2507 C   0  0  0  0  0  0  0  0  0  0  0  0
   24.5934  -26.5330  -18.4387 C   0  0  0  0  0  0  0  0  0  0  0  0
   23.3017  -26.4692  -18.9336 C   0  0  0  0  0  0  0  0  0  0  0  0
   22.3139  -25.7997  -18.2189 C   0  0  0  0  0  0  0  0  0  0  0  0
   22.6413  -25.2048  -17.0180 C   0  0  0  0  0  0  0  0  0  0  0  0
   23.9204  -25.2790  -16.5477 C   0  0  0  0  0  0  0  0  0  0  0  0
   22.6583  -21.9775  -14.1040 C   0  0  0  0  0  0  0  0  0  0  0  0
   22.7279  -21.7001  -12.8615 O   0  0  0  0  0  0  0  0  0  0  0  0
   21.4689  -21.7357  -14.7797 N   0  0  0  0  0  0  0  0  0  0  0  0
   20.2537  -21.1361  -14.0481 C   0  0  1  0  0  0  0  0  0  0  0  0
   19.6599  -20.1832  -14.9656 C   0  0  0  0  0  0  0  0  0  0  0  0
   18.3744  -19.5449  -14.7435 C   0  0  0  0  0  0  0  0  0  0  0  0
   17.7405  -18.6834  -15.7147 C   0  0  0  0  0  0  0  0  0  0  0  0
   16.5797  -18.2740  -15.5839 O   0  0  0  0  0  0  0  0  0  0  0  0
   19.6308  -22.2905  -13.5065 C   0  0  0  0  0  0  0  0  0  0  0  0
   19.6805  -23.4055  -14.1662 O   0  0  0  0  0  0  0  0  0  0  0  0
   18.4090  -18.2520  -16.8800 O   0  0  0  0  0  0  0  0  0  0  0  0
   17.4819  -26.4765   -7.1810 C   0  0  0  0  0  0  0  0  0  0  0  0
   18.2609  -25.1572   -8.0681 S   0  0  0  0  0  0  0  0  0  0  0  0
   17.9649  -25.0490   -9.8113 C   0  0  0  0  0  0  0  0  0  0  0  0
   18.5588  -23.8714  -10.4807 C   0  0  0  0  0  0  0  0  0  0  0  0
   18.2949  -23.6625  -11.9249 C   0  0  2  0  0  0  0  0  0  0  0  0
   18.9530  -22.3916  -12.2970 N   0  0  0  0  0  0  0  0  0  0  0  0
   16.8600  -23.6614  -12.3047 C   0  0  0  0  0  0  0  0  0  0  0  0
   16.0462  -22.5700  -12.1092 O   0  0  0  0  0  0  0  0  0  0  0  0
   16.3446  -24.6705  -12.8259 O   0  0  0  0  0  0  0  0  0  0  0  0
  2  1  1  1
  2 13  1  0
  3  4  1  0
  3  2  1  0
  4 12  1  0
  4  5  2  0
  5  6  1  0
  7  8  2  0
  7  6  1  0
  9  8  1  0
 10  9  2  0
 11 10  1  0
 11 12  2  0
 12  7  1  0
 13 14  2  0
 15 13  1  0
 15 16  1  0
 16 17  1  6
 18 17  1  0
 19 18  1  0
 20 19  2  0
 21 16  1  0
 21 22  2  0
 23 19  1  0
 25 24  1  0
 25 26  1  0
 26 27  1  0
 28 27  1  1
 28 29  1  0
 29 21  1  0
 30 28  1  0
 31 30  1  0
 32 30  2  0
M  END
$$$$
