WEM.pdb
     RDKit          3D

 32 33  0  0  1  0  0  0  0  0999 V2000
   17.5111   -9.1900  -10.3493 N   0  0  0  0  0  0  0  0  0  0  0  0
   16.4496   -8.3706  -10.9124 C   0  0  1  0  0  0  0  0  0  0  0  0
   15.3309   -8.3155   -9.8677 C   0  0  0  0  0  0  0  0  0  0  0  0
   14.4845   -9.5067  -10.0228 C   0  0  0  0  0  0  0  0  0  0  0  0
   14.7451  -10.5782  -10.8492 C   0  0  0  0  0  0  0  0  0  0  0  0
   13.7464  -11.4583  -10.7152 N   0  0  0  0  0  0  0  0  0  0  0  0
   12.8587  -10.9615   -9.8186 C   0  0  0  0  0  0  0  0  0  0  0  0
   11.6840  -11.4625   -9.3405 C   0  0  0  0  0  0  0  0  0  0  0  0
   10.9421  -10.7491   -8.4141 C   0  0  0  0  0  0  0  0  0  0  0  0
   11.3928   -9.5126   -7.9638 C   0  0  0  0  0  0  0  0  0  0  0  0
   12.5823   -9.0134   -8.4529 C   0  0  0  0  0  0  0  0  0  0  0  0
   13.2984   -9.7322   -9.3657 C   0  0  0  0  0  0  0  0  0  0  0  0
   16.8693   -6.9571  -11.1043 C   0  0  0  0  0  0  0  0  0  0  0  0
   17.7187   -6.4503  -10.2997 O   0  0  0  0  0  0  0  0  0  0  0  0
   16.3672   -6.1700  -12.1329 N   0  0  0  0  0  0  0  0  0  0  0  0
   16.8471   -4.7191  -12.3225 C   0  0  1  0  0  0  0  0  0  0  0  0
   16.9779   -4.5208  -13.7529 C   0  0  0  0  0  0  0  0  0  0  0  0
   17.4205   -3.2761  -14.3563 C   0  0  0  0  0  0  0  0  0  0  0  0
   17.5835   -3.1016  -15.7812 C   0  0  0  0  0  0  0  0  0  0  0  0
   17.3736   -4.0135  -16.5916 O   0  0  0  0  0  0  0  0  0  0  0  0
   15.9927   -4.0039  -11.4436 C   0  0  0  0  0  0  0  0  0  0  0  0
   15.0298   -4.6328  -10.8452 O   0  0  0  0  0  0  0  0  0  0  0  0
   17.9943   -1.8736  -16.3415 O   0  0  0  0  0  0  0  0  0  0  0  0
   11.9155   -2.2818   -6.0967 C   0  0  0  0  0  0  0  0  0  0  0  0
   12.8220   -2.8630   -7.5020 S   0  0  0  0  0  0  0  0  0  0  0  0
   14.4699   -2.2539   -7.7289 C   0  0  0  0  0  0  0  0  0  0  0  0
   15.1823   -2.7855   -8.9111 C   0  0  0  0  0  0  0  0  0  0  0  0
   15.0596   -2.0659  -10.2019 C   0  0  2  0  0  0  0  0  0  0  0  0
   16.0638   -2.6554  -11.1133 N   0  0  0  0  0  0  0  0  0  0  0  0
   15.2076   -0.5917  -10.1126 C   0  0  0  0  0  0  0  0  0  0  0  0
   14.1719    0.2321   -9.7377 O   0  0  0  0  0  0  0  0  0  0  0  0
   16.2995   -0.0502  -10.3768 O   0  0  0  0  0  0  0  0  0  0  0  0
  2  1  1  1
  2 13  1  0
  3  4  1  0
  3  2  1  0
  4 12  1  0
  4  5  2  0
  5  6  1  0
  7  8  2  0
  7  6  1  0
  9  8  1  0
 10  9  2  0
 11 10  1  0
 11 12  2  0
 12  7  1  0
 13 14  2  0
 15 13  1  0
 15 16  1  0
 16 17  1  6
 18 17  1  0
 19 18  1  0
 20 19  2  0
 21 16  1  0
 21 22  2  0
 23 19  1  0
 25 24  1  0
 25 26  1  0
 26 27  1  0
 28 27  1  1
 28 29  1  0
 29 21  1  0
 30 28  1  0
 31 30  1  0
 32 30  2  0
M  END
$$$$
