WEM.pdb
     RDKit          3D

 32 33  0  0  1  0  0  0  0  0999 V2000
   15.1964  -16.2504    5.7219 N   0  0  0  0  0  0  0  0  0  0  0  0
   16.1228  -17.2266    5.1705 C   0  0  1  0  0  0  0  0  0  0  0  0
   17.5341  -16.6783    5.4021 C   0  0  0  0  0  0  0  0  0  0  0  0
   17.8259  -15.6794    4.3645 C   0  0  0  0  0  0  0  0  0  0  0  0
   17.5087  -14.3396    4.4240 C   0  0  0  0  0  0  0  0  0  0  0  0
   17.9338  -13.7619    3.2948 N   0  0  0  0  0  0  0  0  0  0  0  0
   18.5139  -14.7133    2.5222 C   0  0  0  0  0  0  0  0  0  0  0  0
   19.0947  -14.6439    1.2902 C   0  0  0  0  0  0  0  0  0  0  0  0
   19.6228  -15.7788    0.6984 C   0  0  0  0  0  0  0  0  0  0  0  0
   19.5642  -17.0011    1.3597 C   0  0  0  0  0  0  0  0  0  0  0  0
   18.9749  -17.0622    2.6057 C   0  0  0  0  0  0  0  0  0  0  0  0
   18.4601  -15.9320    3.1715 C   0  0  0  0  0  0  0  0  0  0  0  0
   16.0847  -18.5186    5.9055 C   0  0  0  0  0  0  0  0  0  0  0  0
   15.8855  -18.5073    7.1648 O   0  0  0  0  0  0  0  0  0  0  0  0
   16.2577  -19.7389    5.2648 N   0  0  0  0  0  0  0  0  0  0  0  0
   16.3230  -21.0504    6.0694 C   0  0  1  0  0  0  0  0  0  0  0  0
   15.3418  -21.9376    5.4758 C   0  0  0  0  0  0  0  0  0  0  0  0
   14.4581  -22.7931    6.2480 C   0  0  0  0  0  0  0  0  0  0  0  0
   14.9346  -23.7618    7.2082 C   0  0  0  0  0  0  0  0  0  0  0  0
   15.4880  -24.8164    6.8708 O   0  0  0  0  0  0  0  0  0  0  0  0
   17.7212  -21.2754    6.1619 C   0  0  0  0  0  0  0  0  0  0  0  0
   18.4663  -21.0686    5.1214 O   0  0  0  0  0  0  0  0  0  0  0  0
   14.7984  -23.5650    8.5987 O   0  0  0  0  0  0  0  0  0  0  0  0
   22.4714  -17.1579    8.1471 C   0  0  0  0  0  0  0  0  0  0  0  0
   21.8588  -18.7153    8.7247 S   0  0  0  0  0  0  0  0  0  0  0  0
   21.1628  -19.8217    7.5290 C   0  0  0  0  0  0  0  0  0  0  0  0
   20.5776  -21.0623    8.0822 C   0  0  0  0  0  0  0  0  0  0  0  0
   19.8776  -21.9927    7.1639 C   0  0  2  0  0  0  0  0  0  0  0  0
   18.4335  -21.6961    7.2792 N   0  0  0  0  0  0  0  0  0  0  0  0
   20.1561  -23.4315    7.3994 C   0  0  0  0  0  0  0  0  0  0  0  0
   21.3541  -24.0159    7.0602 O   0  0  0  0  0  0  0  0  0  0  0  0
   19.2942  -24.1629    7.9261 O   0  0  0  0  0  0  0  0  0  0  0  0
  2  1  1  1
  2 13  1  0
  3  4  1  0
  3  2  1  0
  4 12  1  0
  4  5  2  0
  5  6  1  0
  7  8  2  0
  7  6  1  0
  9  8  1  0
 10  9  2  0
 11 10  1  0
 11 12  2  0
 12  7  1  0
 13 14  2  0
 15 13  1  0
 15 16  1  0
 16 17  1  6
 18 17  1  0
 19 18  1  0
 20 19  2  0
 21 16  1  0
 21 22  2  0
 23 19  1  0
 25 24  1  0
 25 26  1  0
 26 27  1  0
 28 27  1  1
 28 29  1  0
 29 21  1  0
 30 28  1  0
 31 30  1  0
 32 30  2  0
M  END
$$$$
