WEM.pdb
     RDKit          3D

 32 33  0  0  1  0  0  0  0  0999 V2000
   31.0435   -9.8495  -20.3197 N   0  0  0  0  0  0  0  0  0  0  0  0
   30.6961  -10.8231  -19.2966 C   0  0  1  0  0  0  0  0  0  0  0  0
   29.8604  -10.0840  -18.2471 C   0  0  0  0  0  0  0  0  0  0  0  0
   30.6985   -9.0518  -17.6214 C   0  0  0  0  0  0  0  0  0  0  0  0
   30.3879   -7.7129  -17.5218 C   0  0  0  0  0  0  0  0  0  0  0  0
   31.3958   -7.0988  -16.8920 N   0  0  0  0  0  0  0  0  0  0  0  0
   32.3385   -8.0262  -16.5921 C   0  0  0  0  0  0  0  0  0  0  0  0
   33.5434   -7.9163  -15.9629 C   0  0  0  0  0  0  0  0  0  0  0  0
   34.3418   -9.0321  -15.7760 C   0  0  0  0  0  0  0  0  0  0  0  0
   33.9176  -10.2765  -16.2303 C   0  0  0  0  0  0  0  0  0  0  0  0
   32.6972  -10.3784  -16.8657 C   0  0  0  0  0  0  0  0  0  0  0  0
   31.9254   -9.2665  -17.0402 C   0  0  0  0  0  0  0  0  0  0  0  0
   29.8050  -11.8941  -19.8162 C   0  0  0  0  0  0  0  0  0  0  0  0
   29.0651  -11.6468  -20.8247 O   0  0  0  0  0  0  0  0  0  0  0  0
   29.7527  -13.1567  -19.2394 N   0  0  0  0  0  0  0  0  0  0  0  0
   28.9350  -14.2880  -19.8898 C   0  0  1  0  0  0  0  0  0  0  0  0
   29.7511  -15.4827  -19.7934 C   0  0  0  0  0  0  0  0  0  0  0  0
   29.3113  -16.7959  -20.2309 C   0  0  0  0  0  0  0  0  0  0  0  0
   30.1395  -17.9767  -20.1457 C   0  0  0  0  0  0  0  0  0  0  0  0
   30.4734  -18.4787  -19.0647 O   0  0  0  0  0  0  0  0  0  0  0  0
   27.6494  -14.0931  -19.3214 C   0  0  0  0  0  0  0  0  0  0  0  0
   27.5383  -13.4084  -18.2262 O   0  0  0  0  0  0  0  0  0  0  0  0
   30.6220  -18.6354  -21.2963 O   0  0  0  0  0  0  0  0  0  0  0  0
   20.4224  -11.5826  -20.0416 C   0  0  0  0  0  0  0  0  0  0  0  0
   22.0670  -12.0275  -20.5232 S   0  0  0  0  0  0  0  0  0  0  0  0
   23.0004  -13.0511  -19.4190 C   0  0  0  0  0  0  0  0  0  0  0  0
   24.3812  -13.3541  -19.8541 C   0  0  0  0  0  0  0  0  0  0  0  0
   25.1894  -14.3053  -19.0536 C   0  0  2  0  0  0  0  0  0  0  0  0
   26.4330  -14.5507  -19.8151 N   0  0  0  0  0  0  0  0  0  0  0  0
   24.5029  -15.5763  -18.7125 C   0  0  0  0  0  0  0  0  0  0  0  0
   23.6190  -15.6786  -17.6637 O   0  0  0  0  0  0  0  0  0  0  0  0
   24.7110  -16.6059  -19.3848 O   0  0  0  0  0  0  0  0  0  0  0  0
  2  1  1  6
  2 13  1  0
  3  4  1  0
  3  2  1  0
  4 12  1  0
  4  5  2  0
  5  6  1  0
  7  8  2  0
  7  6  1  0
  9  8  1  0
 10  9  2  0
 11 10  1  0
 11 12  2  0
 12  7  1  0
 13 14  2  0
 15 13  1  0
 15 16  1  0
 16 17  1  1
 18 17  1  0
 19 18  1  0
 20 19  2  0
 21 16  1  0
 21 22  2  0
 23 19  1  0
 25 24  1  0
 25 26  1  0
 26 27  1  0
 28 27  1  6
 28 29  1  0
 29 21  1  0
 30 28  1  0
 31 30  1  0
 32 30  2  0
M  END
$$$$
