QVV.pdb
     RDKit          3D

 24 23  0  0  1  0  0  0  0  0999 V2000
   19.2861  -15.6102  -21.1120 N   0  0  0  0  0  0  0  0  0  0  0  0
   18.5266  -14.9759  -20.1223 C   0  0  0  0  0  0  0  0  0  0  0  0
   17.8727  -13.9507  -20.4318 O   0  0  0  0  0  0  0  0  0  0  0  0
   18.4636  -15.4558  -18.7249 C   0  0  0  0  0  0  0  0  0  0  0  0
   18.9801  -14.3371  -17.8001 C   0  0  0  0  0  0  0  0  0  0  0  0
   20.1333  -14.8466  -16.9907 C   0  0  2  0  0  0  0  0  0  0  0  0
   19.7488  -16.1228  -16.4069 N   0  0  0  0  0  0  0  0  0  0  0  0
   20.6594  -13.8950  -16.0012 C   0  0  0  0  0  0  0  0  0  0  0  0
   20.2281  -13.7880  -14.8411 O   0  0  0  0  0  0  0  0  0  0  0  0
   24.1239  -13.4430  -14.7252 C   0  0  0  0  0  0  0  0  0  0  0  0
   23.7434  -12.1110  -15.3805 C   0  0  2  0  0  0  0  0  0  0  0  0
   24.2991  -10.9605  -14.5452 C   0  0  0  0  0  0  0  0  0  0  0  0
   22.2666  -12.0179  -15.5911 C   0  0  2  0  0  0  0  0  0  0  0  0
   21.7345  -13.0512  -16.4341 N   0  0  0  0  0  0  0  0  0  0  0  0
   21.8402  -10.6564  -16.1219 C   0  0  0  0  0  0  0  0  0  0  0  0
   22.1641  -10.3415  -17.2832 O   0  0  0  0  0  0  0  0  0  0  0  0
   18.7375   -6.9938  -16.0913 C   0  0  0  0  0  0  0  0  0  0  0  0
   19.1204   -8.4031  -15.6392 C   0  0  1  0  0  0  0  0  0  0  0  0
   18.5388   -9.3955  -16.5714 C   0  0  0  0  0  0  0  0  0  0  0  0
   20.6313   -8.4547  -15.5782 C   0  0  2  0  0  0  0  0  0  0  0  0
   21.1110   -9.7668  -15.3228 N   0  0  0  0  0  0  0  0  0  0  0  0
   21.1474   -7.3563  -14.7435 C   0  0  0  0  0  0  0  0  0  0  0  0
   21.6573   -6.2113  -15.3387 O   0  0  0  0  0  0  0  0  0  0  0  0
   21.1849   -7.3964  -13.4901 O   0  0  0  0  0  0  0  0  0  0  0  0
  2  1  1  0
  2  3  2  0
  4  5  1  0
  4  2  1  0
  6  5  1  0
  6  7  1  1
  8 14  1  0
  8  6  1  0
  9  8  2  0
 11 10  1  1
 11 13  1  0
 11 12  1  0
 13 14  1  6
 15 13  1  0
 16 15  2  0
 18 20  1  0
 18 17  1  6
 19 18  1  0
 20 22  1  0
 20 21  1  1
 21 15  1  0
 22 23  1  0
 24 22  2  0
M  END
$$$$
