QVV.pdb
     RDKit          3D

 24 23  0  0  1  0  0  0  0  0999 V2000
   18.2193  -16.2474  -15.4022 N   0  0  0  0  0  0  0  0  0  0  0  0
   16.8304  -16.3087  -15.5636 C   0  0  0  0  0  0  0  0  0  0  0  0
   16.2127  -17.2897  -15.0835 O   0  0  0  0  0  0  0  0  0  0  0  0
   16.0567  -15.2717  -16.2798 C   0  0  0  0  0  0  0  0  0  0  0  0
   17.0287  -14.1706  -16.7448 C   0  0  0  0  0  0  0  0  0  0  0  0
   16.2624  -13.0802  -17.4293 C   0  0  2  0  0  0  0  0  0  0  0  0
   15.6642  -13.6342  -18.6346 N   0  0  0  0  0  0  0  0  0  0  0  0
   17.0299  -11.8513  -17.6790 C   0  0  0  0  0  0  0  0  0  0  0  0
   17.5519  -11.5666  -18.7698 O   0  0  0  0  0  0  0  0  0  0  0  0
   16.1461   -8.6019  -18.2286 C   0  0  0  0  0  0  0  0  0  0  0  0
   16.8733   -8.5297  -16.8817 C   0  0  2  0  0  0  0  0  0  0  0  0
   17.5571   -7.1714  -16.7494 C   0  0  0  0  0  0  0  0  0  0  0  0
   17.8183   -9.6761  -16.7188 C   0  0  2  0  0  0  0  0  0  0  0  0
   17.1680  -10.9481  -16.5743 N   0  0  0  0  0  0  0  0  0  0  0  0
   18.7919   -9.4673  -15.5675 C   0  0  0  0  0  0  0  0  0  0  0  0
   18.3715   -9.5935  -14.4012 O   0  0  0  0  0  0  0  0  0  0  0  0
   23.4580   -9.5003  -14.1721 C   0  0  0  0  0  0  0  0  0  0  0  0
   22.4574   -9.6426  -15.3192 C   0  0  1  0  0  0  0  0  0  0  0  0
   22.2121  -11.0783  -15.5849 C   0  0  0  0  0  0  0  0  0  0  0  0
   21.2094   -8.8880  -14.9159 C   0  0  2  0  0  0  0  0  0  0  0  0
   20.1294   -9.1274  -15.8065 N   0  0  0  0  0  0  0  0  0  0  0  0
   21.5396   -7.4898  -14.5911 C   0  0  0  0  0  0  0  0  0  0  0  0
   21.7441   -7.1122  -13.2716 O   0  0  0  0  0  0  0  0  0  0  0  0
   21.6245   -6.5796  -15.4504 O   0  0  0  0  0  0  0  0  0  0  0  0
  2  1  1  0
  2  3  2  0
  4  5  1  0
  4  2  1  0
  6  5  1  0
  6  7  1  6
  8 14  1  0
  8  6  1  0
  9  8  2  0
 11 10  1  6
 11 13  1  0
 11 12  1  0
 13 14  1  1
 15 13  1  0
 16 15  2  0
 18 20  1  0
 18 17  1  1
 19 18  1  0
 20 22  1  0
 20 21  1  6
 21 15  1  0
 22 23  1  0
 24 22  2  0
M  END
$$$$
