QVV.pdb
     RDKit          3D

 24 23  0  0  1  0  0  0  0  0999 V2000
   13.4681  -10.3774  -14.5083 N   0  0  0  0  0  0  0  0  0  0  0  0
   13.4824  -10.1497  -15.8891 C   0  0  0  0  0  0  0  0  0  0  0  0
   12.3944   -9.9228  -16.4716 O   0  0  0  0  0  0  0  0  0  0  0  0
   14.7218  -10.1697  -16.6955 C   0  0  0  0  0  0  0  0  0  0  0  0
   15.9182  -10.3798  -15.7479 C   0  0  0  0  0  0  0  0  0  0  0  0
   16.8821  -11.3481  -16.3626 C   0  0  2  0  0  0  0  0  0  0  0  0
   16.5330  -12.6857  -15.9081 N   0  0  0  0  0  0  0  0  0  0  0  0
   18.3004  -11.0207  -16.1556 C   0  0  0  0  0  0  0  0  0  0  0  0
   19.0056  -11.5168  -15.2612 O   0  0  0  0  0  0  0  0  0  0  0  0
   21.1568  -11.4123  -18.5016 C   0  0  0  0  0  0  0  0  0  0  0  0
   21.0382   -9.9132  -18.2070 C   0  0  2  0  0  0  0  0  0  0  0  0
   22.4337   -9.2961  -18.1597 C   0  0  0  0  0  0  0  0  0  0  0  0
   20.2514   -9.6709  -16.9596 C   0  0  2  0  0  0  0  0  0  0  0  0
   18.8741  -10.0647  -17.0567 N   0  0  0  0  0  0  0  0  0  0  0  0
   20.3368   -8.2253  -16.4903 C   0  0  0  0  0  0  0  0  0  0  0  0
   19.7407   -7.3496  -17.1465 O   0  0  0  0  0  0  0  0  0  0  0  0
   21.6421   -5.3160  -12.7013 C   0  0  0  0  0  0  0  0  0  0  0  0
   21.5325   -6.7375  -13.2531 C   0  0  1  0  0  0  0  0  0  0  0  0
   20.4286   -7.4486  -12.5693 C   0  0  0  0  0  0  0  0  0  0  0  0
   21.3314   -6.6191  -14.7481 C   0  0  2  0  0  0  0  0  0  0  0  0
   21.0788   -7.8784  -15.3543 N   0  0  0  0  0  0  0  0  0  0  0  0
   22.3764   -5.7657  -15.3389 C   0  0  0  0  0  0  0  0  0  0  0  0
   22.1567   -4.4045  -15.4944 O   0  0  0  0  0  0  0  0  0  0  0  0
   23.4780   -6.2026  -15.7508 O   0  0  0  0  0  0  0  0  0  0  0  0
  2  1  1  0
  2  3  2  0
  4  5  1  0
  4  2  1  0
  6  5  1  0
  6  7  1  1
  8 14  1  0
  8  6  1  0
  9  8  2  0
 11 10  1  1
 11 13  1  0
 11 12  1  0
 13 14  1  6
 15 13  1  0
 16 15  2  0
 18 20  1  0
 18 17  1  1
 19 18  1  0
 20 22  1  0
 20 21  1  6
 21 15  1  0
 22 23  1  0
 24 22  2  0
M  END
$$$$
