QVV.pdb
     RDKit          3D

 24 23  0  0  1  0  0  0  0  0999 V2000
   26.1899  -28.1856  -17.6464 N   0  0  0  0  0  0  0  0  0  0  0  0
   24.8305  -27.9345  -17.4286 C   0  0  0  0  0  0  0  0  0  0  0  0
   23.9854  -28.6482  -18.0209 O   0  0  0  0  0  0  0  0  0  0  0  0
   24.3431  -26.8614  -16.5353 C   0  0  0  0  0  0  0  0  0  0  0  0
   25.5516  -26.2511  -15.7999 C   0  0  0  0  0  0  0  0  0  0  0  0
   26.1145  -25.1226  -16.6087 C   0  0  2  0  0  0  0  0  0  0  0  0
   27.3825  -25.5585  -17.1742 N   0  0  0  0  0  0  0  0  0  0  0  0
   26.2120  -23.8414  -15.8942 C   0  0  0  0  0  0  0  0  0  0  0  0
   27.2355  -23.4457  -15.3118 O   0  0  0  0  0  0  0  0  0  0  0  0
   25.7556  -20.4981  -17.3406 C   0  0  0  0  0  0  0  0  0  0  0  0
   24.6947  -20.6172  -16.2412 C   0  0  2  0  0  0  0  0  0  0  0  0
   24.5261  -19.2646  -15.5539 C   0  0  0  0  0  0  0  0  0  0  0  0
   25.0302  -21.7177  -15.2872 C   0  0  2  0  0  0  0  0  0  0  0  0
   25.0351  -23.0229  -15.8857 N   0  0  0  0  0  0  0  0  0  0  0  0
   24.1257  -21.7212  -14.0630 C   0  0  0  0  0  0  0  0  0  0  0  0
   22.9407  -22.0821  -14.1987 O   0  0  0  0  0  0  0  0  0  0  0  0
   25.9682  -21.9551  -10.5046 C   0  0  0  0  0  0  0  0  0  0  0  0
   24.9077  -20.8560  -10.4404 C   0  0  1  0  0  0  0  0  0  0  0  0
   25.5646  -19.5313  -10.5164 C   0  0  0  0  0  0  0  0  0  0  0  0
   23.9381  -21.1078  -11.5744 C   0  0  2  0  0  0  0  0  0  0  0  0
   24.6049  -21.3161  -12.8109 N   0  0  0  0  0  0  0  0  0  0  0  0
   22.8421  -20.1244  -11.5382 C   0  0  0  0  0  0  0  0  0  0  0  0
   21.7847  -20.2941  -10.6557 O   0  0  0  0  0  0  0  0  0  0  0  0
   22.7815  -19.1251  -12.2942 O   0  0  0  0  0  0  0  0  0  0  0  0
  2  1  1  0
  2  3  2  0
  4  5  1  0
  4  2  1  0
  6  5  1  0
  6  7  1  1
  8 14  1  0
  8  6  1  0
  9  8  2  0
 11 10  1  6
 11 13  1  0
 11 12  1  0
 13 14  1  6
 15 13  1  0
 16 15  2  0
 18 20  1  0
 18 17  1  6
 19 18  1  0
 20 22  1  0
 20 21  1  6
 21 15  1  0
 22 23  1  0
 24 22  2  0
M  END
$$$$
