QVV.pdb
     RDKit          3D

 24 23  0  0  1  0  0  0  0  0999 V2000
   21.5096  -18.1156  -14.7891 N   0  0  0  0  0  0  0  0  0  0  0  0
   21.3524  -18.0541  -16.1784 C   0  0  0  0  0  0  0  0  0  0  0  0
   21.4115  -16.9337  -16.7404 O   0  0  0  0  0  0  0  0  0  0  0  0
   21.1140  -19.2497  -17.0153 C   0  0  0  0  0  0  0  0  0  0  0  0
   21.8332  -20.4496  -16.3698 C   0  0  0  0  0  0  0  0  0  0  0  0
   23.2924  -20.4011  -16.7060 C   0  0  2  0  0  0  0  0  0  0  0  0
   23.4778  -21.0187  -18.0105 N   0  0  0  0  0  0  0  0  0  0  0  0
   24.1810  -20.9553  -15.6741 C   0  0  0  0  0  0  0  0  0  0  0  0
   24.0897  -22.1096  -15.2242 O   0  0  0  0  0  0  0  0  0  0  0  0
   27.9285  -18.8683  -14.7582 C   0  0  0  0  0  0  0  0  0  0  0  0
   27.5739  -20.3498  -14.5916 C   0  0  2  0  0  0  0  0  0  0  0  0
   27.9178  -21.0987  -15.8766 C   0  0  0  0  0  0  0  0  0  0  0  0
   26.1461  -20.5183  -14.1833 C   0  0  2  0  0  0  0  0  0  0  0  0
   25.2037  -20.0832  -15.1755 N   0  0  0  0  0  0  0  0  0  0  0  0
   25.8377  -19.8412  -12.8553 C   0  0  0  0  0  0  0  0  0  0  0  0
   25.6098  -18.6161  -12.8499 O   0  0  0  0  0  0  0  0  0  0  0  0
   23.2728  -20.0724  -10.7074 C   0  0  0  0  0  0  0  0  0  0  0  0
   24.3450  -20.5469   -9.7263 C   0  0  1  0  0  0  0  0  0  0  0  0
   24.2058  -22.0049   -9.5103 C   0  0  0  0  0  0  0  0  0  0  0  0
   25.6850  -20.1546  -10.3092 C   0  0  2  0  0  0  0  0  0  0  0  0
   25.8222  -20.5709  -11.6600 N   0  0  0  0  0  0  0  0  0  0  0  0
   26.7691  -20.4894   -9.3700 C   0  0  0  0  0  0  0  0  0  0  0  0
   26.8410  -19.8567   -8.1371 O   0  0  0  0  0  0  0  0  0  0  0  0
   27.6789  -21.3144   -9.6264 O   0  0  0  0  0  0  0  0  0  0  0  0
  2  1  1  0
  2  3  2  0
  4  5  1  0
  4  2  1  0
  6  5  1  0
  6  7  1  6
  8 14  1  0
  8  6  1  0
  9  8  2  0
 11 10  1  6
 11 13  1  0
 11 12  1  0
 13 14  1  6
 15 13  1  0
 16 15  2  0
 18 20  1  0
 18 17  1  6
 19 18  1  0
 20 22  1  0
 20 21  1  6
 21 15  1  0
 22 23  1  0
 24 22  2  0
M  END
$$$$
