QVV.pdb
     RDKit          3D

 24 23  0  0  1  0  0  0  0  0999 V2000
   28.2963  -18.0309  -15.4200 N   0  0  0  0  0  0  0  0  0  0  0  0
   28.7275  -18.4011  -16.6989 C   0  0  0  0  0  0  0  0  0  0  0  0
   29.7053  -17.7964  -17.2015 O   0  0  0  0  0  0  0  0  0  0  0  0
   28.0795  -19.4703  -17.4888 C   0  0  0  0  0  0  0  0  0  0  0  0
   26.9305  -20.0669  -16.6537 C   0  0  0  0  0  0  0  0  0  0  0  0
   27.4959  -20.8880  -15.5354 C   0  0  2  0  0  0  0  0  0  0  0  0
   28.2837  -21.9646  -16.1168 N   0  0  0  0  0  0  0  0  0  0  0  0
   26.5057  -21.3615  -14.5572 C   0  0  0  0  0  0  0  0  0  0  0  0
   25.7595  -22.3379  -14.7395 O   0  0  0  0  0  0  0  0  0  0  0  0
   27.1046  -21.3336  -10.5685 C   0  0  0  0  0  0  0  0  0  0  0  0
   25.8163  -20.5960  -10.9485 C   0  0  2  0  0  0  0  0  0  0  0  0
   24.7303  -20.9170   -9.9248 C   0  0  0  0  0  0  0  0  0  0  0  0
   25.4079  -20.9144  -12.3505 C   0  0  2  0  0  0  0  0  0  0  0  0
   26.4192  -20.6279  -13.3286 N   0  0  0  0  0  0  0  0  0  0  0  0
   24.1070  -20.2302  -12.7463 C   0  0  0  0  0  0  0  0  0  0  0  0
   24.0821  -18.9856  -12.8044 O   0  0  0  0  0  0  0  0  0  0  0  0
   22.4106  -20.6645  -15.7443 C   0  0  0  0  0  0  0  0  0  0  0  0
   21.2889  -21.0898  -14.7967 C   0  0  1  0  0  0  0  0  0  0  0  0
   21.1307  -22.5610  -14.8482 C   0  0  0  0  0  0  0  0  0  0  0  0
   21.6514  -20.5758  -13.4206 C   0  0  2  0  0  0  0  0  0  0  0  0
   22.9558  -20.9767  -13.0273 N   0  0  0  0  0  0  0  0  0  0  0  0
   20.5436  -20.8107  -12.4787 C   0  0  0  0  0  0  0  0  0  0  0  0
   20.6275  -21.8373  -11.5489 O   0  0  0  0  0  0  0  0  0  0  0  0
   19.4817  -20.1426  -12.4762 O   0  0  0  0  0  0  0  0  0  0  0  0
  2  1  1  0
  2  3  2  0
  4  5  1  0
  4  2  1  0
  6  5  1  0
  6  7  1  6
  8 14  1  0
  8  6  1  0
  9  8  2  0
 11 10  1  1
 11 13  1  0
 11 12  1  0
 13 14  1  6
 15 13  1  0
 16 15  2  0
 18 20  1  0
 18 17  1  6
 19 18  1  0
 20 22  1  0
 20 21  1  1
 21 15  1  0
 22 23  1  0
 24 22  2  0
M  END
$$$$
