QVV.pdb
     RDKit          3D

 24 23  0  0  1  0  0  0  0  0999 V2000
   26.2439  -25.6825  -17.8959 N   0  0  0  0  0  0  0  0  0  0  0  0
   26.9401  -25.0203  -16.8784 C   0  0  0  0  0  0  0  0  0  0  0  0
   26.4597  -25.0271  -15.7192 O   0  0  0  0  0  0  0  0  0  0  0  0
   28.2152  -24.3071  -17.1077 C   0  0  0  0  0  0  0  0  0  0  0  0
   28.2103  -23.0149  -16.2689 C   0  0  0  0  0  0  0  0  0  0  0  0
   27.3251  -21.9965  -16.9201 C   0  0  2  0  0  0  0  0  0  0  0  0
   28.0505  -21.4149  -18.0395 N   0  0  0  0  0  0  0  0  0  0  0  0
   26.7707  -20.9876  -16.0057 C   0  0  0  0  0  0  0  0  0  0  0  0
   27.2231  -19.8372  -15.8820 O   0  0  0  0  0  0  0  0  0  0  0  0
   22.7266  -20.7050  -15.4087 C   0  0  0  0  0  0  0  0  0  0  0  0
   23.8370  -19.7387  -14.9826 C   0  0  2  0  0  0  0  0  0  0  0  0
   24.2713  -18.9064  -16.1864 C   0  0  0  0  0  0  0  0  0  0  0  0
   24.9708  -20.4716  -14.3415 C   0  0  2  0  0  0  0  0  0  0  0  0
   25.6401  -21.3886  -15.2208 N   0  0  0  0  0  0  0  0  0  0  0  0
   24.5493  -21.1980  -13.0720 C   0  0  0  0  0  0  0  0  0  0  0  0
   23.7777  -22.1715  -13.1707 O   0  0  0  0  0  0  0  0  0  0  0  0
   25.3096  -19.0448   -9.4243 C   0  0  0  0  0  0  0  0  0  0  0  0
   25.5057  -20.5608   -9.4443 C   0  0  1  0  0  0  0  0  0  0  0  0
   25.2453  -21.1099   -8.0943 C   0  0  0  0  0  0  0  0  0  0  0  0
   24.5779  -21.1145  -10.5036 C   0  0  2  0  0  0  0  0  0  0  0  0
   25.0044  -20.7780  -11.8158 N   0  0  0  0  0  0  0  0  0  0  0  0
   23.1745  -20.8483  -10.1443 C   0  0  0  0  0  0  0  0  0  0  0  0
   22.4423  -21.8002   -9.4491 O   0  0  0  0  0  0  0  0  0  0  0  0
   22.5658  -19.7969  -10.4574 O   0  0  0  0  0  0  0  0  0  0  0  0
  2  1  1  0
  2  3  2  0
  4  5  1  0
  4  2  1  0
  6  5  1  0
  6  7  1  6
  8 14  1  0
  8  6  1  0
  9  8  2  0
 11 10  1  6
 11 13  1  0
 11 12  1  0
 13 14  1  6
 15 13  1  0
 16 15  2  0
 18 20  1  0
 18 17  1  1
 19 18  1  0
 20 22  1  0
 20 21  1  6
 21 15  1  0
 22 23  1  0
 24 22  2  0
M  END
$$$$
