QVV.pdb
     RDKit          3D

 24 23  0  0  1  0  0  0  0  0999 V2000
   13.2823  -12.6530  -15.5756 N   0  0  0  0  0  0  0  0  0  0  0  0
   14.5585  -13.1503  -15.2882 C   0  0  0  0  0  0  0  0  0  0  0  0
   15.2177  -12.6149  -14.3644 O   0  0  0  0  0  0  0  0  0  0  0  0
   15.1692  -14.2759  -16.0278 C   0  0  0  0  0  0  0  0  0  0  0  0
   16.5598  -13.8370  -16.5251 C   0  0  0  0  0  0  0  0  0  0  0  0
   16.4168  -13.0690  -17.8035 C   0  0  2  0  0  0  0  0  0  0  0  0
   16.1075  -14.0127  -18.8671 N   0  0  0  0  0  0  0  0  0  0  0  0
   17.5510  -12.1902  -18.1242 C   0  0  0  0  0  0  0  0  0  0  0  0
   18.4190  -12.4560  -18.9724 O   0  0  0  0  0  0  0  0  0  0  0  0
   17.1701   -8.0522  -17.8183 C   0  0  0  0  0  0  0  0  0  0  0  0
   18.2990   -8.8564  -18.4719 C   0  0  2  0  0  0  0  0  0  0  0  0
   17.8763   -9.2671  -19.8801 C   0  0  0  0  0  0  0  0  0  0  0  0
   18.6940  -10.0190  -17.6198 C   0  0  2  0  0  0  0  0  0  0  0  0
   17.6330  -10.9595  -17.3935 N   0  0  0  0  0  0  0  0  0  0  0  0
   19.2858   -9.5869  -16.2856 C   0  0  0  0  0  0  0  0  0  0  0  0
   18.5098   -9.3240  -15.3467 O   0  0  0  0  0  0  0  0  0  0  0  0
   23.3639   -9.7377  -13.5527 C   0  0  0  0  0  0  0  0  0  0  0  0
   22.7431   -9.9550  -14.9327 C   0  0  1  0  0  0  0  0  0  0  0  0
   22.5499  -11.4045  -15.1643 C   0  0  0  0  0  0  0  0  0  0  0  0
   21.4519   -9.1671  -14.9678 C   0  0  2  0  0  0  0  0  0  0  0  0
   20.6711   -9.4722  -16.1143 N   0  0  0  0  0  0  0  0  0  0  0  0
   21.7097   -7.7488  -14.6656 C   0  0  0  0  0  0  0  0  0  0  0  0
   21.6358   -7.2921  -13.3574 O   0  0  0  0  0  0  0  0  0  0  0  0
   21.9730   -6.8897  -15.5413 O   0  0  0  0  0  0  0  0  0  0  0  0
  2  1  1  0
  2  3  2  0
  4  5  1  0
  4  2  1  0
  6  5  1  0
  6  7  1  6
  8 14  1  0
  8  6  1  0
  9  8  2  0
 11 10  1  1
 11 13  1  0
 11 12  1  0
 13 14  1  1
 15 13  1  0
 16 15  2  0
 18 20  1  0
 18 17  1  1
 19 18  1  0
 20 22  1  0
 20 21  1  6
 21 15  1  0
 22 23  1  0
 24 22  2  0
M  END
$$$$
