QVV.pdb
     RDKit          3D

 24 23  0  0  1  0  0  0  0  0999 V2000
   27.8382  -17.5413  -15.5218 N   0  0  0  0  0  0  0  0  0  0  0  0
   28.6158  -18.0466  -16.5701 C   0  0  0  0  0  0  0  0  0  0  0  0
   29.5664  -17.3507  -17.0021 O   0  0  0  0  0  0  0  0  0  0  0  0
   28.3650  -19.3624  -17.1967 C   0  0  0  0  0  0  0  0  0  0  0  0
   27.1763  -20.0279  -16.4772 C   0  0  0  0  0  0  0  0  0  0  0  0
   27.6807  -20.8618  -15.3394 C   0  0  2  0  0  0  0  0  0  0  0  0
   28.5167  -21.9191  -15.8880 N   0  0  0  0  0  0  0  0  0  0  0  0
   26.6372  -21.3636  -14.4334 C   0  0  0  0  0  0  0  0  0  0  0  0
   25.9944  -22.4094  -14.6240 O   0  0  0  0  0  0  0  0  0  0  0  0
   26.9575  -21.2210  -10.4616 C   0  0  0  0  0  0  0  0  0  0  0  0
   25.6482  -20.5705  -10.9208 C   0  0  2  0  0  0  0  0  0  0  0  0
   24.5309  -20.9452   -9.9505 C   0  0  0  0  0  0  0  0  0  0  0  0
   25.3357  -20.9325  -12.3369 C   0  0  2  0  0  0  0  0  0  0  0  0
   26.3670  -20.5724  -13.2688 N   0  0  0  0  0  0  0  0  0  0  0  0
   24.0046  -20.3597  -12.8028 C   0  0  0  0  0  0  0  0  0  0  0  0
   23.8714  -19.1215  -12.8470 O   0  0  0  0  0  0  0  0  0  0  0  0
   19.9601  -21.1848  -15.3919 C   0  0  0  0  0  0  0  0  0  0  0  0
   21.2507  -21.7677  -14.8159 C   0  0  1  0  0  0  0  0  0  0  0  0
   22.2891  -21.8050  -15.8706 C   0  0  0  0  0  0  0  0  0  0  0  0
   21.6345  -20.9104  -13.6297 C   0  0  2  0  0  0  0  0  0  0  0  0
   22.9439  -21.2005  -13.1625 N   0  0  0  0  0  0  0  0  0  0  0  0
   20.5403  -20.8815  -12.6441 C   0  0  0  0  0  0  0  0  0  0  0  0
   19.6878  -19.7883  -12.5836 O   0  0  0  0  0  0  0  0  0  0  0  0
   20.3351  -21.7946  -11.8086 O   0  0  0  0  0  0  0  0  0  0  0  0
  2  1  1  0
  2  3  2  0
  4  5  1  0
  4  2  1  0
  6  5  1  0
  6  7  1  6
  8 14  1  0
  8  6  1  0
  9  8  2  0
 11 10  1  1
 11 13  1  0
 11 12  1  0
 13 14  1  6
 15 13  1  0
 16 15  2  0
 18 20  1  0
 18 17  1  6
 19 18  1  0
 20 22  1  0
 20 21  1  1
 21 15  1  0
 22 23  1  0
 24 22  2  0
M  END
$$$$
