QVV.pdb
     RDKit          3D

 24 23  0  0  1  0  0  0  0  0999 V2000
   24.7475  -16.6550  -16.8662 N   0  0  0  0  0  0  0  0  0  0  0  0
   23.4538  -16.7652  -17.3885 C   0  0  0  0  0  0  0  0  0  0  0  0
   22.8063  -15.7147  -17.6157 O   0  0  0  0  0  0  0  0  0  0  0  0
   22.8115  -18.0650  -17.6802 C   0  0  0  0  0  0  0  0  0  0  0  0
   23.1552  -19.0462  -16.5433 C   0  0  0  0  0  0  0  0  0  0  0  0
   24.3613  -19.8506  -16.9213 C   0  0  2  0  0  0  0  0  0  0  0  0
   24.0214  -20.6588  -18.0827 N   0  0  0  0  0  0  0  0  0  0  0  0
   24.9469  -20.6351  -15.8244 C   0  0  0  0  0  0  0  0  0  0  0  0
   24.5775  -21.7797  -15.5132 O   0  0  0  0  0  0  0  0  0  0  0  0
   28.7506  -19.3387  -14.0196 C   0  0  0  0  0  0  0  0  0  0  0  0
   28.1270  -20.7369  -14.0847 C   0  0  2  0  0  0  0  0  0  0  0  0
   28.5991  -21.4415  -15.3540 C   0  0  0  0  0  0  0  0  0  0  0  0
   26.6380  -20.6672  -13.9766 C   0  0  2  0  0  0  0  0  0  0  0  0
   26.0058  -20.0112  -15.0864 N   0  0  0  0  0  0  0  0  0  0  0  0
   26.1794  -20.0241  -12.6754 C   0  0  0  0  0  0  0  0  0  0  0  0
   26.1366  -18.7805  -12.6080 O   0  0  0  0  0  0  0  0  0  0  0  0
   23.6001  -20.3776   -8.6151 C   0  0  0  0  0  0  0  0  0  0  0  0
   24.0747  -21.0607   -9.8978 C   0  0  1  0  0  0  0  0  0  0  0  0
   23.0495  -20.8959  -10.9531 C   0  0  0  0  0  0  0  0  0  0  0  0
   25.4092  -20.4466  -10.2602 C   0  0  2  0  0  0  0  0  0  0  0  0
   25.8249  -20.8071  -11.5695 N   0  0  0  0  0  0  0  0  0  0  0  0
   26.3699  -20.6231   -9.1578 C   0  0  0  0  0  0  0  0  0  0  0  0
   26.4270  -19.6927   -8.1299 O   0  0  0  0  0  0  0  0  0  0  0  0
   27.1869  -21.5731   -9.0951 O   0  0  0  0  0  0  0  0  0  0  0  0
  2  1  1  0
  2  3  2  0
  4  5  1  0
  4  2  1  0
  6  5  1  0
  6  7  1  6
  8 14  1  0
  8  6  1  0
  9  8  2  0
 11 10  1  6
 11 13  1  0
 11 12  1  0
 13 14  1  6
 15 13  1  0
 16 15  2  0
 18 20  1  0
 18 17  1  1
 19 18  1  0
 20 22  1  0
 20 21  1  6
 21 15  1  0
 22 23  1  0
 24 22  2  0
M  END
$$$$
