GSR.pdb
     RDKit          3D

 22 21  0  0  1  0  0  0  0  0999 V2000
   20.7160   -8.3807  -16.8049 N   0  0  0  0  0  0  0  0  0  0  0  0
   19.7632   -7.4346  -16.2745 C   0  0  0  0  0  0  0  0  0  0  0  0
   19.6928   -7.6669  -14.7807 C   0  0  0  0  0  0  0  0  0  0  0  0
   18.8945   -8.5167  -14.3129 O   0  0  0  0  0  0  0  0  0  0  0  0
   22.0280   -5.3497  -12.2371 O   0  0  0  0  0  0  0  0  0  0  0  0
   21.7562   -6.6707  -11.8256 C   0  0  0  0  0  0  0  0  0  0  0  0
   20.4464   -7.0757  -12.4572 C   0  0  2  0  0  0  0  0  0  0  0  0
   20.5154   -6.9401  -13.8911 N   0  0  0  0  0  0  0  0  0  0  0  0
   19.3040   -6.3577  -11.8557 C   0  0  0  0  0  0  0  0  0  0  0  0
   18.9911   -5.2079  -12.2643 O   0  0  0  0  0  0  0  0  0  0  0  0
   12.4454  -10.1098   -8.1224 N   0  0  0  0  0  0  0  0  0  0  0  0
   12.0645   -8.7286   -8.1269 C   0  0  0  0  0  0  0  0  0  0  0  0
   10.8322   -8.4607   -7.9162 N   0  0  0  0  0  0  0  0  0  0  0  0
   13.0391   -7.7450   -8.3576 N   0  0  0  0  0  0  0  0  0  0  0  0
   14.3085   -8.1981   -8.9766 C   0  0  0  0  0  0  0  0  0  0  0  0
   15.1748   -7.0154   -9.2290 C   0  0  0  0  0  0  0  0  0  0  0  0
   16.4590   -7.2477   -9.8728 C   0  0  0  0  0  0  0  0  0  0  0  0
   17.3957   -6.1687  -10.2117 C   0  0  2  0  0  0  0  0  0  0  0  0
   18.5565   -6.9397  -10.8277 N   0  0  0  0  0  0  0  0  0  0  0  0
   18.0276   -5.3436   -9.2111 C   0  0  0  0  0  0  0  0  0  0  0  0
   17.3818   -4.3560   -8.7061 O   0  0  0  0  0  0  0  0  0  0  0  0
   19.3044   -5.5205   -8.7123 O   0  0  0  0  0  0  0  0  0  0  0  0
  1  2  1  0
  2  3  1  0
  3  4  2  0
  3  8  1  0
  5  6  1  0
  7  6  1  1
  7  9  1  0
  8  7  1  0
  9 10  2  0
  9 19  1  0
 11 12  1  0
 12 13  2  0
 12 14  1  0
 14 15  1  0
 15 16  1  0
 17 16  1  0
 18 17  1  1
 18 20  1  0
 19 18  1  0
 20 22  1  0
 21 20  2  0
M  END
$$$$
