GSR.pdb
     RDKit          3D

 22 21  0  0  1  0  0  0  0  0999 V2000
   33.1863   -4.3792  -21.6521 N   0  0  0  0  0  0  0  0  0  0  0  0
   31.9404   -4.1418  -20.9626 C   0  0  0  0  0  0  0  0  0  0  0  0
   31.5822   -5.4231  -20.2414 C   0  0  0  0  0  0  0  0  0  0  0  0
   30.8325   -6.2671  -20.7927 O   0  0  0  0  0  0  0  0  0  0  0  0
   32.3993   -8.2393  -16.3846 O   0  0  0  0  0  0  0  0  0  0  0  0
   32.5746   -6.9531  -16.9352 C   0  0  0  0  0  0  0  0  0  0  0  0
   31.7897   -6.9071  -18.2237 C   0  0  2  0  0  0  0  0  0  0  0  0
   32.0786   -5.6931  -18.9464 N   0  0  0  0  0  0  0  0  0  0  0  0
   30.3464   -7.1216  -17.9930 C   0  0  0  0  0  0  0  0  0  0  0  0
   29.6457   -6.2144  -17.4706 O   0  0  0  0  0  0  0  0  0  0  0  0
   24.6505   -8.9102  -23.6308 N   0  0  0  0  0  0  0  0  0  0  0  0
   23.8108   -9.0255  -22.4756 C   0  0  0  0  0  0  0  0  0  0  0  0
   22.5535   -9.1427  -22.6755 N   0  0  0  0  0  0  0  0  0  0  0  0
   24.3901   -9.0056  -21.1971 N   0  0  0  0  0  0  0  0  0  0  0  0
   25.8499   -8.7515  -21.1316 C   0  0  0  0  0  0  0  0  0  0  0  0
   26.2779   -8.7446  -19.7069 C   0  0  0  0  0  0  0  0  0  0  0  0
   27.6913   -8.5355  -19.4305 C   0  0  0  0  0  0  0  0  0  0  0  0
   28.2539   -8.5340  -18.0741 C   0  0  2  0  0  0  0  0  0  0  0  0
   29.7387   -8.3294  -18.3480 N   0  0  0  0  0  0  0  0  0  0  0  0
   28.2223   -9.6940  -17.2171 C   0  0  0  0  0  0  0  0  0  0  0  0
   29.3218  -10.2741  -16.8974 O   0  0  0  0  0  0  0  0  0  0  0  0
   27.0852  -10.2617  -16.6741 O   0  0  0  0  0  0  0  0  0  0  0  0
  1  2  1  0
  2  3  1  0
  3  4  2  0
  3  8  1  0
  5  6  1  0
  7  6  1  1
  7  9  1  0
  8  7  1  0
  9 10  2  0
  9 19  1  0
 11 12  1  0
 12 13  2  0
 12 14  1  0
 14 15  1  0
 15 16  1  0
 17 16  1  0
 18 17  1  6
 18 20  1  0
 19 18  1  0
 20 22  1  0
 21 20  2  0
M  END
$$$$
