GSR.pdb
     RDKit          3D

 22 21  0  0  1  0  0  0  0  0999 V2000
   18.4771  -24.8500   -9.4423 N   0  0  0  0  0  0  0  0  0  0  0  0
   19.0527  -24.9383   -8.1213 C   0  0  0  0  0  0  0  0  0  0  0  0
   17.9164  -25.2136   -7.1604 C   0  0  0  0  0  0  0  0  0  0  0  0
   16.7262  -25.1401   -7.5558 O   0  0  0  0  0  0  0  0  0  0  0  0
   18.3056  -27.7349   -4.2306 O   0  0  0  0  0  0  0  0  0  0  0  0
   17.6559  -26.6067   -3.6892 C   0  0  0  0  0  0  0  0  0  0  0  0
   17.1253  -25.7971   -4.8475 C   0  0  2  0  0  0  0  0  0  0  0  0
   18.1688  -25.5552   -5.8129 N   0  0  0  0  0  0  0  0  0  0  0  0
   16.4534  -24.5635   -4.3903 C   0  0  0  0  0  0  0  0  0  0  0  0
   17.1297  -23.5362   -4.1180 O   0  0  0  0  0  0  0  0  0  0  0  0
   15.3074  -22.4304   -8.1070 N   0  0  0  0  0  0  0  0  0  0  0  0
   14.0356  -22.4540   -8.7665 C   0  0  0  0  0  0  0  0  0  0  0  0
   14.0173  -22.8283   -9.9888 N   0  0  0  0  0  0  0  0  0  0  0  0
   12.8846  -22.0731   -8.0591 N   0  0  0  0  0  0  0  0  0  0  0  0
   13.0289  -21.9082   -6.5921 C   0  0  0  0  0  0  0  0  0  0  0  0
   12.9591  -23.2454   -5.9441 C   0  0  0  0  0  0  0  0  0  0  0  0
   13.0978  -23.2990   -4.4965 C   0  0  0  0  0  0  0  0  0  0  0  0
   14.3932  -23.2224   -3.8093 C   0  0  2  0  0  0  0  0  0  0  0  0
   15.0631  -24.5173   -4.2521 N   0  0  0  0  0  0  0  0  0  0  0  0
   14.5149  -23.2502   -2.3720 C   0  0  0  0  0  0  0  0  0  0  0  0
   14.7362  -24.3662   -1.7777 O   0  0  0  0  0  0  0  0  0  0  0  0
   14.4246  -22.1533   -1.5361 O   0  0  0  0  0  0  0  0  0  0  0  0
  1  2  1  0
  2  3  1  0
  3  4  2  0
  3  8  1  0
  5  6  1  0
  7  6  1  1
  7  9  1  0
  8  7  1  0
  9 10  2  0
  9 19  1  0
 11 12  1  0
 12 13  2  0
 12 14  1  0
 14 15  1  0
 15 16  1  0
 17 16  1  0
 18 17  1  1
 18 20  1  0
 19 18  1  0
 20 22  1  0
 21 20  2  0
M  END
$$$$
