GSR.pdb
     RDKit          3D

 22 21  0  0  1  0  0  0  0  0999 V2000
   31.2396  -16.7677  -18.0761 N   0  0  0  0  0  0  0  0  0  0  0  0
   30.2067  -17.1833  -18.9951 C   0  0  0  0  0  0  0  0  0  0  0  0
   28.8860  -17.0436  -18.2695 C   0  0  0  0  0  0  0  0  0  0  0  0
   28.8653  -16.9073  -17.0208 O   0  0  0  0  0  0  0  0  0  0  0  0
   25.5275  -15.0498  -19.4091 O   0  0  0  0  0  0  0  0  0  0  0  0
   25.3410  -16.4435  -19.3032 C   0  0  0  0  0  0  0  0  0  0  0  0
   26.3749  -16.9609  -18.3326 C   0  0  2  0  0  0  0  0  0  0  0  0
   27.6619  -17.0635  -18.9749 N   0  0  0  0  0  0  0  0  0  0  0  0
   25.9403  -18.2174  -17.6887 C   0  0  0  0  0  0  0  0  0  0  0  0
   26.1373  -19.3235  -18.2585 O   0  0  0  0  0  0  0  0  0  0  0  0
   26.5574  -19.7934   -9.2721 N   0  0  0  0  0  0  0  0  0  0  0  0
   25.3664  -20.5267   -9.5829 C   0  0  0  0  0  0  0  0  0  0  0  0
   24.6657  -20.9484   -8.6002 N   0  0  0  0  0  0  0  0  0  0  0  0
   25.0236  -20.7484  -10.9260 N   0  0  0  0  0  0  0  0  0  0  0  0
   25.4703  -19.7270  -11.9043 C   0  0  0  0  0  0  0  0  0  0  0  0
   24.9540  -20.0873  -13.2522 C   0  0  0  0  0  0  0  0  0  0  0  0
   25.3661  -19.2570  -14.3740 C   0  0  0  0  0  0  0  0  0  0  0  0
   24.9514  -19.5132  -15.7592 C   0  0  2  0  0  0  0  0  0  0  0  0
   25.3054  -18.1987  -16.4434 N   0  0  0  0  0  0  0  0  0  0  0  0
   23.5749  -19.7314  -16.1319 C   0  0  0  0  0  0  0  0  0  0  0  0
   22.8126  -18.7228  -16.3540 O   0  0  0  0  0  0  0  0  0  0  0  0
   22.9708  -20.9642  -16.2913 O   0  0  0  0  0  0  0  0  0  0  0  0
  1  2  1  0
  2  3  1  0
  3  4  2  0
  3  8  1  0
  5  6  1  0
  7  6  1  6
  7  9  1  0
  8  7  1  0
  9 10  2  0
  9 19  1  0
 11 12  1  0
 12 13  2  0
 12 14  1  0
 14 15  1  0
 15 16  1  0
 17 16  1  0
 18 17  1  1
 18 20  1  0
 19 18  1  0
 20 22  1  0
 21 20  2  0
M  END
$$$$
