GSR.pdb
     RDKit          3D

 22 21  0  0  1  0  0  0  0  0999 V2000
   25.0095  -24.9083  -14.5338 N   0  0  0  0  0  0  0  0  0  0  0  0
   24.6802  -23.7333  -15.3053 C   0  0  0  0  0  0  0  0  0  0  0  0
   23.7507  -22.8926  -14.4571 C   0  0  0  0  0  0  0  0  0  0  0  0
   23.2824  -23.3565  -13.3876 O   0  0  0  0  0  0  0  0  0  0  0  0
   22.1371  -19.3163  -15.9207 O   0  0  0  0  0  0  0  0  0  0  0  0
   22.5672  -19.3190  -14.5779 C   0  0  0  0  0  0  0  0  0  0  0  0
   22.4978  -20.7453  -14.0886 C   0  0  2  0  0  0  0  0  0  0  0  0
   23.3944  -21.5822  -14.8471 N   0  0  0  0  0  0  0  0  0  0  0  0
   21.1089  -21.2479  -14.0630 C   0  0  0  0  0  0  0  0  0  0  0  0
   20.6668  -21.9398  -15.0184 O   0  0  0  0  0  0  0  0  0  0  0  0
   19.4317  -24.5767   -7.9677 N   0  0  0  0  0  0  0  0  0  0  0  0
   18.7684  -25.4502   -8.8897 C   0  0  0  0  0  0  0  0  0  0  0  0
   19.0307  -26.6986   -8.8050 N   0  0  0  0  0  0  0  0  0  0  0  0
   17.8758  -24.9115   -9.8297 N   0  0  0  0  0  0  0  0  0  0  0  0
   17.6827  -23.4413   -9.7980 C   0  0  0  0  0  0  0  0  0  0  0  0
   17.6473  -22.9260  -11.1931 C   0  0  0  0  0  0  0  0  0  0  0  0
   18.7387  -22.0628  -11.6189 C   0  0  0  0  0  0  0  0  0  0  0  0
   18.8444  -21.5097  -12.9750 C   0  0  2  0  0  0  0  0  0  0  0  0
   20.2669  -20.9639  -12.9839 N   0  0  0  0  0  0  0  0  0  0  0  0
   18.0486  -20.3936  -13.4248 C   0  0  0  0  0  0  0  0  0  0  0  0
   16.7874  -20.5487  -13.6062 O   0  0  0  0  0  0  0  0  0  0  0  0
   18.5214  -19.1203  -13.6806 O   0  0  0  0  0  0  0  0  0  0  0  0
  1  2  1  0
  2  3  1  0
  3  4  2  0
  3  8  1  0
  5  6  1  0
  7  6  1  6
  7  9  1  0
  8  7  1  0
  9 10  2  0
  9 19  1  0
 11 12  1  0
 12 13  2  0
 12 14  1  0
 14 15  1  0
 15 16  1  0
 17 16  1  0
 18 17  1  1
 18 20  1  0
 19 18  1  0
 20 22  1  0
 21 20  2  0
M  END
$$$$
