GSR.pdb
     RDKit          3D

 22 21  0  0  1  0  0  0  0  0999 V2000
   24.6802  -17.6011  -18.3500 N   0  0  0  0  0  0  0  0  0  0  0  0
   25.9560  -17.6692  -17.6779 C   0  0  0  0  0  0  0  0  0  0  0  0
   25.8793  -18.8193  -16.6973 C   0  0  0  0  0  0  0  0  0  0  0  0
   24.7914  -19.4213  -16.5173 O   0  0  0  0  0  0  0  0  0  0  0  0
   29.1596  -19.7743  -14.2610 O   0  0  0  0  0  0  0  0  0  0  0  0
   28.3948  -20.8379  -14.7826 C   0  0  0  0  0  0  0  0  0  0  0  0
   26.9985  -20.3133  -15.0146 C   0  0  2  0  0  0  0  0  0  0  0  0
   27.0182  -19.2348  -15.9717 N   0  0  0  0  0  0  0  0  0  0  0  0
   26.3298  -19.9582  -13.7462 C   0  0  0  0  0  0  0  0  0  0  0  0
   26.3408  -18.7676  -13.3348 O   0  0  0  0  0  0  0  0  0  0  0  0
   18.6387  -21.3035  -11.1544 N   0  0  0  0  0  0  0  0  0  0  0  0
   19.4066  -22.1346  -12.0334 C   0  0  0  0  0  0  0  0  0  0  0  0
   18.9570  -23.3075  -12.2711 N   0  0  0  0  0  0  0  0  0  0  0  0
   20.5972  -21.6380  -12.5869 N   0  0  0  0  0  0  0  0  0  0  0  0
   20.9941  -20.2652  -12.1899 C   0  0  0  0  0  0  0  0  0  0  0  0
   22.3090  -20.3214  -11.4963 C   0  0  0  0  0  0  0  0  0  0  0  0
   23.4982  -20.4733  -12.3212 C   0  0  0  0  0  0  0  0  0  0  0  0
   24.8587  -20.5170  -11.7704 C   0  0  2  0  0  0  0  0  0  0  0  0
   25.6784  -20.9334  -12.9853 N   0  0  0  0  0  0  0  0  0  0  0  0
   25.2564  -21.4585  -10.7522 C   0  0  0  0  0  0  0  0  0  0  0  0
   25.6147  -22.6434  -11.0920 O   0  0  0  0  0  0  0  0  0  0  0  0
   25.3036  -21.2027   -9.3948 O   0  0  0  0  0  0  0  0  0  0  0  0
  1  2  1  0
  2  3  1  0
  3  4  2  0
  3  8  1  0
  5  6  1  0
  7  6  1  1
  7  9  1  0
  8  7  1  0
  9 10  2  0
  9 19  1  0
 11 12  1  0
 12 13  2  0
 12 14  1  0
 14 15  1  0
 15 16  1  0
 17 16  1  0
 18 17  1  6
 18 20  1  0
 19 18  1  0
 20 22  1  0
 21 20  2  0
M  END
$$$$
