GSR.pdb
     RDKit          3D

 22 21  0  0  1  0  0  0  0  0999 V2000
   26.0818  -15.1621  -18.0758 N   0  0  0  0  0  0  0  0  0  0  0  0
   26.5190  -13.8107  -18.3343 C   0  0  0  0  0  0  0  0  0  0  0  0
   25.8827  -12.9301  -17.2808 C   0  0  0  0  0  0  0  0  0  0  0  0
   24.7017  -13.1453  -16.9102 O   0  0  0  0  0  0  0  0  0  0  0  0
   27.8253   -9.4501  -16.1258 O   0  0  0  0  0  0  0  0  0  0  0  0
   27.0591  -10.0765  -15.1214 C   0  0  0  0  0  0  0  0  0  0  0  0
   25.9946  -10.8924  -15.8141 C   0  0  2  0  0  0  0  0  0  0  0  0
   26.5968  -11.8590  -16.6986 N   0  0  0  0  0  0  0  0  0  0  0  0
   24.9938  -10.0336  -16.4797 C   0  0  0  0  0  0  0  0  0  0  0  0
   25.1622   -9.6720  -17.6746 O   0  0  0  0  0  0  0  0  0  0  0  0
   17.0977  -11.7672  -17.7699 N   0  0  0  0  0  0  0  0  0  0  0  0
   17.1697  -10.5206  -18.4726 C   0  0  0  0  0  0  0  0  0  0  0  0
   16.1605  -10.1912  -19.1849 N   0  0  0  0  0  0  0  0  0  0  0  0
   18.3217   -9.7272  -18.3534 N   0  0  0  0  0  0  0  0  0  0  0  0
   19.4094  -10.2575  -17.4958 C   0  0  0  0  0  0  0  0  0  0  0  0
   20.5134   -9.2620  -17.4409 C   0  0  0  0  0  0  0  0  0  0  0  0
   21.6883   -9.6036  -16.6530 C   0  0  0  0  0  0  0  0  0  0  0  0
   22.8430   -8.7092  -16.5017 C   0  0  2  0  0  0  0  0  0  0  0  0
   23.8501   -9.6096  -15.7969 N   0  0  0  0  0  0  0  0  0  0  0  0
   22.8084   -7.5260  -15.6770 C   0  0  0  0  0  0  0  0  0  0  0  0
   23.0468   -7.6245  -14.4196 O   0  0  0  0  0  0  0  0  0  0  0  0
   22.5449   -6.2440  -16.1210 O   0  0  0  0  0  0  0  0  0  0  0  0
  1  2  1  0
  2  3  1  0
  3  4  2  0
  3  8  1  0
  5  6  1  0
  7  6  1  6
  7  9  1  0
  8  7  1  0
  9 10  2  0
  9 19  1  0
 11 12  1  0
 12 13  2  0
 12 14  1  0
 14 15  1  0
 15 16  1  0
 17 16  1  0
 18 17  1  1
 18 20  1  0
 19 18  1  0
 20 22  1  0
 21 20  2  0
M  END
$$$$
