GSR.pdb
     RDKit          3D

 22 21  0  0  1  0  0  0  0  0999 V2000
   23.5657  -20.5945  -15.3182 N   0  0  0  0  0  0  0  0  0  0  0  0
   22.6229  -20.7691  -14.2389 C   0  0  0  0  0  0  0  0  0  0  0  0
   21.3362  -20.0935  -14.6611 C   0  0  0  0  0  0  0  0  0  0  0  0
   21.0152  -20.0539  -15.8751 O   0  0  0  0  0  0  0  0  0  0  0  0
   16.9233  -18.8471  -13.4525 O   0  0  0  0  0  0  0  0  0  0  0  0
   18.1895  -19.2228  -12.9586 C   0  0  0  0  0  0  0  0  0  0  0  0
   19.1983  -18.9265  -14.0418 C   0  0  2  0  0  0  0  0  0  0  0  0
   20.4787  -19.4997  -13.7081 N   0  0  0  0  0  0  0  0  0  0  0  0
   19.2650  -17.4827  -14.3471 C   0  0  0  0  0  0  0  0  0  0  0  0
   19.9230  -16.7068  -13.6041 O   0  0  0  0  0  0  0  0  0  0  0  0
   18.1892  -14.3942  -22.3418 N   0  0  0  0  0  0  0  0  0  0  0  0
   18.6148  -13.2026  -21.6696 C   0  0  0  0  0  0  0  0  0  0  0  0
   18.7679  -12.1519  -22.3818 N   0  0  0  0  0  0  0  0  0  0  0  0
   18.8420  -13.2356  -20.2847 N   0  0  0  0  0  0  0  0  0  0  0  0
   18.6531  -14.5429  -19.6101 C   0  0  0  0  0  0  0  0  0  0  0  0
   18.8818  -14.3732  -18.1500 C   0  0  0  0  0  0  0  0  0  0  0  0
   18.6998  -15.5409  -17.3008 C   0  0  0  0  0  0  0  0  0  0  0  0
   18.8064  -15.4952  -15.8370 C   0  0  2  0  0  0  0  0  0  0  0  0
   18.6011  -16.9569  -15.4592 N   0  0  0  0  0  0  0  0  0  0  0  0
   17.8566  -14.7928  -15.0089 C   0  0  0  0  0  0  0  0  0  0  0  0
   16.7551  -15.3663  -14.6843 O   0  0  0  0  0  0  0  0  0  0  0  0
   18.0217  -13.5185  -14.4997 O   0  0  0  0  0  0  0  0  0  0  0  0
  1  2  1  0
  2  3  1  0
  3  4  2  0
  3  8  1  0
  5  6  1  0
  7  6  1  1
  7  9  1  0
  8  7  1  0
  9 10  2  0
  9 19  1  0
 11 12  1  0
 12 13  2  0
 12 14  1  0
 14 15  1  0
 15 16  1  0
 17 16  1  0
 18 17  1  6
 18 20  1  0
 19 18  1  0
 20 22  1  0
 21 20  2  0
M  END
$$$$
