GSR.pdb
     RDKit          3D

 22 21  0  0  1  0  0  0  0  0999 V2000
   30.2310  -24.0470  -17.8626 N   0  0  0  0  0  0  0  0  0  0  0  0
   29.3259  -22.9992  -18.2717 C   0  0  0  0  0  0  0  0  0  0  0  0
   28.9733  -22.2088  -17.0303 C   0  0  0  0  0  0  0  0  0  0  0  0
   29.1326  -22.7187  -15.8932 O   0  0  0  0  0  0  0  0  0  0  0  0
   27.0187  -18.5394  -17.3881 O   0  0  0  0  0  0  0  0  0  0  0  0
   27.9451  -18.6623  -16.3323 C   0  0  0  0  0  0  0  0  0  0  0  0
   28.0320  -20.1279  -15.9815 C   0  0  2  0  0  0  0  0  0  0  0  0
   28.4629  -20.8947  -17.1242 N   0  0  0  0  0  0  0  0  0  0  0  0
   26.7746  -20.6231  -15.3848 C   0  0  0  0  0  0  0  0  0  0  0  0
   25.9645  -21.2941  -16.0779 O   0  0  0  0  0  0  0  0  0  0  0  0
   22.6782  -20.0774   -7.6856 N   0  0  0  0  0  0  0  0  0  0  0  0
   23.1478  -21.4170   -7.8804 C   0  0  0  0  0  0  0  0  0  0  0  0
   22.5304  -22.3494   -7.2608 N   0  0  0  0  0  0  0  0  0  0  0  0
   24.2442  -21.6474   -8.7262 N   0  0  0  0  0  0  0  0  0  0  0  0
   24.6380  -20.5342   -9.6238 C   0  0  0  0  0  0  0  0  0  0  0  0
   24.3314  -20.9123  -11.0295 C   0  0  0  0  0  0  0  0  0  0  0  0
   25.3701  -20.6967  -12.0256 C   0  0  0  0  0  0  0  0  0  0  0  0
   25.1437  -20.8455  -13.4688 C   0  0  2  0  0  0  0  0  0  0  0  0
   26.4647  -20.3549  -14.0483 N   0  0  0  0  0  0  0  0  0  0  0  0
   24.1525  -20.0796  -14.1843 C   0  0  0  0  0  0  0  0  0  0  0  0
   24.4633  -18.9268  -14.6557 O   0  0  0  0  0  0  0  0  0  0  0  0
   22.8533  -20.4797  -14.4339 O   0  0  0  0  0  0  0  0  0  0  0  0
  1  2  1  0
  2  3  1  0
  3  4  2  0
  3  8  1  0
  5  6  1  0
  7  6  1  6
  7  9  1  0
  8  7  1  0
  9 10  2  0
  9 19  1  0
 11 12  1  0
 12 13  2  0
 12 14  1  0
 14 15  1  0
 15 16  1  0
 17 16  1  0
 18 17  1  1
 18 20  1  0
 19 18  1  0
 20 22  1  0
 21 20  2  0
M  END
$$$$
