GSR.pdb
     RDKit          3D

 22 21  0  0  1  0  0  0  0  0999 V2000
   28.4326  -20.6615  -17.6699 N   0  0  0  0  0  0  0  0  0  0  0  0
   28.7145  -19.7063  -16.6247 C   0  0  0  0  0  0  0  0  0  0  0  0
   28.4275  -20.3936  -15.3073 C   0  0  0  0  0  0  0  0  0  0  0  0
   27.6691  -21.3945  -15.2718 O   0  0  0  0  0  0  0  0  0  0  0  0
   29.5344  -20.8845  -10.6471 O   0  0  0  0  0  0  0  0  0  0  0  0
   29.7753  -20.1311  -11.8143 C   0  0  0  0  0  0  0  0  0  0  0  0
   28.7017  -20.4945  -12.8112 C   0  0  2  0  0  0  0  0  0  0  0  0
   29.0011  -19.9279  -14.1030 N   0  0  0  0  0  0  0  0  0  0  0  0
   27.3546  -20.1442  -12.3163 C   0  0  0  0  0  0  0  0  0  0  0  0
   26.9380  -18.9580  -12.3959 O   0  0  0  0  0  0  0  0  0  0  0  0
   20.7620  -22.2048  -14.6177 N   0  0  0  0  0  0  0  0  0  0  0  0
   20.3040  -20.9526  -14.0929 C   0  0  0  0  0  0  0  0  0  0  0  0
   19.0508  -20.7105  -14.1666 N   0  0  0  0  0  0  0  0  0  0  0  0
   21.2303  -20.0602  -13.5306 N   0  0  0  0  0  0  0  0  0  0  0  0
   22.6441  -20.5066  -13.4894 C   0  0  0  0  0  0  0  0  0  0  0  0
   22.8832  -21.2452  -12.2204 C   0  0  0  0  0  0  0  0  0  0  0  0
   24.2564  -21.6054  -11.9005 C   0  0  0  0  0  0  0  0  0  0  0  0
   25.1736  -20.7155  -11.1773 C   0  0  2  0  0  0  0  0  0  0  0  0
   26.5252  -21.1187  -11.7535 N   0  0  0  0  0  0  0  0  0  0  0  0
   25.3736  -20.7963   -9.7509 C   0  0  0  0  0  0  0  0  0  0  0  0
   24.6923  -20.0360   -8.9728 O   0  0  0  0  0  0  0  0  0  0  0  0
   26.2509  -21.6499   -9.1091 O   0  0  0  0  0  0  0  0  0  0  0  0
  1  2  1  0
  2  3  1  0
  3  4  2  0
  3  8  1  0
  5  6  1  0
  7  6  1  1
  7  9  1  0
  8  7  1  0
  9 10  2  0
  9 19  1  0
 11 12  1  0
 12 13  2  0
 12 14  1  0
 14 15  1  0
 15 16  1  0
 17 16  1  0
 18 17  1  6
 18 20  1  0
 19 18  1  0
 20 22  1  0
 21 20  2  0
M  END
$$$$
