GSR.pdb
     RDKit          3D

 22 21  0  0  1  0  0  0  0  0999 V2000
   22.4126  -14.9575  -16.0923 N   0  0  0  0  0  0  0  0  0  0  0  0
   23.8292  -15.2041  -15.9632 C   0  0  0  0  0  0  0  0  0  0  0  0
   24.0148  -16.7052  -15.9142 C   0  0  0  0  0  0  0  0  0  0  0  0
   23.0140  -17.4642  -15.9383 O   0  0  0  0  0  0  0  0  0  0  0  0
   27.8637  -18.4521  -16.1340 O   0  0  0  0  0  0  0  0  0  0  0  0
   26.7243  -19.0305  -16.7300 C   0  0  0  0  0  0  0  0  0  0  0  0
   25.5427  -18.6997  -15.8508 C   0  0  2  0  0  0  0  0  0  0  0  0
   25.3046  -17.2775  -15.8412 N   0  0  0  0  0  0  0  0  0  0  0  0
   25.6876  -19.2780  -14.4992 C   0  0  0  0  0  0  0  0  0  0  0  0
   26.2406  -18.6154  -13.5815 O   0  0  0  0  0  0  0  0  0  0  0  0
   22.2955  -21.6134   -7.8383 N   0  0  0  0  0  0  0  0  0  0  0  0
   23.6399  -21.1610   -7.6360 C   0  0  0  0  0  0  0  0  0  0  0  0
   24.2092  -21.4897   -6.5394 N   0  0  0  0  0  0  0  0  0  0  0  0
   24.2654  -20.3910   -8.6292 N   0  0  0  0  0  0  0  0  0  0  0  0
   23.4339  -20.0067   -9.7958 C   0  0  0  0  0  0  0  0  0  0  0  0
   23.6290  -21.0054  -10.8809 C   0  0  0  0  0  0  0  0  0  0  0  0
   24.1594  -20.5260  -12.1484 C   0  0  0  0  0  0  0  0  0  0  0  0
   25.3333  -21.1166  -12.8038 C   0  0  2  0  0  0  0  0  0  0  0  0
   25.2167  -20.5640  -14.2189 N   0  0  0  0  0  0  0  0  0  0  0  0
   25.4803  -22.5377  -13.0041 C   0  0  0  0  0  0  0  0  0  0  0  0
   25.9447  -23.2654  -12.0542 O   0  0  0  0  0  0  0  0  0  0  0  0
   25.1492  -23.2257  -14.1562 O   0  0  0  0  0  0  0  0  0  0  0  0
  1  2  1  0
  2  3  1  0
  3  4  2  0
  3  8  1  0
  5  6  1  0
  7  6  1  6
  7  9  1  0
  8  7  1  0
  9 10  2  0
  9 19  1  0
 11 12  1  0
 12 13  2  0
 12 14  1  0
 14 15  1  0
 15 16  1  0
 17 16  1  0
 18 17  1  1
 18 20  1  0
 19 18  1  0
 20 22  1  0
 21 20  2  0
M  END
$$$$
