GSR.pdb
     RDKit          3D

 22 21  0  0  1  0  0  0  0  0999 V2000
   29.7197  -22.4360  -16.7381 N   0  0  0  0  0  0  0  0  0  0  0  0
   28.9996  -21.3015  -17.2659 C   0  0  0  0  0  0  0  0  0  0  0  0
   28.0489  -20.8378  -16.1836 C   0  0  0  0  0  0  0  0  0  0  0  0
   27.7480  -21.6081  -15.2378 O   0  0  0  0  0  0  0  0  0  0  0  0
   26.3561  -17.0181  -16.3766 O   0  0  0  0  0  0  0  0  0  0  0  0
   26.6629  -17.5489  -15.1068 C   0  0  0  0  0  0  0  0  0  0  0  0
   26.5696  -19.0515  -15.2155 C   0  0  2  0  0  0  0  0  0  0  0  0
   27.4861  -19.5422  -16.2148 N   0  0  0  0  0  0  0  0  0  0  0  0
   25.1778  -19.4993  -15.4274 C   0  0  0  0  0  0  0  0  0  0  0  0
   24.7651  -19.7601  -16.5887 O   0  0  0  0  0  0  0  0  0  0  0  0
   18.1756  -20.2169  -14.0010 N   0  0  0  0  0  0  0  0  0  0  0  0
   18.1162  -21.2446  -13.0043 C   0  0  0  0  0  0  0  0  0  0  0  0
   17.1998  -22.1275  -13.1280 N   0  0  0  0  0  0  0  0  0  0  0  0
   19.0472  -21.2411  -11.9537 N   0  0  0  0  0  0  0  0  0  0  0  0
   20.2999  -20.4790  -12.1768 C   0  0  0  0  0  0  0  0  0  0  0  0
   21.2180  -21.2903  -13.0204 C   0  0  0  0  0  0  0  0  0  0  0  0
   22.5310  -20.7343  -13.3117 C   0  0  0  0  0  0  0  0  0  0  0  0
   22.8718  -20.1063  -14.5945 C   0  0  2  0  0  0  0  0  0  0  0  0
   24.3007  -19.6387  -14.3479 N   0  0  0  0  0  0  0  0  0  0  0  0
   22.2060  -18.9235  -15.0834 C   0  0  0  0  0  0  0  0  0  0  0  0
   22.5989  -17.7674  -14.6874 O   0  0  0  0  0  0  0  0  0  0  0  0
   21.1530  -18.9055  -15.9784 O   0  0  0  0  0  0  0  0  0  0  0  0
  1  2  1  0
  2  3  1  0
  3  4  2  0
  3  8  1  0
  5  6  1  0
  7  6  1  6
  7  9  1  0
  8  7  1  0
  9 10  2  0
  9 19  1  0
 11 12  1  0
 12 13  2  0
 12 14  1  0
 14 15  1  0
 15 16  1  0
 17 16  1  0
 18 17  1  1
 18 20  1  0
 19 18  1  0
 20 22  1  0
 21 20  2  0
M  END
$$$$
