GSR.pdb
     RDKit          3D

 22 21  0  0  1  0  0  0  0  0999 V2000
   23.5111  -13.2457  -19.8962 N   0  0  0  0  0  0  0  0  0  0  0  0
   24.1140  -11.9827  -20.2504 C   0  0  0  0  0  0  0  0  0  0  0  0
   23.9984  -11.0817  -19.0401 C   0  0  0  0  0  0  0  0  0  0  0  0
   23.4409  -11.5003  -17.9949 O   0  0  0  0  0  0  0  0  0  0  0  0
   25.0028   -6.7587  -17.0854 O   0  0  0  0  0  0  0  0  0  0  0  0
   25.1608   -7.5879  -18.2149 C   0  0  0  0  0  0  0  0  0  0  0  0
   24.3346   -8.8289  -17.9781 C   0  0  2  0  0  0  0  0  0  0  0  0
   24.5100   -9.7649  -19.0610 N   0  0  0  0  0  0  0  0  0  0  0  0
   22.9191   -8.5010  -17.7113 C   0  0  0  0  0  0  0  0  0  0  0  0
   22.1363   -8.2458  -18.6648 O   0  0  0  0  0  0  0  0  0  0  0  0
   17.5685  -13.8563  -15.1932 N   0  0  0  0  0  0  0  0  0  0  0  0
   16.6787  -12.7342  -15.2411 C   0  0  0  0  0  0  0  0  0  0  0  0
   15.4256  -12.9776  -15.1704 N   0  0  0  0  0  0  0  0  0  0  0  0
   17.2075  -11.4394  -15.3613 N   0  0  0  0  0  0  0  0  0  0  0  0
   18.6771  -11.3336  -15.5312 C   0  0  0  0  0  0  0  0  0  0  0  0
   19.0401   -9.9062  -15.7407 C   0  0  0  0  0  0  0  0  0  0  0  0
   20.4470   -9.5926  -15.9402 C   0  0  0  0  0  0  0  0  0  0  0  0
   20.9433   -8.2284  -16.1614 C   0  0  2  0  0  0  0  0  0  0  0  0
   22.4286   -8.4675  -16.4028 N   0  0  0  0  0  0  0  0  0  0  0  0
   20.9239   -7.2166  -15.1332 C   0  0  0  0  0  0  0  0  0  0  0  0
   22.0010   -6.9504  -14.4877 O   0  0  0  0  0  0  0  0  0  0  0  0
   19.8233   -6.4667  -14.7638 O   0  0  0  0  0  0  0  0  0  0  0  0
  1  2  1  0
  2  3  1  0
  3  4  2  0
  3  8  1  0
  5  6  1  0
  7  6  1  6
  7  9  1  0
  8  7  1  0
  9 10  2  0
  9 19  1  0
 11 12  1  0
 12 13  2  0
 12 14  1  0
 14 15  1  0
 15 16  1  0
 17 16  1  0
 18 17  1  1
 18 20  1  0
 19 18  1  0
 20 22  1  0
 21 20  2  0
M  END
$$$$
