GSR.pdb
     RDKit          3D

 22 21  0  0  1  0  0  0  0  0999 V2000
   20.9295  -15.3993  -17.5412 N   0  0  0  0  0  0  0  0  0  0  0  0
   20.7025  -14.1592  -18.2445 C   0  0  0  0  0  0  0  0  0  0  0  0
   20.8928  -13.0407  -17.2430 C   0  0  0  0  0  0  0  0  0  0  0  0
   19.9193  -12.6346  -16.5605 O   0  0  0  0  0  0  0  0  0  0  0  0
   24.0171  -10.2657  -14.8243 O   0  0  0  0  0  0  0  0  0  0  0  0
   23.8722  -11.2092  -15.8621 C   0  0  0  0  0  0  0  0  0  0  0  0
   22.3934  -11.3651  -16.1218 C   0  0  2  0  0  0  0  0  0  0  0  0
   22.1566  -12.4368  -17.0572 N   0  0  0  0  0  0  0  0  0  0  0  0
   21.7712  -10.0876  -16.5256 C   0  0  0  0  0  0  0  0  0  0  0  0
   21.8760   -9.6779  -17.7122 O   0  0  0  0  0  0  0  0  0  0  0  0
   13.7877   -8.4551  -14.8488 N   0  0  0  0  0  0  0  0  0  0  0  0
   14.1201   -7.2010  -15.4568 C   0  0  0  0  0  0  0  0  0  0  0  0
   13.1550   -6.4065  -15.7246 N   0  0  0  0  0  0  0  0  0  0  0  0
   15.4643   -6.9010  -15.7284 N   0  0  0  0  0  0  0  0  0  0  0  0
   16.4520   -7.9766  -15.4690 C   0  0  0  0  0  0  0  0  0  0  0  0
   17.7906   -7.5304  -15.9401 C   0  0  0  0  0  0  0  0  0  0  0  0
   18.9185   -8.4177  -15.6988 C   0  0  0  0  0  0  0  0  0  0  0  0
   20.2982   -8.0855  -16.0760 C   0  0  2  0  0  0  0  0  0  0  0  0
   21.0608   -9.3161  -15.6013 N   0  0  0  0  0  0  0  0  0  0  0  0
   21.0234   -6.9868  -15.4860 C   0  0  0  0  0  0  0  0  0  0  0  0
   21.8089   -7.2072  -14.4950 O   0  0  0  0  0  0  0  0  0  0  0  0
   20.9655   -5.6698  -15.9012 O   0  0  0  0  0  0  0  0  0  0  0  0
  1  2  1  0
  2  3  1  0
  3  4  2  0
  3  8  1  0
  5  6  1  0
  7  6  1  6
  7  9  1  0
  8  7  1  0
  9 10  2  0
  9 19  1  0
 11 12  1  0
 12 13  2  0
 12 14  1  0
 14 15  1  0
 15 16  1  0
 17 16  1  0
 18 17  1  1
 18 20  1  0
 19 18  1  0
 20 22  1  0
 21 20  2  0
M  END
$$$$
