PIL.pdb
     RDKit          3D

 24 24  0  0  1  0  0  0  0  0999 V2000
   21.3818  -15.8408  -16.0112 N   0  0  0  0  0  0  0  0  0  0  0  0
   22.0312  -17.1060  -16.2954 C   0  0  0  0  0  0  0  0  0  0  0  0
   21.5444  -17.5528  -17.6389 C   0  0  0  0  0  0  0  0  0  0  0  0
   20.5356  -16.5032  -18.0414 C   0  0  0  0  0  0  0  0  0  0  0  0
   21.0195  -15.2894  -17.2938 C   0  0  1  0  0  0  0  0  0  0  0  0
   20.0397  -14.2051  -17.2147 C   0  0  0  0  0  0  0  0  0  0  0  0
   19.6961  -13.6411  -18.2850 O   0  0  0  0  0  0  0  0  0  0  0  0
   16.2287  -15.4658  -15.0741 C   0  0  0  0  0  0  0  0  0  0  0  0
   16.5955  -14.3445  -16.0030 C   0  0  0  0  0  0  0  0  0  0  0  0
   17.2390  -13.1858  -15.2209 C   0  0  2  0  0  0  0  0  0  0  0  0
   16.1588  -12.1662  -15.0338 C   0  0  0  0  0  0  0  0  0  0  0  0
   18.4465  -12.6957  -15.9834 C   0  0  2  0  0  0  0  0  0  0  0  0
   19.4680  -13.7694  -15.9907 N   0  0  0  0  0  0  0  0  0  0  0  0
   19.0521  -11.4876  -15.3737 C   0  0  0  0  0  0  0  0  0  0  0  0
   19.3174  -11.4373  -14.1271 O   0  0  0  0  0  0  0  0  0  0  0  0
   22.7758   -9.4587  -15.9059 C   0  0  0  0  0  0  0  0  0  0  0  0
   21.7976   -9.1459  -17.0324 C   0  0  2  0  0  0  0  0  0  0  0  0
   22.5358   -8.2991  -18.0404 C   0  0  0  0  0  0  0  0  0  0  0  0
   20.6657   -8.3569  -16.4540 C   0  0  0  0  0  0  0  0  0  0  0  0
   19.8748   -9.1106  -15.4112 C   0  0  2  0  0  0  0  0  0  0  0  0
   19.3844  -10.3192  -16.0914 N   0  0  0  0  0  0  0  0  0  0  0  0
   18.6970   -8.3623  -14.9238 C   0  0  0  0  0  0  0  0  0  0  0  0
   18.7320   -7.5759  -13.7734 O   0  0  0  0  0  0  0  0  0  0  0  0
   17.5923   -8.3954  -15.5250 O   0  0  0  0  0  0  0  0  0  0  0  0
  1  5  1  0
  2  1  1  0
  2  3  1  0
  3  4  1  0
  4  5  1  0
  5  6  1  1
  6  7  2  0
  8  9  1  0
  9 10  1  0
 10 11  1  6
 10 12  1  0
 12 13  1  1
 12 14  1  0
 13  6  1  0
 14 21  1  0
 15 14  2  0
 17 16  1  1
 17 19  1  0
 18 17  1  0
 20 19  1  6
 20 22  1  0
 21 20  1  0
 22 24  2  0
 22 23  1  0
M  END
$$$$
