PIL.pdb
     RDKit          3D

 24 24  0  0  1  0  0  0  0  0999 V2000
   26.3577  -21.0508  -17.7655 N   0  0  0  0  0  0  0  0  0  0  0  0
   25.7764  -20.2355  -18.8145 C   0  0  0  0  0  0  0  0  0  0  0  0
   25.2100  -19.0167  -18.1549 C   0  0  0  0  0  0  0  0  0  0  0  0
   25.4440  -19.2442  -16.6802 C   0  0  0  0  0  0  0  0  0  0  0  0
   26.6502  -20.1450  -16.6818 C   0  0  1  0  0  0  0  0  0  0  0  0
   26.8994  -20.8141  -15.4041 C   0  0  0  0  0  0  0  0  0  0  0  0
   26.4106  -21.9601  -15.2331 O   0  0  0  0  0  0  0  0  0  0  0  0
   30.8225  -21.4782  -10.7957 C   0  0  0  0  0  0  0  0  0  0  0  0
   29.3900  -21.5050  -11.2452 C   0  0  0  0  0  0  0  0  0  0  0  0
   29.2361  -20.7852  -12.5967 C   0  0  2  0  0  0  0  0  0  0  0  0
   29.6930  -19.3780  -12.3674 C   0  0  0  0  0  0  0  0  0  0  0  0
   27.8048  -20.9185  -13.0586 C   0  0  2  0  0  0  0  0  0  0  0  0
   27.6627  -20.2266  -14.3615 N   0  0  0  0  0  0  0  0  0  0  0  0
   26.8419  -20.3129  -12.1078 C   0  0  0  0  0  0  0  0  0  0  0  0
   26.7935  -19.0510  -11.9283 O   0  0  0  0  0  0  0  0  0  0  0  0
   23.3196  -18.9660  -12.3870 C   0  0  0  0  0  0  0  0  0  0  0  0
   23.3380  -20.4788  -12.1996 C   0  0  2  0  0  0  0  0  0  0  0  0
   21.9565  -20.9856  -12.5358 C   0  0  0  0  0  0  0  0  0  0  0  0
   23.6347  -20.7613  -10.7607 C   0  0  0  0  0  0  0  0  0  0  0  0
   25.0426  -20.3983  -10.3518 C   0  0  2  0  0  0  0  0  0  0  0  0
   25.9162  -21.0502  -11.3395 N   0  0  0  0  0  0  0  0  0  0  0  0
   25.4108  -20.9168   -9.0175 C   0  0  0  0  0  0  0  0  0  0  0  0
   25.0356  -20.2793   -7.8360 O   0  0  0  0  0  0  0  0  0  0  0  0
   26.0872  -21.9680   -8.8757 O   0  0  0  0  0  0  0  0  0  0  0  0
  1  5  1  0
  2  1  1  0
  2  3  1  0
  3  4  1  0
  4  5  1  0
  5  6  1  1
  6  7  2  0
  8  9  1  0
  9 10  1  0
 10 11  1  1
 10 12  1  0
 12 13  1  6
 12 14  1  0
 13  6  1  0
 14 21  1  0
 15 14  2  0
 17 16  1  1
 17 19  1  0
 18 17  1  0
 20 19  1  6
 20 22  1  0
 21 20  1  0
 22 24  2  0
 22 23  1  0
M  END
$$$$
