PIL.pdb
     RDKit          3D

 24 24  0  0  1  0  0  0  0  0999 V2000
   23.7116  -13.0696  -15.3306 N   0  0  0  0  0  0  0  0  0  0  0  0
   24.7365  -14.0909  -15.4280 C   0  0  0  0  0  0  0  0  0  0  0  0
   25.2768  -14.0334  -16.8231 C   0  0  0  0  0  0  0  0  0  0  0  0
   24.4402  -12.9782  -17.5071 C   0  0  0  0  0  0  0  0  0  0  0  0
   24.0225  -12.1033  -16.3554 C   0  0  1  0  0  0  0  0  0  0  0  0
   22.9178  -11.1942  -16.6641 C   0  0  0  0  0  0  0  0  0  0  0  0
   23.1110  -10.3042  -17.5314 O   0  0  0  0  0  0  0  0  0  0  0  0
   19.1315  -13.3899  -17.3753 C   0  0  0  0  0  0  0  0  0  0  0  0
   19.2219  -11.9302  -17.7157 C   0  0  0  0  0  0  0  0  0  0  0  0
   19.2631  -11.0797  -16.4338 C   0  0  2  0  0  0  0  0  0  0  0  0
   18.0422  -10.2140  -16.4753 C   0  0  0  0  0  0  0  0  0  0  0  0
   20.5713  -10.3272  -16.3912 C   0  0  2  0  0  0  0  0  0  0  0  0
   21.6505  -11.2766  -16.0300 N   0  0  0  0  0  0  0  0  0  0  0  0
   20.5657   -9.2335  -15.3903 C   0  0  0  0  0  0  0  0  0  0  0  0
   20.4245   -9.4755  -14.1460 O   0  0  0  0  0  0  0  0  0  0  0  0
   20.5672   -3.7649  -14.6238 C   0  0  0  0  0  0  0  0  0  0  0  0
   21.7520   -4.6152  -14.1797 C   0  0  2  0  0  0  0  0  0  0  0  0
   23.0019   -3.8146  -14.4540 C   0  0  0  0  0  0  0  0  0  0  0  0
   21.7650   -5.8582  -15.0122 C   0  0  0  0  0  0  0  0  0  0  0  0
   20.6543   -6.8239  -14.6731 C   0  0  2  0  0  0  0  0  0  0  0  0
   20.7145   -7.8670  -15.7086 N   0  0  0  0  0  0  0  0  0  0  0  0
   19.3119   -6.2086  -14.7352 C   0  0  0  0  0  0  0  0  0  0  0  0
   18.6434   -5.7520  -13.6004 O   0  0  0  0  0  0  0  0  0  0  0  0
   18.6963   -6.0631  -15.8228 O   0  0  0  0  0  0  0  0  0  0  0  0
  1  5  1  0
  2  1  1  0
  2  3  1  0
  3  4  1  0
  4  5  1  0
  5  6  1  6
  6  7  2  0
  8  9  1  0
  9 10  1  0
 10 11  1  6
 10 12  1  0
 12 13  1  1
 12 14  1  0
 13  6  1  0
 14 21  1  0
 15 14  2  0
 17 16  1  6
 17 19  1  0
 18 17  1  0
 20 19  1  6
 20 22  1  0
 21 20  1  0
 22 24  2  0
 22 23  1  0
M  END
$$$$
