PIL.pdb
     RDKit          3D

 24 24  0  0  1  0  0  0  0  0999 V2000
   35.0987  -26.4136  -20.9841 N   0  0  0  0  0  0  0  0  0  0  0  0
   35.0009  -25.0187  -20.5993 C   0  0  0  0  0  0  0  0  0  0  0  0
   34.3857  -24.9859  -19.2348 C   0  0  0  0  0  0  0  0  0  0  0  0
   34.0812  -26.4325  -18.9248 C   0  0  0  0  0  0  0  0  0  0  0  0
   35.1080  -27.1607  -19.7503 C   0  0  1  0  0  0  0  0  0  0  0  0
   34.8346  -28.5882  -19.9227 C   0  0  0  0  0  0  0  0  0  0  0  0
   33.9698  -28.9250  -20.7714 O   0  0  0  0  0  0  0  0  0  0  0  0
   37.1708  -32.2328  -21.7402 C   0  0  0  0  0  0  0  0  0  0  0  0
   37.3867  -31.3534  -20.5424 C   0  0  0  0  0  0  0  0  0  0  0  0
   36.4925  -31.8053  -19.3742 C   0  0  2  0  0  0  0  0  0  0  0  0
   36.3391  -33.2871  -19.5232 C   0  0  0  0  0  0  0  0  0  0  0  0
   35.1995  -31.0273  -19.4223 C   0  0  2  0  0  0  0  0  0  0  0  0
   35.4999  -29.5967  -19.1776 N   0  0  0  0  0  0  0  0  0  0  0  0
   34.2275  -31.4759  -18.3966 C   0  0  0  0  0  0  0  0  0  0  0  0
   34.4424  -31.2874  -17.1536 O   0  0  0  0  0  0  0  0  0  0  0  0
   28.5220  -31.1732  -17.3572 C   0  0  0  0  0  0  0  0  0  0  0  0
   29.7204  -32.0095  -16.9229 C   0  0  2  0  0  0  0  0  0  0  0  0
   30.0002  -31.6698  -15.4791 C   0  0  0  0  0  0  0  0  0  0  0  0
   30.8910  -31.6088  -17.7639 C   0  0  0  0  0  0  0  0  0  0  0  0
   32.0784  -32.5318  -17.6254 C   0  0  2  0  0  0  0  0  0  0  0  0
   33.0117  -32.1294  -18.6889 N   0  0  0  0  0  0  0  0  0  0  0  0
   31.7366  -33.9531  -17.8442 C   0  0  0  0  0  0  0  0  0  0  0  0
   31.5528  -34.8502  -16.7932 O   0  0  0  0  0  0  0  0  0  0  0  0
   31.5925  -34.4327  -18.9984 O   0  0  0  0  0  0  0  0  0  0  0  0
  1  5  1  0
  2  1  1  0
  2  3  1  0
  3  4  1  0
  4  5  1  0
  5  6  1  6
  6  7  2  0
  8  9  1  0
  9 10  1  0
 10 11  1  6
 10 12  1  0
 12 13  1  1
 12 14  1  0
 13  6  1  0
 14 21  1  0
 15 14  2  0
 17 16  1  6
 17 19  1  0
 18 17  1  0
 20 19  1  6
 20 22  1  0
 21 20  1  0
 22 24  2  0
 22 23  1  0
M  END
$$$$
