PIL.pdb
     RDKit          3D

 24 24  0  0  1  0  0  0  0  0999 V2000
   24.8796  -19.8030  -12.7597 N   0  0  0  0  0  0  0  0  0  0  0  0
   23.9918  -19.8378  -13.9058 C   0  0  0  0  0  0  0  0  0  0  0  0
   23.4136  -21.2175  -13.9664 C   0  0  0  0  0  0  0  0  0  0  0  0
   24.0907  -21.9589  -12.8381 C   0  0  0  0  0  0  0  0  0  0  0  0
   24.4219  -20.8482  -11.8774 C   0  0  1  0  0  0  0  0  0  0  0  0
   25.3929  -21.2180  -10.8466 C   0  0  0  0  0  0  0  0  0  0  0  0
   25.0226  -22.0127   -9.9450 O   0  0  0  0  0  0  0  0  0  0  0  0
   31.4101  -22.0885  -10.1733 C   0  0  0  0  0  0  0  0  0  0  0  0
   30.0417  -22.0239   -9.5585 C   0  0  0  0  0  0  0  0  0  0  0  0
   29.0385  -21.3957  -10.5420 C   0  0  2  0  0  0  0  0  0  0  0  0
   29.6537  -20.1062  -10.9893 C   0  0  0  0  0  0  0  0  0  0  0  0
   27.7037  -21.2538   -9.8508 C   0  0  2  0  0  0  0  0  0  0  0  0
   26.7221  -20.7202  -10.8246 N   0  0  0  0  0  0  0  0  0  0  0  0
   27.7574  -20.3261   -8.6956 C   0  0  0  0  0  0  0  0  0  0  0  0
   27.4200  -19.1017   -8.8134 O   0  0  0  0  0  0  0  0  0  0  0  0
   25.7007  -20.1565   -4.6800 C   0  0  0  0  0  0  0  0  0  0  0  0
   26.7623  -21.2293   -4.8946 C   0  0  2  0  0  0  0  0  0  0  0  0
   26.7730  -22.0979   -3.6602 C   0  0  0  0  0  0  0  0  0  0  0  0
   28.0862  -20.5464   -5.0336 C   0  0  0  0  0  0  0  0  0  0  0  0
   28.2132  -19.7262   -6.2954 C   0  0  2  0  0  0  0  0  0  0  0  0
   28.1701  -20.6983   -7.3986 N   0  0  0  0  0  0  0  0  0  0  0  0
   29.4975  -19.0005   -6.3884 C   0  0  0  0  0  0  0  0  0  0  0  0
   30.6390  -19.5665   -6.9538 O   0  0  0  0  0  0  0  0  0  0  0  0
   29.6302  -17.8253   -5.9592 O   0  0  0  0  0  0  0  0  0  0  0  0
  1  5  1  0
  2  1  1  0
  2  3  1  0
  3  4  1  0
  4  5  1  0
  5  6  1  1
  6  7  2  0
  8  9  1  0
  9 10  1  0
 10 11  1  1
 10 12  1  0
 12 13  1  6
 12 14  1  0
 13  6  1  0
 14 21  1  0
 15 14  2  0
 17 16  1  1
 17 19  1  0
 18 17  1  0
 20 19  1  1
 20 22  1  0
 21 20  1  0
 22 24  2  0
 22 23  1  0
M  END
$$$$
