PIL.pdb
     RDKit          3D

 24 24  0  0  1  0  0  0  0  0999 V2000
   18.6658  -10.8361  -18.4973 N   0  0  0  0  0  0  0  0  0  0  0  0
   17.8955  -11.7456  -19.3235 C   0  0  0  0  0  0  0  0  0  0  0  0
   17.3252  -12.7859  -18.4102 C   0  0  0  0  0  0  0  0  0  0  0  0
   17.8871  -12.4419  -17.0511 C   0  0  0  0  0  0  0  0  0  0  0  0
   18.1224  -10.9595  -17.1669 C   0  0  1  0  0  0  0  0  0  0  0  0
   18.9867  -10.4072  -16.1227 C   0  0  0  0  0  0  0  0  0  0  0  0
   18.5528  -10.3963  -14.9424 O   0  0  0  0  0  0  0  0  0  0  0  0
   23.8181  -12.0194  -15.9044 C   0  0  0  0  0  0  0  0  0  0  0  0
   22.4489  -11.4512  -15.6652 C   0  0  0  0  0  0  0  0  0  0  0  0
   22.5264   -9.9280  -15.4593 C   0  0  2  0  0  0  0  0  0  0  0  0
   23.4371   -9.7170  -14.2900 C   0  0  0  0  0  0  0  0  0  0  0  0
   21.1274   -9.3901  -15.2770 C   0  0  2  0  0  0  0  0  0  0  0  0
   20.2814   -9.8889  -16.3870 N   0  0  0  0  0  0  0  0  0  0  0  0
   21.0815   -7.9084  -15.2927 C   0  0  0  0  0  0  0  0  0  0  0  0
   21.7236   -7.2170  -14.4345 O   0  0  0  0  0  0  0  0  0  0  0  0
   22.0442   -4.5185  -18.3058 C   0  0  0  0  0  0  0  0  0  0  0  0
   20.8663   -5.4448  -18.5853 C   0  0  2  0  0  0  0  0  0  0  0  0
   20.2924   -5.0437  -19.9225 C   0  0  0  0  0  0  0  0  0  0  0  0
   19.8419   -5.2229  -17.5178 C   0  0  0  0  0  0  0  0  0  0  0  0
   20.2871   -5.6804  -16.1490 C   0  0  2  0  0  0  0  0  0  0  0  0
   20.3500   -7.1478  -16.2294 N   0  0  0  0  0  0  0  0  0  0  0  0
   19.3273   -5.3315  -15.0805 C   0  0  0  0  0  0  0  0  0  0  0  0
   19.3545   -4.1042  -14.4200 O   0  0  0  0  0  0  0  0  0  0  0  0
   18.4285   -6.1287  -14.7072 O   0  0  0  0  0  0  0  0  0  0  0  0
  1  5  1  0
  2  1  1  0
  2  3  1  0
  3  4  1  0
  4  5  1  0
  5  6  1  1
  6  7  2  0
  8  9  1  0
  9 10  1  0
 10 11  1  1
 10 12  1  0
 12 13  1  6
 12 14  1  0
 13  6  1  0
 14 21  1  0
 15 14  2  0
 17 16  1  1
 17 19  1  0
 18 17  1  0
 20 19  1  6
 20 22  1  0
 21 20  1  0
 22 24  2  0
 22 23  1  0
M  END
$$$$
