PIL.pdb
     RDKit          3D

 24 24  0  0  1  0  0  0  0  0999 V2000
   21.1978  -13.4895  -16.6201 N   0  0  0  0  0  0  0  0  0  0  0  0
   20.2633  -13.8545  -17.6673 C   0  0  0  0  0  0  0  0  0  0  0  0
   20.5543  -12.9683  -18.8383 C   0  0  0  0  0  0  0  0  0  0  0  0
   21.6467  -12.0466  -18.3501 C   0  0  0  0  0  0  0  0  0  0  0  0
   22.3191  -12.8786  -17.2909 C   0  0  1  0  0  0  0  0  0  0  0  0
   23.1970  -12.1183  -16.4003 C   0  0  0  0  0  0  0  0  0  0  0  0
   22.7385  -11.7586  -15.2858 O   0  0  0  0  0  0  0  0  0  0  0  0
   28.3218  -13.3806  -16.0819 C   0  0  0  0  0  0  0  0  0  0  0  0
   26.9482  -12.9014  -15.7099 C   0  0  0  0  0  0  0  0  0  0  0  0
   26.8098  -11.3942  -15.9886 C   0  0  2  0  0  0  0  0  0  0  0  0
   27.7763  -10.7155  -15.0684 C   0  0  0  0  0  0  0  0  0  0  0  0
   25.3665  -10.9947  -15.7970 C   0  0  2  0  0  0  0  0  0  0  0  0
   24.5314  -11.7744  -16.7411 N   0  0  0  0  0  0  0  0  0  0  0  0
   25.1357   -9.5540  -16.0594 C   0  0  0  0  0  0  0  0  0  0  0  0
   25.7720   -8.6539  -15.4177 O   0  0  0  0  0  0  0  0  0  0  0  0
   25.7821   -7.0198  -19.6424 C   0  0  0  0  0  0  0  0  0  0  0  0
   24.5876   -7.9657  -19.6913 C   0  0  2  0  0  0  0  0  0  0  0  0
   23.9927   -7.8599  -21.0744 C   0  0  0  0  0  0  0  0  0  0  0  0
   23.5872   -7.4972  -18.6824 C   0  0  0  0  0  0  0  0  0  0  0  0
   24.0674   -7.6157  -17.2554 C   0  0  2  0  0  0  0  0  0  0  0  0
   24.2229   -9.0585  -17.0145 N   0  0  0  0  0  0  0  0  0  0  0  0
   23.0928   -7.1001  -16.2710 C   0  0  0  0  0  0  0  0  0  0  0  0
   22.9376   -5.7393  -16.0118 O   0  0  0  0  0  0  0  0  0  0  0  0
   22.3462   -7.8670  -15.6096 O   0  0  0  0  0  0  0  0  0  0  0  0
  1  5  1  0
  2  1  1  0
  2  3  1  0
  3  4  1  0
  4  5  1  0
  5  6  1  1
  6  7  2  0
  8  9  1  0
  9 10  1  0
 10 11  1  1
 10 12  1  0
 12 13  1  6
 12 14  1  0
 13  6  1  0
 14 21  1  0
 15 14  2  0
 17 16  1  6
 17 19  1  0
 18 17  1  0
 20 19  1  6
 20 22  1  0
 21 20  1  0
 22 24  2  0
 22 23  1  0
M  END
$$$$
