PIL.pdb
     RDKit          3D

 24 24  0  0  1  0  0  0  0  0999 V2000
   28.1445  -21.7075  -15.1241 N   0  0  0  0  0  0  0  0  0  0  0  0
   28.7506  -21.8467  -16.4342 C   0  0  0  0  0  0  0  0  0  0  0  0
   28.7180  -20.4938  -17.0746 C   0  0  0  0  0  0  0  0  0  0  0  0
   27.9925  -19.6227  -16.0765 C   0  0  0  0  0  0  0  0  0  0  0  0
   28.2859  -20.3157  -14.7727 C   0  0  1  0  0  0  0  0  0  0  0  0
   27.4261  -19.8962  -13.6651 C   0  0  0  0  0  0  0  0  0  0  0  0
   27.5007  -18.7013  -13.2801 O   0  0  0  0  0  0  0  0  0  0  0  0
   22.4971  -19.9725  -14.3401 C   0  0  0  0  0  0  0  0  0  0  0  0
   23.8907  -19.7371  -13.8328 C   0  0  0  0  0  0  0  0  0  0  0  0
   24.1452  -20.5584  -12.5565 C   0  0  2  0  0  0  0  0  0  0  0  0
   23.0362  -20.2076  -11.6138 C   0  0  0  0  0  0  0  0  0  0  0  0
   25.5317  -20.2473  -12.0463 C   0  0  2  0  0  0  0  0  0  0  0  0
   26.5209  -20.7756  -13.0152 N   0  0  0  0  0  0  0  0  0  0  0  0
   25.8039  -20.8655  -10.7265 C   0  0  0  0  0  0  0  0  0  0  0  0
   25.9477  -22.1268  -10.6033 O   0  0  0  0  0  0  0  0  0  0  0  0
   28.9275  -20.7742   -7.5128 C   0  0  0  0  0  0  0  0  0  0  0  0
   28.1029  -19.5016   -7.6695 C   0  0  2  0  0  0  0  0  0  0  0  0
   28.6597  -18.4884   -6.6991 C   0  0  0  0  0  0  0  0  0  0  0  0
   26.6889  -19.8202   -7.2990 C   0  0  0  0  0  0  0  0  0  0  0  0
   26.0333  -20.8201   -8.2218 C   0  0  2  0  0  0  0  0  0  0  0  0
   25.9288  -20.1408   -9.5223 N   0  0  0  0  0  0  0  0  0  0  0  0
   24.6662  -21.1899   -7.7989 C   0  0  0  0  0  0  0  0  0  0  0  0
   24.4191  -22.1330   -6.8026 O   0  0  0  0  0  0  0  0  0  0  0  0
   23.6454  -20.6700   -8.3190 O   0  0  0  0  0  0  0  0  0  0  0  0
  1  5  1  0
  2  1  1  0
  2  3  1  0
  3  4  1  0
  4  5  1  0
  5  6  1  1
  6  7  2  0
  8  9  1  0
  9 10  1  0
 10 11  1  1
 10 12  1  0
 12 13  1  6
 12 14  1  0
 13  6  1  0
 14 21  1  0
 15 14  2  0
 17 16  1  1
 17 19  1  0
 18 17  1  0
 20 19  1  1
 20 22  1  0
 21 20  1  0
 22 24  2  0
 22 23  1  0
M  END
$$$$
