PIL.pdb
     RDKit          3D

 24 24  0  0  1  0  0  0  0  0999 V2000
   27.6170  -21.6377  -14.7172 N   0  0  0  0  0  0  0  0  0  0  0  0
   28.0358  -21.6811  -16.1050 C   0  0  0  0  0  0  0  0  0  0  0  0
   28.1227  -20.2633  -16.5778 C   0  0  0  0  0  0  0  0  0  0  0  0
   27.6553  -19.4441  -15.3981 C   0  0  0  0  0  0  0  0  0  0  0  0
   27.9991  -20.3337  -14.2333 C   0  0  1  0  0  0  0  0  0  0  0  0
   27.3475  -19.9555  -12.9785 C   0  0  0  0  0  0  0  0  0  0  0  0
   27.5633  -18.8022  -12.5258 O   0  0  0  0  0  0  0  0  0  0  0  0
   22.2760  -20.3207  -12.9495 C   0  0  0  0  0  0  0  0  0  0  0  0
   23.7127  -19.9788  -12.6782 C   0  0  0  0  0  0  0  0  0  0  0  0
   24.2133  -20.7136  -11.4221 C   0  0  2  0  0  0  0  0  0  0  0  0
   23.2519  -20.3618  -10.3295 C   0  0  0  0  0  0  0  0  0  0  0  0
   25.6443  -20.3096  -11.1601 C   0  0  2  0  0  0  0  0  0  0  0  0
   26.4906  -20.8298  -12.2600 N   0  0  0  0  0  0  0  0  0  0  0  0
   26.1637  -20.8532   -9.8824 C   0  0  0  0  0  0  0  0  0  0  0  0
   26.3020  -22.1087   -9.7046 O   0  0  0  0  0  0  0  0  0  0  0  0
   28.1447  -18.6511   -4.4843 C   0  0  0  0  0  0  0  0  0  0  0  0
   27.8406  -19.9216   -5.2698 C   0  0  2  0  0  0  0  0  0  0  0  0
   29.1074  -20.7418   -5.2972 C   0  0  0  0  0  0  0  0  0  0  0  0
   27.4750  -19.5245   -6.6651 C   0  0  0  0  0  0  0  0  0  0  0  0
   26.9203  -20.6609   -7.4910 C   0  0  2  0  0  0  0  0  0  0  0  0
   26.5447  -20.0595   -8.7798 N   0  0  0  0  0  0  0  0  0  0  0  0
   25.7034  -21.2625   -6.9063 C   0  0  0  0  0  0  0  0  0  0  0  0
   24.4428  -20.6825   -7.0385 O   0  0  0  0  0  0  0  0  0  0  0  0
   25.7404  -22.3372   -6.2534 O   0  0  0  0  0  0  0  0  0  0  0  0
  1  5  1  0
  2  1  1  0
  2  3  1  0
  3  4  1  0
  4  5  1  0
  5  6  1  1
  6  7  2  0
  8  9  1  0
  9 10  1  0
 10 11  1  1
 10 12  1  0
 12 13  1  6
 12 14  1  0
 13  6  1  0
 14 21  1  0
 15 14  2  0
 17 16  1  1
 17 19  1  0
 18 17  1  0
 20 19  1  1
 20 22  1  0
 21 20  1  0
 22 24  2  0
 22 23  1  0
M  END
$$$$
