PIL.pdb
     RDKit          3D

 24 24  0  0  1  0  0  0  0  0999 V2000
   21.7704  -21.5816  -17.2376 N   0  0  0  0  0  0  0  0  0  0  0  0
   22.6386  -21.6908  -18.3941 C   0  0  0  0  0  0  0  0  0  0  0  0
   24.0305  -21.4064  -17.9215 C   0  0  0  0  0  0  0  0  0  0  0  0
   23.8681  -21.0602  -16.4603 C   0  0  0  0  0  0  0  0  0  0  0  0
   22.6151  -21.8082  -16.0906 C   0  0  1  0  0  0  0  0  0  0  0  0
   22.0167  -21.3843  -14.8239 C   0  0  0  0  0  0  0  0  0  0  0  0
   22.6998  -21.5140  -13.7760 O   0  0  0  0  0  0  0  0  0  0  0  0
   20.7979  -16.6438  -14.2145 C   0  0  0  0  0  0  0  0  0  0  0  0
   21.1182  -18.0929  -13.9857 C   0  0  0  0  0  0  0  0  0  0  0  0
   19.8481  -18.8706  -13.5979 C   0  0  2  0  0  0  0  0  0  0  0  0
   19.3241  -18.2112  -12.3601 C   0  0  0  0  0  0  0  0  0  0  0  0
   20.2013  -20.3296  -13.4366 C   0  0  2  0  0  0  0  0  0  0  0  0
   20.7096  -20.8384  -14.7325 N   0  0  0  0  0  0  0  0  0  0  0  0
   19.0357  -21.1565  -13.0422 C   0  0  0  0  0  0  0  0  0  0  0  0
   18.1726  -21.5365  -13.9009 O   0  0  0  0  0  0  0  0  0  0  0  0
   18.6675  -25.1909  -11.0296 C   0  0  0  0  0  0  0  0  0  0  0  0
   19.0807  -23.9937  -10.1811 C   0  0  2  0  0  0  0  0  0  0  0  0
   19.4169  -24.5178   -8.8061 C   0  0  0  0  0  0  0  0  0  0  0  0
   17.9088  -23.0685  -10.0878 C   0  0  0  0  0  0  0  0  0  0  0  0
   17.5824  -22.3739  -11.3886 C   0  0  2  0  0  0  0  0  0  0  0  0
   18.7811  -21.5899  -11.7238 N   0  0  0  0  0  0  0  0  0  0  0  0
   16.4491  -21.4321  -11.2746 C   0  0  0  0  0  0  0  0  0  0  0  0
   15.1298  -21.8146  -11.5119 O   0  0  0  0  0  0  0  0  0  0  0  0
   16.6153  -20.2266  -10.9553 O   0  0  0  0  0  0  0  0  0  0  0  0
  1  5  1  0
  2  1  1  0
  2  3  1  0
  3  4  1  0
  4  5  1  0
  5  6  1  1
  6  7  2  0
  8  9  1  0
  9 10  1  0
 10 11  1  1
 10 12  1  0
 12 13  1  6
 12 14  1  0
 13  6  1  0
 14 21  1  0
 15 14  2  0
 17 16  1  6
 17 19  1  0
 18 17  1  0
 20 19  1  1
 20 22  1  0
 21 20  1  0
 22 24  2  0
 22 23  1  0
M  END
$$$$
