PIL.pdb
     RDKit          3D

 24 24  0  0  1  0  0  0  0  0999 V2000
   22.7871  -18.6695  -14.4969 N   0  0  0  0  0  0  0  0  0  0  0  0
   21.8451  -17.9821  -15.3590 C   0  0  0  0  0  0  0  0  0  0  0  0
   21.9434  -18.6222  -16.7088 C   0  0  0  0  0  0  0  0  0  0  0  0
   23.0443  -19.6457  -16.5602 C   0  0  0  0  0  0  0  0  0  0  0  0
   22.9861  -19.9687  -15.0910 C   0  0  1  0  0  0  0  0  0  0  0  0
   24.1648  -20.6743  -14.5862 C   0  0  0  0  0  0  0  0  0  0  0  0
   24.3579  -21.8543  -14.9759 O   0  0  0  0  0  0  0  0  0  0  0  0
   28.6939  -18.6693  -15.3355 C   0  0  0  0  0  0  0  0  0  0  0  0
   27.5152  -19.5481  -15.0303 C   0  0  0  0  0  0  0  0  0  0  0  0
   27.5100  -19.9451  -13.5434 C   0  0  2  0  0  0  0  0  0  0  0  0
   28.8327  -20.5982  -13.2876 C   0  0  0  0  0  0  0  0  0  0  0  0
   26.3097  -20.8217  -13.2783 C   0  0  2  0  0  0  0  0  0  0  0  0
   25.0888  -20.0856  -13.6836 N   0  0  0  0  0  0  0  0  0  0  0  0
   26.1753  -21.1840  -11.8470 C   0  0  0  0  0  0  0  0  0  0  0  0
   26.6156  -22.2950  -11.4011 O   0  0  0  0  0  0  0  0  0  0  0  0
   27.7990  -21.0699   -7.9992 C   0  0  0  0  0  0  0  0  0  0  0  0
   27.2257  -19.7808   -8.5768 C   0  0  2  0  0  0  0  0  0  0  0  0
   27.6596  -18.6552   -7.6695 C   0  0  0  0  0  0  0  0  0  0  0  0
   25.7338  -19.8897   -8.5555 C   0  0  0  0  0  0  0  0  0  0  0  0
   25.1864  -20.8823   -9.5536 C   0  0  2  0  0  0  0  0  0  0  0  0
   25.5706  -20.3601  -10.8741 N   0  0  0  0  0  0  0  0  0  0  0  0
   23.7119  -20.9817   -9.5235 C   0  0  0  0  0  0  0  0  0  0  0  0
   22.9118  -20.5835  -10.5933 O   0  0  0  0  0  0  0  0  0  0  0  0
   23.0959  -21.4338   -8.5241 O   0  0  0  0  0  0  0  0  0  0  0  0
  1  5  1  0
  2  1  1  0
  2  3  1  0
  3  4  1  0
  4  5  1  0
  5  6  1  1
  6  7  2  0
  8  9  1  0
  9 10  1  0
 10 11  1  6
 10 12  1  0
 12 13  1  1
 12 14  1  0
 13  6  1  0
 14 21  1  0
 15 14  2  0
 17 16  1  1
 17 19  1  0
 18 17  1  0
 20 19  1  1
 20 22  1  0
 21 20  1  0
 22 24  2  0
 22 23  1  0
M  END
$$$$
