PIL.pdb
     RDKit          3D

 24 24  0  0  1  0  0  0  0  0999 V2000
   24.8878  -19.7207  -15.6613 N   0  0  0  0  0  0  0  0  0  0  0  0
   24.3696  -19.7302  -17.0157 C   0  0  0  0  0  0  0  0  0  0  0  0
   23.9305  -21.1323  -17.3036 C   0  0  0  0  0  0  0  0  0  0  0  0
   24.3064  -21.9064  -16.0624 C   0  0  0  0  0  0  0  0  0  0  0  0
   24.2707  -20.8429  -14.9976 C   0  0  1  0  0  0  0  0  0  0  0  0
   24.9296  -21.2248  -13.7478 C   0  0  0  0  0  0  0  0  0  0  0  0
   24.3642  -22.0808  -13.0204 O   0  0  0  0  0  0  0  0  0  0  0  0
   30.5250  -21.7812  -11.3129 C   0  0  0  0  0  0  0  0  0  0  0  0
   29.0387  -21.7393  -11.1033 C   0  0  0  0  0  0  0  0  0  0  0  0
   28.3342  -21.1816  -12.3527 C   0  0  2  0  0  0  0  0  0  0  0  0
   28.9258  -19.8266  -12.5879 C   0  0  0  0  0  0  0  0  0  0  0  0
   26.8433  -21.1885  -12.1141 C   0  0  2  0  0  0  0  0  0  0  0  0
   26.1684  -20.6728  -13.3286 N   0  0  0  0  0  0  0  0  0  0  0  0
   26.4469  -20.3343  -10.9689 C   0  0  0  0  0  0  0  0  0  0  0  0
   26.3690  -19.0665  -11.0844 O   0  0  0  0  0  0  0  0  0  0  0  0
   22.7810  -19.4151   -8.7954 C   0  0  0  0  0  0  0  0  0  0  0  0
   23.4107  -20.7925   -8.6213 C   0  0  2  0  0  0  0  0  0  0  0  0
   22.4307  -21.6344   -7.8409 C   0  0  0  0  0  0  0  0  0  0  0  0
   24.6676  -20.6276   -7.8269 C   0  0  0  0  0  0  0  0  0  0  0  0
   25.7709  -19.9238   -8.5808 C   0  0  2  0  0  0  0  0  0  0  0  0
   26.1257  -20.8270   -9.6864 N   0  0  0  0  0  0  0  0  0  0  0  0
   26.9867  -19.7134   -7.7670 C   0  0  0  0  0  0  0  0  0  0  0  0
   27.1133  -18.6554   -6.8683 O   0  0  0  0  0  0  0  0  0  0  0  0
   27.9791  -20.4830   -7.8424 O   0  0  0  0  0  0  0  0  0  0  0  0
  1  5  1  0
  2  1  1  0
  2  3  1  0
  3  4  1  0
  4  5  1  0
  5  6  1  1
  6  7  2  0
  8  9  1  0
  9 10  1  0
 10 11  1  1
 10 12  1  0
 12 13  1  6
 12 14  1  0
 13  6  1  0
 14 21  1  0
 15 14  2  0
 17 16  1  1
 17 19  1  0
 18 17  1  0
 20 19  1  1
 20 22  1  0
 21 20  1  0
 22 24  2  0
 22 23  1  0
M  END
$$$$
