LEW.pdb
     RDKit          3D

 32 33  0  0  1  0  0  0  0  0999 V2000
    8.2944  -12.9226   18.8729 C   0  0  0  0  0  0  0  0  0  0  0  0
    7.5577  -13.0722   20.1563 C   0  0  2  0  0  0  0  0  0  0  0  0
    7.5970  -11.7208   20.8705 C   0  0  0  0  0  0  0  0  0  0  0  0
    8.0711  -14.0866   21.0939 C   0  0  0  0  0  0  0  0  0  0  0  0
    8.1351  -15.4952   20.6494 C   0  0  2  0  0  0  0  0  0  0  0  0
    6.9476  -16.0475   20.0813 N   0  0  0  0  0  0  0  0  0  0  0  0
    8.7893  -16.4244   21.6285 C   0  0  0  0  0  0  0  0  0  0  0  0
    8.0694  -17.1339   22.3963 O   0  0  0  0  0  0  0  0  0  0  0  0
   10.1922  -16.5476   21.7377 N   0  0  0  0  0  0  0  0  0  0  0  0
   10.8407  -17.3964   22.7925 C   0  0  1  0  0  0  0  0  0  0  0  0
   12.1309  -17.8669   22.2759 C   0  0  0  0  0  0  0  0  0  0  0  0
   12.2501  -18.6982   21.0793 C   0  0  0  0  0  0  0  0  0  0  0  0
   12.0831  -20.1586   21.2518 C   0  0  0  0  0  0  0  0  0  0  0  0
   12.7256  -20.6665   22.2352 O   0  0  0  0  0  0  0  0  0  0  0  0
   10.6554  -16.8133   24.0891 C   0  0  0  0  0  0  0  0  0  0  0  0
   11.1481  -15.6382   24.2869 O   0  0  0  0  0  0  0  0  0  0  0  0
   11.3027  -20.9468   20.4402 O   0  0  0  0  0  0  0  0  0  0  0  0
    9.9718  -17.3641   25.2083 N   0  0  0  0  0  0  0  0  0  0  0  0
   10.1005  -16.7506   26.5390 C   0  0  1  0  0  0  0  0  0  0  0  0
    8.7128  -16.6650   27.1349 C   0  0  0  0  0  0  0  0  0  0  0  0
    7.7713  -15.8099   26.4316 C   0  0  0  0  0  0  0  0  0  0  0  0
    6.6602  -16.1862   25.6696 C   0  0  0  0  0  0  0  0  0  0  0  0
    6.0981  -15.0913   25.1855 N   0  0  0  0  0  0  0  0  0  0  0  0
    6.7625  -13.9867   25.5741 C   0  0  0  0  0  0  0  0  0  0  0  0
    6.5540  -12.6473   25.3446 C   0  0  0  0  0  0  0  0  0  0  0  0
    7.4021  -11.7219   25.9011 C   0  0  0  0  0  0  0  0  0  0  0  0
    8.4644  -12.1576   26.6926 C   0  0  0  0  0  0  0  0  0  0  0  0
    8.6810  -13.4934   26.9271 C   0  0  0  0  0  0  0  0  0  0  0  0
    7.8299  -14.4236   26.3678 C   0  0  0  0  0  0  0  0  0  0  0  0
   11.0123  -17.4701   27.3758 C   0  0  0  0  0  0  0  0  0  0  0  0
   11.5703  -18.5689   27.0825 O   0  0  0  0  0  0  0  0  0  0  0  0
   11.3638  -16.9712   28.6433 O   0  0  0  0  0  0  0  0  0  0  0  0
  2  1  1  6
  3  2  1  0
  4  2  1  0
  5  4  1  0
  5  6  1  1
  7  5  1  0
  7  8  2  0
  9  7  1  0
 10  9  1  0
 10 11  1  6
 11 12  1  0
 12 13  1  0
 13 17  1  0
 14 13  2  0
 15 10  1  0
 16 15  2  0
 18 15  1  0
 19 18  1  0
 19 20  1  1
 20 21  1  0
 21 29  1  0
 22 21  2  0
 22 23  1  0
 23 24  1  0
 24 25  1  0
 25 26  2  0
 27 26  1  0
 28 27  2  0
 29 24  2  0
 29 28  1  0
 30 32  1  0
 30 19  1  0
 31 30  2  0
M  END
$$$$
