LEW.pdb
     RDKit          3D

 32 33  0  0  1  0  0  0  0  0999 V2000
    8.9890  -12.2447   18.7588 C   0  0  0  0  0  0  0  0  0  0  0  0
    8.0985  -13.4273   18.6154 C   0  0  2  0  0  0  0  0  0  0  0  0
    6.6732  -12.9099   18.4190 C   0  0  0  0  0  0  0  0  0  0  0  0
    8.0771  -14.3741   19.7445 C   0  0  0  0  0  0  0  0  0  0  0  0
    9.3619  -14.8963   20.2565 C   0  0  2  0  0  0  0  0  0  0  0  0
   10.3522  -15.2383   19.2869 N   0  0  0  0  0  0  0  0  0  0  0  0
    9.2245  -15.9365   21.3285 C   0  0  0  0  0  0  0  0  0  0  0  0
    8.2880  -15.8391   22.1800 O   0  0  0  0  0  0  0  0  0  0  0  0
   10.1038  -17.0367   21.4364 N   0  0  0  0  0  0  0  0  0  0  0  0
   10.0110  -18.0274   22.5605 C   0  0  1  0  0  0  0  0  0  0  0  0
   11.1116  -18.9874   22.4201 C   0  0  0  0  0  0  0  0  0  0  0  0
   11.2996  -20.1163   23.3298 C   0  0  0  0  0  0  0  0  0  0  0  0
   10.5784  -21.3685   23.0107 C   0  0  0  0  0  0  0  0  0  0  0  0
   10.9584  -21.9566   21.9394 O   0  0  0  0  0  0  0  0  0  0  0  0
    9.6700  -17.3650   23.7855 C   0  0  0  0  0  0  0  0  0  0  0  0
    8.4199  -17.1452   24.0129 O   0  0  0  0  0  0  0  0  0  0  0  0
    9.5715  -21.8968   23.7829 O   0  0  0  0  0  0  0  0  0  0  0  0
   10.5454  -16.9206   24.8148 N   0  0  0  0  0  0  0  0  0  0  0  0
   10.0071  -16.3903   26.0768 C   0  0  1  0  0  0  0  0  0  0  0  0
    8.5115  -16.2427   25.9053 C   0  0  0  0  0  0  0  0  0  0  0  0
    8.0615  -15.0024   25.2959 C   0  0  0  0  0  0  0  0  0  0  0  0
    8.0040  -14.6746   23.9373 C   0  0  0  0  0  0  0  0  0  0  0  0
    7.5594  -13.4339   23.8274 N   0  0  0  0  0  0  0  0  0  0  0  0
    7.3090  -12.8946   25.0354 C   0  0  0  0  0  0  0  0  0  0  0  0
    6.8278  -11.6666   25.4235 C   0  0  0  0  0  0  0  0  0  0  0  0
    6.6492  -11.3972   26.7581 C   0  0  0  0  0  0  0  0  0  0  0  0
    6.9600  -12.3770   27.7006 C   0  0  0  0  0  0  0  0  0  0  0  0
    7.4418  -13.6062   27.3223 C   0  0  0  0  0  0  0  0  0  0  0  0
    7.6221  -13.8773   25.9820 C   0  0  0  0  0  0  0  0  0  0  0  0
   10.3513  -17.2145   27.1956 C   0  0  0  0  0  0  0  0  0  0  0  0
   10.8840  -18.3618   27.1284 O   0  0  0  0  0  0  0  0  0  0  0  0
   10.1064  -16.7742   28.5089 O   0  0  0  0  0  0  0  0  0  0  0  0
  2  1  1  1
  3  2  1  0
  4  2  1  0
  5  4  1  0
  5  6  1  6
  7  5  1  0
  7  8  2  0
  9  7  1  0
 10  9  1  0
 10 11  1  1
 11 12  1  0
 12 13  1  0
 13 17  1  0
 14 13  2  0
 15 10  1  0
 16 15  2  0
 18 15  1  0
 19 18  1  0
 19 20  1  6
 20 21  1  0
 21 29  1  0
 22 21  2  0
 22 23  1  0
 23 24  1  0
 24 25  1  0
 25 26  2  0
 27 26  1  0
 28 27  2  0
 29 24  2  0
 29 28  1  0
 30 32  1  0
 30 19  1  0
 31 30  2  0
M  END
$$$$
