LEW.pdb
     RDKit          3D

 32 33  0  0  1  0  0  0  0  0999 V2000
    8.3754  -12.1021   19.3406 C   0  0  0  0  0  0  0  0  0  0  0  0
    7.6122  -13.3730   19.4609 C   0  0  2  0  0  0  0  0  0  0  0  0
    6.1282  -13.0135   19.5412 C   0  0  0  0  0  0  0  0  0  0  0  0
    7.9286  -14.2216   20.6234 C   0  0  0  0  0  0  0  0  0  0  0  0
    9.3434  -14.5538   20.8948 C   0  0  2  0  0  0  0  0  0  0  0  0
   10.2004  -14.7020   19.7627 N   0  0  0  0  0  0  0  0  0  0  0  0
    9.5407  -15.6397   21.9105 C   0  0  0  0  0  0  0  0  0  0  0  0
    8.5702  -15.9904   22.6497 O   0  0  0  0  0  0  0  0  0  0  0  0
   10.7769  -16.3003   22.0857 N   0  0  0  0  0  0  0  0  0  0  0  0
   10.9806  -17.3497   23.1397 C   0  0  1  0  0  0  0  0  0  0  0  0
   12.1690  -18.1338   22.7852 C   0  0  0  0  0  0  0  0  0  0  0  0
   12.6411  -19.2630   23.5847 C   0  0  0  0  0  0  0  0  0  0  0  0
   13.2873  -20.3803   22.8606 C   0  0  0  0  0  0  0  0  0  0  0  0
   13.3994  -20.2159   21.5964 O   0  0  0  0  0  0  0  0  0  0  0  0
   10.7325  -16.8060   24.4429 C   0  0  0  0  0  0  0  0  0  0  0  0
   11.3516  -15.7204   24.7604 O   0  0  0  0  0  0  0  0  0  0  0  0
   13.7497  -21.5254   23.4639 O   0  0  0  0  0  0  0  0  0  0  0  0
    9.8628  -17.3073   25.4508 N   0  0  0  0  0  0  0  0  0  0  0  0
    9.9073  -16.7612   26.8159 C   0  0  1  0  0  0  0  0  0  0  0  0
    8.4789  -16.5470   27.2652 C   0  0  0  0  0  0  0  0  0  0  0  0
    7.6566  -15.7222   26.3958 C   0  0  0  0  0  0  0  0  0  0  0  0
    6.7479  -16.1338   25.4152 C   0  0  0  0  0  0  0  0  0  0  0  0
    6.2382  -15.0562   24.8423 N   0  0  0  0  0  0  0  0  0  0  0  0
    6.7473  -13.9302   25.3766 C   0  0  0  0  0  0  0  0  0  0  0  0
    6.5175  -12.5974   25.1295 C   0  0  0  0  0  0  0  0  0  0  0  0
    7.1814  -11.6454   25.8633 C   0  0  0  0  0  0  0  0  0  0  0  0
    8.0807  -12.0478   26.8503 C   0  0  0  0  0  0  0  0  0  0  0  0
    8.3172  -13.3766   27.1039 C   0  0  0  0  0  0  0  0  0  0  0  0
    7.6512  -14.3334   26.3668 C   0  0  0  0  0  0  0  0  0  0  0  0
   10.6412  -17.6062   27.7085 C   0  0  0  0  0  0  0  0  0  0  0  0
   11.1194  -18.7432   27.4195 O   0  0  0  0  0  0  0  0  0  0  0  0
   10.8901  -17.2013   29.0324 O   0  0  0  0  0  0  0  0  0  0  0  0
  2  1  1  1
  3  2  1  0
  4  2  1  0
  5  4  1  0
  5  6  1  6
  7  5  1  0
  7  8  2  0
  9  7  1  0
 10  9  1  0
 10 11  1  1
 11 12  1  0
 12 13  1  0
 13 17  1  0
 14 13  2  0
 15 10  1  0
 16 15  2  0
 18 15  1  0
 19 18  1  0
 19 20  1  1
 20 21  1  0
 21 29  1  0
 22 21  2  0
 22 23  1  0
 23 24  1  0
 24 25  1  0
 25 26  2  0
 27 26  1  0
 28 27  2  0
 29 24  2  0
 29 28  1  0
 30 32  1  0
 30 19  1  0
 31 30  2  0
M  END
$$$$
