LEW.pdb
     RDKit          3D

 32 33  0  0  1  0  0  0  0  0999 V2000
    8.5541  -11.5882   19.6104 C   0  0  0  0  0  0  0  0  0  0  0  0
    8.2134  -13.0118   19.3468 C   0  0  2  0  0  0  0  0  0  0  0  0
    6.7331  -13.0689   18.9686 C   0  0  0  0  0  0  0  0  0  0  0  0
    8.4258  -13.9547   20.4592 C   0  0  0  0  0  0  0  0  0  0  0  0
    8.1342  -15.3874   20.2400 C   0  0  2  0  0  0  0  0  0  0  0  0
    6.8546  -15.7098   19.6953 N   0  0  0  0  0  0  0  0  0  0  0  0
    8.5117  -16.2786   21.3859 C   0  0  0  0  0  0  0  0  0  0  0  0
    7.6029  -16.7697   22.1237 O   0  0  0  0  0  0  0  0  0  0  0  0
    9.8535  -16.6011   21.6872 N   0  0  0  0  0  0  0  0  0  0  0  0
   10.2176  -17.5902   22.7563 C   0  0  1  0  0  0  0  0  0  0  0  0
   11.2324  -18.5009   22.2146 C   0  0  0  0  0  0  0  0  0  0  0  0
   12.5837  -18.0652   21.8666 C   0  0  0  0  0  0  0  0  0  0  0  0
   13.5131  -19.0941   21.3490 C   0  0  0  0  0  0  0  0  0  0  0  0
   13.8459  -19.9986   22.1910 O   0  0  0  0  0  0  0  0  0  0  0  0
   10.3161  -16.9384   24.0295 C   0  0  0  0  0  0  0  0  0  0  0  0
   11.0140  -15.8558   24.0892 O   0  0  0  0  0  0  0  0  0  0  0  0
   14.0034  -19.1146   20.0651 O   0  0  0  0  0  0  0  0  0  0  0  0
    9.7208  -17.3271   25.2615 N   0  0  0  0  0  0  0  0  0  0  0  0
   10.1179  -16.6792   26.5210 C   0  0  1  0  0  0  0  0  0  0  0  0
    8.8605  -16.4540   27.3310 C   0  0  0  0  0  0  0  0  0  0  0  0
    7.8041  -15.7066   26.6694 C   0  0  0  0  0  0  0  0  0  0  0  0
    6.6604  -16.2003   26.0331 C   0  0  0  0  0  0  0  0  0  0  0  0
    5.9832  -15.1760   25.5419 N   0  0  0  0  0  0  0  0  0  0  0  0
    6.5998  -14.0088   25.8069 C   0  0  0  0  0  0  0  0  0  0  0  0
    6.2788  -12.7025   25.5232 C   0  0  0  0  0  0  0  0  0  0  0  0
    7.1050  -11.6915   25.9486 C   0  0  0  0  0  0  0  0  0  0  0  0
    8.2597  -12.0079   26.6637 C   0  0  0  0  0  0  0  0  0  0  0  0
    8.5888  -13.3099   26.9513 C   0  0  0  0  0  0  0  0  0  0  0  0
    7.7598  -14.3259   26.5238 C   0  0  0  0  0  0  0  0  0  0  0  0
   11.0979  -17.4431   27.2319 C   0  0  0  0  0  0  0  0  0  0  0  0
   11.4977  -18.6030   26.9166 O   0  0  0  0  0  0  0  0  0  0  0  0
   11.7102  -16.9216   28.3860 O   0  0  0  0  0  0  0  0  0  0  0  0
  2  1  1  1
  3  2  1  0
  4  2  1  0
  5  4  1  0
  5  6  1  1
  7  5  1  0
  7  8  2  0
  9  7  1  0
 10  9  1  0
 10 11  1  6
 11 12  1  0
 12 13  1  0
 13 17  1  0
 14 13  2  0
 15 10  1  0
 16 15  2  0
 18 15  1  0
 19 18  1  0
 19 20  1  1
 20 21  1  0
 21 29  1  0
 22 21  2  0
 22 23  1  0
 23 24  1  0
 24 25  1  0
 25 26  2  0
 27 26  1  0
 28 27  2  0
 29 24  2  0
 29 28  1  0
 30 32  1  0
 30 19  1  0
 31 30  2  0
M  END
$$$$
