LEW.pdb
     RDKit          3D

 32 33  0  0  1  0  0  0  0  0999 V2000
    7.5130  -12.2879   21.4880 C   0  0  0  0  0  0  0  0  0  0  0  0
    7.9621  -13.5628   20.8675 C   0  0  2  0  0  0  0  0  0  0  0  0
    8.4024  -13.2492   19.4372 C   0  0  0  0  0  0  0  0  0  0  0  0
    6.9661  -14.6468   20.7994 C   0  0  0  0  0  0  0  0  0  0  0  0
    7.4157  -15.9995   20.4074 C   0  0  2  0  0  0  0  0  0  0  0  0
    6.4102  -16.9107   19.9639 N   0  0  0  0  0  0  0  0  0  0  0  0
    8.3826  -16.6321   21.3638 C   0  0  0  0  0  0  0  0  0  0  0  0
    7.9449  -17.2225   22.3988 O   0  0  0  0  0  0  0  0  0  0  0  0
    9.7804  -16.6000   21.1630 N   0  0  0  0  0  0  0  0  0  0  0  0
   10.7441  -17.1906   22.1510 C   0  0  1  0  0  0  0  0  0  0  0  0
   12.0329  -17.3851   21.4773 C   0  0  0  0  0  0  0  0  0  0  0  0
   13.1639  -18.0618   22.1100 C   0  0  0  0  0  0  0  0  0  0  0  0
   14.2228  -18.5852   21.2184 C   0  0  0  0  0  0  0  0  0  0  0  0
   13.9100  -19.6396   20.5639 O   0  0  0  0  0  0  0  0  0  0  0  0
   10.5904  -16.5693   23.4339 C   0  0  0  0  0  0  0  0  0  0  0  0
   10.8850  -15.3173   23.5257 O   0  0  0  0  0  0  0  0  0  0  0  0
   15.4624  -18.0097   21.0726 O   0  0  0  0  0  0  0  0  0  0  0  0
   10.1313  -17.1591   24.6442 N   0  0  0  0  0  0  0  0  0  0  0  0
   10.5135  -16.5896   25.9454 C   0  0  1  0  0  0  0  0  0  0  0  0
    9.9650  -15.1811   26.0026 C   0  0  0  0  0  0  0  0  0  0  0  0
    8.5166  -15.0624   25.9875 C   0  0  0  0  0  0  0  0  0  0  0  0
    7.5648  -16.0778   25.8472 C   0  0  0  0  0  0  0  0  0  0  0  0
    6.3631  -15.5257   25.8596 N   0  0  0  0  0  0  0  0  0  0  0  0
    6.4396  -14.1890   26.0009 C   0  0  0  0  0  0  0  0  0  0  0  0
    5.4815  -13.2065   26.0845 C   0  0  0  0  0  0  0  0  0  0  0  0
    5.8622  -11.8981   26.2534 C   0  0  0  0  0  0  0  0  0  0  0  0
    7.2189  -11.5866   26.3376 C   0  0  0  0  0  0  0  0  0  0  0  0
    8.1831  -12.5610   26.2546 C   0  0  0  0  0  0  0  0  0  0  0  0
    7.8015  -13.8755   26.0843 C   0  0  0  0  0  0  0  0  0  0  0  0
   10.0629  -17.3974   27.0381 C   0  0  0  0  0  0  0  0  0  0  0  0
    9.3214  -18.4198   26.9409 O   0  0  0  0  0  0  0  0  0  0  0  0
   10.4390  -17.0876   28.3577 O   0  0  0  0  0  0  0  0  0  0  0  0
  2  1  1  6
  3  2  1  0
  4  2  1  0
  5  4  1  0
  5  6  1  1
  7  5  1  0
  7  8  2  0
  9  7  1  0
 10  9  1  0
 10 11  1  6
 11 12  1  0
 12 13  1  0
 13 17  1  0
 14 13  2  0
 15 10  1  0
 16 15  2  0
 18 15  1  0
 19 18  1  0
 19 20  1  1
 20 21  1  0
 21 29  1  0
 22 21  2  0
 22 23  1  0
 23 24  1  0
 24 25  1  0
 25 26  2  0
 27 26  1  0
 28 27  2  0
 29 24  2  0
 29 28  1  0
 30 32  1  0
 30 19  1  0
 31 30  2  0
M  END
$$$$
