LEW.pdb
     RDKit          3D

 32 33  0  0  1  0  0  0  0  0999 V2000
    8.3017  -12.1209   19.2970 C   0  0  0  0  0  0  0  0  0  0  0  0
    7.5875  -13.4236   19.2276 C   0  0  2  0  0  0  0  0  0  0  0  0
    6.0879  -13.1263   19.2027 C   0  0  0  0  0  0  0  0  0  0  0  0
    7.8361  -14.3685   20.3308 C   0  0  0  0  0  0  0  0  0  0  0  0
    9.2342  -14.6658   20.7085 C   0  0  2  0  0  0  0  0  0  0  0  0
   10.1582  -14.8849   19.6426 N   0  0  0  0  0  0  0  0  0  0  0  0
    9.3772  -15.6749   21.8090 C   0  0  0  0  0  0  0  0  0  0  0  0
    8.3993  -15.8960   22.5876 O   0  0  0  0  0  0  0  0  0  0  0  0
   10.5694  -16.4017   22.0228 N   0  0  0  0  0  0  0  0  0  0  0  0
   10.6849  -17.4532   23.0881 C   0  0  1  0  0  0  0  0  0  0  0  0
   11.6816  -18.4391   22.6557 C   0  0  0  0  0  0  0  0  0  0  0  0
   12.0079  -19.6313   23.4365 C   0  0  0  0  0  0  0  0  0  0  0  0
   13.0065  -20.5614   22.8640 C   0  0  0  0  0  0  0  0  0  0  0  0
   13.3145  -21.5545   23.6102 O   0  0  0  0  0  0  0  0  0  0  0  0
   10.6561  -16.8530   24.3898 C   0  0  0  0  0  0  0  0  0  0  0  0
   11.5038  -15.9109   24.6275 O   0  0  0  0  0  0  0  0  0  0  0  0
   13.5822  -20.4081   21.6254 O   0  0  0  0  0  0  0  0  0  0  0  0
    9.7874  -17.1545   25.4750 N   0  0  0  0  0  0  0  0  0  0  0  0
   10.0566  -16.6205   26.8189 C   0  0  1  0  0  0  0  0  0  0  0  0
    8.7210  -16.3733   27.4845 C   0  0  0  0  0  0  0  0  0  0  0  0
    7.7328  -15.6701   26.6837 C   0  0  0  0  0  0  0  0  0  0  0  0
    6.6865  -16.2090   25.9277 C   0  0  0  0  0  0  0  0  0  0  0  0
    6.0473  -15.2147   25.3345 N   0  0  0  0  0  0  0  0  0  0  0  0
    6.5978  -14.0253   25.6428 C   0  0  0  0  0  0  0  0  0  0  0  0
    6.2801  -12.7347   25.2912 C   0  0  0  0  0  0  0  0  0  0  0  0
    7.0234  -11.6923   25.7874 C   0  0  0  0  0  0  0  0  0  0  0  0
    8.0917  -11.9610   26.6426 C   0  0  0  0  0  0  0  0  0  0  0  0
    8.4169  -13.2468   26.9989 C   0  0  0  0  0  0  0  0  0  0  0  0
    7.6712  -14.2945   26.5003 C   0  0  0  0  0  0  0  0  0  0  0  0
   10.8969  -17.4911   27.5841 C   0  0  0  0  0  0  0  0  0  0  0  0
   11.2730  -18.6482   27.2316 O   0  0  0  0  0  0  0  0  0  0  0  0
   11.3831  -17.0905   28.8418 O   0  0  0  0  0  0  0  0  0  0  0  0
  2  1  1  1
  3  2  1  0
  4  2  1  0
  5  4  1  0
  5  6  1  6
  7  5  1  0
  7  8  2  0
  9  7  1  0
 10  9  1  0
 10 11  1  6
 11 12  1  0
 12 13  1  0
 13 17  1  0
 14 13  2  0
 15 10  1  0
 16 15  2  0
 18 15  1  0
 19 18  1  0
 19 20  1  1
 20 21  1  0
 21 29  1  0
 22 21  2  0
 22 23  1  0
 23 24  1  0
 24 25  1  0
 25 26  2  0
 27 26  1  0
 28 27  2  0
 29 24  2  0
 29 28  1  0
 30 32  1  0
 30 19  1  0
 31 30  2  0
M  END
$$$$
