LEW.pdb
     RDKit          3D

 32 33  0  0  1  0  0  0  0  0999 V2000
    9.3044  -12.5939   18.0939 C   0  0  0  0  0  0  0  0  0  0  0  0
    8.0216  -13.3150   18.3093 C   0  0  2  0  0  0  0  0  0  0  0  0
    6.8949  -12.2843   18.2317 C   0  0  0  0  0  0  0  0  0  0  0  0
    7.8794  -14.0351   19.5871 C   0  0  0  0  0  0  0  0  0  0  0  0
    8.8613  -15.0889   19.9204 C   0  0  2  0  0  0  0  0  0  0  0  0
    9.3063  -15.9192   18.8477 N   0  0  0  0  0  0  0  0  0  0  0  0
    8.5322  -15.8737   21.1556 C   0  0  0  0  0  0  0  0  0  0  0  0
    7.9476  -15.3001   22.1254 O   0  0  0  0  0  0  0  0  0  0  0  0
    8.8487  -17.2436   21.2919 N   0  0  0  0  0  0  0  0  0  0  0  0
    8.5525  -18.0118   22.5472 C   0  0  1  0  0  0  0  0  0  0  0  0
    8.4879  -19.4381   22.2096 C   0  0  0  0  0  0  0  0  0  0  0  0
    8.3536  -20.4864   23.2197 C   0  0  0  0  0  0  0  0  0  0  0  0
    7.1600  -21.3573   23.1351 C   0  0  0  0  0  0  0  0  0  0  0  0
    7.3884  -22.6080   23.2814 O   0  0  0  0  0  0  0  0  0  0  0  0
    9.2968  -17.4768   23.6496 C   0  0  0  0  0  0  0  0  0  0  0  0
   10.1515  -16.5462   23.3924 O   0  0  0  0  0  0  0  0  0  0  0  0
    5.8830  -20.8967   22.9201 O   0  0  0  0  0  0  0  0  0  0  0  0
    9.2060  -17.8331   25.0237 N   0  0  0  0  0  0  0  0  0  0  0  0
   10.0357  -17.1516   26.0292 C   0  0  1  0  0  0  0  0  0  0  0  0
    9.8387  -15.6631   25.8462 C   0  0  0  0  0  0  0  0  0  0  0  0
    8.4810  -15.1757   26.0230 C   0  0  0  0  0  0  0  0  0  0  0  0
    7.2849  -15.8982   25.9581 C   0  0  0  0  0  0  0  0  0  0  0  0
    6.2813  -15.0587   26.1510 N   0  0  0  0  0  0  0  0  0  0  0  0
    6.7241  -13.8021   26.3447 C   0  0  0  0  0  0  0  0  0  0  0  0
    6.0755  -12.6165   26.5974 C   0  0  0  0  0  0  0  0  0  0  0  0
    6.8052  -11.4674   26.7780 C   0  0  0  0  0  0  0  0  0  0  0  0
    8.1966  -11.5225   26.7019 C   0  0  0  0  0  0  0  0  0  0  0  0
    8.8532  -12.7020   26.4494 C   0  0  0  0  0  0  0  0  0  0  0  0
    8.1209  -13.8565   26.2672 C   0  0  0  0  0  0  0  0  0  0  0  0
    9.7314  -17.5848   27.3592 C   0  0  0  0  0  0  0  0  0  0  0  0
    8.7788  -18.3547   27.6828 O   0  0  0  0  0  0  0  0  0  0  0  0
   10.5164  -17.1591   28.4461 O   0  0  0  0  0  0  0  0  0  0  0  0
  2  1  1  1
  3  2  1  0
  4  2  1  0
  5  4  1  0
  5  6  1  6
  7  5  1  0
  7  8  2  0
  9  7  1  0
 10  9  1  0
 10 11  1  6
 11 12  1  0
 12 13  1  0
 13 17  1  0
 14 13  2  0
 15 10  1  0
 16 15  2  0
 18 15  1  0
 19 18  1  0
 19 20  1  1
 20 21  1  0
 21 29  1  0
 22 21  2  0
 22 23  1  0
 23 24  1  0
 24 25  1  0
 25 26  2  0
 27 26  1  0
 28 27  2  0
 29 24  2  0
 29 28  1  0
 30 32  1  0
 30 19  1  0
 31 30  2  0
M  END
$$$$
