LEW.pdb
     RDKit          3D

 32 33  0  0  1  0  0  0  0  0999 V2000
    8.6827  -11.9430   19.1428 C   0  0  0  0  0  0  0  0  0  0  0  0
    8.3035  -13.3536   18.8625 C   0  0  2  0  0  0  0  0  0  0  0  0
    6.7766  -13.4318   18.8767 C   0  0  0  0  0  0  0  0  0  0  0  0
    8.8104  -14.3692   19.8023 C   0  0  0  0  0  0  0  0  0  0  0  0
    8.8737  -15.7778   19.3580 C   0  0  2  0  0  0  0  0  0  0  0  0
    7.7383  -16.2853   18.6570 N   0  0  0  0  0  0  0  0  0  0  0  0
    9.3808  -16.7329   20.3975 C   0  0  0  0  0  0  0  0  0  0  0  0
    8.5541  -17.4020   21.0905 O   0  0  0  0  0  0  0  0  0  0  0  0
   10.7582  -16.9246   20.6453 N   0  0  0  0  0  0  0  0  0  0  0  0
   11.2562  -17.7733   21.7791 C   0  0  1  0  0  0  0  0  0  0  0  0
   12.5841  -18.2852   21.4221 C   0  0  0  0  0  0  0  0  0  0  0  0
   13.6742  -17.4189   20.9769 C   0  0  0  0  0  0  0  0  0  0  0  0
   15.0553  -17.8971   21.2096 C   0  0  0  0  0  0  0  0  0  0  0  0
   15.5248  -17.6556   22.3754 O   0  0  0  0  0  0  0  0  0  0  0  0
   10.9379  -17.1652   23.0378 C   0  0  0  0  0  0  0  0  0  0  0  0
   10.9914  -15.8787   23.1054 O   0  0  0  0  0  0  0  0  0  0  0  0
   15.8108  -18.5585   20.2711 O   0  0  0  0  0  0  0  0  0  0  0  0
   10.5472  -17.8052   24.2465 N   0  0  0  0  0  0  0  0  0  0  0  0
   10.0980  -17.0122   25.4011 C   0  0  1  0  0  0  0  0  0  0  0  0
    9.0448  -16.0463   24.9054 C   0  0  0  0  0  0  0  0  0  0  0  0
    8.2925  -15.3450   25.9324 C   0  0  0  0  0  0  0  0  0  0  0  0
    7.7783  -15.8531   27.1300 C   0  0  0  0  0  0  0  0  0  0  0  0
    7.1373  -14.8789   27.7536 N   0  0  0  0  0  0  0  0  0  0  0  0
    7.1845  -13.7322   27.0496 C   0  0  0  0  0  0  0  0  0  0  0  0
    6.6911  -12.4719   27.2912 C   0  0  0  0  0  0  0  0  0  0  0  0
    6.9176  -11.4674   26.3829 C   0  0  0  0  0  0  0  0  0  0  0  0
    7.6468  -11.7432   25.2266 C   0  0  0  0  0  0  0  0  0  0  0  0
    8.1432  -12.9991   24.9765 C   0  0  0  0  0  0  0  0  0  0  0  0
    7.9155  -14.0088   25.8881 C   0  0  0  0  0  0  0  0  0  0  0  0
    9.6233  -17.8395   26.4686 C   0  0  0  0  0  0  0  0  0  0  0  0
    9.0052  -18.9366   26.3306 O   0  0  0  0  0  0  0  0  0  0  0  0
    9.8277  -17.4634   27.8086 O   0  0  0  0  0  0  0  0  0  0  0  0
  2  1  1  1
  3  2  1  0
  4  2  1  0
  5  4  1  0
  5  6  1  1
  7  5  1  0
  7  8  2  0
  9  7  1  0
 10  9  1  0
 10 11  1  6
 11 12  1  0
 12 13  1  0
 13 17  1  0
 14 13  2  0
 15 10  1  0
 16 15  2  0
 18 15  1  0
 19 18  1  0
 19 20  1  6
 20 21  1  0
 21 29  1  0
 22 21  2  0
 22 23  1  0
 23 24  1  0
 24 25  1  0
 25 26  2  0
 27 26  1  0
 28 27  2  0
 29 24  2  0
 29 28  1  0
 30 32  1  0
 30 19  1  0
 31 30  2  0
M  END
$$$$
