LEW.pdb
     RDKit          3D

 32 33  0  0  1  0  0  0  0  0999 V2000
    8.4232  -13.4172   18.0719 C   0  0  0  0  0  0  0  0  0  0  0  0
    7.8094  -13.1627   19.4025 C   0  0  2  0  0  0  0  0  0  0  0  0
    8.1630  -11.7312   19.8069 C   0  0  0  0  0  0  0  0  0  0  0  0
    8.2287  -14.0521   20.5001 C   0  0  0  0  0  0  0  0  0  0  0  0
    8.0449  -15.5104   20.3408 C   0  0  2  0  0  0  0  0  0  0  0  0
    6.7420  -15.9600   19.9688 N   0  0  0  0  0  0  0  0  0  0  0  0
    8.6439  -16.3341   21.4420 C   0  0  0  0  0  0  0  0  0  0  0  0
    7.8975  -16.7853   22.3643 O   0  0  0  0  0  0  0  0  0  0  0  0
   10.0228  -16.6349   21.5014 N   0  0  0  0  0  0  0  0  0  0  0  0
   10.6248  -17.4058   22.6403 C   0  0  1  0  0  0  0  0  0  0  0  0
   11.7832  -18.1489   22.1319 C   0  0  0  0  0  0  0  0  0  0  0  0
   12.6690  -18.9255   22.9976 C   0  0  0  0  0  0  0  0  0  0  0  0
   13.7766  -19.6599   22.3465 C   0  0  0  0  0  0  0  0  0  0  0  0
   13.4781  -20.2196   21.2349 O   0  0  0  0  0  0  0  0  0  0  0  0
   10.6371  -16.6103   23.8330 C   0  0  0  0  0  0  0  0  0  0  0  0
   11.2903  -15.4990   23.7980 O   0  0  0  0  0  0  0  0  0  0  0  0
   15.0470  -19.7554   22.8624 O   0  0  0  0  0  0  0  0  0  0  0  0
    9.9979  -16.8817   25.0743 N   0  0  0  0  0  0  0  0  0  0  0  0
   10.5971  -16.4282   26.3388 C   0  0  1  0  0  0  0  0  0  0  0  0
    9.9082  -15.1398   26.7306 C   0  0  0  0  0  0  0  0  0  0  0  0
    8.4832  -15.0718   26.4531 C   0  0  0  0  0  0  0  0  0  0  0  0
    7.5960  -16.1254   26.2089 C   0  0  0  0  0  0  0  0  0  0  0  0
    6.3985  -15.6148   25.9757 N   0  0  0  0  0  0  0  0  0  0  0  0
    6.4168  -14.2705   26.0471 C   0  0  0  0  0  0  0  0  0  0  0  0
    5.4359  -13.3183   25.9008 C   0  0  0  0  0  0  0  0  0  0  0  0
    5.7491  -11.9902   26.0547 C   0  0  0  0  0  0  0  0  0  0  0  0
    7.0614  -11.6283   26.3579 C   0  0  0  0  0  0  0  0  0  0  0  0
    8.0479  -12.5723   26.5054 C   0  0  0  0  0  0  0  0  0  0  0  0
    7.7342  -13.9065   26.3502 C   0  0  0  0  0  0  0  0  0  0  0  0
   10.5132  -17.4268   27.3611 C   0  0  0  0  0  0  0  0  0  0  0  0
   10.9623  -17.3127   28.5402 O   0  0  0  0  0  0  0  0  0  0  0  0
    9.8913  -18.6619   27.1035 O   0  0  0  0  0  0  0  0  0  0  0  0
  2  1  1  6
  3  2  1  0
  4  2  1  0
  5  4  1  0
  5  6  1  1
  7  5  1  0
  7  8  2  0
  9  7  1  0
 10  9  1  0
 10 11  1  6
 11 12  1  0
 12 13  1  0
 13 17  1  0
 14 13  2  0
 15 10  1  0
 16 15  2  0
 18 15  1  0
 19 18  1  0
 19 20  1  1
 20 21  1  0
 21 29  1  0
 22 21  2  0
 22 23  1  0
 23 24  1  0
 24 25  1  0
 25 26  2  0
 27 26  1  0
 28 27  2  0
 29 24  2  0
 29 28  1  0
 30 32  1  0
 30 19  1  0
 31 30  2  0
M  END
$$$$
