LEW.pdb
     RDKit          3D

 32 33  0  0  1  0  0  0  0  0999 V2000
    7.5736  -13.3555   18.5429 C   0  0  0  0  0  0  0  0  0  0  0  0
    7.2801  -13.1467   19.9859 C   0  0  2  0  0  0  0  0  0  0  0  0
    7.6852  -11.7145   20.3360 C   0  0  0  0  0  0  0  0  0  0  0  0
    7.9630  -14.0467   20.9320 C   0  0  0  0  0  0  0  0  0  0  0  0
    7.7777  -15.5058   20.7824 C   0  0  2  0  0  0  0  0  0  0  0  0
    6.4339  -15.9810   20.7021 N   0  0  0  0  0  0  0  0  0  0  0  0
    8.6262  -16.3352   21.7000 C   0  0  0  0  0  0  0  0  0  0  0  0
    8.1023  -16.8710   22.7247 O   0  0  0  0  0  0  0  0  0  0  0  0
   10.0037  -16.5503   21.4732 N   0  0  0  0  0  0  0  0  0  0  0  0
   10.8497  -17.3676   22.4060 C   0  0  1  0  0  0  0  0  0  0  0  0
   12.0931  -17.7194   21.7111 C   0  0  0  0  0  0  0  0  0  0  0  0
   13.1320  -18.5504   22.3171 C   0  0  0  0  0  0  0  0  0  0  0  0
   14.3476  -18.8060   21.5126 C   0  0  0  0  0  0  0  0  0  0  0  0
   15.2154  -17.8654   21.5256 O   0  0  0  0  0  0  0  0  0  0  0  0
   10.7922  -16.8315   23.7345 C   0  0  0  0  0  0  0  0  0  0  0  0
   11.3756  -15.7008   23.9436 O   0  0  0  0  0  0  0  0  0  0  0  0
   14.5686  -19.9560   20.7931 O   0  0  0  0  0  0  0  0  0  0  0  0
   10.1499  -17.3857   24.8763 N   0  0  0  0  0  0  0  0  0  0  0  0
   10.6397  -17.0835   26.2300 C   0  0  1  0  0  0  0  0  0  0  0  0
   10.2250  -15.6658   26.5561 C   0  0  0  0  0  0  0  0  0  0  0  0
    8.8124  -15.3643   26.3949 C   0  0  0  0  0  0  0  0  0  0  0  0
    7.7623  -16.2482   26.1250 C   0  0  0  0  0  0  0  0  0  0  0  0
    6.6441  -15.5485   26.0303 N   0  0  0  0  0  0  0  0  0  0  0  0
    6.8704  -14.2350   26.2207 C   0  0  0  0  0  0  0  0  0  0  0  0
    6.0382  -13.1408   26.2354 C   0  0  0  0  0  0  0  0  0  0  0  0
    6.5582  -11.8944   26.4838 C   0  0  0  0  0  0  0  0  0  0  0  0
    7.9263  -11.7590   26.7178 C   0  0  0  0  0  0  0  0  0  0  0  0
    8.7654  -12.8461   26.7045 C   0  0  0  0  0  0  0  0  0  0  0  0
    8.2440  -14.0982   26.4543 C   0  0  0  0  0  0  0  0  0  0  0  0
   10.1662  -18.0284   27.1955 C   0  0  0  0  0  0  0  0  0  0  0  0
   10.3548  -17.9599   28.4463 O   0  0  0  0  0  0  0  0  0  0  0  0
    9.4206  -19.1504   26.7906 O   0  0  0  0  0  0  0  0  0  0  0  0
  2  1  1  6
  3  2  1  0
  4  2  1  0
  5  4  1  0
  5  6  1  1
  7  5  1  0
  7  8  2  0
  9  7  1  0
 10  9  1  0
 10 11  1  6
 11 12  1  0
 12 13  1  0
 13 17  1  0
 14 13  2  0
 15 10  1  0
 16 15  2  0
 18 15  1  0
 19 18  1  0
 19 20  1  1
 20 21  1  0
 21 29  1  0
 22 21  2  0
 22 23  1  0
 23 24  1  0
 24 25  1  0
 25 26  2  0
 27 26  1  0
 28 27  2  0
 29 24  2  0
 29 28  1  0
 30 32  1  0
 30 19  1  0
 31 30  2  0
M  END
$$$$
