LEW.pdb
     RDKit          3D

 32 33  0  0  1  0  0  0  0  0999 V2000
    7.4717  -11.7668   20.0775 C   0  0  0  0  0  0  0  0  0  0  0  0
    7.9692  -13.1143   19.6917 C   0  0  2  0  0  0  0  0  0  0  0  0
    6.9489  -13.7243   18.7302 C   0  0  0  0  0  0  0  0  0  0  0  0
    8.1782  -14.0760   20.7886 C   0  0  0  0  0  0  0  0  0  0  0  0
    9.4767  -14.7768   20.8794 C   0  0  2  0  0  0  0  0  0  0  0  0
    9.9688  -15.3821   19.6838 N   0  0  0  0  0  0  0  0  0  0  0  0
    9.6151  -15.6718   22.0751 C   0  0  0  0  0  0  0  0  0  0  0  0
    8.7622  -15.6015   23.0128 O   0  0  0  0  0  0  0  0  0  0  0  0
   10.6680  -16.6039   22.2084 N   0  0  0  0  0  0  0  0  0  0  0  0
   10.7222  -17.5935   23.3360 C   0  0  1  0  0  0  0  0  0  0  0  0
   11.6230  -18.6848   22.9480 C   0  0  0  0  0  0  0  0  0  0  0  0
   12.4704  -18.6279   21.7581 C   0  0  0  0  0  0  0  0  0  0  0  0
   13.9006  -18.9675   21.9304 C   0  0  0  0  0  0  0  0  0  0  0  0
   14.6093  -18.8901   20.8675 O   0  0  0  0  0  0  0  0  0  0  0  0
   10.7752  -16.9138   24.5972 C   0  0  0  0  0  0  0  0  0  0  0  0
   11.6342  -15.9603   24.7215 O   0  0  0  0  0  0  0  0  0  0  0  0
   14.4662  -19.3398   23.1264 O   0  0  0  0  0  0  0  0  0  0  0  0
    9.9781  -17.1460   25.7522 N   0  0  0  0  0  0  0  0  0  0  0  0
   10.2281  -16.4005   26.9954 C   0  0  1  0  0  0  0  0  0  0  0  0
    8.8870  -16.1371   27.6435 C   0  0  0  0  0  0  0  0  0  0  0  0
    7.9163  -15.4263   26.8282 C   0  0  0  0  0  0  0  0  0  0  0  0
    6.8707  -15.9564   26.0650 C   0  0  0  0  0  0  0  0  0  0  0  0
    6.2506  -14.9578   25.4590 N   0  0  0  0  0  0  0  0  0  0  0  0
    6.8134  -13.7737   25.7654 C   0  0  0  0  0  0  0  0  0  0  0  0
    6.5160  -12.4814   25.4025 C   0  0  0  0  0  0  0  0  0  0  0  0
    7.2677  -11.4454   25.8997 C   0  0  0  0  0  0  0  0  0  0  0  0
    8.3238  -11.7224   26.7675 C   0  0  0  0  0  0  0  0  0  0  0  0
    8.6286  -13.0101   27.1352 C   0  0  0  0  0  0  0  0  0  0  0  0
    7.8744  -14.0512   26.6356 C   0  0  0  0  0  0  0  0  0  0  0  0
   11.1298  -17.0935   27.8649 C   0  0  0  0  0  0  0  0  0  0  0  0
   11.5768  -16.6523   28.9649 O   0  0  0  0  0  0  0  0  0  0  0  0
   11.5977  -18.3776   27.5317 O   0  0  0  0  0  0  0  0  0  0  0  0
  2  1  1  1
  3  2  1  0
  4  2  1  0
  5  4  1  0
  5  6  1  6
  7  5  1  0
  7  8  2  0
  9  7  1  0
 10  9  1  0
 10 11  1  6
 11 12  1  0
 12 13  1  0
 13 17  1  0
 14 13  2  0
 15 10  1  0
 16 15  2  0
 18 15  1  0
 19 18  1  0
 19 20  1  1
 20 21  1  0
 21 29  1  0
 22 21  2  0
 22 23  1  0
 23 24  1  0
 24 25  1  0
 25 26  2  0
 27 26  1  0
 28 27  2  0
 29 24  2  0
 29 28  1  0
 30 32  1  0
 30 19  1  0
 31 30  2  0
M  END
$$$$
