LEW.pdb
     RDKit          3D

 32 33  0  0  1  0  0  0  0  0999 V2000
    8.5886  -13.1003   18.4715 C   0  0  0  0  0  0  0  0  0  0  0  0
    7.7043  -13.3049   19.6497 C   0  0  2  0  0  0  0  0  0  0  0  0
    7.5166  -11.9467   20.3263 C   0  0  0  0  0  0  0  0  0  0  0  0
    8.1829  -14.2504   20.6737 C   0  0  0  0  0  0  0  0  0  0  0  0
    8.5770  -15.6118   20.2531 C   0  0  2  0  0  0  0  0  0  0  0  0
    7.6323  -16.3455   19.4738 N   0  0  0  0  0  0  0  0  0  0  0  0
    9.1929  -16.4418   21.3401 C   0  0  0  0  0  0  0  0  0  0  0  0
    8.4658  -17.2407   22.0069 O   0  0  0  0  0  0  0  0  0  0  0  0
   10.5667  -16.3738   21.6617 N   0  0  0  0  0  0  0  0  0  0  0  0
   11.1826  -17.2358   22.7253 C   0  0  1  0  0  0  0  0  0  0  0  0
   12.5617  -17.5416   22.3286 C   0  0  0  0  0  0  0  0  0  0  0  0
   12.8946  -18.2203   21.0773 C   0  0  0  0  0  0  0  0  0  0  0  0
   14.2700  -18.0461   20.5594 C   0  0  0  0  0  0  0  0  0  0  0  0
   15.1827  -18.6418   21.2301 O   0  0  0  0  0  0  0  0  0  0  0  0
   10.8018  -16.7735   24.0279 C   0  0  0  0  0  0  0  0  0  0  0  0
   10.8594  -15.5041   24.2471 O   0  0  0  0  0  0  0  0  0  0  0  0
   14.5860  -17.3101   19.4424 O   0  0  0  0  0  0  0  0  0  0  0  0
   10.3439  -17.5442   25.1323 N   0  0  0  0  0  0  0  0  0  0  0  0
    9.9402  -16.8884   26.3856 C   0  0  1  0  0  0  0  0  0  0  0  0
    8.4722  -17.1837   26.5992 C   0  0  0  0  0  0  0  0  0  0  0  0
    7.5513  -16.1177   26.2414 C   0  0  0  0  0  0  0  0  0  0  0  0
    6.2364  -16.2272   25.7769 C   0  0  0  0  0  0  0  0  0  0  0  0
    5.7741  -15.0097   25.5470 N   0  0  0  0  0  0  0  0  0  0  0  0
    6.6993  -14.0731   25.8288 C   0  0  0  0  0  0  0  0  0  0  0  0
    6.6803  -12.6997   25.7680 C   0  0  0  0  0  0  0  0  0  0  0  0
    7.7907  -11.9869   26.1482 C   0  0  0  0  0  0  0  0  0  0  0  0
    8.9228  -12.6703   26.5911 C   0  0  0  0  0  0  0  0  0  0  0  0
    8.9512  -14.0419   26.6546 C   0  0  0  0  0  0  0  0  0  0  0  0
    7.8365  -14.7586   26.2723 C   0  0  0  0  0  0  0  0  0  0  0  0
   10.7487  -17.3018   27.4923 C   0  0  0  0  0  0  0  0  0  0  0  0
   11.4247  -18.3714   27.5511 O   0  0  0  0  0  0  0  0  0  0  0  0
   10.8472  -16.4995   28.6436 O   0  0  0  0  0  0  0  0  0  0  0  0
  2  1  1  6
  3  2  1  0
  4  2  1  0
  5  4  1  0
  5  6  1  1
  7  5  1  0
  7  8  2  0
  9  7  1  0
 10  9  1  0
 10 11  1  1
 11 12  1  0
 12 13  1  0
 13 17  1  0
 14 13  2  0
 15 10  1  0
 16 15  2  0
 18 15  1  0
 19 18  1  0
 19 20  1  1
 20 21  1  0
 21 29  1  0
 22 21  2  0
 22 23  1  0
 23 24  1  0
 24 25  1  0
 25 26  2  0
 27 26  1  0
 28 27  2  0
 29 24  2  0
 29 28  1  0
 30 32  1  0
 30 19  1  0
 31 30  2  0
M  END
$$$$
