LEW.pdb
     RDKit          3D

 32 33  0  0  1  0  0  0  0  0999 V2000
    9.0896  -12.2837   19.0133 C   0  0  0  0  0  0  0  0  0  0  0  0
    7.9765  -13.2701   19.0024 C   0  0  2  0  0  0  0  0  0  0  0  0
    6.6649  -12.4854   19.0436 C   0  0  0  0  0  0  0  0  0  0  0  0
    7.9492  -14.2418   20.1099 C   0  0  0  0  0  0  0  0  0  0  0  0
    9.1521  -15.0634   20.3624 C   0  0  2  0  0  0  0  0  0  0  0  0
    9.6774  -15.7961   19.2555 N   0  0  0  0  0  0  0  0  0  0  0  0
    9.0898  -15.8837   21.6165 C   0  0  0  0  0  0  0  0  0  0  0  0
    8.4095  -15.4680   22.6043 O   0  0  0  0  0  0  0  0  0  0  0  0
    9.7647  -17.1172   21.7516 N   0  0  0  0  0  0  0  0  0  0  0  0
    9.6132  -17.9827   22.9688 C   0  0  1  0  0  0  0  0  0  0  0  0
    9.9014  -19.3696   22.5865 C   0  0  0  0  0  0  0  0  0  0  0  0
    9.9416  -20.4661   23.5525 C   0  0  0  0  0  0  0  0  0  0  0  0
   11.0438  -21.4446   23.4183 C   0  0  0  0  0  0  0  0  0  0  0  0
   11.9629  -21.1177   22.5899 O   0  0  0  0  0  0  0  0  0  0  0  0
   10.1682  -17.3314   24.1192 C   0  0  0  0  0  0  0  0  0  0  0  0
   11.3209  -16.7696   23.9842 O   0  0  0  0  0  0  0  0  0  0  0  0
   11.1146  -22.6269   24.1157 O   0  0  0  0  0  0  0  0  0  0  0  0
    9.5974  -17.2060   25.4160 N   0  0  0  0  0  0  0  0  0  0  0  0
   10.4147  -16.7530   26.5520 C   0  0  1  0  0  0  0  0  0  0  0  0
    9.8886  -15.4004   26.9782 C   0  0  0  0  0  0  0  0  0  0  0  0
    8.5308  -15.0880   26.5646 C   0  0  0  0  0  0  0  0  0  0  0  0
    7.4992  -15.9735   26.2352 C   0  0  0  0  0  0  0  0  0  0  0  0
    6.4381  -15.2647   25.8879 N   0  0  0  0  0  0  0  0  0  0  0  0
    6.6860  -13.9434   25.9618 C   0  0  0  0  0  0  0  0  0  0  0  0
    5.9066  -12.8365   25.7222 C   0  0  0  0  0  0  0  0  0  0  0  0
    6.4328  -11.5816   25.9066 C   0  0  0  0  0  0  0  0  0  0  0  0
    7.7534  -11.4506   26.3352 C   0  0  0  0  0  0  0  0  0  0  0  0
    8.5396  -12.5505   26.5765 C   0  0  0  0  0  0  0  0  0  0  0  0
    8.0120  -13.8112   26.3908 C   0  0  0  0  0  0  0  0  0  0  0  0
   10.4172  -17.7021   27.6238 C   0  0  0  0  0  0  0  0  0  0  0  0
   11.0804  -17.5976   28.6980 O   0  0  0  0  0  0  0  0  0  0  0  0
    9.6391  -18.8712   27.5440 O   0  0  0  0  0  0  0  0  0  0  0  0
  2  1  1  1
  3  2  1  0
  4  2  1  0
  5  4  1  0
  5  6  1  6
  7  5  1  0
  7  8  2  0
  9  7  1  0
 10  9  1  0
 10 11  1  6
 11 12  1  0
 12 13  1  0
 13 17  1  0
 14 13  2  0
 15 10  1  0
 16 15  2  0
 18 15  1  0
 19 18  1  0
 19 20  1  1
 20 21  1  0
 21 29  1  0
 22 21  2  0
 22 23  1  0
 23 24  1  0
 24 25  1  0
 25 26  2  0
 27 26  1  0
 28 27  2  0
 29 24  2  0
 29 28  1  0
 30 32  1  0
 30 19  1  0
 31 30  2  0
M  END
$$$$
