WKF.pdb
     RDKit          3D

 35 37  0  0  1  0  0  0  0  0999 V2000
   26.7679  -19.7234  -12.1080 N   0  0  0  0  0  0  0  0  0  0  0  0
   26.3021  -21.0713  -11.8772 C   0  0  1  0  0  0  0  0  0  0  0  0
   25.5426  -21.1731  -10.5740 C   0  0  0  0  0  0  0  0  0  0  0  0
   26.2814  -20.4780   -9.5112 C   0  0  0  0  0  0  0  0  0  0  0  0
   25.7447  -19.5630   -8.6103 C   0  0  0  0  0  0  0  0  0  0  0  0
   26.6953  -19.1518   -7.7636 N   0  0  0  0  0  0  0  0  0  0  0  0
   27.8249  -19.7791   -8.1008 C   0  0  0  0  0  0  0  0  0  0  0  0
   29.0819  -19.6927   -7.5503 C   0  0  0  0  0  0  0  0  0  0  0  0
   30.1224  -20.4268   -8.0672 C   0  0  0  0  0  0  0  0  0  0  0  0
   29.8822  -21.2488   -9.1462 C   0  0  0  0  0  0  0  0  0  0  0  0
   28.6355  -21.3627   -9.7252 C   0  0  0  0  0  0  0  0  0  0  0  0
   27.6020  -20.6176   -9.1909 C   0  0  0  0  0  0  0  0  0  0  0  0
   25.3677  -21.3552  -13.0301 C   0  0  0  0  0  0  0  0  0  0  0  0
   24.6815  -20.4687  -13.5911 O   0  0  0  0  0  0  0  0  0  0  0  0
   25.2955  -22.7042  -13.4642 N   0  0  0  0  0  0  0  0  0  0  0  0
   24.4649  -23.0942  -14.6368 C   0  0  1  0  0  0  0  0  0  0  0  0
   25.0837  -24.3821  -15.1001 C   0  0  0  0  0  0  0  0  0  0  0  0
   26.3512  -24.2737  -15.8553 C   0  0  0  0  0  0  0  0  0  0  0  0
   26.1723  -24.0937  -17.3414 C   0  0  0  0  0  0  0  0  0  0  0  0
   27.5024  -23.8701  -18.0438 C   0  0  0  0  0  0  0  0  0  0  0  0
   28.2828  -25.0813  -17.8274 N   0  0  0  0  0  0  0  0  0  0  0  0
   23.0604  -23.1731  -14.2345 C   0  0  0  0  0  0  0  0  0  0  0  0
   22.8059  -23.6791  -13.0772 O   0  0  0  0  0  0  0  0  0  0  0  0
   21.9638  -22.7357  -15.0134 N   0  0  0  0  0  0  0  0  0  0  0  0
   21.0764  -21.6823  -14.4978 C   0  0  1  0  0  0  0  0  0  0  0  0
   21.9014  -20.5382  -13.9904 C   0  0  0  0  0  0  0  0  0  0  0  0
   21.5327  -20.2263  -12.5960 C   0  0  0  0  0  0  0  0  0  0  0  0
   20.7367  -19.1076  -12.3853 C   0  0  0  0  0  0  0  0  0  0  0  0
   20.3256  -18.7676  -11.1123 C   0  0  0  0  0  0  0  0  0  0  0  0
   20.7213  -19.5555  -10.0816 C   0  0  0  0  0  0  0  0  0  0  0  0
   21.5158  -20.6780  -10.2704 C   0  0  0  0  0  0  0  0  0  0  0  0
   21.9238  -21.0140  -11.5386 C   0  0  0  0  0  0  0  0  0  0  0  0
   20.1767  -21.2697  -15.5765 C   0  0  0  0  0  0  0  0  0  0  0  0
   20.6296  -21.0452  -16.8518 O   0  0  0  0  0  0  0  0  0  0  0  0
   18.9470  -21.1088  -15.3422 O   0  0  0  0  0  0  0  0  0  0  0  0
  2  1  1  6
  3  2  1  0
  4  5  2  0
  4  3  1  0
  6  5  1  0
  7 12  2  0
  7  6  1  0
  8  7  1  0
  9 10  1  0
  9  8  2  0
 10 11  2  0
 11 12  1  0
 12  4  1  0
 13  2  1  0
 14 13  2  0
 15 13  1  0
 16 22  1  0
 16 15  1  0
 16 17  1  1
 18 17  1  0
 19 18  1  0
 20 19  1  0
 21 20  1  0
 22 23  2  0
 24 25  1  0
 24 22  1  0
 25 26  1  6
 25 33  1  0
 26 27  1  0
 27 28  2  0
 28 29  1  0
 30 29  2  0
 31 30  1  0
 32 27  1  0
 32 31  2  0
 33 35  2  0
 33 34  1  0
M  END
$$$$
