WKF.pdb
     RDKit          3D

 35 37  0  0  1  0  0  0  0  0999 V2000
   26.6344  -18.8605  -10.8858 N   0  0  0  0  0  0  0  0  0  0  0  0
   27.0630  -20.2087  -11.1785 C   0  0  1  0  0  0  0  0  0  0  0  0
   26.2462  -21.2225  -10.4100 C   0  0  0  0  0  0  0  0  0  0  0  0
   26.2984  -20.9185   -8.9735 C   0  0  0  0  0  0  0  0  0  0  0  0
   25.2021  -20.8135   -8.1226 C   0  0  0  0  0  0  0  0  0  0  0  0
   25.6193  -20.5567   -6.8778 N   0  0  0  0  0  0  0  0  0  0  0  0
   26.9527  -20.4938   -6.9116 C   0  0  0  0  0  0  0  0  0  0  0  0
   27.8515  -20.2445   -5.9014 C   0  0  0  0  0  0  0  0  0  0  0  0
   29.2009  -20.2117   -6.1599 C   0  0  0  0  0  0  0  0  0  0  0  0
   29.6347  -20.4322   -7.4487 C   0  0  0  0  0  0  0  0  0  0  0  0
   28.7642  -20.6860   -8.4880 C   0  0  0  0  0  0  0  0  0  0  0  0
   27.4116  -20.7159   -8.2082 C   0  0  0  0  0  0  0  0  0  0  0  0
   26.8128  -20.3761  -12.6592 C   0  0  0  0  0  0  0  0  0  0  0  0
   25.8238  -19.8796  -13.2481 O   0  0  0  0  0  0  0  0  0  0  0  0
   27.7692  -21.1403  -13.3767 N   0  0  0  0  0  0  0  0  0  0  0  0
   27.6793  -21.2984  -14.8544 C   0  0  1  0  0  0  0  0  0  0  0  0
   28.9300  -22.0507  -15.2098 C   0  0  0  0  0  0  0  0  0  0  0  0
   29.1039  -22.4110  -16.6340 C   0  0  0  0  0  0  0  0  0  0  0  0
   30.3502  -23.2088  -16.9224 C   0  0  0  0  0  0  0  0  0  0  0  0
   30.3629  -24.5250  -16.1608 C   0  0  0  0  0  0  0  0  0  0  0  0
   31.6275  -25.1699  -16.4888 N   0  0  0  0  0  0  0  0  0  0  0  0
   26.4207  -21.9607  -15.1979 C   0  0  0  0  0  0  0  0  0  0  0  0
   26.0884  -22.9930  -14.5023 O   0  0  0  0  0  0  0  0  0  0  0  0
   25.5416  -21.5553  -16.2291 N   0  0  0  0  0  0  0  0  0  0  0  0
   24.1017  -21.8302  -16.1106 C   0  0  1  0  0  0  0  0  0  0  0  0
   23.5473  -21.0903  -14.9306 C   0  0  0  0  0  0  0  0  0  0  0  0
   22.0884  -21.2948  -14.8436 C   0  0  0  0  0  0  0  0  0  0  0  0
   21.6467  -22.4645  -14.2386 C   0  0  0  0  0  0  0  0  0  0  0  0
   20.2970  -22.7139  -14.0931 C   0  0  0  0  0  0  0  0  0  0  0  0
   19.4226  -21.7863  -14.5566 C   0  0  0  0  0  0  0  0  0  0  0  0
   19.8429  -20.6105  -15.1633 C   0  0  0  0  0  0  0  0  0  0  0  0
   21.1871  -20.3651  -15.3071 C   0  0  0  0  0  0  0  0  0  0  0  0
   23.4522  -21.4293  -17.3599 C   0  0  0  0  0  0  0  0  0  0  0  0
   22.4155  -22.1470  -17.9004 O   0  0  0  0  0  0  0  0  0  0  0  0
   23.8475  -20.3981  -17.9710 O   0  0  0  0  0  0  0  0  0  0  0  0
  2  1  1  1
  3  2  1  0
  4  5  2  0
  4  3  1  0
  6  5  1  0
  7 12  2  0
  7  6  1  0
  8  7  1  0
  9 10  1  0
  9  8  2  0
 10 11  2  0
 11 12  1  0
 12  4  1  0
 13  2  1  0
 14 13  2  0
 15 13  1  0
 16 22  1  0
 16 15  1  0
 16 17  1  1
 18 17  1  0
 19 18  1  0
 20 19  1  0
 21 20  1  0
 22 23  2  0
 24 25  1  0
 24 22  1  0
 25 26  1  1
 25 33  1  0
 26 27  1  0
 27 28  2  0
 28 29  1  0
 30 29  2  0
 31 30  1  0
 32 27  1  0
 32 31  2  0
 33 35  2  0
 33 34  1  0
M  END
$$$$
