WKF.pdb
     RDKit          3D

 35 37  0  0  1  0  0  0  0  0999 V2000
   27.7542  -21.0639  -12.0086 N   0  0  0  0  0  0  0  0  0  0  0  0
   26.5706  -21.4755  -11.2897 C   0  0  1  0  0  0  0  0  0  0  0  0
   26.4296  -20.7199   -9.9879 C   0  0  0  0  0  0  0  0  0  0  0  0
   27.6815  -20.8062   -9.2237 C   0  0  0  0  0  0  0  0  0  0  0  0
   28.9093  -21.2370   -9.7175 C   0  0  0  0  0  0  0  0  0  0  0  0
   29.8359  -21.1579   -8.7558 N   0  0  0  0  0  0  0  0  0  0  0  0
   29.2320  -20.6891   -7.6609 C   0  0  0  0  0  0  0  0  0  0  0  0
   29.7420  -20.4395   -6.4087 C   0  0  0  0  0  0  0  0  0  0  0  0
   28.9307  -19.9636   -5.4066 C   0  0  0  0  0  0  0  0  0  0  0  0
   27.5988  -19.7427   -5.6804 C   0  0  0  0  0  0  0  0  0  0  0  0
   27.0508  -19.9805   -6.9236 C   0  0  0  0  0  0  0  0  0  0  0  0
   27.8824  -20.4577   -7.9182 C   0  0  0  0  0  0  0  0  0  0  0  0
   25.4237  -21.1202  -12.2069 C   0  0  0  0  0  0  0  0  0  0  0  0
   24.7377  -20.0791  -12.0756 O   0  0  0  0  0  0  0  0  0  0  0  0
   25.1458  -22.0387  -13.2522 N   0  0  0  0  0  0  0  0  0  0  0  0
   23.9957  -21.8326  -14.1751 C   0  0  1  0  0  0  0  0  0  0  0  0
   24.3545  -22.6529  -15.3813 C   0  0  0  0  0  0  0  0  0  0  0  0
   24.5348  -24.1052  -15.1646 C   0  0  0  0  0  0  0  0  0  0  0  0
   25.0801  -24.8457  -16.3593 C   0  0  0  0  0  0  0  0  0  0  0  0
   25.2765  -26.3240  -16.0616 C   0  0  0  0  0  0  0  0  0  0  0  0
   25.8546  -26.9058  -17.2657 N   0  0  0  0  0  0  0  0  0  0  0  0
   22.7543  -22.2082  -13.4980 C   0  0  0  0  0  0  0  0  0  0  0  0
   22.8568  -22.7243  -12.3219 O   0  0  0  0  0  0  0  0  0  0  0  0
   21.4543  -22.0467  -14.0313 N   0  0  0  0  0  0  0  0  0  0  0  0
   20.4527  -21.2665  -13.2889 C   0  0  1  0  0  0  0  0  0  0  0  0
   21.0684  -19.9840  -12.8165 C   0  0  0  0  0  0  0  0  0  0  0  0
   20.0598  -19.1646  -12.1171 C   0  0  0  0  0  0  0  0  0  0  0  0
   19.6273  -19.6137  -10.8759 C   0  0  0  0  0  0  0  0  0  0  0  0
   18.7076  -18.8870  -10.1472 C   0  0  0  0  0  0  0  0  0  0  0  0
   18.2434  -17.7286  -10.6788 C   0  0  0  0  0  0  0  0  0  0  0  0
   18.6632  -17.2615  -11.9168 C   0  0  0  0  0  0  0  0  0  0  0  0
   19.5785  -17.9872  -12.6401 C   0  0  0  0  0  0  0  0  0  0  0  0
   19.3080  -21.0297  -14.1703 C   0  0  0  0  0  0  0  0  0  0  0  0
   19.4633  -20.5549  -15.4480 O   0  0  0  0  0  0  0  0  0  0  0  0
   18.1381  -21.2611  -13.7570 O   0  0  0  0  0  0  0  0  0  0  0  0
  2  1  1  6
  3  2  1  0
  4  5  2  0
  4  3  1  0
  6  5  1  0
  7 12  2  0
  7  6  1  0
  8  7  1  0
  9 10  1  0
  9  8  2  0
 10 11  2  0
 11 12  1  0
 12  4  1  0
 13  2  1  0
 14 13  2  0
 15 13  1  0
 16 22  1  0
 16 15  1  0
 16 17  1  6
 18 17  1  0
 19 18  1  0
 20 19  1  0
 21 20  1  0
 22 23  2  0
 24 25  1  0
 24 22  1  0
 25 26  1  6
 25 33  1  0
 26 27  1  0
 27 28  2  0
 28 29  1  0
 30 29  2  0
 31 30  1  0
 32 27  1  0
 32 31  2  0
 33 35  2  0
 33 34  1  0
M  END
$$$$
