WKF.pdb
     RDKit          3D

 35 37  0  0  1  0  0  0  0  0999 V2000
   21.1140  -22.0333  -13.8808 N   0  0  0  0  0  0  0  0  0  0  0  0
   21.7974  -20.9530  -13.2077 C   0  0  1  0  0  0  0  0  0  0  0  0
   21.1620  -20.6522  -11.8692 C   0  0  0  0  0  0  0  0  0  0  0  0
   19.8928  -19.9395  -12.0692 C   0  0  0  0  0  0  0  0  0  0  0  0
   18.6256  -20.4342  -11.7751 C   0  0  0  0  0  0  0  0  0  0  0  0
   17.7027  -19.5070  -12.0547 N   0  0  0  0  0  0  0  0  0  0  0  0
   18.3469  -18.4340  -12.5205 C   0  0  0  0  0  0  0  0  0  0  0  0
   17.8533  -17.2268  -12.9557 C   0  0  0  0  0  0  0  0  0  0  0  0
   18.7036  -16.2493  -13.4141 C   0  0  0  0  0  0  0  0  0  0  0  0
   20.0577  -16.5024  -13.4299 C   0  0  0  0  0  0  0  0  0  0  0  0
   20.5905  -17.7001  -13.0010 C   0  0  0  0  0  0  0  0  0  0  0  0
   19.7198  -18.6700  -12.5428 C   0  0  0  0  0  0  0  0  0  0  0  0
   23.2036  -21.4635  -12.9960 C   0  0  0  0  0  0  0  0  0  0  0  0
   23.4607  -22.6377  -12.6399 O   0  0  0  0  0  0  0  0  0  0  0  0
   24.2515  -20.5338  -13.2223 N   0  0  0  0  0  0  0  0  0  0  0  0
   25.6433  -20.8157  -12.7747 C   0  0  1  0  0  0  0  0  0  0  0  0
   26.4823  -19.9002  -13.6199 C   0  0  0  0  0  0  0  0  0  0  0  0
   27.9206  -20.2300  -13.7262 C   0  0  0  0  0  0  0  0  0  0  0  0
   28.2222  -21.3966  -14.6323 C   0  0  0  0  0  0  0  0  0  0  0  0
   29.6919  -21.7838  -14.5784 C   0  0  0  0  0  0  0  0  0  0  0  0
   29.8265  -22.9765  -15.4042 N   0  0  0  0  0  0  0  0  0  0  0  0
   25.7409  -20.6125  -11.3291 C   0  0  0  0  0  0  0  0  0  0  0  0
   25.0175  -19.6786  -10.8146 O   0  0  0  0  0  0  0  0  0  0  0  0
   26.5626  -21.3612  -10.4547 N   0  0  0  0  0  0  0  0  0  0  0  0
   26.7153  -20.9372   -9.0548 C   0  0  1  0  0  0  0  0  0  0  0  0
   28.0556  -21.3731   -8.5441 C   0  0  0  0  0  0  0  0  0  0  0  0
   28.2970  -20.8046   -7.2038 C   0  0  0  0  0  0  0  0  0  0  0  0
   27.4675  -21.2316   -6.1748 C   0  0  0  0  0  0  0  0  0  0  0  0
   27.6494  -20.7680   -4.8875 C   0  0  0  0  0  0  0  0  0  0  0  0
   28.6571  -19.8885   -4.6619 C   0  0  0  0  0  0  0  0  0  0  0  0
   29.4978  -19.4498   -5.6757 C   0  0  0  0  0  0  0  0  0  0  0  0
   29.3142  -19.9128   -6.9562 C   0  0  0  0  0  0  0  0  0  0  0  0
   26.5552  -19.4832   -8.9941 C   0  0  0  0  0  0  0  0  0  0  0  0
   27.3024  -18.6388   -9.7755 O   0  0  0  0  0  0  0  0  0  0  0  0
   25.7120  -18.9762   -8.2036 O   0  0  0  0  0  0  0  0  0  0  0  0
  2  1  1  1
  3  2  1  0
  4  5  2  0
  4  3  1  0
  6  5  1  0
  7 12  2  0
  7  6  1  0
  8  7  1  0
  9 10  1  0
  9  8  2  0
 10 11  2  0
 11 12  1  0
 12  4  1  0
 13  2  1  0
 14 13  2  0
 15 13  1  0
 16 22  1  0
 16 15  1  0
 16 17  1  6
 18 17  1  0
 19 18  1  0
 20 19  1  0
 21 20  1  0
 22 23  2  0
 24 25  1  0
 24 22  1  0
 25 26  1  6
 25 33  1  0
 26 27  1  0
 27 28  2  0
 28 29  1  0
 30 29  2  0
 31 30  1  0
 32 27  1  0
 32 31  2  0
 33 35  2  0
 33 34  1  0
M  END
$$$$
