WKF.pdb
     RDKit          3D

 35 37  0  0  1  0  0  0  0  0999 V2000
   27.2090  -18.9151  -10.6136 N   0  0  0  0  0  0  0  0  0  0  0  0
   27.0835  -20.2468  -11.1593 C   0  0  1  0  0  0  0  0  0  0  0  0
   26.4455  -21.1891  -10.1640 C   0  0  0  0  0  0  0  0  0  0  0  0
   26.6219  -20.6686   -8.8014 C   0  0  0  0  0  0  0  0  0  0  0  0
   25.6363  -20.0656   -8.0257 C   0  0  0  0  0  0  0  0  0  0  0  0
   26.1387  -19.7410   -6.8291 N   0  0  0  0  0  0  0  0  0  0  0  0
   27.4192  -20.1198   -6.8207 C   0  0  0  0  0  0  0  0  0  0  0  0
   28.3699  -19.9997   -5.8347 C   0  0  0  0  0  0  0  0  0  0  0  0
   29.6513  -20.4515   -6.0416 C   0  0  0  0  0  0  0  0  0  0  0  0
   29.9643  -21.0253   -7.2542 C   0  0  0  0  0  0  0  0  0  0  0  0
   29.0383  -21.1640   -8.2670 C   0  0  0  0  0  0  0  0  0  0  0  0
   27.7553  -20.7047   -8.0398 C   0  0  0  0  0  0  0  0  0  0  0  0
   26.1753  -20.0852  -12.3560 C   0  0  0  0  0  0  0  0  0  0  0  0
   25.1404  -19.3781  -12.3411 O   0  0  0  0  0  0  0  0  0  0  0  0
   26.5514  -20.7866  -13.5308 N   0  0  0  0  0  0  0  0  0  0  0  0
   25.7701  -20.6554  -14.7914 C   0  0  1  0  0  0  0  0  0  0  0  0
   26.7908  -20.8842  -15.8695 C   0  0  0  0  0  0  0  0  0  0  0  0
   27.5363  -19.6957  -16.3386 C   0  0  0  0  0  0  0  0  0  0  0  0
   28.4379  -19.9570  -17.5183 C   0  0  0  0  0  0  0  0  0  0  0  0
   29.0248  -18.6682  -18.0726 C   0  0  0  0  0  0  0  0  0  0  0  0
   29.8370  -19.0539  -19.2191 N   0  0  0  0  0  0  0  0  0  0  0  0
   24.6482  -21.5942  -14.7694 C   0  0  0  0  0  0  0  0  0  0  0  0
   24.8454  -22.7357  -14.2053 O   0  0  0  0  0  0  0  0  0  0  0  0
   23.3671  -21.3460  -15.3149 N   0  0  0  0  0  0  0  0  0  0  0  0
   22.1741  -21.4765  -14.4647 C   0  0  1  0  0  0  0  0  0  0  0  0
   22.3683  -20.6848  -13.2067 C   0  0  0  0  0  0  0  0  0  0  0  0
   21.1829  -20.8153  -12.3374 C   0  0  0  0  0  0  0  0  0  0  0  0
   20.5291  -19.6442  -11.9762 C   0  0  0  0  0  0  0  0  0  0  0  0
   19.3957  -19.6863  -11.1897 C   0  0  0  0  0  0  0  0  0  0  0  0
   18.9445  -20.8994  -10.7840 C   0  0  0  0  0  0  0  0  0  0  0  0
   19.5823  -22.0816  -11.1345 C   0  0  0  0  0  0  0  0  0  0  0  0
   20.7105  -22.0367  -11.9173 C   0  0  0  0  0  0  0  0  0  0  0  0
   21.0130  -21.0134  -15.2268 C   0  0  0  0  0  0  0  0  0  0  0  0
   19.7957  -21.6406  -15.1451 O   0  0  0  0  0  0  0  0  0  0  0  0
   21.1192  -20.0118  -15.9873 O   0  0  0  0  0  0  0  0  0  0  0  0
  2  1  1  1
  3  2  1  0
  4  5  2  0
  4  3  1  0
  6  5  1  0
  7 12  2  0
  7  6  1  0
  8  7  1  0
  9 10  1  0
  9  8  2  0
 10 11  2  0
 11 12  1  0
 12  4  1  0
 13  2  1  0
 14 13  2  0
 15 13  1  0
 16 22  1  0
 16 15  1  0
 16 17  1  6
 18 17  1  0
 19 18  1  0
 20 19  1  0
 21 20  1  0
 22 23  2  0
 24 25  1  0
 24 22  1  0
 25 26  1  1
 25 33  1  0
 26 27  1  0
 27 28  2  0
 28 29  1  0
 30 29  2  0
 31 30  1  0
 32 27  1  0
 32 31  2  0
 33 35  2  0
 33 34  1  0
M  END
$$$$
