WKF.pdb
     RDKit          3D

 35 37  0  0  1  0  0  0  0  0999 V2000
   27.6437  -19.3317  -10.4157 N   0  0  0  0  0  0  0  0  0  0  0  0
   26.9974  -20.5586  -10.0109 C   0  0  1  0  0  0  0  0  0  0  0  0
   26.4804  -20.4638   -8.5934 C   0  0  0  0  0  0  0  0  0  0  0  0
   27.5307  -19.9319   -7.7145 C   0  0  0  0  0  0  0  0  0  0  0  0
   28.5049  -19.0064   -8.0771 C   0  0  0  0  0  0  0  0  0  0  0  0
   29.2763  -18.7253   -7.0209 N   0  0  0  0  0  0  0  0  0  0  0  0
   28.8212  -19.4475   -5.9940 C   0  0  0  0  0  0  0  0  0  0  0  0
   29.2747  -19.5251   -4.6983 C   0  0  0  0  0  0  0  0  0  0  0  0
   28.6591  -20.3544   -3.7916 C   0  0  0  0  0  0  0  0  0  0  0  0
   27.5813  -21.1058   -4.2057 C   0  0  0  0  0  0  0  0  0  0  0  0
   27.0970  -21.0547   -5.4961 C   0  0  0  0  0  0  0  0  0  0  0  0
   27.7284  -20.2144   -6.3927 C   0  0  0  0  0  0  0  0  0  0  0  0
   25.8346  -20.7102  -10.9637 C   0  0  0  0  0  0  0  0  0  0  0  0
   24.9474  -19.8363  -11.1077 O   0  0  0  0  0  0  0  0  0  0  0  0
   25.7854  -21.9162  -11.7099 N   0  0  0  0  0  0  0  0  0  0  0  0
   24.8400  -22.0813  -12.8482 C   0  0  1  0  0  0  0  0  0  0  0  0
   25.1422  -23.4584  -13.3664 C   0  0  0  0  0  0  0  0  0  0  0  0
   24.5430  -23.8220  -14.6692 C   0  0  0  0  0  0  0  0  0  0  0  0
   25.1707  -23.1311  -15.8530 C   0  0  0  0  0  0  0  0  0  0  0  0
   24.5102  -23.5440  -17.1591 C   0  0  0  0  0  0  0  0  0  0  0  0
   24.7894  -24.9647  -17.3221 N   0  0  0  0  0  0  0  0  0  0  0  0
   23.4708  -21.8653  -12.3799 C   0  0  0  0  0  0  0  0  0  0  0  0
   23.1370  -22.4111  -11.2615 O   0  0  0  0  0  0  0  0  0  0  0  0
   22.4890  -21.1038  -13.0557 N   0  0  0  0  0  0  0  0  0  0  0  0
   21.1346  -20.9952  -12.4930 C   0  0  1  0  0  0  0  0  0  0  0  0
   20.9478  -19.6312  -11.9000 C   0  0  0  0  0  0  0  0  0  0  0  0
   19.5096  -19.3236  -11.7784 C   0  0  0  0  0  0  0  0  0  0  0  0
   18.8759  -19.7076  -10.6036 C   0  0  0  0  0  0  0  0  0  0  0  0
   17.5391  -19.4287  -10.4030 C   0  0  0  0  0  0  0  0  0  0  0  0
   16.8695  -18.7723  -11.3831 C   0  0  0  0  0  0  0  0  0  0  0  0
   17.4841  -18.3789  -12.5641 C   0  0  0  0  0  0  0  0  0  0  0  0
   18.8148  -18.6581  -12.7612 C   0  0  0  0  0  0  0  0  0  0  0  0
   20.1697  -21.2623  -13.5611 C   0  0  0  0  0  0  0  0  0  0  0  0
   18.9404  -21.8151  -13.3055 O   0  0  0  0  0  0  0  0  0  0  0  0
   20.4629  -20.9845  -14.7569 O   0  0  0  0  0  0  0  0  0  0  0  0
  2  1  1  6
  3  2  1  0
  4  5  2  0
  4  3  1  0
  6  5  1  0
  7 12  2  0
  7  6  1  0
  8  7  1  0
  9 10  1  0
  9  8  2  0
 10 11  2  0
 11 12  1  0
 12  4  1  0
 13  2  1  0
 14 13  2  0
 15 13  1  0
 16 22  1  0
 16 15  1  0
 16 17  1  1
 18 17  1  0
 19 18  1  0
 20 19  1  0
 21 20  1  0
 22 23  2  0
 24 25  1  0
 24 22  1  0
 25 26  1  6
 25 33  1  0
 26 27  1  0
 27 28  2  0
 28 29  1  0
 30 29  2  0
 31 30  1  0
 32 27  1  0
 32 31  2  0
 33 35  2  0
 33 34  1  0
M  END
$$$$
