WKF.pdb
     RDKit          3D

 35 37  0  0  1  0  0  0  0  0999 V2000
   21.1748  -21.3835  -13.2010 N   0  0  0  0  0  0  0  0  0  0  0  0
   21.9716  -20.2214  -12.8821 C   0  0  1  0  0  0  0  0  0  0  0  0
   21.8826  -19.8826  -11.4114 C   0  0  0  0  0  0  0  0  0  0  0  0
   20.5109  -19.4769  -11.0757 C   0  0  0  0  0  0  0  0  0  0  0  0
   19.7336  -20.0043  -10.0488 C   0  0  0  0  0  0  0  0  0  0  0  0
   18.5504  -19.3812  -10.0122 N   0  0  0  0  0  0  0  0  0  0  0  0
   18.5512  -18.4708  -10.9891 C   0  0  0  0  0  0  0  0  0  0  0  0
   17.5717  -17.5857  -11.3731 C   0  0  0  0  0  0  0  0  0  0  0  0
   17.7778  -16.7316  -12.4299 C   0  0  0  0  0  0  0  0  0  0  0  0
   18.9824  -16.7801  -13.0964 C   0  0  0  0  0  0  0  0  0  0  0  0
   19.9891  -17.6533  -12.7406 C   0  0  0  0  0  0  0  0  0  0  0  0
   19.7635  -18.5032  -11.6751 C   0  0  0  0  0  0  0  0  0  0  0  0
   23.3875  -20.6238  -13.2230 C   0  0  0  0  0  0  0  0  0  0  0  0
   23.8752  -21.7385  -12.9214 O   0  0  0  0  0  0  0  0  0  0  0  0
   24.1653  -19.6615  -13.9177 N   0  0  0  0  0  0  0  0  0  0  0  0
   25.5225  -19.9925  -14.4329 C   0  0  1  0  0  0  0  0  0  0  0  0
   25.7561  -18.9687  -15.5070 C   0  0  0  0  0  0  0  0  0  0  0  0
   25.1169  -19.2248  -16.8163 C   0  0  0  0  0  0  0  0  0  0  0  0
   25.3775  -18.1596  -17.8508 C   0  0  0  0  0  0  0  0  0  0  0  0
   24.5800  -18.4047  -19.1222 C   0  0  0  0  0  0  0  0  0  0  0  0
   25.4659  -19.1320  -20.0215 N   0  0  0  0  0  0  0  0  0  0  0  0
   26.4797  -19.9820  -13.3265 C   0  0  0  0  0  0  0  0  0  0  0  0
   26.5435  -18.9118  -12.6120 O   0  0  0  0  0  0  0  0  0  0  0  0
   27.3358  -21.0530  -12.9795 N   0  0  0  0  0  0  0  0  0  0  0  0
   28.3319  -20.8748  -11.9123 C   0  0  1  0  0  0  0  0  0  0  0  0
   28.0522  -21.8415  -10.8013 C   0  0  0  0  0  0  0  0  0  0  0  0
   27.4445  -21.1363   -9.6563 C   0  0  0  0  0  0  0  0  0  0  0  0
   26.0573  -21.1166   -9.5870 C   0  0  0  0  0  0  0  0  0  0  0  0
   25.4154  -20.5025   -8.5307 C   0  0  0  0  0  0  0  0  0  0  0  0
   26.1775  -19.9232   -7.5698 C   0  0  0  0  0  0  0  0  0  0  0  0
   27.5648  -19.9324   -7.6194 C   0  0  0  0  0  0  0  0  0  0  0  0
   28.2012  -20.5442   -8.6722 C   0  0  0  0  0  0  0  0  0  0  0  0
   29.6633  -21.0750  -12.4872 C   0  0  0  0  0  0  0  0  0  0  0  0
   30.8063  -20.8702  -11.7567 O   0  0  0  0  0  0  0  0  0  0  0  0
   29.7801  -21.4437  -13.6886 O   0  0  0  0  0  0  0  0  0  0  0  0
  2  1  1  1
  3  2  1  0
  4  5  2  0
  4  3  1  0
  6  5  1  0
  7 12  2  0
  7  6  1  0
  8  7  1  0
  9 10  1  0
  9  8  2  0
 10 11  2  0
 11 12  1  0
 12  4  1  0
 13  2  1  0
 14 13  2  0
 15 13  1  0
 16 22  1  0
 16 15  1  0
 16 17  1  6
 18 17  1  0
 19 18  1  0
 20 19  1  0
 21 20  1  0
 22 23  2  0
 24 25  1  0
 24 22  1  0
 25 26  1  1
 25 33  1  0
 26 27  1  0
 27 28  2  0
 28 29  1  0
 30 29  2  0
 31 30  1  0
 32 27  1  0
 32 31  2  0
 33 35  2  0
 33 34  1  0
M  END
$$$$
