WKF.pdb
     RDKit          3D

 35 37  0  0  1  0  0  0  0  0999 V2000
   24.4425  -26.3610  -16.5384 N   0  0  0  0  0  0  0  0  0  0  0  0
   23.9720  -25.0022  -16.3993 C   0  0  1  0  0  0  0  0  0  0  0  0
   22.7192  -24.9397  -15.5554 C   0  0  0  0  0  0  0  0  0  0  0  0
   21.5626  -25.3803  -16.3472 C   0  0  0  0  0  0  0  0  0  0  0  0
   20.9553  -26.6305  -16.2761 C   0  0  0  0  0  0  0  0  0  0  0  0
   19.9137  -26.6750  -17.1144 N   0  0  0  0  0  0  0  0  0  0  0  0
   19.8407  -25.4869  -17.7196 C   0  0  0  0  0  0  0  0  0  0  0  0
   18.9584  -25.0326  -18.6712 C   0  0  0  0  0  0  0  0  0  0  0  0
   19.0716  -23.7599  -19.1773 C   0  0  0  0  0  0  0  0  0  0  0  0
   20.0850  -22.9498  -18.7140 C   0  0  0  0  0  0  0  0  0  0  0  0
   20.9885  -23.3693  -17.7601 C   0  0  0  0  0  0  0  0  0  0  0  0
   20.8579  -24.6516  -17.2628 C   0  0  0  0  0  0  0  0  0  0  0  0
   25.0945  -24.2798  -15.6914 C   0  0  0  0  0  0  0  0  0  0  0  0
   25.8735  -24.8437  -14.8872 O   0  0  0  0  0  0  0  0  0  0  0  0
   25.2352  -22.8979  -15.9813 N   0  0  0  0  0  0  0  0  0  0  0  0
   26.2827  -22.0731  -15.3184 C   0  0  1  0  0  0  0  0  0  0  0  0
   26.5354  -20.9625  -16.2979 C   0  0  0  0  0  0  0  0  0  0  0  0
   27.4913  -19.9143  -15.8783 C   0  0  0  0  0  0  0  0  0  0  0  0
   27.7916  -18.8894  -16.9423 C   0  0  0  0  0  0  0  0  0  0  0  0
   28.7354  -17.8113  -16.4327 C   0  0  0  0  0  0  0  0  0  0  0  0
   28.9715  -16.9158  -17.5574 N   0  0  0  0  0  0  0  0  0  0  0  0
   25.8127  -21.6589  -13.9962 C   0  0  0  0  0  0  0  0  0  0  0  0
   24.5686  -21.3425  -13.8850 O   0  0  0  0  0  0  0  0  0  0  0  0
   26.6144  -21.5821  -12.8336 N   0  0  0  0  0  0  0  0  0  0  0  0
   26.0269  -21.1064  -11.5721 C   0  0  1  0  0  0  0  0  0  0  0  0
   27.1059  -20.9620  -10.5416 C   0  0  0  0  0  0  0  0  0  0  0  0
   26.5172  -20.5962   -9.2387 C   0  0  0  0  0  0  0  0  0  0  0  0
   26.7617  -19.3116   -8.7704 C   0  0  0  0  0  0  0  0  0  0  0  0
   26.2210  -18.8852   -7.5742 C   0  0  0  0  0  0  0  0  0  0  0  0
   25.4489  -19.7550   -6.8762 C   0  0  0  0  0  0  0  0  0  0  0  0
   25.1914  -21.0426   -7.3268 C   0  0  0  0  0  0  0  0  0  0  0  0
   25.7312  -21.4644   -8.5177 C   0  0  0  0  0  0  0  0  0  0  0  0
   25.3469  -19.8360  -11.8313 C   0  0  0  0  0  0  0  0  0  0  0  0
   25.9331  -18.8373  -12.5667 O   0  0  0  0  0  0  0  0  0  0  0  0
   24.1892  -19.6372  -11.3695 O   0  0  0  0  0  0  0  0  0  0  0  0
  2  1  1  1
  3  2  1  0
  4  5  2  0
  4  3  1  0
  6  5  1  0
  7 12  2  0
  7  6  1  0
  8  7  1  0
  9 10  1  0
  9  8  2  0
 10 11  2  0
 11 12  1  0
 12  4  1  0
 13  2  1  0
 14 13  2  0
 15 13  1  0
 16 22  1  0
 16 15  1  0
 16 17  1  6
 18 17  1  0
 19 18  1  0
 20 19  1  0
 21 20  1  0
 22 23  2  0
 24 25  1  0
 24 22  1  0
 25 26  1  1
 25 33  1  0
 26 27  1  0
 27 28  2  0
 28 29  1  0
 30 29  2  0
 31 30  1  0
 32 27  1  0
 32 31  2  0
 33 35  2  0
 33 34  1  0
M  END
$$$$
