WKF.pdb
     RDKit          3D

 35 37  0  0  1  0  0  0  0  0999 V2000
   26.6418  -18.4924   -8.5594 N   0  0  0  0  0  0  0  0  0  0  0  0
   26.9951  -19.8462   -8.9193 C   0  0  1  0  0  0  0  0  0  0  0  0
   26.4657  -20.8379   -7.9084 C   0  0  0  0  0  0  0  0  0  0  0  0
   26.9343  -20.4766   -6.5636 C   0  0  0  0  0  0  0  0  0  0  0  0
   26.1314  -20.0619   -5.5052 C   0  0  0  0  0  0  0  0  0  0  0  0
   26.8870  -19.8454   -4.4227 N   0  0  0  0  0  0  0  0  0  0  0  0
   28.1511  -20.1098   -4.7622 C   0  0  0  0  0  0  0  0  0  0  0  0
   29.3022  -20.0305   -4.0144 C   0  0  0  0  0  0  0  0  0  0  0  0
   30.5196  -20.3404   -4.5716 C   0  0  0  0  0  0  0  0  0  0  0  0
   30.5643  -20.7305   -5.8921 C   0  0  0  0  0  0  0  0  0  0  0  0
   29.4319  -20.8227   -6.6740 C   0  0  0  0  0  0  0  0  0  0  0  0
   28.2173  -20.5081   -6.0957 C   0  0  0  0  0  0  0  0  0  0  0  0
   26.3215  -20.0753  -10.2523 C   0  0  0  0  0  0  0  0  0  0  0  0
   25.1713  -19.6551  -10.5207 O   0  0  0  0  0  0  0  0  0  0  0  0
   27.0641  -20.8065  -11.2153 N   0  0  0  0  0  0  0  0  0  0  0  0
   26.7627  -20.6953  -12.6692 C   0  0  1  0  0  0  0  0  0  0  0  0
   27.9155  -21.3982  -13.3275 C   0  0  0  0  0  0  0  0  0  0  0  0
   27.8618  -21.5217  -14.8007 C   0  0  0  0  0  0  0  0  0  0  0  0
   28.0416  -20.2188  -15.5376 C   0  0  0  0  0  0  0  0  0  0  0  0
   28.0818  -20.4266  -17.0435 C   0  0  0  0  0  0  0  0  0  0  0  0
   28.2898  -19.1084  -17.6283 N   0  0  0  0  0  0  0  0  0  0  0  0
   25.4391  -21.2583  -12.9370 C   0  0  0  0  0  0  0  0  0  0  0  0
   25.2534  -22.4974  -12.6366 O   0  0  0  0  0  0  0  0  0  0  0  0
   24.3499  -20.5496  -13.4955 N   0  0  0  0  0  0  0  0  0  0  0  0
   23.0766  -21.2433  -13.7406 C   0  0  1  0  0  0  0  0  0  0  0  0
   21.9372  -20.3139  -13.4492 C   0  0  0  0  0  0  0  0  0  0  0  0
   20.6535  -20.9719  -13.7608 C   0  0  0  0  0  0  0  0  0  0  0  0
   20.0761  -20.6857  -14.9913 C   0  0  0  0  0  0  0  0  0  0  0  0
   18.8909  -21.2847  -15.3675 C   0  0  0  0  0  0  0  0  0  0  0  0
   18.3128  -22.1554  -14.5030 C   0  0  0  0  0  0  0  0  0  0  0  0
   18.8735  -22.4561  -13.2692 C   0  0  0  0  0  0  0  0  0  0  0  0
   20.0533  -21.8581  -12.8971 C   0  0  0  0  0  0  0  0  0  0  0  0
   23.0632  -21.7034  -15.1304 C   0  0  0  0  0  0  0  0  0  0  0  0
   22.4848  -22.8929  -15.4944 O   0  0  0  0  0  0  0  0  0  0  0  0
   23.5975  -20.9986  -16.0309 O   0  0  0  0  0  0  0  0  0  0  0  0
  2  1  1  1
  3  2  1  0
  4  5  2  0
  4  3  1  0
  6  5  1  0
  7 12  2  0
  7  6  1  0
  8  7  1  0
  9 10  1  0
  9  8  2  0
 10 11  2  0
 11 12  1  0
 12  4  1  0
 13  2  1  0
 14 13  2  0
 15 13  1  0
 16 22  1  0
 16 15  1  0
 16 17  1  6
 18 17  1  0
 19 18  1  0
 20 19  1  0
 21 20  1  0
 22 23  2  0
 24 25  1  0
 24 22  1  0
 25 26  1  6
 25 33  1  0
 26 27  1  0
 27 28  2  0
 28 29  1  0
 30 29  2  0
 31 30  1  0
 32 27  1  0
 32 31  2  0
 33 35  2  0
 33 34  1  0
M  END
$$$$
