WKF.pdb
     RDKit          3D

 35 37  0  0  1  0  0  0  0  0999 V2000
   20.7591  -23.5504  -15.0243 N   0  0  0  0  0  0  0  0  0  0  0  0
   21.1929  -22.1783  -15.1520 C   0  0  1  0  0  0  0  0  0  0  0  0
   20.6056  -21.3139  -14.0595 C   0  0  0  0  0  0  0  0  0  0  0  0
   19.2086  -20.9892  -14.3782 C   0  0  0  0  0  0  0  0  0  0  0  0
   18.0875  -21.6706  -13.9138 C   0  0  0  0  0  0  0  0  0  0  0  0
   16.9782  -21.0850  -14.3787 N   0  0  0  0  0  0  0  0  0  0  0  0
   17.3613  -20.0486  -15.1284 C   0  0  0  0  0  0  0  0  0  0  0  0
   16.6065  -19.1408  -15.8333 C   0  0  0  0  0  0  0  0  0  0  0  0
   17.2122  -18.1445  -16.5606 C   0  0  0  0  0  0  0  0  0  0  0  0
   18.5880  -18.0735  -16.5705 C   0  0  0  0  0  0  0  0  0  0  0  0
   19.3788  -18.9649  -15.8759 C   0  0  0  0  0  0  0  0  0  0  0  0
   18.7514  -19.9588  -15.1498 C   0  0  0  0  0  0  0  0  0  0  0  0
   22.6948  -22.2366  -14.9975 C   0  0  0  0  0  0  0  0  0  0  0  0
   23.2695  -22.9589  -14.1493 O   0  0  0  0  0  0  0  0  0  0  0  0
   23.4502  -21.4172  -15.8759 N   0  0  0  0  0  0  0  0  0  0  0  0
   24.9330  -21.3339  -15.7697 C   0  0  1  0  0  0  0  0  0  0  0  0
   25.3744  -21.0242  -17.1718 C   0  0  0  0  0  0  0  0  0  0  0  0
   26.8229  -20.8043  -17.3766 C   0  0  0  0  0  0  0  0  0  0  0  0
   27.2164  -20.5744  -18.8137 C   0  0  0  0  0  0  0  0  0  0  0  0
   28.7112  -20.3322  -18.9544 C   0  0  0  0  0  0  0  0  0  0  0  0
   28.9381  -20.0076  -20.3565 N   0  0  0  0  0  0  0  0  0  0  0  0
   25.2941  -20.3420  -14.7566 C   0  0  0  0  0  0  0  0  0  0  0  0
   24.5132  -19.3263  -14.6210 O   0  0  0  0  0  0  0  0  0  0  0  0
   26.4286  -20.4128  -13.9150 N   0  0  0  0  0  0  0  0  0  0  0  0
   26.7065  -19.3197  -12.9713 C   0  0  1  0  0  0  0  0  0  0  0  0
   27.0374  -19.8928  -11.6263 C   0  0  0  0  0  0  0  0  0  0  0  0
   28.3468  -20.5719  -11.6725 C   0  0  0  0  0  0  0  0  0  0  0  0
   28.4012  -21.8020  -12.3154 C   0  0  0  0  0  0  0  0  0  0  0  0
   29.5957  -22.4847  -12.4258 C   0  0  0  0  0  0  0  0  0  0  0  0
   30.7063  -21.9195  -11.8901 C   0  0  0  0  0  0  0  0  0  0  0  0
   30.6739  -20.6909  -11.2445 C   0  0  0  0  0  0  0  0  0  0  0  0
   29.4834  -20.0137  -11.1358 C   0  0  0  0  0  0  0  0  0  0  0  0
   27.8071  -18.5171  -13.5077 C   0  0  0  0  0  0  0  0  0  0  0  0
   28.4839  -18.8827  -14.6436 O   0  0  0  0  0  0  0  0  0  0  0  0
   28.1575  -17.4573  -12.9186 O   0  0  0  0  0  0  0  0  0  0  0  0
  2  1  1  1
  3  2  1  0
  4  5  2  0
  4  3  1  0
  6  5  1  0
  7 12  2  0
  7  6  1  0
  8  7  1  0
  9 10  1  0
  9  8  2  0
 10 11  2  0
 11 12  1  0
 12  4  1  0
 13  2  1  0
 14 13  2  0
 15 13  1  0
 16 22  1  0
 16 15  1  0
 16 17  1  6
 18 17  1  0
 19 18  1  0
 20 19  1  0
 21 20  1  0
 22 23  2  0
 24 25  1  0
 24 22  1  0
 25 26  1  1
 25 33  1  0
 26 27  1  0
 27 28  2  0
 28 29  1  0
 30 29  2  0
 31 30  1  0
 32 27  1  0
 32 31  2  0
 33 35  2  0
 33 34  1  0
M  END
$$$$
