TGS.pdb
     RDKit          3D

 18 17  0  0  1  0  0  0  0  0999 V2000
   25.1484  -18.6363  -18.0528 C   0  0  0  0  0  0  0  0  0  0  0  0
   26.5104  -18.5504  -18.6888 C   0  0  1  0  0  0  0  0  0  0  0  0
   26.3638  -17.8402  -19.8896 O   0  0  0  0  0  0  0  0  0  0  0  0
   27.4679  -17.7601  -17.8331 C   0  0  2  0  0  0  0  0  0  0  0  0
   28.7096  -17.5641  -18.5155 N   0  0  0  0  0  0  0  0  0  0  0  0
   27.6392  -18.3488  -16.4804 C   0  0  0  0  0  0  0  0  0  0  0  0
   28.2955  -19.3998  -16.3585 O   0  0  0  0  0  0  0  0  0  0  0  0
   27.0761  -17.7519  -15.3054 N   0  0  0  0  0  0  0  0  0  0  0  0
   27.2020  -18.3381  -13.9978 C   0  0  0  0  0  0  0  0  0  0  0  0
   26.2383  -19.4443  -13.7711 C   0  0  0  0  0  0  0  0  0  0  0  0
   25.4574  -19.8872  -14.6351 O   0  0  0  0  0  0  0  0  0  0  0  0
   27.0699  -21.8147  -10.5760 O   0  0  0  0  0  0  0  0  0  0  0  0
   25.7231  -21.5414  -10.6911 C   0  0  0  0  0  0  0  0  0  0  0  0
   25.3538  -21.1346  -12.1173 C   0  0  2  0  0  0  0  0  0  0  0  0
   26.2169  -20.0278  -12.4751 N   0  0  0  0  0  0  0  0  0  0  0  0
   23.9272  -20.7179  -12.1274 C   0  0  0  0  0  0  0  0  0  0  0  0
   22.9009  -21.6482  -12.1815 O   0  0  0  0  0  0  0  0  0  0  0  0
   23.6122  -19.5017  -12.0868 O   0  0  0  0  0  0  0  0  0  0  0  0
  2  3  1  0
  2  1  1  1
  4  2  1  0
  4  5  1  6
  6  4  1  0
  7  6  2  0
  8  6  1  0
  9  8  1  0
 10  9  1  0
 10 15  1  0
 11 10  2  0
 12 13  1  0
 14 13  1  1
 14 15  1  0
 14 16  1  0
 16 18  2  0
 16 17  1  0
M  END
$$$$
