TGS.pdb
     RDKit          3D

 18 17  0  0  1  0  0  0  0  0999 V2000
   23.2671   -9.0065  -14.7219 C   0  0  0  0  0  0  0  0  0  0  0  0
   22.0265   -9.2879  -15.5273 C   0  0  1  0  0  0  0  0  0  0  0  0
   22.3262  -10.3493  -16.3941 O   0  0  0  0  0  0  0  0  0  0  0  0
   20.8941   -9.7545  -14.6476 C   0  0  2  0  0  0  0  0  0  0  0  0
   19.7788  -10.1708  -15.4405 N   0  0  0  0  0  0  0  0  0  0  0  0
   20.5266   -8.7517  -13.6156 C   0  0  0  0  0  0  0  0  0  0  0  0
   21.3429   -8.4872  -12.7136 O   0  0  0  0  0  0  0  0  0  0  0  0
   19.2636   -8.0741  -13.6177 N   0  0  0  0  0  0  0  0  0  0  0  0
   18.9129   -7.0784  -12.6405 C   0  0  0  0  0  0  0  0  0  0  0  0
   17.7057   -7.4444  -11.8579 C   0  0  0  0  0  0  0  0  0  0  0  0
   17.0914   -8.5224  -11.9724 O   0  0  0  0  0  0  0  0  0  0  0  0
   15.4690   -7.9287   -8.0969 O   0  0  0  0  0  0  0  0  0  0  0  0
   16.4737   -7.7336   -9.0212 C   0  0  0  0  0  0  0  0  0  0  0  0
   16.0685   -6.7102  -10.0817 C   0  0  2  0  0  0  0  0  0  0  0  0
   17.2303   -6.4898  -10.9181 N   0  0  0  0  0  0  0  0  0  0  0  0
   15.6690   -5.4570   -9.3900 C   0  0  0  0  0  0  0  0  0  0  0  0
   14.4008   -5.2982   -8.8531 O   0  0  0  0  0  0  0  0  0  0  0  0
   16.4771   -4.5012   -9.2730 O   0  0  0  0  0  0  0  0  0  0  0  0
  2  3  1  0
  2  1  1  1
  4  2  1  0
  4  5  1  6
  6  4  1  0
  7  6  2  0
  8  6  1  0
  9  8  1  0
 10  9  1  0
 10 15  1  0
 11 10  2  0
 12 13  1  0
 14 13  1  1
 14 15  1  0
 14 16  1  0
 16 18  2  0
 16 17  1  0
M  END
$$$$
