TGS.pdb
     RDKit          3D

 18 17  0  0  1  0  0  0  0  0999 V2000
   16.9389  -13.9077  -17.2406 C   0  0  0  0  0  0  0  0  0  0  0  0
   18.0286  -12.8732  -17.3362 C   0  0  1  0  0  0  0  0  0  0  0  0
   17.4245  -11.6686  -17.7258 O   0  0  0  0  0  0  0  0  0  0  0  0
   18.6675  -12.6221  -15.9936 C   0  0  2  0  0  0  0  0  0  0  0  0
   17.6755  -12.2931  -15.0171 N   0  0  0  0  0  0  0  0  0  0  0  0
   19.7625  -11.6213  -16.0641 C   0  0  0  0  0  0  0  0  0  0  0  0
   20.7759  -11.8822  -16.7387 O   0  0  0  0  0  0  0  0  0  0  0  0
   19.6978  -10.3619  -15.3831 N   0  0  0  0  0  0  0  0  0  0  0  0
   20.7214   -9.3583  -15.5035 C   0  0  0  0  0  0  0  0  0  0  0  0
   20.3838   -8.1066  -14.7804 C   0  0  0  0  0  0  0  0  0  0  0  0
   19.2783   -7.8716  -14.2558 O   0  0  0  0  0  0  0  0  0  0  0  0
   22.5696   -4.0614  -13.1279 O   0  0  0  0  0  0  0  0  0  0  0  0
   22.6204   -5.2563  -13.8143 C   0  0  0  0  0  0  0  0  0  0  0  0
   21.2285   -5.8642  -13.9849 C   0  0  2  0  0  0  0  0  0  0  0  0
   21.4014   -7.1183  -14.6887 N   0  0  0  0  0  0  0  0  0  0  0  0
   20.4030   -4.9196  -14.7817 C   0  0  0  0  0  0  0  0  0  0  0  0
   20.4387   -4.9172  -16.1676 O   0  0  0  0  0  0  0  0  0  0  0  0
   19.6452   -4.0921  -14.2151 O   0  0  0  0  0  0  0  0  0  0  0  0
  2  3  1  0
  2  1  1  1
  4  2  1  0
  4  5  1  1
  6  4  1  0
  7  6  2  0
  8  6  1  0
  9  8  1  0
 10  9  1  0
 10 15  1  0
 11 10  2  0
 12 13  1  0
 14 13  1  6
 14 15  1  0
 14 16  1  0
 16 18  2  0
 16 17  1  0
M  END
$$$$
