TGS.pdb
     RDKit          3D

 18 17  0  0  1  0  0  0  0  0999 V2000
   14.0306  -12.4803  -14.8238 C   0  0  0  0  0  0  0  0  0  0  0  0
   14.8868  -11.3546  -15.3400 C   0  0  1  0  0  0  0  0  0  0  0  0
   14.7225  -10.2722  -14.4630 O   0  0  0  0  0  0  0  0  0  0  0  0
   16.3499  -11.7180  -15.3091 C   0  0  2  0  0  0  0  0  0  0  0  0
   16.7412  -12.1216  -13.9939 N   0  0  0  0  0  0  0  0  0  0  0  0
   17.2134  -10.6448  -15.8645 C   0  0  0  0  0  0  0  0  0  0  0  0
   17.1697  -10.4067  -17.0857 O   0  0  0  0  0  0  0  0  0  0  0  0
   18.0985   -9.8697  -15.0460 N   0  0  0  0  0  0  0  0  0  0  0  0
   18.8877   -8.7844  -15.5643 C   0  0  0  0  0  0  0  0  0  0  0  0
   19.7708   -8.1771  -14.5371 C   0  0  0  0  0  0  0  0  0  0  0  0
   19.6831   -8.3956  -13.3136 O   0  0  0  0  0  0  0  0  0  0  0  0
   23.0918   -6.2132  -16.0875 O   0  0  0  0  0  0  0  0  0  0  0  0
   23.1264   -6.8454  -14.8624 C   0  0  0  0  0  0  0  0  0  0  0  0
   21.7915   -6.7195  -14.1288 C   0  0  2  0  0  0  0  0  0  0  0  0
   20.7804   -7.2880  -14.9963 N   0  0  0  0  0  0  0  0  0  0  0  0
   21.5293   -5.2772  -13.8847 C   0  0  0  0  0  0  0  0  0  0  0  0
   22.1548   -4.5909  -12.8554 O   0  0  0  0  0  0  0  0  0  0  0  0
   20.7271   -4.6374  -14.6110 O   0  0  0  0  0  0  0  0  0  0  0  0
  2  3  1  0
  2  1  1  1
  4  2  1  0
  4  5  1  1
  6  4  1  0
  7  6  2  0
  8  6  1  0
  9  8  1  0
 10  9  1  0
 10 15  1  0
 11 10  2  0
 12 13  1  0
 14 13  1  6
 14 15  1  0
 14 16  1  0
 16 18  2  0
 16 17  1  0
M  END
$$$$
