TGS.pdb
     RDKit          3D

 18 17  0  0  1  0  0  0  0  0999 V2000
   24.1476  -12.3130  -15.9192 C   0  0  0  0  0  0  0  0  0  0  0  0
   24.9986  -11.1403  -16.3285 C   0  0  1  0  0  0  0  0  0  0  0  0
   26.2736  -11.6390  -16.6340 O   0  0  0  0  0  0  0  0  0  0  0  0
   24.4747  -10.4932  -17.5858 C   0  0  2  0  0  0  0  0  0  0  0  0
   25.5356   -9.8598  -18.3062 N   0  0  0  0  0  0  0  0  0  0  0  0
   23.3318   -9.5823  -17.3217 C   0  0  0  0  0  0  0  0  0  0  0  0
   22.2869  -10.0510  -16.8333 O   0  0  0  0  0  0  0  0  0  0  0  0
   23.3852   -8.1790  -17.6085 N   0  0  0  0  0  0  0  0  0  0  0  0
   22.2951   -7.2844  -17.3242 C   0  0  0  0  0  0  0  0  0  0  0  0
   22.7311   -6.0610  -16.6052 C   0  0  0  0  0  0  0  0  0  0  0  0
   23.8217   -5.9412  -16.0146 O   0  0  0  0  0  0  0  0  0  0  0  0
   21.7305   -1.3420  -16.3815 O   0  0  0  0  0  0  0  0  0  0  0  0
   21.4606   -2.6109  -16.8493 C   0  0  0  0  0  0  0  0  0  0  0  0
   22.1503   -3.6793  -16.0014 C   0  0  2  0  0  0  0  0  0  0  0  0
   21.8324   -4.9597  -16.5992 N   0  0  0  0  0  0  0  0  0  0  0  0
   21.6138   -3.5932  -14.6181 C   0  0  0  0  0  0  0  0  0  0  0  0
   22.3324   -2.9885  -13.5984 O   0  0  0  0  0  0  0  0  0  0  0  0
   20.4857   -4.0702  -14.3350 O   0  0  0  0  0  0  0  0  0  0  0  0
  2  3  1  0
  2  1  1  6
  4  2  1  0
  4  5  1  1
  6  4  1  0
  7  6  2  0
  8  6  1  0
  9  8  1  0
 10  9  1  0
 10 15  1  0
 11 10  2  0
 12 13  1  0
 14 13  1  6
 14 15  1  0
 14 16  1  0
 16 18  2  0
 16 17  1  0
M  END
$$$$
