TGS.pdb
     RDKit          3D

 18 17  0  0  1  0  0  0  0  0999 V2000
   14.3874   -6.1141   -9.9027 C   0  0  0  0  0  0  0  0  0  0  0  0
   13.9748   -7.3328   -9.1207 C   0  0  1  0  0  0  0  0  0  0  0  0
   12.6016   -7.5198   -9.3373 O   0  0  0  0  0  0  0  0  0  0  0  0
   14.6657   -8.5726   -9.6298 C   0  0  2  0  0  0  0  0  0  0  0  0
   14.1859   -9.7336   -8.9460 N   0  0  0  0  0  0  0  0  0  0  0  0
   16.1456   -8.4527   -9.5955 C   0  0  0  0  0  0  0  0  0  0  0  0
   16.7515   -8.7563   -8.5511 O   0  0  0  0  0  0  0  0  0  0  0  0
   16.9064   -7.9991  -10.7223 N   0  0  0  0  0  0  0  0  0  0  0  0
   18.3396   -7.8784  -10.6962 C   0  0  0  0  0  0  0  0  0  0  0  0
   18.9177   -7.6285  -12.0405 C   0  0  0  0  0  0  0  0  0  0  0  0
   18.4030   -8.0059  -13.1106 O   0  0  0  0  0  0  0  0  0  0  0  0
   19.9866   -4.5304  -14.8247 O   0  0  0  0  0  0  0  0  0  0  0  0
   19.5688   -5.2688  -13.7376 C   0  0  0  0  0  0  0  0  0  0  0  0
   20.6357   -6.2708  -13.2973 C   0  0  2  0  0  0  0  0  0  0  0  0
   20.1421   -6.9083  -12.0940 N   0  0  0  0  0  0  0  0  0  0  0  0
   21.8908   -5.5235  -13.0236 C   0  0  0  0  0  0  0  0  0  0  0  0
   22.8623   -5.3567  -13.9984 O   0  0  0  0  0  0  0  0  0  0  0  0
   22.1055   -5.0195  -11.8922 O   0  0  0  0  0  0  0  0  0  0  0  0
  2  3  1  0
  2  1  1  6
  4  2  1  0
  4  5  1  1
  6  4  1  0
  7  6  2  0
  8  6  1  0
  9  8  1  0
 10  9  1  0
 10 15  1  0
 11 10  2  0
 12 13  1  0
 14 13  1  1
 14 15  1  0
 14 16  1  0
 16 18  2  0
 16 17  1  0
M  END
$$$$
