TGS.pdb
     RDKit          3D

 18 17  0  0  1  0  0  0  0  0999 V2000
   18.8353  -14.7857  -16.3027 C   0  0  0  0  0  0  0  0  0  0  0  0
   19.1121  -13.3743  -16.7482 C   0  0  1  0  0  0  0  0  0  0  0  0
   18.5192  -13.2132  -18.0092 O   0  0  0  0  0  0  0  0  0  0  0  0
   18.4590  -12.3705  -15.8318 C   0  0  2  0  0  0  0  0  0  0  0  0
   17.0531  -12.6154  -15.7364 N   0  0  0  0  0  0  0  0  0  0  0  0
   18.7769  -10.9689  -16.2063 C   0  0  0  0  0  0  0  0  0  0  0  0
   17.9216  -10.2977  -16.8129 O   0  0  0  0  0  0  0  0  0  0  0  0
   20.0349  -10.3567  -15.8953 N   0  0  0  0  0  0  0  0  0  0  0  0
   20.3522   -9.0017  -16.2595 C   0  0  0  0  0  0  0  0  0  0  0  0
   20.3778   -8.0859  -15.0913 C   0  0  0  0  0  0  0  0  0  0  0  0
   19.7964   -8.3045  -14.0112 O   0  0  0  0  0  0  0  0  0  0  0  0
   22.8498   -4.2629  -13.4157 O   0  0  0  0  0  0  0  0  0  0  0  0
   22.5756   -5.1650  -14.4220 C   0  0  0  0  0  0  0  0  0  0  0  0
   21.2685   -5.9135  -14.1629 C   0  0  2  0  0  0  0  0  0  0  0  0
   21.1204   -6.8818  -15.2299 N   0  0  0  0  0  0  0  0  0  0  0  0
   20.1562   -4.9282  -14.1842 C   0  0  0  0  0  0  0  0  0  0  0  0
   19.5901   -4.4487  -13.0131 O   0  0  0  0  0  0  0  0  0  0  0  0
   19.6964   -4.5008  -15.2733 O   0  0  0  0  0  0  0  0  0  0  0  0
  2  3  1  0
  2  1  1  1
  4  2  1  0
  4  5  1  6
  6  4  1  0
  7  6  2  0
  8  6  1  0
  9  8  1  0
 10  9  1  0
 10 15  1  0
 11 10  2  0
 12 13  1  0
 14 13  1  6
 14 15  1  0
 14 16  1  0
 16 18  2  0
 16 17  1  0
M  END
$$$$
