TGS.pdb
     RDKit          3D

 18 17  0  0  1  0  0  0  0  0999 V2000
   27.6411  -18.5065  -15.2775 C   0  0  0  0  0  0  0  0  0  0  0  0
   26.2186  -18.9802  -15.1399 C   0  0  1  0  0  0  0  0  0  0  0  0
   25.6413  -18.9370  -16.4176 O   0  0  0  0  0  0  0  0  0  0  0  0
   26.1590  -20.4171  -14.6867 C   0  0  2  0  0  0  0  0  0  0  0  0
   26.9483  -21.2484  -15.5421 N   0  0  0  0  0  0  0  0  0  0  0  0
   24.7653  -20.9063  -14.5319 C   0  0  0  0  0  0  0  0  0  0  0  0
   24.2926  -21.6656  -15.3979 O   0  0  0  0  0  0  0  0  0  0  0  0
   23.9401  -20.5368  -13.4198 N   0  0  0  0  0  0  0  0  0  0  0  0
   22.5869  -21.0004  -13.2667 C   0  0  0  0  0  0  0  0  0  0  0  0
   21.6221  -20.2341  -14.0948 C   0  0  0  0  0  0  0  0  0  0  0  0
   21.9017  -19.1951  -14.7231 O   0  0  0  0  0  0  0  0  0  0  0  0
   19.2608  -22.0824  -16.3703 O   0  0  0  0  0  0  0  0  0  0  0  0
   18.4582  -21.2626  -15.6052 C   0  0  0  0  0  0  0  0  0  0  0  0
   19.2591  -20.1224  -14.9769 C   0  0  2  0  0  0  0  0  0  0  0  0
   20.2927  -20.7323  -14.1660 N   0  0  0  0  0  0  0  0  0  0  0  0
   18.3368  -19.3133  -14.1382 C   0  0  0  0  0  0  0  0  0  0  0  0
   18.4530  -19.2813  -12.7571 O   0  0  0  0  0  0  0  0  0  0  0  0
   17.4204  -18.6319  -14.6636 O   0  0  0  0  0  0  0  0  0  0  0  0
  2  3  1  0
  2  1  1  6
  4  2  1  0
  4  5  1  6
  6  4  1  0
  7  6  2  0
  8  6  1  0
  9  8  1  0
 10  9  1  0
 10 15  1  0
 11 10  2  0
 12 13  1  0
 14 13  1  1
 14 15  1  0
 14 16  1  0
 16 18  2  0
 16 17  1  0
M  END
$$$$
