TGS.pdb
     RDKit          3D

 18 17  0  0  1  0  0  0  0  0999 V2000
   19.7288  -10.9430  -19.9168 C   0  0  0  0  0  0  0  0  0  0  0  0
   19.7652  -11.8221  -18.6950 C   0  0  1  0  0  0  0  0  0  0  0  0
   20.1008  -13.1149  -19.1236 O   0  0  0  0  0  0  0  0  0  0  0  0
   20.8473  -11.3892  -17.7382 C   0  0  2  0  0  0  0  0  0  0  0  0
   21.0049  -12.3479  -16.6886 N   0  0  0  0  0  0  0  0  0  0  0  0
   20.6389  -10.0084  -17.2325 C   0  0  0  0  0  0  0  0  0  0  0  0
   20.7890   -9.0507  -18.0137 O   0  0  0  0  0  0  0  0  0  0  0  0
   20.2703   -9.7346  -15.8748 N   0  0  0  0  0  0  0  0  0  0  0  0
   19.9936   -8.4065  -15.3961 C   0  0  0  0  0  0  0  0  0  0  0  0
   21.2196   -7.6821  -14.9766 C   0  0  0  0  0  0  0  0  0  0  0  0
   22.3304   -8.2187  -14.8012 O   0  0  0  0  0  0  0  0  0  0  0  0
   21.4984   -3.8196  -16.0305 O   0  0  0  0  0  0  0  0  0  0  0  0
   22.5637   -4.6031  -15.6395 C   0  0  0  0  0  0  0  0  0  0  0  0
   22.2227   -5.4368  -14.4047 C   0  0  2  0  0  0  0  0  0  0  0  0
   21.1024   -6.2814  -14.7646 N   0  0  0  0  0  0  0  0  0  0  0  0
   21.8536   -4.5087  -13.3042 C   0  0  0  0  0  0  0  0  0  0  0  0
   20.5512   -4.4188  -12.8380 O   0  0  0  0  0  0  0  0  0  0  0  0
   22.7199   -3.7755  -12.7636 O   0  0  0  0  0  0  0  0  0  0  0  0
  2  3  1  0
  2  1  1  6
  4  2  1  0
  4  5  1  1
  6  4  1  0
  7  6  2  0
  8  6  1  0
  9  8  1  0
 10  9  1  0
 10 15  1  0
 11 10  2  0
 12 13  1  0
 14 13  1  6
 14 15  1  0
 14 16  1  0
 16 18  2  0
 16 17  1  0
M  END
$$$$
