TGS.pdb
     RDKit          3D

 18 17  0  0  1  0  0  0  0  0999 V2000
   18.9249  -12.6808  -15.3809 C   0  0  0  0  0  0  0  0  0  0  0  0
   18.9331  -12.0203  -16.7339 C   0  0  1  0  0  0  0  0  0  0  0  0
   17.7987  -12.4730  -17.4238 O   0  0  0  0  0  0  0  0  0  0  0  0
   18.7984  -10.5231  -16.6156 C   0  0  2  0  0  0  0  0  0  0  0  0
   18.4955   -9.9424  -17.8872 N   0  0  0  0  0  0  0  0  0  0  0  0
   19.9751   -9.8971  -15.9605 C   0  0  0  0  0  0  0  0  0  0  0  0
   19.9814   -9.7738  -14.7217 O   0  0  0  0  0  0  0  0  0  0  0  0
   21.1082   -9.4277  -16.7021 N   0  0  0  0  0  0  0  0  0  0  0  0
   22.1915   -8.7035  -16.0927 C   0  0  0  0  0  0  0  0  0  0  0  0
   21.9779   -7.2345  -16.1070 C   0  0  0  0  0  0  0  0  0  0  0  0
   21.6052   -6.5859  -17.1035 O   0  0  0  0  0  0  0  0  0  0  0  0
   19.9138   -3.7532  -14.5976 O   0  0  0  0  0  0  0  0  0  0  0  0
   20.3594   -5.0313  -14.8609 C   0  0  0  0  0  0  0  0  0  0  0  0
   21.8755   -5.1405  -14.7002 C   0  0  2  0  0  0  0  0  0  0  0  0
   22.2190   -6.5342  -14.8937 N   0  0  0  0  0  0  0  0  0  0  0  0
   22.2312   -4.6932  -13.3283 C   0  0  0  0  0  0  0  0  0  0  0  0
   22.4207   -5.5998  -12.2968 O   0  0  0  0  0  0  0  0  0  0  0  0
   22.3704   -3.4717  -13.0659 O   0  0  0  0  0  0  0  0  0  0  0  0
  2  3  1  0
  2  1  1  1
  4  2  1  0
  4  5  1  6
  6  4  1  0
  7  6  2  0
  8  6  1  0
  9  8  1  0
 10  9  1  0
 10 15  1  0
 11 10  2  0
 12 13  1  0
 14 13  1  1
 14 15  1  0
 14 16  1  0
 16 18  2  0
 16 17  1  0
M  END
$$$$
