TGS.pdb
     RDKit          3D

 18 17  0  0  1  0  0  0  0  0999 V2000
   20.0168  -13.5968  -18.1060 C   0  0  0  0  0  0  0  0  0  0  0  0
   18.8971  -12.8834  -17.3959 C   0  0  1  0  0  0  0  0  0  0  0  0
   17.9473  -13.8523  -17.0399 O   0  0  0  0  0  0  0  0  0  0  0  0
   19.3740  -12.2529  -16.1118 C   0  0  2  0  0  0  0  0  0  0  0  0
   18.2646  -11.9077  -15.2776 N   0  0  0  0  0  0  0  0  0  0  0  0
   20.2962  -11.1128  -16.3473 C   0  0  0  0  0  0  0  0  0  0  0  0
   21.0794  -11.1599  -17.3139 O   0  0  0  0  0  0  0  0  0  0  0  0
   20.3196   -9.9559  -15.5016 N   0  0  0  0  0  0  0  0  0  0  0  0
   21.3163   -8.9254  -15.6197 C   0  0  0  0  0  0  0  0  0  0  0  0
   21.0942   -7.8028  -14.6741 C   0  0  0  0  0  0  0  0  0  0  0  0
   20.8433   -7.9415  -13.4615 O   0  0  0  0  0  0  0  0  0  0  0  0
   22.3769   -4.1395  -12.7132 O   0  0  0  0  0  0  0  0  0  0  0  0
   22.3532   -5.2537  -13.5254 C   0  0  0  0  0  0  0  0  0  0  0  0
   21.0891   -5.2948  -14.3836 C   0  0  2  0  0  0  0  0  0  0  0  0
   21.1764   -6.4859  -15.2030 N   0  0  0  0  0  0  0  0  0  0  0  0
   21.0604   -4.0723  -15.2282 C   0  0  0  0  0  0  0  0  0  0  0  0
   20.4445   -2.9077  -14.7969 O   0  0  0  0  0  0  0  0  0  0  0  0
   21.5982   -4.0628  -16.3644 O   0  0  0  0  0  0  0  0  0  0  0  0
  2  3  1  0
  2  1  1  1
  4  2  1  0
  4  5  1  6
  6  4  1  0
  7  6  2  0
  8  6  1  0
  9  8  1  0
 10  9  1  0
 10 15  1  0
 11 10  2  0
 12 13  1  0
 14 13  1  1
 14 15  1  0
 14 16  1  0
 16 18  2  0
 16 17  1  0
M  END
$$$$
