TGS.pdb
     RDKit          3D

 18 17  0  0  1  0  0  0  0  0999 V2000
   22.9635  -14.1178  -19.3362 C   0  0  0  0  0  0  0  0  0  0  0  0
   22.9331  -13.2797  -18.0857 C   0  0  1  0  0  0  0  0  0  0  0  0
   24.1876  -12.6630  -17.9687 O   0  0  0  0  0  0  0  0  0  0  0  0
   21.9149  -12.1723  -18.1907 C   0  0  2  0  0  0  0  0  0  0  0  0
   22.1736  -11.3570  -19.3370 N   0  0  0  0  0  0  0  0  0  0  0  0
   21.8006  -11.3854  -16.9364 C   0  0  0  0  0  0  0  0  0  0  0  0
   21.5083  -11.9743  -15.8792 O   0  0  0  0  0  0  0  0  0  0  0  0
   22.0144   -9.9688  -16.8956 N   0  0  0  0  0  0  0  0  0  0  0  0
   22.1113   -9.2313  -15.6643 C   0  0  0  0  0  0  0  0  0  0  0  0
   22.3707   -7.7859  -15.8816 C   0  0  0  0  0  0  0  0  0  0  0  0
   22.8752   -7.3077  -16.9156 O   0  0  0  0  0  0  0  0  0  0  0  0
   20.6088   -3.5890  -15.2895 O   0  0  0  0  0  0  0  0  0  0  0  0
   20.6520   -4.9598  -15.1461 C   0  0  0  0  0  0  0  0  0  0  0  0
   22.0834   -5.4577  -14.9479 C   0  0  2  0  0  0  0  0  0  0  0  0
   22.0138   -6.8996  -14.8291 N   0  0  0  0  0  0  0  0  0  0  0  0
   22.6192   -4.8493  -13.7024 C   0  0  0  0  0  0  0  0  0  0  0  0
   22.5658   -5.5168  -12.4885 O   0  0  0  0  0  0  0  0  0  0  0  0
   23.1387   -3.7047  -13.7176 O   0  0  0  0  0  0  0  0  0  0  0  0
  2  3  1  0
  2  1  1  6
  4  2  1  0
  4  5  1  6
  6  4  1  0
  7  6  2  0
  8  6  1  0
  9  8  1  0
 10  9  1  0
 10 15  1  0
 11 10  2  0
 12 13  1  0
 14 13  1  1
 14 15  1  0
 14 16  1  0
 16 18  2  0
 16 17  1  0
M  END
$$$$
