TGS.pdb
     RDKit          3D

 18 17  0  0  1  0  0  0  0  0999 V2000
   28.3175  -16.5231  -18.1131 C   0  0  0  0  0  0  0  0  0  0  0  0
   26.9015  -16.7992  -17.6825 C   0  0  1  0  0  0  0  0  0  0  0  0
   26.0766  -16.5633  -18.7923 O   0  0  0  0  0  0  0  0  0  0  0  0
   26.7142  -18.2469  -17.3044 C   0  0  2  0  0  0  0  0  0  0  0  0
   25.3265  -18.5934  -17.3093 N   0  0  0  0  0  0  0  0  0  0  0  0
   27.3912  -18.5927  -16.0286 C   0  0  0  0  0  0  0  0  0  0  0  0
   28.6354  -18.5879  -15.9851 O   0  0  0  0  0  0  0  0  0  0  0  0
   26.6650  -18.9330  -14.8407 N   0  0  0  0  0  0  0  0  0  0  0  0
   27.3117  -19.3545  -13.6269 C   0  0  0  0  0  0  0  0  0  0  0  0
   26.5934  -20.4639  -12.9509 C   0  0  0  0  0  0  0  0  0  0  0  0
   26.3979  -21.5870  -13.4536 O   0  0  0  0  0  0  0  0  0  0  0  0
   26.6927  -20.7527   -9.0180 O   0  0  0  0  0  0  0  0  0  0  0  0
   25.3783  -20.7814   -9.4342 C   0  0  0  0  0  0  0  0  0  0  0  0
   25.2669  -21.1468  -10.9141 C   0  0  2  0  0  0  0  0  0  0  0  0
   26.1011  -20.2124  -11.6413 N   0  0  0  0  0  0  0  0  0  0  0  0
   23.8436  -21.0128  -11.3203 C   0  0  0  0  0  0  0  0  0  0  0  0
   22.9140  -22.0027  -11.0415 O   0  0  0  0  0  0  0  0  0  0  0  0
   23.4430  -19.9903  -11.9321 O   0  0  0  0  0  0  0  0  0  0  0  0
  2  3  1  0
  2  1  1  6
  4  2  1  0
  4  5  1  1
  6  4  1  0
  7  6  2  0
  8  6  1  0
  9  8  1  0
 10  9  1  0
 10 15  1  0
 11 10  2  0
 12 13  1  0
 14 13  1  1
 14 15  1  0
 14 16  1  0
 16 18  2  0
 16 17  1  0
M  END
$$$$
