TGS.pdb
     RDKit          3D

 18 17  0  0  1  0  0  0  0  0999 V2000
   17.4520  -12.1416  -18.2370 C   0  0  0  0  0  0  0  0  0  0  0  0
   16.6213  -12.6229  -17.0772 C   0  0  1  0  0  0  0  0  0  0  0  0
   16.5783  -14.0231  -17.1502 O   0  0  0  0  0  0  0  0  0  0  0  0
   17.2664  -12.2783  -15.7585 C   0  0  2  0  0  0  0  0  0  0  0  0
   16.5854  -12.9254  -14.6800 N   0  0  0  0  0  0  0  0  0  0  0  0
   17.4027  -10.8129  -15.5588 C   0  0  0  0  0  0  0  0  0  0  0  0
   16.3854  -10.0980  -15.6228 O   0  0  0  0  0  0  0  0  0  0  0  0
   18.6648  -10.1873  -15.2943 N   0  0  0  0  0  0  0  0  0  0  0  0
   18.7909   -8.7869  -14.9907 C   0  0  0  0  0  0  0  0  0  0  0  0
   20.1902   -8.3889  -14.6952 C   0  0  0  0  0  0  0  0  0  0  0  0
   21.1739   -9.1477  -14.7894 O   0  0  0  0  0  0  0  0  0  0  0  0
   23.5938   -5.8638  -15.5366 O   0  0  0  0  0  0  0  0  0  0  0  0
   22.3324   -6.4209  -15.5484 C   0  0  0  0  0  0  0  0  0  0  0  0
   21.7236   -6.4595  -14.1469 C   0  0  2  0  0  0  0  0  0  0  0  0
   20.4064   -7.0475  -14.2773 N   0  0  0  0  0  0  0  0  0  0  0  0
   21.6331   -5.0652  -13.6406 C   0  0  0  0  0  0  0  0  0  0  0  0
   22.6069   -4.5305  -12.8114 O   0  0  0  0  0  0  0  0  0  0  0  0
   20.6635   -4.3289  -13.9538 O   0  0  0  0  0  0  0  0  0  0  0  0
  2  3  1  0
  2  1  1  6
  4  2  1  0
  4  5  1  1
  6  4  1  0
  7  6  2  0
  8  6  1  0
  9  8  1  0
 10  9  1  0
 10 15  1  0
 11 10  2  0
 12 13  1  0
 14 13  1  6
 14 15  1  0
 14 16  1  0
 16 18  2  0
 16 17  1  0
M  END
$$$$
