TGS.pdb
     RDKit          3D

 18 17  0  0  1  0  0  0  0  0999 V2000
   20.0070  -14.2514  -18.7756 C   0  0  0  0  0  0  0  0  0  0  0  0
   19.5138  -12.8674  -18.4469 C   0  0  1  0  0  0  0  0  0  0  0  0
   18.8093  -12.9541  -17.2370 O   0  0  0  0  0  0  0  0  0  0  0  0
   20.6603  -11.9164  -18.2126 C   0  0  2  0  0  0  0  0  0  0  0  0
   21.5018  -12.3918  -17.1582 N   0  0  0  0  0  0  0  0  0  0  0  0
   20.2047  -10.5186  -18.0020 C   0  0  0  0  0  0  0  0  0  0  0  0
   19.6961   -9.8997  -18.9550 O   0  0  0  0  0  0  0  0  0  0  0  0
   20.3284   -9.8519  -16.7393 N   0  0  0  0  0  0  0  0  0  0  0  0
   19.8920   -8.4975  -16.5282 C   0  0  0  0  0  0  0  0  0  0  0  0
   20.9841   -7.6118  -16.0520 C   0  0  0  0  0  0  0  0  0  0  0  0
   22.1629   -7.9765  -15.8792 O   0  0  0  0  0  0  0  0  0  0  0  0
   21.7744   -2.8875  -15.0672 O   0  0  0  0  0  0  0  0  0  0  0  0
   20.9544   -3.9019  -15.5147 C   0  0  0  0  0  0  0  0  0  0  0  0
   21.6137   -5.2706  -15.3472 C   0  0  2  0  0  0  0  0  0  0  0  0
   20.6463   -6.2583  -15.7790 N   0  0  0  0  0  0  0  0  0  0  0  0
   21.9503   -5.4520  -13.9110 C   0  0  0  0  0  0  0  0  0  0  0  0
   23.1733   -5.0499  -13.3969 O   0  0  0  0  0  0  0  0  0  0  0  0
   21.1281   -5.9788  -13.1194 O   0  0  0  0  0  0  0  0  0  0  0  0
  2  3  1  0
  2  1  1  1
  4  2  1  0
  4  5  1  1
  6  4  1  0
  7  6  2  0
  8  6  1  0
  9  8  1  0
 10  9  1  0
 10 15  1  0
 11 10  2  0
 12 13  1  0
 14 13  1  1
 14 15  1  0
 14 16  1  0
 16 18  2  0
 16 17  1  0
M  END
$$$$
