TGS.pdb
     RDKit          3D

 18 17  0  0  1  0  0  0  0  0999 V2000
   19.6375  -13.8637  -20.0833 C   0  0  0  0  0  0  0  0  0  0  0  0
   20.3697  -12.5688  -19.8509 C   0  0  1  0  0  0  0  0  0  0  0  0
   19.4521  -11.5292  -20.0629 O   0  0  0  0  0  0  0  0  0  0  0  0
   20.8356  -12.4496  -18.4217 C   0  0  2  0  0  0  0  0  0  0  0  0
   19.7466  -12.6568  -17.5178 N   0  0  0  0  0  0  0  0  0  0  0  0
   21.5647  -11.1812  -18.1661 C   0  0  0  0  0  0  0  0  0  0  0  0
   22.6478  -10.9805  -18.7463 O   0  0  0  0  0  0  0  0  0  0  0  0
   21.0680  -10.1755  -17.2740 N   0  0  0  0  0  0  0  0  0  0  0  0
   21.6856   -8.8836  -17.1361 C   0  0  0  0  0  0  0  0  0  0  0  0
   21.0327   -8.0445  -16.1000 C   0  0  0  0  0  0  0  0  0  0  0  0
   19.9191   -8.2860  -15.5960 O   0  0  0  0  0  0  0  0  0  0  0  0
   21.5369   -6.5894  -12.0560 O   0  0  0  0  0  0  0  0  0  0  0  0
   21.7582   -7.1670  -13.2884 C   0  0  0  0  0  0  0  0  0  0  0  0
   21.4397   -6.1981  -14.4268 C   0  0  2  0  0  0  0  0  0  0  0  0
   21.7385   -6.8904  -15.6634 N   0  0  0  0  0  0  0  0  0  0  0  0
   22.3018   -4.9977  -14.2706 C   0  0  0  0  0  0  0  0  0  0  0  0
   23.4571   -4.8327  -15.0189 O   0  0  0  0  0  0  0  0  0  0  0  0
   22.0032   -4.0938  -13.4495 O   0  0  0  0  0  0  0  0  0  0  0  0
  2  3  1  0
  2  1  1  1
  4  2  1  0
  4  5  1  1
  6  4  1  0
  7  6  2  0
  8  6  1  0
  9  8  1  0
 10  9  1  0
 10 15  1  0
 11 10  2  0
 12 13  1  0
 14 13  1  1
 14 15  1  0
 14 16  1  0
 16 18  2  0
 16 17  1  0
M  END
$$$$
