RTK.pdb
     RDKit          3D

 28 27  0  0  1  0  0  0  0  0999 V2000
   23.9792  -13.0236  -18.2922 N   0  0  0  0  0  0  0  0  0  0  0  0
   22.9502  -13.6884  -19.0227 C   0  0  0  0  0  0  0  0  0  0  0  0
   22.0623  -12.9816  -19.6055 N   0  0  0  0  0  0  0  0  0  0  0  0
   22.8813  -15.1004  -19.1198 N   0  0  0  0  0  0  0  0  0  0  0  0
   23.9825  -15.8897  -18.6147 C   0  0  0  0  0  0  0  0  0  0  0  0
   24.4427  -16.8092  -19.7520 C   0  0  0  0  0  0  0  0  0  0  0  0
   24.4502  -18.2071  -19.1542 C   0  0  0  0  0  0  0  0  0  0  0  0
   25.7315  -18.5014  -18.4037 C   0  0  2  0  0  0  0  0  0  0  0  0
   26.8138  -18.7255  -19.3139 N   0  0  0  0  0  0  0  0  0  0  0  0
   25.4446  -19.7207  -17.5757 C   0  0  0  0  0  0  0  0  0  0  0  0
   25.5602  -20.8789  -18.0445 O   0  0  0  0  0  0  0  0  0  0  0  0
   21.2968  -13.3674  -20.1990 C   0  0  0  0  0  0  0  0  0  0  0  0
   27.3558  -20.9802  -15.1657 C   0  0  2  0  0  0  0  0  0  0  0  0
   26.0740  -20.7744  -14.4100 O   0  0  0  0  0  0  0  0  0  0  0  0
   26.1995  -19.5998  -13.6829 C   0  0  2  0  0  0  0  0  0  0  0  0
   24.8974  -20.6632  -15.3458 N   0  0  0  0  0  0  0  0  0  0  0  0
   25.0379  -19.5270  -16.2438 C   0  0  0  0  0  0  0  0  0  0  0  0
   23.6956  -20.3841  -14.5161 O   0  0  0  0  0  0  0  0  0  0  0  0
   23.3636  -19.1907  -14.1910 N   0  0  0  0  0  0  0  0  0  0  0  0
   22.8284  -21.3962  -14.0232 C   0  0  1  0  0  0  0  0  0  0  0  0
   21.6888  -21.0556  -13.1912 C   0  0  0  0  0  0  0  0  0  0  0  0
   20.7021  -22.2013  -13.1735 C   0  0  0  0  0  0  0  0  0  0  0  0
   19.4451  -21.8237  -12.4474 C   0  0  0  0  0  0  0  0  0  0  0  0
   18.5089  -23.0016  -12.3135 C   0  0  0  0  0  0  0  0  0  0  0  0
   17.1946  -22.6333  -11.6710 N   0  0  0  0  0  0  0  0  0  0  0  0
   16.2692  -23.7505  -11.7004 C   0  0  0  0  0  0  0  0  0  0  0  0
   22.1259  -20.7380  -11.8096 O   0  0  0  0  0  0  0  0  0  0  0  0
   21.4320  -19.9588  -11.1264 O   0  0  0  0  0  0  0  0  0  0  0  0
  2  3  2  0
  2  1  1  0
  4  2  1  0
  5  4  1  0
  6  5  1  0
  7  8  1  0
  7  6  1  0
  8  9  1  6
 10  8  1  0
 10 11  2  0
 13 12  1  1
 13 15  1  0
 14 13  1  0
 15 16  1  1
 16 10  1  0
 17 15  1  0
 18 17  2  0
 19 17  1  0
 20 19  1  0
 20 26  1  0
 20 21  1  1
 22 21  1  0
 23 22  1  0
 24 23  1  0
 25 24  1  0
 26 28  1  0
 27 26  2  0
M  END
$$$$
