RTK.pdb
     RDKit          3D

 28 27  0  0  1  0  0  0  0  0999 V2000
   21.3869  -21.0944   -6.7228 N   0  0  0  0  0  0  0  0  0  0  0  0
   20.9604  -21.6638   -7.9591 C   0  0  0  0  0  0  0  0  0  0  0  0
   19.7181  -21.6339   -8.2476 N   0  0  0  0  0  0  0  0  0  0  0  0
   21.8664  -22.2601   -8.8710 N   0  0  0  0  0  0  0  0  0  0  0  0
   22.6943  -21.4055   -9.6924 C   0  0  0  0  0  0  0  0  0  0  0  0
   24.1154  -21.4614   -9.1195 C   0  0  0  0  0  0  0  0  0  0  0  0
   24.9317  -20.5187   -9.9893 C   0  0  0  0  0  0  0  0  0  0  0  0
   25.6993  -21.2550  -11.0664 C   0  0  2  0  0  0  0  0  0  0  0  0
   26.8915  -21.8404  -10.5314 N   0  0  0  0  0  0  0  0  0  0  0  0
   26.0115  -20.2270  -12.1154 C   0  0  0  0  0  0  0  0  0  0  0  0
   26.8348  -19.3027  -11.9092 O   0  0  0  0  0  0  0  0  0  0  0  0
   19.3017  -22.0514   -9.1074 C   0  0  0  0  0  0  0  0  0  0  0  0
   27.9979  -20.0101  -14.6257 C   0  0  2  0  0  0  0  0  0  0  0  0
   26.6876  -19.8466  -15.3418 O   0  0  0  0  0  0  0  0  0  0  0  0
   26.3334  -21.0850  -15.8566 C   0  0  2  0  0  0  0  0  0  0  0  0
   25.6082  -19.3633  -14.4071 N   0  0  0  0  0  0  0  0  0  0  0  0
   25.3479  -20.3295  -13.3508 C   0  0  0  0  0  0  0  0  0  0  0  0
   24.3503  -19.2671  -15.1939 O   0  0  0  0  0  0  0  0  0  0  0  0
   23.4475  -20.1733  -15.1347 N   0  0  0  0  0  0  0  0  0  0  0  0
   24.0466  -18.1829  -16.0610 C   0  0  1  0  0  0  0  0  0  0  0  0
   22.7943  -18.1482  -16.7941 C   0  0  0  0  0  0  0  0  0  0  0  0
   22.2268  -16.7467  -16.7799 C   0  0  0  0  0  0  0  0  0  0  0  0
   20.8737  -16.7026  -17.4256 C   0  0  0  0  0  0  0  0  0  0  0  0
   20.3004  -15.3051  -17.4130 C   0  0  0  0  0  0  0  0  0  0  0  0
   18.8686  -15.2566  -17.8859 N   0  0  0  0  0  0  0  0  0  0  0  0
   18.2972  -13.9383  -17.6827 C   0  0  0  0  0  0  0  0  0  0  0  0
   22.9933  -18.6034  -18.1918 O   0  0  0  0  0  0  0  0  0  0  0  0
   24.1063  -18.4273  -18.7262 O   0  0  0  0  0  0  0  0  0  0  0  0
  2  3  2  0
  2  1  1  0
  4  2  1  0
  5  4  1  0
  6  5  1  0
  7  8  1  0
  7  6  1  0
  8  9  1  1
 10  8  1  0
 10 11  2  0
 13 12  1  6
 13 15  1  0
 14 13  1  0
 15 16  1  6
 16 10  1  0
 17 15  1  0
 18 17  2  0
 19 17  1  0
 20 19  1  0
 20 26  1  0
 20 21  1  6
 22 21  1  0
 23 22  1  0
 24 23  1  0
 25 24  1  0
 26 28  1  0
 27 26  2  0
M  END
$$$$
