RTK.pdb
     RDKit          3D

 28 27  0  0  1  0  0  0  0  0999 V2000
   31.3214  -23.0929  -10.6762 N   0  0  0  0  0  0  0  0  0  0  0  0
   31.3856  -22.1382   -9.6185 C   0  0  0  0  0  0  0  0  0  0  0  0
   32.3901  -22.1659   -8.8324 N   0  0  0  0  0  0  0  0  0  0  0  0
   30.3746  -21.1670   -9.4121 N   0  0  0  0  0  0  0  0  0  0  0  0
   29.5755  -20.7406  -10.5391 C   0  0  0  0  0  0  0  0  0  0  0  0
   29.0986  -22.0050  -11.2634 C   0  0  0  0  0  0  0  0  0  0  0  0
   28.1877  -21.5069  -12.3742 C   0  0  0  0  0  0  0  0  0  0  0  0
   26.9272  -20.8648  -11.8354 C   0  0  2  0  0  0  0  0  0  0  0  0
   26.3034  -21.7082  -10.8610 N   0  0  0  0  0  0  0  0  0  0  0  0
   26.0410  -20.6496  -13.0282 C   0  0  0  0  0  0  0  0  0  0  0  0
   26.3694  -19.8811  -13.9643 O   0  0  0  0  0  0  0  0  0  0  0  0
   32.5010  -21.5551   -7.9947 C   0  0  0  0  0  0  0  0  0  0  0  0
   24.3696  -23.4568  -15.0861 C   0  0  2  0  0  0  0  0  0  0  0  0
   23.3145  -22.4955  -14.6179 O   0  0  0  0  0  0  0  0  0  0  0  0
   22.6713  -23.0738  -13.5335 C   0  0  2  0  0  0  0  0  0  0  0  0
   23.9184  -21.1788  -14.2008 N   0  0  0  0  0  0  0  0  0  0  0  0
   24.8176  -21.3414  -13.0684 C   0  0  0  0  0  0  0  0  0  0  0  0
   22.8083  -20.3134  -13.7219 O   0  0  0  0  0  0  0  0  0  0  0  0
   23.0241  -19.2796  -12.9976 N   0  0  0  0  0  0  0  0  0  0  0  0
   21.4399  -20.5528  -14.0213 C   0  0  1  0  0  0  0  0  0  0  0  0
   20.4526  -19.4995  -13.8704 C   0  0  0  0  0  0  0  0  0  0  0  0
   20.7557  -18.3675  -14.8259 C   0  0  0  0  0  0  0  0  0  0  0  0
   19.7310  -17.2775  -14.7183 C   0  0  0  0  0  0  0  0  0  0  0  0
   19.9941  -16.1711  -15.7126 C   0  0  0  0  0  0  0  0  0  0  0  0
   18.9741  -15.0622  -15.6364 N   0  0  0  0  0  0  0  0  0  0  0  0
   19.2096  -14.0661  -16.6649 C   0  0  0  0  0  0  0  0  0  0  0  0
   19.0868  -20.0231  -14.1174 O   0  0  0  0  0  0  0  0  0  0  0  0
   18.9150  -20.8303  -15.0524 O   0  0  0  0  0  0  0  0  0  0  0  0
  2  3  2  0
  2  1  1  0
  4  2  1  0
  5  4  1  0
  6  5  1  0
  7  8  1  0
  7  6  1  0
  8  9  1  1
 10  8  1  0
 10 11  2  0
 13 12  1  6
 13 15  1  0
 14 13  1  0
 15 16  1  6
 16 10  1  0
 17 15  1  0
 18 17  2  0
 19 17  1  0
 20 19  1  0
 20 26  1  0
 20 21  1  1
 22 21  1  0
 23 22  1  0
 24 23  1  0
 25 24  1  0
 26 28  1  0
 27 26  2  0
M  END
$$$$
