RTK.pdb
     RDKit          3D

 28 27  0  0  1  0  0  0  0  0999 V2000
   31.1540  -20.8921   -9.5127 N   0  0  0  0  0  0  0  0  0  0  0  0
   31.4641  -21.8995  -10.4736 C   0  0  0  0  0  0  0  0  0  0  0  0
   32.6833  -22.2434  -10.6245 N   0  0  0  0  0  0  0  0  0  0  0  0
   30.4678  -22.5256  -11.2632 N   0  0  0  0  0  0  0  0  0  0  0  0
   29.1242  -21.9917  -11.2445 C   0  0  0  0  0  0  0  0  0  0  0  0
   29.0632  -20.8760  -12.2944 C   0  0  0  0  0  0  0  0  0  0  0  0
   27.6353  -20.3564  -12.2393 C   0  0  0  0  0  0  0  0  0  0  0  0
   26.6213  -21.4367  -12.5494 C   0  0  2  0  0  0  0  0  0  0  0  0
   26.7539  -21.8854  -13.9026 N   0  0  0  0  0  0  0  0  0  0  0  0
   25.2776  -20.8132  -12.3034 C   0  0  0  0  0  0  0  0  0  0  0  0
   25.0320  -20.1666  -11.2564 O   0  0  0  0  0  0  0  0  0  0  0  0
   33.0144  -22.9604  -11.3053 C   0  0  0  0  0  0  0  0  0  0  0  0
   23.2934  -18.5374  -14.7574 C   0  0  2  0  0  0  0  0  0  0  0  0
   22.4829  -19.7500  -14.3978 O   0  0  0  0  0  0  0  0  0  0  0  0
   22.6057  -20.6602  -15.4373 C   0  0  2  0  0  0  0  0  0  0  0  0
   22.9741  -20.3783  -13.1186 N   0  0  0  0  0  0  0  0  0  0  0  0
   24.2898  -20.9754  -13.2906 C   0  0  0  0  0  0  0  0  0  0  0  0
   22.0540  -21.5001  -12.7936 O   0  0  0  0  0  0  0  0  0  0  0  0
   22.2603  -22.6877  -13.2259 N   0  0  0  0  0  0  0  0  0  0  0  0
   20.8906  -21.3549  -11.9906 C   0  0  1  0  0  0  0  0  0  0  0  0
   20.0089  -22.4829  -11.7518 C   0  0  0  0  0  0  0  0  0  0  0  0
   19.7096  -22.6003  -10.2743 C   0  0  0  0  0  0  0  0  0  0  0  0
   18.8284  -23.7806   -9.9912 C   0  0  0  0  0  0  0  0  0  0  0  0
   18.5148  -23.8956   -8.5180 C   0  0  0  0  0  0  0  0  0  0  0  0
   17.6143  -25.0640   -8.2018 N   0  0  0  0  0  0  0  0  0  0  0  0
   17.3949  -25.1807   -6.7722 C   0  0  0  0  0  0  0  0  0  0  0  0
   18.7471  -22.3321  -12.5171 O   0  0  0  0  0  0  0  0  0  0  0  0
   18.4164  -21.1951  -12.9084 O   0  0  0  0  0  0  0  0  0  0  0  0
  2  3  2  0
  2  1  1  0
  4  2  1  0
  5  4  1  0
  6  5  1  0
  7  8  1  0
  7  6  1  0
  8  9  1  6
 10  8  1  0
 10 11  2  0
 13 12  1  6
 13 15  1  0
 14 13  1  0
 15 16  1  1
 16 10  1  0
 17 15  1  0
 18 17  2  0
 19 17  1  0
 20 19  1  0
 20 26  1  0
 20 21  1  6
 22 21  1  0
 23 22  1  0
 24 23  1  0
 25 24  1  0
 26 28  1  0
 27 26  2  0
M  END
$$$$
