RTK.pdb
     RDKit          3D

 28 27  0  0  1  0  0  0  0  0999 V2000
   26.9851  -22.3850  -16.4390 N   0  0  0  0  0  0  0  0  0  0  0  0
   26.6562  -21.0157  -16.2127 C   0  0  0  0  0  0  0  0  0  0  0  0
   25.9113  -20.4196  -17.0596 N   0  0  0  0  0  0  0  0  0  0  0  0
   27.1290  -20.2994  -15.0852 N   0  0  0  0  0  0  0  0  0  0  0  0
   28.1098  -20.9213  -14.2238 C   0  0  0  0  0  0  0  0  0  0  0  0
   27.5481  -20.8896  -12.7975 C   0  0  0  0  0  0  0  0  0  0  0  0
   26.0960  -20.4664  -12.9518 C   0  0  0  0  0  0  0  0  0  0  0  0
   25.4090  -20.2817  -11.6156 C   0  0  2  0  0  0  0  0  0  0  0  0
   26.2234  -20.7856  -10.5512 N   0  0  0  0  0  0  0  0  0  0  0  0
   24.1117  -21.0306  -11.7205 C   0  0  0  0  0  0  0  0  0  0  0  0
   23.9584  -22.1612  -11.1984 O   0  0  0  0  0  0  0  0  0  0  0  0
   25.7106  -19.3965  -17.0521 C   0  0  0  0  0  0  0  0  0  0  0  0
   21.2431  -20.6971  -10.0193 C   0  0  2  0  0  0  0  0  0  0  0  0
   20.8283  -20.3648  -11.4244 O   0  0  0  0  0  0  0  0  0  0  0  0
   20.8987  -18.9870  -11.5680 C   0  0  2  0  0  0  0  0  0  0  0  0
   21.7345  -21.0225  -12.4337 N   0  0  0  0  0  0  0  0  0  0  0  0
   23.0601  -20.4226  -12.4285 C   0  0  0  0  0  0  0  0  0  0  0  0
   21.1674  -20.7524  -13.7813 O   0  0  0  0  0  0  0  0  0  0  0  0
   21.5876  -19.7851  -14.5077 N   0  0  0  0  0  0  0  0  0  0  0  0
   20.1322  -21.5289  -14.3686 C   0  0  1  0  0  0  0  0  0  0  0  0
   19.6581  -21.2397  -15.7096 C   0  0  0  0  0  0  0  0  0  0  0  0
   18.8656  -22.4127  -16.2409 C   0  0  0  0  0  0  0  0  0  0  0  0
   18.3224  -22.1255  -17.6092 C   0  0  0  0  0  0  0  0  0  0  0  0
   17.5212  -23.2901  -18.1417 C   0  0  0  0  0  0  0  0  0  0  0  0
   17.0525  -23.0773  -19.5597 N   0  0  0  0  0  0  0  0  0  0  0  0
   16.3854  -24.2601  -20.0711 C   0  0  0  0  0  0  0  0  0  0  0  0
   18.8216  -20.0146  -15.7161 O   0  0  0  0  0  0  0  0  0  0  0  0
   18.0837  -19.7883  -14.7366 O   0  0  0  0  0  0  0  0  0  0  0  0
  2  3  2  0
  2  1  1  0
  4  2  1  0
  5  4  1  0
  6  5  1  0
  7  8  1  0
  7  6  1  0
  8  9  1  1
 10  8  1  0
 10 11  2  0
 13 12  1  1
 13 15  1  0
 14 13  1  0
 15 16  1  6
 16 10  1  0
 17 15  1  0
 18 17  2  0
 19 17  1  0
 20 19  1  0
 20 26  1  0
 20 21  1  1
 22 21  1  0
 23 22  1  0
 24 23  1  0
 25 24  1  0
 26 28  1  0
 27 26  2  0
M  END
$$$$
