RTK.pdb
     RDKit          3D

 28 27  0  0  1  0  0  0  0  0999 V2000
   18.7372  -23.1746   -8.9623 N   0  0  0  0  0  0  0  0  0  0  0  0
   19.5536  -23.2167   -7.7935 C   0  0  0  0  0  0  0  0  0  0  0  0
   19.3707  -24.1613   -6.9558 N   0  0  0  0  0  0  0  0  0  0  0  0
   20.5541  -22.2476   -7.5329 N   0  0  0  0  0  0  0  0  0  0  0  0
   20.7379  -21.1637   -8.4720 C   0  0  0  0  0  0  0  0  0  0  0  0
   21.4527  -21.7413   -9.6994 C   0  0  0  0  0  0  0  0  0  0  0  0
   22.8774  -21.2175   -9.6123 C   0  0  0  0  0  0  0  0  0  0  0  0
   23.1137  -20.0457  -10.5411 C   0  0  2  0  0  0  0  0  0  0  0  0
   22.1542  -20.0376  -11.6038 N   0  0  0  0  0  0  0  0  0  0  0  0
   24.5120  -20.2167  -11.0607 C   0  0  0  0  0  0  0  0  0  0  0  0
   25.5052  -20.2201  -10.2938 O   0  0  0  0  0  0  0  0  0  0  0  0
   19.9186  -24.2857   -6.0775 C   0  0  0  0  0  0  0  0  0  0  0  0
   26.4184  -22.8462  -12.5941 C   0  0  2  0  0  0  0  0  0  0  0  0
   26.2913  -21.7783  -13.6429 O   0  0  0  0  0  0  0  0  0  0  0  0
   25.2381  -22.1299  -14.4743 C   0  0  2  0  0  0  0  0  0  0  0  0
   26.0154  -20.4318  -13.0239 N   0  0  0  0  0  0  0  0  0  0  0  0
   24.6805  -20.3751  -12.4476 C   0  0  0  0  0  0  0  0  0  0  0  0
   26.0316  -19.4278  -14.1204 O   0  0  0  0  0  0  0  0  0  0  0  0
   24.9657  -18.8290  -14.5016 N   0  0  0  0  0  0  0  0  0  0  0  0
   27.2071  -19.0524  -14.8250 C   0  0  1  0  0  0  0  0  0  0  0  0
   27.1545  -18.0519  -15.8752 C   0  0  0  0  0  0  0  0  0  0  0  0
   28.5537  -17.7206  -16.3430 C   0  0  0  0  0  0  0  0  0  0  0  0
   28.5259  -16.8267  -17.5471 C   0  0  0  0  0  0  0  0  0  0  0  0
   29.9206  -16.5167  -18.0378 C   0  0  0  0  0  0  0  0  0  0  0  0
   29.9372  -15.4831  -19.1366 N   0  0  0  0  0  0  0  0  0  0  0  0
   31.2842  -15.2723  -19.6333 C   0  0  0  0  0  0  0  0  0  0  0  0
   26.3363  -18.5325  -17.0155 O   0  0  0  0  0  0  0  0  0  0  0  0
   25.7358  -17.6942  -17.7169 O   0  0  0  0  0  0  0  0  0  0  0  0
  2  3  2  0
  2  1  1  0
  4  2  1  0
  5  4  1  0
  6  5  1  0
  7  8  1  0
  7  6  1  0
  8  9  1  6
 10  8  1  0
 10 11  2  0
 13 12  1  6
 13 15  1  0
 14 13  1  0
 15 16  1  6
 16 10  1  0
 17 15  1  0
 18 17  2  0
 19 17  1  0
 20 19  1  0
 20 26  1  0
 20 21  1  6
 22 21  1  0
 23 22  1  0
 24 23  1  0
 25 24  1  0
 26 28  1  0
 27 26  2  0
M  END
$$$$
