RTK.pdb
     RDKit          3D

 28 27  0  0  1  0  0  0  0  0999 V2000
   18.2535  -18.6500    1.8792 N   0  0  0  0  0  0  0  0  0  0  0  0
   17.1132  -18.5357    2.7284 C   0  0  0  0  0  0  0  0  0  0  0  0
   16.2846  -19.5049    2.7700 N   0  0  0  0  0  0  0  0  0  0  0  0
   16.8711  -17.3864    3.5211 N   0  0  0  0  0  0  0  0  0  0  0  0
   17.7927  -16.2753    3.4398 C   0  0  0  0  0  0  0  0  0  0  0  0
   17.2692  -15.1804    4.3769 C   0  0  0  0  0  0  0  0  0  0  0  0
   18.2774  -14.0477    4.2665 C   0  0  0  0  0  0  0  0  0  0  0  0
   17.8967  -12.8578    5.1213 C   0  0  2  0  0  0  0  0  0  0  0  0
   18.2899  -11.6331    4.4922 N   0  0  0  0  0  0  0  0  0  0  0  0
   18.6032  -13.0577    6.4310 C   0  0  0  0  0  0  0  0  0  0  0  0
   19.6226  -12.3939    6.7389 O   0  0  0  0  0  0  0  0  0  0  0  0
   15.4095  -19.5093    3.3368 C   0  0  0  0  0  0  0  0  0  0  0  0
   16.4210  -14.8082    9.6036 C   0  0  2  0  0  0  0  0  0  0  0  0
   17.5765  -13.8536    9.7031 O   0  0  0  0  0  0  0  0  0  0  0  0
   18.1298  -13.9948   10.9672 C   0  0  1  0  0  0  0  0  0  0  0  0
   18.6237  -14.1494    8.6599 N   0  0  0  0  0  0  0  0  0  0  0  0
   18.0849  -14.0209    7.3144 C   0  0  0  0  0  0  0  0  0  0  0  0
   19.0105  -15.5770    8.8121 O   0  0  0  0  0  0  0  0  0  0  0  0
   18.5833  -16.4800    8.0108 N   0  0  0  0  0  0  0  0  0  0  0  0
   19.8710  -16.0531    9.8379 C   0  0  1  0  0  0  0  0  0  0  0  0
   20.1775  -17.4673    9.9516 C   0  0  0  0  0  0  0  0  0  0  0  0
   21.5498  -17.6506   10.5594 C   0  0  0  0  0  0  0  0  0  0  0  0
   21.8904  -19.1044   10.7020 C   0  0  0  0  0  0  0  0  0  0  0  0
   23.2078  -19.2962   11.4158 C   0  0  0  0  0  0  0  0  0  0  0  0
   23.5534  -20.7498   11.6239 N   0  0  0  0  0  0  0  0  0  0  0  0
   24.7681  -20.8899   12.4052 C   0  0  0  0  0  0  0  0  0  0  0  0
   19.1577  -18.1591   10.7774 O   0  0  0  0  0  0  0  0  0  0  0  0
   18.6827  -17.5638   11.7650 O   0  0  0  0  0  0  0  0  0  0  0  0
  2  3  2  0
  2  1  1  0
  4  2  1  0
  5  4  1  0
  6  5  1  0
  7  8  1  0
  7  6  1  0
  8  9  1  6
 10  8  1  0
 10 11  2  0
 13 12  1  1
 13 15  1  0
 14 13  1  0
 15 16  1  6
 16 10  1  0
 17 15  1  0
 18 17  2  0
 19 17  1  0
 20 19  1  0
 20 26  1  0
 20 21  1  1
 22 21  1  0
 23 22  1  0
 24 23  1  0
 25 24  1  0
 26 28  1  0
 27 26  2  0
M  END
$$$$
