RTK.pdb
     RDKit          3D

 28 27  0  0  1  0  0  0  0  0999 V2000
   29.9156  -10.9741  -16.9818 N   0  0  0  0  0  0  0  0  0  0  0  0
   29.8744  -12.3504  -16.6098 C   0  0  0  0  0  0  0  0  0  0  0  0
   30.8106  -13.1186  -17.0108 N   0  0  0  0  0  0  0  0  0  0  0  0
   28.8320  -12.8896  -15.8157 N   0  0  0  0  0  0  0  0  0  0  0  0
   27.6953  -12.0554  -15.4953 C   0  0  0  0  0  0  0  0  0  0  0  0
   26.9201  -11.8227  -16.7976 C   0  0  0  0  0  0  0  0  0  0  0  0
   25.6967  -11.0158  -16.3928 C   0  0  0  0  0  0  0  0  0  0  0  0
   24.5553  -11.8984  -15.9349 C   0  0  2  0  0  0  0  0  0  0  0  0
   24.6790  -13.2151  -16.4836 N   0  0  0  0  0  0  0  0  0  0  0  0
   23.3029  -11.2183  -16.4077 C   0  0  0  0  0  0  0  0  0  0  0  0
   22.7779  -11.4967  -17.5129 O   0  0  0  0  0  0  0  0  0  0  0  0
   30.8373  -14.1489  -16.8527 C   0  0  0  0  0  0  0  0  0  0  0  0
   20.0200  -11.4886  -15.1047 C   0  0  2  0  0  0  0  0  0  0  0  0
   20.3652  -10.0336  -14.9617 O   0  0  0  0  0  0  0  0  0  0  0  0
   20.7955   -9.8305  -13.6587 C   0  0  2  0  0  0  0  0  0  0  0  0
   21.4571   -9.6322  -15.9202 N   0  0  0  0  0  0  0  0  0  0  0  0
   22.7271  -10.2489  -15.5678 C   0  0  0  0  0  0  0  0  0  0  0  0
   21.6587   -8.1664  -15.7744 O   0  0  0  0  0  0  0  0  0  0  0  0
   22.5134   -7.6821  -14.9529 N   0  0  0  0  0  0  0  0  0  0  0  0
   20.9362   -7.1957  -16.5196 C   0  0  1  0  0  0  0  0  0  0  0  0
   21.1938   -5.7789  -16.3377 C   0  0  0  0  0  0  0  0  0  0  0  0
   20.7214   -5.0087  -17.5502 C   0  0  0  0  0  0  0  0  0  0  0  0
   20.9072   -3.5324  -17.3616 C   0  0  0  0  0  0  0  0  0  0  0  0
   20.4865   -2.7608  -18.5903 C   0  0  0  0  0  0  0  0  0  0  0  0
   20.7600   -1.2818  -18.4735 N   0  0  0  0  0  0  0  0  0  0  0  0
   20.2074   -0.5589  -19.6038 C   0  0  0  0  0  0  0  0  0  0  0  0
   20.5152   -5.2759  -15.1182 O   0  0  0  0  0  0  0  0  0  0  0  0
   20.8391   -4.1577  -14.6710 O   0  0  0  0  0  0  0  0  0  0  0  0
  2  3  2  0
  2  1  1  0
  4  2  1  0
  5  4  1  0
  6  5  1  0
  7  8  1  0
  7  6  1  0
  8  9  1  6
 10  8  1  0
 10 11  2  0
 13 12  1  1
 13 15  1  0
 14 13  1  0
 15 16  1  6
 16 10  1  0
 17 15  1  0
 18 17  2  0
 19 17  1  0
 20 19  1  0
 20 26  1  0
 20 21  1  1
 22 21  1  0
 23 22  1  0
 24 23  1  0
 25 24  1  0
 26 28  1  0
 27 26  2  0
M  END
$$$$
