RTK.pdb
     RDKit          3D

 28 27  0  0  1  0  0  0  0  0999 V2000
   18.7681  -25.8340   -8.1843 N   0  0  0  0  0  0  0  0  0  0  0  0
   17.6196  -24.9882   -8.1859 C   0  0  0  0  0  0  0  0  0  0  0  0
   17.1579  -24.5850   -7.0670 N   0  0  0  0  0  0  0  0  0  0  0  0
   16.9772  -24.5853   -9.3829 N   0  0  0  0  0  0  0  0  0  0  0  0
   17.5195  -25.0257  -10.6488 C   0  0  0  0  0  0  0  0  0  0  0  0
   17.8165  -23.7706  -11.4780 C   0  0  0  0  0  0  0  0  0  0  0  0
   18.7958  -24.2247  -12.5488 C   0  0  0  0  0  0  0  0  0  0  0  0
   19.9248  -23.2361  -12.7475 C   0  0  2  0  0  0  0  0  0  0  0  0
   19.4933  -21.9043  -12.4473 N   0  0  0  0  0  0  0  0  0  0  0  0
   20.3343  -23.3731  -14.1856 C   0  0  0  0  0  0  0  0  0  0  0  0
   20.7285  -24.4667  -14.6581 O   0  0  0  0  0  0  0  0  0  0  0  0
   16.2774  -24.0381   -6.9545 C   0  0  0  0  0  0  0  0  0  0  0  0
   18.4910  -22.9425  -17.4451 C   0  0  2  0  0  0  0  0  0  0  0  0
   19.5261  -21.8630  -17.3043 O   0  0  0  0  0  0  0  0  0  0  0  0
   18.9003  -20.7495  -16.7635 C   0  0  2  0  0  0  0  0  0  0  0  0
   20.6510  -22.2966  -16.3995 N   0  0  0  0  0  0  0  0  0  0  0  0
   20.2631  -22.2283  -14.9987 C   0  0  0  0  0  0  0  0  0  0  0  0
   21.7574  -21.3175  -16.5667 O   0  0  0  0  0  0  0  0  0  0  0  0
   21.9604  -20.3789  -15.7196 N   0  0  0  0  0  0  0  0  0  0  0  0
   22.6675  -21.3388  -17.6579 C   0  0  1  0  0  0  0  0  0  0  0  0
   23.7077  -20.3333  -17.7756 C   0  0  0  0  0  0  0  0  0  0  0  0
   24.9396  -20.9372  -18.4113 C   0  0  0  0  0  0  0  0  0  0  0  0
   25.8307  -21.5636  -17.3802 C   0  0  0  0  0  0  0  0  0  0  0  0
   27.0669  -22.1629  -18.0084 C   0  0  0  0  0  0  0  0  0  0  0  0
   27.9290  -22.9000  -17.0138 N   0  0  0  0  0  0  0  0  0  0  0  0
   29.1566  -23.3649  -17.6322 C   0  0  0  0  0  0  0  0  0  0  0  0
   23.2326  -19.1804  -18.5791 O   0  0  0  0  0  0  0  0  0  0  0  0
   22.1967  -19.3121  -19.2610 O   0  0  0  0  0  0  0  0  0  0  0  0
  2  3  2  0
  2  1  1  0
  4  2  1  0
  5  4  1  0
  6  5  1  0
  7  8  1  0
  7  6  1  0
  8  9  1  6
 10  8  1  0
 10 11  2  0
 13 12  1  6
 13 15  1  0
 14 13  1  0
 15 16  1  6
 16 10  1  0
 17 15  1  0
 18 17  2  0
 19 17  1  0
 20 19  1  0
 20 26  1  0
 20 21  1  6
 22 21  1  0
 23 22  1  0
 24 23  1  0
 25 24  1  0
 26 28  1  0
 27 26  2  0
M  END
$$$$
