RTK.pdb
     RDKit          3D

 28 27  0  0  1  0  0  0  0  0999 V2000
   36.6947  -13.0716   -8.2383 N   0  0  0  0  0  0  0  0  0  0  0  0
   36.4843  -12.8909   -6.8392 C   0  0  0  0  0  0  0  0  0  0  0  0
   37.1995  -12.0344   -6.2208 N   0  0  0  0  0  0  0  0  0  0  0  0
   35.5137  -13.6292   -6.1175 N   0  0  0  0  0  0  0  0  0  0  0  0
   34.7581  -14.6507   -6.8077 C   0  0  0  0  0  0  0  0  0  0  0  0
   33.7815  -15.2577   -5.7934 C   0  0  0  0  0  0  0  0  0  0  0  0
   33.1166  -16.4131   -6.5247 C   0  0  0  0  0  0  0  0  0  0  0  0
   31.6068  -16.3038   -6.5137 C   0  0  2  0  0  0  0  0  0  0  0  0
   31.1424  -15.8025   -5.2555 N   0  0  0  0  0  0  0  0  0  0  0  0
   31.0986  -17.6920   -6.7768 C   0  0  0  0  0  0  0  0  0  0  0  0
   31.5043  -18.3694   -7.7520 O   0  0  0  0  0  0  0  0  0  0  0  0
   37.1136  -11.8172   -5.2047 C   0  0  0  0  0  0  0  0  0  0  0  0
   30.7031  -20.4551   -4.0173 C   0  0  2  0  0  0  0  0  0  0  0  0
   29.4102  -20.2616   -4.7571 O   0  0  0  0  0  0  0  0  0  0  0  0
   28.5825  -19.4849   -3.9597 C   0  0  2  0  0  0  0  0  0  0  0  0
   29.6321  -19.5681   -6.0770 N   0  0  0  0  0  0  0  0  0  0  0  0
   30.1439  -18.2191   -5.8893 C   0  0  0  0  0  0  0  0  0  0  0  0
   28.3035  -19.4159   -6.7270 O   0  0  0  0  0  0  0  0  0  0  0  0
   27.4890  -18.4882   -6.3864 N   0  0  0  0  0  0  0  0  0  0  0  0
   27.8326  -20.2681   -7.7621 C   0  0  1  0  0  0  0  0  0  0  0  0
   26.4689  -20.1615   -8.2474 C   0  0  0  0  0  0  0  0  0  0  0  0
   26.4112  -20.5365   -9.7111 C   0  0  0  0  0  0  0  0  0  0  0  0
   25.0110  -20.4425  -10.2406 C   0  0  0  0  0  0  0  0  0  0  0  0
   24.9394  -20.8585  -11.6911 C   0  0  0  0  0  0  0  0  0  0  0  0
   23.5953  -20.5747  -12.3146 N   0  0  0  0  0  0  0  0  0  0  0  0
   23.5885  -20.9291  -13.7217 C   0  0  0  0  0  0  0  0  0  0  0  0
   25.5638  -21.0353   -7.4613 O   0  0  0  0  0  0  0  0  0  0  0  0
   25.9894  -22.1402   -7.0696 O   0  0  0  0  0  0  0  0  0  0  0  0
  2  3  2  0
  2  1  1  0
  4  2  1  0
  5  4  1  0
  6  5  1  0
  7  8  1  0
  7  6  1  0
  8  9  1  1
 10  8  1  0
 10 11  2  0
 13 12  1  1
 13 15  1  0
 14 13  1  0
 15 16  1  6
 16 10  1  0
 17 15  1  0
 18 17  2  0
 19 17  1  0
 20 19  1  0
 20 26  1  0
 20 21  1  1
 22 21  1  0
 23 22  1  0
 24 23  1  0
 25 24  1  0
 26 28  1  0
 27 26  2  0
M  END
$$$$
