RTK.pdb
     RDKit          3D

 28 27  0  0  1  0  0  0  0  0999 V2000
   25.6301  -20.0834   -9.2076 N   0  0  0  0  0  0  0  0  0  0  0  0
   24.9232  -21.1794   -9.7852 C   0  0  0  0  0  0  0  0  0  0  0  0
   23.6591  -21.2419   -9.6248 N   0  0  0  0  0  0  0  0  0  0  0  0
   25.5759  -22.1963  -10.5253 N   0  0  0  0  0  0  0  0  0  0  0  0
   26.5043  -21.8157  -11.5664 C   0  0  0  0  0  0  0  0  0  0  0  0
   25.6987  -21.0932  -12.6527 C   0  0  0  0  0  0  0  0  0  0  0  0
   26.7280  -20.6436  -13.6775 C   0  0  0  0  0  0  0  0  0  0  0  0
   26.5545  -19.1900  -14.0626 C   0  0  2  0  0  0  0  0  0  0  0  0
   25.3235  -18.6709  -13.5475 N   0  0  0  0  0  0  0  0  0  0  0  0
   26.5802  -19.1630  -15.5637 C   0  0  0  0  0  0  0  0  0  0  0  0
   27.5902  -19.5278  -16.2129 O   0  0  0  0  0  0  0  0  0  0  0  0
   23.0595  -22.0257   -9.9614 C   0  0  0  0  0  0  0  0  0  0  0  0
   25.3433  -21.0532  -18.0784 C   0  0  2  0  0  0  0  0  0  0  0  0
   24.6547  -19.7391  -18.3140 O   0  0  0  0  0  0  0  0  0  0  0  0
   23.3897  -19.8214  -17.7508 C   0  0  2  0  0  0  0  0  0  0  0  0
   25.4138  -18.6010  -17.6812 N   0  0  0  0  0  0  0  0  0  0  0  0
   25.4273  -18.7125  -16.2304 C   0  0  0  0  0  0  0  0  0  0  0  0
   24.6740  -17.3486  -17.9893 O   0  0  0  0  0  0  0  0  0  0  0  0
   23.9361  -16.7699  -17.1171 N   0  0  0  0  0  0  0  0  0  0  0  0
   24.7214  -16.6980  -19.2518 C   0  0  2  0  0  0  0  0  0  0  0  0
   23.9235  -15.5124  -19.5054 C   0  0  0  0  0  0  0  0  0  0  0  0
   22.4596  -15.8828  -19.5842 C   0  0  0  0  0  0  0  0  0  0  0  0
   21.6239  -14.7075  -19.9966 C   0  0  0  0  0  0  0  0  0  0  0  0
   20.1529  -15.0511  -20.0058 C   0  0  0  0  0  0  0  0  0  0  0  0
   19.2861  -13.8975  -20.4460 N   0  0  0  0  0  0  0  0  0  0  0  0
   17.8945  -14.2976  -20.5399 C   0  0  0  0  0  0  0  0  0  0  0  0
   24.1367  -14.5006  -18.4417 O   0  0  0  0  0  0  0  0  0  0  0  0
   24.9278  -14.7644  -17.5144 O   0  0  0  0  0  0  0  0  0  0  0  0
  2  3  2  0
  2  1  1  0
  4  2  1  0
  5  4  1  0
  6  5  1  0
  7  8  1  0
  7  6  1  0
  8  9  1  6
 10  8  1  0
 10 11  2  0
 13 12  1  6
 13 15  1  0
 14 13  1  0
 15 16  1  6
 16 10  1  0
 17 15  1  0
 18 17  2  0
 19 17  1  0
 20 19  1  0
 20 26  1  0
 20 21  1  6
 22 21  1  0
 23 22  1  0
 24 23  1  0
 25 24  1  0
 26 28  1  0
 27 26  2  0
M  END
$$$$
