RTK.pdb
     RDKit          3D

 28 27  0  0  1  0  0  0  0  0999 V2000
   19.9394  -30.7606  -10.3253 N   0  0  0  0  0  0  0  0  0  0  0  0
   21.3153  -30.4166  -10.4773 C   0  0  0  0  0  0  0  0  0  0  0  0
   22.1664  -31.3563  -10.6194 N   0  0  0  0  0  0  0  0  0  0  0  0
   21.7652  -29.0730  -10.4735 N   0  0  0  0  0  0  0  0  0  0  0  0
   20.7877  -28.0094  -10.4098 C   0  0  0  0  0  0  0  0  0  0  0  0
   20.4373  -27.6264  -11.8525 C   0  0  0  0  0  0  0  0  0  0  0  0
   18.9252  -27.4674  -11.8651 C   0  0  0  0  0  0  0  0  0  0  0  0
   18.5024  -26.0148  -11.8128 C   0  0  2  0  0  0  0  0  0  0  0  0
   19.0409  -25.2881  -12.9227 N   0  0  0  0  0  0  0  0  0  0  0  0
   19.0205  -25.4894  -10.5050 C   0  0  0  0  0  0  0  0  0  0  0  0
   20.1531  -24.9578  -10.4096 O   0  0  0  0  0  0  0  0  0  0  0  0
   23.1943  -31.2117  -10.7173 C   0  0  0  0  0  0  0  0  0  0  0  0
   18.5402  -22.6903   -8.8556 C   0  0  2  0  0  0  0  0  0  0  0  0
   18.0094  -23.6906   -7.8686 O   0  0  0  0  0  0  0  0  0  0  0  0
   16.6336  -23.7537   -8.0337 C   0  0  2  0  0  0  0  0  0  0  0  0
   18.6064  -25.0558   -8.0965 N   0  0  0  0  0  0  0  0  0  0  0  0
   18.1913  -25.6107   -9.3760 C   0  0  0  0  0  0  0  0  0  0  0  0
   18.0510  -25.9621   -7.0569 O   0  0  0  0  0  0  0  0  0  0  0  0
   17.1594  -26.8387   -7.3337 N   0  0  0  0  0  0  0  0  0  0  0  0
   18.4538  -25.9355   -5.6944 C   0  0  1  0  0  0  0  0  0  0  0  0
   17.7500  -26.7216   -4.6977 C   0  0  0  0  0  0  0  0  0  0  0  0
   18.4798  -26.6510   -3.3753 C   0  0  0  0  0  0  0  0  0  0  0  0
   17.7996  -27.4901   -2.3346 C   0  0  0  0  0  0  0  0  0  0  0  0
   18.5702  -27.4918   -1.0353 C   0  0  0  0  0  0  0  0  0  0  0  0
   17.9399  -28.3701    0.0168 N   0  0  0  0  0  0  0  0  0  0  0  0
   18.7873  -28.4669    1.1907 C   0  0  0  0  0  0  0  0  0  0  0  0
   16.3569  -26.2375   -4.5374 O   0  0  0  0  0  0  0  0  0  0  0  0
   16.1419  -25.0096   -4.5733 O   0  0  0  0  0  0  0  0  0  0  0  0
  2  3  2  0
  2  1  1  0
  4  2  1  0
  5  4  1  0
  6  5  1  0
  7  8  1  0
  7  6  1  0
  8  9  1  6
 10  8  1  0
 10 11  2  0
 13 12  1  1
 13 15  1  0
 14 13  1  0
 15 16  1  1
 16 10  1  0
 17 15  1  0
 18 17  2  0
 19 17  1  0
 20 19  1  0
 20 26  1  0
 20 21  1  1
 22 21  1  0
 23 22  1  0
 24 23  1  0
 25 24  1  0
 26 28  1  0
 27 26  2  0
M  END
$$$$
