TCC.pdb
     RDKit          3D

 20 19  0  0  1  0  0  0  0  0999 V2000
    6.9057  -18.8476   19.2398 C   0  0  0  0  0  0  0  0  0  0  0  0
    8.0100  -18.8434   18.1788 C   0  0  1  0  0  0  0  0  0  0  0  0
    7.5949  -19.7329   17.1922 O   0  0  0  0  0  0  0  0  0  0  0  0
    8.1913  -17.4327   17.6259 C   0  0  2  0  0  0  0  0  0  0  0  0
    9.0486  -17.4078   16.4843 N   0  0  0  0  0  0  0  0  0  0  0  0
    8.7419  -16.6172   18.7585 C   0  0  0  0  0  0  0  0  0  0  0  0
    9.8508  -16.8887   19.2828 O   0  0  0  0  0  0  0  0  0  0  0  0
    8.0443  -15.4994   19.2978 N   0  0  0  0  0  0  0  0  0  0  0  0
    8.5466  -14.7109   20.3921 C   0  0  1  0  0  0  0  0  0  0  0  0
    7.7096  -13.4729   20.6409 C   0  0  0  0  0  0  0  0  0  0  0  0
    7.6798  -12.5194   19.0980 S   0  0  0  0  0  0  0  0  0  0  0  0
    8.7272  -15.5162   21.6293 C   0  0  0  0  0  0  0  0  0  0  0  0
    7.7919  -16.2315   22.0710 O   0  0  0  0  0  0  0  0  0  0  0  0
    9.9416  -15.5272   22.3732 N   0  0  0  0  0  0  0  0  0  0  0  0
   10.2386  -16.4751   23.4058 C   0  0  1  0  0  0  0  0  0  0  0  0
   10.2485  -17.8913   22.8398 C   0  0  0  0  0  0  0  0  0  0  0  0
    8.7175  -18.7592   23.1896 S   0  0  0  0  0  0  0  0  0  0  0  0
   11.4608  -16.1728   24.1517 C   0  0  0  0  0  0  0  0  0  0  0  0
   11.7958  -16.8229   25.3539 O   0  0  0  0  0  0  0  0  0  0  0  0
   12.2719  -15.3114   23.7469 O   0  0  0  0  0  0  0  0  0  0  0  0
  2  4  1  0
  2  3  1  0
  2  1  1  1
  4  5  1  6
  6  8  1  0
  6  4  1  0
  7  6  2  0
  9 12  1  0
  9 10  1  1
  9  8  1  0
 11 10  1  0
 12 14  1  0
 13 12  2  0
 14 15  1  0
 15 16  1  6
 16 17  1  0
 18 19  1  0
 18 15  1  0
 20 18  2  0
M  END
$$$$
