TCC.pdb
     RDKit          3D

 20 19  0  0  1  0  0  0  0  0999 V2000
    6.2010  -15.3237   20.7822 C   0  0  0  0  0  0  0  0  0  0  0  0
    7.4080  -14.5995   20.1791 C   0  0  1  0  0  0  0  0  0  0  0  0
    7.1510  -14.4998   18.8150 O   0  0  0  0  0  0  0  0  0  0  0  0
    7.5633  -13.2258   20.8253 C   0  0  2  0  0  0  0  0  0  0  0  0
    8.4436  -12.3791   20.0858 N   0  0  0  0  0  0  0  0  0  0  0  0
    8.0678  -13.4822   22.2148 C   0  0  0  0  0  0  0  0  0  0  0  0
    9.2632  -13.8038   22.4289 O   0  0  0  0  0  0  0  0  0  0  0  0
    7.2270  -13.3764   23.3589 N   0  0  0  0  0  0  0  0  0  0  0  0
    7.6491  -13.7488   24.6835 C   0  0  1  0  0  0  0  0  0  0  0  0
    6.7040  -13.2403   25.7528 C   0  0  0  0  0  0  0  0  0  0  0  0
    6.7158  -11.4282   25.6694 S   0  0  0  0  0  0  0  0  0  0  0  0
    7.8905  -15.2112   24.8066 C   0  0  0  0  0  0  0  0  0  0  0  0
    7.4137  -16.0130   23.9633 O   0  0  0  0  0  0  0  0  0  0  0  0
    8.6585  -15.7810   25.8620 N   0  0  0  0  0  0  0  0  0  0  0  0
    9.3931  -17.0057   25.7457 C   0  0  1  0  0  0  0  0  0  0  0  0
   10.3773  -16.9263   24.5832 C   0  0  0  0  0  0  0  0  0  0  0  0
   11.3961  -18.3990   24.4712 S   0  0  0  0  0  0  0  0  0  0  0  0
   10.0427  -17.4253   26.9880 C   0  0  0  0  0  0  0  0  0  0  0  0
   10.7760  -16.5380   27.7974 O   0  0  0  0  0  0  0  0  0  0  0  0
    9.9732  -18.6075   27.3896 O   0  0  0  0  0  0  0  0  0  0  0  0
  2  4  1  0
  2  3  1  0
  2  1  1  1
  4  5  1  6
  6  8  1  0
  6  4  1  0
  7  6  2  0
  9 12  1  0
  9 10  1  1
  9  8  1  0
 11 10  1  0
 12 14  1  0
 13 12  2  0
 14 15  1  0
 15 16  1  6
 16 17  1  0
 18 19  1  0
 18 15  1  0
 20 18  2  0
M  END
$$$$
