TCC.pdb
     RDKit          3D

 20 19  0  0  1  0  0  0  0  0999 V2000
    5.6627  -17.8679   23.2691 C   0  0  0  0  0  0  0  0  0  0  0  0
    6.1480  -17.5839   21.8447 C   0  0  1  0  0  0  0  0  0  0  0  0
    5.2597  -18.2431   21.0002 O   0  0  0  0  0  0  0  0  0  0  0  0
    6.1558  -16.0792   21.5908 C   0  0  2  0  0  0  0  0  0  0  0  0
    6.3258  -15.7672   20.2079 N   0  0  0  0  0  0  0  0  0  0  0  0
    7.2703  -15.5285   22.4310 C   0  0  0  0  0  0  0  0  0  0  0  0
    8.4382  -15.4206   21.9809 O   0  0  0  0  0  0  0  0  0  0  0  0
    7.0682  -15.1012   23.7739 N   0  0  0  0  0  0  0  0  0  0  0  0
    8.1490  -14.8148   24.6802 C   0  0  1  0  0  0  0  0  0  0  0  0
    7.7349  -13.8690   25.7889 C   0  0  0  0  0  0  0  0  0  0  0  0
    5.9376  -14.0171   25.9847 S   0  0  0  0  0  0  0  0  0  0  0  0
    8.7789  -16.0522   25.2132 C   0  0  0  0  0  0  0  0  0  0  0  0
    8.0705  -17.0125   25.6102 O   0  0  0  0  0  0  0  0  0  0  0  0
   10.1898  -16.2226   25.3050 N   0  0  0  0  0  0  0  0  0  0  0  0
   10.8261  -17.4649   25.6289 C   0  0  1  0  0  0  0  0  0  0  0  0
   11.9672  -17.7463   24.6567 C   0  0  0  0  0  0  0  0  0  0  0  0
   12.9268  -16.2703   24.3106 S   0  0  0  0  0  0  0  0  0  0  0  0
   11.2564  -17.5623   27.0242 C   0  0  0  0  0  0  0  0  0  0  0  0
   11.8387  -18.7266   27.5585 O   0  0  0  0  0  0  0  0  0  0  0  0
   11.1231  -16.6013   27.8131 O   0  0  0  0  0  0  0  0  0  0  0  0
  2  4  1  0
  2  3  1  0
  2  1  1  1
  4  5  1  6
  6  8  1  0
  6  4  1  0
  7  6  2  0
  9 12  1  0
  9 10  1  1
  9  8  1  0
 11 10  1  0
 12 14  1  0
 13 12  2  0
 14 15  1  0
 15 16  1  6
 16 17  1  0
 18 19  1  0
 18 15  1  0
 20 18  2  0
M  END
$$$$
