TCC.pdb
     RDKit          3D

 20 19  0  0  1  0  0  0  0  0999 V2000
    7.2161  -17.2801   20.5125 C   0  0  0  0  0  0  0  0  0  0  0  0
    7.6790  -16.6352   21.8220 C   0  0  1  0  0  0  0  0  0  0  0  0
    8.6532  -17.4824   22.3415 O   0  0  0  0  0  0  0  0  0  0  0  0
    8.2342  -15.2411   21.5445 C   0  0  2  0  0  0  0  0  0  0  0  0
    9.3629  -15.2750   20.6706 N   0  0  0  0  0  0  0  0  0  0  0  0
    8.5806  -14.6645   22.8856 C   0  0  0  0  0  0  0  0  0  0  0  0
    9.7628  -14.6586   23.3107 O   0  0  0  0  0  0  0  0  0  0  0  0
    7.5972  -14.0965   23.7443 N   0  0  0  0  0  0  0  0  0  0  0  0
    7.8843  -13.6456   25.0806 C   0  0  1  0  0  0  0  0  0  0  0  0
    6.7742  -12.7854   25.6486 C   0  0  0  0  0  0  0  0  0  0  0  0
    7.2003  -12.4196   27.3735 S   0  0  0  0  0  0  0  0  0  0  0  0
    8.2360  -14.7688   25.9898 C   0  0  0  0  0  0  0  0  0  0  0  0
    7.4097  -15.6877   26.2232 O   0  0  0  0  0  0  0  0  0  0  0  0
    9.5002  -14.8713   26.6375 N   0  0  0  0  0  0  0  0  0  0  0  0
    9.8175  -15.8648   27.6200 C   0  0  1  0  0  0  0  0  0  0  0  0
   10.8690  -16.8287   27.0801 C   0  0  0  0  0  0  0  0  0  0  0  0
   10.3466  -17.5914   25.5423 S   0  0  0  0  0  0  0  0  0  0  0  0
   10.1962  -15.3103   28.9202 C   0  0  0  0  0  0  0  0  0  0  0  0
   10.5350  -16.1199   30.0202 O   0  0  0  0  0  0  0  0  0  0  0  0
   10.2358  -14.0754   29.1125 O   0  0  0  0  0  0  0  0  0  0  0  0
  2  4  1  0
  2  3  1  0
  2  1  1  6
  4  5  1  6
  6  8  1  0
  6  4  1  0
  7  6  2  0
  9 12  1  0
  9 10  1  1
  9  8  1  0
 11 10  1  0
 12 14  1  0
 13 12  2  0
 14 15  1  0
 15 16  1  6
 16 17  1  0
 18 19  1  0
 18 15  1  0
 20 18  2  0
M  END
$$$$
