TCC.pdb
     RDKit          3D

 20 19  0  0  1  0  0  0  0  0999 V2000
    6.1312  -14.3086   19.1359 C   0  0  0  0  0  0  0  0  0  0  0  0
    6.7475  -14.4274   20.5326 C   0  0  1  0  0  0  0  0  0  0  0  0
    7.6293  -15.5024   20.4707 O   0  0  0  0  0  0  0  0  0  0  0  0
    7.4651  -13.1299   20.8939 C   0  0  2  0  0  0  0  0  0  0  0  0
    8.5183  -12.8243   19.9796 N   0  0  0  0  0  0  0  0  0  0  0  0
    7.9742  -13.3200   22.2924 C   0  0  0  0  0  0  0  0  0  0  0  0
    9.1502  -13.7017   22.5153 O   0  0  0  0  0  0  0  0  0  0  0  0
    7.1599  -13.0804   23.4354 N   0  0  0  0  0  0  0  0  0  0  0  0
    7.6115  -13.3004   24.7841 C   0  0  1  0  0  0  0  0  0  0  0  0
    6.6614  -12.7193   25.8111 C   0  0  0  0  0  0  0  0  0  0  0  0
    7.3974  -12.9925   27.4464 S   0  0  0  0  0  0  0  0  0  0  0  0
    7.9084  -14.7330   25.0513 C   0  0  0  0  0  0  0  0  0  0  0  0
    7.0933  -15.6301   24.7160 O   0  0  0  0  0  0  0  0  0  0  0  0
    9.1057  -15.1679   25.6882 N   0  0  0  0  0  0  0  0  0  0  0  0
    9.4016  -16.5380   25.9850 C   0  0  1  0  0  0  0  0  0  0  0  0
   10.2314  -17.1568   24.8648 C   0  0  0  0  0  0  0  0  0  0  0  0
   10.7325  -18.8347   25.2558 S   0  0  0  0  0  0  0  0  0  0  0  0
   10.0149  -16.7390   27.2984 C   0  0  0  0  0  0  0  0  0  0  0  0
   10.2121  -18.0159   27.8557 O   0  0  0  0  0  0  0  0  0  0  0  0
   10.3955  -15.7706   27.9920 O   0  0  0  0  0  0  0  0  0  0  0  0
  2  4  1  0
  2  3  1  0
  2  1  1  6
  4  5  1  6
  6  8  1  0
  6  4  1  0
  7  6  2  0
  9 12  1  0
  9 10  1  1
  9  8  1  0
 11 10  1  0
 12 14  1  0
 13 12  2  0
 14 15  1  0
 15 16  1  6
 16 17  1  0
 18 19  1  0
 18 15  1  0
 20 18  2  0
M  END
$$$$
