TCC.pdb
     RDKit          3D

 20 19  0  0  1  0  0  0  0  0999 V2000
    8.7172  -17.8189   20.6916 C   0  0  0  0  0  0  0  0  0  0  0  0
    9.1829  -17.4382   22.0998 C   0  0  1  0  0  0  0  0  0  0  0  0
    9.8972  -18.5339   22.5751 O   0  0  0  0  0  0  0  0  0  0  0  0
   10.0502  -16.1841   22.0369 C   0  0  2  0  0  0  0  0  0  0  0  0
   11.2397  -16.3898   21.2743 N   0  0  0  0  0  0  0  0  0  0  0  0
   10.3528  -15.8243   23.4617 C   0  0  0  0  0  0  0  0  0  0  0  0
   11.4456  -16.1350   23.9980 O   0  0  0  0  0  0  0  0  0  0  0  0
    9.4262  -15.1166   24.2787 N   0  0  0  0  0  0  0  0  0  0  0  0
    9.6641  -14.8246   25.6678 C   0  0  1  0  0  0  0  0  0  0  0  0
    8.7186  -13.7693   26.2040 C   0  0  0  0  0  0  0  0  0  0  0  0
    9.1451  -13.4940   27.9456 S   0  0  0  0  0  0  0  0  0  0  0  0
    9.6608  -16.0512   26.5090 C   0  0  0  0  0  0  0  0  0  0  0  0
    8.6998  -16.8607   26.4585 O   0  0  0  0  0  0  0  0  0  0  0  0
   10.7206  -16.3776   27.4026 N   0  0  0  0  0  0  0  0  0  0  0  0
   10.7247  -17.5324   28.2507 C   0  0  1  0  0  0  0  0  0  0  0  0
   11.6594  -18.5995   27.6902 C   0  0  0  0  0  0  0  0  0  0  0  0
   11.7292  -20.0465   28.7489 S   0  0  0  0  0  0  0  0  0  0  0  0
   11.0108  -17.2337   29.6545 C   0  0  0  0  0  0  0  0  0  0  0  0
   11.2971  -15.9335   30.1098 O   0  0  0  0  0  0  0  0  0  0  0  0
   11.0131  -18.1341   30.5222 O   0  0  0  0  0  0  0  0  0  0  0  0
  2  4  1  0
  2  3  1  0
  2  1  1  6
  4  5  1  6
  6  8  1  0
  6  4  1  0
  7  6  2  0
  9 12  1  0
  9 10  1  1
  9  8  1  0
 11 10  1  0
 12 14  1  0
 13 12  2  0
 14 15  1  0
 15 16  1  6
 16 17  1  0
 18 19  1  0
 18 15  1  0
 20 18  2  0
M  END
$$$$
