TCC.pdb
     RDKit          3D

 20 19  0  0  1  0  0  0  0  0999 V2000
    6.7777  -17.2387   20.6099 C   0  0  0  0  0  0  0  0  0  0  0  0
    7.3755  -16.5795   21.8562 C   0  0  1  0  0  0  0  0  0  0  0  0
    8.4552  -17.3749   22.2282 O   0  0  0  0  0  0  0  0  0  0  0  0
    7.8116  -15.1542   21.5291 C   0  0  2  0  0  0  0  0  0  0  0  0
    8.7606  -15.1125   20.4631 N   0  0  0  0  0  0  0  0  0  0  0  0
    8.3746  -14.5964   22.8031 C   0  0  0  0  0  0  0  0  0  0  0  0
    9.6095  -14.4195   22.9515 O   0  0  0  0  0  0  0  0  0  0  0  0
    7.5478  -14.2393   23.9057 N   0  0  0  0  0  0  0  0  0  0  0  0
    8.0702  -13.7754   25.1641 C   0  0  1  0  0  0  0  0  0  0  0  0
    7.0296  -13.0395   25.9829 C   0  0  0  0  0  0  0  0  0  0  0  0
    5.6727  -14.1998   26.3041 S   0  0  0  0  0  0  0  0  0  0  0  0
    8.7175  -14.8661   25.9408 C   0  0  0  0  0  0  0  0  0  0  0  0
    8.5189  -16.0714   25.6417 O   0  0  0  0  0  0  0  0  0  0  0  0
    9.5821  -14.6196   27.0454 N   0  0  0  0  0  0  0  0  0  0  0  0
   10.3207  -15.6409   27.7267 C   0  0  1  0  0  0  0  0  0  0  0  0
   11.2101  -15.0254   28.8020 C   0  0  0  0  0  0  0  0  0  0  0  0
   11.9872  -13.5101   28.2367 S   0  0  0  0  0  0  0  0  0  0  0  0
    9.4863  -16.7206   28.2554 C   0  0  0  0  0  0  0  0  0  0  0  0
   10.0269  -17.8638   28.8726 O   0  0  0  0  0  0  0  0  0  0  0  0
    8.2390  -16.6731   28.1804 O   0  0  0  0  0  0  0  0  0  0  0  0
  2  4  1  0
  2  3  1  0
  2  1  1  6
  4  5  1  6
  6  8  1  0
  6  4  1  0
  7  6  2  0
  9 12  1  0
  9 10  1  1
  9  8  1  0
 11 10  1  0
 12 14  1  0
 13 12  2  0
 14 15  1  0
 15 16  1  1
 16 17  1  0
 18 19  1  0
 18 15  1  0
 20 18  2  0
M  END
$$$$
