TCC.pdb
     RDKit          3D

 20 19  0  0  1  0  0  0  0  0999 V2000
    8.1029  -18.1963   20.8399 C   0  0  0  0  0  0  0  0  0  0  0  0
    8.4623  -17.3376   22.0558 C   0  0  1  0  0  0  0  0  0  0  0  0
    9.6330  -17.8822   22.5752 O   0  0  0  0  0  0  0  0  0  0  0  0
    8.6582  -15.8867   21.6252 C   0  0  2  0  0  0  0  0  0  0  0  0
    9.7275  -15.7421   20.6902 N   0  0  0  0  0  0  0  0  0  0  0  0
    8.9093  -15.1159   22.8877 C   0  0  0  0  0  0  0  0  0  0  0  0
   10.0757  -14.8703   23.2845 O   0  0  0  0  0  0  0  0  0  0  0  0
    7.8486  -14.6237   23.6999 N   0  0  0  0  0  0  0  0  0  0  0  0
    8.0603  -14.0046   24.9818 C   0  0  1  0  0  0  0  0  0  0  0  0
    6.8519  -13.2189   25.4480 C   0  0  0  0  0  0  0  0  0  0  0  0
    7.2475  -12.5337   27.0804 S   0  0  0  0  0  0  0  0  0  0  0  0
    8.5182  -14.9787   26.0081 C   0  0  0  0  0  0  0  0  0  0  0  0
    7.8190  -15.9838   26.2953 O   0  0  0  0  0  0  0  0  0  0  0  0
    9.7477  -14.8374   26.7129 N   0  0  0  0  0  0  0  0  0  0  0  0
   10.1757  -15.7177   27.7593 C   0  0  1  0  0  0  0  0  0  0  0  0
   11.5496  -16.2965   27.4376 C   0  0  0  0  0  0  0  0  0  0  0  0
   11.6895  -16.7591   25.7096 S   0  0  0  0  0  0  0  0  0  0  0  0
   10.1313  -15.1162   29.0927 C   0  0  0  0  0  0  0  0  0  0  0  0
   10.4800  -15.8259   30.2566 O   0  0  0  0  0  0  0  0  0  0  0  0
    9.7764  -13.9285   29.2574 O   0  0  0  0  0  0  0  0  0  0  0  0
  2  4  1  0
  2  3  1  0
  2  1  1  6
  4  5  1  6
  6  8  1  0
  6  4  1  0
  7  6  2  0
  9 12  1  0
  9 10  1  1
  9  8  1  0
 11 10  1  0
 12 14  1  0
 13 12  2  0
 14 15  1  0
 15 16  1  6
 16 17  1  0
 18 19  1  0
 18 15  1  0
 20 18  2  0
M  END
$$$$
