TCC.pdb
     RDKit          3D

 20 19  0  0  1  0  0  0  0  0999 V2000
    8.1203  -18.4352   20.6590 C   0  0  0  0  0  0  0  0  0  0  0  0
    8.3996  -17.6162   21.9225 C   0  0  1  0  0  0  0  0  0  0  0  0
    9.3599  -18.3285   22.6347 O   0  0  0  0  0  0  0  0  0  0  0  0
    8.8985  -16.2261   21.5386 C   0  0  2  0  0  0  0  0  0  0  0  0
   10.1250  -16.2765   20.8092 N   0  0  0  0  0  0  0  0  0  0  0  0
    9.0436  -15.4732   22.8282 C   0  0  0  0  0  0  0  0  0  0  0  0
   10.1705  -15.2703   23.3452 O   0  0  0  0  0  0  0  0  0  0  0  0
    7.9218  -14.9510   23.5323 N   0  0  0  0  0  0  0  0  0  0  0  0
    8.0421  -14.1474   24.7203 C   0  0  1  0  0  0  0  0  0  0  0  0
    6.7573  -13.4172   25.0535 C   0  0  0  0  0  0  0  0  0  0  0  0
    7.0385  -12.5004   26.5934 S   0  0  0  0  0  0  0  0  0  0  0  0
    8.5525  -14.9285   25.8785 C   0  0  0  0  0  0  0  0  0  0  0  0
    7.9292  -15.9380   26.2957 O   0  0  0  0  0  0  0  0  0  0  0  0
    9.7502  -14.5902   26.5706 N   0  0  0  0  0  0  0  0  0  0  0  0
   10.2789  -15.3424   27.6695 C   0  0  1  0  0  0  0  0  0  0  0  0
    9.5435  -14.9886   28.9580 C   0  0  0  0  0  0  0  0  0  0  0  0
    9.6715  -13.2400   29.3393 S   0  0  0  0  0  0  0  0  0  0  0  0
   10.3130  -16.7865   27.4350 C   0  0  0  0  0  0  0  0  0  0  0  0
   10.8631  -17.6923   28.3608 O   0  0  0  0  0  0  0  0  0  0  0  0
    9.8480  -17.2850   26.3866 O   0  0  0  0  0  0  0  0  0  0  0  0
  2  4  1  0
  2  3  1  0
  2  1  1  6
  4  5  1  1
  6  8  1  0
  6  4  1  0
  7  6  2  0
  9 12  1  0
  9 10  1  1
  9  8  1  0
 11 10  1  0
 12 14  1  0
 13 12  2  0
 14 15  1  0
 15 16  1  1
 16 17  1  0
 18 19  1  0
 18 15  1  0
 20 18  2  0
M  END
$$$$
