TCC.pdb
     RDKit          3D

 20 19  0  0  1  0  0  0  0  0999 V2000
    8.4733  -12.3408   18.4638 C   0  0  0  0  0  0  0  0  0  0  0  0
    8.2149  -13.2746   19.6497 C   0  0  1  0  0  0  0  0  0  0  0  0
    6.8330  -13.3160   19.8090 O   0  0  0  0  0  0  0  0  0  0  0  0
    8.7899  -14.6571   19.3549 C   0  0  2  0  0  0  0  0  0  0  0  0
    8.3182  -15.1832   18.1142 N   0  0  0  0  0  0  0  0  0  0  0  0
    8.3948  -15.5205   20.5165 C   0  0  0  0  0  0  0  0  0  0  0  0
    7.8343  -16.6319   20.3460 O   0  0  0  0  0  0  0  0  0  0  0  0
    8.6309  -15.1319   21.8656 N   0  0  0  0  0  0  0  0  0  0  0  0
    8.4081  -16.0057   22.9874 C   0  0  1  0  0  0  0  0  0  0  0  0
    9.0172  -17.3770   22.7784 C   0  0  0  0  0  0  0  0  0  0  0  0
    8.7874  -18.3122   24.3158 S   0  0  0  0  0  0  0  0  0  0  0  0
    8.8440  -15.3950   24.2715 C   0  0  0  0  0  0  0  0  0  0  0  0
   10.0649  -15.2169   24.5149 O   0  0  0  0  0  0  0  0  0  0  0  0
    7.9279  -14.9835   25.2813 N   0  0  0  0  0  0  0  0  0  0  0  0
    8.3101  -14.2801   26.4696 C   0  0  1  0  0  0  0  0  0  0  0  0
    7.1847  -13.3572   26.9256 C   0  0  0  0  0  0  0  0  0  0  0  0
    6.3380  -12.6020   25.5355 S   0  0  0  0  0  0  0  0  0  0  0  0
    8.7769  -15.1520   27.5482 C   0  0  0  0  0  0  0  0  0  0  0  0
    9.2955  -14.6518   28.7569 O   0  0  0  0  0  0  0  0  0  0  0  0
    8.7344  -16.3971   27.4406 O   0  0  0  0  0  0  0  0  0  0  0  0
  2  4  1  0
  2  3  1  0
  2  1  1  6
  4  5  1  6
  6  8  1  0
  6  4  1  0
  7  6  2  0
  9 12  1  0
  9 10  1  6
  9  8  1  0
 11 10  1  0
 12 14  1  0
 13 12  2  0
 14 15  1  0
 15 16  1  1
 16 17  1  0
 18 19  1  0
 18 15  1  0
 20 18  2  0
M  END
$$$$
