TCC.pdb
     RDKit          3D

 20 19  0  0  1  0  0  0  0  0999 V2000
    7.2804  -19.3403   16.5703 C   0  0  0  0  0  0  0  0  0  0  0  0
    7.9195  -18.5535   17.7180 C   0  0  1  0  0  0  0  0  0  0  0  0
    8.9408  -19.3598   18.2116 O   0  0  0  0  0  0  0  0  0  0  0  0
    8.4539  -17.2219   17.1982 C   0  0  2  0  0  0  0  0  0  0  0  0
    9.4772  -17.3980   16.2181 N   0  0  0  0  0  0  0  0  0  0  0  0
    8.9541  -16.4831   18.4045 C   0  0  0  0  0  0  0  0  0  0  0  0
   10.1384  -16.6079   18.8048 O   0  0  0  0  0  0  0  0  0  0  0  0
    8.1216  -15.6068   19.1567 N   0  0  0  0  0  0  0  0  0  0  0  0
    8.5604  -14.9373   20.3529 C   0  0  1  0  0  0  0  0  0  0  0  0
    7.5565  -13.9125   20.8399 C   0  0  0  0  0  0  0  0  0  0  0  0
    7.3357  -12.6964   19.5121 S   0  0  0  0  0  0  0  0  0  0  0  0
    8.9409  -15.8944   21.4258 C   0  0  0  0  0  0  0  0  0  0  0  0
    8.7122  -17.1244   21.2985 O   0  0  0  0  0  0  0  0  0  0  0  0
    9.5728  -15.4873   22.6354 N   0  0  0  0  0  0  0  0  0  0  0  0
   10.1878  -16.3922   23.5605 C   0  0  1  0  0  0  0  0  0  0  0  0
   11.5754  -16.7919   23.0695 C   0  0  0  0  0  0  0  0  0  0  0  0
   12.3604  -17.9668   24.1753 S   0  0  0  0  0  0  0  0  0  0  0  0
   10.2129  -15.9015   24.9390 C   0  0  0  0  0  0  0  0  0  0  0  0
   10.2308  -16.7641   26.0506 O   0  0  0  0  0  0  0  0  0  0  0  0
   10.2197  -14.6769   25.1920 O   0  0  0  0  0  0  0  0  0  0  0  0
  2  4  1  0
  2  3  1  0
  2  1  1  6
  4  5  1  6
  6  8  1  0
  6  4  1  0
  7  6  2  0
  9 12  1  0
  9 10  1  1
  9  8  1  0
 11 10  1  0
 12 14  1  0
 13 12  2  0
 14 15  1  0
 15 16  1  6
 16 17  1  0
 18 19  1  0
 18 15  1  0
 20 18  2  0
M  END
$$$$
