TCC.pdb
     RDKit          3D

 20 19  0  0  1  0  0  0  0  0999 V2000
   15.6600  -22.0486   18.6600 C   0  0  0  0  0  0  0  0  0  0  0  0
   14.6203  -21.0146   18.2185 C   0  0  1  0  0  0  0  0  0  0  0  0
   14.4663  -21.1897   16.8465 O   0  0  0  0  0  0  0  0  0  0  0  0
   13.3104  -21.2455   18.9667 C   0  0  2  0  0  0  0  0  0  0  0  0
   12.2317  -20.4948   18.4085 N   0  0  0  0  0  0  0  0  0  0  0  0
   13.5809  -20.8634   20.3921 C   0  0  0  0  0  0  0  0  0  0  0  0
   13.4038  -19.6886   20.8004 O   0  0  0  0  0  0  0  0  0  0  0  0
   14.0493  -21.8030   21.3537 N   0  0  0  0  0  0  0  0  0  0  0  0
   14.2693  -21.4711   22.7368 C   0  0  1  0  0  0  0  0  0  0  0  0
   13.1563  -21.9737   23.6332 C   0  0  0  0  0  0  0  0  0  0  0  0
   12.8476  -23.7066   23.1945 S   0  0  0  0  0  0  0  0  0  0  0  0
   15.6075  -21.9104   23.2147 C   0  0  0  0  0  0  0  0  0  0  0  0
   16.3443  -22.6261   22.4892 O   0  0  0  0  0  0  0  0  0  0  0  0
   16.1254  -21.5564   24.4932 N   0  0  0  0  0  0  0  0  0  0  0  0
   17.5208  -21.5557   24.8188 C   0  0  1  0  0  0  0  0  0  0  0  0
   18.3019  -20.7245   23.8063 C   0  0  0  0  0  0  0  0  0  0  0  0
   20.0723  -20.9660   23.9704 S   0  0  0  0  0  0  0  0  0  0  0  0
   17.8058  -21.1536   26.1967 C   0  0  0  0  0  0  0  0  0  0  0  0
   18.8298  -21.7419   26.9619 O   0  0  0  0  0  0  0  0  0  0  0  0
   17.1422  -20.2569   26.7616 O   0  0  0  0  0  0  0  0  0  0  0  0
  2  4  1  0
  2  3  1  0
  2  1  1  1
  4  5  1  6
  6  8  1  0
  6  4  1  0
  7  6  2  0
  9 12  1  0
  9 10  1  1
  9  8  1  0
 11 10  1  0
 12 14  1  0
 13 12  2  0
 14 15  1  0
 15 16  1  6
 16 17  1  0
 18 19  1  0
 18 15  1  0
 20 18  2  0
M  END
$$$$
