TCC.pdb
     RDKit          3D

 20 19  0  0  1  0  0  0  0  0999 V2000
    7.3734  -12.6239   18.5523 C   0  0  0  0  0  0  0  0  0  0  0  0
    8.1963  -13.7189   19.2371 C   0  0  1  0  0  0  0  0  0  0  0  0
    7.6450  -13.8740   20.5055 O   0  0  0  0  0  0  0  0  0  0  0  0
    8.1171  -15.0093   18.4264 C   0  0  2  0  0  0  0  0  0  0  0  0
    6.7694  -15.4323   18.2175 N   0  0  0  0  0  0  0  0  0  0  0  0
    8.9106  -16.0245   19.1950 C   0  0  0  0  0  0  0  0  0  0  0  0
    8.3543  -16.8368   19.9754 O   0  0  0  0  0  0  0  0  0  0  0  0
   10.3265  -16.1231   19.0840 N   0  0  0  0  0  0  0  0  0  0  0  0
   11.1129  -17.0581   19.8448 C   0  0  1  0  0  0  0  0  0  0  0  0
   12.3587  -17.4989   19.1040 C   0  0  0  0  0  0  0  0  0  0  0  0
   11.8892  -18.8827   18.0291 S   0  0  0  0  0  0  0  0  0  0  0  0
   11.4279  -16.5507   21.2069 C   0  0  0  0  0  0  0  0  0  0  0  0
   11.8634  -15.3824   21.3711 O   0  0  0  0  0  0  0  0  0  0  0  0
   11.2601  -17.3374   22.3821 N   0  0  0  0  0  0  0  0  0  0  0  0
   11.5617  -16.8749   23.7043 C   0  0  1  0  0  0  0  0  0  0  0  0
   10.3540  -17.0551   24.6183 C   0  0  0  0  0  0  0  0  0  0  0  0
   10.7214  -16.5799   26.3090 S   0  0  0  0  0  0  0  0  0  0  0  0
   12.7746  -17.4631   24.2738 C   0  0  0  0  0  0  0  0  0  0  0  0
   13.4129  -18.5818   23.7071 O   0  0  0  0  0  0  0  0  0  0  0  0
   13.3035  -16.9902   25.3035 O   0  0  0  0  0  0  0  0  0  0  0  0
  2  4  1  0
  2  3  1  0
  2  1  1  6
  4  5  1  1
  6  8  1  0
  6  4  1  0
  7  6  2  0
  9 12  1  0
  9 10  1  6
  9  8  1  0
 11 10  1  0
 12 14  1  0
 13 12  2  0
 14 15  1  0
 15 16  1  1
 16 17  1  0
 18 19  1  0
 18 15  1  0
 20 18  2  0
M  END
$$$$
