TCC.pdb
     RDKit          3D

 20 19  0  0  1  0  0  0  0  0999 V2000
    6.1646  -14.7938   19.2907 C   0  0  0  0  0  0  0  0  0  0  0  0
    6.9575  -14.8767   20.5982 C   0  0  1  0  0  0  0  0  0  0  0  0
    8.0330  -15.7212   20.3397 O   0  0  0  0  0  0  0  0  0  0  0  0
    7.4219  -13.4829   21.0112 C   0  0  2  0  0  0  0  0  0  0  0  0
    8.2458  -12.8732   20.0171 N   0  0  0  0  0  0  0  0  0  0  0  0
    8.1509  -13.6630   22.3102 C   0  0  0  0  0  0  0  0  0  0  0  0
    9.4056  -13.7057   22.3569 O   0  0  0  0  0  0  0  0  0  0  0  0
    7.4672  -13.7945   23.5520 N   0  0  0  0  0  0  0  0  0  0  0  0
    8.1433  -14.0077   24.8045 C   0  0  1  0  0  0  0  0  0  0  0  0
    7.3738  -13.4372   25.9782 C   0  0  0  0  0  0  0  0  0  0  0  0
    5.6940  -14.1182   25.9076 S   0  0  0  0  0  0  0  0  0  0  0  0
    8.4986  -15.4363   25.0160 C   0  0  0  0  0  0  0  0  0  0  0  0
    7.7092  -16.3516   24.6683 O   0  0  0  0  0  0  0  0  0  0  0  0
    9.7255  -15.8472   25.6111 N   0  0  0  0  0  0  0  0  0  0  0  0
   10.0779  -17.2144   25.8550 C   0  0  1  0  0  0  0  0  0  0  0  0
   11.4480  -17.5238   25.2606 C   0  0  0  0  0  0  0  0  0  0  0  0
   11.6380  -16.8181   23.6219 S   0  0  0  0  0  0  0  0  0  0  0  0
    9.9883  -17.6057   27.2623 C   0  0  0  0  0  0  0  0  0  0  0  0
   10.2826  -18.9078   27.7074 O   0  0  0  0  0  0  0  0  0  0  0  0
    9.6414  -16.7881   28.1425 O   0  0  0  0  0  0  0  0  0  0  0  0
  2  4  1  0
  2  3  1  0
  2  1  1  6
  4  5  1  6
  6  8  1  0
  6  4  1  0
  7  6  2  0
  9 12  1  0
  9 10  1  1
  9  8  1  0
 11 10  1  0
 12 14  1  0
 13 12  2  0
 14 15  1  0
 15 16  1  1
 16 17  1  0
 18 19  1  0
 18 15  1  0
 20 18  2  0
M  END
$$$$
