RFR.pdb
     RDKit          3D

 34 34  0  0  1  0  0  0  0  0999 V2000
   29.7020  -27.1428  -18.4548 N   0  0  0  0  0  0  0  0  0  0  0  0
   29.0718  -27.6372  -17.2741 C   0  0  0  0  0  0  0  0  0  0  0  0
   29.6846  -28.4194  -16.4714 N   0  0  0  0  0  0  0  0  0  0  0  0
   27.7236  -27.2576  -16.9678 N   0  0  0  0  0  0  0  0  0  0  0  0
   26.9258  -26.3847  -17.7709 C   0  0  0  0  0  0  0  0  0  0  0  0
   27.1212  -24.9397  -17.4755 C   0  0  0  0  0  0  0  0  0  0  0  0
   26.6949  -24.4771  -16.1153 C   0  0  0  0  0  0  0  0  0  0  0  0
   25.3786  -23.8136  -16.0791 C   0  0  2  0  0  0  0  0  0  0  0  0
   25.3675  -22.6982  -16.9951 N   0  0  0  0  0  0  0  0  0  0  0  0
   24.9318  -23.3523  -14.7649 C   0  0  0  0  0  0  0  0  0  0  0  0
   24.8921  -24.2048  -13.8276 O   0  0  0  0  0  0  0  0  0  0  0  0
   29.3005  -28.8735  -15.6357 N   0  0  0  0  0  0  0  0  0  0  0  0
   24.5518  -21.9937  -14.5343 C   0  0  1  0  0  0  0  0  0  0  0  0
   24.2378  -21.4870  -13.2417 C   0  0  0  0  0  0  0  0  0  0  0  0
   24.9394  -20.1229  -13.1309 C   0  0  0  0  0  0  0  0  0  0  0  0
   26.4022  -20.3008  -12.9600 C   0  0  0  0  0  0  0  0  0  0  0  0
   26.8442  -20.8345  -11.7751 C   0  0  0  0  0  0  0  0  0  0  0  0
   28.1994  -21.0264  -11.5543 C   0  0  0  0  0  0  0  0  0  0  0  0
   29.1348  -20.6898  -12.5084 C   0  0  0  0  0  0  0  0  0  0  0  0
   28.6837  -20.1551  -13.6938 C   0  0  0  0  0  0  0  0  0  0  0  0
   27.3154  -19.9652  -13.9082 C   0  0  0  0  0  0  0  0  0  0  0  0
   22.7848  -21.3241  -13.0203 O   0  0  0  0  0  0  0  0  0  0  0  0
   21.9689  -21.0913  -13.9511 N   0  0  0  0  0  0  0  0  0  0  0  0
   17.6556  -24.9583   -7.0010 C   0  0  0  0  0  0  0  0  0  0  0  0
   16.7906  -24.1708   -7.8135 N   0  0  0  0  0  0  0  0  0  0  0  0
   15.5231  -24.3847   -7.7481 N   0  0  0  0  0  0  0  0  0  0  0  0
   17.3206  -23.1587   -8.6849 C   0  0  0  0  0  0  0  0  0  0  0  0
   18.7445  -23.0190   -8.7571 C   0  0  0  0  0  0  0  0  0  0  0  0
   19.0398  -21.9696   -9.8315 C   0  0  0  0  0  0  0  0  0  0  0  0
   20.5211  -21.8593  -10.0642 C   0  0  2  0  0  0  0  0  0  0  0  0
   20.8044  -21.5133  -11.4797 N   0  0  0  0  0  0  0  0  0  0  0  0
   22.2712  -21.4309  -11.7084 C   0  0  0  0  0  0  0  0  0  0  0  0
   20.1565  -20.2950  -11.9546 O   0  0  0  0  0  0  0  0  0  0  0  0
   20.5551  -19.1228  -11.7707 O   0  0  0  0  0  0  0  0  0  0  0  0
  2  3  2  0
  2  1  1  0
  4  2  1  0
  5  4  1  0
  6  5  1  0
  6  7  1  0
  8  7  1  0
  8  9  1  6
 10 11  2  0
 10  8  1  0
 12 10  1  0
 13 12  1  0
 13 14  1  1
 15 16  2  0
 15 14  1  0
 17 16  1  0
 18 17  2  0
 19 18  1  0
 19 20  2  0
 20 15  1  0
 21 13  1  0
 21 31  1  0
 22 21  2  0
 23 24  1  0
 24 26  1  0
 24 25  2  0
 26 27  1  0
 27 28  1  0
 28 29  1  0
 30 29  1  6
 30 31  1  0
 30 32  1  0
 32 33  2  0
 32 34  1  0
M  END
$$$$
