RFR.pdb
     RDKit          3D

 34 34  0  0  1  0  0  0  0  0999 V2000
   28.8359  -19.0273  -18.1308 N   0  0  0  0  0  0  0  0  0  0  0  0
   28.5259  -17.8935  -17.3219 C   0  0  0  0  0  0  0  0  0  0  0  0
   28.2590  -16.7583  -17.8431 N   0  0  0  0  0  0  0  0  0  0  0  0
   28.5092  -18.0143  -15.8934 N   0  0  0  0  0  0  0  0  0  0  0  0
   28.6385  -19.2483  -15.1836 C   0  0  0  0  0  0  0  0  0  0  0  0
   27.3695  -20.0156  -15.0631 C   0  0  0  0  0  0  0  0  0  0  0  0
   26.9251  -20.3483  -13.6710 C   0  0  0  0  0  0  0  0  0  0  0  0
   27.7886  -21.3144  -12.9673 C   0  0  2  0  0  0  0  0  0  0  0  0
   27.8023  -22.5688  -13.6811 N   0  0  0  0  0  0  0  0  0  0  0  0
   27.4525  -21.5695  -11.5667 C   0  0  0  0  0  0  0  0  0  0  0  0
   26.4649  -22.3283  -11.3306 O   0  0  0  0  0  0  0  0  0  0  0  0
   27.9834  -15.9011  -17.3518 N   0  0  0  0  0  0  0  0  0  0  0  0
   28.2024  -20.9906  -10.4963 C   0  0  2  0  0  0  0  0  0  0  0  0
   27.7015  -20.8881   -9.1678 C   0  0  0  0  0  0  0  0  0  0  0  0
   28.7695  -20.1304   -8.3613 C   0  0  0  0  0  0  0  0  0  0  0  0
   28.3084  -19.9027   -6.9697 C   0  0  0  0  0  0  0  0  0  0  0  0
   28.5214  -20.9053   -6.0567 C   0  0  0  0  0  0  0  0  0  0  0  0
   28.1143  -20.7533   -4.7401 C   0  0  0  0  0  0  0  0  0  0  0  0
   27.4889  -19.6023   -4.3126 C   0  0  0  0  0  0  0  0  0  0  0  0
   27.2789  -18.6017   -5.2341 C   0  0  0  0  0  0  0  0  0  0  0  0
   27.6928  -18.7632   -6.5595 C   0  0  0  0  0  0  0  0  0  0  0  0
   26.4102  -20.1716   -9.0891 O   0  0  0  0  0  0  0  0  0  0  0  0
   26.2890  -18.9427   -9.3368 N   0  0  0  0  0  0  0  0  0  0  0  0
   23.8154  -22.1525  -14.2228 C   0  0  0  0  0  0  0  0  0  0  0  0
   22.4248  -22.1877  -13.9167 N   0  0  0  0  0  0  0  0  0  0  0  0
   21.7109  -23.1380  -14.4105 N   0  0  0  0  0  0  0  0  0  0  0  0
   21.8324  -21.1862  -13.0736 C   0  0  0  0  0  0  0  0  0  0  0  0
   22.7087  -20.2597  -12.4210 C   0  0  0  0  0  0  0  0  0  0  0  0
   22.8708  -20.7354  -10.9753 C   0  0  0  0  0  0  0  0  0  0  0  0
   23.6670  -19.7377  -10.1807 C   0  0  1  0  0  0  0  0  0  0  0  0
   23.9110  -20.2392   -8.8050 N   0  0  0  0  0  0  0  0  0  0  0  0
   25.2478  -20.8845   -8.7192 C   0  0  0  0  0  0  0  0  0  0  0  0
   22.8871  -21.1433   -8.2913 O   0  0  0  0  0  0  0  0  0  0  0  0
   23.0580  -22.3299   -7.9313 O   0  0  0  0  0  0  0  0  0  0  0  0
  2  3  2  0
  2  1  1  0
  4  2  1  0
  5  4  1  0
  6  5  1  0
  6  7  1  0
  8  7  1  0
  8  9  1  6
 10 11  2  0
 10  8  1  0
 12 10  1  0
 13 12  1  0
 13 14  1  1
 15 16  2  0
 15 14  1  0
 17 16  1  0
 18 17  2  0
 19 18  1  0
 19 20  2  0
 20 15  1  0
 21 13  1  0
 21 31  1  0
 22 21  2  0
 23 24  1  0
 24 26  1  0
 24 25  2  0
 26 27  1  0
 27 28  1  0
 28 29  1  0
 30 29  1  1
 30 31  1  0
 30 32  1  0
 32 33  2  0
 32 34  1  0
M  END
$$$$
