RFR.pdb
     RDKit          3D

 34 34  0  0  1  0  0  0  0  0999 V2000
   27.0922  -17.2870  -20.1512 N   0  0  0  0  0  0  0  0  0  0  0  0
   27.3560  -16.5482  -18.9594 C   0  0  0  0  0  0  0  0  0  0  0  0
   27.1151  -15.2959  -18.8866 N   0  0  0  0  0  0  0  0  0  0  0  0
   27.9025  -17.2103  -17.8110 N   0  0  0  0  0  0  0  0  0  0  0  0
   28.4863  -18.5149  -17.8300 C   0  0  0  0  0  0  0  0  0  0  0  0
   27.6640  -19.5383  -18.5299 C   0  0  0  0  0  0  0  0  0  0  0  0
   26.8975  -20.4844  -17.6560 C   0  0  0  0  0  0  0  0  0  0  0  0
   27.7372  -21.3639  -16.8221 C   0  0  2  0  0  0  0  0  0  0  0  0
   28.0500  -22.5725  -17.5466 N   0  0  0  0  0  0  0  0  0  0  0  0
   27.1853  -21.7234  -15.5161 C   0  0  0  0  0  0  0  0  0  0  0  0
   26.3892  -22.7087  -15.4681 O   0  0  0  0  0  0  0  0  0  0  0  0
   27.3031  -14.6745  -18.0925 N   0  0  0  0  0  0  0  0  0  0  0  0
   27.5238  -20.9984  -14.3315 C   0  0  2  0  0  0  0  0  0  0  0  0
   26.7708  -21.0897  -13.1270 C   0  0  0  0  0  0  0  0  0  0  0  0
   27.5885  -20.3565  -12.0504 C   0  0  0  0  0  0  0  0  0  0  0  0
   26.8207  -20.2645  -10.7844 C   0  0  0  0  0  0  0  0  0  0  0  0
   26.7404  -21.3919  -10.0055 C   0  0  0  0  0  0  0  0  0  0  0  0
   26.0379  -21.3704   -8.8104 C   0  0  0  0  0  0  0  0  0  0  0  0
   25.4046  -20.2277   -8.3729 C   0  0  0  0  0  0  0  0  0  0  0  0
   25.4896  -19.1014   -9.1595 C   0  0  0  0  0  0  0  0  0  0  0  0
   26.2002  -19.1318  -10.3629 C   0  0  0  0  0  0  0  0  0  0  0  0
   25.4265  -20.4833  -13.2366 O   0  0  0  0  0  0  0  0  0  0  0  0
   25.2337  -19.3057  -13.6395 N   0  0  0  0  0  0  0  0  0  0  0  0
   24.1111  -25.7620  -15.0373 C   0  0  0  0  0  0  0  0  0  0  0  0
   22.8204  -25.5283  -15.5926 N   0  0  0  0  0  0  0  0  0  0  0  0
   22.0502  -26.5378  -15.8028 N   0  0  0  0  0  0  0  0  0  0  0  0
   22.3870  -24.1954  -15.9090 C   0  0  0  0  0  0  0  0  0  0  0  0
   23.0550  -23.1053  -15.2627 C   0  0  0  0  0  0  0  0  0  0  0  0
   22.0797  -22.5252  -14.2356 C   0  0  0  0  0  0  0  0  0  0  0  0
   22.2291  -21.0312  -14.1556 C   0  0  1  0  0  0  0  0  0  0  0  0
   22.9366  -20.6418  -12.9100 N   0  0  0  0  0  0  0  0  0  0  0  0
   24.2942  -21.2473  -12.8755 C   0  0  0  0  0  0  0  0  0  0  0  0
   22.2212  -20.9511  -11.6762 O   0  0  0  0  0  0  0  0  0  0  0  0
   22.6014  -21.7308  -10.7738 O   0  0  0  0  0  0  0  0  0  0  0  0
  2  3  2  0
  2  1  1  0
  4  2  1  0
  5  4  1  0
  6  5  1  0
  6  7  1  0
  8  7  1  0
  8  9  1  6
 10 11  2  0
 10  8  1  0
 12 10  1  0
 13 12  1  0
 13 14  1  1
 15 16  2  0
 15 14  1  0
 17 16  1  0
 18 17  2  0
 19 18  1  0
 19 20  2  0
 20 15  1  0
 21 13  1  0
 21 31  1  0
 22 21  2  0
 23 24  1  0
 24 26  1  0
 24 25  2  0
 26 27  1  0
 27 28  1  0
 28 29  1  0
 30 29  1  6
 30 31  1  0
 30 32  1  0
 32 33  2  0
 32 34  1  0
M  END
$$$$
