RFR.pdb
     RDKit          3D

 34 34  0  0  1  0  0  0  0  0999 V2000
   28.8476  -31.0727  -15.1255 N   0  0  0  0  0  0  0  0  0  0  0  0
   27.5022  -31.1971  -14.6669 C   0  0  0  0  0  0  0  0  0  0  0  0
   27.2304  -31.7423  -13.5443 N   0  0  0  0  0  0  0  0  0  0  0  0
   26.4219  -30.7049  -15.4708 N   0  0  0  0  0  0  0  0  0  0  0  0
   26.5846  -30.0292  -16.7200 C   0  0  0  0  0  0  0  0  0  0  0  0
   27.5644  -28.9103  -16.6823 C   0  0  0  0  0  0  0  0  0  0  0  0
   27.0468  -27.5915  -16.1933 C   0  0  0  0  0  0  0  0  0  0  0  0
   27.3578  -26.4484  -17.0711 C   0  0  2  0  0  0  0  0  0  0  0  0
   28.7881  -26.3141  -17.2113 N   0  0  0  0  0  0  0  0  0  0  0  0
   26.7983  -25.1597  -16.6640 C   0  0  0  0  0  0  0  0  0  0  0  0
   25.5411  -25.0868  -16.5192 O   0  0  0  0  0  0  0  0  0  0  0  0
   26.3048  -31.8465  -13.1147 N   0  0  0  0  0  0  0  0  0  0  0  0
   27.6282  -24.0185  -16.4351 C   0  0  1  0  0  0  0  0  0  0  0  0
   27.1047  -22.7143  -16.2084 C   0  0  0  0  0  0  0  0  0  0  0  0
   28.2763  -21.8631  -15.6908 C   0  0  0  0  0  0  0  0  0  0  0  0
   27.8553  -20.4525  -15.5072 C   0  0  0  0  0  0  0  0  0  0  0  0
   27.2487  -20.1186  -14.3220 C   0  0  0  0  0  0  0  0  0  0  0  0
   26.8327  -18.8166  -14.0892 C   0  0  0  0  0  0  0  0  0  0  0  0
   27.0134  -17.8281  -15.0319 C   0  0  0  0  0  0  0  0  0  0  0  0
   27.6223  -18.1709  -16.2178 C   0  0  0  0  0  0  0  0  0  0  0  0
   28.0389  -19.4860  -16.4441 C   0  0  0  0  0  0  0  0  0  0  0  0
   26.5359  -22.0984  -17.4266 O   0  0  0  0  0  0  0  0  0  0  0  0
   27.0512  -22.2289  -18.5685 N   0  0  0  0  0  0  0  0  0  0  0  0
   19.0724  -19.4135  -19.9739 C   0  0  0  0  0  0  0  0  0  0  0  0
   19.6760  -19.6772  -21.2368 N   0  0  0  0  0  0  0  0  0  0  0  0
   19.1857  -19.1094  -22.2826 N   0  0  0  0  0  0  0  0  0  0  0  0
   20.8083  -20.5557  -21.3408 C   0  0  0  0  0  0  0  0  0  0  0  0
   21.3134  -21.1393  -20.1340 C   0  0  0  0  0  0  0  0  0  0  0  0
   22.7195  -20.5754  -19.9156 C   0  0  0  0  0  0  0  0  0  0  0  0
   23.3527  -21.1996  -18.7032 C   0  0  1  0  0  0  0  0  0  0  0  0
   24.7471  -20.7188  -18.5347 N   0  0  0  0  0  0  0  0  0  0  0  0
   25.3595  -21.3230  -17.3220 C   0  0  0  0  0  0  0  0  0  0  0  0
   24.8949  -19.2674  -18.4976 O   0  0  0  0  0  0  0  0  0  0  0  0
   24.6058  -18.5166  -17.5388 O   0  0  0  0  0  0  0  0  0  0  0  0
  2  3  2  0
  2  1  1  0
  4  2  1  0
  5  4  1  0
  6  5  1  0
  6  7  1  0
  8  7  1  0
  8  9  1  1
 10 11  2  0
 10  8  1  0
 12 10  1  0
 13 12  1  0
 13 14  1  6
 15 16  2  0
 15 14  1  0
 17 16  1  0
 18 17  2  0
 19 18  1  0
 19 20  2  0
 20 15  1  0
 21 13  1  0
 21 31  1  0
 22 21  2  0
 23 24  1  0
 24 26  1  0
 24 25  2  0
 26 27  1  0
 27 28  1  0
 28 29  1  0
 30 29  1  6
 30 31  1  0
 30 32  1  0
 32 33  2  0
 32 34  1  0
M  END
$$$$
