RFR.pdb
     RDKit          3D

 34 34  0  0  1  0  0  0  0  0999 V2000
   28.5825  -24.2743  -18.0489 N   0  0  0  0  0  0  0  0  0  0  0  0
   27.8048  -23.9858  -19.2098 C   0  0  0  0  0  0  0  0  0  0  0  0
   28.1844  -24.3541  -20.3725 N   0  0  0  0  0  0  0  0  0  0  0  0
   26.5693  -23.2690  -19.0859 N   0  0  0  0  0  0  0  0  0  0  0  0
   26.1319  -22.6091  -17.8956 C   0  0  0  0  0  0  0  0  0  0  0  0
   26.8762  -23.0088  -16.6710 C   0  0  0  0  0  0  0  0  0  0  0  0
   26.0518  -23.5387  -15.5371 C   0  0  0  0  0  0  0  0  0  0  0  0
   25.1351  -22.5536  -14.9344 C   0  0  2  0  0  0  0  0  0  0  0  0
   25.3859  -21.2463  -15.4924 N   0  0  0  0  0  0  0  0  0  0  0  0
   25.1673  -22.4603  -13.4750 C   0  0  0  0  0  0  0  0  0  0  0  0
   24.9610  -23.5232  -12.8158 O   0  0  0  0  0  0  0  0  0  0  0  0
   27.6841  -24.2212  -21.2580 N   0  0  0  0  0  0  0  0  0  0  0  0
   25.4213  -21.2227  -12.8063 C   0  0  1  0  0  0  0  0  0  0  0  0
   25.4511  -21.1015  -11.3883 C   0  0  0  0  0  0  0  0  0  0  0  0
   26.3923  -19.9262  -11.0754 C   0  0  0  0  0  0  0  0  0  0  0  0
   26.6710  -19.8539   -9.6202 C   0  0  0  0  0  0  0  0  0  0  0  0
   25.9501  -18.9517   -8.8782 C   0  0  0  0  0  0  0  0  0  0  0  0
   26.1634  -18.8366   -7.5131 C   0  0  0  0  0  0  0  0  0  0  0  0
   27.0970  -19.6165   -6.8662 C   0  0  0  0  0  0  0  0  0  0  0  0
   27.8158  -20.5187   -7.6171 C   0  0  0  0  0  0  0  0  0  0  0  0
   27.5942  -20.6284   -8.9929 C   0  0  0  0  0  0  0  0  0  0  0  0
   24.1181  -20.8480  -10.8002 O   0  0  0  0  0  0  0  0  0  0  0  0
   23.3033  -20.0141  -11.2765 N   0  0  0  0  0  0  0  0  0  0  0  0
   19.1068  -24.4794   -5.2505 C   0  0  0  0  0  0  0  0  0  0  0  0
   18.1950  -24.0962   -6.2754 N   0  0  0  0  0  0  0  0  0  0  0  0
   16.9529  -24.4049   -6.1394 N   0  0  0  0  0  0  0  0  0  0  0  0
   18.6509  -23.3790   -7.4340 C   0  0  0  0  0  0  0  0  0  0  0  0
   20.0222  -23.5343   -7.8183 C   0  0  0  0  0  0  0  0  0  0  0  0
   20.7472  -22.2434   -7.4302 C   0  0  0  0  0  0  0  0  0  0  0  0
   22.1727  -22.2785   -7.9071 C   0  0  2  0  0  0  0  0  0  0  0  0
   22.3360  -21.4531   -9.1302 N   0  0  0  0  0  0  0  0  0  0  0  0
   23.7248  -21.5664   -9.6489 C   0  0  0  0  0  0  0  0  0  0  0  0
   21.9751  -20.0477   -8.9741 O   0  0  0  0  0  0  0  0  0  0  0  0
   22.6619  -19.1631   -8.4149 O   0  0  0  0  0  0  0  0  0  0  0  0
  2  3  2  0
  2  1  1  0
  4  2  1  0
  5  4  1  0
  6  5  1  0
  6  7  1  0
  8  7  1  0
  8  9  1  6
 10 11  2  0
 10  8  1  0
 12 10  1  0
 13 12  1  0
 13 14  1  1
 15 16  2  0
 15 14  1  0
 17 16  1  0
 18 17  2  0
 19 18  1  0
 19 20  2  0
 20 15  1  0
 21 13  1  0
 21 31  1  0
 22 21  2  0
 23 24  1  0
 24 26  1  0
 24 25  2  0
 26 27  1  0
 27 28  1  0
 28 29  1  0
 30 29  1  6
 30 31  1  0
 30 32  1  0
 32 33  2  0
 32 34  1  0
M  END
$$$$
