RFR.pdb
     RDKit          3D

 34 34  0  0  1  0  0  0  0  0999 V2000
   31.1184  -31.3330  -17.4590 N   0  0  0  0  0  0  0  0  0  0  0  0
   30.4689  -32.5916  -17.2862 C   0  0  0  0  0  0  0  0  0  0  0  0
   30.9212  -33.6535  -17.8331 N   0  0  0  0  0  0  0  0  0  0  0  0
   29.2834  -32.6832  -16.4850 N   0  0  0  0  0  0  0  0  0  0  0  0
   28.6597  -31.5749  -15.8322 C   0  0  0  0  0  0  0  0  0  0  0  0
   27.8554  -30.7108  -16.7375 C   0  0  0  0  0  0  0  0  0  0  0  0
   27.0672  -29.6168  -16.0832 C   0  0  0  0  0  0  0  0  0  0  0  0
   27.3281  -28.2689  -16.6208 C   0  0  2  0  0  0  0  0  0  0  0  0
   28.5648  -27.7573  -16.0800 N   0  0  0  0  0  0  0  0  0  0  0  0
   26.2719  -27.2800  -16.4060 C   0  0  0  0  0  0  0  0  0  0  0  0
   26.3345  -26.5757  -15.3539 O   0  0  0  0  0  0  0  0  0  0  0  0
   30.5505  -34.6051  -17.7377 N   0  0  0  0  0  0  0  0  0  0  0  0
   25.2043  -27.1054  -17.3404 C   0  0  1  0  0  0  0  0  0  0  0  0
   24.2004  -26.1075  -17.1904 C   0  0  0  0  0  0  0  0  0  0  0  0
   24.2664  -25.2355  -18.4555 C   0  0  0  0  0  0  0  0  0  0  0  0
   25.4186  -24.3035  -18.3873 C   0  0  0  0  0  0  0  0  0  0  0  0
   26.5880  -24.6920  -18.9921 C   0  0  0  0  0  0  0  0  0  0  0  0
   27.7007  -23.8653  -18.9641 C   0  0  0  0  0  0  0  0  0  0  0  0
   27.6668  -22.6406  -18.3336 C   0  0  0  0  0  0  0  0  0  0  0  0
   26.4906  -22.2583  -17.7294 C   0  0  0  0  0  0  0  0  0  0  0  0
   25.3735  -23.0979  -17.7627 C   0  0  0  0  0  0  0  0  0  0  0  0
   22.8415  -26.6707  -17.0387 O   0  0  0  0  0  0  0  0  0  0  0  0
   22.4314  -27.6644  -17.6950 N   0  0  0  0  0  0  0  0  0  0  0  0
   19.5398  -27.3095   -9.6344 C   0  0  0  0  0  0  0  0  0  0  0  0
   18.9804  -27.8288  -10.8370 N   0  0  0  0  0  0  0  0  0  0  0  0
   18.0902  -28.7543  -10.7508 N   0  0  0  0  0  0  0  0  0  0  0  0
   19.3987  -27.3292  -12.1176 C   0  0  0  0  0  0  0  0  0  0  0  0
   20.4954  -26.4081  -12.1489 C   0  0  0  0  0  0  0  0  0  0  0  0
   20.6390  -25.9283  -13.5953 C   0  0  0  0  0  0  0  0  0  0  0  0
   20.3533  -27.0526  -14.5519 C   0  0  1  0  0  0  0  0  0  0  0  0
   20.5719  -26.6155  -15.9536 N   0  0  0  0  0  0  0  0  0  0  0  0
   21.9481  -26.0774  -16.1189 C   0  0  0  0  0  0  0  0  0  0  0  0
   19.5965  -25.6528  -16.4549 O   0  0  0  0  0  0  0  0  0  0  0  0
   19.8418  -24.5018  -16.8813 O   0  0  0  0  0  0  0  0  0  0  0  0
  2  3  2  0
  2  1  1  0
  4  2  1  0
  5  4  1  0
  6  5  1  0
  6  7  1  0
  8  7  1  0
  8  9  1  1
 10 11  2  0
 10  8  1  0
 12 10  1  0
 13 12  1  0
 13 14  1  1
 15 16  2  0
 15 14  1  0
 17 16  1  0
 18 17  2  0
 19 18  1  0
 19 20  2  0
 20 15  1  0
 21 13  1  0
 21 31  1  0
 22 21  2  0
 23 24  1  0
 24 26  1  0
 24 25  2  0
 26 27  1  0
 27 28  1  0
 28 29  1  0
 30 29  1  6
 30 31  1  0
 30 32  1  0
 32 33  2  0
 32 34  1  0
M  END
$$$$
