RFR.pdb
     RDKit          3D

 34 34  0  0  1  0  0  0  0  0999 V2000
   28.3690  -23.9559  -22.6542 N   0  0  0  0  0  0  0  0  0  0  0  0
   28.8010  -25.1866  -22.0758 C   0  0  0  0  0  0  0  0  0  0  0  0
   29.3270  -26.1072  -22.7880 N   0  0  0  0  0  0  0  0  0  0  0  0
   28.6489  -25.4099  -20.6678 N   0  0  0  0  0  0  0  0  0  0  0  0
   28.2282  -24.4156  -19.7310 C   0  0  0  0  0  0  0  0  0  0  0  0
   26.7519  -24.3085  -19.5806 C   0  0  0  0  0  0  0  0  0  0  0  0
   26.1558  -24.9879  -18.3852 C   0  0  0  0  0  0  0  0  0  0  0  0
   26.9797  -24.9132  -17.1646 C   0  0  2  0  0  0  0  0  0  0  0  0
   27.6631  -26.1676  -16.9580 N   0  0  0  0  0  0  0  0  0  0  0  0
   26.2714  -24.5514  -15.9370 C   0  0  0  0  0  0  0  0  0  0  0  0
   25.7087  -25.4844  -15.2892 O   0  0  0  0  0  0  0  0  0  0  0  0
   29.6987  -27.0059  -22.4620 N   0  0  0  0  0  0  0  0  0  0  0  0
   26.2096  -23.1999  -15.4753 C   0  0  1  0  0  0  0  0  0  0  0  0
   25.5320  -22.8203  -14.2824 C   0  0  0  0  0  0  0  0  0  0  0  0
   26.2578  -21.5723  -13.7524 C   0  0  0  0  0  0  0  0  0  0  0  0
   25.6750  -21.1397  -12.4586 C   0  0  0  0  0  0  0  0  0  0  0  0
   24.7340  -20.1407  -12.4868 C   0  0  0  0  0  0  0  0  0  0  0  0
   24.1513  -19.6924  -11.3114 C   0  0  0  0  0  0  0  0  0  0  0  0
   24.4964  -20.2305  -10.0908 C   0  0  0  0  0  0  0  0  0  0  0  0
   25.4407  -21.2317  -10.0708 C   0  0  0  0  0  0  0  0  0  0  0  0
   26.0230  -21.6779  -11.2608 C   0  0  0  0  0  0  0  0  0  0  0  0
   24.1016  -22.5149  -14.5006 O   0  0  0  0  0  0  0  0  0  0  0  0
   23.6773  -21.8912  -15.5092 N   0  0  0  0  0  0  0  0  0  0  0  0
   16.5430  -26.6752  -13.8686 C   0  0  0  0  0  0  0  0  0  0  0  0
   16.2004  -25.3064  -14.0628 N   0  0  0  0  0  0  0  0  0  0  0  0
   14.9762  -25.0112  -14.3284 N   0  0  0  0  0  0  0  0  0  0  0  0
   17.1987  -24.2777  -13.9622 C   0  0  0  0  0  0  0  0  0  0  0  0
   18.5436  -24.6787  -13.6747 C   0  0  0  0  0  0  0  0  0  0  0  0
   19.4165  -23.4248  -13.7677 C   0  0  0  0  0  0  0  0  0  0  0  0
   20.8636  -23.7763  -13.5602 C   0  0  2  0  0  0  0  0  0  0  0  0
   21.7194  -22.5706  -13.6925 N   0  0  0  0  0  0  0  0  0  0  0  0
   23.1530  -22.9348  -13.5414 C   0  0  0  0  0  0  0  0  0  0  0  0
   21.3841  -21.4782  -12.7847 O   0  0  0  0  0  0  0  0  0  0  0  0
   21.8699  -21.2828  -11.6478 O   0  0  0  0  0  0  0  0  0  0  0  0
  2  3  2  0
  2  1  1  0
  4  2  1  0
  5  4  1  0
  6  5  1  0
  6  7  1  0
  8  7  1  0
  8  9  1  1
 10 11  2  0
 10  8  1  0
 12 10  1  0
 13 12  1  0
 13 14  1  1
 15 16  2  0
 15 14  1  0
 17 16  1  0
 18 17  2  0
 19 18  1  0
 19 20  2  0
 20 15  1  0
 21 13  1  0
 21 31  1  0
 22 21  2  0
 23 24  1  0
 24 26  1  0
 24 25  2  0
 26 27  1  0
 27 28  1  0
 28 29  1  0
 30 29  1  6
 30 31  1  0
 30 32  1  0
 32 33  2  0
 32 34  1  0
M  END
$$$$
