RFR.pdb
     RDKit          3D

 34 34  0  0  1  0  0  0  0  0999 V2000
   23.8172  -17.4067  -18.7043 N   0  0  0  0  0  0  0  0  0  0  0  0
   25.2174  -17.2915  -18.9537 C   0  0  0  0  0  0  0  0  0  0  0  0
   25.6777  -16.4244  -19.7708 N   0  0  0  0  0  0  0  0  0  0  0  0
   26.1397  -18.1590  -18.2811 N   0  0  0  0  0  0  0  0  0  0  0  0
   26.0666  -19.5865  -18.2961 C   0  0  0  0  0  0  0  0  0  0  0  0
   24.6850  -20.1254  -18.1762 C   0  0  0  0  0  0  0  0  0  0  0  0
   24.3740  -20.8800  -16.9193 C   0  0  0  0  0  0  0  0  0  0  0  0
   25.5482  -21.4793  -16.2588 C   0  0  2  0  0  0  0  0  0  0  0  0
   25.9099  -22.7080  -16.9242 N   0  0  0  0  0  0  0  0  0  0  0  0
   25.4118  -21.7386  -14.8257 C   0  0  0  0  0  0  0  0  0  0  0  0
   24.9276  -22.8568  -14.4767 O   0  0  0  0  0  0  0  0  0  0  0  0
   26.6623  -16.2525  -20.0013 N   0  0  0  0  0  0  0  0  0  0  0  0
   25.8065  -20.7748  -13.8465 C   0  0  2  0  0  0  0  0  0  0  0  0
   25.6191  -20.9706  -12.4491 C   0  0  0  0  0  0  0  0  0  0  0  0
   26.5760  -19.9942  -11.7445 C   0  0  0  0  0  0  0  0  0  0  0  0
   26.5929  -20.2440  -10.2823 C   0  0  0  0  0  0  0  0  0  0  0  0
   27.3435  -21.2986   -9.8255 C   0  0  0  0  0  0  0  0  0  0  0  0
   27.4009  -21.5838   -8.4699 C   0  0  0  0  0  0  0  0  0  0  0  0
   26.7122  -20.8248   -7.5490 C   0  0  0  0  0  0  0  0  0  0  0  0
   25.9618  -19.7691   -8.0149 C   0  0  0  0  0  0  0  0  0  0  0  0
   25.9098  -19.4885   -9.3834 C   0  0  0  0  0  0  0  0  0  0  0  0
   24.2299  -20.7176  -12.0097 O   0  0  0  0  0  0  0  0  0  0  0  0
   23.5458  -19.7424  -12.4186 N   0  0  0  0  0  0  0  0  0  0  0  0
   17.7847  -23.8421   -7.8249 C   0  0  0  0  0  0  0  0  0  0  0  0
   18.9522  -24.6352   -8.0165 N   0  0  0  0  0  0  0  0  0  0  0  0
   18.8078  -25.8811   -8.3051 N   0  0  0  0  0  0  0  0  0  0  0  0
   20.2617  -24.0569   -7.8925 C   0  0  0  0  0  0  0  0  0  0  0  0
   20.3485  -22.6650   -7.5652 C   0  0  0  0  0  0  0  0  0  0  0  0
   20.5859  -21.9088   -8.8746 C   0  0  0  0  0  0  0  0  0  0  0  0
   22.0193  -22.0460   -9.3073 C   0  0  2  0  0  0  0  0  0  0  0  0
   22.2445  -21.3520  -10.6002 N   0  0  0  0  0  0  0  0  0  0  0  0
   23.6270  -21.6016  -11.0871 C   0  0  0  0  0  0  0  0  0  0  0  0
   21.9736  -19.9182  -10.5817 O   0  0  0  0  0  0  0  0  0  0  0  0
   22.7661  -19.0180  -10.2235 O   0  0  0  0  0  0  0  0  0  0  0  0
  2  3  2  0
  2  1  1  0
  4  2  1  0
  5  4  1  0
  6  5  1  0
  6  7  1  0
  8  7  1  0
  8  9  1  6
 10 11  2  0
 10  8  1  0
 12 10  1  0
 13 12  1  0
 13 14  1  1
 15 16  2  0
 15 14  1  0
 17 16  1  0
 18 17  2  0
 19 18  1  0
 19 20  2  0
 20 15  1  0
 21 13  1  0
 21 31  1  0
 22 21  2  0
 23 24  1  0
 24 26  1  0
 24 25  2  0
 26 27  1  0
 27 28  1  0
 28 29  1  0
 30 29  1  6
 30 31  1  0
 30 32  1  0
 32 33  2  0
 32 34  1  0
M  END
$$$$
