RFR.pdb
     RDKit          3D

 34 34  0  0  1  0  0  0  0  0999 V2000
   31.1925  -22.4842  -18.9981 N   0  0  0  0  0  0  0  0  0  0  0  0
   30.4300  -23.4462  -19.7255 C   0  0  0  0  0  0  0  0  0  0  0  0
   30.9969  -24.3561  -20.4199 N   0  0  0  0  0  0  0  0  0  0  0  0
   28.9974  -23.4045  -19.6864 N   0  0  0  0  0  0  0  0  0  0  0  0
   28.2351  -22.4408  -18.9560 C   0  0  0  0  0  0  0  0  0  0  0  0
   28.1291  -22.7272  -17.4999 C   0  0  0  0  0  0  0  0  0  0  0  0
   26.7875  -23.1801  -17.0088 C   0  0  0  0  0  0  0  0  0  0  0  0
   25.9926  -22.1308  -16.3447 C   0  0  2  0  0  0  0  0  0  0  0  0
   26.4962  -20.8290  -16.7125 N   0  0  0  0  0  0  0  0  0  0  0  0
   25.9154  -22.2146  -14.8864 C   0  0  0  0  0  0  0  0  0  0  0  0
   25.6180  -23.3378  -14.3796 O   0  0  0  0  0  0  0  0  0  0  0  0
   30.5442  -25.0224  -21.0550 N   0  0  0  0  0  0  0  0  0  0  0  0
   26.1642  -21.0794  -14.0540 C   0  0  1  0  0  0  0  0  0  0  0  0
   26.0519  -21.1209  -12.6356 C   0  0  0  0  0  0  0  0  0  0  0  0
   26.9394  -19.9852  -12.0992 C   0  0  0  0  0  0  0  0  0  0  0  0
   27.1155  -20.1095  -10.6314 C   0  0  0  0  0  0  0  0  0  0  0  0
   26.3183  -19.3340   -9.8269 C   0  0  0  0  0  0  0  0  0  0  0  0
   26.4340  -19.4046   -8.4471 C   0  0  0  0  0  0  0  0  0  0  0  0
   27.3445  -20.2470   -7.8474 C   0  0  0  0  0  0  0  0  0  0  0  0
   28.1404  -21.0213   -8.6609 C   0  0  0  0  0  0  0  0  0  0  0  0
   28.0169  -20.9440  -10.0511 C   0  0  0  0  0  0  0  0  0  0  0  0
   24.6636  -20.9415  -12.1587 O   0  0  0  0  0  0  0  0  0  0  0  0
   23.8639  -20.1110  -12.6657 N   0  0  0  0  0  0  0  0  0  0  0  0
   18.9306  -24.8987   -6.5691 C   0  0  0  0  0  0  0  0  0  0  0  0
   18.6873  -24.1930   -7.7821 N   0  0  0  0  0  0  0  0  0  0  0  0
   17.8050  -24.6570   -8.5963 N   0  0  0  0  0  0  0  0  0  0  0  0
   19.4088  -22.9889   -8.0891 C   0  0  0  0  0  0  0  0  0  0  0  0
   20.8145  -23.0992   -8.3419 C   0  0  0  0  0  0  0  0  0  0  0  0
   21.3328  -21.6872   -8.6256 C   0  0  0  0  0  0  0  0  0  0  0  0
   22.7525  -21.7385   -9.1181 C   0  0  2  0  0  0  0  0  0  0  0  0
   22.8007  -21.5828  -10.5936 N   0  0  0  0  0  0  0  0  0  0  0  0
   24.1966  -21.7306  -11.0839 C   0  0  0  0  0  0  0  0  0  0  0  0
   22.2239  -20.3409  -11.0983 O   0  0  0  0  0  0  0  0  0  0  0  0
   22.7963  -19.2297  -11.1632 O   0  0  0  0  0  0  0  0  0  0  0  0
  2  3  2  0
  2  1  1  0
  4  2  1  0
  5  4  1  0
  6  5  1  0
  6  7  1  0
  8  7  1  0
  8  9  1  1
 10 11  2  0
 10  8  1  0
 12 10  1  0
 13 12  1  0
 13 14  1  1
 15 16  2  0
 15 14  1  0
 17 16  1  0
 18 17  2  0
 19 18  1  0
 19 20  2  0
 20 15  1  0
 21 13  1  0
 21 31  1  0
 22 21  2  0
 23 24  1  0
 24 26  1  0
 24 25  2  0
 26 27  1  0
 27 28  1  0
 28 29  1  0
 30 29  1  6
 30 31  1  0
 30 32  1  0
 32 33  2  0
 32 34  1  0
M  END
$$$$
