RFR.pdb
     RDKit          3D

 34 34  0  0  1  0  0  0  0  0999 V2000
   21.9610  -20.4433  -17.8048 N   0  0  0  0  0  0  0  0  0  0  0  0
   22.4398  -21.2194  -18.9021 C   0  0  0  0  0  0  0  0  0  0  0  0
   21.6700  -21.5556  -19.8644 N   0  0  0  0  0  0  0  0  0  0  0  0
   23.8105  -21.6383  -18.9406 N   0  0  0  0  0  0  0  0  0  0  0  0
   24.7939  -21.2814  -17.9665 C   0  0  0  0  0  0  0  0  0  0  0  0
   26.1343  -21.8797  -18.2091 C   0  0  0  0  0  0  0  0  0  0  0  0
   27.1784  -21.6124  -17.1678 C   0  0  0  0  0  0  0  0  0  0  0  0
   27.3006  -22.6624  -16.1399 C   0  0  2  0  0  0  0  0  0  0  0  0
   27.0948  -23.9595  -16.7386 N   0  0  0  0  0  0  0  0  0  0  0  0
   26.4164  -22.5289  -14.9822 C   0  0  0  0  0  0  0  0  0  0  0  0
   25.6894  -23.5233  -14.6832 O   0  0  0  0  0  0  0  0  0  0  0  0
   21.9058  -22.1485  -20.6675 N   0  0  0  0  0  0  0  0  0  0  0  0
   26.3659  -21.3273  -14.2096 C   0  0  1  0  0  0  0  0  0  0  0  0
   25.5637  -21.1921  -13.0414 C   0  0  0  0  0  0  0  0  0  0  0  0
   26.1748  -20.0374  -12.2299 C   0  0  0  0  0  0  0  0  0  0  0  0
   26.7843  -20.5458  -10.9766 C   0  0  0  0  0  0  0  0  0  0  0  0
   26.0721  -20.3897   -9.8136 C   0  0  0  0  0  0  0  0  0  0  0  0
   26.5870  -20.8442   -8.6092 C   0  0  0  0  0  0  0  0  0  0  0  0
   27.8178  -21.4600   -8.5437 C   0  0  0  0  0  0  0  0  0  0  0  0
   28.5258  -21.6128   -9.7142 C   0  0  0  0  0  0  0  0  0  0  0  0
   27.9991  -21.1518  -10.9242 C   0  0  0  0  0  0  0  0  0  0  0  0
   24.1459  -20.8991  -13.3428 O   0  0  0  0  0  0  0  0  0  0  0  0
   23.7860  -20.0712  -14.2210 N   0  0  0  0  0  0  0  0  0  0  0  0
   17.5663  -25.1561  -12.4001 C   0  0  0  0  0  0  0  0  0  0  0  0
   18.7774  -25.1010  -11.6525 N   0  0  0  0  0  0  0  0  0  0  0  0
   19.4286  -26.1937  -11.4565 N   0  0  0  0  0  0  0  0  0  0  0  0
   19.2626  -23.8532  -11.1306 C   0  0  0  0  0  0  0  0  0  0  0  0
   18.4897  -22.6754  -11.3903 C   0  0  0  0  0  0  0  0  0  0  0  0
   19.3891  -21.7085  -12.1642 C   0  0  0  0  0  0  0  0  0  0  0  0
   20.8350  -22.0795  -11.9851 C   0  0  1  0  0  0  0  0  0  0  0  0
   21.7063  -21.2013  -12.8057 N   0  0  0  0  0  0  0  0  0  0  0  0
   23.1346  -21.5706  -12.6199 C   0  0  0  0  0  0  0  0  0  0  0  0
   21.5269  -19.7715  -12.5753 O   0  0  0  0  0  0  0  0  0  0  0  0
   21.8106  -19.1475  -11.5279 O   0  0  0  0  0  0  0  0  0  0  0  0
  2  3  2  0
  2  1  1  0
  4  2  1  0
  5  4  1  0
  6  5  1  0
  6  7  1  0
  8  7  1  0
  8  9  1  6
 10 11  2  0
 10  8  1  0
 12 10  1  0
 13 12  1  0
 13 14  1  1
 15 16  2  0
 15 14  1  0
 17 16  1  0
 18 17  2  0
 19 18  1  0
 19 20  2  0
 20 15  1  0
 21 13  1  0
 21 31  1  0
 22 21  2  0
 23 24  1  0
 24 26  1  0
 24 25  2  0
 26 27  1  0
 27 28  1  0
 28 29  1  0
 30 29  1  6
 30 31  1  0
 30 32  1  0
 32 33  2  0
 32 34  1  0
M  END
$$$$
