RFR.pdb
     RDKit          3D

 34 34  0  0  1  0  0  0  0  0999 V2000
   23.3163  -18.9209  -18.0856 N   0  0  0  0  0  0  0  0  0  0  0  0
   24.7095  -18.6412  -17.9566 C   0  0  0  0  0  0  0  0  0  0  0  0
   25.2106  -17.5482  -18.3878 N   0  0  0  0  0  0  0  0  0  0  0  0
   25.5781  -19.5959  -17.3324 N   0  0  0  0  0  0  0  0  0  0  0  0
   25.1575  -20.8665  -16.8305 C   0  0  0  0  0  0  0  0  0  0  0  0
   24.9770  -20.9071  -15.3543 C   0  0  0  0  0  0  0  0  0  0  0  0
   25.9335  -20.0837  -14.5462 C   0  0  0  0  0  0  0  0  0  0  0  0
   26.6117  -20.8201  -13.4637 C   0  0  2  0  0  0  0  0  0  0  0  0
   27.3012  -21.9653  -14.0082 N   0  0  0  0  0  0  0  0  0  0  0  0
   25.7595  -21.2608  -12.3595 C   0  0  0  0  0  0  0  0  0  0  0  0
   25.4370  -22.4861  -12.3219 O   0  0  0  0  0  0  0  0  0  0  0  0
   26.1997  -17.2767  -18.3835 N   0  0  0  0  0  0  0  0  0  0  0  0
   25.3017  -20.3529  -11.3547 C   0  0  2  0  0  0  0  0  0  0  0  0
   24.4971  -20.7598  -10.2532 C   0  0  0  0  0  0  0  0  0  0  0  0
   24.5602  -19.6160   -9.2271 C   0  0  0  0  0  0  0  0  0  0  0  0
   25.8307  -19.6699   -8.4630 C   0  0  0  0  0  0  0  0  0  0  0  0
   26.2677  -20.9008   -8.0410 C   0  0  0  0  0  0  0  0  0  0  0  0
   27.4481  -21.0180   -7.3231 C   0  0  0  0  0  0  0  0  0  0  0  0
   28.2106  -19.9128   -7.0140 C   0  0  0  0  0  0  0  0  0  0  0  0
   27.7656  -18.6821   -7.4407 C   0  0  0  0  0  0  0  0  0  0  0  0
   26.5745  -18.5731   -8.1642 C   0  0  0  0  0  0  0  0  0  0  0  0
   23.0907  -21.0213  -10.6282 O   0  0  0  0  0  0  0  0  0  0  0  0
   22.5638  -20.5706  -11.6796 N   0  0  0  0  0  0  0  0  0  0  0  0
   18.1524  -26.2398   -6.2483 C   0  0  0  0  0  0  0  0  0  0  0  0
   17.7471  -24.8767   -6.3289 N   0  0  0  0  0  0  0  0  0  0  0  0
   16.9388  -24.4225   -5.4363 N   0  0  0  0  0  0  0  0  0  0  0  0
   18.2315  -24.0272   -7.3817 C   0  0  0  0  0  0  0  0  0  0  0  0
   18.3793  -24.5995   -8.6865 C   0  0  0  0  0  0  0  0  0  0  0  0
   18.9134  -23.4967   -9.6038 C   0  0  0  0  0  0  0  0  0  0  0  0
   20.2885  -23.0723   -9.1685 C   0  0  2  0  0  0  0  0  0  0  0  0
   20.8881  -22.1440  -10.1597 N   0  0  0  0  0  0  0  0  0  0  0  0
   22.2861  -21.8117   -9.7773 C   0  0  0  0  0  0  0  0  0  0  0  0
   20.1294  -20.9188  -10.3895 O   0  0  0  0  0  0  0  0  0  0  0  0
   20.2149  -19.8585   -9.7298 O   0  0  0  0  0  0  0  0  0  0  0  0
  2  3  2  0
  2  1  1  0
  4  2  1  0
  5  4  1  0
  6  5  1  0
  6  7  1  0
  8  7  1  0
  8  9  1  6
 10 11  2  0
 10  8  1  0
 12 10  1  0
 13 12  1  0
 13 14  1  6
 15 16  2  0
 15 14  1  0
 17 16  1  0
 18 17  2  0
 19 18  1  0
 19 20  2  0
 20 15  1  0
 21 13  1  0
 21 31  1  0
 22 21  2  0
 23 24  1  0
 24 26  1  0
 24 25  2  0
 26 27  1  0
 27 28  1  0
 28 29  1  0
 30 29  1  6
 30 31  1  0
 30 32  1  0
 32 33  2  0
 32 34  1  0
M  END
$$$$
