CDQ.pdb
     RDKit          3D

 24 23  0  0  1  0  0  0  0  0999 V2000
   24.2650  -20.2936  -15.5836 N   0  0  0  0  0  0  0  0  0  0  0  0
   23.8805  -21.4962  -14.8758 C   0  0  1  0  0  0  0  0  0  0  0  0
   25.0375  -21.9346  -14.0252 C   0  0  0  0  0  0  0  0  0  0  0  0
   26.3464  -22.6076  -15.0556 S   0  0  0  0  0  0  0  0  0  0  0  0
   22.6513  -21.2927  -14.0733 C   0  0  0  0  0  0  0  0  0  0  0  0
   22.6258  -20.3081  -13.2931 O   0  0  0  0  0  0  0  0  0  0  0  0
   21.5447  -22.1618  -14.1705 N   0  0  0  0  0  0  0  0  0  0  0  0
   20.3258  -21.9715  -13.4288 C   0  0  1  0  0  0  0  0  0  0  0  0
   19.2013  -21.4754  -14.2966 C   0  0  0  0  0  0  0  0  0  0  0  0
   17.9572  -21.2483  -13.5459 C   0  0  0  0  0  0  0  0  0  0  0  0
   17.8921  -20.3067  -12.7244 O   0  0  0  0  0  0  0  0  0  0  0  0
   19.8782  -23.2519  -12.8183 C   0  0  0  0  0  0  0  0  0  0  0  0
   20.0465  -24.3063  -13.4471 O   0  0  0  0  0  0  0  0  0  0  0  0
   16.8505  -22.0527  -13.7249 O   0  0  0  0  0  0  0  0  0  0  0  0
   18.8906  -24.3454   -6.6834 N   0  0  0  0  0  0  0  0  0  0  0  0
   18.4876  -25.5681   -7.2438 C   0  0  0  0  0  0  0  0  0  0  0  0
   18.1358  -26.5105   -6.5197 O   0  0  0  0  0  0  0  0  0  0  0  0
   18.4832  -25.7311   -8.7101 C   0  0  0  0  0  0  0  0  0  0  0  0
   18.8926  -24.5002   -9.4398 C   0  0  0  0  0  0  0  0  0  0  0  0
   18.8717  -24.5941  -10.9236 C   0  0  2  0  0  0  0  0  0  0  0  0
   19.2638  -23.3129  -11.5392 N   0  0  0  0  0  0  0  0  0  0  0  0
   17.6186  -25.0342  -11.5308 C   0  0  0  0  0  0  0  0  0  0  0  0
   17.4314  -26.4029  -11.8204 O   0  0  0  0  0  0  0  0  0  0  0  0
   16.6396  -24.3109  -11.8422 O   0  0  0  0  0  0  0  0  0  0  0  0
  2  5  1  0
  2  1  1  1
  3  2  1  0
  4  3  1  0
  5  6  2  0
  7  5  1  0
  8  7  1  0
  8  9  1  6
  8 12  1  0
  9 10  1  0
 10 14  1  0
 11 10  2  0
 12 13  2  0
 16 17  2  0
 16 15  1  0
 18 16  1  0
 19 18  1  0
 20 19  1  1
 21 12  1  0
 21 20  1  0
 22 23  1  0
 22 20  1  0
 24 22  2  0
M  END
$$$$
