CDQ.pdb
     RDKit          3D

 24 23  0  0  1  0  0  0  0  0999 V2000
   15.3428  -13.3269  -15.4396 N   0  0  0  0  0  0  0  0  0  0  0  0
   15.4601  -11.8850  -15.4848 C   0  0  1  0  0  0  0  0  0  0  0  0
   14.4582  -11.2989  -14.5323 C   0  0  0  0  0  0  0  0  0  0  0  0
   12.8699  -11.0972  -15.3476 S   0  0  0  0  0  0  0  0  0  0  0  0
   16.8392  -11.4357  -15.1806 C   0  0  0  0  0  0  0  0  0  0  0  0
   17.3640  -11.8558  -14.1191 O   0  0  0  0  0  0  0  0  0  0  0  0
   17.5482  -10.5703  -16.0395 N   0  0  0  0  0  0  0  0  0  0  0  0
   18.8748  -10.0899  -15.7544 C   0  0  1  0  0  0  0  0  0  0  0  0
   19.7210   -9.9811  -16.9937 C   0  0  0  0  0  0  0  0  0  0  0  0
   21.1185   -9.6272  -16.7026 C   0  0  0  0  0  0  0  0  0  0  0  0
   21.4999   -9.5347  -15.5145 O   0  0  0  0  0  0  0  0  0  0  0  0
   18.8215   -8.7372  -15.1382 C   0  0  0  0  0  0  0  0  0  0  0  0
   18.1136   -7.8668  -15.6643 O   0  0  0  0  0  0  0  0  0  0  0  0
   22.0279   -9.3924  -17.7134 O   0  0  0  0  0  0  0  0  0  0  0  0
   17.4083   -7.1863   -9.7477 N   0  0  0  0  0  0  0  0  0  0  0  0
   16.6745   -6.8410  -10.8938 C   0  0  0  0  0  0  0  0  0  0  0  0
   15.4604   -6.6030  -10.8197 O   0  0  0  0  0  0  0  0  0  0  0  0
   17.3572   -6.7610  -12.1992 C   0  0  0  0  0  0  0  0  0  0  0  0
   18.8241   -6.9964  -12.1110 C   0  0  0  0  0  0  0  0  0  0  0  0
   19.5488   -7.0389  -13.4087 C   0  0  2  0  0  0  0  0  0  0  0  0
   19.5524   -8.4036  -13.9670 N   0  0  0  0  0  0  0  0  0  0  0  0
   20.9203   -6.5373  -13.4054 C   0  0  0  0  0  0  0  0  0  0  0  0
   21.1705   -5.2050  -13.0121 O   0  0  0  0  0  0  0  0  0  0  0  0
   21.9546   -7.1751  -13.7246 O   0  0  0  0  0  0  0  0  0  0  0  0
  2  5  1  0
  2  1  1  1
  3  2  1  0
  4  3  1  0
  5  6  2  0
  7  5  1  0
  8  7  1  0
  8  9  1  6
  8 12  1  0
  9 10  1  0
 10 14  1  0
 11 10  2  0
 12 13  2  0
 16 17  2  0
 16 15  1  0
 18 16  1  0
 19 18  1  0
 20 19  1  1
 21 12  1  0
 21 20  1  0
 22 23  1  0
 22 20  1  0
 24 22  2  0
M  END
$$$$
