CDQ.pdb
     RDKit          3D

 24 23  0  0  1  0  0  0  0  0999 V2000
   16.2982  -12.1092  -15.9415 N   0  0  0  0  0  0  0  0  0  0  0  0
   16.9121  -12.2355  -14.6369 C   0  0  1  0  0  0  0  0  0  0  0  0
   17.8590  -13.4003  -14.6707 C   0  0  0  0  0  0  0  0  0  0  0  0
   16.9635  -14.9193  -15.0154 S   0  0  0  0  0  0  0  0  0  0  0  0
   17.5909  -10.9841  -14.2250 C   0  0  0  0  0  0  0  0  0  0  0  0
   18.2136  -10.9956  -13.1337 O   0  0  0  0  0  0  0  0  0  0  0  0
   17.5486   -9.8174  -15.0165 N   0  0  0  0  0  0  0  0  0  0  0  0
   18.0947   -8.5557  -14.5899 C   0  0  1  0  0  0  0  0  0  0  0  0
   18.6379   -7.7511  -15.7394 C   0  0  0  0  0  0  0  0  0  0  0  0
   19.7701   -8.4064  -16.4113 C   0  0  0  0  0  0  0  0  0  0  0  0
   20.6369   -8.9984  -15.7302 O   0  0  0  0  0  0  0  0  0  0  0  0
   17.0497   -7.7287  -13.9292 C   0  0  0  0  0  0  0  0  0  0  0  0
   15.8864   -7.7829  -14.3527 O   0  0  0  0  0  0  0  0  0  0  0  0
   19.9031   -8.3857  -17.7846 O   0  0  0  0  0  0  0  0  0  0  0  0
   15.6209   -7.3548   -8.1807 N   0  0  0  0  0  0  0  0  0  0  0  0
   14.8534   -6.2694   -8.6324 C   0  0  0  0  0  0  0  0  0  0  0  0
   14.0387   -5.7145   -7.8811 O   0  0  0  0  0  0  0  0  0  0  0  0
   15.0195   -5.7856  -10.0162 C   0  0  0  0  0  0  0  0  0  0  0  0
   16.0341   -6.5523  -10.7894 C   0  0  0  0  0  0  0  0  0  0  0  0
   16.2858   -6.0730  -12.1743 C   0  0  2  0  0  0  0  0  0  0  0  0
   17.3344   -6.8770  -12.8288 N   0  0  0  0  0  0  0  0  0  0  0  0
   16.6260   -4.6607  -12.3230 C   0  0  0  0  0  0  0  0  0  0  0  0
   15.5948   -3.6970  -12.3392 O   0  0  0  0  0  0  0  0  0  0  0  0
   17.7778   -4.1738  -12.4440 O   0  0  0  0  0  0  0  0  0  0  0  0
  2  5  1  0
  2  1  1  6
  3  2  1  0
  4  3  1  0
  5  6  2  0
  7  5  1  0
  8  7  1  0
  8  9  1  6
  8 12  1  0
  9 10  1  0
 10 14  1  0
 11 10  2  0
 12 13  2  0
 16 17  2  0
 16 15  1  0
 18 16  1  0
 19 18  1  0
 20 19  1  1
 21 12  1  0
 21 20  1  0
 22 23  1  0
 22 20  1  0
 24 22  2  0
M  END
$$$$
