CDQ.pdb
     RDKit          3D

 24 23  0  0  1  0  0  0  0  0999 V2000
   27.1755  -21.5572  -15.1389 N   0  0  0  0  0  0  0  0  0  0  0  0
   26.2106  -21.8467  -16.1782 C   0  0  1  0  0  0  0  0  0  0  0  0
   25.5332  -23.1449  -15.8461 C   0  0  0  0  0  0  0  0  0  0  0  0
   26.7281  -24.4867  -15.8444 S   0  0  0  0  0  0  0  0  0  0  0  0
   25.2361  -20.7430  -16.3469 C   0  0  0  0  0  0  0  0  0  0  0  0
   24.9833  -20.0351  -15.3400 O   0  0  0  0  0  0  0  0  0  0  0  0
   24.6085  -20.4845  -17.5833 N   0  0  0  0  0  0  0  0  0  0  0  0
   23.7282  -19.3668  -17.8017 C   0  0  1  0  0  0  0  0  0  0  0  0
   24.0763  -18.6016  -19.0495 C   0  0  0  0  0  0  0  0  0  0  0  0
   23.2228  -17.4213  -19.2531 C   0  0  0  0  0  0  0  0  0  0  0  0
   22.4114  -17.4000  -20.2054 O   0  0  0  0  0  0  0  0  0  0  0  0
   22.3214  -19.8278  -17.9465 C   0  0  0  0  0  0  0  0  0  0  0  0
   22.0982  -20.8928  -18.5393 O   0  0  0  0  0  0  0  0  0  0  0  0
   23.2936  -16.3276  -18.4148 O   0  0  0  0  0  0  0  0  0  0  0  0
   21.9612  -21.8454  -13.3467 N   0  0  0  0  0  0  0  0  0  0  0  0
   20.5589  -21.8483  -13.4164 C   0  0  0  0  0  0  0  0  0  0  0  0
   19.8858  -22.4818  -12.5907 O   0  0  0  0  0  0  0  0  0  0  0  0
   19.8811  -21.0890  -14.4844 C   0  0  0  0  0  0  0  0  0  0  0  0
   20.8250  -20.4502  -15.4415 C   0  0  0  0  0  0  0  0  0  0  0  0
   20.1974  -19.7204  -16.5749 C   0  0  2  0  0  0  0  0  0  0  0  0
   21.2213  -19.0926  -17.4303 N   0  0  0  0  0  0  0  0  0  0  0  0
   19.2023  -18.7096  -16.2276 C   0  0  0  0  0  0  0  0  0  0  0  0
   17.8300  -19.0278  -16.3173 O   0  0  0  0  0  0  0  0  0  0  0  0
   19.4270  -17.5358  -15.8402 O   0  0  0  0  0  0  0  0  0  0  0  0
  2  5  1  0
  2  1  1  1
  3  2  1  0
  4  3  1  0
  5  6  2  0
  7  5  1  0
  8  7  1  0
  8  9  1  6
  8 12  1  0
  9 10  1  0
 10 14  1  0
 11 10  2  0
 12 13  2  0
 16 17  2  0
 16 15  1  0
 18 16  1  0
 19 18  1  0
 20 19  1  1
 21 12  1  0
 21 20  1  0
 22 23  1  0
 22 20  1  0
 24 22  2  0
M  END
$$$$
