CDQ.pdb
     RDKit          3D

 24 23  0  0  1  0  0  0  0  0999 V2000
   27.8298  -21.1756  -12.2242 N   0  0  0  0  0  0  0  0  0  0  0  0
   26.4343  -21.2814  -11.8550 C   0  0  1  0  0  0  0  0  0  0  0  0
   26.2817  -20.8009  -10.4407 C   0  0  0  0  0  0  0  0  0  0  0  0
   24.5951  -21.0561   -9.8763 S   0  0  0  0  0  0  0  0  0  0  0  0
   25.5600  -20.5339  -12.7894 C   0  0  0  0  0  0  0  0  0  0  0  0
   25.7385  -19.2937  -12.8823 O   0  0  0  0  0  0  0  0  0  0  0  0
   24.5617  -21.1756  -13.5516 N   0  0  0  0  0  0  0  0  0  0  0  0
   23.6948  -20.4761  -14.4632 C   0  0  1  0  0  0  0  0  0  0  0  0
   23.9292  -20.8763  -15.8945 C   0  0  0  0  0  0  0  0  0  0  0  0
   25.1786  -20.3287  -16.4440 C   0  0  0  0  0  0  0  0  0  0  0  0
   25.2810  -19.0977  -16.6434 O   0  0  0  0  0  0  0  0  0  0  0  0
   22.2682  -20.7627  -14.1544 C   0  0  0  0  0  0  0  0  0  0  0  0
   21.9612  -21.8858  -13.7304 O   0  0  0  0  0  0  0  0  0  0  0  0
   26.2501  -21.1433  -16.7481 O   0  0  0  0  0  0  0  0  0  0  0  0
   18.9510  -20.7637  -10.5196 N   0  0  0  0  0  0  0  0  0  0  0  0
   17.8053  -20.3401  -11.2119 C   0  0  0  0  0  0  0  0  0  0  0  0
   16.6734  -20.6375  -10.8037 O   0  0  0  0  0  0  0  0  0  0  0  0
   17.9520  -19.5326  -12.4378 C   0  0  0  0  0  0  0  0  0  0  0  0
   19.3703  -19.3195  -12.8354 C   0  0  0  0  0  0  0  0  0  0  0  0
   19.8312  -20.0944  -14.0178 C   0  0  2  0  0  0  0  0  0  0  0  0
   21.2418  -19.7964  -14.3272 N   0  0  0  0  0  0  0  0  0  0  0  0
   19.0480  -19.9436  -15.2411 C   0  0  0  0  0  0  0  0  0  0  0  0
   17.8031  -20.5994  -15.3527 O   0  0  0  0  0  0  0  0  0  0  0  0
   19.3598  -19.2702  -16.2548 O   0  0  0  0  0  0  0  0  0  0  0  0
  2  5  1  0
  2  1  1  6
  3  2  1  0
  4  3  1  0
  5  6  2  0
  7  5  1  0
  8  7  1  0
  8  9  1  6
  8 12  1  0
  9 10  1  0
 10 14  1  0
 11 10  2  0
 12 13  2  0
 16 17  2  0
 16 15  1  0
 18 16  1  0
 19 18  1  0
 20 19  1  1
 21 12  1  0
 21 20  1  0
 22 23  1  0
 22 20  1  0
 24 22  2  0
M  END
$$$$
