CDQ.pdb
     RDKit          3D

 24 23  0  0  1  0  0  0  0  0999 V2000
   20.1890   -9.9876  -15.3166 N   0  0  0  0  0  0  0  0  0  0  0  0
   20.8983   -9.2020  -14.3294 C   0  0  1  0  0  0  0  0  0  0  0  0
   22.3581   -9.2077  -14.6804 C   0  0  0  0  0  0  0  0  0  0  0  0
   23.0252  -10.8698  -14.5366 S   0  0  0  0  0  0  0  0  0  0  0  0
   20.3594   -7.8248  -14.2319 C   0  0  0  0  0  0  0  0  0  0  0  0
   20.9071   -7.0456  -13.4125 O   0  0  0  0  0  0  0  0  0  0  0  0
   19.2743   -7.3909  -15.0217 N   0  0  0  0  0  0  0  0  0  0  0  0
   18.6227   -6.1209  -14.8358 C   0  0  1  0  0  0  0  0  0  0  0  0
   18.3167   -5.4399  -16.1420 C   0  0  0  0  0  0  0  0  0  0  0  0
   19.5236   -4.9668  -16.8366 C   0  0  0  0  0  0  0  0  0  0  0  0
   19.7926   -5.4022  -17.9784 O   0  0  0  0  0  0  0  0  0  0  0  0
   17.3319   -6.2941  -14.1172 C   0  0  0  0  0  0  0  0  0  0  0  0
   16.5435   -7.1682  -14.5043 O   0  0  0  0  0  0  0  0  0  0  0  0
   20.3746   -4.0476  -16.2577 O   0  0  0  0  0  0  0  0  0  0  0  0
   15.9616   -7.3986   -8.5119 N   0  0  0  0  0  0  0  0  0  0  0  0
   14.6863   -6.9614   -8.9041 C   0  0  0  0  0  0  0  0  0  0  0  0
   13.7055   -7.1277   -8.1649 O   0  0  0  0  0  0  0  0  0  0  0  0
   14.5137   -6.2973  -10.2101 C   0  0  0  0  0  0  0  0  0  0  0  0
   15.7778   -6.1937  -10.9887 C   0  0  0  0  0  0  0  0  0  0  0  0
   15.6485   -5.6168  -12.3531 C   0  0  2  0  0  0  0  0  0  0  0  0
   16.9672   -5.4943  -13.0016 N   0  0  0  0  0  0  0  0  0  0  0  0
   14.9625   -4.3317  -12.4545 C   0  0  0  0  0  0  0  0  0  0  0  0
   15.6803   -3.1942  -12.8827 O   0  0  0  0  0  0  0  0  0  0  0  0
   13.7548   -4.1020  -12.1954 O   0  0  0  0  0  0  0  0  0  0  0  0
  2  5  1  0
  2  1  1  6
  3  2  1  0
  4  3  1  0
  5  6  2  0
  7  5  1  0
  8  7  1  0
  8  9  1  6
  8 12  1  0
  9 10  1  0
 10 14  1  0
 11 10  2  0
 12 13  2  0
 16 17  2  0
 16 15  1  0
 18 16  1  0
 19 18  1  0
 20 19  1  1
 21 12  1  0
 21 20  1  0
 22 23  1  0
 22 20  1  0
 24 22  2  0
M  END
$$$$
