CDQ.pdb
     RDKit          3D

 24 23  0  0  1  0  0  0  0  0999 V2000
   17.8916  -12.6343  -15.2815 N   0  0  0  0  0  0  0  0  0  0  0  0
   17.0862  -11.4321  -15.2525 C   0  0  1  0  0  0  0  0  0  0  0  0
   15.6467  -11.8308  -15.0995 C   0  0  0  0  0  0  0  0  0  0  0  0
   15.0296  -12.5318  -16.6345 S   0  0  0  0  0  0  0  0  0  0  0  0
   17.5194  -10.5057  -14.1798 C   0  0  0  0  0  0  0  0  0  0  0  0
   17.5740  -10.9602  -13.0097 O   0  0  0  0  0  0  0  0  0  0  0  0
   17.8603   -9.1633  -14.4463 N   0  0  0  0  0  0  0  0  0  0  0  0
   18.3039   -8.2462  -13.4294 C   0  0  1  0  0  0  0  0  0  0  0  0
   19.3155   -7.2620  -13.9505 C   0  0  0  0  0  0  0  0  0  0  0  0
   20.5987   -7.8909  -14.2982 C   0  0  0  0  0  0  0  0  0  0  0  0
   21.1895   -8.6012  -13.4545 O   0  0  0  0  0  0  0  0  0  0  0  0
   17.1590   -7.4599  -12.8970 C   0  0  0  0  0  0  0  0  0  0  0  0
   16.3336   -6.9898  -13.6928 O   0  0  0  0  0  0  0  0  0  0  0  0
   21.1732   -7.7170  -15.5407 O   0  0  0  0  0  0  0  0  0  0  0  0
   14.7111   -7.8966   -7.1250 N   0  0  0  0  0  0  0  0  0  0  0  0
   13.9514   -6.8411   -7.6542 C   0  0  0  0  0  0  0  0  0  0  0  0
   13.0193   -6.3451   -7.0052 O   0  0  0  0  0  0  0  0  0  0  0  0
   14.2673   -6.3182   -8.9971 C   0  0  0  0  0  0  0  0  0  0  0  0
   15.4276   -6.9978   -9.6349 C   0  0  0  0  0  0  0  0  0  0  0  0
   15.7975   -6.5064  -10.9887 C   0  0  2  0  0  0  0  0  0  0  0  0
   16.9748   -7.2264  -11.5082 N   0  0  0  0  0  0  0  0  0  0  0  0
   16.0391   -5.0720  -11.1174 C   0  0  0  0  0  0  0  0  0  0  0  0
   14.9448   -4.1972  -11.2897 O   0  0  0  0  0  0  0  0  0  0  0  0
   17.1534   -4.4923  -11.0925 O   0  0  0  0  0  0  0  0  0  0  0  0
  2  5  1  0
  2  1  1  1
  3  2  1  0
  4  3  1  0
  5  6  2  0
  7  5  1  0
  8  7  1  0
  8  9  1  6
  8 12  1  0
  9 10  1  0
 10 14  1  0
 11 10  2  0
 12 13  2  0
 16 17  2  0
 16 15  1  0
 18 16  1  0
 19 18  1  0
 20 19  1  1
 21 12  1  0
 21 20  1  0
 22 23  1  0
 22 20  1  0
 24 22  2  0
M  END
$$$$
