CDQ.pdb
     RDKit          3D

 24 23  0  0  1  0  0  0  0  0999 V2000
   17.6655  -11.3788  -14.4473 N   0  0  0  0  0  0  0  0  0  0  0  0
   16.8520  -10.1862  -14.5525 C   0  0  1  0  0  0  0  0  0  0  0  0
   15.4188  -10.5697  -14.3218 C   0  0  0  0  0  0  0  0  0  0  0  0
   14.7910  -11.5005  -15.7246 S   0  0  0  0  0  0  0  0  0  0  0  0
   17.2992   -9.1309  -13.6130 C   0  0  0  0  0  0  0  0  0  0  0  0
   17.5580   -9.4778  -12.4335 O   0  0  0  0  0  0  0  0  0  0  0  0
   17.4338   -7.7849  -14.0126 N   0  0  0  0  0  0  0  0  0  0  0  0
   17.8550   -6.7366  -13.1206 C   0  0  1  0  0  0  0  0  0  0  0  0
   18.4839   -5.5825  -13.8530 C   0  0  0  0  0  0  0  0  0  0  0  0
   19.7831   -5.9248  -14.4512 C   0  0  0  0  0  0  0  0  0  0  0  0
   19.9825   -5.7062  -15.6670 O   0  0  0  0  0  0  0  0  0  0  0  0
   16.6953   -6.1964  -12.3618 C   0  0  0  0  0  0  0  0  0  0  0  0
   15.6524   -5.9261  -12.9740 O   0  0  0  0  0  0  0  0  0  0  0  0
   20.7965   -6.4854  -13.7011 O   0  0  0  0  0  0  0  0  0  0  0  0
   14.5199   -8.4407   -7.2421 N   0  0  0  0  0  0  0  0  0  0  0  0
   13.7473   -7.2689   -7.2801 C   0  0  0  0  0  0  0  0  0  0  0  0
   12.8316   -7.0882   -6.4646 O   0  0  0  0  0  0  0  0  0  0  0  0
   14.0297   -6.2430   -8.3020 C   0  0  0  0  0  0  0  0  0  0  0  0
   15.2018   -6.5726   -9.1579 C   0  0  0  0  0  0  0  0  0  0  0  0
   15.5425   -5.5667  -10.1986 C   0  0  2  0  0  0  0  0  0  0  0  0
   16.7372   -5.9778  -10.9590 N   0  0  0  0  0  0  0  0  0  0  0  0
   15.7368   -4.1943   -9.7391 C   0  0  0  0  0  0  0  0  0  0  0  0
   17.0093   -3.5957   -9.8610 O   0  0  0  0  0  0  0  0  0  0  0  0
   14.8703   -3.4444   -9.2240 O   0  0  0  0  0  0  0  0  0  0  0  0
  2  5  1  0
  2  1  1  1
  3  2  1  0
  4  3  1  0
  5  6  2  0
  7  5  1  0
  8  7  1  0
  8  9  1  6
  8 12  1  0
  9 10  1  0
 10 14  1  0
 11 10  2  0
 12 13  2  0
 16 17  2  0
 16 15  1  0
 18 16  1  0
 19 18  1  0
 20 19  1  1
 21 12  1  0
 21 20  1  0
 22 23  1  0
 22 20  1  0
 24 22  2  0
M  END
$$$$
