CDQ.pdb
     RDKit          3D

 24 23  0  0  1  0  0  0  0  0999 V2000
   17.3618  -12.4568  -15.4130 N   0  0  0  0  0  0  0  0  0  0  0  0
   16.4241  -11.4992  -14.8663 C   0  0  1  0  0  0  0  0  0  0  0  0
   15.4550  -12.2355  -13.9870 C   0  0  0  0  0  0  0  0  0  0  0  0
   14.0020  -12.7149  -14.9288 S   0  0  0  0  0  0  0  0  0  0  0  0
   17.1138  -10.4094  -14.1362 C   0  0  0  0  0  0  0  0  0  0  0  0
   18.0449  -10.7334  -13.3572 O   0  0  0  0  0  0  0  0  0  0  0  0
   16.7506   -9.0563  -14.2989 N   0  0  0  0  0  0  0  0  0  0  0  0
   17.3782   -7.9799  -13.5782 C   0  0  1  0  0  0  0  0  0  0  0  0
   17.8185   -6.8648  -14.4873 C   0  0  0  0  0  0  0  0  0  0  0  0
   18.4828   -5.7683  -13.7667 C   0  0  0  0  0  0  0  0  0  0  0  0
   17.9717   -4.6262  -13.7685 O   0  0  0  0  0  0  0  0  0  0  0  0
   16.4368   -7.3935  -12.5870 C   0  0  0  0  0  0  0  0  0  0  0  0
   15.2465   -7.2530  -12.9018 O   0  0  0  0  0  0  0  0  0  0  0  0
   19.6648   -5.9671  -13.0830 O   0  0  0  0  0  0  0  0  0  0  0  0
   12.4971   -8.8462   -9.6210 N   0  0  0  0  0  0  0  0  0  0  0  0
   13.6831   -9.2184   -8.9681 C   0  0  0  0  0  0  0  0  0  0  0  0
   13.7042  -10.1914   -8.2007 O   0  0  0  0  0  0  0  0  0  0  0  0
   14.9162   -8.4422   -9.1991 C   0  0  0  0  0  0  0  0  0  0  0  0
   14.7250   -7.2987  -10.1323 C   0  0  0  0  0  0  0  0  0  0  0  0
   15.9050   -6.4126  -10.3155 C   0  0  2  0  0  0  0  0  0  0  0  0
   16.8504   -6.9872  -11.2905 N   0  0  0  0  0  0  0  0  0  0  0  0
   16.6456   -6.0563   -9.1084 C   0  0  0  0  0  0  0  0  0  0  0  0
   15.9905   -5.3520   -8.0754 O   0  0  0  0  0  0  0  0  0  0  0  0
   17.8513   -6.3111   -8.8637 O   0  0  0  0  0  0  0  0  0  0  0  0
  2  5  1  0
  2  1  1  1
  3  2  1  0
  4  3  1  0
  5  6  2  0
  7  5  1  0
  8  7  1  0
  8  9  1  6
  8 12  1  0
  9 10  1  0
 10 14  1  0
 11 10  2  0
 12 13  2  0
 16 17  2  0
 16 15  1  0
 18 16  1  0
 19 18  1  0
 20 19  1  1
 21 12  1  0
 21 20  1  0
 22 23  1  0
 22 20  1  0
 24 22  2  0
M  END
$$$$
