CDQ.pdb
     RDKit          3D

 24 23  0  0  1  0  0  0  0  0999 V2000
   17.9397  -12.1905  -15.7908 N   0  0  0  0  0  0  0  0  0  0  0  0
   18.1000  -10.8832  -16.3911 C   0  0  1  0  0  0  0  0  0  0  0  0
   16.8026  -10.1393  -16.2579 C   0  0  0  0  0  0  0  0  0  0  0  0
   15.5238  -10.9408  -17.2328 S   0  0  0  0  0  0  0  0  0  0  0  0
   19.2291  -10.1361  -15.7884 C   0  0  0  0  0  0  0  0  0  0  0  0
   19.0770   -9.7010  -14.6194 O   0  0  0  0  0  0  0  0  0  0  0  0
   20.4340   -9.9137  -16.4871 N   0  0  0  0  0  0  0  0  0  0  0  0
   21.5376   -9.1705  -15.9380 C   0  0  1  0  0  0  0  0  0  0  0  0
   22.8558   -9.5809  -16.5361 C   0  0  0  0  0  0  0  0  0  0  0  0
   23.2888  -10.9179  -16.1026 C   0  0  0  0  0  0  0  0  0  0  0  0
   23.1985  -11.2379  -14.8964 O   0  0  0  0  0  0  0  0  0  0  0  0
   21.3708   -7.7154  -16.1978 C   0  0  0  0  0  0  0  0  0  0  0  0
   20.7786   -7.3544  -17.2247 O   0  0  0  0  0  0  0  0  0  0  0  0
   23.7962  -11.8366  -16.9985 O   0  0  0  0  0  0  0  0  0  0  0  0
   17.2655   -4.8106  -15.3247 N   0  0  0  0  0  0  0  0  0  0  0  0
   18.0425   -3.6445  -15.2366 C   0  0  0  0  0  0  0  0  0  0  0  0
   17.5063   -2.5366  -15.0908 O   0  0  0  0  0  0  0  0  0  0  0  0
   19.5124   -3.7407  -15.3186 C   0  0  0  0  0  0  0  0  0  0  0  0
   20.0065   -5.1423  -15.3967 C   0  0  0  0  0  0  0  0  0  0  0  0
   21.4841   -5.3028  -15.4422 C   0  0  2  0  0  0  0  0  0  0  0  0
   21.8653   -6.7213  -15.3122 N   0  0  0  0  0  0  0  0  0  0  0  0
   22.2537   -4.5268  -14.4737 C   0  0  0  0  0  0  0  0  0  0  0  0
   22.2973   -3.1207  -14.5894 O   0  0  0  0  0  0  0  0  0  0  0  0
   22.9132   -4.9771  -13.5039 O   0  0  0  0  0  0  0  0  0  0  0  0
  2  5  1  0
  2  1  1  1
  3  2  1  0
  4  3  1  0
  5  6  2  0
  7  5  1  0
  8  7  1  0
  8  9  1  6
  8 12  1  0
  9 10  1  0
 10 14  1  0
 11 10  2  0
 12 13  2  0
 16 17  2  0
 16 15  1  0
 18 16  1  0
 19 18  1  0
 20 19  1  1
 21 12  1  0
 21 20  1  0
 22 23  1  0
 22 20  1  0
 24 22  2  0
M  END
$$$$
