CDQ.pdb
     RDKit          3D

 24 23  0  0  1  0  0  0  0  0999 V2000
   20.7318  -15.2850  -17.0440 N   0  0  0  0  0  0  0  0  0  0  0  0
   19.8731  -14.1830  -17.4225 C   0  0  1  0  0  0  0  0  0  0  0  0
   18.5464  -14.3621  -16.7426 C   0  0  0  0  0  0  0  0  0  0  0  0
   17.7292  -15.8406  -17.3546 S   0  0  0  0  0  0  0  0  0  0  0  0
   20.4860  -12.8726  -17.1004 C   0  0  0  0  0  0  0  0  0  0  0  0
   20.7571  -12.6409  -15.8955 O   0  0  0  0  0  0  0  0  0  0  0  0
   20.7603  -11.9125  -18.0965 N   0  0  0  0  0  0  0  0  0  0  0  0
   21.2842  -10.6036  -17.8063 C   0  0  1  0  0  0  0  0  0  0  0  0
   21.8280   -9.9218  -19.0324 C   0  0  0  0  0  0  0  0  0  0  0  0
   22.5314   -8.6675  -18.7245 C   0  0  0  0  0  0  0  0  0  0  0  0
   22.6427   -8.2950  -17.5352 O   0  0  0  0  0  0  0  0  0  0  0  0
   20.2211   -9.7249  -17.2495 C   0  0  0  0  0  0  0  0  0  0  0  0
   19.0367   -9.9774  -17.5123 O   0  0  0  0  0  0  0  0  0  0  0  0
   23.0765   -7.8838  -19.7209 O   0  0  0  0  0  0  0  0  0  0  0  0
   16.9733  -10.4195  -13.5102 N   0  0  0  0  0  0  0  0  0  0  0  0
   16.3834   -9.7950  -14.6208 C   0  0  0  0  0  0  0  0  0  0  0  0
   15.1932   -9.9965  -14.9017 O   0  0  0  0  0  0  0  0  0  0  0  0
   17.1902   -8.8897  -15.4611 C   0  0  0  0  0  0  0  0  0  0  0  0
   18.5720   -8.6859  -14.9473 C   0  0  0  0  0  0  0  0  0  0  0  0
   19.4466   -7.8168  -15.7785 C   0  0  2  0  0  0  0  0  0  0  0  0
   20.5116   -8.6047  -16.4261 N   0  0  0  0  0  0  0  0  0  0  0  0
   20.0605   -6.6759  -15.1047 C   0  0  0  0  0  0  0  0  0  0  0  0
   19.2515   -5.5930  -14.6983 O   0  0  0  0  0  0  0  0  0  0  0  0
   21.2777   -6.5319  -14.8287 O   0  0  0  0  0  0  0  0  0  0  0  0
  2  5  1  0
  2  1  1  1
  3  2  1  0
  4  3  1  0
  5  6  2  0
  7  5  1  0
  8  7  1  0
  8  9  1  6
  8 12  1  0
  9 10  1  0
 10 14  1  0
 11 10  2  0
 12 13  2  0
 16 17  2  0
 16 15  1  0
 18 16  1  0
 19 18  1  0
 20 19  1  1
 21 12  1  0
 21 20  1  0
 22 23  1  0
 22 20  1  0
 24 22  2  0
M  END
$$$$
