CDQ.pdb
     RDKit          3D

 24 23  0  0  1  0  0  0  0  0999 V2000
   16.4742  -10.9621  -16.7224 N   0  0  0  0  0  0  0  0  0  0  0  0
   16.8421  -10.3755  -15.4514 C   0  0  1  0  0  0  0  0  0  0  0  0
   17.8367  -11.2803  -14.7831 C   0  0  0  0  0  0  0  0  0  0  0  0
   17.0096  -12.7309  -14.1199 S   0  0  0  0  0  0  0  0  0  0  0  0
   17.3688   -8.9996  -15.6127 C   0  0  0  0  0  0  0  0  0  0  0  0
   18.1576   -8.7901  -16.5680 O   0  0  0  0  0  0  0  0  0  0  0  0
   17.0079   -7.9553  -14.7360 N   0  0  0  0  0  0  0  0  0  0  0  0
   17.4196   -6.5892  -14.9262 C   0  0  1  0  0  0  0  0  0  0  0  0
   16.5496   -5.6207  -14.1718 C   0  0  0  0  0  0  0  0  0  0  0  0
   16.8797   -4.2157  -14.4546 C   0  0  0  0  0  0  0  0  0  0  0  0
   17.5699   -3.5648  -13.6388 O   0  0  0  0  0  0  0  0  0  0  0  0
   18.8145   -6.3907  -14.4494 C   0  0  0  0  0  0  0  0  0  0  0  0
   19.1981   -7.0083  -13.4460 O   0  0  0  0  0  0  0  0  0  0  0  0
   16.4449   -3.5910  -15.6056 O   0  0  0  0  0  0  0  0  0  0  0  0
   23.0120   -8.6526  -15.8992 N   0  0  0  0  0  0  0  0  0  0  0  0
   23.9007   -7.5728  -15.7748 C   0  0  0  0  0  0  0  0  0  0  0  0
   25.1099   -7.7674  -15.5843 O   0  0  0  0  0  0  0  0  0  0  0  0
   23.3884   -6.1928  -15.8723 C   0  0  0  0  0  0  0  0  0  0  0  0
   21.9082   -6.1235  -16.0113 C   0  0  0  0  0  0  0  0  0  0  0  0
   21.1765   -5.5708  -14.8408 C   0  0  2  0  0  0  0  0  0  0  0  0
   19.7261   -5.5184  -15.1016 N   0  0  0  0  0  0  0  0  0  0  0  0
   21.6078   -4.2600  -14.3627 C   0  0  0  0  0  0  0  0  0  0  0  0
   22.5412   -4.1796  -13.3070 O   0  0  0  0  0  0  0  0  0  0  0  0
   21.2330   -3.1417  -14.7954 O   0  0  0  0  0  0  0  0  0  0  0  0
  2  5  1  0
  2  1  1  6
  3  2  1  0
  4  3  1  0
  5  6  2  0
  7  5  1  0
  8  7  1  0
  8  9  1  1
  8 12  1  0
  9 10  1  0
 10 14  1  0
 11 10  2  0
 12 13  2  0
 16 17  2  0
 16 15  1  0
 18 16  1  0
 19 18  1  0
 20 19  1  6
 21 12  1  0
 21 20  1  0
 22 23  1  0
 22 20  1  0
 24 22  2  0
M  END
$$$$
