CDQ.pdb
     RDKit          3D

 24 23  0  0  1  0  0  0  0  0999 V2000
   29.0201  -21.1058  -17.6535 N   0  0  0  0  0  0  0  0  0  0  0  0
   27.8330  -21.7744  -17.1650 C   0  0  1  0  0  0  0  0  0  0  0  0
   28.2257  -22.6534  -16.0128 C   0  0  0  0  0  0  0  0  0  0  0  0
   28.1636  -24.3816  -16.5003 S   0  0  0  0  0  0  0  0  0  0  0  0
   26.7742  -20.8088  -16.7868 C   0  0  0  0  0  0  0  0  0  0  0  0
   27.1380  -19.7290  -16.2572 O   0  0  0  0  0  0  0  0  0  0  0  0
   25.4071  -21.0771  -17.0064 N   0  0  0  0  0  0  0  0  0  0  0  0
   24.3511  -20.2120  -16.5499 C   0  0  1  0  0  0  0  0  0  0  0  0
   23.2915  -20.0029  -17.5975 C   0  0  0  0  0  0  0  0  0  0  0  0
   22.2736  -19.0215  -17.1932 C   0  0  0  0  0  0  0  0  0  0  0  0
   22.2717  -18.5763  -16.0238 O   0  0  0  0  0  0  0  0  0  0  0  0
   23.6799  -20.7896  -15.3547 C   0  0  0  0  0  0  0  0  0  0  0  0
   23.1190  -21.8898  -15.4560 O   0  0  0  0  0  0  0  0  0  0  0  0
   21.3125  -18.5746  -18.0767 O   0  0  0  0  0  0  0  0  0  0  0  0
   25.5856  -20.1521   -9.5083 N   0  0  0  0  0  0  0  0  0  0  0  0
   24.4448  -20.9481   -9.3185 C   0  0  0  0  0  0  0  0  0  0  0  0
   24.2001  -21.4492   -8.2116 O   0  0  0  0  0  0  0  0  0  0  0  0
   23.5288  -21.1897  -10.4495 C   0  0  0  0  0  0  0  0  0  0  0  0
   23.9914  -20.5738  -11.7228 C   0  0  0  0  0  0  0  0  0  0  0  0
   23.0935  -20.7622  -12.8930 C   0  0  2  0  0  0  0  0  0  0  0  0
   23.6571  -20.1271  -14.0986 N   0  0  0  0  0  0  0  0  0  0  0  0
   21.7139  -20.3103  -12.7347 C   0  0  0  0  0  0  0  0  0  0  0  0
   20.7216  -21.2354  -12.3450 O   0  0  0  0  0  0  0  0  0  0  0  0
   21.2800  -19.1445  -12.9109 O   0  0  0  0  0  0  0  0  0  0  0  0
  2  5  1  0
  2  1  1  1
  3  2  1  0
  4  3  1  0
  5  6  2  0
  7  5  1  0
  8  7  1  0
  8  9  1  6
  8 12  1  0
  9 10  1  0
 10 14  1  0
 11 10  2  0
 12 13  2  0
 16 17  2  0
 16 15  1  0
 18 16  1  0
 19 18  1  0
 20 19  1  1
 21 12  1  0
 21 20  1  0
 22 23  1  0
 22 20  1  0
 24 22  2  0
M  END
$$$$
