CDQ.pdb
     RDKit          3D

 24 23  0  0  1  0  0  0  0  0999 V2000
   28.4070  -21.7153  -16.4285 N   0  0  0  0  0  0  0  0  0  0  0  0
   27.8838  -20.6730  -15.5713 C   0  0  1  0  0  0  0  0  0  0  0  0
   27.4617  -19.5188  -16.4340 C   0  0  0  0  0  0  0  0  0  0  0  0
   28.9049  -18.6669  -17.0819 S   0  0  0  0  0  0  0  0  0  0  0  0
   26.7717  -21.1645  -14.7240 C   0  0  0  0  0  0  0  0  0  0  0  0
   26.1000  -22.1346  -15.1558 O   0  0  0  0  0  0  0  0  0  0  0  0
   26.4667  -20.5765  -13.4788 N   0  0  0  0  0  0  0  0  0  0  0  0
   25.3484  -20.9824  -12.6685 C   0  0  1  0  0  0  0  0  0  0  0  0
   25.4310  -20.4385  -11.2681 C   0  0  0  0  0  0  0  0  0  0  0  0
   24.3511  -20.9300  -10.3992 C   0  0  0  0  0  0  0  0  0  0  0  0
   23.6141  -20.1128   -9.8037 O   0  0  0  0  0  0  0  0  0  0  0  0
   24.0715  -20.4945  -13.2551 C   0  0  0  0  0  0  0  0  0  0  0  0
   23.9725  -19.2985  -13.5638 O   0  0  0  0  0  0  0  0  0  0  0  0
   24.1271  -22.2800  -10.2218 O   0  0  0  0  0  0  0  0  0  0  0  0
   23.0785  -19.9514  -18.2359 N   0  0  0  0  0  0  0  0  0  0  0  0
   22.1304  -20.2483  -17.2438 C   0  0  0  0  0  0  0  0  0  0  0  0
   21.1258  -19.5376  -17.0959 O   0  0  0  0  0  0  0  0  0  0  0  0
   22.3335  -21.4189  -16.3692 C   0  0  0  0  0  0  0  0  0  0  0  0
   21.3244  -21.5213  -15.2801 C   0  0  0  0  0  0  0  0  0  0  0  0
   21.6799  -20.8410  -14.0066 C   0  0  2  0  0  0  0  0  0  0  0  0
   22.9584  -21.3487  -13.4757 N   0  0  0  0  0  0  0  0  0  0  0  0
   20.6835  -20.8930  -12.9402 C   0  0  0  0  0  0  0  0  0  0  0  0
   19.5773  -20.0172  -12.9815 O   0  0  0  0  0  0  0  0  0  0  0  0
   20.6891  -21.6572  -11.9430 O   0  0  0  0  0  0  0  0  0  0  0  0
  2  5  1  0
  2  1  1  6
  3  2  1  0
  4  3  1  0
  5  6  2  0
  7  5  1  0
  8  7  1  0
  8  9  1  1
  8 12  1  0
  9 10  1  0
 10 14  1  0
 11 10  2  0
 12 13  2  0
 16 17  2  0
 16 15  1  0
 18 16  1  0
 19 18  1  0
 20 19  1  6
 21 12  1  0
 21 20  1  0
 22 23  1  0
 22 20  1  0
 24 22  2  0
M  END
$$$$
