CDQ.pdb
     RDKit          3D

 24 23  0  0  1  0  0  0  0  0999 V2000
   17.2001  -13.3016  -14.6273 N   0  0  0  0  0  0  0  0  0  0  0  0
   16.2939  -12.1865  -14.4537 C   0  0  1  0  0  0  0  0  0  0  0  0
   15.0883  -12.6699  -13.7003 C   0  0  0  0  0  0  0  0  0  0  0  0
   14.1114  -13.7704  -14.7311 S   0  0  0  0  0  0  0  0  0  0  0  0
   16.9499  -11.0457  -13.7721 C   0  0  0  0  0  0  0  0  0  0  0  0
   17.6184  -11.2960  -12.7381 O   0  0  0  0  0  0  0  0  0  0  0  0
   16.8375   -9.7247  -14.2534 N   0  0  0  0  0  0  0  0  0  0  0  0
   17.4725   -8.5987  -13.6202 C   0  0  1  0  0  0  0  0  0  0  0  0
   17.9050   -7.5545  -14.6134 C   0  0  0  0  0  0  0  0  0  0  0  0
   18.6226   -6.4333  -13.9882 C   0  0  0  0  0  0  0  0  0  0  0  0
   18.4792   -5.2759  -14.4413 O   0  0  0  0  0  0  0  0  0  0  0  0
   16.5407   -7.9393  -12.6665 C   0  0  0  0  0  0  0  0  0  0  0  0
   15.3253   -7.9582  -12.9067 O   0  0  0  0  0  0  0  0  0  0  0  0
   19.4569   -6.6255  -12.9060 O   0  0  0  0  0  0  0  0  0  0  0  0
   13.4415   -9.8678   -9.1376 N   0  0  0  0  0  0  0  0  0  0  0  0
   13.3555   -8.6343   -8.4726 C   0  0  0  0  0  0  0  0  0  0  0  0
   12.5616   -8.4755   -7.5342 O   0  0  0  0  0  0  0  0  0  0  0  0
   14.2200   -7.5164   -8.8964 C   0  0  0  0  0  0  0  0  0  0  0  0
   15.1438   -7.8757  -10.0066 C   0  0  0  0  0  0  0  0  0  0  0  0
   16.0530   -6.7918  -10.4643 C   0  0  2  0  0  0  0  0  0  0  0  0
   16.9915   -7.2871  -11.4881 N   0  0  0  0  0  0  0  0  0  0  0  0
   16.8194   -6.1040   -9.4288 C   0  0  0  0  0  0  0  0  0  0  0  0
   16.2038   -5.0828   -8.6734 O   0  0  0  0  0  0  0  0  0  0  0  0
   18.0160   -6.3188   -9.1120 O   0  0  0  0  0  0  0  0  0  0  0  0
  2  5  1  0
  2  1  1  1
  3  2  1  0
  4  3  1  0
  5  6  2  0
  7  5  1  0
  8  7  1  0
  8  9  1  6
  8 12  1  0
  9 10  1  0
 10 14  1  0
 11 10  2  0
 12 13  2  0
 16 17  2  0
 16 15  1  0
 18 16  1  0
 19 18  1  0
 20 19  1  1
 21 12  1  0
 21 20  1  0
 22 23  1  0
 22 20  1  0
 24 22  2  0
M  END
$$$$
