CDQ.pdb
     RDKit          3D

 24 23  0  0  1  0  0  0  0  0999 V2000
   18.5929  -14.2434  -15.8653 N   0  0  0  0  0  0  0  0  0  0  0  0
   17.9362  -13.0244  -16.2869 C   0  0  1  0  0  0  0  0  0  0  0  0
   16.4869  -13.1114  -15.9044 C   0  0  0  0  0  0  0  0  0  0  0  0
   15.6211  -14.2396  -17.0025 S   0  0  0  0  0  0  0  0  0  0  0  0
   18.5871  -11.8226  -15.7138 C   0  0  0  0  0  0  0  0  0  0  0  0
   18.8333  -11.8296  -14.4817 O   0  0  0  0  0  0  0  0  0  0  0  0
   18.9233  -10.7063  -16.5078 N   0  0  0  0  0  0  0  0  0  0  0  0
   19.6319   -9.5617  -15.9982 C   0  0  1  0  0  0  0  0  0  0  0  0
   20.3283   -8.7907  -17.0864 C   0  0  0  0  0  0  0  0  0  0  0  0
   21.0937   -7.6439  -16.5746 C   0  0  0  0  0  0  0  0  0  0  0  0
   21.0372   -6.5453  -17.1707 O   0  0  0  0  0  0  0  0  0  0  0  0
   18.6956   -8.6227  -15.3242 C   0  0  0  0  0  0  0  0  0  0  0  0
   17.6018   -8.3836  -15.8550 O   0  0  0  0  0  0  0  0  0  0  0  0
   21.8792   -7.7483  -15.4449 O   0  0  0  0  0  0  0  0  0  0  0  0
   16.3980   -8.7065   -9.9091 N   0  0  0  0  0  0  0  0  0  0  0  0
   16.1472   -7.3462  -10.1496 C   0  0  0  0  0  0  0  0  0  0  0  0
   15.4588   -6.6810   -9.3623 O   0  0  0  0  0  0  0  0  0  0  0  0
   16.7097   -6.7033  -11.3524 C   0  0  0  0  0  0  0  0  0  0  0  0
   17.5480   -7.6203  -12.1717 C   0  0  0  0  0  0  0  0  0  0  0  0
   18.0743   -7.0510  -13.4405 C   0  0  2  0  0  0  0  0  0  0  0  0
   19.0077   -7.9880  -14.0925 N   0  0  0  0  0  0  0  0  0  0  0  0
   18.7196   -5.7441  -13.3498 C   0  0  0  0  0  0  0  0  0  0  0  0
   20.1289   -5.6655  -13.3425 O   0  0  0  0  0  0  0  0  0  0  0  0
   18.1485   -4.6276  -13.2737 O   0  0  0  0  0  0  0  0  0  0  0  0
  2  5  1  0
  2  1  1  1
  3  2  1  0
  4  3  1  0
  5  6  2  0
  7  5  1  0
  8  7  1  0
  8  9  1  6
  8 12  1  0
  9 10  1  0
 10 14  1  0
 11 10  2  0
 12 13  2  0
 16 17  2  0
 16 15  1  0
 18 16  1  0
 19 18  1  0
 20 19  1  1
 21 12  1  0
 21 20  1  0
 22 23  1  0
 22 20  1  0
 24 22  2  0
M  END
$$$$
