CDQ.pdb
     RDKit          3D

 24 23  0  0  1  0  0  0  0  0999 V2000
   28.1866  -20.5210  -12.9115 N   0  0  0  0  0  0  0  0  0  0  0  0
   26.9294  -21.2363  -12.8585 C   0  0  1  0  0  0  0  0  0  0  0  0
   26.3718  -21.1101  -11.4701 C   0  0  0  0  0  0  0  0  0  0  0  0
   27.5121  -21.8181  -10.2757 S   0  0  0  0  0  0  0  0  0  0  0  0
   25.9757  -20.7487  -13.8828 C   0  0  0  0  0  0  0  0  0  0  0  0
   25.8074  -19.5068  -13.9724 O   0  0  0  0  0  0  0  0  0  0  0  0
   25.2766  -21.6321  -14.7315 N   0  0  0  0  0  0  0  0  0  0  0  0
   24.3280  -21.1899  -15.7197 C   0  0  1  0  0  0  0  0  0  0  0  0
   24.5201  -21.8786  -17.0435 C   0  0  0  0  0  0  0  0  0  0  0  0
   23.5644  -21.4279  -18.0665 C   0  0  0  0  0  0  0  0  0  0  0  0
   23.1985  -20.2316  -18.0887 O   0  0  0  0  0  0  0  0  0  0  0  0
   22.9371  -21.4727  -15.2747 C   0  0  0  0  0  0  0  0  0  0  0  0
   22.6639  -22.6020  -14.8440 O   0  0  0  0  0  0  0  0  0  0  0  0
   23.0562  -22.2968  -19.0104 O   0  0  0  0  0  0  0  0  0  0  0  0
   19.5558  -23.2243  -12.9833 N   0  0  0  0  0  0  0  0  0  0  0  0
   18.6035  -22.2244  -12.7290 C   0  0  0  0  0  0  0  0  0  0  0  0
   17.4697  -22.5188  -12.3240 O   0  0  0  0  0  0  0  0  0  0  0  0
   18.9577  -20.8089  -12.9467 C   0  0  0  0  0  0  0  0  0  0  0  0
   20.3438  -20.6210  -13.4549 C   0  0  0  0  0  0  0  0  0  0  0  0
   20.5228  -20.8020  -14.9199 C   0  0  2  0  0  0  0  0  0  0  0  0
   21.9073  -20.4957  -15.3245 N   0  0  0  0  0  0  0  0  0  0  0  0
   19.6129  -20.0553  -15.7843 C   0  0  0  0  0  0  0  0  0  0  0  0
   19.9184  -18.7198  -16.1239 O   0  0  0  0  0  0  0  0  0  0  0  0
   18.5406  -20.4745  -16.2872 O   0  0  0  0  0  0  0  0  0  0  0  0
  2  5  1  0
  2  1  1  1
  3  2  1  0
  4  3  1  0
  5  6  2  0
  7  5  1  0
  8  7  1  0
  8  9  1  6
  8 12  1  0
  9 10  1  0
 10 14  1  0
 11 10  2  0
 12 13  2  0
 16 17  2  0
 16 15  1  0
 18 16  1  0
 19 18  1  0
 20 19  1  1
 21 12  1  0
 21 20  1  0
 22 23  1  0
 22 20  1  0
 24 22  2  0
M  END
$$$$
