IER.pdb
     RDKit          3D

 29 28  0  0  1  0  0  0  0  0999 V2000
   18.7512  -11.8477    3.6363 C   0  0  0  0  0  0  0  0  0  0  0  0
   17.7820  -12.9759    3.7174 C   0  0  0  0  0  0  0  0  0  0  0  0
   18.3697  -14.3449    3.7033 C   0  0  2  0  0  0  0  0  0  0  0  0
   19.2105  -14.6141    2.4756 C   0  0  0  0  0  0  0  0  0  0  0  0
   17.3755  -15.4598    3.9164 C   0  0  2  0  0  0  0  0  0  0  0  0
   16.5818  -15.2307    5.0597 N   0  0  0  0  0  0  0  0  0  0  0  0
   18.1268  -16.7318    3.9270 C   0  0  0  0  0  0  0  0  0  0  0  0
   18.7217  -17.0702    2.8733 O   0  0  0  0  0  0  0  0  0  0  0  0
   18.1970  -17.5582    5.0505 N   0  0  0  0  0  0  0  0  0  0  0  0
   18.8929  -18.8300    5.0992 C   0  0  1  0  0  0  0  0  0  0  0  0
   19.5558  -18.8632    6.4686 C   0  0  0  0  0  0  0  0  0  0  0  0
   20.2102  -20.1577    6.7969 C   0  0  0  0  0  0  0  0  0  0  0  0
   20.8165  -19.9992    8.1628 C   0  0  0  0  0  0  0  0  0  0  0  0
   20.3115  -19.2694    9.0528 O   0  0  0  0  0  0  0  0  0  0  0  0
   17.8805  -19.8858    4.9476 C   0  0  0  0  0  0  0  0  0  0  0  0
   16.6932  -19.6305    5.2224 O   0  0  0  0  0  0  0  0  0  0  0  0
   21.9907  -20.6773    8.4903 O   0  0  0  0  0  0  0  0  0  0  0  0
   14.1199  -22.1264   -1.7363 N   0  0  0  0  0  0  0  0  0  0  0  0
   13.6365  -23.1401   -0.8673 C   0  0  0  0  0  0  0  0  0  0  0  0
   12.6664  -23.8827   -1.2652 N   0  0  0  0  0  0  0  0  0  0  0  0
   14.1998  -23.3437    0.4193 N   0  0  0  0  0  0  0  0  0  0  0  0
   15.2426  -22.4688    0.8774 C   0  0  0  0  0  0  0  0  0  0  0  0
   15.6325  -22.8028    2.3298 C   0  0  0  0  0  0  0  0  0  0  0  0
   16.6925  -21.8467    2.7431 C   0  0  0  0  0  0  0  0  0  0  0  0
   17.1728  -22.0967    4.1311 C   0  0  2  0  0  0  0  0  0  0  0  0
   18.2400  -21.1620    4.5015 N   0  0  0  0  0  0  0  0  0  0  0  0
   17.7010  -23.4385    4.3898 C   0  0  0  0  0  0  0  0  0  0  0  0
   18.9046  -23.6214    4.6247 O   0  0  0  0  0  0  0  0  0  0  0  0
   16.9014  -24.5999    4.3919 O   0  0  0  0  0  0  0  0  0  0  0  0
  2  1  1  0
  3  2  1  0
  3  4  1  6
  5  3  1  0
  5  6  1  1
  7  8  2  0
  7  5  1  0
  9  7  1  0
 10  9  1  0
 11 12  1  0
 10 11  1  1
 12 13  1  0
 13 14  2  0
 15 16  2  0
 15 10  1  0
 17 13  1  0
 18 19  1  0
 19 20  2  0
 21 19  1  0
 21 22  1  0
 22 23  1  0
 23 24  1  0
 25 24  1  6
 25 27  1  0
 25 26  1  0
 26 15  1  0
 27 29  1  0
 28 27  2  0
M  END
$$$$
