IER.pdb
     RDKit          3D

 29 28  0  0  1  0  0  0  0  0999 V2000
   26.3599  -20.0265   -7.2919 C   0  0  0  0  0  0  0  0  0  0  0  0
   26.6033  -20.9201   -8.4584 C   0  0  0  0  0  0  0  0  0  0  0  0
   25.8282  -20.6101   -9.6924 C   0  0  2  0  0  0  0  0  0  0  0  0
   24.3365  -20.7801   -9.5113 C   0  0  0  0  0  0  0  0  0  0  0  0
   26.2954  -21.3368  -10.9295 C   0  0  2  0  0  0  0  0  0  0  0  0
   27.7021  -21.3258  -11.0330 N   0  0  0  0  0  0  0  0  0  0  0  0
   25.5834  -20.7541  -12.0852 C   0  0  0  0  0  0  0  0  0  0  0  0
   25.9572  -19.6275  -12.4972 O   0  0  0  0  0  0  0  0  0  0  0  0
   24.5251  -21.4025  -12.7255 N   0  0  0  0  0  0  0  0  0  0  0  0
   23.8772  -20.9316  -13.9349 C   0  0  1  0  0  0  0  0  0  0  0  0
   23.9795  -22.0926  -14.9133 C   0  0  0  0  0  0  0  0  0  0  0  0
   24.9462  -21.8712  -16.0216 C   0  0  0  0  0  0  0  0  0  0  0  0
   26.3142  -21.8433  -15.4002 C   0  0  0  0  0  0  0  0  0  0  0  0
   27.0291  -20.8099  -15.3708 O   0  0  0  0  0  0  0  0  0  0  0  0
   22.4824  -20.6202  -13.5880 C   0  0  0  0  0  0  0  0  0  0  0  0
   21.9863  -21.1233  -12.5628 O   0  0  0  0  0  0  0  0  0  0  0  0
   26.8441  -22.9969  -14.8222 O   0  0  0  0  0  0  0  0  0  0  0  0
   18.7157  -14.0930  -17.2196 N   0  0  0  0  0  0  0  0  0  0  0  0
   19.6975  -15.0282  -17.6414 C   0  0  0  0  0  0  0  0  0  0  0  0
   20.1030  -14.9896  -18.8598 N   0  0  0  0  0  0  0  0  0  0  0  0
   20.2315  -15.9946  -16.7497 N   0  0  0  0  0  0  0  0  0  0  0  0
   19.8631  -15.9515  -15.3622 C   0  0  0  0  0  0  0  0  0  0  0  0
   20.5759  -17.0683  -14.5763 C   0  0  0  0  0  0  0  0  0  0  0  0
   19.7912  -18.3174  -14.7565 C   0  0  0  0  0  0  0  0  0  0  0  0
   20.3490  -19.4561  -13.9741 C   0  0  2  0  0  0  0  0  0  0  0  0
   21.7178  -19.7710  -14.3950 N   0  0  0  0  0  0  0  0  0  0  0  0
   19.6000  -20.7126  -14.0568 C   0  0  0  0  0  0  0  0  0  0  0  0
   18.7636  -21.0203  -13.1948 O   0  0  0  0  0  0  0  0  0  0  0  0
   19.7674  -21.6486  -15.0980 O   0  0  0  0  0  0  0  0  0  0  0  0
  2  1  1  0
  3  2  1  0
  3  4  1  1
  5  3  1  0
  5  6  1  6
  7  8  2  0
  7  5  1  0
  9  7  1  0
 10  9  1  0
 11 12  1  0
 10 11  1  6
 12 13  1  0
 13 14  2  0
 15 16  2  0
 15 10  1  0
 17 13  1  0
 18 19  1  0
 19 20  2  0
 21 19  1  0
 21 22  1  0
 22 23  1  0
 23 24  1  0
 25 24  1  6
 25 27  1  0
 25 26  1  0
 26 15  1  0
 27 29  1  0
 28 27  2  0
M  END
$$$$
