IER.pdb
     RDKit          3D

 29 28  0  0  1  0  0  0  0  0999 V2000
   29.7371  -20.2840  -11.2041 C   0  0  0  0  0  0  0  0  0  0  0  0
   28.7595  -21.1626  -11.9048 C   0  0  0  0  0  0  0  0  0  0  0  0
   27.3437  -20.6986  -11.9011 C   0  0  2  0  0  0  0  0  0  0  0  0
   26.8058  -20.4546  -10.5091 C   0  0  0  0  0  0  0  0  0  0  0  0
   26.3938  -21.5669  -12.6890 C   0  0  2  0  0  0  0  0  0  0  0  0
   26.9810  -22.0136  -13.8912 N   0  0  0  0  0  0  0  0  0  0  0  0
   25.1343  -20.8133  -12.8557 C   0  0  0  0  0  0  0  0  0  0  0  0
   24.4795  -20.5293  -11.8216 O   0  0  0  0  0  0  0  0  0  0  0  0
   24.6536  -20.4122  -14.1040 N   0  0  0  0  0  0  0  0  0  0  0  0
   23.4405  -19.6455  -14.3157 C   0  0  1  0  0  0  0  0  0  0  0  0
   23.7212  -18.7977  -15.5478 C   0  0  0  0  0  0  0  0  0  0  0  0
   22.6970  -18.9228  -16.6189 C   0  0  0  0  0  0  0  0  0  0  0  0
   23.1471  -18.0414  -17.7498 C   0  0  0  0  0  0  0  0  0  0  0  0
   22.6240  -16.9249  -17.9942 O   0  0  0  0  0  0  0  0  0  0  0  0
   22.3516  -20.6080  -14.5411 C   0  0  0  0  0  0  0  0  0  0  0  0
   22.6097  -21.6983  -15.0842 O   0  0  0  0  0  0  0  0  0  0  0  0
   24.1880  -18.4495  -18.5837 O   0  0  0  0  0  0  0  0  0  0  0  0
   15.7669  -22.9842  -10.4524 N   0  0  0  0  0  0  0  0  0  0  0  0
   16.1731  -24.2642  -10.9138 C   0  0  0  0  0  0  0  0  0  0  0  0
   15.3247  -25.2286  -10.8836 N   0  0  0  0  0  0  0  0  0  0  0  0
   17.4860  -24.4938  -11.4013 N   0  0  0  0  0  0  0  0  0  0  0  0
   18.4233  -23.4062  -11.4380 C   0  0  0  0  0  0  0  0  0  0  0  0
   18.6607  -22.9428  -12.8878 C   0  0  0  0  0  0  0  0  0  0  0  0
   19.6719  -21.8542  -12.8530 C   0  0  0  0  0  0  0  0  0  0  0  0
   20.0358  -21.3737  -14.2156 C   0  0  2  0  0  0  0  0  0  0  0  0
   21.0414  -20.3085  -14.1533 N   0  0  0  0  0  0  0  0  0  0  0  0
   18.9319  -20.8429  -15.0192 C   0  0  0  0  0  0  0  0  0  0  0  0
   18.5674  -19.6627  -14.9110 O   0  0  0  0  0  0  0  0  0  0  0  0
   18.2138  -21.6137  -15.9565 O   0  0  0  0  0  0  0  0  0  0  0  0
  2  1  1  0
  3  2  1  0
  3  4  1  1
  5  3  1  0
  5  6  1  6
  7  8  2  0
  7  5  1  0
  9  7  1  0
 10  9  1  0
 11 12  1  0
 10 11  1  6
 12 13  1  0
 13 14  2  0
 15 16  2  0
 15 10  1  0
 17 13  1  0
 18 19  1  0
 19 20  2  0
 21 19  1  0
 21 22  1  0
 22 23  1  0
 23 24  1  0
 25 24  1  1
 25 27  1  0
 25 26  1  0
 26 15  1  0
 27 29  1  0
 28 27  2  0
M  END
$$$$
