IER.pdb
     RDKit          3D

 29 28  0  0  1  0  0  0  0  0999 V2000
   23.8229   -9.9004  -12.3634 C   0  0  0  0  0  0  0  0  0  0  0  0
   22.9411   -9.9119  -13.5638 C   0  0  0  0  0  0  0  0  0  0  0  0
   21.9633   -8.7925  -13.6676 C   0  0  2  0  0  0  0  0  0  0  0  0
   21.0563   -8.6869  -12.4622 C   0  0  0  0  0  0  0  0  0  0  0  0
   21.1529   -8.7794  -14.9403 C   0  0  2  0  0  0  0  0  0  0  0  0
   21.9660   -9.0020  -16.0711 N   0  0  0  0  0  0  0  0  0  0  0  0
   20.3840   -7.5183  -14.9669 C   0  0  0  0  0  0  0  0  0  0  0  0
   21.0275   -6.4392  -14.9699 O   0  0  0  0  0  0  0  0  0  0  0  0
   18.9881   -7.4851  -14.9884 N   0  0  0  0  0  0  0  0  0  0  0  0
   18.1904   -6.2743  -15.0333 C   0  0  1  0  0  0  0  0  0  0  0  0
   17.3531   -6.4018  -16.2976 C   0  0  0  0  0  0  0  0  0  0  0  0
   18.1347   -6.2968  -17.5584 C   0  0  0  0  0  0  0  0  0  0  0  0
   17.3653   -7.0514  -18.6058 C   0  0  0  0  0  0  0  0  0  0  0  0
   17.5205   -8.2815  -18.8122 O   0  0  0  0  0  0  0  0  0  0  0  0
   17.3613   -6.2546  -13.8188 C   0  0  0  0  0  0  0  0  0  0  0  0
   16.8706   -7.3207  -13.4030 O   0  0  0  0  0  0  0  0  0  0  0  0
   16.4305   -6.3885  -19.4010 O   0  0  0  0  0  0  0  0  0  0  0  0
   14.5752   -9.1387   -7.8261 N   0  0  0  0  0  0  0  0  0  0  0  0
   13.9022   -7.8955   -7.6930 C   0  0  0  0  0  0  0  0  0  0  0  0
   12.7439   -7.8775   -7.1373 N   0  0  0  0  0  0  0  0  0  0  0  0
   14.4804   -6.6863   -8.1594 N   0  0  0  0  0  0  0  0  0  0  0  0
   15.4747   -6.7351   -9.1947 C   0  0  0  0  0  0  0  0  0  0  0  0
   15.9390   -5.3147   -9.5689 C   0  0  0  0  0  0  0  0  0  0  0  0
   16.8469   -5.4312  -10.7398 C   0  0  0  0  0  0  0  0  0  0  0  0
   16.1732   -5.0700  -12.0187 C   0  0  2  0  0  0  0  0  0  0  0  0
   17.1231   -5.0574  -13.1355 N   0  0  0  0  0  0  0  0  0  0  0  0
   15.5049   -3.7664  -12.0398 C   0  0  0  0  0  0  0  0  0  0  0  0
   16.0379   -2.7792  -12.5676 O   0  0  0  0  0  0  0  0  0  0  0  0
   14.2333   -3.5371  -11.4752 O   0  0  0  0  0  0  0  0  0  0  0  0
  2  1  1  0
  3  2  1  0
  3  4  1  1
  5  3  1  0
  5  6  1  6
  7  8  2  0
  7  5  1  0
  9  7  1  0
 10  9  1  0
 11 12  1  0
 10 11  1  6
 12 13  1  0
 13 14  2  0
 15 16  2  0
 15 10  1  0
 17 13  1  0
 18 19  1  0
 19 20  2  0
 21 19  1  0
 21 22  1  0
 22 23  1  0
 23 24  1  0
 25 24  1  1
 25 27  1  0
 25 26  1  0
 26 15  1  0
 27 29  1  0
 28 27  2  0
M  END
$$$$
