IER.pdb
     RDKit          3D

 29 28  0  0  1  0  0  0  0  0999 V2000
   18.2489  -29.1691   -3.3407 C   0  0  0  0  0  0  0  0  0  0  0  0
   17.8105  -28.1721   -4.3570 C   0  0  0  0  0  0  0  0  0  0  0  0
   17.4346  -26.8284   -3.8348 C   0  0  2  0  0  0  0  0  0  0  0  0
   16.3884  -26.8898   -2.7445 C   0  0  0  0  0  0  0  0  0  0  0  0
   17.0351  -25.8299   -4.8933 C   0  0  2  0  0  0  0  0  0  0  0  0
   18.0860  -25.5974   -5.8049 N   0  0  0  0  0  0  0  0  0  0  0  0
   16.5338  -24.6240   -4.2029 C   0  0  0  0  0  0  0  0  0  0  0  0
   17.3692  -23.7420   -3.8821 O   0  0  0  0  0  0  0  0  0  0  0  0
   15.1841  -24.4337   -3.8991 N   0  0  0  0  0  0  0  0  0  0  0  0
   14.6186  -23.2022   -3.3816 C   0  0  1  0  0  0  0  0  0  0  0  0
   13.2578  -23.0822   -4.0521 C   0  0  0  0  0  0  0  0  0  0  0  0
   13.2615  -22.2649   -5.2947 C   0  0  0  0  0  0  0  0  0  0  0  0
   11.8289  -22.1384   -5.7307 C   0  0  0  0  0  0  0  0  0  0  0  0
   10.8743  -22.6520   -5.0944 O   0  0  0  0  0  0  0  0  0  0  0  0
   14.5066  -23.3543   -1.9231 C   0  0  0  0  0  0  0  0  0  0  0  0
   14.3749  -24.4948   -1.4414 O   0  0  0  0  0  0  0  0  0  0  0  0
   11.5095  -21.4268   -6.8871 O   0  0  0  0  0  0  0  0  0  0  0  0
   16.2186  -17.3235    3.7033 N   0  0  0  0  0  0  0  0  0  0  0  0
   14.9389  -17.9090    3.8923 C   0  0  0  0  0  0  0  0  0  0  0  0
   14.0622  -17.2676    4.5784 N   0  0  0  0  0  0  0  0  0  0  0  0
   14.6159  -19.1772    3.3431 N   0  0  0  0  0  0  0  0  0  0  0  0
   15.6486  -20.1646    3.1974 C   0  0  0  0  0  0  0  0  0  0  0  0
   15.0846  -21.4507    2.5642 C   0  0  0  0  0  0  0  0  0  0  0  0
   15.0573  -21.2534    1.0915 C   0  0  0  0  0  0  0  0  0  0  0  0
   14.5564  -22.4550    0.3669 C   0  0  2  0  0  0  0  0  0  0  0  0
   14.5465  -22.2366   -1.0829 N   0  0  0  0  0  0  0  0  0  0  0  0
   13.2038  -22.8934    0.7203 C   0  0  0  0  0  0  0  0  0  0  0  0
   12.2089  -22.4492    0.1286 O   0  0  0  0  0  0  0  0  0  0  0  0
   12.9334  -23.8324    1.7369 O   0  0  0  0  0  0  0  0  0  0  0  0
  2  1  1  0
  3  2  1  0
  3  4  1  1
  5  3  1  0
  5  6  1  1
  7  8  2  0
  7  5  1  0
  9  7  1  0
 10  9  1  0
 11 12  1  0
 10 11  1  6
 12 13  1  0
 13 14  2  0
 15 16  2  0
 15 10  1  0
 17 13  1  0
 18 19  1  0
 19 20  2  0
 21 19  1  0
 21 22  1  0
 22 23  1  0
 23 24  1  0
 25 24  1  1
 25 27  1  0
 25 26  1  0
 26 15  1  0
 27 29  1  0
 28 27  2  0
M  END
$$$$
