IER.pdb
     RDKit          3D

 29 28  0  0  1  0  0  0  0  0999 V2000
   29.0716  -18.1469   -4.1014 C   0  0  0  0  0  0  0  0  0  0  0  0
   29.3287  -19.5391   -4.5647 C   0  0  0  0  0  0  0  0  0  0  0  0
   28.6100  -19.9601   -5.8000 C   0  0  2  0  0  0  0  0  0  0  0  0
   29.2528  -19.4367   -7.0648 C   0  0  0  0  0  0  0  0  0  0  0  0
   27.1301  -19.6656   -5.7997 C   0  0  2  0  0  0  0  0  0  0  0  0
   26.5405  -19.9906   -4.5602 N   0  0  0  0  0  0  0  0  0  0  0  0
   26.5384  -20.3503   -6.9672 C   0  0  0  0  0  0  0  0  0  0  0  0
   27.0848  -21.4095   -7.3649 O   0  0  0  0  0  0  0  0  0  0  0  0
   25.4101  -19.8680   -7.6339 N   0  0  0  0  0  0  0  0  0  0  0  0
   24.7430  -20.5472   -8.7284 C   0  0  1  0  0  0  0  0  0  0  0  0
   23.2626  -20.2580   -8.5267 C   0  0  0  0  0  0  0  0  0  0  0  0
   22.7011  -20.8096   -7.2648 C   0  0  0  0  0  0  0  0  0  0  0  0
   22.6058  -22.2978   -7.4506 C   0  0  0  0  0  0  0  0  0  0  0  0
   22.3412  -22.8315   -8.5575 O   0  0  0  0  0  0  0  0  0  0  0  0
   25.2562  -19.9661   -9.9781 C   0  0  0  0  0  0  0  0  0  0  0  0
   25.5598  -18.7589  -10.0049 O   0  0  0  0  0  0  0  0  0  0  0  0
   22.8144  -23.1530   -6.3687 O   0  0  0  0  0  0  0  0  0  0  0  0
   27.4082  -22.6854  -16.7723 N   0  0  0  0  0  0  0  0  0  0  0  0
   28.2526  -21.5789  -17.0531 C   0  0  0  0  0  0  0  0  0  0  0  0
   28.3039  -21.1318  -18.2565 N   0  0  0  0  0  0  0  0  0  0  0  0
   29.0329  -20.9660  -16.0384 N   0  0  0  0  0  0  0  0  0  0  0  0
   28.7314  -21.2346  -14.6600 C   0  0  0  0  0  0  0  0  0  0  0  0
   27.5823  -20.3333  -14.1700 C   0  0  0  0  0  0  0  0  0  0  0  0
   27.0899  -20.8904  -12.8832 C   0  0  0  0  0  0  0  0  0  0  0  0
   25.9338  -20.1246  -12.3384 C   0  0  2  0  0  0  0  0  0  0  0  0
   25.4033  -20.7536  -11.1248 N   0  0  0  0  0  0  0  0  0  0  0  0
   24.7933  -19.9640  -13.2438 C   0  0  0  0  0  0  0  0  0  0  0  0
   23.8442  -20.7617  -13.2300 O   0  0  0  0  0  0  0  0  0  0  0  0
   24.6877  -18.9149  -14.1800 O   0  0  0  0  0  0  0  0  0  0  0  0
  2  1  1  0
  3  2  1  0
  3  4  1  6
  5  3  1  0
  5  6  1  1
  7  8  2  0
  7  5  1  0
  9  7  1  0
 10  9  1  0
 11 12  1  0
 10 11  1  1
 12 13  1  0
 13 14  2  0
 15 16  2  0
 15 10  1  0
 17 13  1  0
 18 19  1  0
 19 20  2  0
 21 19  1  0
 21 22  1  0
 22 23  1  0
 23 24  1  0
 25 24  1  6
 25 27  1  0
 25 26  1  0
 26 15  1  0
 27 29  1  0
 28 27  2  0
M  END
$$$$
