IER.pdb
     RDKit          3D

 29 28  0  0  1  0  0  0  0  0999 V2000
   28.4690  -20.2854   -8.2282 C   0  0  0  0  0  0  0  0  0  0  0  0
   28.0899  -20.8414   -9.5571 C   0  0  0  0  0  0  0  0  0  0  0  0
   26.6638  -20.6721   -9.9539 C   0  0  2  0  0  0  0  0  0  0  0  0
   25.7016  -21.3424   -8.9992 C   0  0  0  0  0  0  0  0  0  0  0  0
   26.3546  -21.0659  -11.3773 C   0  0  2  0  0  0  0  0  0  0  0  0
   27.4123  -20.7272  -12.2469 N   0  0  0  0  0  0  0  0  0  0  0  0
   25.0474  -20.4751  -11.7300 C   0  0  0  0  0  0  0  0  0  0  0  0
   24.7834  -19.3291  -11.2878 O   0  0  0  0  0  0  0  0  0  0  0  0
   24.1096  -21.1366  -12.5257 N   0  0  0  0  0  0  0  0  0  0  0  0
   22.8241  -20.5896  -12.9165 C   0  0  1  0  0  0  0  0  0  0  0  0
   22.9836  -20.2208  -14.3842 C   0  0  0  0  0  0  0  0  0  0  0  0
   21.7533  -19.6669  -15.0098 C   0  0  0  0  0  0  0  0  0  0  0  0
   22.0471  -19.5146  -16.4757 C   0  0  0  0  0  0  0  0  0  0  0  0
   22.0514  -18.4009  -17.0584 O   0  0  0  0  0  0  0  0  0  0  0  0
   21.8224  -21.6476  -12.7163 C   0  0  0  0  0  0  0  0  0  0  0  0
   22.1440  -22.8329  -12.9211 O   0  0  0  0  0  0  0  0  0  0  0  0
   22.3313  -20.6374  -17.2529 O   0  0  0  0  0  0  0  0  0  0  0  0
   18.0502  -24.0987   -6.2760 N   0  0  0  0  0  0  0  0  0  0  0  0
   18.1235  -25.2566   -7.0946 C   0  0  0  0  0  0  0  0  0  0  0  0
   17.8065  -26.3929   -6.5857 N   0  0  0  0  0  0  0  0  0  0  0  0
   18.5376  -25.1809   -8.4499 N   0  0  0  0  0  0  0  0  0  0  0  0
   19.0772  -23.9486   -8.9531 C   0  0  0  0  0  0  0  0  0  0  0  0
   18.2829  -23.4704  -10.1834 C   0  0  0  0  0  0  0  0  0  0  0  0
   18.9319  -22.2310  -10.6847 C   0  0  0  0  0  0  0  0  0  0  0  0
   19.6036  -22.4337  -11.9991 C   0  0  2  0  0  0  0  0  0  0  0  0
   20.5239  -21.3331  -12.3018 N   0  0  0  0  0  0  0  0  0  0  0  0
   18.7140  -22.5487  -13.1574 C   0  0  0  0  0  0  0  0  0  0  0  0
   18.2175  -21.5446  -13.6889 O   0  0  0  0  0  0  0  0  0  0  0  0
   18.3604  -23.7808  -13.7449 O   0  0  0  0  0  0  0  0  0  0  0  0
  2  1  1  0
  3  2  1  0
  3  4  1  1
  5  3  1  0
  5  6  1  6
  7  8  2  0
  7  5  1  0
  9  7  1  0
 10  9  1  0
 11 12  1  0
 10 11  1  6
 12 13  1  0
 13 14  2  0
 15 16  2  0
 15 10  1  0
 17 13  1  0
 18 19  1  0
 19 20  2  0
 21 19  1  0
 21 22  1  0
 22 23  1  0
 23 24  1  0
 25 24  1  1
 25 27  1  0
 25 26  1  0
 26 15  1  0
 27 29  1  0
 28 27  2  0
M  END
$$$$
