IER.pdb
     RDKit          3D

 29 28  0  0  1  0  0  0  0  0999 V2000
   25.5823  -17.4895  -16.1463 C   0  0  0  0  0  0  0  0  0  0  0  0
   26.2330  -18.7973  -15.8546 C   0  0  0  0  0  0  0  0  0  0  0  0
   27.3960  -18.7557  -14.9243 C   0  0  2  0  0  0  0  0  0  0  0  0
   28.4852  -17.8120  -15.3823 C   0  0  0  0  0  0  0  0  0  0  0  0
   27.9773  -20.1053  -14.5813 C   0  0  2  0  0  0  0  0  0  0  0  0
   28.4796  -20.7562  -15.7274 N   0  0  0  0  0  0  0  0  0  0  0  0
   26.9462  -20.8602  -13.8403 C   0  0  0  0  0  0  0  0  0  0  0  0
   26.2729  -21.7105  -14.4745 O   0  0  0  0  0  0  0  0  0  0  0  0
   26.6979  -20.6639  -12.4801 N   0  0  0  0  0  0  0  0  0  0  0  0
   25.6204  -21.2899  -11.7375 C   0  0  1  0  0  0  0  0  0  0  0  0
   25.9880  -21.0968  -10.2735 C   0  0  0  0  0  0  0  0  0  0  0  0
   26.2251  -19.6803   -9.8872 C   0  0  0  0  0  0  0  0  0  0  0  0
   26.4750  -19.6745   -8.4053 C   0  0  0  0  0  0  0  0  0  0  0  0
   26.4941  -20.7232   -7.7126 O   0  0  0  0  0  0  0  0  0  0  0  0
   24.3797  -20.5861  -12.0951 C   0  0  0  0  0  0  0  0  0  0  0  0
   24.4518  -19.4541  -12.6085 O   0  0  0  0  0  0  0  0  0  0  0  0
   26.6992  -18.4703   -7.7381 O   0  0  0  0  0  0  0  0  0  0  0  0
   23.8456  -25.5752  -15.8141 N   0  0  0  0  0  0  0  0  0  0  0  0
   22.4332  -25.7209  -15.8079 C   0  0  0  0  0  0  0  0  0  0  0  0
   21.9344  -26.8897  -15.6190 N   0  0  0  0  0  0  0  0  0  0  0  0
   21.5729  -24.6096  -16.0057 N   0  0  0  0  0  0  0  0  0  0  0  0
   22.1392  -23.2969  -16.1432 C   0  0  0  0  0  0  0  0  0  0  0  0
   21.5626  -22.3428  -15.0800 C   0  0  0  0  0  0  0  0  0  0  0  0
   22.6090  -22.1364  -14.0450 C   0  0  0  0  0  0  0  0  0  0  0  0
   22.1643  -21.2116  -12.9648 C   0  0  2  0  0  0  0  0  0  0  0  0
   23.1320  -21.1749  -11.8639 N   0  0  0  0  0  0  0  0  0  0  0  0
   20.8683  -21.5210  -12.3556 C   0  0  0  0  0  0  0  0  0  0  0  0
   20.7926  -22.0058  -11.2169 O   0  0  0  0  0  0  0  0  0  0  0  0
   19.6346  -21.2974  -13.0007 O   0  0  0  0  0  0  0  0  0  0  0  0
  2  1  1  0
  3  2  1  0
  3  4  1  6
  5  3  1  0
  5  6  1  6
  7  8  2  0
  7  5  1  0
  9  7  1  0
 10  9  1  0
 11 12  1  0
 10 11  1  1
 12 13  1  0
 13 14  2  0
 15 16  2  0
 15 10  1  0
 17 13  1  0
 18 19  1  0
 19 20  2  0
 21 19  1  0
 21 22  1  0
 22 23  1  0
 23 24  1  0
 25 24  1  6
 25 27  1  0
 25 26  1  0
 26 15  1  0
 27 29  1  0
 28 27  2  0
M  END
$$$$
