IER.pdb
     RDKit          3D

 29 28  0  0  1  0  0  0  0  0999 V2000
   24.5374  -12.0132  -15.9927 C   0  0  0  0  0  0  0  0  0  0  0  0
   23.1825  -11.3976  -16.0575 C   0  0  0  0  0  0  0  0  0  0  0  0
   22.9227  -10.2868  -15.0992 C   0  0  2  0  0  0  0  0  0  0  0  0
   23.2682  -10.6456  -13.6714 C   0  0  0  0  0  0  0  0  0  0  0  0
   21.5341   -9.7012  -15.1745 C   0  0  2  0  0  0  0  0  0  0  0  0
   21.1638   -9.4234  -16.5069 N   0  0  0  0  0  0  0  0  0  0  0  0
   21.4893   -8.5399  -14.2627 C   0  0  0  0  0  0  0  0  0  0  0  0
   21.5830   -8.7589  -13.0290 O   0  0  0  0  0  0  0  0  0  0  0  0
   21.3482   -7.2272  -14.7179 N   0  0  0  0  0  0  0  0  0  0  0  0
   21.1068   -6.0781  -13.8661 C   0  0  1  0  0  0  0  0  0  0  0  0
   21.5877   -4.8817  -14.6743 C   0  0  0  0  0  0  0  0  0  0  0  0
   21.3101   -3.5663  -14.0383 C   0  0  0  0  0  0  0  0  0  0  0  0
   21.7737   -2.5140  -15.0059 C   0  0  0  0  0  0  0  0  0  0  0  0
   22.9869   -2.3148  -15.2674 O   0  0  0  0  0  0  0  0  0  0  0  0
   19.6604   -6.0261  -13.6056 C   0  0  0  0  0  0  0  0  0  0  0  0
   18.8698   -6.3518  -14.5107 O   0  0  0  0  0  0  0  0  0  0  0  0
   20.8437   -1.7059  -15.6597 O   0  0  0  0  0  0  0  0  0  0  0  0
   14.2314   -9.2254   -7.9522 N   0  0  0  0  0  0  0  0  0  0  0  0
   13.4128   -8.4072   -8.7750 C   0  0  0  0  0  0  0  0  0  0  0  0
   12.1377   -8.5525   -8.7154 N   0  0  0  0  0  0  0  0  0  0  0  0
   13.9734   -7.4433   -9.6529 N   0  0  0  0  0  0  0  0  0  0  0  0
   15.3977   -7.3988   -9.8321 C   0  0  0  0  0  0  0  0  0  0  0  0
   15.7789   -6.3475  -10.8916 C   0  0  0  0  0  0  0  0  0  0  0  0
   17.2493   -6.4241  -11.0936 C   0  0  0  0  0  0  0  0  0  0  0  0
   17.7212   -5.5182  -12.1784 C   0  0  2  0  0  0  0  0  0  0  0  0
   19.1728   -5.6167  -12.3600 N   0  0  0  0  0  0  0  0  0  0  0  0
   17.4317   -4.0945  -11.9895 C   0  0  0  0  0  0  0  0  0  0  0  0
   18.3292   -3.2884  -11.7033 O   0  0  0  0  0  0  0  0  0  0  0  0
   16.1405   -3.5420  -12.1151 O   0  0  0  0  0  0  0  0  0  0  0  0
  2  1  1  0
  3  2  1  0
  3  4  1  1
  5  3  1  0
  5  6  1  6
  7  8  2  0
  7  5  1  0
  9  7  1  0
 10  9  1  0
 11 12  1  0
 10 11  1  6
 12 13  1  0
 13 14  2  0
 15 16  2  0
 15 10  1  0
 17 13  1  0
 18 19  1  0
 19 20  2  0
 21 19  1  0
 21 22  1  0
 22 23  1  0
 23 24  1  0
 25 24  1  1
 25 27  1  0
 25 26  1  0
 26 15  1  0
 27 29  1  0
 28 27  2  0
M  END
$$$$
