IER.pdb
     RDKit          3D

 29 28  0  0  1  0  0  0  0  0999 V2000
   25.8815  -12.9948  -15.9073 C   0  0  0  0  0  0  0  0  0  0  0  0
   26.9035  -13.9814  -16.3557 C   0  0  0  0  0  0  0  0  0  0  0  0
   26.4351  -15.3885  -16.4988 C   0  0  2  0  0  0  0  0  0  0  0  0
   25.7850  -15.9251  -15.2433 C   0  0  0  0  0  0  0  0  0  0  0  0
   27.4801  -16.3522  -17.0049 C   0  0  2  0  0  0  0  0  0  0  0  0
   28.0563  -15.9008  -18.2106 N   0  0  0  0  0  0  0  0  0  0  0  0
   26.8563  -17.6894  -17.0773 C   0  0  0  0  0  0  0  0  0  0  0  0
   26.0994  -17.9314  -18.0505 O   0  0  0  0  0  0  0  0  0  0  0  0
   27.0757  -18.6781  -16.1158 N   0  0  0  0  0  0  0  0  0  0  0  0
   26.5499  -20.0284  -16.1835 C   0  0  1  0  0  0  0  0  0  0  0  0
   27.7743  -20.9303  -16.1288 C   0  0  0  0  0  0  0  0  0  0  0  0
   28.4571  -21.1097  -17.4378 C   0  0  0  0  0  0  0  0  0  0  0  0
   29.5063  -22.1663  -17.2346 C   0  0  0  0  0  0  0  0  0  0  0  0
   29.6413  -22.7947  -16.1545 O   0  0  0  0  0  0  0  0  0  0  0  0
   25.6730  -20.2126  -15.0173 C   0  0  0  0  0  0  0  0  0  0  0  0
   26.0676  -19.8375  -13.8976 O   0  0  0  0  0  0  0  0  0  0  0  0
   30.3849  -22.4882  -18.2690 O   0  0  0  0  0  0  0  0  0  0  0  0
   17.1637  -22.4015  -13.8698 N   0  0  0  0  0  0  0  0  0  0  0  0
   17.7565  -22.5369  -12.5866 C   0  0  0  0  0  0  0  0  0  0  0  0
   17.0030  -22.8222  -11.5859 N   0  0  0  0  0  0  0  0  0  0  0  0
   19.1517  -22.3632  -12.3929 N   0  0  0  0  0  0  0  0  0  0  0  0
   19.9835  -22.0394  -13.5182 C   0  0  0  0  0  0  0  0  0  0  0  0
   21.4202  -21.7263  -13.0590 C   0  0  0  0  0  0  0  0  0  0  0  0
   22.2249  -21.4242  -14.2714 C   0  0  0  0  0  0  0  0  0  0  0  0
   23.6401  -21.0915  -13.9450 C   0  0  2  0  0  0  0  0  0  0  0  0
   24.4117  -20.8009  -15.1574 N   0  0  0  0  0  0  0  0  0  0  0  0
   24.3878  -22.1265  -13.2267 C   0  0  0  0  0  0  0  0  0  0  0  0
   24.8852  -23.0921  -13.8246 O   0  0  0  0  0  0  0  0  0  0  0  0
   24.5957  -22.1068  -11.8322 O   0  0  0  0  0  0  0  0  0  0  0  0
  2  1  1  0
  3  2  1  0
  3  4  1  1
  5  3  1  0
  5  6  1  6
  7  8  2  0
  7  5  1  0
  9  7  1  0
 10  9  1  0
 11 12  1  0
 10 11  1  1
 12 13  1  0
 13 14  2  0
 15 16  2  0
 15 10  1  0
 17 13  1  0
 18 19  1  0
 19 20  2  0
 21 19  1  0
 21 22  1  0
 22 23  1  0
 23 24  1  0
 25 24  1  6
 25 27  1  0
 25 26  1  0
 26 15  1  0
 27 29  1  0
 28 27  2  0
M  END
$$$$
