IER.pdb
     RDKit          3D

 29 28  0  0  1  0  0  0  0  0999 V2000
   29.6403  -20.5569  -11.5698 C   0  0  0  0  0  0  0  0  0  0  0  0
   28.4134  -21.3937  -11.6849 C   0  0  0  0  0  0  0  0  0  0  0  0
   27.1725  -20.6810  -12.0994 C   0  0  2  0  0  0  0  0  0  0  0  0
   26.9303  -19.4114  -11.3145 C   0  0  0  0  0  0  0  0  0  0  0  0
   25.9296  -21.5365  -12.1151 C   0  0  2  0  0  0  0  0  0  0  0  0
   26.1586  -22.7659  -12.7676 N   0  0  0  0  0  0  0  0  0  0  0  0
   24.8359  -20.7245  -12.6866 C   0  0  0  0  0  0  0  0  0  0  0  0
   24.4105  -19.7547  -12.0104 O   0  0  0  0  0  0  0  0  0  0  0  0
   24.2673  -20.9938  -13.9333 N   0  0  0  0  0  0  0  0  0  0  0  0
   23.2444  -20.1843  -14.5679 C   0  0  1  0  0  0  0  0  0  0  0  0
   23.7323  -19.9820  -15.9951 C   0  0  0  0  0  0  0  0  0  0  0  0
   24.1413  -18.5864  -16.3064 C   0  0  0  0  0  0  0  0  0  0  0  0
   24.5649  -18.5737  -17.7482 C   0  0  0  0  0  0  0  0  0  0  0  0
   23.7551  -18.4118  -18.6957 O   0  0  0  0  0  0  0  0  0  0  0  0
   21.9893  -20.9489  -14.5141 C   0  0  0  0  0  0  0  0  0  0  0  0
   22.0016  -22.1557  -14.8203 O   0  0  0  0  0  0  0  0  0  0  0  0
   25.9075  -18.7463  -18.0848 O   0  0  0  0  0  0  0  0  0  0  0  0
   18.0449  -24.3134   -9.0695 N   0  0  0  0  0  0  0  0  0  0  0  0
   18.9557  -24.7651  -10.0608 C   0  0  0  0  0  0  0  0  0  0  0  0
   19.0357  -26.0255  -10.2966 N   0  0  0  0  0  0  0  0  0  0  0  0
   19.7707  -23.8579  -10.7867 N   0  0  0  0  0  0  0  0  0  0  0  0
   19.3790  -22.4792  -10.8793 C   0  0  0  0  0  0  0  0  0  0  0  0
   18.4835  -22.2509  -12.1117 C   0  0  0  0  0  0  0  0  0  0  0  0
   18.8915  -20.9639  -12.7329 C   0  0  0  0  0  0  0  0  0  0  0  0
   19.5842  -21.1577  -14.0377 C   0  0  2  0  0  0  0  0  0  0  0  0
   20.7943  -20.3345  -14.1252 N   0  0  0  0  0  0  0  0  0  0  0  0
   18.7935  -20.8447  -15.2307 C   0  0  0  0  0  0  0  0  0  0  0  0
   17.9840  -21.6597  -15.6975 O   0  0  0  0  0  0  0  0  0  0  0  0
   18.8885  -19.6215  -15.9256 O   0  0  0  0  0  0  0  0  0  0  0  0
  2  1  1  0
  3  2  1  0
  3  4  1  1
  5  3  1  0
  5  6  1  6
  7  8  2  0
  7  5  1  0
  9  7  1  0
 10  9  1  0
 11 12  1  0
 10 11  1  6
 12 13  1  0
 13 14  2  0
 15 16  2  0
 15 10  1  0
 17 13  1  0
 18 19  1  0
 19 20  2  0
 21 19  1  0
 21 22  1  0
 22 23  1  0
 23 24  1  0
 25 24  1  1
 25 27  1  0
 25 26  1  0
 26 15  1  0
 27 29  1  0
 28 27  2  0
M  END
$$$$
