IER.pdb
     RDKit          3D

 29 28  0  0  1  0  0  0  0  0999 V2000
   27.7395  -20.2791   -7.9583 C   0  0  0  0  0  0  0  0  0  0  0  0
   26.2562  -20.2745   -8.0948 C   0  0  0  0  0  0  0  0  0  0  0  0
   25.7214  -20.6621   -9.4303 C   0  0  2  0  0  0  0  0  0  0  0  0
   26.4036  -19.9418  -10.5715 C   0  0  0  0  0  0  0  0  0  0  0  0
   24.2218  -20.5590   -9.5629 C   0  0  2  0  0  0  0  0  0  0  0  0
   23.5638  -21.2944   -8.5550 N   0  0  0  0  0  0  0  0  0  0  0  0
   23.8683  -20.9451  -10.9443 C   0  0  0  0  0  0  0  0  0  0  0  0
   24.0058  -22.1509  -11.2696 O   0  0  0  0  0  0  0  0  0  0  0  0
   23.3940  -20.0299  -11.8864 N   0  0  0  0  0  0  0  0  0  0  0  0
   23.1058  -20.3446  -13.2728 C   0  0  1  0  0  0  0  0  0  0  0  0
   21.5975  -20.1923  -13.4053 C   0  0  0  0  0  0  0  0  0  0  0  0
   21.0805  -20.4267  -14.7799 C   0  0  0  0  0  0  0  0  0  0  0  0
   20.6572  -19.0875  -15.3146 C   0  0  0  0  0  0  0  0  0  0  0  0
   21.1351  -18.5906  -16.3655 O   0  0  0  0  0  0  0  0  0  0  0  0
   23.8361  -19.3725  -14.1002 C   0  0  0  0  0  0  0  0  0  0  0  0
   23.7636  -18.1619  -13.8185 O   0  0  0  0  0  0  0  0  0  0  0  0
   19.6943  -18.3370  -14.6398 O   0  0  0  0  0  0  0  0  0  0  0  0
   26.4867  -22.9014  -15.5470 N   0  0  0  0  0  0  0  0  0  0  0  0
   26.6919  -22.4897  -14.2036 C   0  0  0  0  0  0  0  0  0  0  0  0
   26.1234  -23.1530  -13.2615 N   0  0  0  0  0  0  0  0  0  0  0  0
   27.5044  -21.3698  -13.8877 N   0  0  0  0  0  0  0  0  0  0  0  0
   28.1904  -20.6781  -14.9430 C   0  0  0  0  0  0  0  0  0  0  0  0
   27.6278  -19.2543  -15.1143 C   0  0  0  0  0  0  0  0  0  0  0  0
   26.7176  -19.2678  -16.2890 C   0  0  0  0  0  0  0  0  0  0  0  0
   25.3480  -18.7878  -15.9515 C   0  0  2  0  0  0  0  0  0  0  0  0
   24.6033  -19.7959  -15.1906 N   0  0  0  0  0  0  0  0  0  0  0  0
   24.4996  -18.4315  -17.0915 C   0  0  0  0  0  0  0  0  0  0  0  0
   23.8760  -19.2966  -17.7240 O   0  0  0  0  0  0  0  0  0  0  0  0
   24.3295  -17.1084  -17.5485 O   0  0  0  0  0  0  0  0  0  0  0  0
  2  1  1  0
  3  2  1  0
  3  4  1  6
  5  3  1  0
  5  6  1  1
  7  8  2  0
  7  5  1  0
  9  7  1  0
 10  9  1  0
 11 12  1  0
 10 11  1  1
 12 13  1  0
 13 14  2  0
 15 16  2  0
 15 10  1  0
 17 13  1  0
 18 19  1  0
 19 20  2  0
 21 19  1  0
 21 22  1  0
 22 23  1  0
 23 24  1  0
 25 24  1  6
 25 27  1  0
 25 26  1  0
 26 15  1  0
 27 29  1  0
 28 27  2  0
M  END
$$$$
