IER.pdb
     RDKit          3D

 29 28  0  0  1  0  0  0  0  0999 V2000
   21.6921  -29.5598  -15.3045 C   0  0  0  0  0  0  0  0  0  0  0  0
   21.3171  -28.1407  -15.5583 C   0  0  0  0  0  0  0  0  0  0  0  0
   21.2558  -27.2566  -14.3607 C   0  0  2  0  0  0  0  0  0  0  0  0
   20.3335  -27.7833  -13.2842 C   0  0  0  0  0  0  0  0  0  0  0  0
   20.9453  -25.8106  -14.6600 C   0  0  2  0  0  0  0  0  0  0  0  0
   21.8622  -25.2674  -15.5841 N   0  0  0  0  0  0  0  0  0  0  0  0
   20.8660  -25.0948  -13.3702 C   0  0  0  0  0  0  0  0  0  0  0  0
   21.9411  -24.8527  -12.7668 O   0  0  0  0  0  0  0  0  0  0  0  0
   19.6556  -24.6845  -12.8072 N   0  0  0  0  0  0  0  0  0  0  0  0
   19.5318  -23.9075  -11.5885 C   0  0  1  0  0  0  0  0  0  0  0  0
   18.7669  -22.6566  -11.9958 C   0  0  0  0  0  0  0  0  0  0  0  0
   17.8247  -22.8610  -13.1283 C   0  0  0  0  0  0  0  0  0  0  0  0
   17.0385  -21.5880  -13.2691 C   0  0  0  0  0  0  0  0  0  0  0  0
   16.2315  -21.1844  -12.3941 O   0  0  0  0  0  0  0  0  0  0  0  0
   18.7818  -24.7269  -10.6248 C   0  0  0  0  0  0  0  0  0  0  0  0
   17.9281  -25.5290  -11.0467 O   0  0  0  0  0  0  0  0  0  0  0  0
   17.1869  -20.7961  -14.4077 O   0  0  0  0  0  0  0  0  0  0  0  0
   19.5088  -27.6287   -2.6196 N   0  0  0  0  0  0  0  0  0  0  0  0
   18.1147  -27.7080   -2.8777 C   0  0  0  0  0  0  0  0  0  0  0  0
   17.4003  -28.5057   -2.1677 N   0  0  0  0  0  0  0  0  0  0  0  0
   17.5043  -26.9303   -3.8959 N   0  0  0  0  0  0  0  0  0  0  0  0
   18.3318  -26.2053   -4.8191 C   0  0  0  0  0  0  0  0  0  0  0  0
   17.4821  -25.6100   -5.9578 C   0  0  0  0  0  0  0  0  0  0  0  0
   18.4087  -24.9474   -6.9124 C   0  0  0  0  0  0  0  0  0  0  0  0
   18.1250  -25.3164   -8.3277 C   0  0  2  0  0  0  0  0  0  0  0  0
   19.0193  -24.6112   -9.2511 N   0  0  0  0  0  0  0  0  0  0  0  0
   16.7633  -25.0452   -8.7954 C   0  0  0  0  0  0  0  0  0  0  0  0
   16.4471  -23.9334   -9.2440 O   0  0  0  0  0  0  0  0  0  0  0  0
   15.7297  -26.0041   -8.7727 O   0  0  0  0  0  0  0  0  0  0  0  0
  2  1  1  0
  3  2  1  0
  3  4  1  1
  5  3  1  0
  5  6  1  6
  7  8  2  0
  7  5  1  0
  9  7  1  0
 10  9  1  0
 11 12  1  0
 10 11  1  6
 12 13  1  0
 13 14  2  0
 15 16  2  0
 15 10  1  0
 17 13  1  0
 18 19  1  0
 19 20  2  0
 21 19  1  0
 21 22  1  0
 22 23  1  0
 23 24  1  0
 25 24  1  1
 25 27  1  0
 25 26  1  0
 26 15  1  0
 27 29  1  0
 28 27  2  0
M  END
$$$$
