IER.pdb
     RDKit          3D

 29 28  0  0  1  0  0  0  0  0999 V2000
   29.5730  -21.2497  -10.8110 C   0  0  0  0  0  0  0  0  0  0  0  0
   28.9112  -20.5717  -11.9604 C   0  0  0  0  0  0  0  0  0  0  0  0
   27.4856  -20.1877  -11.7604 C   0  0  2  0  0  0  0  0  0  0  0  0
   27.1991  -19.6882  -10.3621 C   0  0  0  0  0  0  0  0  0  0  0  0
   26.4861  -21.2460  -12.1575 C   0  0  2  0  0  0  0  0  0  0  0  0
   26.8532  -21.8737  -13.3661 N   0  0  0  0  0  0  0  0  0  0  0  0
   25.1495  -20.6171  -12.1655 C   0  0  0  0  0  0  0  0  0  0  0  0
   24.7169  -20.1452  -11.0844 O   0  0  0  0  0  0  0  0  0  0  0  0
   24.3623  -20.5307  -13.3158 N   0  0  0  0  0  0  0  0  0  0  0  0
   23.0313  -19.9560  -13.3657 C   0  0  1  0  0  0  0  0  0  0  0  0
   22.8503  -19.5082  -14.8088 C   0  0  0  0  0  0  0  0  0  0  0  0
   21.4981  -18.9693  -15.1138 C   0  0  0  0  0  0  0  0  0  0  0  0
   21.5047  -18.5881  -16.5674 C   0  0  0  0  0  0  0  0  0  0  0  0
   21.9034  -17.4687  -16.9772 O   0  0  0  0  0  0  0  0  0  0  0  0
   22.0850  -21.0178  -12.9917 C   0  0  0  0  0  0  0  0  0  0  0  0
   22.3298  -22.1922  -13.3246 O   0  0  0  0  0  0  0  0  0  0  0  0
   21.0554  -19.4919  -17.5301 O   0  0  0  0  0  0  0  0  0  0  0  0
   16.7275  -24.4596   -7.8887 N   0  0  0  0  0  0  0  0  0  0  0  0
   18.0100  -24.8222   -7.3987 C   0  0  0  0  0  0  0  0  0  0  0  0
   18.1385  -25.9360   -6.7713 N   0  0  0  0  0  0  0  0  0  0  0  0
   19.1395  -23.9839   -7.5875 N   0  0  0  0  0  0  0  0  0  0  0  0
   18.9805  -22.7333   -8.2757 C   0  0  0  0  0  0  0  0  0  0  0  0
   19.1340  -22.9271   -9.7962 C   0  0  0  0  0  0  0  0  0  0  0  0
   19.9873  -21.8228  -10.3072 C   0  0  0  0  0  0  0  0  0  0  0  0
   20.0951  -21.8298  -11.7932 C   0  0  2  0  0  0  0  0  0  0  0  0
   20.9233  -20.7187  -12.2720 N   0  0  0  0  0  0  0  0  0  0  0  0
   18.8286  -21.7358  -12.5237 C   0  0  0  0  0  0  0  0  0  0  0  0
   18.3405  -20.6367  -12.8253 O   0  0  0  0  0  0  0  0  0  0  0  0
   18.0827  -22.8608  -12.9314 O   0  0  0  0  0  0  0  0  0  0  0  0
  2  1  1  0
  3  2  1  0
  3  4  1  1
  5  3  1  0
  5  6  1  6
  7  8  2  0
  7  5  1  0
  9  7  1  0
 10  9  1  0
 11 12  1  0
 10 11  1  6
 12 13  1  0
 13 14  2  0
 15 16  2  0
 15 10  1  0
 17 13  1  0
 18 19  1  0
 19 20  2  0
 21 19  1  0
 21 22  1  0
 22 23  1  0
 23 24  1  0
 25 24  1  1
 25 27  1  0
 25 26  1  0
 26 15  1  0
 27 29  1  0
 28 27  2  0
M  END
$$$$
