IER.pdb
     RDKit          3D

 29 28  0  0  1  0  0  0  0  0999 V2000
   28.8589  -12.7550  -16.0754 C   0  0  0  0  0  0  0  0  0  0  0  0
   27.5017  -13.2976  -15.7885 C   0  0  0  0  0  0  0  0  0  0  0  0
   26.3599  -12.3795  -16.0589 C   0  0  2  0  0  0  0  0  0  0  0  0
   26.4525  -11.0798  -15.2914 C   0  0  0  0  0  0  0  0  0  0  0  0
   24.9961  -13.0005  -15.8818 C   0  0  2  0  0  0  0  0  0  0  0  0
   24.9307  -14.2779  -16.4762 N   0  0  0  0  0  0  0  0  0  0  0  0
   23.9969  -12.0325  -16.3787 C   0  0  0  0  0  0  0  0  0  0  0  0
   23.9719  -11.7967  -17.6125 O   0  0  0  0  0  0  0  0  0  0  0  0
   23.0933  -11.3805  -15.5369 N   0  0  0  0  0  0  0  0  0  0  0  0
   22.0535  -10.4732  -15.9840 C   0  0  1  0  0  0  0  0  0  0  0  0
   20.7658  -11.0299  -15.3944 C   0  0  0  0  0  0  0  0  0  0  0  0
   19.5506  -10.2429  -15.7346 C   0  0  0  0  0  0  0  0  0  0  0  0
   18.4043  -10.8839  -15.0041 C   0  0  0  0  0  0  0  0  0  0  0  0
   18.5564  -11.8362  -14.1979 O   0  0  0  0  0  0  0  0  0  0  0  0
   22.3783   -9.1423  -15.4493 C   0  0  0  0  0  0  0  0  0  0  0  0
   22.9841   -9.0565  -14.3649 O   0  0  0  0  0  0  0  0  0  0  0  0
   17.1022  -10.4266  -15.2062 O   0  0  0  0  0  0  0  0  0  0  0  0
   22.7393   -1.2044  -19.3490 N   0  0  0  0  0  0  0  0  0  0  0  0
   23.2726   -1.0051  -18.0481 C   0  0  0  0  0  0  0  0  0  0  0  0
   23.6815    0.1684  -17.7221 N   0  0  0  0  0  0  0  0  0  0  0  0
   23.3614   -2.0689  -17.1128 N   0  0  0  0  0  0  0  0  0  0  0  0
   22.9082   -3.3782  -17.4910 C   0  0  0  0  0  0  0  0  0  0  0  0
   23.0116   -4.3528  -16.3026 C   0  0  0  0  0  0  0  0  0  0  0  0
   22.4780   -5.6661  -16.7491 C   0  0  0  0  0  0  0  0  0  0  0  0
   22.5351   -6.6969  -15.6749 C   0  0  2  0  0  0  0  0  0  0  0  0
   22.0140   -7.9844  -16.1445 N   0  0  0  0  0  0  0  0  0  0  0  0
   21.7948   -6.3819  -14.4505 C   0  0  0  0  0  0  0  0  0  0  0  0
   20.6174   -6.7406  -14.3009 O   0  0  0  0  0  0  0  0  0  0  0  0
   22.3495   -5.6632  -13.3716 O   0  0  0  0  0  0  0  0  0  0  0  0
  2  1  1  0
  3  2  1  0
  3  4  1  1
  5  3  1  0
  5  6  1  6
  7  8  2  0
  7  5  1  0
  9  7  1  0
 10  9  1  0
 11 12  1  0
 10 11  1  1
 12 13  1  0
 13 14  2  0
 15 16  2  0
 15 10  1  0
 17 13  1  0
 18 19  1  0
 19 20  2  0
 21 19  1  0
 21 22  1  0
 22 23  1  0
 23 24  1  0
 25 24  1  6
 25 27  1  0
 25 26  1  0
 26 15  1  0
 27 29  1  0
 28 27  2  0
M  END
$$$$
