GMN.pdb
     RDKit          3D

 21 20  0  0  1  0  0  0  0  0999 V2000
    4.6452  -19.3618   21.9595 N   0  0  0  0  0  0  0  0  0  0  0  0
    5.3073  -19.4973   23.2377 C   0  0  0  0  0  0  0  0  0  0  0  0
    6.2713  -18.3453   23.4451 C   0  0  0  0  0  0  0  0  0  0  0  0
    7.2641  -18.2629   22.6868 O   0  0  0  0  0  0  0  0  0  0  0  0
    7.8803  -11.5113   27.1713 C   0  0  0  0  0  0  0  0  0  0  0  0
    6.6716  -12.8134   26.7863 S   0  0  0  0  0  0  0  0  0  0  0  0
    7.4596  -14.1853   25.8960 C   0  0  0  0  0  0  0  0  0  0  0  0
    6.4640  -15.2409   25.5424 C   0  0  0  0  0  0  0  0  0  0  0  0
    7.0294  -16.3958   24.8027 C   0  0  2  0  0  0  0  0  0  0  0  0
    6.0735  -17.3933   24.4487 N   0  0  0  0  0  0  0  0  0  0  0  0
    8.3148  -16.9127   25.3440 C   0  0  0  0  0  0  0  0  0  0  0  0
    8.2976  -17.7297   26.2756 O   0  0  0  0  0  0  0  0  0  0  0  0
   12.0376  -15.8041   22.1301 N   0  0  0  0  0  0  0  0  0  0  0  0
   11.8287  -16.8507   23.0496 C   0  0  0  0  0  0  0  0  0  0  0  0
   11.4564  -17.9638   22.5695 O   0  0  0  0  0  0  0  0  0  0  0  0
   11.9983  -16.7817   24.5025 C   0  0  0  0  0  0  0  0  0  0  0  0
   10.7850  -17.1414   25.2936 C   0  0  2  0  0  0  0  0  0  0  0  0
    9.5746  -16.5096   24.8382 N   0  0  0  0  0  0  0  0  0  0  0  0
   11.0367  -16.8466   26.7441 C   0  0  0  0  0  0  0  0  0  0  0  0
   11.7132  -17.6355   27.4493 O   0  0  0  0  0  0  0  0  0  0  0  0
   10.5400  -15.7051   27.3629 O   0  0  0  0  0  0  0  0  0  0  0  0
  1  2  1  0
  2  3  1  0
  3 10  1  0
  3  4  2  0
  6  5  1  0
  7  6  1  0
  8  7  1  0
  9  8  1  1
 10  9  1  0
 11  9  1  0
 11 18  1  0
 12 11  2  0
 13 14  1  0
 14 15  2  0
 14 16  1  0
 17 16  1  6
 17 19  1  0
 18 17  1  0
 19 20  2  0
 19 21  1  0
M  END
$$$$
