GMN.pdb
     RDKit          3D

 21 20  0  0  1  0  0  0  0  0999 V2000
    4.4467  -18.0007   21.7977 N   0  0  0  0  0  0  0  0  0  0  0  0
    4.8701  -17.9099   23.1772 C   0  0  0  0  0  0  0  0  0  0  0  0
    6.0193  -16.9283   23.3015 C   0  0  0  0  0  0  0  0  0  0  0  0
    6.6739  -16.6526   22.2705 O   0  0  0  0  0  0  0  0  0  0  0  0
    5.7974  -10.8411   26.7529 C   0  0  0  0  0  0  0  0  0  0  0  0
    6.7533  -12.3496   27.0924 S   0  0  0  0  0  0  0  0  0  0  0  0
    6.5976  -13.5357   25.7269 C   0  0  0  0  0  0  0  0  0  0  0  0
    7.5165  -14.6979   25.9150 C   0  0  0  0  0  0  0  0  0  0  0  0
    7.5685  -15.6326   24.7642 C   0  0  2  0  0  0  0  0  0  0  0  0
    6.3527  -16.3385   24.5237 N   0  0  0  0  0  0  0  0  0  0  0  0
    8.8056  -16.4548   24.6857 C   0  0  0  0  0  0  0  0  0  0  0  0
    8.8430  -17.5532   25.2583 O   0  0  0  0  0  0  0  0  0  0  0  0
   12.0204  -15.3381   20.5862 N   0  0  0  0  0  0  0  0  0  0  0  0
   11.6451  -16.3145   21.5297 C   0  0  0  0  0  0  0  0  0  0  0  0
   10.7955  -17.1759   21.1498 O   0  0  0  0  0  0  0  0  0  0  0  0
   12.1375  -16.4341   22.9037 C   0  0  0  0  0  0  0  0  0  0  0  0
   11.1193  -16.8829   23.8983 C   0  0  2  0  0  0  0  0  0  0  0  0
    9.9583  -16.0359   23.9779 N   0  0  0  0  0  0  0  0  0  0  0  0
   11.7738  -17.0316   25.2413 C   0  0  0  0  0  0  0  0  0  0  0  0
   11.3213  -16.4260   26.2442 O   0  0  0  0  0  0  0  0  0  0  0  0
   12.8929  -17.8339   25.4329 O   0  0  0  0  0  0  0  0  0  0  0  0
  1  2  1  0
  2  3  1  0
  3 10  1  0
  3  4  2  0
  6  5  1  0
  7  6  1  0
  8  7  1  0
  9  8  1  1
 10  9  1  0
 11  9  1  0
 11 18  1  0
 12 11  2  0
 13 14  1  0
 14 15  2  0
 14 16  1  0
 17 16  1  6
 17 19  1  0
 18 17  1  0
 19 20  2  0
 19 21  1  0
M  END
$$$$
