GMN.pdb
     RDKit          3D

 21 20  0  0  1  0  0  0  0  0999 V2000
    5.2465  -19.3530   21.6662 N   0  0  0  0  0  0  0  0  0  0  0  0
    5.4287  -19.0480   23.0678 C   0  0  0  0  0  0  0  0  0  0  0  0
    6.2838  -17.8049   23.2193 C   0  0  0  0  0  0  0  0  0  0  0  0
    7.1894  -17.6055   22.3780 O   0  0  0  0  0  0  0  0  0  0  0  0
    7.8872  -11.1340   27.2074 C   0  0  0  0  0  0  0  0  0  0  0  0
    6.7201  -12.4952   26.9080 S   0  0  0  0  0  0  0  0  0  0  0  0
    7.4978  -13.8109   25.9282 C   0  0  0  0  0  0  0  0  0  0  0  0
    6.5011  -14.8520   25.5364 C   0  0  0  0  0  0  0  0  0  0  0  0
    7.0467  -15.9336   24.6803 C   0  0  2  0  0  0  0  0  0  0  0  0
    6.0814  -16.8966   24.2617 N   0  0  0  0  0  0  0  0  0  0  0  0
    8.3454  -16.4953   25.1391 C   0  0  0  0  0  0  0  0  0  0  0  0
    8.3500  -17.4365   25.9453 O   0  0  0  0  0  0  0  0  0  0  0  0
   11.4534  -15.6416   21.6112 N   0  0  0  0  0  0  0  0  0  0  0  0
   11.5027  -16.6496   22.5940 C   0  0  0  0  0  0  0  0  0  0  0  0
   11.1658  -17.8165   22.2294 O   0  0  0  0  0  0  0  0  0  0  0  0
   11.9037  -16.4848   23.9928 C   0  0  0  0  0  0  0  0  0  0  0  0
   10.8133  -16.7034   24.9880 C   0  0  2  0  0  0  0  0  0  0  0  0
    9.5938  -15.9984   24.6921 N   0  0  0  0  0  0  0  0  0  0  0  0
   11.3196  -16.3573   26.3584 C   0  0  0  0  0  0  0  0  0  0  0  0
   10.7089  -15.5261   27.0751 O   0  0  0  0  0  0  0  0  0  0  0  0
   12.4693  -16.9319   26.8881 O   0  0  0  0  0  0  0  0  0  0  0  0
  1  2  1  0
  2  3  1  0
  3 10  1  0
  3  4  2  0
  6  5  1  0
  7  6  1  0
  8  7  1  0
  9  8  1  1
 10  9  1  0
 11  9  1  0
 11 18  1  0
 12 11  2  0
 13 14  1  0
 14 15  2  0
 14 16  1  0
 17 16  1  6
 17 19  1  0
 18 17  1  0
 19 20  2  0
 19 21  1  0
M  END
$$$$
