GMN.pdb
     RDKit          3D

 21 20  0  0  1  0  0  0  0  0999 V2000
    7.6974  -13.4431   19.4621 N   0  0  0  0  0  0  0  0  0  0  0  0
    6.9173  -14.0833   20.4975 C   0  0  0  0  0  0  0  0  0  0  0  0
    7.7295  -14.1743   21.7748 C   0  0  0  0  0  0  0  0  0  0  0  0
    8.9749  -14.2590   21.6775 O   0  0  0  0  0  0  0  0  0  0  0  0
    7.0071  -11.7998   28.0197 C   0  0  0  0  0  0  0  0  0  0  0  0
    6.0055  -11.3964   26.5573 S   0  0  0  0  0  0  0  0  0  0  0  0
    6.6612  -12.2177   25.0771 C   0  0  0  0  0  0  0  0  0  0  0  0
    7.1971  -13.5726   25.4052 C   0  0  0  0  0  0  0  0  0  0  0  0
    7.8353  -14.2738   24.2643 C   0  0  2  0  0  0  0  0  0  0  0  0
    7.1227  -14.1654   23.0336 N   0  0  0  0  0  0  0  0  0  0  0  0
    8.3537  -15.6318   24.5797 C   0  0  0  0  0  0  0  0  0  0  0  0
    7.5744  -16.5954   24.5789 O   0  0  0  0  0  0  0  0  0  0  0  0
   11.2526  -18.0831   22.1603 N   0  0  0  0  0  0  0  0  0  0  0  0
   11.6773  -17.2703   23.2296 C   0  0  0  0  0  0  0  0  0  0  0  0
   12.2646  -16.1888   22.9238 O   0  0  0  0  0  0  0  0  0  0  0  0
   11.5085  -17.5491   24.6573 C   0  0  0  0  0  0  0  0  0  0  0  0
   10.1646  -17.2070   25.2088 C   0  0  2  0  0  0  0  0  0  0  0  0
    9.7141  -15.8789   24.8851 N   0  0  0  0  0  0  0  0  0  0  0  0
   10.1694  -17.4300   26.6935 C   0  0  0  0  0  0  0  0  0  0  0  0
   10.3662  -18.5761   27.1679 O   0  0  0  0  0  0  0  0  0  0  0  0
    9.9593  -16.3942   27.5968 O   0  0  0  0  0  0  0  0  0  0  0  0
  1  2  1  0
  2  3  1  0
  3 10  1  0
  3  4  2  0
  6  5  1  0
  7  6  1  0
  8  7  1  0
  9  8  1  1
 10  9  1  0
 11  9  1  0
 11 18  1  0
 12 11  2  0
 13 14  1  0
 14 15  2  0
 14 16  1  0
 17 16  1  1
 17 19  1  0
 18 17  1  0
 19 20  2  0
 19 21  1  0
M  END
$$$$
