GMN.pdb
     RDKit          3D

 21 20  0  0  1  0  0  0  0  0999 V2000
    5.7809  -19.2943   22.7179 N   0  0  0  0  0  0  0  0  0  0  0  0
    5.7909  -18.5464   23.9553 C   0  0  0  0  0  0  0  0  0  0  0  0
    6.7388  -17.3684   23.8396 C   0  0  0  0  0  0  0  0  0  0  0  0
    7.4594  -17.2890   22.8189 O   0  0  0  0  0  0  0  0  0  0  0  0
    6.8928  -11.2454   26.9706 C   0  0  0  0  0  0  0  0  0  0  0  0
    5.4753  -12.2152   26.3749 S   0  0  0  0  0  0  0  0  0  0  0  0
    6.0094  -13.4787   25.1857 C   0  0  0  0  0  0  0  0  0  0  0  0
    7.2862  -14.1210   25.6188 C   0  0  0  0  0  0  0  0  0  0  0  0
    7.7070  -15.2745   24.7863 C   0  0  2  0  0  0  0  0  0  0  0  0
    6.8192  -16.3897   24.8338 N   0  0  0  0  0  0  0  0  0  0  0  0
    9.1533  -15.6108   24.8743 C   0  0  0  0  0  0  0  0  0  0  0  0
    9.9948  -14.7751   24.5150 O   0  0  0  0  0  0  0  0  0  0  0  0
   11.2052  -14.6310   29.3049 N   0  0  0  0  0  0  0  0  0  0  0  0
   10.6830  -14.9429   28.0343 C   0  0  0  0  0  0  0  0  0  0  0  0
   10.9432  -14.1295   27.0969 O   0  0  0  0  0  0  0  0  0  0  0  0
    9.8707  -16.1113   27.6882 C   0  0  0  0  0  0  0  0  0  0  0  0
   10.4021  -16.9335   26.5618 C   0  0  2  0  0  0  0  0  0  0  0  0
    9.6203  -16.8580   25.3556 N   0  0  0  0  0  0  0  0  0  0  0  0
   10.5561  -18.3553   27.0187 C   0  0  0  0  0  0  0  0  0  0  0  0
   11.3674  -18.6499   27.9310 O   0  0  0  0  0  0  0  0  0  0  0  0
    9.8193  -19.3942   26.4615 O   0  0  0  0  0  0  0  0  0  0  0  0
  1  2  1  0
  2  3  1  0
  3 10  1  0
  3  4  2  0
  6  5  1  0
  7  6  1  0
  8  7  1  0
  9  8  1  1
 10  9  1  0
 11  9  1  0
 11 18  1  0
 12 11  2  0
 13 14  1  0
 14 15  2  0
 14 16  1  0
 17 16  1  1
 17 19  1  0
 18 17  1  0
 19 20  2  0
 19 21  1  0
M  END
$$$$
