GMN.pdb
     RDKit          3D

 21 20  0  0  1  0  0  0  0  0999 V2000
    8.8408  -16.0947   19.8410 N   0  0  0  0  0  0  0  0  0  0  0  0
    8.0166  -16.3957   20.9902 C   0  0  0  0  0  0  0  0  0  0  0  0
    8.6007  -15.7458   22.2295 C   0  0  0  0  0  0  0  0  0  0  0  0
    9.8399  -15.5741   22.2775 O   0  0  0  0  0  0  0  0  0  0  0  0
    6.1267  -11.1473   26.3879 C   0  0  0  0  0  0  0  0  0  0  0  0
    6.6799  -12.4961   27.4738 S   0  0  0  0  0  0  0  0  0  0  0  0
    7.8895  -13.5532   26.6280 C   0  0  0  0  0  0  0  0  0  0  0  0
    7.3506  -14.0560   25.3290 C   0  0  0  0  0  0  0  0  0  0  0  0
    8.2985  -14.8928   24.5532 C   0  0  2  0  0  0  0  0  0  0  0  0
    7.7943  -15.3435   23.2975 N   0  0  0  0  0  0  0  0  0  0  0  0
    9.0206  -15.9189   25.3521 C   0  0  0  0  0  0  0  0  0  0  0  0
    8.4553  -16.9884   25.6214 O   0  0  0  0  0  0  0  0  0  0  0  0
   13.5450  -15.2884   24.4023 N   0  0  0  0  0  0  0  0  0  0  0  0
   12.8879  -16.4637   24.8165 C   0  0  0  0  0  0  0  0  0  0  0  0
   12.5865  -17.2968   23.9093 O   0  0  0  0  0  0  0  0  0  0  0  0
   12.5188  -16.8189   26.1884 C   0  0  0  0  0  0  0  0  0  0  0  0
   11.0529  -16.8027   26.4679 C   0  0  2  0  0  0  0  0  0  0  0  0
   10.3413  -15.7288   25.8260 N   0  0  0  0  0  0  0  0  0  0  0  0
   10.8342  -16.7851   27.9532 C   0  0  0  0  0  0  0  0  0  0  0  0
   10.1440  -15.8822   28.4877 O   0  0  0  0  0  0  0  0  0  0  0  0
   11.3772  -17.7522   28.7914 O   0  0  0  0  0  0  0  0  0  0  0  0
  1  2  1  0
  2  3  1  0
  3 10  1  0
  3  4  2  0
  6  5  1  0
  7  6  1  0
  8  7  1  0
  9  8  1  1
 10  9  1  0
 11  9  1  0
 11 18  1  0
 12 11  2  0
 13 14  1  0
 14 15  2  0
 14 16  1  0
 17 16  1  1
 17 19  1  0
 18 17  1  0
 19 20  2  0
 19 21  1  0
M  END
$$$$
