GMN.pdb
     RDKit          3D

 21 20  0  0  1  0  0  0  0  0999 V2000
    8.0921  -16.3714   19.1039 N   0  0  0  0  0  0  0  0  0  0  0  0
    7.2355  -16.4507   20.2660 C   0  0  0  0  0  0  0  0  0  0  0  0
    7.9118  -15.7917   21.4525 C   0  0  0  0  0  0  0  0  0  0  0  0
    9.1586  -15.6788   21.4333 O   0  0  0  0  0  0  0  0  0  0  0  0
    7.3031  -11.3144   27.9452 C   0  0  0  0  0  0  0  0  0  0  0  0
    6.4640  -12.1118   26.5435 S   0  0  0  0  0  0  0  0  0  0  0  0
    7.5700  -13.2854   25.7096 C   0  0  0  0  0  0  0  0  0  0  0  0
    6.9165  -13.8791   24.5051 C   0  0  0  0  0  0  0  0  0  0  0  0
    7.7697  -14.8273   23.7478 C   0  0  2  0  0  0  0  0  0  0  0  0
    7.1806  -15.3177   22.5450 N   0  0  0  0  0  0  0  0  0  0  0  0
    8.4546  -15.8509   24.5818 C   0  0  0  0  0  0  0  0  0  0  0  0
    7.8368  -16.8694   24.9236 O   0  0  0  0  0  0  0  0  0  0  0  0
   12.9023  -15.9384   23.1278 N   0  0  0  0  0  0  0  0  0  0  0  0
   12.2583  -16.9385   23.8825 C   0  0  0  0  0  0  0  0  0  0  0  0
   11.9187  -17.9902   23.2609 O   0  0  0  0  0  0  0  0  0  0  0  0
   11.9424  -16.8849   25.3115 C   0  0  0  0  0  0  0  0  0  0  0  0
   10.4860  -16.8160   25.6300 C   0  0  2  0  0  0  0  0  0  0  0  0
    9.7975  -15.7146   25.0098 N   0  0  0  0  0  0  0  0  0  0  0  0
   10.3075  -16.7954   27.1205 C   0  0  0  0  0  0  0  0  0  0  0  0
    9.6833  -15.8586   27.6774 O   0  0  0  0  0  0  0  0  0  0  0  0
   10.8170  -17.7967   27.9394 O   0  0  0  0  0  0  0  0  0  0  0  0
  1  2  1  0
  2  3  1  0
  3 10  1  0
  3  4  2  0
  6  5  1  0
  7  6  1  0
  8  7  1  0
  9  8  1  1
 10  9  1  0
 11  9  1  0
 11 18  1  0
 12 11  2  0
 13 14  1  0
 14 15  2  0
 14 16  1  0
 17 16  1  1
 17 19  1  0
 18 17  1  0
 19 20  2  0
 19 21  1  0
M  END
$$$$
