GMN.pdb
     RDKit          3D

 21 20  0  0  1  0  0  0  0  0999 V2000
    7.5924  -14.1041   19.5937 N   0  0  0  0  0  0  0  0  0  0  0  0
    6.8386  -14.6217   20.7137 C   0  0  0  0  0  0  0  0  0  0  0  0
    7.6837  -14.5735   21.9719 C   0  0  0  0  0  0  0  0  0  0  0  0
    8.9222  -14.4405   21.8461 O   0  0  0  0  0  0  0  0  0  0  0  0
    6.1236  -10.0756   26.7410 C   0  0  0  0  0  0  0  0  0  0  0  0
    6.2938  -11.8757   26.9284 S   0  0  0  0  0  0  0  0  0  0  0  0
    7.0077  -12.6175   25.4331 C   0  0  0  0  0  0  0  0  0  0  0  0
    7.2353  -14.0824   25.6141 C   0  0  0  0  0  0  0  0  0  0  0  0
    7.8672  -14.7542   24.4522 C   0  0  2  0  0  0  0  0  0  0  0  0
    7.1138  -14.6731   23.2439 N   0  0  0  0  0  0  0  0  0  0  0  0
    8.4508  -16.0902   24.7474 C   0  0  0  0  0  0  0  0  0  0  0  0
    7.7175  -17.0892   24.7400 O   0  0  0  0  0  0  0  0  0  0  0  0
   12.0142  -16.1815   22.8455 N   0  0  0  0  0  0  0  0  0  0  0  0
   11.5314  -17.4556   23.2034 C   0  0  0  0  0  0  0  0  0  0  0  0
   11.0908  -18.1821   22.2621 O   0  0  0  0  0  0  0  0  0  0  0  0
   11.4877  -18.0242   24.5523 C   0  0  0  0  0  0  0  0  0  0  0  0
   10.3306  -17.5797   25.3834 C   0  0  2  0  0  0  0  0  0  0  0  0
    9.8235  -16.2769   25.0408 N   0  0  0  0  0  0  0  0  0  0  0  0
   10.7102  -17.6482   26.8343 C   0  0  0  0  0  0  0  0  0  0  0  0
   10.5527  -16.6534   27.5846 O   0  0  0  0  0  0  0  0  0  0  0  0
   11.2450  -18.7979   27.4045 O   0  0  0  0  0  0  0  0  0  0  0  0
  1  2  1  0
  2  3  1  0
  3 10  1  0
  3  4  2  0
  6  5  1  0
  7  6  1  0
  8  7  1  0
  9  8  1  1
 10  9  1  0
 11  9  1  0
 11 18  1  0
 12 11  2  0
 13 14  1  0
 14 15  2  0
 14 16  1  0
 17 16  1  6
 17 19  1  0
 18 17  1  0
 19 20  2  0
 19 21  1  0
M  END
$$$$
