GMN.pdb
     RDKit          3D

 21 20  0  0  1  0  0  0  0  0999 V2000
    8.0628  -15.3907   19.7074 N   0  0  0  0  0  0  0  0  0  0  0  0
    7.2882  -15.6644   20.8972 C   0  0  0  0  0  0  0  0  0  0  0  0
    8.0981  -15.3195   22.1319 C   0  0  0  0  0  0  0  0  0  0  0  0
    9.3433  -15.2516   22.0208 O   0  0  0  0  0  0  0  0  0  0  0  0
    6.8946  -12.1193   28.0335 C   0  0  0  0  0  0  0  0  0  0  0  0
    5.9610  -11.9613   26.4818 S   0  0  0  0  0  0  0  0  0  0  0  0
    6.8048  -12.8274   25.1276 C   0  0  0  0  0  0  0  0  0  0  0  0
    7.4271  -14.0981   25.6056 C   0  0  0  0  0  0  0  0  0  0  0  0
    8.2051  -14.8272   24.5742 C   0  0  2  0  0  0  0  0  0  0  0  0
    7.4893  -15.0811   23.3670 N   0  0  0  0  0  0  0  0  0  0  0  0
    9.0044  -15.9706   25.0902 C   0  0  0  0  0  0  0  0  0  0  0  0
    8.4891  -17.0963   25.1468 O   0  0  0  0  0  0  0  0  0  0  0  0
   13.7096  -15.3157   23.9666 N   0  0  0  0  0  0  0  0  0  0  0  0
   12.9155  -16.4282   24.3072 C   0  0  0  0  0  0  0  0  0  0  0  0
   12.4526  -17.1126   23.3452 O   0  0  0  0  0  0  0  0  0  0  0  0
   12.5716  -16.8728   25.6595 C   0  0  0  0  0  0  0  0  0  0  0  0
   11.1082  -16.9827   25.9307 C   0  0  2  0  0  0  0  0  0  0  0  0
   10.3446  -15.8318   25.5258 N   0  0  0  0  0  0  0  0  0  0  0  0
   10.8977  -17.2873   27.3857 C   0  0  0  0  0  0  0  0  0  0  0  0
   10.1695  -16.5497   28.0950 O   0  0  0  0  0  0  0  0  0  0  0  0
   11.4900  -18.3823   28.0044 O   0  0  0  0  0  0  0  0  0  0  0  0
  1  2  1  0
  2  3  1  0
  3 10  1  0
  3  4  2  0
  6  5  1  0
  7  6  1  0
  8  7  1  0
  9  8  1  1
 10  9  1  0
 11  9  1  0
 11 18  1  0
 12 11  2  0
 13 14  1  0
 14 15  2  0
 14 16  1  0
 17 16  1  1
 17 19  1  0
 18 17  1  0
 19 20  2  0
 19 21  1  0
M  END
$$$$
