GMN.pdb
     RDKit          3D

 21 20  0  0  1  0  0  0  0  0999 V2000
    8.0190  -14.9880   19.5925 N   0  0  0  0  0  0  0  0  0  0  0  0
    7.1705  -15.2240   20.7392 C   0  0  0  0  0  0  0  0  0  0  0  0
    7.9685  -15.0508   22.0170 C   0  0  0  0  0  0  0  0  0  0  0  0
    9.2172  -15.0161   21.9327 O   0  0  0  0  0  0  0  0  0  0  0  0
    5.9939  -10.2799   26.6244 C   0  0  0  0  0  0  0  0  0  0  0  0
    6.1779  -12.0770   26.8273 S   0  0  0  0  0  0  0  0  0  0  0  0
    6.9934  -12.8115   25.3812 C   0  0  0  0  0  0  0  0  0  0  0  0
    7.3023  -14.2544   25.6117 C   0  0  0  0  0  0  0  0  0  0  0  0
    8.0433  -14.9084   24.5055 C   0  0  2  0  0  0  0  0  0  0  0  0
    7.3452  -14.9315   23.2620 N   0  0  0  0  0  0  0  0  0  0  0  0
    8.7208  -16.1797   24.8763 C   0  0  0  0  0  0  0  0  0  0  0  0
    8.0719  -17.2355   24.8814 O   0  0  0  0  0  0  0  0  0  0  0  0
   11.3452  -17.8764   22.7638 N   0  0  0  0  0  0  0  0  0  0  0  0
   12.3134  -17.6243   23.7555 C   0  0  0  0  0  0  0  0  0  0  0  0
   13.4816  -17.3417   23.3513 O   0  0  0  0  0  0  0  0  0  0  0  0
   12.1057  -17.6558   25.2048 C   0  0  0  0  0  0  0  0  0  0  0  0
   10.6884  -17.4846   25.6395 C   0  0  2  0  0  0  0  0  0  0  0  0
   10.0909  -16.2412   25.2286 N   0  0  0  0  0  0  0  0  0  0  0  0
   10.6044  -17.6594   27.1282 C   0  0  0  0  0  0  0  0  0  0  0  0
   10.9215  -18.7505   27.6633 O   0  0  0  0  0  0  0  0  0  0  0  0
   10.1785  -16.6375   27.9692 O   0  0  0  0  0  0  0  0  0  0  0  0
  1  2  1  0
  2  3  1  0
  3 10  1  0
  3  4  2  0
  6  5  1  0
  7  6  1  0
  8  7  1  0
  9  8  1  1
 10  9  1  0
 11  9  1  0
 11 18  1  0
 12 11  2  0
 13 14  1  0
 14 15  2  0
 14 16  1  0
 17 16  1  1
 17 19  1  0
 18 17  1  0
 19 20  2  0
 19 21  1  0
M  END
$$$$
