GMN.pdb
     RDKit          3D

 21 20  0  0  1  0  0  0  0  0999 V2000
    8.1012  -12.9668   19.2843 N   0  0  0  0  0  0  0  0  0  0  0  0
    7.1562  -13.4893   20.2459 C   0  0  0  0  0  0  0  0  0  0  0  0
    7.8542  -13.7519   21.5663 C   0  0  0  0  0  0  0  0  0  0  0  0
    9.0949  -13.9195   21.5548 O   0  0  0  0  0  0  0  0  0  0  0  0
    6.1652   -9.9924   27.0453 C   0  0  0  0  0  0  0  0  0  0  0  0
    6.3233  -11.8009   26.9516 S   0  0  0  0  0  0  0  0  0  0  0  0
    6.8120  -12.3223   25.2827 C   0  0  0  0  0  0  0  0  0  0  0  0
    6.9934  -13.8031   25.2122 C   0  0  0  0  0  0  0  0  0  0  0  0
    7.7028  -14.2782   23.9991 C   0  0  2  0  0  0  0  0  0  0  0  0
    7.1491  -13.8085   22.7714 N   0  0  0  0  0  0  0  0  0  0  0  0
    8.0724  -15.7188   24.0183 C   0  0  0  0  0  0  0  0  0  0  0  0
    7.4896  -16.5062   23.2592 O   0  0  0  0  0  0  0  0  0  0  0  0
   13.2988  -17.2316   22.8353 N   0  0  0  0  0  0  0  0  0  0  0  0
   11.9086  -17.3622   22.6488 C   0  0  0  0  0  0  0  0  0  0  0  0
   11.5203  -18.3254   21.9212 O   0  0  0  0  0  0  0  0  0  0  0  0
   10.8685  -16.4979   23.2107 C   0  0  0  0  0  0  0  0  0  0  0  0
   10.1148  -17.0867   24.3564 C   0  0  2  0  0  0  0  0  0  0  0  0
    9.0723  -16.2403   24.8747 N   0  0  0  0  0  0  0  0  0  0  0  0
   11.0829  -17.4756   25.4359 C   0  0  0  0  0  0  0  0  0  0  0  0
   11.6934  -18.5719   25.3834 O   0  0  0  0  0  0  0  0  0  0  0  0
   11.3436  -16.6529   26.5259 O   0  0  0  0  0  0  0  0  0  0  0  0
  1  2  1  0
  2  3  1  0
  3 10  1  0
  3  4  2  0
  6  5  1  0
  7  6  1  0
  8  7  1  0
  9  8  1  1
 10  9  1  0
 11  9  1  0
 11 18  1  0
 12 11  2  0
 13 14  1  0
 14 15  2  0
 14 16  1  0
 17 16  1  6
 17 19  1  0
 18 17  1  0
 19 20  2  0
 19 21  1  0
M  END
$$$$
