GMN.pdb
     RDKit          3D

 21 20  0  0  1  0  0  0  0  0999 V2000
    7.6332  -16.4772   19.0544 N   0  0  0  0  0  0  0  0  0  0  0  0
    6.8736  -16.5464   20.2827 C   0  0  0  0  0  0  0  0  0  0  0  0
    7.6371  -15.8647   21.4016 C   0  0  0  0  0  0  0  0  0  0  0  0
    8.8419  -15.5844   21.2084 O   0  0  0  0  0  0  0  0  0  0  0  0
    6.9550  -10.6897   27.0203 C   0  0  0  0  0  0  0  0  0  0  0  0
    6.3130  -12.2993   26.4711 S   0  0  0  0  0  0  0  0  0  0  0  0
    7.4354  -13.0676   25.2687 C   0  0  0  0  0  0  0  0  0  0  0  0
    6.8686  -14.3452   24.7423 C   0  0  0  0  0  0  0  0  0  0  0  0
    7.7296  -15.0376   23.7523 C   0  0  2  0  0  0  0  0  0  0  0  0
    7.0298  -15.5506   22.6203 N   0  0  0  0  0  0  0  0  0  0  0  0
    8.7419  -15.9545   24.3413 C   0  0  0  0  0  0  0  0  0  0  0  0
    8.4618  -17.1520   24.4941 O   0  0  0  0  0  0  0  0  0  0  0  0
   14.1195  -17.5933   23.5610 N   0  0  0  0  0  0  0  0  0  0  0  0
   13.5659  -16.8313   24.6086 C   0  0  0  0  0  0  0  0  0  0  0  0
   14.0865  -16.9781   25.7555 O   0  0  0  0  0  0  0  0  0  0  0  0
   12.4507  -15.8878   24.5054 C   0  0  0  0  0  0  0  0  0  0  0  0
   11.1162  -16.4521   24.8628 C   0  0  2  0  0  0  0  0  0  0  0  0
   10.0282  -15.5177   24.7412 N   0  0  0  0  0  0  0  0  0  0  0  0
   11.1800  -17.0312   26.2465 C   0  0  0  0  0  0  0  0  0  0  0  0
   11.9461  -17.9928   26.5030 O   0  0  0  0  0  0  0  0  0  0  0  0
   10.4061  -16.5372   27.2905 O   0  0  0  0  0  0  0  0  0  0  0  0
  1  2  1  0
  2  3  1  0
  3 10  1  0
  3  4  2  0
  6  5  1  0
  7  6  1  0
  8  7  1  0
  9  8  1  1
 10  9  1  0
 11  9  1  0
 11 18  1  0
 12 11  2  0
 13 14  1  0
 14 15  2  0
 14 16  1  0
 17 16  1  1
 17 19  1  0
 18 17  1  0
 19 20  2  0
 19 21  1  0
M  END
$$$$
