LGY.pdb
     RDKit          3D

 25 25  0  0  1  0  0  0  0  0999 V2000
    7.3907  -13.4589   22.6146 C   0  0  0  0  0  0  0  0  0  0  0  0
    8.0596  -13.6110   21.2726 C   0  0  2  0  0  0  0  0  0  0  0  0
    7.7031  -12.4500   20.3854 C   0  0  0  0  0  0  0  0  0  0  0  0
    7.9233  -14.9490   20.6477 C   0  0  0  0  0  0  0  0  0  0  0  0
    8.3444  -16.1187   21.4662 C   0  0  2  0  0  0  0  0  0  0  0  0
    7.5188  -16.3950   22.5983 N   0  0  0  0  0  0  0  0  0  0  0  0
    9.7661  -16.0840   21.9011 C   0  0  0  0  0  0  0  0  0  0  0  0
   10.7134  -16.1355   21.0459 O   0  0  0  0  0  0  0  0  0  0  0  0
   10.1636  -15.9941   23.2677 N   0  0  0  0  0  0  0  0  0  0  0  0
   11.5078  -15.8831   23.7182 C   0  0  0  0  0  0  0  0  0  0  0  0
   11.6926  -15.7945   25.1811 C   0  0  0  0  0  0  0  0  0  0  0  0
   12.8868  -15.7246   25.5765 O   0  0  0  0  0  0  0  0  0  0  0  0
    5.8034  -12.3924   25.2576 O   0  0  0  0  0  0  0  0  0  0  0  0
    6.8916  -12.8918   25.9734 C   0  0  0  0  0  0  0  0  0  0  0  0
    8.1413  -12.3492   25.8585 C   0  0  0  0  0  0  0  0  0  0  0  0
    9.1915  -12.8713   26.5831 C   0  0  0  0  0  0  0  0  0  0  0  0
    9.0595  -13.9399   27.4445 C   0  0  0  0  0  0  0  0  0  0  0  0
   10.1717  -14.5220   28.2415 C   0  0  0  0  0  0  0  0  0  0  0  0
   10.8986  -15.6220   27.5732 C   0  0  2  0  0  0  0  0  0  0  0  0
   10.7030  -15.7776   26.1680 N   0  0  0  0  0  0  0  0  0  0  0  0
   10.5535  -16.8926   28.2554 C   0  0  0  0  0  0  0  0  0  0  0  0
   10.0045  -17.7889   27.5649 O   0  0  0  0  0  0  0  0  0  0  0  0
    7.7634  -14.4647   27.5317 C   0  0  0  0  0  0  0  0  0  0  0  0
    6.7115  -13.9588   26.8202 C   0  0  0  0  0  0  0  0  0  0  0  0
   10.8041  -17.1289   29.5891 O   0  0  0  0  0  0  0  0  0  0  0  0
  2  1  1  1
  2  4  1  0
  3  2  1  0
  4  5  1  0
  5  6  1  1
  7  8  2  0
  7  5  1  0
  9  7  1  0
 10  9  1  0
 11 10  1  0
 11 20  1  0
 12 11  2  0
 13 14  1  0
 14 15  2  0
 15 16  1  0
 17 16  2  0
 17 18  1  0
 19 18  1  1
 19 20  1  0
 19 21  1  0
 21 25  1  0
 22 21  2  0
 23 17  1  0
 24 14  1  0
 24 23  2  0
M  END
$$$$
