LGY.pdb
     RDKit          3D

 25 25  0  0  1  0  0  0  0  0999 V2000
    6.5702  -14.4275   19.6916 C   0  0  0  0  0  0  0  0  0  0  0  0
    7.4562  -13.5992   20.5864 C   0  0  2  0  0  0  0  0  0  0  0  0
    7.4679  -12.1700   20.1183 C   0  0  0  0  0  0  0  0  0  0  0  0
    8.7899  -14.1827   20.8687 C   0  0  0  0  0  0  0  0  0  0  0  0
    8.8139  -15.5018   21.5579 C   0  0  2  0  0  0  0  0  0  0  0  0
    7.8105  -15.6814   22.5582 N   0  0  0  0  0  0  0  0  0  0  0  0
   10.1365  -15.8732   22.1273 C   0  0  0  0  0  0  0  0  0  0  0  0
   11.1299  -16.1246   21.3647 O   0  0  0  0  0  0  0  0  0  0  0  0
   10.3844  -15.9736   23.5281 N   0  0  0  0  0  0  0  0  0  0  0  0
   11.6340  -16.3225   24.1101 C   0  0  0  0  0  0  0  0  0  0  0  0
   11.7090  -16.2271   25.5822 C   0  0  0  0  0  0  0  0  0  0  0  0
   12.8378  -16.4678   26.0874 O   0  0  0  0  0  0  0  0  0  0  0  0
    5.9052  -12.3801   25.2287 O   0  0  0  0  0  0  0  0  0  0  0  0
    6.9745  -12.8541   25.9887 C   0  0  0  0  0  0  0  0  0  0  0  0
    8.2199  -12.2953   25.9095 C   0  0  0  0  0  0  0  0  0  0  0  0
    9.2513  -12.7925   26.6773 C   0  0  0  0  0  0  0  0  0  0  0  0
    9.1042  -13.8511   27.5484 C   0  0  0  0  0  0  0  0  0  0  0  0
   10.1960  -14.4063   28.3916 C   0  0  0  0  0  0  0  0  0  0  0  0
   10.8071  -15.6470   27.8698 C   0  0  2  0  0  0  0  0  0  0  0  0
   10.6806  -15.9013   26.4710 N   0  0  0  0  0  0  0  0  0  0  0  0
   10.2506  -16.7957   28.6246 C   0  0  0  0  0  0  0  0  0  0  0  0
   10.3858  -16.7860   29.8748 O   0  0  0  0  0  0  0  0  0  0  0  0
    7.8133  -14.3932   27.5981 C   0  0  0  0  0  0  0  0  0  0  0  0
    6.7799  -13.9121   26.8436 C   0  0  0  0  0  0  0  0  0  0  0  0
    9.6036  -17.8539   28.0255 O   0  0  0  0  0  0  0  0  0  0  0  0
  2  1  1  6
  2  4  1  0
  3  2  1  0
  4  5  1  0
  5  6  1  1
  7  8  2  0
  7  5  1  0
  9  7  1  0
 10  9  1  0
 11 10  1  0
 11 20  1  0
 12 11  2  0
 13 14  1  0
 14 15  2  0
 15 16  1  0
 17 16  2  0
 17 18  1  0
 19 18  1  1
 19 20  1  0
 19 21  1  0
 21 25  1  0
 22 21  2  0
 23 17  1  0
 24 14  1  0
 24 23  2  0
M  END
$$$$
