LGY.pdb
     RDKit          3D

 25 25  0  0  1  0  0  0  0  0999 V2000
    6.0165  -12.1569   26.7296 C   0  0  0  0  0  0  0  0  0  0  0  0
    6.5609  -13.0106   25.6132 C   0  0  2  0  0  0  0  0  0  0  0  0
    7.1484  -12.1384   24.5381 C   0  0  0  0  0  0  0  0  0  0  0  0
    5.6502  -14.0781   25.1337 C   0  0  0  0  0  0  0  0  0  0  0  0
    6.2722  -15.3833   24.7802 C   0  0  2  0  0  0  0  0  0  0  0  0
    7.0471  -15.9860   25.8174 N   0  0  0  0  0  0  0  0  0  0  0  0
    7.0734  -15.3626   23.5276 C   0  0  0  0  0  0  0  0  0  0  0  0
    6.5709  -14.9281   22.4366 O   0  0  0  0  0  0  0  0  0  0  0  0
    8.4239  -15.8150   23.4557 N   0  0  0  0  0  0  0  0  0  0  0  0
    9.2791  -15.6476   22.3320 C   0  0  0  0  0  0  0  0  0  0  0  0
   10.6619  -16.1407   22.4947 C   0  0  0  0  0  0  0  0  0  0  0  0
   10.9773  -17.1265   21.7763 O   0  0  0  0  0  0  0  0  0  0  0  0
   10.9708  -15.5939   31.1792 O   0  0  0  0  0  0  0  0  0  0  0  0
   10.8384  -15.5578   29.7910 C   0  0  0  0  0  0  0  0  0  0  0  0
   10.8244  -14.3793   29.0978 C   0  0  0  0  0  0  0  0  0  0  0  0
   10.6916  -14.3854   27.7256 C   0  0  0  0  0  0  0  0  0  0  0  0
   10.5680  -15.5401   26.9823 C   0  0  0  0  0  0  0  0  0  0  0  0
   10.4273  -15.5785   25.5025 C   0  0  0  0  0  0  0  0  0  0  0  0
   11.6970  -15.7578   24.7673 C   0  0  2  0  0  0  0  0  0  0  0  0
   11.6525  -15.6421   23.3454 N   0  0  0  0  0  0  0  0  0  0  0  0
   12.2647  -17.0789   25.1297 C   0  0  0  0  0  0  0  0  0  0  0  0
   13.3639  -17.0880   25.7404 O   0  0  0  0  0  0  0  0  0  0  0  0
   10.5871  -16.7237   27.7318 C   0  0  0  0  0  0  0  0  0  0  0  0
   10.7180  -16.7349   29.0925 C   0  0  0  0  0  0  0  0  0  0  0  0
   11.6503  -18.2751   24.8312 O   0  0  0  0  0  0  0  0  0  0  0  0
  2  1  1  1
  2  4  1  0
  3  2  1  0
  4  5  1  0
  5  6  1  1
  7  8  2  0
  7  5  1  0
  9  7  1  0
 10  9  1  0
 11 10  1  0
 11 20  1  0
 12 11  2  0
 13 14  1  0
 14 15  2  0
 15 16  1  0
 17 16  2  0
 17 18  1  0
 19 18  1  6
 19 20  1  0
 19 21  1  0
 21 25  1  0
 22 21  2  0
 23 17  1  0
 24 14  1  0
 24 23  2  0
M  END
$$$$
