LGY.pdb
     RDKit          3D

 25 25  0  0  1  0  0  0  0  0999 V2000
    7.2409  -13.3180   18.3916 C   0  0  0  0  0  0  0  0  0  0  0  0
    7.4639  -13.5530   19.8635 C   0  0  2  0  0  0  0  0  0  0  0  0
    8.2361  -12.4066   20.4564 C   0  0  0  0  0  0  0  0  0  0  0  0
    7.9649  -14.9029   20.2182 C   0  0  0  0  0  0  0  0  0  0  0  0
    7.7212  -15.3652   21.6119 C   0  0  2  0  0  0  0  0  0  0  0  0
    7.4636  -14.3273   22.5584 N   0  0  0  0  0  0  0  0  0  0  0  0
    8.7749  -16.2637   22.1539 C   0  0  0  0  0  0  0  0  0  0  0  0
    8.8421  -17.4866   21.7914 O   0  0  0  0  0  0  0  0  0  0  0  0
    9.7595  -15.8365   23.0930 N   0  0  0  0  0  0  0  0  0  0  0  0
   10.7576  -16.6739   23.6628 C   0  0  0  0  0  0  0  0  0  0  0  0
   10.8569  -16.6482   25.1363 C   0  0  0  0  0  0  0  0  0  0  0  0
   12.0136  -16.4669   25.6017 O   0  0  0  0  0  0  0  0  0  0  0  0
    6.4616  -11.6197   25.4094 O   0  0  0  0  0  0  0  0  0  0  0  0
    7.0574  -12.6759   26.0989 C   0  0  0  0  0  0  0  0  0  0  0  0
    8.1934  -12.5041   26.8402 C   0  0  0  0  0  0  0  0  0  0  0  0
    8.7523  -13.5732   27.5075 C   0  0  0  0  0  0  0  0  0  0  0  0
    8.2230  -14.8460   27.4752 C   0  0  0  0  0  0  0  0  0  0  0  0
    8.8006  -16.0170   28.1869 C   0  0  0  0  0  0  0  0  0  0  0  0
    9.9229  -16.6732   27.4836 C   0  0  2  0  0  0  0  0  0  0  0  0
    9.8235  -16.7985   26.0654 N   0  0  0  0  0  0  0  0  0  0  0  0
   10.1248  -18.0171   28.0771 C   0  0  0  0  0  0  0  0  0  0  0  0
   10.4404  -18.0706   29.2932 O   0  0  0  0  0  0  0  0  0  0  0  0
    7.0603  -14.9771   26.7046 C   0  0  0  0  0  0  0  0  0  0  0  0
    6.4937  -13.9274   26.0369 C   0  0  0  0  0  0  0  0  0  0  0  0
    9.9840  -19.1883   27.3659 O   0  0  0  0  0  0  0  0  0  0  0  0
  2  1  1  6
  2  4  1  0
  3  2  1  0
  4  5  1  0
  5  6  1  1
  7  8  2  0
  7  5  1  0
  9  7  1  0
 10  9  1  0
 11 10  1  0
 11 20  1  0
 12 11  2  0
 13 14  1  0
 14 15  2  0
 15 16  1  0
 17 16  2  0
 17 18  1  0
 19 18  1  1
 19 20  1  0
 19 21  1  0
 21 25  1  0
 22 21  2  0
 23 17  1  0
 24 14  1  0
 24 23  2  0
M  END
$$$$
