LGY.pdb
     RDKit          3D

 25 25  0  0  1  0  0  0  0  0999 V2000
    7.6896  -14.2457   18.1715 C   0  0  0  0  0  0  0  0  0  0  0  0
    7.8674  -13.7674   19.5896 C   0  0  2  0  0  0  0  0  0  0  0  0
    7.5077  -12.3106   19.6903 C   0  0  0  0  0  0  0  0  0  0  0  0
    9.1514  -14.1468   20.2271 C   0  0  0  0  0  0  0  0  0  0  0  0
    9.3864  -15.5993   20.4522 C   0  0  2  0  0  0  0  0  0  0  0  0
    8.2106  -16.4098   20.4577 N   0  0  0  0  0  0  0  0  0  0  0  0
   10.1942  -15.9105   21.6613 C   0  0  0  0  0  0  0  0  0  0  0  0
   11.4689  -15.9658   21.6003 O   0  0  0  0  0  0  0  0  0  0  0  0
    9.6195  -16.1637   22.9417 N   0  0  0  0  0  0  0  0  0  0  0  0
   10.3575  -16.4625   24.1199 C   0  0  0  0  0  0  0  0  0  0  0  0
    9.5576  -16.7068   25.3374 C   0  0  0  0  0  0  0  0  0  0  0  0
   10.2166  -16.8766   26.3977 O   0  0  0  0  0  0  0  0  0  0  0  0
   12.0664  -15.4489   30.2768 O   0  0  0  0  0  0  0  0  0  0  0  0
   11.0683  -15.1915   29.3369 C   0  0  0  0  0  0  0  0  0  0  0  0
   11.0443  -14.0348   28.6082 C   0  0  0  0  0  0  0  0  0  0  0  0
   10.0406  -13.8173   27.6885 C   0  0  0  0  0  0  0  0  0  0  0  0
    9.0264  -14.7197   27.4474 C   0  0  0  0  0  0  0  0  0  0  0  0
    7.9335  -14.5149   26.4601 C   0  0  0  0  0  0  0  0  0  0  0  0
    7.3030  -15.7596   25.9719 C   0  0  2  0  0  0  0  0  0  0  0  0
    8.1656  -16.7685   25.4474 N   0  0  0  0  0  0  0  0  0  0  0  0
    6.2941  -15.4015   24.9459 C   0  0  0  0  0  0  0  0  0  0  0  0
    5.2971  -14.7346   25.3235 O   0  0  0  0  0  0  0  0  0  0  0  0
    9.0894  -15.8900   28.2151 C   0  0  0  0  0  0  0  0  0  0  0  0
   10.0776  -16.1209   29.1311 C   0  0  0  0  0  0  0  0  0  0  0  0
    6.4005  -15.7617   23.6207 O   0  0  0  0  0  0  0  0  0  0  0  0
  2  1  1  6
  2  4  1  0
  3  2  1  0
  4  5  1  0
  5  6  1  1
  7  8  2  0
  7  5  1  0
  9  7  1  0
 10  9  1  0
 11 10  1  0
 11 20  1  0
 12 11  2  0
 13 14  1  0
 14 15  2  0
 15 16  1  0
 17 16  2  0
 17 18  1  0
 19 18  1  6
 19 20  1  0
 19 21  1  0
 21 25  1  0
 22 21  2  0
 23 17  1  0
 24 14  1  0
 24 23  2  0
M  END
$$$$
