LGY.pdb
     RDKit          3D

 25 25  0  0  1  0  0  0  0  0999 V2000
    7.4298  -12.1520   19.2885 C   0  0  0  0  0  0  0  0  0  0  0  0
    7.1982  -13.4670   19.9876 C   0  0  2  0  0  0  0  0  0  0  0  0
    7.0159  -13.2402   21.4631 C   0  0  0  0  0  0  0  0  0  0  0  0
    8.1462  -14.5489   19.6269 C   0  0  0  0  0  0  0  0  0  0  0  0
    7.6446  -15.9459   19.7369 C   0  0  2  0  0  0  0  0  0  0  0  0
    6.3627  -16.0831   20.3512 N   0  0  0  0  0  0  0  0  0  0  0  0
    8.5943  -16.8902   20.3833 C   0  0  0  0  0  0  0  0  0  0  0  0
    9.7839  -17.0284   19.9391 O   0  0  0  0  0  0  0  0  0  0  0  0
    8.2543  -17.6889   21.5148 N   0  0  0  0  0  0  0  0  0  0  0  0
    9.1199  -18.6315   22.1347 C   0  0  0  0  0  0  0  0  0  0  0  0
   10.0322  -18.0907   23.1629 C   0  0  0  0  0  0  0  0  0  0  0  0
   10.5643  -18.9434   23.9226 O   0  0  0  0  0  0  0  0  0  0  0  0
    5.4535  -12.8486   25.4138 O   0  0  0  0  0  0  0  0  0  0  0  0
    6.6035  -13.6341   25.4939 C   0  0  0  0  0  0  0  0  0  0  0  0
    7.8460  -13.1223   25.2413 C   0  0  0  0  0  0  0  0  0  0  0  0
    8.9587  -13.9313   25.3311 C   0  0  0  0  0  0  0  0  0  0  0  0
    8.8985  -15.2664   25.6702 C   0  0  0  0  0  0  0  0  0  0  0  0
   10.0804  -16.1622   25.7787 C   0  0  0  0  0  0  0  0  0  0  0  0
   10.9368  -16.2008   24.5746 C   0  0  2  0  0  0  0  0  0  0  0  0
   10.3715  -16.7533   23.3862 N   0  0  0  0  0  0  0  0  0  0  0  0
   12.1802  -16.9366   24.9085 C   0  0  0  0  0  0  0  0  0  0  0  0
   12.7771  -16.6127   25.9670 O   0  0  0  0  0  0  0  0  0  0  0  0
    7.6072  -15.7491   25.9204 C   0  0  0  0  0  0  0  0  0  0  0  0
    6.4939  -14.9604   25.8357 C   0  0  0  0  0  0  0  0  0  0  0  0
   12.7000  -17.9416   24.1230 O   0  0  0  0  0  0  0  0  0  0  0  0
  2  1  1  6
  2  4  1  0
  3  2  1  0
  4  5  1  0
  5  6  1  1
  7  8  2  0
  7  5  1  0
  9  7  1  0
 10  9  1  0
 11 10  1  0
 11 20  1  0
 12 11  2  0
 13 14  1  0
 14 15  2  0
 15 16  1  0
 17 16  2  0
 17 18  1  0
 19 18  1  1
 19 20  1  0
 19 21  1  0
 21 25  1  0
 22 21  2  0
 23 17  1  0
 24 14  1  0
 24 23  2  0
M  END
$$$$
