LGY.pdb
     RDKit          3D

 25 25  0  0  1  0  0  0  0  0999 V2000
    9.0139  -12.4421   18.6787 C   0  0  0  0  0  0  0  0  0  0  0  0
    8.1902  -13.5403   18.0565 C   0  0  2  0  0  0  0  0  0  0  0  0
    7.3280  -12.9786   16.9598 C   0  0  0  0  0  0  0  0  0  0  0  0
    7.4916  -14.4270   19.0182 C   0  0  0  0  0  0  0  0  0  0  0  0
    8.2732  -14.8861   20.1987 C   0  0  2  0  0  0  0  0  0  0  0  0
    9.2159  -15.9258   19.9344 N   0  0  0  0  0  0  0  0  0  0  0  0
    7.4444  -15.2714   21.3718 C   0  0  0  0  0  0  0  0  0  0  0  0
    6.6636  -14.4267   21.9271 O   0  0  0  0  0  0  0  0  0  0  0  0
    7.4618  -16.5764   21.9466 N   0  0  0  0  0  0  0  0  0  0  0  0
    6.7425  -16.9620   23.1111 C   0  0  0  0  0  0  0  0  0  0  0  0
    7.4629  -16.8156   24.3923 C   0  0  0  0  0  0  0  0  0  0  0  0
    6.7377  -16.6666   25.4117 O   0  0  0  0  0  0  0  0  0  0  0  0
    5.4779  -11.1647   26.4616 O   0  0  0  0  0  0  0  0  0  0  0  0
    6.2805  -12.3021   26.5517 C   0  0  0  0  0  0  0  0  0  0  0  0
    5.7497  -13.5622   26.5445 C   0  0  0  0  0  0  0  0  0  0  0  0
    6.5765  -14.6616   26.6354 C   0  0  0  0  0  0  0  0  0  0  0  0
    7.9486  -14.5705   26.7362 C   0  0  0  0  0  0  0  0  0  0  0  0
    8.8657  -15.7371   26.8318 C   0  0  0  0  0  0  0  0  0  0  0  0
    9.5682  -16.0731   25.5753 C   0  0  2  0  0  0  0  0  0  0  0  0
    8.8449  -16.8253   24.6016 N   0  0  0  0  0  0  0  0  0  0  0  0
   10.8177  -16.7948   25.9168 C   0  0  0  0  0  0  0  0  0  0  0  0
   10.9869  -17.9314   25.4060 O   0  0  0  0  0  0  0  0  0  0  0  0
    8.4497  -13.2621   26.7399 C   0  0  0  0  0  0  0  0  0  0  0  0
    7.6437  -12.1616   26.6506 C   0  0  0  0  0  0  0  0  0  0  0  0
   11.7837  -16.2826   26.7546 O   0  0  0  0  0  0  0  0  0  0  0  0
  2  1  1  1
  2  4  1  0
  3  2  1  0
  4  5  1  0
  5  6  1  6
  7  8  2  0
  7  5  1  0
  9  7  1  0
 10  9  1  0
 11 10  1  0
 11 20  1  0
 12 11  2  0
 13 14  1  0
 14 15  2  0
 15 16  1  0
 17 16  2  0
 17 18  1  0
 19 18  1  1
 19 20  1  0
 19 21  1  0
 21 25  1  0
 22 21  2  0
 23 17  1  0
 24 14  1  0
 24 23  2  0
M  END
$$$$
