LGY.pdb
     RDKit          3D

 25 25  0  0  1  0  0  0  0  0999 V2000
    6.6257  -13.2667   20.6828 C   0  0  0  0  0  0  0  0  0  0  0  0
    7.9871  -13.6099   20.1347 C   0  0  2  0  0  0  0  0  0  0  0  0
    8.0170  -13.3784   18.6489 C   0  0  0  0  0  0  0  0  0  0  0  0
    8.5377  -14.9120   20.5826 C   0  0  0  0  0  0  0  0  0  0  0  0
    8.5306  -15.1763   22.0474 C   0  0  2  0  0  0  0  0  0  0  0  0
    8.4741  -14.0124   22.8730 N   0  0  0  0  0  0  0  0  0  0  0  0
    9.6371  -16.0508   22.5190 C   0  0  0  0  0  0  0  0  0  0  0  0
    9.7247  -17.2635   22.1278 O   0  0  0  0  0  0  0  0  0  0  0  0
   10.6524  -15.6105   23.4185 N   0  0  0  0  0  0  0  0  0  0  0  0
   11.7103  -16.4228   23.9115 C   0  0  0  0  0  0  0  0  0  0  0  0
   11.8056  -16.5357   25.3813 C   0  0  0  0  0  0  0  0  0  0  0  0
   12.9165  -16.9287   25.8270 O   0  0  0  0  0  0  0  0  0  0  0  0
    5.8827  -12.5771   25.7240 O   0  0  0  0  0  0  0  0  0  0  0  0
    7.0615  -13.0253   26.3202 C   0  0  0  0  0  0  0  0  0  0  0  0
    7.7583  -12.2552   27.2096 C   0  0  0  0  0  0  0  0  0  0  0  0
    8.9197  -12.7339   27.7777 C   0  0  0  0  0  0  0  0  0  0  0  0
    9.4413  -13.9794   27.4986 C   0  0  0  0  0  0  0  0  0  0  0  0
   10.6884  -14.5241   28.0980 C   0  0  0  0  0  0  0  0  0  0  0  0
   11.0108  -15.9096   27.6963 C   0  0  2  0  0  0  0  0  0  0  0  0
   10.8139  -16.2569   26.3260 N   0  0  0  0  0  0  0  0  0  0  0  0
   10.2301  -16.8376   28.5496 C   0  0  0  0  0  0  0  0  0  0  0  0
   10.3470  -16.7140   29.7956 O   0  0  0  0  0  0  0  0  0  0  0  0
    8.6963  -14.7343   26.5832 C   0  0  0  0  0  0  0  0  0  0  0  0
    7.5431  -14.2744   26.0110 C   0  0  0  0  0  0  0  0  0  0  0  0
    9.3972  -17.8117   28.0448 O   0  0  0  0  0  0  0  0  0  0  0  0
  2  1  1  6
  2  4  1  0
  3  2  1  0
  4  5  1  0
  5  6  1  1
  7  8  2  0
  7  5  1  0
  9  7  1  0
 10  9  1  0
 11 10  1  0
 11 20  1  0
 12 11  2  0
 13 14  1  0
 14 15  2  0
 15 16  1  0
 17 16  2  0
 17 18  1  0
 19 18  1  6
 19 20  1  0
 19 21  1  0
 21 25  1  0
 22 21  2  0
 23 17  1  0
 24 14  1  0
 24 23  2  0
M  END
$$$$
