LGY.pdb
     RDKit          3D

 25 25  0  0  1  0  0  0  0  0999 V2000
    8.0300  -12.7355   19.5334 C   0  0  0  0  0  0  0  0  0  0  0  0
    7.4801  -14.1184   19.7716 C   0  0  2  0  0  0  0  0  0  0  0  0
    6.2364  -14.3259   18.9518 C   0  0  0  0  0  0  0  0  0  0  0  0
    7.3723  -14.5179   21.1956 C   0  0  0  0  0  0  0  0  0  0  0  0
    8.5414  -14.2200   22.0673 C   0  0  2  0  0  0  0  0  0  0  0  0
    9.7098  -13.7690   21.3810 N   0  0  0  0  0  0  0  0  0  0  0  0
    8.9178  -15.3250   22.9886 C   0  0  0  0  0  0  0  0  0  0  0  0
    8.0422  -15.8848   23.7311 O   0  0  0  0  0  0  0  0  0  0  0  0
   10.2480  -15.8254   23.1070 N   0  0  0  0  0  0  0  0  0  0  0  0
   10.6485  -16.8719   23.9825 C   0  0  0  0  0  0  0  0  0  0  0  0
   10.9443  -16.4716   25.3733 C   0  0  0  0  0  0  0  0  0  0  0  0
   12.1603  -16.2736   25.6367 O   0  0  0  0  0  0  0  0  0  0  0  0
    6.2956  -11.4534   25.2505 O   0  0  0  0  0  0  0  0  0  0  0  0
    7.0518  -12.3228   26.0368 C   0  0  0  0  0  0  0  0  0  0  0  0
    8.3022  -11.9919   26.4801 C   0  0  0  0  0  0  0  0  0  0  0  0
    9.0184  -12.8788   27.2555 C   0  0  0  0  0  0  0  0  0  0  0  0
    8.5404  -14.1181   27.6252 C   0  0  0  0  0  0  0  0  0  0  0  0
    9.2872  -15.0936   28.4630 C   0  0  0  0  0  0  0  0  0  0  0  0
   10.3374  -15.8458   27.7445 C   0  0  2  0  0  0  0  0  0  0  0  0
   10.0374  -16.2870   26.4207 N   0  0  0  0  0  0  0  0  0  0  0  0
   10.7231  -17.0152   28.5707 C   0  0  0  0  0  0  0  0  0  0  0  0
   10.5754  -18.1560   28.0625 O   0  0  0  0  0  0  0  0  0  0  0  0
    7.2566  -14.4160   27.1497 C   0  0  0  0  0  0  0  0  0  0  0  0
    6.5335  -13.5481   26.3801 C   0  0  0  0  0  0  0  0  0  0  0  0
   11.2273  -16.9073   29.8480 O   0  0  0  0  0  0  0  0  0  0  0  0
  2  1  1  1
  2  4  1  0
  3  2  1  0
  4  5  1  0
  5  6  1  6
  7  8  2  0
  7  5  1  0
  9  7  1  0
 10  9  1  0
 11 10  1  0
 11 20  1  0
 12 11  2  0
 13 14  1  0
 14 15  2  0
 15 16  1  0
 17 16  2  0
 17 18  1  0
 19 18  1  1
 19 20  1  0
 19 21  1  0
 21 25  1  0
 22 21  2  0
 23 17  1  0
 24 14  1  0
 24 23  2  0
M  END
$$$$
