LGY.pdb
     RDKit          3D

 25 25  0  0  1  0  0  0  0  0999 V2000
    7.6490  -14.0627   18.9842 C   0  0  0  0  0  0  0  0  0  0  0  0
    7.4342  -13.6129   20.4066 C   0  0  2  0  0  0  0  0  0  0  0  0
    6.9888  -12.1767   20.4304 C   0  0  0  0  0  0  0  0  0  0  0  0
    8.5298  -13.9505   21.3473 C   0  0  0  0  0  0  0  0  0  0  0  0
    8.9936  -15.3648   21.3587 C   0  0  2  0  0  0  0  0  0  0  0  0
    8.0411  -16.3111   21.8452 N   0  0  0  0  0  0  0  0  0  0  0  0
   10.2893  -15.5805   22.0559 C   0  0  0  0  0  0  0  0  0  0  0  0
   11.3097  -14.8646   21.7768 O   0  0  0  0  0  0  0  0  0  0  0  0
   10.4812  -16.5759   23.0589 N   0  0  0  0  0  0  0  0  0  0  0  0
   11.6430  -16.7006   23.8694 C   0  0  0  0  0  0  0  0  0  0  0  0
   11.4218  -16.6341   25.3284 C   0  0  0  0  0  0  0  0  0  0  0  0
   12.4584  -16.4979   26.0313 O   0  0  0  0  0  0  0  0  0  0  0  0
    6.8565  -11.4301   25.3411 O   0  0  0  0  0  0  0  0  0  0  0  0
    7.2881  -12.6065   25.9541 C   0  0  0  0  0  0  0  0  0  0  0  0
    6.7723  -13.8271   25.6170 C   0  0  0  0  0  0  0  0  0  0  0  0
    7.2253  -14.9672   26.2461 C   0  0  0  0  0  0  0  0  0  0  0  0
    8.1963  -14.9565   27.2249 C   0  0  0  0  0  0  0  0  0  0  0  0
    8.7073  -16.1689   27.9179 C   0  0  0  0  0  0  0  0  0  0  0  0
   10.0136  -16.6551   27.4259 C   0  0  2  0  0  0  0  0  0  0  0  0
   10.2047  -16.7024   26.0123 N   0  0  0  0  0  0  0  0  0  0  0  0
   10.2548  -18.0034   27.9940 C   0  0  0  0  0  0  0  0  0  0  0  0
   10.2891  -18.1051   29.2470 O   0  0  0  0  0  0  0  0  0  0  0  0
    8.6968  -13.6862   27.5391 C   0  0  0  0  0  0  0  0  0  0  0  0
    8.2585  -12.5463   26.9250 C   0  0  0  0  0  0  0  0  0  0  0  0
   10.4397  -19.1290   27.2219 O   0  0  0  0  0  0  0  0  0  0  0  0
  2  1  1  6
  2  4  1  0
  3  2  1  0
  4  5  1  0
  5  6  1  1
  7  8  2  0
  7  5  1  0
  9  7  1  0
 10  9  1  0
 11 10  1  0
 11 20  1  0
 12 11  2  0
 13 14  1  0
 14 15  2  0
 15 16  1  0
 17 16  2  0
 17 18  1  0
 19 18  1  6
 19 20  1  0
 19 21  1  0
 21 25  1  0
 22 21  2  0
 23 17  1  0
 24 14  1  0
 24 23  2  0
M  END
$$$$
