LGY.pdb
     RDKit          3D

 25 25  0  0  1  0  0  0  0  0999 V2000
    7.6272  -12.7565   21.2903 C   0  0  0  0  0  0  0  0  0  0  0  0
    8.3168  -13.7380   20.3778 C   0  0  2  0  0  0  0  0  0  0  0  0
    8.3568  -13.1962   18.9754 C   0  0  0  0  0  0  0  0  0  0  0  0
    7.8577  -15.1428   20.4997 C   0  0  0  0  0  0  0  0  0  0  0  0
    7.8796  -15.7409   21.8625 C   0  0  2  0  0  0  0  0  0  0  0  0
    7.4433  -14.8754   22.9113 N   0  0  0  0  0  0  0  0  0  0  0  0
    9.1821  -16.3473   22.2461 C   0  0  0  0  0  0  0  0  0  0  0  0
    9.5355  -17.4848   21.7848 O   0  0  0  0  0  0  0  0  0  0  0  0
   10.1056  -15.7199   23.1334 N   0  0  0  0  0  0  0  0  0  0  0  0
   11.3178  -16.3045   23.5925 C   0  0  0  0  0  0  0  0  0  0  0  0
   11.4861  -16.3734   25.0584 C   0  0  0  0  0  0  0  0  0  0  0  0
   12.5652  -16.8850   25.4598 O   0  0  0  0  0  0  0  0  0  0  0  0
    5.4877  -12.3918   25.8573 O   0  0  0  0  0  0  0  0  0  0  0  0
    6.6987  -12.8878   26.3404 C   0  0  0  0  0  0  0  0  0  0  0  0
    7.2742  -14.0154   25.8238 C   0  0  0  0  0  0  0  0  0  0  0  0
    8.4723  -14.4741   26.3285 C   0  0  0  0  0  0  0  0  0  0  0  0
    9.1504  -13.8495   27.3538 C   0  0  0  0  0  0  0  0  0  0  0  0
   10.4448  -14.3178   27.9161 C   0  0  0  0  0  0  0  0  0  0  0  0
   10.9039  -15.6247   27.4000 C   0  0  2  0  0  0  0  0  0  0  0  0
   10.5941  -15.9381   26.0425 N   0  0  0  0  0  0  0  0  0  0  0  0
   10.3654  -16.6901   28.2796 C   0  0  0  0  0  0  0  0  0  0  0  0
   10.5869  -16.5883   29.5133 O   0  0  0  0  0  0  0  0  0  0  0  0
    8.5258  -12.6991   27.8533 C   0  0  0  0  0  0  0  0  0  0  0  0
    7.3381  -12.2312   27.3641 C   0  0  0  0  0  0  0  0  0  0  0  0
    9.6457  -17.7673   27.8115 O   0  0  0  0  0  0  0  0  0  0  0  0
  2  1  1  1
  2  4  1  0
  3  2  1  0
  4  5  1  0
  5  6  1  1
  7  8  2  0
  7  5  1  0
  9  7  1  0
 10  9  1  0
 11 10  1  0
 11 20  1  0
 12 11  2  0
 13 14  1  0
 14 15  2  0
 15 16  1  0
 17 16  2  0
 17 18  1  0
 19 18  1  1
 19 20  1  0
 19 21  1  0
 21 25  1  0
 22 21  2  0
 23 17  1  0
 24 14  1  0
 24 23  2  0
M  END
$$$$
