LGY.pdb
     RDKit          3D

 25 25  0  0  1  0  0  0  0  0999 V2000
    9.2002  -12.2637   19.8825 C   0  0  0  0  0  0  0  0  0  0  0  0
    8.1628  -13.2917   19.5102 C   0  0  2  0  0  0  0  0  0  0  0  0
    7.0984  -12.6620   18.6544 C   0  0  0  0  0  0  0  0  0  0  0  0
    7.6623  -14.1188   20.6347 C   0  0  0  0  0  0  0  0  0  0  0  0
    8.6849  -14.7999   21.4749 C   0  0  2  0  0  0  0  0  0  0  0  0
    9.5997  -15.6321   20.7607 N   0  0  0  0  0  0  0  0  0  0  0  0
    8.1270  -15.5663   22.6206 C   0  0  0  0  0  0  0  0  0  0  0  0
    7.2398  -15.0517   23.3821 O   0  0  0  0  0  0  0  0  0  0  0  0
    8.5318  -16.8950   22.9438 N   0  0  0  0  0  0  0  0  0  0  0  0
    8.0614  -17.6398   24.0600 C   0  0  0  0  0  0  0  0  0  0  0  0
    8.7147  -17.3473   25.3522 C   0  0  0  0  0  0  0  0  0  0  0  0
    8.3779  -18.0887   26.3135 O   0  0  0  0  0  0  0  0  0  0  0  0
    5.8130  -11.4096   26.3965 O   0  0  0  0  0  0  0  0  0  0  0  0
    6.6543  -12.4533   26.7822 C   0  0  0  0  0  0  0  0  0  0  0  0
    6.1876  -13.7249   26.9691 C   0  0  0  0  0  0  0  0  0  0  0  0
    7.0511  -14.7296   27.3507 C   0  0  0  0  0  0  0  0  0  0  0  0
    8.3986  -14.5293   27.5630 C   0  0  0  0  0  0  0  0  0  0  0  0
    9.3545  -15.5929   27.9708 C   0  0  0  0  0  0  0  0  0  0  0  0
   10.2504  -16.0624   26.8929 C   0  0  2  0  0  0  0  0  0  0  0  0
    9.6568  -16.3522   25.6276 N   0  0  0  0  0  0  0  0  0  0  0  0
   10.9742  -17.2630   27.3762 C   0  0  0  0  0  0  0  0  0  0  0  0
   10.5350  -17.8249   28.4119 O   0  0  0  0  0  0  0  0  0  0  0  0
    8.8339  -13.2131   27.3605 C   0  0  0  0  0  0  0  0  0  0  0  0
    7.9909  -12.2056   26.9823 C   0  0  0  0  0  0  0  0  0  0  0  0
   12.0872  -17.7797   26.7503 O   0  0  0  0  0  0  0  0  0  0  0  0
  2  1  1  1
  2  4  1  0
  3  2  1  0
  4  5  1  0
  5  6  1  6
  7  8  2  0
  7  5  1  0
  9  7  1  0
 10  9  1  0
 11 10  1  0
 11 20  1  0
 12 11  2  0
 13 14  1  0
 14 15  2  0
 15 16  1  0
 17 16  2  0
 17 18  1  0
 19 18  1  1
 19 20  1  0
 19 21  1  0
 21 25  1  0
 22 21  2  0
 23 17  1  0
 24 14  1  0
 24 23  2  0
M  END
$$$$
