LGY.pdb
     RDKit          3D

 25 25  0  0  1  0  0  0  0  0999 V2000
    7.7956  -13.1697   19.1759 C   0  0  0  0  0  0  0  0  0  0  0  0
    7.2318  -13.6595   20.4850 C   0  0  2  0  0  0  0  0  0  0  0  0
    6.4464  -12.5625   21.1497 C   0  0  0  0  0  0  0  0  0  0  0  0
    8.1960  -14.3669   21.3619 C   0  0  0  0  0  0  0  0  0  0  0  0
    8.9186  -15.5252   20.7691 C   0  0  2  0  0  0  0  0  0  0  0  0
    8.0858  -16.5084   20.1531 N   0  0  0  0  0  0  0  0  0  0  0  0
    9.8602  -16.2030   21.6994 C   0  0  0  0  0  0  0  0  0  0  0  0
    9.7267  -17.4425   21.9774 O   0  0  0  0  0  0  0  0  0  0  0  0
   10.9504  -15.5358   22.3319 N   0  0  0  0  0  0  0  0  0  0  0  0
   11.8283  -16.1300   23.2796 C   0  0  0  0  0  0  0  0  0  0  0  0
   11.2490  -16.4079   24.6097 C   0  0  0  0  0  0  0  0  0  0  0  0
   12.0751  -16.4928   25.5572 O   0  0  0  0  0  0  0  0  0  0  0  0
    6.7222  -10.8985   25.8144 O   0  0  0  0  0  0  0  0  0  0  0  0
    6.9932  -12.2610   25.9410 C   0  0  0  0  0  0  0  0  0  0  0  0
    6.3580  -13.1974   25.1733 C   0  0  0  0  0  0  0  0  0  0  0  0
    6.6536  -14.5350   25.3283 C   0  0  0  0  0  0  0  0  0  0  0  0
    7.5782  -15.0056   26.2365 C   0  0  0  0  0  0  0  0  0  0  0  0
    7.9207  -16.4405   26.4235 C   0  0  0  0  0  0  0  0  0  0  0  0
    9.3520  -16.7612   26.2404 C   0  0  2  0  0  0  0  0  0  0  0  0
    9.9011  -16.5838   24.9350 N   0  0  0  0  0  0  0  0  0  0  0  0
    9.5770  -18.1606   26.6761 C   0  0  0  0  0  0  0  0  0  0  0  0
    9.9152  -18.9928   25.7961 O   0  0  0  0  0  0  0  0  0  0  0  0
    8.2047  -14.0131   27.0016 C   0  0  0  0  0  0  0  0  0  0  0  0
    7.9231  -12.6829   26.8603 C   0  0  0  0  0  0  0  0  0  0  0  0
    9.4340  -18.5804   27.9802 O   0  0  0  0  0  0  0  0  0  0  0  0
  2  1  1  6
  2  4  1  0
  3  2  1  0
  4  5  1  0
  5  6  1  1
  7  8  2  0
  7  5  1  0
  9  7  1  0
 10  9  1  0
 11 10  1  0
 11 20  1  0
 12 11  2  0
 13 14  1  0
 14 15  2  0
 15 16  1  0
 17 16  2  0
 17 18  1  0
 19 18  1  6
 19 20  1  0
 19 21  1  0
 21 25  1  0
 22 21  2  0
 23 17  1  0
 24 14  1  0
 24 23  2  0
M  END
$$$$
