LGY.pdb
     RDKit          3D

 25 25  0  0  1  0  0  0  0  0999 V2000
    5.4081  -12.6313   26.3387 C   0  0  0  0  0  0  0  0  0  0  0  0
    6.9117  -12.7324   26.3131 C   0  0  2  0  0  0  0  0  0  0  0  0
    7.5200  -11.5214   26.9653 C   0  0  0  0  0  0  0  0  0  0  0  0
    7.4968  -13.1053   25.0025 C   0  0  0  0  0  0  0  0  0  0  0  0
    7.0564  -14.3995   24.4140 C   0  0  2  0  0  0  0  0  0  0  0  0
    6.6561  -15.3909   25.3608 N   0  0  0  0  0  0  0  0  0  0  0  0
    8.0267  -15.0032   23.4624 C   0  0  0  0  0  0  0  0  0  0  0  0
    8.6317  -14.2818   22.5991 O   0  0  0  0  0  0  0  0  0  0  0  0
    8.3427  -16.3937   23.4448 N   0  0  0  0  0  0  0  0  0  0  0  0
    9.2845  -17.0029   22.5709 C   0  0  0  0  0  0  0  0  0  0  0  0
   10.6841  -17.0217   23.0428 C   0  0  0  0  0  0  0  0  0  0  0  0
   11.5484  -16.6598   22.2006 O   0  0  0  0  0  0  0  0  0  0  0  0
    9.0961  -13.9150   29.2192 O   0  0  0  0  0  0  0  0  0  0  0  0
    9.9682  -14.7068   28.4719 C   0  0  0  0  0  0  0  0  0  0  0  0
   10.3629  -14.3536   27.2113 C   0  0  0  0  0  0  0  0  0  0  0  0
   11.2264  -15.1631   26.5045 C   0  0  0  0  0  0  0  0  0  0  0  0
   11.7347  -16.3443   27.0022 C   0  0  0  0  0  0  0  0  0  0  0  0
   12.6699  -17.2356   26.2658 C   0  0  0  0  0  0  0  0  0  0  0  0
   12.4866  -17.2439   24.7991 C   0  0  2  0  0  0  0  0  0  0  0  0
   11.1551  -17.3899   24.3062 N   0  0  0  0  0  0  0  0  0  0  0  0
   13.3364  -18.3164   24.2277 C   0  0  0  0  0  0  0  0  0  0  0  0
   14.5791  -18.2200   24.3946 O   0  0  0  0  0  0  0  0  0  0  0  0
   11.3047  -16.6677   28.2958 C   0  0  0  0  0  0  0  0  0  0  0  0
   10.4490  -15.8761   29.0098 C   0  0  0  0  0  0  0  0  0  0  0  0
   12.8318  -19.3945   23.5345 O   0  0  0  0  0  0  0  0  0  0  0  0
  2  1  1  6
  2  4  1  0
  3  2  1  0
  4  5  1  0
  5  6  1  1
  7  8  2  0
  7  5  1  0
  9  7  1  0
 10  9  1  0
 11 10  1  0
 11 20  1  0
 12 11  2  0
 13 14  1  0
 14 15  2  0
 15 16  1  0
 17 16  2  0
 17 18  1  0
 19 18  1  1
 19 20  1  0
 19 21  1  0
 21 25  1  0
 22 21  2  0
 23 17  1  0
 24 14  1  0
 24 23  2  0
M  END
$$$$
