LGY.pdb
     RDKit          3D

 25 25  0  0  1  0  0  0  0  0999 V2000
    9.1967  -13.2330   20.1012 C   0  0  0  0  0  0  0  0  0  0  0  0
    7.8453  -13.6145   19.5535 C   0  0  2  0  0  0  0  0  0  0  0  0
    6.9406  -12.4133   19.5328 C   0  0  0  0  0  0  0  0  0  0  0  0
    7.2522  -14.8425   20.1361 C   0  0  0  0  0  0  0  0  0  0  0  0
    8.1082  -16.0601   20.1514 C   0  0  2  0  0  0  0  0  0  0  0  0
    7.4535  -17.2559   20.5766 N   0  0  0  0  0  0  0  0  0  0  0  0
    9.3785  -15.9082   20.9095 C   0  0  0  0  0  0  0  0  0  0  0  0
   10.2654  -15.0672   20.5385 O   0  0  0  0  0  0  0  0  0  0  0  0
    9.6902  -16.6707   22.0737 N   0  0  0  0  0  0  0  0  0  0  0  0
   10.8232  -16.4580   22.9061 C   0  0  0  0  0  0  0  0  0  0  0  0
   10.5571  -16.4114   24.3583 C   0  0  0  0  0  0  0  0  0  0  0  0
   11.5195  -16.0315   25.0771 O   0  0  0  0  0  0  0  0  0  0  0  0
    6.7133  -10.8586   26.1534 O   0  0  0  0  0  0  0  0  0  0  0  0
    7.0318  -12.2002   26.3646 C   0  0  0  0  0  0  0  0  0  0  0  0
    8.2632  -12.5872   26.8156 C   0  0  0  0  0  0  0  0  0  0  0  0
    8.5394  -13.9235   27.0120 C   0  0  0  0  0  0  0  0  0  0  0  0
    7.6250  -14.9281   26.7757 C   0  0  0  0  0  0  0  0  0  0  0  0
    7.8923  -16.3763   26.9816 C   0  0  0  0  0  0  0  0  0  0  0  0
    9.1796  -16.8496   26.4304 C   0  0  2  0  0  0  0  0  0  0  0  0
    9.3696  -16.7359   25.0204 N   0  0  0  0  0  0  0  0  0  0  0  0
    9.3691  -18.2639   26.8336 C   0  0  0  0  0  0  0  0  0  0  0  0
    9.4200  -18.5121   28.0654 O   0  0  0  0  0  0  0  0  0  0  0  0
    6.3774  -14.4875   26.3150 C   0  0  0  0  0  0  0  0  0  0  0  0
    6.0875  -13.1666   26.1151 C   0  0  0  0  0  0  0  0  0  0  0  0
    9.4897  -19.2990   25.9327 O   0  0  0  0  0  0  0  0  0  0  0  0
  2  1  1  1
  2  4  1  0
  3  2  1  0
  4  5  1  0
  5  6  1  1
  7  8  2  0
  7  5  1  0
  9  7  1  0
 10  9  1  0
 11 10  1  0
 11 20  1  0
 12 11  2  0
 13 14  1  0
 14 15  2  0
 15 16  1  0
 17 16  2  0
 17 18  1  0
 19 18  1  6
 19 20  1  0
 19 21  1  0
 21 25  1  0
 22 21  2  0
 23 17  1  0
 24 14  1  0
 24 23  2  0
M  END
$$$$
