LGY.pdb
     RDKit          3D

 25 25  0  0  1  0  0  0  0  0999 V2000
    7.1376  -13.7335   22.4232 C   0  0  0  0  0  0  0  0  0  0  0  0
    8.1974  -13.7516   21.3516 C   0  0  2  0  0  0  0  0  0  0  0  0
    8.0927  -12.5140   20.5035 C   0  0  0  0  0  0  0  0  0  0  0  0
    8.3131  -15.0248   20.6002 C   0  0  0  0  0  0  0  0  0  0  0  0
    8.4616  -16.2684   21.4043 C   0  0  2  0  0  0  0  0  0  0  0  0
    7.5080  -16.4281   22.4554 N   0  0  0  0  0  0  0  0  0  0  0  0
    9.8268  -16.4858   21.9525 C   0  0  0  0  0  0  0  0  0  0  0  0
   10.8615  -16.1425   21.2870 O   0  0  0  0  0  0  0  0  0  0  0  0
   10.0726  -17.0783   23.2263 N   0  0  0  0  0  0  0  0  0  0  0  0
   11.3604  -17.2798   23.7947 C   0  0  0  0  0  0  0  0  0  0  0  0
   11.5387  -16.7918   25.1774 C   0  0  0  0  0  0  0  0  0  0  0  0
   12.5425  -17.2438   25.7900 O   0  0  0  0  0  0  0  0  0  0  0  0
    5.1942  -13.0348   25.5723 O   0  0  0  0  0  0  0  0  0  0  0  0
    6.4842  -13.2491   26.0581 C   0  0  0  0  0  0  0  0  0  0  0  0
    7.0811  -12.3800   26.9286 C   0  0  0  0  0  0  0  0  0  0  0  0
    8.3579  -12.6269   27.3862 C   0  0  0  0  0  0  0  0  0  0  0  0
    9.0963  -13.7294   27.0113 C   0  0  0  0  0  0  0  0  0  0  0  0
   10.4727  -14.0242   27.4905 C   0  0  0  0  0  0  0  0  0  0  0  0
   10.9475  -15.3928   27.1964 C   0  0  2  0  0  0  0  0  0  0  0  0
   10.7295  -15.8922   25.8772 N   0  0  0  0  0  0  0  0  0  0  0  0
   10.3326  -16.3216   28.1752 C   0  0  0  0  0  0  0  0  0  0  0  0
   10.4997  -16.0689   29.3958 O   0  0  0  0  0  0  0  0  0  0  0  0
    8.4471  -14.5928   26.1191 C   0  0  0  0  0  0  0  0  0  0  0  0
    7.1818  -14.3624   25.6559 C   0  0  0  0  0  0  0  0  0  0  0  0
    9.5994  -17.4294   27.8112 O   0  0  0  0  0  0  0  0  0  0  0  0
  2  1  1  6
  2  4  1  0
  3  2  1  0
  4  5  1  0
  5  6  1  1
  7  8  2  0
  7  5  1  0
  9  7  1  0
 10  9  1  0
 11 10  1  0
 11 20  1  0
 12 11  2  0
 13 14  1  0
 14 15  2  0
 15 16  1  0
 17 16  2  0
 17 18  1  0
 19 18  1  6
 19 20  1  0
 19 21  1  0
 21 25  1  0
 22 21  2  0
 23 17  1  0
 24 14  1  0
 24 23  2  0
M  END
$$$$
