LGY.pdb
     RDKit          3D

 25 25  0  0  1  0  0  0  0  0999 V2000
    6.5652  -13.9690   19.1324 C   0  0  0  0  0  0  0  0  0  0  0  0
    7.8207  -13.3629   19.7051 C   0  0  2  0  0  0  0  0  0  0  0  0
    8.2400  -12.1753   18.8831 C   0  0  0  0  0  0  0  0  0  0  0  0
    8.9017  -14.3286   20.0176 C   0  0  0  0  0  0  0  0  0  0  0  0
    8.5768  -15.4103   20.9870 C   0  0  2  0  0  0  0  0  0  0  0  0
    7.5561  -15.0899   21.9330 N   0  0  0  0  0  0  0  0  0  0  0  0
    9.7535  -15.9589   21.7121 C   0  0  0  0  0  0  0  0  0  0  0  0
   10.4768  -16.8727   21.1891 O   0  0  0  0  0  0  0  0  0  0  0  0
   10.1483  -15.5170   23.0093 N   0  0  0  0  0  0  0  0  0  0  0  0
   11.2735  -16.0065   23.7279 C   0  0  0  0  0  0  0  0  0  0  0  0
   10.9905  -16.5692   25.0640 C   0  0  0  0  0  0  0  0  0  0  0  0
   11.9816  -16.6664   25.8357 O   0  0  0  0  0  0  0  0  0  0  0  0
    6.6274  -11.4292   25.6774 O   0  0  0  0  0  0  0  0  0  0  0  0
    6.9407  -12.7343   26.0575 C   0  0  0  0  0  0  0  0  0  0  0  0
    6.2328  -13.8097   25.5970 C   0  0  0  0  0  0  0  0  0  0  0  0
    6.5735  -15.0845   25.9961 C   0  0  0  0  0  0  0  0  0  0  0  0
    7.6157  -15.3548   26.8575 C   0  0  0  0  0  0  0  0  0  0  0  0
    8.0090  -16.7180   27.3025 C   0  0  0  0  0  0  0  0  0  0  0  0
    9.3871  -17.1108   26.9398 C   0  0  2  0  0  0  0  0  0  0  0  0
    9.7596  -17.0006   25.5664 N   0  0  0  0  0  0  0  0  0  0  0  0
    9.6107  -18.5047   27.3935 C   0  0  0  0  0  0  0  0  0  0  0  0
    9.8735  -19.3640   26.5136 O   0  0  0  0  0  0  0  0  0  0  0  0
    8.3135  -14.2251   27.3047 C   0  0  0  0  0  0  0  0  0  0  0  0
    7.9885  -12.9547   26.9186 C   0  0  0  0  0  0  0  0  0  0  0  0
    9.5441  -18.8918   28.7137 O   0  0  0  0  0  0  0  0  0  0  0  0
  2  1  1  6
  2  4  1  0
  3  2  1  0
  4  5  1  0
  5  6  1  1
  7  8  2  0
  7  5  1  0
  9  7  1  0
 10  9  1  0
 11 10  1  0
 11 20  1  0
 12 11  2  0
 13 14  1  0
 14 15  2  0
 15 16  1  0
 17 16  2  0
 17 18  1  0
 19 18  1  6
 19 20  1  0
 19 21  1  0
 21 25  1  0
 22 21  2  0
 23 17  1  0
 24 14  1  0
 24 23  2  0
M  END
$$$$
