HEW.pdb
     RDKit          3D

 34 36  0  0  1  0  0  0  0  0999 V2000
    9.9122  -15.8584   18.9733 N   0  0  0  0  0  0  0  0  0  0  0  0
    8.7990  -15.4388   19.8289 C   0  0  1  0  0  0  0  0  0  0  0  0
    7.6134  -15.1718   19.0153 C   0  0  0  0  0  0  0  0  0  0  0  0
    7.7843  -14.2349   17.8669 C   0  0  0  0  0  0  0  0  0  0  0  0
    8.9470  -13.6867   17.3982 C   0  0  0  0  0  0  0  0  0  0  0  0
    8.6806  -12.9255   16.3401 N   0  0  0  0  0  0  0  0  0  0  0  0
    7.3521  -12.9975   16.1467 C   0  0  0  0  0  0  0  0  0  0  0  0
    6.7991  -13.7922   17.0714 N   0  0  0  0  0  0  0  0  0  0  0  0
    8.6859  -16.2499   21.0510 C   0  0  0  0  0  0  0  0  0  0  0  0
    7.7133  -16.0263   21.8767 O   0  0  0  0  0  0  0  0  0  0  0  0
    9.6262  -17.2701   21.3190 N   0  0  0  0  0  0  0  0  0  0  0  0
    9.6887  -18.0657   22.4966 C   0  0  1  0  0  0  0  0  0  0  0  0
   10.0619  -19.4620   22.5104 C   0  0  0  0  0  0  0  0  0  0  0  0
   10.0018  -20.3414   21.3370 C   0  0  0  0  0  0  0  0  0  0  0  0
   10.5264  -21.7074   21.4281 C   0  0  0  0  0  0  0  0  0  0  0  0
   11.7994  -21.9213   21.4445 O   0  0  0  0  0  0  0  0  0  0  0  0
   10.1901  -17.2740   23.6866 C   0  0  0  0  0  0  0  0  0  0  0  0
   11.0699  -16.3990   23.5109 O   0  0  0  0  0  0  0  0  0  0  0  0
    9.7528  -22.8445   21.4988 O   0  0  0  0  0  0  0  0  0  0  0  0
    9.7227  -17.4597   25.0077 N   0  0  0  0  0  0  0  0  0  0  0  0
   10.2751  -16.6934   26.1287 C   0  0  1  0  0  0  0  0  0  0  0  0
    9.8833  -15.2670   25.8709 C   0  0  0  0  0  0  0  0  0  0  0  0
    8.4665  -14.9373   26.0052 C   0  0  0  0  0  0  0  0  0  0  0  0
    7.4213  -15.8355   25.9167 C   0  0  0  0  0  0  0  0  0  0  0  0
    6.2696  -15.1652   26.0594 N   0  0  0  0  0  0  0  0  0  0  0  0
    6.5320  -13.8384   26.2418 C   0  0  0  0  0  0  0  0  0  0  0  0
    5.7440  -12.7370   26.4468 C   0  0  0  0  0  0  0  0  0  0  0  0
    6.2980  -11.4860   26.6218 C   0  0  0  0  0  0  0  0  0  0  0  0
    7.6683  -11.3405   26.5901 C   0  0  0  0  0  0  0  0  0  0  0  0
    8.4607  -12.4248   26.3870 C   0  0  0  0  0  0  0  0  0  0  0  0
    7.9096  -13.6953   26.2080 C   0  0  0  0  0  0  0  0  0  0  0  0
    9.9348  -17.2221   27.4337 C   0  0  0  0  0  0  0  0  0  0  0  0
   10.4133  -16.7230   28.6437 O   0  0  0  0  0  0  0  0  0  0  0  0
    9.1507  -18.2044   27.4992 O   0  0  0  0  0  0  0  0  0  0  0  0
  2  1  1  6
  2  9  1  0
  2  3  1  0
  3  4  1  0
  4  5  2  0
  5  6  1  0
  7  6  1  0
  8  4  1  0
  8  7  2  0
  9 10  2  0
 11 12  1  0
 11  9  1  0
 12 13  1  6
 13 14  1  0
 14 15  1  0
 15 16  2  0
 15 19  1  0
 17 12  1  0
 18 17  2  0
 20 17  1  0
 21 22  1  1
 21 20  1  0
 22 23  1  0
 23 31  1  0
 24 23  2  0
 24 25  1  0
 25 26  1  0
 26 27  1  0
 27 28  2  0
 29 28  1  0
 30 29  2  0
 31 26  2  0
 31 30  1  0
 32 33  1  0
 32 21  1  0
 34 32  2  0
M  END
$$$$
