HEW.pdb
     RDKit          3D

 34 36  0  0  1  0  0  0  0  0999 V2000
    8.3952  -17.3720   19.2654 N   0  0  0  0  0  0  0  0  0  0  0  0
    9.4528  -16.4959   19.7765 C   0  0  1  0  0  0  0  0  0  0  0  0
    8.9862  -15.1101   19.8060 C   0  0  0  0  0  0  0  0  0  0  0  0
    8.3835  -14.5778   18.5495 C   0  0  0  0  0  0  0  0  0  0  0  0
    8.2668  -15.2107   17.3420 C   0  0  0  0  0  0  0  0  0  0  0  0
    7.6444  -14.4088   16.4820 N   0  0  0  0  0  0  0  0  0  0  0  0
    7.3716  -13.2750   17.1508 C   0  0  0  0  0  0  0  0  0  0  0  0
    7.8179  -13.3694   18.4095 N   0  0  0  0  0  0  0  0  0  0  0  0
   10.1460  -17.0644   20.9428 C   0  0  0  0  0  0  0  0  0  0  0  0
    9.4682  -17.7225   21.8290 O   0  0  0  0  0  0  0  0  0  0  0  0
   11.5416  -16.9009   21.0921 N   0  0  0  0  0  0  0  0  0  0  0  0
   12.2291  -16.6228   22.3060 C   0  0  1  0  0  0  0  0  0  0  0  0
   13.5909  -16.1431   22.3727 C   0  0  0  0  0  0  0  0  0  0  0  0
   14.3662  -16.0373   23.6143 C   0  0  0  0  0  0  0  0  0  0  0  0
   15.7736  -16.4476   23.6265 C   0  0  0  0  0  0  0  0  0  0  0  0
   16.2961  -16.9667   24.6867 O   0  0  0  0  0  0  0  0  0  0  0  0
   11.3078  -16.0334   23.3540 C   0  0  0  0  0  0  0  0  0  0  0  0
   10.8081  -14.9006   23.1601 O   0  0  0  0  0  0  0  0  0  0  0  0
   16.6387  -16.3243   22.5622 O   0  0  0  0  0  0  0  0  0  0  0  0
   10.9676  -16.6885   24.5596 N   0  0  0  0  0  0  0  0  0  0  0  0
   10.0373  -16.0873   25.5199 C   0  0  1  0  0  0  0  0  0  0  0  0
    8.8079  -15.7471   24.7277 C   0  0  0  0  0  0  0  0  0  0  0  0
    7.6819  -15.1817   25.4672 C   0  0  0  0  0  0  0  0  0  0  0  0
    6.5748  -15.8825   25.9033 C   0  0  0  0  0  0  0  0  0  0  0  0
    5.7423  -15.0279   26.5139 N   0  0  0  0  0  0  0  0  0  0  0  0
    6.2777  -13.7728   26.4915 C   0  0  0  0  0  0  0  0  0  0  0  0
    5.8647  -12.5587   26.9724 C   0  0  0  0  0  0  0  0  0  0  0  0
    6.6397  -11.4283   26.8163 C   0  0  0  0  0  0  0  0  0  0  0  0
    7.8510  -11.5211   26.1652 C   0  0  0  0  0  0  0  0  0  0  0  0
    8.2717  -12.7191   25.6830 C   0  0  0  0  0  0  0  0  0  0  0  0
    7.4941  -13.8691   25.8354 C   0  0  0  0  0  0  0  0  0  0  0  0
    9.8268  -16.8769   26.7159 C   0  0  0  0  0  0  0  0  0  0  0  0
    9.3427  -16.3777   27.9237 O   0  0  0  0  0  0  0  0  0  0  0  0
   10.0952  -18.1060   26.6806 O   0  0  0  0  0  0  0  0  0  0  0  0
  2  1  1  1
  2  9  1  0
  2  3  1  0
  3  4  1  0
  4  5  2  0
  5  6  1  0
  7  6  1  0
  8  4  1  0
  8  7  2  0
  9 10  2  0
 11 12  1  0
 11  9  1  0
 12 13  1  6
 13 14  1  0
 14 15  1  0
 15 16  2  0
 15 19  1  0
 17 12  1  0
 18 17  2  0
 20 17  1  0
 21 22  1  6
 21 20  1  0
 22 23  1  0
 23 31  1  0
 24 23  2  0
 24 25  1  0
 25 26  1  0
 26 27  1  0
 27 28  2  0
 29 28  1  0
 30 29  2  0
 31 26  2  0
 31 30  1  0
 32 33  1  0
 32 21  1  0
 34 32  2  0
M  END
$$$$
