HEW.pdb
     RDKit          3D

 34 36  0  0  1  0  0  0  0  0999 V2000
    7.9488  -17.0565   19.7449 N   0  0  0  0  0  0  0  0  0  0  0  0
    8.7517  -16.3590   20.7529 C   0  0  1  0  0  0  0  0  0  0  0  0
    8.1746  -15.0447   21.0332 C   0  0  0  0  0  0  0  0  0  0  0  0
    8.1260  -14.0771   19.8988 C   0  0  0  0  0  0  0  0  0  0  0  0
    8.5001  -14.2887   18.5998 C   0  0  0  0  0  0  0  0  0  0  0  0
    8.2757  -13.1855   17.8909 N   0  0  0  0  0  0  0  0  0  0  0  0
    7.7614  -12.2842   18.7455 C   0  0  0  0  0  0  0  0  0  0  0  0
    7.6669  -12.8186   19.9695 N   0  0  0  0  0  0  0  0  0  0  0  0
    9.1574  -17.2366   21.8616 C   0  0  0  0  0  0  0  0  0  0  0  0
    8.2598  -17.9301   22.4870 O   0  0  0  0  0  0  0  0  0  0  0  0
   10.5166  -17.3288   22.2371 N   0  0  0  0  0  0  0  0  0  0  0  0
   11.0168  -17.8766   23.4509 C   0  0  1  0  0  0  0  0  0  0  0  0
   12.3915  -18.2750   23.6524 C   0  0  0  0  0  0  0  0  0  0  0  0
   12.8793  -18.9723   24.8481 C   0  0  0  0  0  0  0  0  0  0  0  0
   14.2980  -19.3274   24.9511 C   0  0  0  0  0  0  0  0  0  0  0  0
   14.9714  -19.0362   26.0133 O   0  0  0  0  0  0  0  0  0  0  0  0
   10.3650  -17.2475   24.6649 C   0  0  0  0  0  0  0  0  0  0  0  0
    9.5437  -16.3151   24.5024 O   0  0  0  0  0  0  0  0  0  0  0  0
   15.0208  -19.9729   23.9728 O   0  0  0  0  0  0  0  0  0  0  0  0
   10.6264  -17.6499   25.9946 N   0  0  0  0  0  0  0  0  0  0  0  0
    9.9740  -16.9964   27.1331 C   0  0  1  0  0  0  0  0  0  0  0  0
    8.5071  -17.2698   26.9655 C   0  0  0  0  0  0  0  0  0  0  0  0
    7.7150  -16.2374   26.3015 C   0  0  0  0  0  0  0  0  0  0  0  0
    6.7482  -16.4609   25.3411 C   0  0  0  0  0  0  0  0  0  0  0  0
    6.2608  -15.2776   24.9431 N   0  0  0  0  0  0  0  0  0  0  0  0
    6.8864  -14.2730   25.6228 C   0  0  0  0  0  0  0  0  0  0  0  0
    6.7672  -12.9086   25.6168 C   0  0  0  0  0  0  0  0  0  0  0  0
    7.5389  -12.1213   26.4460 C   0  0  0  0  0  0  0  0  0  0  0  0
    8.4459  -12.7170   27.2958 C   0  0  0  0  0  0  0  0  0  0  0  0
    8.5742  -14.0691   27.3109 C   0  0  0  0  0  0  0  0  0  0  0  0
    7.7982  -14.8748   26.4749 C   0  0  0  0  0  0  0  0  0  0  0  0
   10.5435  -17.3391   28.4201 C   0  0  0  0  0  0  0  0  0  0  0  0
   11.6288  -18.1929   28.6078 O   0  0  0  0  0  0  0  0  0  0  0  0
   10.0338  -16.8385   29.4563 O   0  0  0  0  0  0  0  0  0  0  0  0
  2  1  1  1
  2  9  1  0
  2  3  1  0
  3  4  1  0
  4  5  2  0
  5  6  1  0
  7  6  1  0
  8  4  1  0
  8  7  2  0
  9 10  2  0
 11 12  1  0
 11  9  1  0
 12 13  1  1
 13 14  1  0
 14 15  1  0
 15 16  2  0
 15 19  1  0
 17 12  1  0
 18 17  2  0
 20 17  1  0
 21 22  1  1
 21 20  1  0
 22 23  1  0
 23 31  1  0
 24 23  2  0
 24 25  1  0
 25 26  1  0
 26 27  1  0
 27 28  2  0
 29 28  1  0
 30 29  2  0
 31 26  2  0
 31 30  1  0
 32 33  1  0
 32 21  1  0
 34 32  2  0
M  END
$$$$
