HEW.pdb
     RDKit          3D

 34 36  0  0  1  0  0  0  0  0999 V2000
    7.7279  -17.2552   18.1874 N   0  0  0  0  0  0  0  0  0  0  0  0
    8.7124  -16.4954   18.9624 C   0  0  1  0  0  0  0  0  0  0  0  0
    8.4108  -15.0660   18.8936 C   0  0  0  0  0  0  0  0  0  0  0  0
    8.3329  -14.4611   17.5321 C   0  0  0  0  0  0  0  0  0  0  0  0
    8.5433  -15.0763   16.3281 C   0  0  0  0  0  0  0  0  0  0  0  0
    8.3500  -14.2004   15.3455 N   0  0  0  0  0  0  0  0  0  0  0  0
    8.0186  -13.0381   15.9341 C   0  0  0  0  0  0  0  0  0  0  0  0
    8.0058  -13.1879   17.2645 N   0  0  0  0  0  0  0  0  0  0  0  0
    9.0203  -17.1214   20.2575 C   0  0  0  0  0  0  0  0  0  0  0  0
    8.0544  -17.4175   21.0682 O   0  0  0  0  0  0  0  0  0  0  0  0
   10.3585  -17.4048   20.6121 N   0  0  0  0  0  0  0  0  0  0  0  0
   10.7974  -17.9943   21.8300 C   0  0  1  0  0  0  0  0  0  0  0  0
   11.8359  -18.9959   21.9157 C   0  0  0  0  0  0  0  0  0  0  0  0
   12.3189  -19.5748   23.1748 C   0  0  0  0  0  0  0  0  0  0  0  0
   13.3962  -20.5689   23.1487 C   0  0  0  0  0  0  0  0  0  0  0  0
   14.5040  -20.3193   22.5348 O   0  0  0  0  0  0  0  0  0  0  0  0
   10.7945  -16.9990   22.9719 C   0  0  0  0  0  0  0  0  0  0  0  0
   11.4250  -15.9233   22.8457 O   0  0  0  0  0  0  0  0  0  0  0  0
   13.3372  -21.8092   23.7441 O   0  0  0  0  0  0  0  0  0  0  0  0
   10.1150  -17.2066   24.1940 N   0  0  0  0  0  0  0  0  0  0  0  0
   10.2671  -16.2802   25.3200 C   0  0  1  0  0  0  0  0  0  0  0  0
    9.5655  -15.0207   24.9004 C   0  0  0  0  0  0  0  0  0  0  0  0
    8.2180  -14.8104   25.4240 C   0  0  0  0  0  0  0  0  0  0  0  0
    7.2079  -15.7519   25.4427 C   0  0  0  0  0  0  0  0  0  0  0  0
    6.1101  -15.1893   25.9667 N   0  0  0  0  0  0  0  0  0  0  0  0
    6.3740  -13.8917   26.2966 C   0  0  0  0  0  0  0  0  0  0  0  0
    5.6323  -12.8895   26.8638 C   0  0  0  0  0  0  0  0  0  0  0  0
    6.1788  -11.6460   27.1041 C   0  0  0  0  0  0  0  0  0  0  0  0
    7.4940  -11.4067   26.7682 C   0  0  0  0  0  0  0  0  0  0  0  0
    8.2400  -12.3919   26.2046 C   0  0  0  0  0  0  0  0  0  0  0  0
    7.6958  -13.6539   25.9566 C   0  0  0  0  0  0  0  0  0  0  0  0
    9.8743  -16.8328   26.6000 C   0  0  0  0  0  0  0  0  0  0  0  0
    9.3039  -18.0912   26.7819 O   0  0  0  0  0  0  0  0  0  0  0  0
   10.0538  -16.1398   27.6352 O   0  0  0  0  0  0  0  0  0  0  0  0
  2  1  1  1
  2  9  1  0
  2  3  1  0
  3  4  1  0
  4  5  2  0
  5  6  1  0
  7  6  1  0
  8  4  1  0
  8  7  2  0
  9 10  2  0
 11 12  1  0
 11  9  1  0
 12 13  1  6
 13 14  1  0
 14 15  1  0
 15 16  2  0
 15 19  1  0
 17 12  1  0
 18 17  2  0
 20 17  1  0
 21 22  1  6
 21 20  1  0
 22 23  1  0
 23 31  1  0
 24 23  2  0
 24 25  1  0
 25 26  1  0
 26 27  1  0
 27 28  2  0
 29 28  1  0
 30 29  2  0
 31 26  2  0
 31 30  1  0
 32 33  1  0
 32 21  1  0
 34 32  2  0
M  END
$$$$
