HEW.pdb
     RDKit          3D

 34 36  0  0  1  0  0  0  0  0999 V2000
    7.3739  -16.8142   20.2823 N   0  0  0  0  0  0  0  0  0  0  0  0
    8.5940  -16.2135   20.8281 C   0  0  1  0  0  0  0  0  0  0  0  0
    8.4387  -14.7626   20.9268 C   0  0  0  0  0  0  0  0  0  0  0  0
    8.0881  -14.0380   19.6707 C   0  0  0  0  0  0  0  0  0  0  0  0
    7.8706  -14.5698   18.4289 C   0  0  0  0  0  0  0  0  0  0  0  0
    7.5534  -13.5949   17.5810 N   0  0  0  0  0  0  0  0  0  0  0  0
    7.5721  -12.4539   18.2917 C   0  0  0  0  0  0  0  0  0  0  0  0
    7.8965  -12.7146   19.5642 N   0  0  0  0  0  0  0  0  0  0  0  0
    9.1427  -16.9740   21.9615 C   0  0  0  0  0  0  0  0  0  0  0  0
    8.4239  -17.8970   22.5175 O   0  0  0  0  0  0  0  0  0  0  0  0
   10.4466  -16.7056   22.4356 N   0  0  0  0  0  0  0  0  0  0  0  0
   11.1275  -17.4127   23.4651 C   0  0  1  0  0  0  0  0  0  0  0  0
   12.4510  -17.9755   23.3207 C   0  0  0  0  0  0  0  0  0  0  0  0
   13.1060  -18.8088   24.3358 C   0  0  0  0  0  0  0  0  0  0  0  0
   14.4530  -19.3306   24.0853 C   0  0  0  0  0  0  0  0  0  0  0  0
   14.9033  -19.4319   22.8797 O   0  0  0  0  0  0  0  0  0  0  0  0
   10.8434  -16.8290   24.8336 C   0  0  0  0  0  0  0  0  0  0  0  0
   11.4881  -15.8242   25.2147 O   0  0  0  0  0  0  0  0  0  0  0  0
   15.3297  -19.7475   25.0620 O   0  0  0  0  0  0  0  0  0  0  0  0
    9.8809  -17.3522   25.7271 N   0  0  0  0  0  0  0  0  0  0  0  0
    9.8541  -16.9575   27.1386 C   0  0  1  0  0  0  0  0  0  0  0  0
    8.4051  -16.7390   27.4663 C   0  0  0  0  0  0  0  0  0  0  0  0
    7.6765  -15.7861   26.6323 C   0  0  0  0  0  0  0  0  0  0  0  0
    6.8487  -16.1126   25.5762 C   0  0  0  0  0  0  0  0  0  0  0  0
    6.3834  -14.9793   25.0329 N   0  0  0  0  0  0  0  0  0  0  0  0
    6.8870  -13.9068   25.7100 C   0  0  0  0  0  0  0  0  0  0  0  0
    6.7308  -12.5516   25.5876 C   0  0  0  0  0  0  0  0  0  0  0  0
    7.3660  -11.6796   26.4473 C   0  0  0  0  0  0  0  0  0  0  0  0
    8.1721  -12.1798   27.4472 C   0  0  0  0  0  0  0  0  0  0  0  0
    8.3358  -13.5217   27.5788 C   0  0  0  0  0  0  0  0  0  0  0  0
    7.6977  -14.4126   26.7132 C   0  0  0  0  0  0  0  0  0  0  0  0
   10.5789  -17.8513   28.0184 C   0  0  0  0  0  0  0  0  0  0  0  0
   10.8161  -17.6163   29.3715 O   0  0  0  0  0  0  0  0  0  0  0  0
   11.0353  -18.9238   27.5437 O   0  0  0  0  0  0  0  0  0  0  0  0
  2  1  1  1
  2  9  1  0
  2  3  1  0
  3  4  1  0
  4  5  2  0
  5  6  1  0
  7  6  1  0
  8  4  1  0
  8  7  2  0
  9 10  2  0
 11 12  1  0
 11  9  1  0
 12 13  1  6
 13 14  1  0
 14 15  1  0
 15 16  2  0
 15 19  1  0
 17 12  1  0
 18 17  2  0
 20 17  1  0
 21 22  1  1
 21 20  1  0
 22 23  1  0
 23 31  1  0
 24 23  2  0
 24 25  1  0
 25 26  1  0
 26 27  1  0
 27 28  2  0
 29 28  1  0
 30 29  2  0
 31 26  2  0
 31 30  1  0
 32 33  1  0
 32 21  1  0
 34 32  2  0
M  END
$$$$
