HEW.pdb
     RDKit          3D

 34 36  0  0  1  0  0  0  0  0999 V2000
    8.1637  -16.8834   19.9006 N   0  0  0  0  0  0  0  0  0  0  0  0
    8.8734  -15.9226   20.7494 C   0  0  1  0  0  0  0  0  0  0  0  0
    8.1716  -14.6394   20.7504 C   0  0  0  0  0  0  0  0  0  0  0  0
    7.9534  -13.9925   19.4239 C   0  0  0  0  0  0  0  0  0  0  0  0
    8.4145  -12.7767   18.9981 C   0  0  0  0  0  0  0  0  0  0  0  0
    8.0275  -12.5736   17.7416 N   0  0  0  0  0  0  0  0  0  0  0  0
    7.3250  -13.6616   17.3811 C   0  0  0  0  0  0  0  0  0  0  0  0
    7.2751  -14.5300   18.3990 N   0  0  0  0  0  0  0  0  0  0  0  0
    9.3287  -16.5138   22.0172 C   0  0  0  0  0  0  0  0  0  0  0  0
    8.4746  -17.1143   22.7836 O   0  0  0  0  0  0  0  0  0  0  0  0
   10.6886  -16.4341   22.3930 N   0  0  0  0  0  0  0  0  0  0  0  0
   11.2817  -17.0452   23.5324 C   0  0  1  0  0  0  0  0  0  0  0  0
   12.6452  -17.5227   23.5763 C   0  0  0  0  0  0  0  0  0  0  0  0
   13.2106  -18.2970   24.6875 C   0  0  0  0  0  0  0  0  0  0  0  0
   14.6154  -18.7133   24.6391 C   0  0  0  0  0  0  0  0  0  0  0  0
   15.1294  -19.1610   23.5428 O   0  0  0  0  0  0  0  0  0  0  0  0
   10.7976  -16.4199   24.8243 C   0  0  0  0  0  0  0  0  0  0  0  0
   11.1964  -15.2731   25.1345 O   0  0  0  0  0  0  0  0  0  0  0  0
   15.4852  -18.6737   25.7061 O   0  0  0  0  0  0  0  0  0  0  0  0
    9.9087  -17.0560   25.7208 N   0  0  0  0  0  0  0  0  0  0  0  0
    9.8545  -16.6824   27.1373 C   0  0  1  0  0  0  0  0  0  0  0  0
    8.3958  -16.5178   27.4530 C   0  0  0  0  0  0  0  0  0  0  0  0
    7.6484  -15.5620   26.6393 C   0  0  0  0  0  0  0  0  0  0  0  0
    6.8425  -15.8805   25.5640 C   0  0  0  0  0  0  0  0  0  0  0  0
    6.3497  -14.7455   25.0493 N   0  0  0  0  0  0  0  0  0  0  0  0
    6.8136  -13.6796   25.7643 C   0  0  0  0  0  0  0  0  0  0  0  0
    6.6184  -12.3265   25.6807 C   0  0  0  0  0  0  0  0  0  0  0  0
    7.2178  -11.4627   26.5737 C   0  0  0  0  0  0  0  0  0  0  0  0
    8.0273  -11.9689   27.5678 C   0  0  0  0  0  0  0  0  0  0  0  0
    8.2294  -13.3088   27.6610 C   0  0  0  0  0  0  0  0  0  0  0  0
    7.6278  -14.1915   26.7615 C   0  0  0  0  0  0  0  0  0  0  0  0
   10.6006  -17.5635   28.0122 C   0  0  0  0  0  0  0  0  0  0  0  0
   11.2677  -18.7156   27.6001 O   0  0  0  0  0  0  0  0  0  0  0  0
   10.6621  -17.2838   29.2377 O   0  0  0  0  0  0  0  0  0  0  0  0
  2  1  1  1
  2  9  1  0
  2  3  1  0
  3  4  1  0
  4  5  2  0
  5  6  1  0
  7  6  1  0
  8  4  1  0
  8  7  2  0
  9 10  2  0
 11 12  1  0
 11  9  1  0
 12 13  1  6
 13 14  1  0
 14 15  1  0
 15 16  2  0
 15 19  1  0
 17 12  1  0
 18 17  2  0
 20 17  1  0
 21 22  1  1
 21 20  1  0
 22 23  1  0
 23 31  1  0
 24 23  2  0
 24 25  1  0
 25 26  1  0
 26 27  1  0
 27 28  2  0
 29 28  1  0
 30 29  2  0
 31 26  2  0
 31 30  1  0
 32 33  1  0
 32 21  1  0
 34 32  2  0
M  END
$$$$
