HEW.pdb
     RDKit          3D

 34 36  0  0  1  0  0  0  0  0999 V2000
    8.8967  -16.8888   18.4103 N   0  0  0  0  0  0  0  0  0  0  0  0
    8.8082  -16.0378   19.5999 C   0  0  1  0  0  0  0  0  0  0  0  0
    7.7483  -15.0446   19.4291 C   0  0  0  0  0  0  0  0  0  0  0  0
    7.7433  -14.2820   18.1470 C   0  0  0  0  0  0  0  0  0  0  0  0
    6.6859  -14.0607   17.3072 C   0  0  0  0  0  0  0  0  0  0  0  0
    7.0849  -13.3104   16.2837 N   0  0  0  0  0  0  0  0  0  0  0  0
    8.3911  -13.0619   16.4828 C   0  0  0  0  0  0  0  0  0  0  0  0
    8.7996  -13.6494   17.6144 N   0  0  0  0  0  0  0  0  0  0  0  0
    8.9058  -16.8024   20.8529 C   0  0  0  0  0  0  0  0  0  0  0  0
    7.9232  -17.5664   21.2117 O   0  0  0  0  0  0  0  0  0  0  0  0
   10.0651  -16.7107   21.6555 N   0  0  0  0  0  0  0  0  0  0  0  0
   10.3868  -17.5424   22.7639 C   0  0  1  0  0  0  0  0  0  0  0  0
   11.2658  -18.6872   22.6877 C   0  0  0  0  0  0  0  0  0  0  0  0
   12.2976  -18.8655   21.6594 C   0  0  0  0  0  0  0  0  0  0  0  0
   13.6614  -19.2277   22.0571 C   0  0  0  0  0  0  0  0  0  0  0  0
   14.5760  -18.3227   22.1622 O   0  0  0  0  0  0  0  0  0  0  0  0
   10.5046  -16.7494   24.0490 C   0  0  0  0  0  0  0  0  0  0  0  0
   11.4152  -15.8953   24.1581 O   0  0  0  0  0  0  0  0  0  0  0  0
   14.0848  -20.5068   22.3416 O   0  0  0  0  0  0  0  0  0  0  0  0
    9.6393  -16.9116   25.1550 N   0  0  0  0  0  0  0  0  0  0  0  0
    9.9601  -16.3408   26.4666 C   0  0  1  0  0  0  0  0  0  0  0  0
    8.6404  -16.1654   27.1611 C   0  0  0  0  0  0  0  0  0  0  0  0
    7.5896  -15.4755   26.4167 C   0  0  0  0  0  0  0  0  0  0  0  0
    6.5023  -16.0792   25.8166 C   0  0  0  0  0  0  0  0  0  0  0  0
    5.7750  -15.1353   25.2031 N   0  0  0  0  0  0  0  0  0  0  0  0
    6.3601  -13.9160   25.3861 C   0  0  0  0  0  0  0  0  0  0  0  0
    6.0374  -12.6432   24.9965 C   0  0  0  0  0  0  0  0  0  0  0  0
    6.8254  -11.5676   25.3499 C   0  0  0  0  0  0  0  0  0  0  0  0
    7.9573  -11.7761   26.1083 C   0  0  0  0  0  0  0  0  0  0  0  0
    8.2886  -13.0336   26.5005 C   0  0  0  0  0  0  0  0  0  0  0  0
    7.4979  -14.1291   26.1473 C   0  0  0  0  0  0  0  0  0  0  0  0
   10.9741  -17.0709   27.1995 C   0  0  0  0  0  0  0  0  0  0  0  0
   11.6181  -16.6056   28.3444 O   0  0  0  0  0  0  0  0  0  0  0  0
   11.3111  -18.2111   26.7867 O   0  0  0  0  0  0  0  0  0  0  0  0
  2  1  1  6
  2  9  1  0
  2  3  1  0
  3  4  1  0
  4  5  2  0
  5  6  1  0
  7  6  1  0
  8  4  1  0
  8  7  2  0
  9 10  2  0
 11 12  1  0
 11  9  1  0
 12 13  1  6
 13 14  1  0
 14 15  1  0
 15 16  2  0
 15 19  1  0
 17 12  1  0
 18 17  2  0
 20 17  1  0
 21 22  1  1
 21 20  1  0
 22 23  1  0
 23 31  1  0
 24 23  2  0
 24 25  1  0
 25 26  1  0
 26 27  1  0
 27 28  2  0
 29 28  1  0
 30 29  2  0
 31 26  2  0
 31 30  1  0
 32 33  1  0
 32 21  1  0
 34 32  2  0
M  END
$$$$
