HEW.pdb
     RDKit          3D

 34 36  0  0  1  0  0  0  0  0999 V2000
    7.3173  -16.5521   20.1949 N   0  0  0  0  0  0  0  0  0  0  0  0
    8.5099  -16.0139   20.8547 C   0  0  1  0  0  0  0  0  0  0  0  0
    8.3691  -14.5709   21.0473 C   0  0  0  0  0  0  0  0  0  0  0  0
    8.0353  -13.7618   19.8392 C   0  0  0  0  0  0  0  0  0  0  0  0
    7.8322  -14.2074   18.5616 C   0  0  0  0  0  0  0  0  0  0  0  0
    7.5271  -13.1764   17.7781 N   0  0  0  0  0  0  0  0  0  0  0  0
    7.5390  -12.0864   18.5648 C   0  0  0  0  0  0  0  0  0  0  0  0
    7.8473  -12.4337   19.8206 N   0  0  0  0  0  0  0  0  0  0  0  0
    8.9774  -16.8623   21.9617 C   0  0  0  0  0  0  0  0  0  0  0  0
    8.1490  -17.2033   22.8973 O   0  0  0  0  0  0  0  0  0  0  0  0
   10.3176  -17.3085   22.0010 N   0  0  0  0  0  0  0  0  0  0  0  0
   10.9481  -17.9776   23.0866 C   0  0  1  0  0  0  0  0  0  0  0  0
   12.1341  -18.7931   22.9549 C   0  0  0  0  0  0  0  0  0  0  0  0
   12.4969  -19.5273   21.7371 C   0  0  0  0  0  0  0  0  0  0  0  0
   13.8881  -19.9396   21.5274 C   0  0  0  0  0  0  0  0  0  0  0  0
   14.3924  -20.9151   22.2061 O   0  0  0  0  0  0  0  0  0  0  0  0
   10.8892  -17.1631   24.3623 C   0  0  0  0  0  0  0  0  0  0  0  0
   11.4227  -16.0294   24.3880 O   0  0  0  0  0  0  0  0  0  0  0  0
   14.7557  -19.3553   20.6317 O   0  0  0  0  0  0  0  0  0  0  0  0
   10.2605  -17.6049   25.5488 N   0  0  0  0  0  0  0  0  0  0  0  0
   10.5074  -16.9469   26.8353 C   0  0  1  0  0  0  0  0  0  0  0  0
   10.1325  -15.5077   26.6279 C   0  0  0  0  0  0  0  0  0  0  0  0
    8.7204  -15.2221   26.3855 C   0  0  0  0  0  0  0  0  0  0  0  0
    7.7338  -16.1665   26.1818 C   0  0  0  0  0  0  0  0  0  0  0  0
    6.5742  -15.5315   25.9622 N   0  0  0  0  0  0  0  0  0  0  0  0
    6.7738  -14.1825   26.0172 C   0  0  0  0  0  0  0  0  0  0  0  0
    5.9491  -13.0973   25.8825 C   0  0  0  0  0  0  0  0  0  0  0  0
    6.4346  -11.8123   26.0081 C   0  0  0  0  0  0  0  0  0  0  0  0
    7.7728  -11.6158   26.2737 C   0  0  0  0  0  0  0  0  0  0  0  0
    8.6012  -12.6836   26.4089 C   0  0  0  0  0  0  0  0  0  0  0  0
    8.1195  -13.9883   26.2828 C   0  0  0  0  0  0  0  0  0  0  0  0
    9.8932  -17.6089   27.9678 C   0  0  0  0  0  0  0  0  0  0  0  0
    9.0951  -18.7485   27.8863 O   0  0  0  0  0  0  0  0  0  0  0  0
   10.0832  -17.1344   29.1179 O   0  0  0  0  0  0  0  0  0  0  0  0
  2  1  1  1
  2  9  1  0
  2  3  1  0
  3  4  1  0
  4  5  2  0
  5  6  1  0
  7  6  1  0
  8  4  1  0
  8  7  2  0
  9 10  2  0
 11 12  1  0
 11  9  1  0
 12 13  1  6
 13 14  1  0
 14 15  1  0
 15 16  2  0
 15 19  1  0
 17 12  1  0
 18 17  2  0
 20 17  1  0
 21 22  1  6
 21 20  1  0
 22 23  1  0
 23 31  1  0
 24 23  2  0
 24 25  1  0
 25 26  1  0
 26 27  1  0
 27 28  2  0
 29 28  1  0
 30 29  2  0
 31 26  2  0
 31 30  1  0
 32 33  1  0
 32 21  1  0
 34 32  2  0
M  END
$$$$
