HEW.pdb
     RDKit          3D

 34 36  0  0  1  0  0  0  0  0999 V2000
    8.9509  -16.9851   18.0486 N   0  0  0  0  0  0  0  0  0  0  0  0
    9.1949  -16.0992   19.1900 C   0  0  1  0  0  0  0  0  0  0  0  0
    8.3128  -14.9348   19.1195 C   0  0  0  0  0  0  0  0  0  0  0  0
    8.2613  -14.2095   17.8169 C   0  0  0  0  0  0  0  0  0  0  0  0
    8.8113  -12.9944   17.5116 C   0  0  0  0  0  0  0  0  0  0  0  0
    8.5676  -12.7080   16.2355 N   0  0  0  0  0  0  0  0  0  0  0  0
    7.8659  -13.7433   15.7424 C   0  0  0  0  0  0  0  0  0  0  0  0
    7.6752  -14.6613   16.6980 N   0  0  0  0  0  0  0  0  0  0  0  0
    9.3454  -16.8333   20.4559 C   0  0  0  0  0  0  0  0  0  0  0  0
    8.3418  -17.5025   20.9279 O   0  0  0  0  0  0  0  0  0  0  0  0
   10.5771  -16.8155   21.1483 N   0  0  0  0  0  0  0  0  0  0  0  0
   10.9089  -17.5945   22.2913 C   0  0  1  0  0  0  0  0  0  0  0  0
   11.8623  -18.6807   22.2808 C   0  0  0  0  0  0  0  0  0  0  0  0
   12.3575  -19.3291   21.0610 C   0  0  0  0  0  0  0  0  0  0  0  0
   12.1187  -20.7607   20.8536 C   0  0  0  0  0  0  0  0  0  0  0  0
   11.5823  -21.4775   21.7837 O   0  0  0  0  0  0  0  0  0  0  0  0
   10.9258  -16.7615   23.5564 C   0  0  0  0  0  0  0  0  0  0  0  0
   11.4904  -15.6428   23.5432 O   0  0  0  0  0  0  0  0  0  0  0  0
   12.4297  -21.4520   19.7040 O   0  0  0  0  0  0  0  0  0  0  0  0
   10.3358  -17.1698   24.7744 N   0  0  0  0  0  0  0  0  0  0  0  0
   10.3908  -16.3250   25.9712 C   0  0  1  0  0  0  0  0  0  0  0  0
    9.7811  -15.0143   25.5651 C   0  0  0  0  0  0  0  0  0  0  0  0
    8.3715  -14.8129   25.8917 C   0  0  0  0  0  0  0  0  0  0  0  0
    7.3846  -15.7760   25.8172 C   0  0  0  0  0  0  0  0  0  0  0  0
    6.2163  -15.2170   26.1617 N   0  0  0  0  0  0  0  0  0  0  0  0
    6.4105  -13.9004   26.4640 C   0  0  0  0  0  0  0  0  0  0  0  0
    5.5815  -12.8922   26.8790 C   0  0  0  0  0  0  0  0  0  0  0  0
    6.0688  -11.6270   27.1333 C   0  0  0  0  0  0  0  0  0  0  0  0
    7.4131  -11.3719   26.9673 C   0  0  0  0  0  0  0  0  0  0  0  0
    8.2456  -12.3630   26.5557 C   0  0  0  0  0  0  0  0  0  0  0  0
    7.7620  -13.6469   26.2950 C   0  0  0  0  0  0  0  0  0  0  0  0
    9.8399  -16.9434   27.1597 C   0  0  0  0  0  0  0  0  0  0  0  0
    9.1624  -18.1610   27.1816 O   0  0  0  0  0  0  0  0  0  0  0  0
    9.9735  -16.3521   28.2627 O   0  0  0  0  0  0  0  0  0  0  0  0
  2  1  1  6
  2  9  1  0
  2  3  1  0
  3  4  1  0
  4  5  2  0
  5  6  1  0
  7  6  1  0
  8  4  1  0
  8  7  2  0
  9 10  2  0
 11 12  1  0
 11  9  1  0
 12 13  1  6
 13 14  1  0
 14 15  1  0
 15 16  2  0
 15 19  1  0
 17 12  1  0
 18 17  2  0
 20 17  1  0
 21 22  1  6
 21 20  1  0
 22 23  1  0
 23 31  1  0
 24 23  2  0
 24 25  1  0
 25 26  1  0
 26 27  1  0
 27 28  2  0
 29 28  1  0
 30 29  2  0
 31 26  2  0
 31 30  1  0
 32 33  1  0
 32 21  1  0
 34 32  2  0
M  END
$$$$
