HEW.pdb
     RDKit          3D

 34 36  0  0  1  0  0  0  0  0999 V2000
    9.9687  -15.4607   19.8587 N   0  0  0  0  0  0  0  0  0  0  0  0
    9.0182  -15.0962   20.9127 C   0  0  1  0  0  0  0  0  0  0  0  0
    7.6905  -14.8799   20.3386 C   0  0  0  0  0  0  0  0  0  0  0  0
    7.6226  -14.0589   19.0949 C   0  0  0  0  0  0  0  0  0  0  0  0
    8.3522  -12.9434   18.7858 C   0  0  0  0  0  0  0  0  0  0  0  0
    8.0170  -12.5200   17.5699 N   0  0  0  0  0  0  0  0  0  0  0  0
    7.0785  -13.3700   17.1183 C   0  0  0  0  0  0  0  0  0  0  0  0
    6.8326  -14.3094   18.0400 N   0  0  0  0  0  0  0  0  0  0  0  0
    9.1718  -15.9169   22.1238 C   0  0  0  0  0  0  0  0  0  0  0  0
    8.2823  -15.8412   23.0623 O   0  0  0  0  0  0  0  0  0  0  0  0
   10.2769  -16.7871   22.2597 N   0  0  0  0  0  0  0  0  0  0  0  0
   10.5652  -17.6083   23.3849 C   0  0  1  0  0  0  0  0  0  0  0  0
   11.3376  -18.8282   23.3192 C   0  0  0  0  0  0  0  0  0  0  0  0
   11.6376  -19.6757   24.4791 C   0  0  0  0  0  0  0  0  0  0  0  0
   12.4101  -20.9081   24.2952 C   0  0  0  0  0  0  0  0  0  0  0  0
   12.8553  -21.2351   23.1284 O   0  0  0  0  0  0  0  0  0  0  0  0
   10.7989  -16.7884   24.6369 C   0  0  0  0  0  0  0  0  0  0  0  0
   11.7501  -15.9729   24.6640 O   0  0  0  0  0  0  0  0  0  0  0  0
   12.7209  -21.7992   25.2981 O   0  0  0  0  0  0  0  0  0  0  0  0
   10.0002  -16.8835   25.7994 N   0  0  0  0  0  0  0  0  0  0  0  0
   10.5180  -16.4992   27.1160 C   0  0  1  0  0  0  0  0  0  0  0  0
    9.8477  -15.1966   27.4455 C   0  0  0  0  0  0  0  0  0  0  0  0
    8.4943  -15.0021   26.9309 C   0  0  0  0  0  0  0  0  0  0  0  0
    7.5751  -16.0042   26.6906 C   0  0  0  0  0  0  0  0  0  0  0  0
    6.4602  -15.4503   26.1943 N   0  0  0  0  0  0  0  0  0  0  0  0
    6.6230  -14.0985   26.1018 C   0  0  0  0  0  0  0  0  0  0  0  0
    5.8149  -13.0740   25.6853 C   0  0  0  0  0  0  0  0  0  0  0  0
    6.2482  -11.7648   25.7188 C   0  0  0  0  0  0  0  0  0  0  0  0
    7.5161  -11.4816   26.1792 C   0  0  0  0  0  0  0  0  0  0  0  0
    8.3274  -12.4886   26.5944 C   0  0  0  0  0  0  0  0  0  0  0  0
    7.8984  -13.8172   26.5638 C   0  0  0  0  0  0  0  0  0  0  0  0
   10.4184  -17.5392   28.1193 C   0  0  0  0  0  0  0  0  0  0  0  0
   11.0057  -17.4851   29.3820 O   0  0  0  0  0  0  0  0  0  0  0  0
    9.7569  -18.5751   27.8487 O   0  0  0  0  0  0  0  0  0  0  0  0
  2  1  1  6
  2  9  1  0
  2  3  1  0
  3  4  1  0
  4  5  2  0
  5  6  1  0
  7  6  1  0
  8  4  1  0
  8  7  2  0
  9 10  2  0
 11 12  1  0
 11  9  1  0
 12 13  1  6
 13 14  1  0
 14 15  1  0
 15 16  2  0
 15 19  1  0
 17 12  1  0
 18 17  2  0
 20 17  1  0
 21 22  1  1
 21 20  1  0
 22 23  1  0
 23 31  1  0
 24 23  2  0
 24 25  1  0
 25 26  1  0
 26 27  1  0
 27 28  2  0
 29 28  1  0
 30 29  2  0
 31 26  2  0
 31 30  1  0
 32 33  1  0
 32 21  1  0
 34 32  2  0
M  END
$$$$
