HEW.pdb
     RDKit          3D

 34 36  0  0  1  0  0  0  0  0999 V2000
    7.2972  -16.7184   19.8146 N   0  0  0  0  0  0  0  0  0  0  0  0
    8.4678  -16.1380   20.4781 C   0  0  1  0  0  0  0  0  0  0  0  0
    8.3095  -14.6891   20.5990 C   0  0  0  0  0  0  0  0  0  0  0  0
    8.0832  -13.9307   19.3344 C   0  0  0  0  0  0  0  0  0  0  0  0
    7.9977  -14.4279   18.0625 C   0  0  0  0  0  0  0  0  0  0  0  0
    7.7611  -13.4309   17.2142 N   0  0  0  0  0  0  0  0  0  0  0  0
    7.6983  -12.3105   17.9545 C   0  0  0  0  0  0  0  0  0  0  0  0
    7.8932  -12.6057   19.2458 N   0  0  0  0  0  0  0  0  0  0  0  0
    8.9141  -16.9290   21.6354 C   0  0  0  0  0  0  0  0  0  0  0  0
    8.0480  -17.3078   22.5209 O   0  0  0  0  0  0  0  0  0  0  0  0
   10.2757  -17.2797   21.7766 N   0  0  0  0  0  0  0  0  0  0  0  0
   10.8661  -17.9156   22.9038 C   0  0  1  0  0  0  0  0  0  0  0  0
   11.9965  -18.8130   22.8262 C   0  0  0  0  0  0  0  0  0  0  0  0
   12.6692  -19.3920   23.9950 C   0  0  0  0  0  0  0  0  0  0  0  0
   13.7947  -20.3113   23.8011 C   0  0  0  0  0  0  0  0  0  0  0  0
   14.9049  -19.8909   23.2939 O   0  0  0  0  0  0  0  0  0  0  0  0
   10.8650  -17.0172   24.1234 C   0  0  0  0  0  0  0  0  0  0  0  0
   11.6090  -16.0089   24.1395 O   0  0  0  0  0  0  0  0  0  0  0  0
   13.7813  -21.6504   24.1218 O   0  0  0  0  0  0  0  0  0  0  0  0
   10.0654  -17.2447   25.2667 N   0  0  0  0  0  0  0  0  0  0  0  0
   10.4851  -16.7900   26.5957 C   0  0  1  0  0  0  0  0  0  0  0  0
    9.9620  -15.3883   26.7234 C   0  0  0  0  0  0  0  0  0  0  0  0
    8.5640  -15.1700   26.3598 C   0  0  0  0  0  0  0  0  0  0  0  0
    7.6286  -16.1609   26.1359 C   0  0  0  0  0  0  0  0  0  0  0  0
    6.4686  -15.5830   25.7943 N   0  0  0  0  0  0  0  0  0  0  0  0
    6.6175  -14.2265   25.7883 C   0  0  0  0  0  0  0  0  0  0  0  0
    5.7693  -13.1822   25.5312 C   0  0  0  0  0  0  0  0  0  0  0  0
    6.1999  -11.8747   25.6206 C   0  0  0  0  0  0  0  0  0  0  0  0
    7.5061  -11.6135   25.9747 C   0  0  0  0  0  0  0  0  0  0  0  0
    8.3574  -12.6403   26.2315 C   0  0  0  0  0  0  0  0  0  0  0  0
    7.9314  -13.9673   26.1431 C   0  0  0  0  0  0  0  0  0  0  0  0
   10.1413  -17.6991   27.6697 C   0  0  0  0  0  0  0  0  0  0  0  0
   10.5473  -17.5545   28.9950 O   0  0  0  0  0  0  0  0  0  0  0  0
    9.4237  -18.6988   27.4054 O   0  0  0  0  0  0  0  0  0  0  0  0
  2  1  1  1
  2  9  1  0
  2  3  1  0
  3  4  1  0
  4  5  2  0
  5  6  1  0
  7  6  1  0
  8  4  1  0
  8  7  2  0
  9 10  2  0
 11 12  1  0
 11  9  1  0
 12 13  1  6
 13 14  1  0
 14 15  1  0
 15 16  2  0
 15 19  1  0
 17 12  1  0
 18 17  2  0
 20 17  1  0
 21 22  1  1
 21 20  1  0
 22 23  1  0
 23 31  1  0
 24 23  2  0
 24 25  1  0
 25 26  1  0
 26 27  1  0
 27 28  2  0
 29 28  1  0
 30 29  2  0
 31 26  2  0
 31 30  1  0
 32 33  1  0
 32 21  1  0
 34 32  2  0
M  END
$$$$
