HEW.pdb
     RDKit          3D

 34 36  0  0  1  0  0  0  0  0999 V2000
    7.3329  -16.7236   20.2356 N   0  0  0  0  0  0  0  0  0  0  0  0
    8.5672  -16.1144   20.7383 C   0  0  1  0  0  0  0  0  0  0  0  0
    8.3942  -14.6686   20.8746 C   0  0  0  0  0  0  0  0  0  0  0  0
    8.0897  -13.9084   19.6276 C   0  0  0  0  0  0  0  0  0  0  0  0
    8.0443  -14.3844   18.3455 C   0  0  0  0  0  0  0  0  0  0  0  0
    7.7093  -13.3965   17.5199 N   0  0  0  0  0  0  0  0  0  0  0  0
    7.5448  -12.3031   18.2846 C   0  0  0  0  0  0  0  0  0  0  0  0
    7.7743  -12.6058   19.5684 N   0  0  0  0  0  0  0  0  0  0  0  0
    9.1785  -16.8889   21.8294 C   0  0  0  0  0  0  0  0  0  0  0  0
    8.4234  -17.5901   22.6142 O   0  0  0  0  0  0  0  0  0  0  0  0
   10.5791  -16.8745   22.0159 N   0  0  0  0  0  0  0  0  0  0  0  0
   11.2945  -17.5339   23.0537 C   0  0  1  0  0  0  0  0  0  0  0  0
   12.5481  -18.2263   22.8583 C   0  0  0  0  0  0  0  0  0  0  0  0
   13.2712  -18.9347   23.9208 C   0  0  0  0  0  0  0  0  0  0  0  0
   14.5023  -19.6625   23.5982 C   0  0  0  0  0  0  0  0  0  0  0  0
   14.4670  -20.9252   23.3321 O   0  0  0  0  0  0  0  0  0  0  0  0
   11.1898  -16.7924   24.3704 C   0  0  0  0  0  0  0  0  0  0  0  0
   11.6347  -15.6236   24.4500 O   0  0  0  0  0  0  0  0  0  0  0  0
   15.7590  -19.1014   23.5515 O   0  0  0  0  0  0  0  0  0  0  0  0
   10.6126  -17.3416   25.5381 N   0  0  0  0  0  0  0  0  0  0  0  0
   10.6982  -16.6531   26.8295 C   0  0  1  0  0  0  0  0  0  0  0  0
   10.0827  -15.3020   26.6050 C   0  0  0  0  0  0  0  0  0  0  0  0
    8.6348  -15.2599   26.4148 C   0  0  0  0  0  0  0  0  0  0  0  0
    7.8087  -16.3598   26.2933 C   0  0  0  0  0  0  0  0  0  0  0  0
    6.5536  -15.9313   26.1006 N   0  0  0  0  0  0  0  0  0  0  0  0
    6.5320  -14.5668   26.0927 C   0  0  0  0  0  0  0  0  0  0  0  0
    5.5367  -13.6365   25.9519 C   0  0  0  0  0  0  0  0  0  0  0  0
    5.8102  -12.2855   26.0043 C   0  0  0  0  0  0  0  0  0  0  0  0
    7.1072  -11.8633   26.2018 C   0  0  0  0  0  0  0  0  0  0  0  0
    8.1035  -12.7757   26.3422 C   0  0  0  0  0  0  0  0  0  0  0  0
    7.8370  -14.1456   26.2900 C   0  0  0  0  0  0  0  0  0  0  0  0
   10.1738  -17.4153   27.9441 C   0  0  0  0  0  0  0  0  0  0  0  0
   10.2904  -17.0486   29.2835 O   0  0  0  0  0  0  0  0  0  0  0  0
    9.5650  -18.4905   27.7045 O   0  0  0  0  0  0  0  0  0  0  0  0
  2  1  1  1
  2  9  1  0
  2  3  1  0
  3  4  1  0
  4  5  2  0
  5  6  1  0
  7  6  1  0
  8  4  1  0
  8  7  2  0
  9 10  2  0
 11 12  1  0
 11  9  1  0
 12 13  1  6
 13 14  1  0
 14 15  1  0
 15 16  2  0
 15 19  1  0
 17 12  1  0
 18 17  2  0
 20 17  1  0
 21 22  1  6
 21 20  1  0
 22 23  1  0
 23 31  1  0
 24 23  2  0
 24 25  1  0
 25 26  1  0
 26 27  1  0
 27 28  2  0
 29 28  1  0
 30 29  2  0
 31 26  2  0
 31 30  1  0
 32 33  1  0
 32 21  1  0
 34 32  2  0
M  END
$$$$
