HEW.pdb
     RDKit          3D

 34 36  0  0  1  0  0  0  0  0999 V2000
    8.1344  -17.2193   19.4871 N   0  0  0  0  0  0  0  0  0  0  0  0
    9.2377  -16.4052   20.0040 C   0  0  1  0  0  0  0  0  0  0  0  0
    8.8162  -15.0104   20.1302 C   0  0  0  0  0  0  0  0  0  0  0  0
    8.2349  -14.3720   18.9136 C   0  0  0  0  0  0  0  0  0  0  0  0
    8.0450  -14.9349   17.6810 C   0  0  0  0  0  0  0  0  0  0  0  0
    7.4733  -14.0456   16.8734 N   0  0  0  0  0  0  0  0  0  0  0  0
    7.3052  -12.9271   17.6001 C   0  0  0  0  0  0  0  0  0  0  0  0
    7.7659  -13.1172   18.8427 N   0  0  0  0  0  0  0  0  0  0  0  0
    9.9570  -17.0597   21.1076 C   0  0  0  0  0  0  0  0  0  0  0  0
    9.3669  -17.9883   21.7913 O   0  0  0  0  0  0  0  0  0  0  0  0
   11.2842  -16.6844   21.4153 N   0  0  0  0  0  0  0  0  0  0  0  0
   12.0756  -17.1961   22.4808 C   0  0  1  0  0  0  0  0  0  0  0  0
   13.4749  -17.5366   22.3578 C   0  0  0  0  0  0  0  0  0  0  0  0
   14.1487  -17.7991   21.0807 C   0  0  0  0  0  0  0  0  0  0  0  0
   15.4182  -18.5323   21.0690 C   0  0  0  0  0  0  0  0  0  0  0  0
   16.4669  -18.0367   21.6357 O   0  0  0  0  0  0  0  0  0  0  0  0
   11.6984  -16.5780   23.8113 C   0  0  0  0  0  0  0  0  0  0  0  0
   11.9725  -15.3740   24.0247 O   0  0  0  0  0  0  0  0  0  0  0  0
   15.6118  -19.7614   20.4789 O   0  0  0  0  0  0  0  0  0  0  0  0
   11.0451  -17.2824   24.8483 N   0  0  0  0  0  0  0  0  0  0  0  0
    9.9991  -16.6522   25.6593 C   0  0  1  0  0  0  0  0  0  0  0  0
    9.0090  -16.0979   24.6758 C   0  0  0  0  0  0  0  0  0  0  0  0
    7.8599  -15.3840   25.2275 C   0  0  0  0  0  0  0  0  0  0  0  0
    6.5812  -15.8916   25.3470 C   0  0  0  0  0  0  0  0  0  0  0  0
    5.7916  -14.9410   25.8656 N   0  0  0  0  0  0  0  0  0  0  0  0
    6.5238  -13.8119   26.0931 C   0  0  0  0  0  0  0  0  0  0  0  0
    6.2267  -12.5795   26.6114 C   0  0  0  0  0  0  0  0  0  0  0  0
    7.1974  -11.6084   26.7441 C   0  0  0  0  0  0  0  0  0  0  0  0
    8.4890  -11.8820   26.3484 C   0  0  0  0  0  0  0  0  0  0  0  0
    8.7964  -13.1002   25.8322 C   0  0  0  0  0  0  0  0  0  0  0  0
    7.8208  -14.0896   25.6932 C   0  0  0  0  0  0  0  0  0  0  0  0
    9.4576  -17.5058   26.6967 C   0  0  0  0  0  0  0  0  0  0  0  0
    9.4163  -18.8977   26.6406 O   0  0  0  0  0  0  0  0  0  0  0  0
    8.9854  -16.9688   27.7324 O   0  0  0  0  0  0  0  0  0  0  0  0
  2  1  1  1
  2  9  1  0
  2  3  1  0
  3  4  1  0
  4  5  2  0
  5  6  1  0
  7  6  1  0
  8  4  1  0
  8  7  2  0
  9 10  2  0
 11 12  1  0
 11  9  1  0
 12 13  1  6
 13 14  1  0
 14 15  1  0
 15 16  2  0
 15 19  1  0
 17 12  1  0
 18 17  2  0
 20 17  1  0
 21 22  1  6
 21 20  1  0
 22 23  1  0
 23 31  1  0
 24 23  2  0
 24 25  1  0
 25 26  1  0
 26 27  1  0
 27 28  2  0
 29 28  1  0
 30 29  2  0
 31 26  2  0
 31 30  1  0
 32 33  1  0
 32 21  1  0
 34 32  2  0
M  END
$$$$
