SLG.pdb
     RDKit          3D

 19 18  0  0  1  0  0  0  0  0999 V2000
    7.7287  -17.0749   21.7977 O   0  0  0  0  0  0  0  0  0  0  0  0
    6.6902  -16.1985   21.4908 C   0  0  0  0  0  0  0  0  0  0  0  0
    7.2288  -14.7670   21.5316 C   0  0  2  0  0  0  0  0  0  0  0  0
    8.1390  -14.6560   20.3988 N   0  0  0  0  0  0  0  0  0  0  0  0
    8.0030  -14.5387   22.7903 C   0  0  0  0  0  0  0  0  0  0  0  0
    9.2439  -14.3588   22.7450 O   0  0  0  0  0  0  0  0  0  0  0  0
    7.7856  -11.2375   25.9729 C   0  0  0  0  0  0  0  0  0  0  0  0
    6.5760  -12.1614   25.9994 C   0  0  2  0  0  0  0  0  0  0  0  0
    5.4378  -11.6519   26.8146 C   0  0  0  0  0  0  0  0  0  0  0  0
    6.9242  -13.5932   26.1397 C   0  0  0  0  0  0  0  0  0  0  0  0
    8.0132  -14.1520   25.3050 C   0  0  2  0  0  0  0  0  0  0  0  0
    7.3593  -14.5217   24.0360 N   0  0  0  0  0  0  0  0  0  0  0  0
    8.6786  -15.3620   25.7777 C   0  0  0  0  0  0  0  0  0  0  0  0
    9.2627  -15.3939   26.8871 O   0  0  0  0  0  0  0  0  0  0  0  0
    8.7189  -16.5929   25.0250 N   0  0  0  0  0  0  0  0  0  0  0  0
    9.2403  -17.7924   25.6080 C   0  0  0  0  0  0  0  0  0  0  0  0
   10.7154  -17.8644   25.5666 C   0  0  0  0  0  0  0  0  0  0  0  0
   11.4204  -18.8438   26.2300 O   0  0  0  0  0  0  0  0  0  0  0  0
   11.3541  -17.0089   24.9076 O   0  0  0  0  0  0  0  0  0  0  0  0
  2  1  1  0
  3  2  1  0
  3  4  1  6
  5  3  1  0
  5  6  2  0
  8  7  1  1
  8 10  1  0
  9  8  1  0
 11 10  1  1
 11 12  1  0
 12  5  1  0
 13 11  1  0
 13 15  1  0
 14 13  2  0
 16 15  1  0
 16 17  1  0
 17 19  2  0
 17 18  1  0
M  END
$$$$
