SLG.pdb
     RDKit          3D

 19 18  0  0  1  0  0  0  0  0999 V2000
    7.6287  -17.4783   22.2525 O   0  0  0  0  0  0  0  0  0  0  0  0
    6.5245  -16.7204   21.8692 C   0  0  0  0  0  0  0  0  0  0  0  0
    6.9378  -15.2485   21.8079 C   0  0  2  0  0  0  0  0  0  0  0  0
    7.8296  -15.1371   20.6607 N   0  0  0  0  0  0  0  0  0  0  0  0
    7.6955  -14.8697   23.0402 C   0  0  0  0  0  0  0  0  0  0  0  0
    8.9370  -14.6956   22.9899 O   0  0  0  0  0  0  0  0  0  0  0  0
    8.1394  -11.4616   26.1317 C   0  0  0  0  0  0  0  0  0  0  0  0
    6.7385  -12.0566   26.1020 C   0  0  2  0  0  0  0  0  0  0  0  0
    5.7256  -11.2687   26.8589 C   0  0  0  0  0  0  0  0  0  0  0  0
    6.7137  -13.5277   26.2638 C   0  0  0  0  0  0  0  0  0  0  0  0
    7.7062  -14.3472   25.5302 C   0  0  2  0  0  0  0  0  0  0  0  0
    7.0355  -14.7036   24.2661 N   0  0  0  0  0  0  0  0  0  0  0  0
    8.1210  -15.6109   26.1312 C   0  0  0  0  0  0  0  0  0  0  0  0
    8.8026  -15.6396   27.1837 O   0  0  0  0  0  0  0  0  0  0  0  0
    7.7892  -16.9017   25.5770 N   0  0  0  0  0  0  0  0  0  0  0  0
    8.2051  -18.1078   26.2271 C   0  0  0  0  0  0  0  0  0  0  0  0
    7.6142  -19.3230   25.6294 C   0  0  0  0  0  0  0  0  0  0  0  0
    7.8064  -20.5742   26.1713 O   0  0  0  0  0  0  0  0  0  0  0  0
    6.9132  -19.2198   24.5941 O   0  0  0  0  0  0  0  0  0  0  0  0
  2  1  1  0
  3  2  1  0
  3  4  1  6
  5  3  1  0
  5  6  2  0
  8  7  1  1
  8 10  1  0
  9  8  1  0
 11 10  1  1
 11 12  1  0
 12  5  1  0
 13 11  1  0
 13 15  1  0
 14 13  2  0
 16 15  1  0
 16 17  1  0
 17 19  2  0
 17 18  1  0
M  END
$$$$
