SLG.pdb
     RDKit          3D

 19 18  0  0  1  0  0  0  0  0999 V2000
    9.0644  -18.0123   22.3191 O   0  0  0  0  0  0  0  0  0  0  0  0
    7.9087  -17.4842   21.7482 C   0  0  0  0  0  0  0  0  0  0  0  0
    8.1526  -16.0091   21.4230 C   0  0  2  0  0  0  0  0  0  0  0  0
    9.1791  -15.9981   20.3885 N   0  0  0  0  0  0  0  0  0  0  0  0
    8.6787  -15.2922   22.6252 C   0  0  0  0  0  0  0  0  0  0  0  0
    9.8980  -15.0085   22.7082 O   0  0  0  0  0  0  0  0  0  0  0  0
    5.6340  -12.2460   27.0215 C   0  0  0  0  0  0  0  0  0  0  0  0
    7.0121  -12.5475   26.4490 C   0  0  2  0  0  0  0  0  0  0  0  0
    7.9302  -11.3746   26.4209 C   0  0  0  0  0  0  0  0  0  0  0  0
    6.9812  -13.4145   25.2497 C   0  0  0  0  0  0  0  0  0  0  0  0
    8.2259  -14.0963   24.8248 C   0  0  2  0  0  0  0  0  0  0  0  0
    7.8234  -14.9266   23.6745 N   0  0  0  0  0  0  0  0  0  0  0  0
    8.8583  -15.0084   25.7727 C   0  0  0  0  0  0  0  0  0  0  0  0
    9.4146  -14.5842   26.8137 O   0  0  0  0  0  0  0  0  0  0  0  0
    8.8953  -16.4402   25.5945 N   0  0  0  0  0  0  0  0  0  0  0  0
    9.4010  -17.2949   26.6261 C   0  0  0  0  0  0  0  0  0  0  0  0
   10.7999  -17.7129   26.4000 C   0  0  0  0  0  0  0  0  0  0  0  0
   11.3742  -18.7559   27.0917 O   0  0  0  0  0  0  0  0  0  0  0  0
   11.4940  -17.1026   25.5515 O   0  0  0  0  0  0  0  0  0  0  0  0
  2  1  1  0
  3  2  1  0
  3  4  1  6
  5  3  1  0
  5  6  2  0
  8  7  1  6
  8 10  1  0
  9  8  1  0
 11 10  1  1
 11 12  1  0
 12  5  1  0
 13 11  1  0
 13 15  1  0
 14 13  2  0
 16 15  1  0
 16 17  1  0
 17 19  2  0
 17 18  1  0
M  END
$$$$
