SLG.pdb
     RDKit          3D

 19 18  0  0  1  0  0  0  0  0999 V2000
    7.6731  -17.5932   22.4343 O   0  0  0  0  0  0  0  0  0  0  0  0
    7.6955  -16.8345   21.2662 C   0  0  0  0  0  0  0  0  0  0  0  0
    7.1453  -15.4409   21.5762 C   0  0  2  0  0  0  0  0  0  0  0  0
    7.2648  -14.6851   20.3359 N   0  0  0  0  0  0  0  0  0  0  0  0
    7.9787  -14.7744   22.6237 C   0  0  0  0  0  0  0  0  0  0  0  0
    9.0237  -14.1588   22.3024 O   0  0  0  0  0  0  0  0  0  0  0  0
    7.5568  -11.2897   25.5541 C   0  0  0  0  0  0  0  0  0  0  0  0
    6.5994  -12.4335   25.8581 C   0  0  2  0  0  0  0  0  0  0  0  0
    5.5272  -12.0880   26.8331 C   0  0  0  0  0  0  0  0  0  0  0  0
    7.2701  -13.7428   26.0223 C   0  0  0  0  0  0  0  0  0  0  0  0
    8.3277  -14.1328   25.0609 C   0  0  2  0  0  0  0  0  0  0  0  0
    7.6091  -14.8255   23.9753 N   0  0  0  0  0  0  0  0  0  0  0  0
    9.3519  -15.0660   25.5196 C   0  0  0  0  0  0  0  0  0  0  0  0
   10.1348  -14.7678   26.4530 O   0  0  0  0  0  0  0  0  0  0  0  0
    9.5444  -16.3782   24.9501 N   0  0  0  0  0  0  0  0  0  0  0  0
   10.5959  -17.2322   25.4142 C   0  0  0  0  0  0  0  0  0  0  0  0
   10.2457  -17.9666   26.6476 C   0  0  0  0  0  0  0  0  0  0  0  0
   10.4070  -19.3295   26.7599 O   0  0  0  0  0  0  0  0  0  0  0  0
    9.7858  -17.3349   27.6291 O   0  0  0  0  0  0  0  0  0  0  0  0
  2  1  1  0
  3  2  1  0
  3  4  1  6
  5  3  1  0
  5  6  2  0
  8  7  1  1
  8 10  1  0
  9  8  1  0
 11 10  1  1
 11 12  1  0
 12  5  1  0
 13 11  1  0
 13 15  1  0
 14 13  2  0
 16 15  1  0
 16 17  1  0
 17 19  2  0
 17 18  1  0
M  END
$$$$
