SLG.pdb
     RDKit          3D

 19 18  0  0  1  0  0  0  0  0999 V2000
    6.7194  -17.7444   20.1114 O   0  0  0  0  0  0  0  0  0  0  0  0
    7.0518  -17.0676   21.2827 C   0  0  0  0  0  0  0  0  0  0  0  0
    6.8460  -15.5682   21.0576 C   0  0  2  0  0  0  0  0  0  0  0  0
    7.4047  -15.2870   19.7413 N   0  0  0  0  0  0  0  0  0  0  0  0
    7.6056  -14.7807   22.0768 C   0  0  0  0  0  0  0  0  0  0  0  0
    8.7320  -14.3045   21.7962 O   0  0  0  0  0  0  0  0  0  0  0  0
    5.6188  -12.0102   27.1705 C   0  0  0  0  0  0  0  0  0  0  0  0
    6.8166  -12.2006   26.2505 C   0  0  2  0  0  0  0  0  0  0  0  0
    7.5812  -10.9511   25.9789 C   0  0  0  0  0  0  0  0  0  0  0  0
    6.5483  -13.0955   25.1024 C   0  0  0  0  0  0  0  0  0  0  0  0
    7.6926  -13.6924   24.3750 C   0  0  2  0  0  0  0  0  0  0  0  0
    7.0754  -14.5621   23.3564 N   0  0  0  0  0  0  0  0  0  0  0  0
    8.6052  -14.5468   25.1283 C   0  0  0  0  0  0  0  0  0  0  0  0
    9.2927  -14.0925   26.0738 O   0  0  0  0  0  0  0  0  0  0  0  0
    8.7879  -15.9519   24.8538 N   0  0  0  0  0  0  0  0  0  0  0  0
    9.6420  -16.7549   25.6761 C   0  0  0  0  0  0  0  0  0  0  0  0
   10.9755  -16.9809   25.0813 C   0  0  0  0  0  0  0  0  0  0  0  0
   11.3774  -16.3536   23.9233 O   0  0  0  0  0  0  0  0  0  0  0  0
   11.7735  -17.7688   25.6438 O   0  0  0  0  0  0  0  0  0  0  0  0
  2  1  1  0
  3  2  1  0
  3  4  1  6
  5  3  1  0
  5  6  2  0
  8  7  1  6
  8 10  1  0
  9  8  1  0
 11 10  1  1
 11 12  1  0
 12  5  1  0
 13 11  1  0
 13 15  1  0
 14 13  2  0
 16 15  1  0
 16 17  1  0
 17 19  2  0
 17 18  1  0
M  END
$$$$
