SLG.pdb
     RDKit          3D

 19 18  0  0  1  0  0  0  0  0999 V2000
    8.7922  -17.1792   21.7355 O   0  0  0  0  0  0  0  0  0  0  0  0
    7.4319  -16.8844   21.7923 C   0  0  0  0  0  0  0  0  0  0  0  0
    7.2558  -15.3664   21.7173 C   0  0  2  0  0  0  0  0  0  0  0  0
    7.8273  -14.9661   20.4378 N   0  0  0  0  0  0  0  0  0  0  0  0
    8.0242  -14.6994   22.8131 C   0  0  0  0  0  0  0  0  0  0  0  0
    9.0865  -14.0835   22.5554 O   0  0  0  0  0  0  0  0  0  0  0  0
    7.6296  -11.2024   25.7844 C   0  0  0  0  0  0  0  0  0  0  0  0
    6.5593  -12.2603   26.0144 C   0  0  2  0  0  0  0  0  0  0  0  0
    5.4957  -11.8524   26.9746 C   0  0  0  0  0  0  0  0  0  0  0  0
    7.0976  -13.6333   26.1406 C   0  0  0  0  0  0  0  0  0  0  0  0
    8.2183  -14.0480   25.2649 C   0  0  2  0  0  0  0  0  0  0  0  0
    7.5735  -14.7504   24.1399 N   0  0  0  0  0  0  0  0  0  0  0  0
    9.1965  -14.9837   25.8107 C   0  0  0  0  0  0  0  0  0  0  0  0
    9.8217  -14.7303   26.8681 O   0  0  0  0  0  0  0  0  0  0  0  0
    9.5180  -16.2480   25.1932 N   0  0  0  0  0  0  0  0  0  0  0  0
   10.4599  -17.1412   25.7979 C   0  0  0  0  0  0  0  0  0  0  0  0
   10.6624  -18.3829   25.0233 C   0  0  0  0  0  0  0  0  0  0  0  0
   10.6035  -19.6287   25.6069 O   0  0  0  0  0  0  0  0  0  0  0  0
   10.8960  -18.3083   23.7929 O   0  0  0  0  0  0  0  0  0  0  0  0
  2  1  1  0
  3  2  1  0
  3  4  1  6
  5  3  1  0
  5  6  2  0
  8  7  1  1
  8 10  1  0
  9  8  1  0
 11 10  1  1
 11 12  1  0
 12  5  1  0
 13 11  1  0
 13 15  1  0
 14 13  2  0
 16 15  1  0
 16 17  1  0
 17 19  2  0
 17 18  1  0
M  END
$$$$
