SLG.pdb
     RDKit          3D

 19 18  0  0  1  0  0  0  0  0999 V2000
    7.7842  -17.3227   20.4377 O   0  0  0  0  0  0  0  0  0  0  0  0
    7.5730  -16.9083   21.7508 C   0  0  0  0  0  0  0  0  0  0  0  0
    7.5172  -15.3795   21.7792 C   0  0  2  0  0  0  0  0  0  0  0  0
    8.2350  -14.9368   20.5907 N   0  0  0  0  0  0  0  0  0  0  0  0
    8.2256  -14.8561   22.9876 C   0  0  0  0  0  0  0  0  0  0  0  0
    9.4214  -14.4848   22.9074 O   0  0  0  0  0  0  0  0  0  0  0  0
    7.7062  -11.3594   25.7686 C   0  0  0  0  0  0  0  0  0  0  0  0
    6.5931  -12.3785   25.9687 C   0  0  2  0  0  0  0  0  0  0  0  0
    5.4417  -11.8743   26.7686 C   0  0  0  0  0  0  0  0  0  0  0  0
    7.0827  -13.7428   26.2689 C   0  0  0  0  0  0  0  0  0  0  0  0
    8.2005  -14.2961   25.4693 C   0  0  2  0  0  0  0  0  0  0  0  0
    7.5697  -14.7716   24.2240 N   0  0  0  0  0  0  0  0  0  0  0  0
    8.9223  -15.4421   26.0131 C   0  0  0  0  0  0  0  0  0  0  0  0
    9.5315  -15.3697   27.1071 O   0  0  0  0  0  0  0  0  0  0  0  0
    8.9936  -16.7234   25.3523 N   0  0  0  0  0  0  0  0  0  0  0  0
    9.6870  -17.8218   25.9548 C   0  0  0  0  0  0  0  0  0  0  0  0
   11.1476  -17.7762   25.7371 C   0  0  0  0  0  0  0  0  0  0  0  0
   11.9738  -18.8207   26.0870 O   0  0  0  0  0  0  0  0  0  0  0  0
   11.6596  -16.7557   25.2168 O   0  0  0  0  0  0  0  0  0  0  0  0
  2  1  1  0
  3  2  1  0
  3  4  1  6
  5  3  1  0
  5  6  2  0
  8  7  1  1
  8 10  1  0
  9  8  1  0
 11 10  1  1
 11 12  1  0
 12  5  1  0
 13 11  1  0
 13 15  1  0
 14 13  2  0
 16 15  1  0
 16 17  1  0
 17 19  2  0
 17 18  1  0
M  END
$$$$
