SLG.pdb
     RDKit          3D

 19 18  0  0  1  0  0  0  0  0999 V2000
    7.6754  -17.6780   22.4793 O   0  0  0  0  0  0  0  0  0  0  0  0
    7.6798  -17.1652   21.1841 C   0  0  0  0  0  0  0  0  0  0  0  0
    6.9952  -15.7969   21.1965 C   0  0  2  0  0  0  0  0  0  0  0  0
    7.1485  -15.2674   19.8474 N   0  0  0  0  0  0  0  0  0  0  0  0
    7.6877  -14.8780   22.1516 C   0  0  0  0  0  0  0  0  0  0  0  0
    8.6738  -14.2005   21.7738 O   0  0  0  0  0  0  0  0  0  0  0  0
    5.8224  -12.2934   27.3843 C   0  0  0  0  0  0  0  0  0  0  0  0
    7.0017  -12.4815   26.4401 C   0  0  2  0  0  0  0  0  0  0  0  0
    7.7039  -11.2170   26.0827 C   0  0  0  0  0  0  0  0  0  0  0  0
    6.7409  -13.4455   25.3476 C   0  0  0  0  0  0  0  0  0  0  0  0
    7.8649  -13.8686   24.4803 C   0  0  2  0  0  0  0  0  0  0  0  0
    7.2495  -14.7583   23.4781 N   0  0  0  0  0  0  0  0  0  0  0  0
    8.9411  -14.6417   25.0920 C   0  0  0  0  0  0  0  0  0  0  0  0
    9.7112  -14.1300   25.9395 O   0  0  0  0  0  0  0  0  0  0  0  0
    9.2024  -16.0264   24.7795 N   0  0  0  0  0  0  0  0  0  0  0  0
   10.3517  -16.6942   25.3119 C   0  0  0  0  0  0  0  0  0  0  0  0
   10.0746  -17.4095   26.5746 C   0  0  0  0  0  0  0  0  0  0  0  0
   11.0291  -18.1722   27.2097 O   0  0  0  0  0  0  0  0  0  0  0  0
    8.9347  -17.3241   27.0917 O   0  0  0  0  0  0  0  0  0  0  0  0
  2  1  1  0
  3  2  1  0
  3  4  1  6
  5  3  1  0
  5  6  2  0
  8  7  1  6
  8 10  1  0
  9  8  1  0
 11 10  1  1
 11 12  1  0
 12  5  1  0
 13 11  1  0
 13 15  1  0
 14 13  2  0
 16 15  1  0
 16 17  1  0
 17 19  2  0
 17 18  1  0
M  END
$$$$
