SLG.pdb
     RDKit          3D

 19 18  0  0  1  0  0  0  0  0999 V2000
    8.9115  -17.3544   22.0855 O   0  0  0  0  0  0  0  0  0  0  0  0
    7.5757  -17.0111   21.8899 C   0  0  0  0  0  0  0  0  0  0  0  0
    7.4753  -15.4904   21.7535 C   0  0  2  0  0  0  0  0  0  0  0  0
    8.1532  -15.1611   20.5061 N   0  0  0  0  0  0  0  0  0  0  0  0
    8.1947  -14.8192   22.8795 C   0  0  0  0  0  0  0  0  0  0  0  0
    9.3246  -14.3072   22.6913 O   0  0  0  0  0  0  0  0  0  0  0  0
    7.6334  -11.1077   25.6911 C   0  0  0  0  0  0  0  0  0  0  0  0
    6.5170  -12.1301   25.8516 C   0  0  2  0  0  0  0  0  0  0  0  0
    5.3914  -11.6731   26.7140 C   0  0  0  0  0  0  0  0  0  0  0  0
    7.0022  -13.5150   26.0460 C   0  0  0  0  0  0  0  0  0  0  0  0
    8.1836  -13.9756   25.2798 C   0  0  2  0  0  0  0  0  0  0  0  0
    7.6224  -14.7507   24.1577 N   0  0  0  0  0  0  0  0  0  0  0  0
    9.1223  -14.8692   25.9511 C   0  0  0  0  0  0  0  0  0  0  0  0
    9.6919  -14.5348   27.0173 O   0  0  0  0  0  0  0  0  0  0  0  0
    9.4650  -16.1805   25.4550 N   0  0  0  0  0  0  0  0  0  0  0  0
   10.3825  -17.0177   26.1677 C   0  0  0  0  0  0  0  0  0  0  0  0
   10.5264  -18.3614   25.5706 C   0  0  0  0  0  0  0  0  0  0  0  0
    9.9379  -18.6977   24.3720 O   0  0  0  0  0  0  0  0  0  0  0  0
   11.2056  -19.2301   26.1690 O   0  0  0  0  0  0  0  0  0  0  0  0
  2  1  1  0
  3  2  1  0
  3  4  1  6
  5  3  1  0
  5  6  2  0
  8  7  1  1
  8 10  1  0
  9  8  1  0
 11 10  1  1
 11 12  1  0
 12  5  1  0
 13 11  1  0
 13 15  1  0
 14 13  2  0
 16 15  1  0
 16 17  1  0
 17 19  2  0
 17 18  1  0
M  END
$$$$
