SLG.pdb
     RDKit          3D

 19 18  0  0  1  0  0  0  0  0999 V2000
    5.6929  -17.5812   21.4640 O   0  0  0  0  0  0  0  0  0  0  0  0
    6.9253  -17.0024   21.7583 C   0  0  0  0  0  0  0  0  0  0  0  0
    6.7545  -15.4826   21.8050 C   0  0  2  0  0  0  0  0  0  0  0  0
    7.0495  -15.0114   20.4578 N   0  0  0  0  0  0  0  0  0  0  0  0
    7.7430  -14.8774   22.7497 C   0  0  0  0  0  0  0  0  0  0  0  0
    8.8222  -14.4052   22.3178 O   0  0  0  0  0  0  0  0  0  0  0  0
    7.4401  -11.2589   25.4160 C   0  0  0  0  0  0  0  0  0  0  0  0
    6.6039  -12.4282   25.9172 C   0  0  2  0  0  0  0  0  0  0  0  0
    5.5890  -12.0564   26.9426 C   0  0  0  0  0  0  0  0  0  0  0  0
    7.3875  -13.6615   26.1536 C   0  0  0  0  0  0  0  0  0  0  0  0
    8.3296  -14.1246   25.1082 C   0  0  2  0  0  0  0  0  0  0  0  0
    7.4826  -14.8273   24.1266 N   0  0  0  0  0  0  0  0  0  0  0  0
    9.3622  -15.0791   25.4990 C   0  0  0  0  0  0  0  0  0  0  0  0
   10.2782  -14.7596   26.2941 O   0  0  0  0  0  0  0  0  0  0  0  0
    9.4139  -16.4376   25.0141 N   0  0  0  0  0  0  0  0  0  0  0  0
   10.4922  -17.3061   25.3790 C   0  0  0  0  0  0  0  0  0  0  0  0
   10.5022  -17.6470   26.8166 C   0  0  0  0  0  0  0  0  0  0  0  0
   11.6728  -17.8201   27.5208 O   0  0  0  0  0  0  0  0  0  0  0  0
    9.4125  -17.7849   27.4229 O   0  0  0  0  0  0  0  0  0  0  0  0
  2  1  1  0
  3  2  1  0
  3  4  1  6
  5  3  1  0
  5  6  2  0
  8  7  1  1
  8 10  1  0
  9  8  1  0
 11 10  1  1
 11 12  1  0
 12  5  1  0
 13 11  1  0
 13 15  1  0
 14 13  2  0
 16 15  1  0
 16 17  1  0
 17 19  2  0
 17 18  1  0
M  END
$$$$
