SLG.pdb
     RDKit          3D

 19 18  0  0  1  0  0  0  0  0999 V2000
    8.0044  -18.0797   22.8474 O   0  0  0  0  0  0  0  0  0  0  0  0
    6.9335  -17.4537   22.2135 C   0  0  0  0  0  0  0  0  0  0  0  0
    7.2557  -15.9656   22.0617 C   0  0  2  0  0  0  0  0  0  0  0  0
    8.1580  -15.8722   20.9211 N   0  0  0  0  0  0  0  0  0  0  0  0
    7.9676  -15.4616   23.2763 C   0  0  0  0  0  0  0  0  0  0  0  0
    9.2110  -15.2952   23.2562 O   0  0  0  0  0  0  0  0  0  0  0  0
    8.0542  -11.6080   26.0189 C   0  0  0  0  0  0  0  0  0  0  0  0
    6.7055  -12.3114   25.9580 C   0  0  2  0  0  0  0  0  0  0  0  0
    5.5880  -11.5407   26.5719 C   0  0  0  0  0  0  0  0  0  0  0  0
    6.7760  -13.7594   26.2566 C   0  0  0  0  0  0  0  0  0  0  0  0
    7.8646  -14.5641   25.6548 C   0  0  2  0  0  0  0  0  0  0  0  0
    7.2620  -15.1679   24.4519 N   0  0  0  0  0  0  0  0  0  0  0  0
    8.3978  -15.6767   26.4346 C   0  0  0  0  0  0  0  0  0  0  0  0
    9.1205  -15.4804   27.4407 O   0  0  0  0  0  0  0  0  0  0  0  0
    8.1438  -17.0621   26.1197 N   0  0  0  0  0  0  0  0  0  0  0  0
    8.5860  -18.1061   26.9943 C   0  0  0  0  0  0  0  0  0  0  0  0
    8.0668  -19.4373   26.6184 C   0  0  0  0  0  0  0  0  0  0  0  0
    8.2943  -20.5567   27.3874 O   0  0  0  0  0  0  0  0  0  0  0  0
    7.3958  -19.5602   25.5655 O   0  0  0  0  0  0  0  0  0  0  0  0
  2  1  1  0
  3  2  1  0
  3  4  1  6
  5  3  1  0
  5  6  2  0
  8  7  1  1
  8 10  1  0
  9  8  1  0
 11 10  1  1
 11 12  1  0
 12  5  1  0
 13 11  1  0
 13 15  1  0
 14 13  2  0
 16 15  1  0
 16 17  1  0
 17 19  2  0
 17 18  1  0
M  END
$$$$
