SLG.pdb
     RDKit          3D

 19 18  0  0  1  0  0  0  0  0999 V2000
   10.6156  -19.3858   17.6880 O   0  0  0  0  0  0  0  0  0  0  0  0
    9.5295  -18.7581   17.0823 C   0  0  0  0  0  0  0  0  0  0  0  0
    9.9571  -17.3570   16.6404 C   0  0  2  0  0  0  0  0  0  0  0  0
   11.1203  -17.5517   15.7842 N   0  0  0  0  0  0  0  0  0  0  0  0
   10.3671  -16.5412   17.8246 C   0  0  0  0  0  0  0  0  0  0  0  0
   11.5686  -16.2155   17.9820 O   0  0  0  0  0  0  0  0  0  0  0  0
    7.0363  -12.4514   20.3707 C   0  0  0  0  0  0  0  0  0  0  0  0
    8.4150  -13.0474   20.1224 C   0  0  2  0  0  0  0  0  0  0  0  0
    9.1764  -12.3858   19.0260 C   0  0  0  0  0  0  0  0  0  0  0  0
    8.4408  -14.5266   20.1704 C   0  0  0  0  0  0  0  0  0  0  0  0
    9.7171  -15.2310   19.9065 C   0  0  2  0  0  0  0  0  0  0  0  0
    9.4216  -16.1284   18.7742 N   0  0  0  0  0  0  0  0  0  0  0  0
   10.2527  -16.0847   20.9622 C   0  0  0  0  0  0  0  0  0  0  0  0
    9.6604  -17.1316   21.3175 O   0  0  0  0  0  0  0  0  0  0  0  0
   11.4792  -15.8014   21.6683 N   0  0  0  0  0  0  0  0  0  0  0  0
   12.0154  -16.7361   22.6113 C   0  0  0  0  0  0  0  0  0  0  0  0
   13.2401  -16.2493   23.2791 C   0  0  0  0  0  0  0  0  0  0  0  0
   13.2884  -16.0036   24.6332 O   0  0  0  0  0  0  0  0  0  0  0  0
   14.2743  -16.0507   22.5971 O   0  0  0  0  0  0  0  0  0  0  0  0
  2  1  1  0
  3  2  1  0
  3  4  1  6
  5  3  1  0
  5  6  2  0
  8  7  1  6
  8 10  1  0
  9  8  1  0
 11 10  1  1
 11 12  1  0
 12  5  1  0
 13 11  1  0
 13 15  1  0
 14 13  2  0
 16 15  1  0
 16 17  1  0
 17 19  2  0
 17 18  1  0
M  END
$$$$
