SLG.pdb
     RDKit          3D

 19 18  0  0  1  0  0  0  0  0999 V2000
    8.5617  -17.4488   22.0450 O   0  0  0  0  0  0  0  0  0  0  0  0
    7.2235  -17.0790   21.9308 C   0  0  0  0  0  0  0  0  0  0  0  0
    7.1467  -15.5589   21.7748 C   0  0  2  0  0  0  0  0  0  0  0  0
    7.6862  -15.2708   20.4520 N   0  0  0  0  0  0  0  0  0  0  0  0
    8.0062  -14.8874   22.7977 C   0  0  0  0  0  0  0  0  0  0  0  0
    9.0964  -14.3649   22.4621 O   0  0  0  0  0  0  0  0  0  0  0  0
    7.5180  -11.2788   25.5035 C   0  0  0  0  0  0  0  0  0  0  0  0
    6.6134  -12.4335   25.9110 C   0  0  2  0  0  0  0  0  0  0  0  0
    5.5369  -12.0555   26.8691 C   0  0  0  0  0  0  0  0  0  0  0  0
    7.3411  -13.6959   26.1709 C   0  0  0  0  0  0  0  0  0  0  0  0
    8.3699  -14.1435   25.2034 C   0  0  2  0  0  0  0  0  0  0  0  0
    7.6111  -14.8304   24.1418 N   0  0  0  0  0  0  0  0  0  0  0  0
    9.3658  -15.1045   25.6669 C   0  0  0  0  0  0  0  0  0  0  0  0
   10.2049  -14.8003   26.5480 O   0  0  0  0  0  0  0  0  0  0  0  0
    9.4653  -16.4527   25.1613 N   0  0  0  0  0  0  0  0  0  0  0  0
   10.4772  -17.3440   25.6431 C   0  0  0  0  0  0  0  0  0  0  0  0
   10.0923  -18.0410   26.8877 C   0  0  0  0  0  0  0  0  0  0  0  0
   10.8995  -18.0485   28.0032 O   0  0  0  0  0  0  0  0  0  0  0  0
    8.9956  -18.6482   26.9378 O   0  0  0  0  0  0  0  0  0  0  0  0
  2  1  1  0
  3  2  1  0
  3  4  1  6
  5  3  1  0
  5  6  2  0
  8  7  1  1
  8 10  1  0
  9  8  1  0
 11 10  1  1
 11 12  1  0
 12  5  1  0
 13 11  1  0
 13 15  1  0
 14 13  2  0
 16 15  1  0
 16 17  1  0
 17 19  2  0
 17 18  1  0
M  END
$$$$
