SLG.pdb
     RDKit          3D

 19 18  0  0  1  0  0  0  0  0999 V2000
    8.2722  -19.4677   25.1872 O   0  0  0  0  0  0  0  0  0  0  0  0
    7.0589  -19.3277   25.8572 C   0  0  0  0  0  0  0  0  0  0  0  0
    6.1461  -18.4175   25.0329 C   0  0  2  0  0  0  0  0  0  0  0  0
    5.8258  -19.1692   23.8262 N   0  0  0  0  0  0  0  0  0  0  0  0
    6.8726  -17.1710   24.6402 C   0  0  0  0  0  0  0  0  0  0  0  0
    7.1960  -16.9787   23.4433 O   0  0  0  0  0  0  0  0  0  0  0  0
    6.7315  -12.3214   24.5940 C   0  0  0  0  0  0  0  0  0  0  0  0
    6.4561  -13.0002   25.9285 C   0  0  2  0  0  0  0  0  0  0  0  0
    5.9614  -12.0793   26.9901 C   0  0  0  0  0  0  0  0  0  0  0  0
    7.4853  -13.9914   26.3151 C   0  0  0  0  0  0  0  0  0  0  0  0
    7.9568  -14.9674   25.3052 C   0  0  2  0  0  0  0  0  0  0  0  0
    7.2032  -16.2009   25.5973 N   0  0  0  0  0  0  0  0  0  0  0  0
    9.3662  -15.3457   25.3324 C   0  0  0  0  0  0  0  0  0  0  0  0
   10.2623  -14.5489   24.9646 O   0  0  0  0  0  0  0  0  0  0  0  0
    9.8343  -16.6376   25.7740 N   0  0  0  0  0  0  0  0  0  0  0  0
   11.2304  -16.9557   25.7606 C   0  0  0  0  0  0  0  0  0  0  0  0
   11.5157  -18.3356   26.2050 C   0  0  0  0  0  0  0  0  0  0  0  0
   12.7920  -18.7627   26.4963 O   0  0  0  0  0  0  0  0  0  0  0  0
   10.5696  -19.1510   26.3233 O   0  0  0  0  0  0  0  0  0  0  0  0
  2  1  1  0
  3  2  1  0
  3  4  1  6
  5  3  1  0
  5  6  2  0
  8  7  1  6
  8 10  1  0
  9  8  1  0
 11 10  1  1
 11 12  1  0
 12  5  1  0
 13 11  1  0
 13 15  1  0
 14 13  2  0
 16 15  1  0
 16 17  1  0
 17 19  2  0
 17 18  1  0
M  END
$$$$
