YRY.pdb
     RDKit          3D

 36 37  0  0  1  0  0  0  0  0999 V2000
   21.2751  -21.1447  -14.2562 O   0  0  0  0  0  0  0  0  0  0  0  0
   20.6992  -22.3843  -13.9133 C   0  0  0  0  0  0  0  0  0  0  0  0
   20.8733  -23.4842  -14.7307 C   0  0  0  0  0  0  0  0  0  0  0  0
   20.2982  -24.6825  -14.3684 C   0  0  0  0  0  0  0  0  0  0  0  0
   19.5511  -24.8269  -13.2148 C   0  0  0  0  0  0  0  0  0  0  0  0
   18.9333  -26.1484  -12.8442 C   0  0  0  0  0  0  0  0  0  0  0  0
   19.8172  -26.7350  -11.7834 C   0  0  2  0  0  0  0  0  0  0  0  0
   20.8205  -27.5800  -12.3983 N   0  0  0  0  0  0  0  0  0  0  0  0
   19.0798  -27.5266  -10.7678 C   0  0  0  0  0  0  0  0  0  0  0  0
   18.8292  -28.7543  -10.9101 O   0  0  0  0  0  0  0  0  0  0  0  0
   19.3976  -23.7105  -12.4235 C   0  0  0  0  0  0  0  0  0  0  0  0
   19.9665  -22.5049  -12.7718 C   0  0  0  0  0  0  0  0  0  0  0  0
   16.2041  -25.0773   -3.7231 N   0  0  0  0  0  0  0  0  0  0  0  0
   17.4604  -25.7713   -3.7435 C   0  0  0  0  0  0  0  0  0  0  0  0
   17.8397  -26.5060   -2.7575 N   0  0  0  0  0  0  0  0  0  0  0  0
   18.3328  -25.6680   -4.8624 N   0  0  0  0  0  0  0  0  0  0  0  0
   18.0946  -24.7387   -5.9221 C   0  0  0  0  0  0  0  0  0  0  0  0
   17.8105  -25.4094   -7.2615 C   0  0  0  0  0  0  0  0  0  0  0  0
   18.2735  -26.8256   -7.2681 C   0  0  0  0  0  0  0  0  0  0  0  0
   17.9082  -27.5536   -8.5349 C   0  0  2  0  0  0  0  0  0  0  0  0
   18.6409  -26.8893   -9.5996 N   0  0  0  0  0  0  0  0  0  0  0  0
   16.4862  -27.6835   -8.8098 C   0  0  0  0  0  0  0  0  0  0  0  0
   15.8208  -26.7248   -9.2805 O   0  0  0  0  0  0  0  0  0  0  0  0
   18.7445  -27.0150   -2.8546 O   0  0  0  0  0  0  0  0  0  0  0  0
   15.9389  -30.5074  -14.7153 C   0  0  0  0  0  0  0  0  0  0  0  0
   15.4284  -30.4298  -13.4310 C   0  0  0  0  0  0  0  0  0  0  0  0
   16.0630  -31.1312  -12.4172 C   0  0  0  0  0  0  0  0  0  0  0  0
   15.5647  -31.0605  -11.1415 C   0  0  0  0  0  0  0  0  0  0  0  0
   14.4533  -30.3179  -10.8198 C   0  0  0  0  0  0  0  0  0  0  0  0
   13.8898  -30.2218   -9.4552 C   0  0  2  0  0  0  0  0  0  0  0  0
   14.2883  -28.9637   -8.7569 N   0  0  0  0  0  0  0  0  0  0  0  0
   15.7386  -28.8845   -8.5740 C   0  0  0  0  0  0  0  0  0  0  0  0
   13.5802  -28.6855   -7.5079 O   0  0  0  0  0  0  0  0  0  0  0  0
   14.2685  -28.4611   -6.3007 C   0  0  0  0  0  0  0  0  0  0  0  0
   13.8252  -29.6191  -11.8435 C   0  0  0  0  0  0  0  0  0  0  0  0
   14.3100  -29.6781  -13.1268 O   0  0  0  0  0  0  0  0  0  0  0  0
  2 12  2  0
  2  1  1  0
  3  2  1  0
  4  5  1  0
  4  3  2  0
  5 11  2  0
  6  5  1  0
  7  6  1  0
  7  8  1  6
  9  7  1  0
  9 10  2  0
 11 12  1  0
 14 13  1  0
 15 14  2  0
 16 14  1  0
 17 16  1  0
 18 17  1  0
 18 19  1  0
 20 19  1  1
 20 21  1  0
 21  9  1  0
 22 20  1  0
 23 22  2  0
 24 25  1  0
 25 26  2  0
 25 35  1  0
 26 27  1  0
 27 28  2  0
 28 29  1  0
 30 29  1  6
 30 31  1  0
 31 22  1  0
 32 33  1  0
 32 30  1  0
 34 28  1  0
 35 34  2  0
 36 32  2  0
M  END
$$$$
