YRY.pdb
     RDKit          3D

 36 37  0  0  1  0  0  0  0  0999 V2000
   15.8761  -21.1000  -22.4423 O   0  0  0  0  0  0  0  0  0  0  0  0
   16.4703  -21.4167  -21.2044 C   0  0  0  0  0  0  0  0  0  0  0  0
   17.4765  -20.6221  -20.6902 C   0  0  0  0  0  0  0  0  0  0  0  0
   18.0377  -20.9574  -19.4775 C   0  0  0  0  0  0  0  0  0  0  0  0
   17.6313  -22.0621  -18.7534 C   0  0  0  0  0  0  0  0  0  0  0  0
   18.2631  -22.4052  -17.4310 C   0  0  0  0  0  0  0  0  0  0  0  0
   19.4567  -23.2557  -17.7513 C   0  0  2  0  0  0  0  0  0  0  0  0
   19.0214  -24.5901  -18.1099 N   0  0  0  0  0  0  0  0  0  0  0  0
   20.4324  -23.3521  -16.6376 C   0  0  0  0  0  0  0  0  0  0  0  0
   20.2962  -24.1608  -15.6796 O   0  0  0  0  0  0  0  0  0  0  0  0
   16.6265  -22.8320  -19.2953 C   0  0  0  0  0  0  0  0  0  0  0  0
   16.0549  -22.5100  -20.5069 C   0  0  0  0  0  0  0  0  0  0  0  0
   28.3907  -22.4219  -16.6758 N   0  0  0  0  0  0  0  0  0  0  0  0
   27.3748  -21.9993  -17.5975 C   0  0  0  0  0  0  0  0  0  0  0  0
   27.4929  -22.1919  -18.8643 N   0  0  0  0  0  0  0  0  0  0  0  0
   26.1965  -21.3492  -17.1367 N   0  0  0  0  0  0  0  0  0  0  0  0
   26.0477  -20.9299  -15.7783 C   0  0  0  0  0  0  0  0  0  0  0  0
   24.7576  -21.4222  -15.1318 C   0  0  0  0  0  0  0  0  0  0  0  0
   23.7727  -21.8680  -16.1572 C   0  0  0  0  0  0  0  0  0  0  0  0
   22.5074  -22.4166  -15.5521 C   0  0  2  0  0  0  0  0  0  0  0  0
   21.5542  -22.5125  -16.6447 N   0  0  0  0  0  0  0  0  0  0  0  0
   21.9886  -21.7005  -14.3976 C   0  0  0  0  0  0  0  0  0  0  0  0
   21.3487  -20.6250  -14.5286 O   0  0  0  0  0  0  0  0  0  0  0  0
   26.7062  -21.8832  -19.4752 O   0  0  0  0  0  0  0  0  0  0  0  0
   27.5166  -20.1488   -9.7289 C   0  0  0  0  0  0  0  0  0  0  0  0
   26.2149  -20.5711   -9.9366 C   0  0  0  0  0  0  0  0  0  0  0  0
   25.9781  -21.5700  -10.8687 C   0  0  0  0  0  0  0  0  0  0  0  0
   24.6917  -21.9951  -11.0814 C   0  0  0  0  0  0  0  0  0  0  0  0
   23.6160  -21.4700  -10.4050 C   0  0  0  0  0  0  0  0  0  0  0  0
   22.2171  -21.9049  -10.6119 C   0  0  1  0  0  0  0  0  0  0  0  0
   21.6431  -21.4013  -11.8949 N   0  0  0  0  0  0  0  0  0  0  0  0
   22.1573  -22.1467  -13.0451 C   0  0  0  0  0  0  0  0  0  0  0  0
   21.7479  -19.9583  -12.1080 O   0  0  0  0  0  0  0  0  0  0  0  0
   22.6607  -19.4102  -13.0289 C   0  0  0  0  0  0  0  0  0  0  0  0
   23.8649  -20.4696   -9.4733 C   0  0  0  0  0  0  0  0  0  0  0  0
   25.1464  -20.0314   -9.2472 O   0  0  0  0  0  0  0  0  0  0  0  0
  2 12  2  0
  2  1  1  0
  3  2  1  0
  4  5  1  0
  4  3  2  0
  5 11  2  0
  6  5  1  0
  7  6  1  0
  7  8  1  1
  9  7  1  0
  9 10  2  0
 11 12  1  0
 14 13  1  0
 15 14  2  0
 16 14  1  0
 17 16  1  0
 18 17  1  0
 18 19  1  0
 20 19  1  6
 20 21  1  0
 21  9  1  0
 22 20  1  0
 23 22  2  0
 24 25  1  0
 25 26  2  0
 25 35  1  0
 26 27  1  0
 27 28  2  0
 28 29  1  0
 30 29  1  1
 30 31  1  0
 31 22  1  0
 32 33  1  0
 32 30  1  0
 34 28  1  0
 35 34  2  0
 36 32  2  0
M  END
$$$$
