YRY.pdb
     RDKit          3D

 36 37  0  0  1  0  0  0  0  0999 V2000
   29.3065  -20.6659   -3.5287 O   0  0  0  0  0  0  0  0  0  0  0  0
   28.6912  -20.3652   -4.7603 C   0  0  0  0  0  0  0  0  0  0  0  0
   27.6099  -21.1047   -5.1986 C   0  0  0  0  0  0  0  0  0  0  0  0
   27.0296  -20.7864   -6.4068 C   0  0  0  0  0  0  0  0  0  0  0  0
   27.4893  -19.7523   -7.1999 C   0  0  0  0  0  0  0  0  0  0  0  0
   26.8362  -19.4273   -8.5164 C   0  0  0  0  0  0  0  0  0  0  0  0
   26.9213  -20.6783   -9.3401 C   0  0  2  0  0  0  0  0  0  0  0  0
   28.3108  -21.0366   -9.5389 N   0  0  0  0  0  0  0  0  0  0  0  0
   26.2613  -20.5628  -10.6641 C   0  0  0  0  0  0  0  0  0  0  0  0
   26.7734  -19.9325  -11.6289 O   0  0  0  0  0  0  0  0  0  0  0  0
   28.5687  -19.0361   -6.7328 C   0  0  0  0  0  0  0  0  0  0  0  0
   29.1602  -19.3418   -5.5265 C   0  0  0  0  0  0  0  0  0  0  0  0
   27.8920  -23.2931  -16.0971 N   0  0  0  0  0  0  0  0  0  0  0  0
   26.5877  -22.9198  -16.5658 C   0  0  0  0  0  0  0  0  0  0  0  0
   26.1816  -23.2324  -17.7461 N   0  0  0  0  0  0  0  0  0  0  0  0
   25.6960  -22.1867  -15.7346 N   0  0  0  0  0  0  0  0  0  0  0  0
   26.1006  -21.6693  -14.4650 C   0  0  0  0  0  0  0  0  0  0  0  0
   25.8348  -22.6279  -13.3095 C   0  0  0  0  0  0  0  0  0  0  0  0
   24.4593  -22.4525  -12.7644 C   0  0  0  0  0  0  0  0  0  0  0  0
   24.2614  -21.1171  -12.0967 C   0  0  2  0  0  0  0  0  0  0  0  0
   25.0169  -21.1776  -10.8569 N   0  0  0  0  0  0  0  0  0  0  0  0
   22.8826  -20.6943  -11.9098 C   0  0  0  0  0  0  0  0  0  0  0  0
   21.9850  -21.5150  -11.5869 O   0  0  0  0  0  0  0  0  0  0  0  0
   25.1960  -23.0002  -17.9950 O   0  0  0  0  0  0  0  0  0  0  0  0
   15.8136  -16.3407  -14.9489 C   0  0  0  0  0  0  0  0  0  0  0  0
   17.0944  -16.6913  -14.5583 C   0  0  0  0  0  0  0  0  0  0  0  0
   17.3947  -16.7210  -13.2050 C   0  0  0  0  0  0  0  0  0  0  0  0
   18.6610  -17.0672  -12.8083 C   0  0  0  0  0  0  0  0  0  0  0  0
   19.6556  -17.3893  -13.7013 C   0  0  0  0  0  0  0  0  0  0  0  0
   21.0310  -17.7653  -13.3065 C   0  0  2  0  0  0  0  0  0  0  0  0
   21.0700  -18.9975  -12.4643 N   0  0  0  0  0  0  0  0  0  0  0  0
   22.4384  -19.3405  -12.0734 C   0  0  0  0  0  0  0  0  0  0  0  0
   20.3684  -20.1574  -13.0129 O   0  0  0  0  0  0  0  0  0  0  0  0
   20.8469  -20.8454  -14.1441 C   0  0  0  0  0  0  0  0  0  0  0  0
   19.3436  -17.3562  -15.0549 C   0  0  0  0  0  0  0  0  0  0  0  0
   18.0810  -17.0118  -15.4705 O   0  0  0  0  0  0  0  0  0  0  0  0
  2 12  2  0
  2  1  1  0
  3  2  1  0
  4  5  1  0
  4  3  2  0
  5 11  2  0
  6  5  1  0
  7  6  1  0
  7  8  1  6
  9  7  1  0
  9 10  2  0
 11 12  1  0
 14 13  1  0
 15 14  2  0
 16 14  1  0
 17 16  1  0
 18 17  1  0
 18 19  1  0
 20 19  1  1
 20 21  1  0
 21  9  1  0
 22 20  1  0
 23 22  2  0
 24 25  1  0
 25 26  2  0
 25 35  1  0
 26 27  1  0
 27 28  2  0
 28 29  1  0
 30 29  1  1
 30 31  1  0
 31 22  1  0
 32 33  1  0
 32 30  1  0
 34 28  1  0
 35 34  2  0
 36 32  2  0
M  END
$$$$
