YRY.pdb
     RDKit          3D

 36 37  0  0  1  0  0  0  0  0999 V2000
   19.5239  -22.8265   -7.3207 O   0  0  0  0  0  0  0  0  0  0  0  0
   20.1080  -22.0884   -8.3695 C   0  0  0  0  0  0  0  0  0  0  0  0
   19.7427  -22.3294   -9.6797 C   0  0  0  0  0  0  0  0  0  0  0  0
   20.3313  -21.5913  -10.6830 C   0  0  0  0  0  0  0  0  0  0  0  0
   21.2765  -20.6159  -10.4282 C   0  0  0  0  0  0  0  0  0  0  0  0
   21.9039  -19.8251  -11.5446 C   0  0  0  0  0  0  0  0  0  0  0  0
   22.6356  -20.8205  -12.3958 C   0  0  2  0  0  0  0  0  0  0  0  0
   23.7533  -21.3671  -11.6538 N   0  0  0  0  0  0  0  0  0  0  0  0
   23.1378  -20.2540  -13.6720 C   0  0  0  0  0  0  0  0  0  0  0  0
   24.1223  -19.4680  -13.7288 O   0  0  0  0  0  0  0  0  0  0  0  0
   21.6173  -20.4019   -9.1113 C   0  0  0  0  0  0  0  0  0  0  0  0
   21.0377  -21.1316   -8.0964 C   0  0  0  0  0  0  0  0  0  0  0  0
   26.0819  -24.2068  -15.2312 N   0  0  0  0  0  0  0  0  0  0  0  0
   25.2743  -24.5726  -16.3601 C   0  0  0  0  0  0  0  0  0  0  0  0
   24.5105  -25.6079  -16.3342 N   0  0  0  0  0  0  0  0  0  0  0  0
   25.2931  -23.7970  -17.5524 N   0  0  0  0  0  0  0  0  0  0  0  0
   25.5265  -22.3869  -17.5321 C   0  0  0  0  0  0  0  0  0  0  0  0
   24.7358  -21.6591  -16.4505 C   0  0  0  0  0  0  0  0  0  0  0  0
   23.4104  -21.2066  -16.9590 C   0  0  0  0  0  0  0  0  0  0  0  0
   22.8430  -20.0570  -16.1687 C   0  0  2  0  0  0  0  0  0  0  0  0
   22.4958  -20.6031  -14.8676 N   0  0  0  0  0  0  0  0  0  0  0  0
   21.7524  -19.3273  -16.7956 C   0  0  0  0  0  0  0  0  0  0  0  0
   20.5510  -19.5968  -16.5363 O   0  0  0  0  0  0  0  0  0  0  0  0
   24.0039  -25.8563  -17.2111 O   0  0  0  0  0  0  0  0  0  0  0  0
   16.3070  -15.8139  -13.8489 C   0  0  0  0  0  0  0  0  0  0  0  0
   17.5497  -15.9725  -14.4377 C   0  0  0  0  0  0  0  0  0  0  0  0
   18.5866  -15.1418  -14.0414 C   0  0  0  0  0  0  0  0  0  0  0  0
   19.8215  -15.2912  -14.6190 C   0  0  0  0  0  0  0  0  0  0  0  0
   20.0795  -16.2372  -15.5828 C   0  0  0  0  0  0  0  0  0  0  0  0
   21.3987  -16.4233  -16.2263 C   0  0  2  0  0  0  0  0  0  0  0  0
   21.2894  -16.9634  -17.6140 N   0  0  0  0  0  0  0  0  0  0  0  0
   21.9473  -18.2652  -17.7394 C   0  0  0  0  0  0  0  0  0  0  0  0
   21.7082  -16.0526  -18.6788 O   0  0  0  0  0  0  0  0  0  0  0  0
   20.8111  -15.1442  -19.2716 C   0  0  0  0  0  0  0  0  0  0  0  0
   19.0330  -17.0642  -15.9724 C   0  0  0  0  0  0  0  0  0  0  0  0
   17.7900  -16.9290  -15.4050 O   0  0  0  0  0  0  0  0  0  0  0  0
  2 12  2  0
  2  1  1  0
  3  2  1  0
  4  5  1  0
  4  3  2  0
  5 11  2  0
  6  5  1  0
  7  6  1  0
  7  8  1  1
  9  7  1  0
  9 10  2  0
 11 12  1  0
 14 13  1  0
 15 14  2  0
 16 14  1  0
 17 16  1  0
 18 17  1  0
 18 19  1  0
 20 19  1  6
 20 21  1  0
 21  9  1  0
 22 20  1  0
 23 22  2  0
 24 25  1  0
 25 26  2  0
 25 35  1  0
 26 27  1  0
 27 28  2  0
 28 29  1  0
 30 29  1  1
 30 31  1  0
 31 22  1  0
 32 33  1  0
 32 30  1  0
 34 28  1  0
 35 34  2  0
 36 32  2  0
M  END
$$$$
