YRY.pdb
     RDKit          3D

 36 37  0  0  1  0  0  0  0  0999 V2000
   30.6111  -26.3159  -18.2521 O   0  0  0  0  0  0  0  0  0  0  0  0
   29.8533  -25.3484  -17.5623 C   0  0  0  0  0  0  0  0  0  0  0  0
   30.4777  -24.2755  -16.9565 C   0  0  0  0  0  0  0  0  0  0  0  0
   29.7099  -23.3460  -16.2898 C   0  0  0  0  0  0  0  0  0  0  0  0
   28.3343  -23.4464  -16.2033 C   0  0  0  0  0  0  0  0  0  0  0  0
   27.5204  -22.4162  -15.4673 C   0  0  0  0  0  0  0  0  0  0  0  0
   27.0116  -21.4676  -16.5121 C   0  0  2  0  0  0  0  0  0  0  0  0
   28.0949  -20.6224  -16.9712 N   0  0  0  0  0  0  0  0  0  0  0  0
   25.8983  -20.6073  -16.0406 C   0  0  0  0  0  0  0  0  0  0  0  0
   26.0764  -19.6174  -15.2797 O   0  0  0  0  0  0  0  0  0  0  0  0
   27.7447  -24.5282  -16.8183 C   0  0  0  0  0  0  0  0  0  0  0  0
   28.4986  -25.4663  -17.4891 C   0  0  0  0  0  0  0  0  0  0  0  0
   22.5969  -14.0599  -17.8994 N   0  0  0  0  0  0  0  0  0  0  0  0
   22.2429  -15.2619  -18.5997 C   0  0  0  0  0  0  0  0  0  0  0  0
   21.4580  -15.2407  -19.6191 N   0  0  0  0  0  0  0  0  0  0  0  0
   22.7519  -16.5241  -18.1858 N   0  0  0  0  0  0  0  0  0  0  0  0
   23.6396  -16.6519  -17.0726 C   0  0  0  0  0  0  0  0  0  0  0  0
   24.2256  -18.0517  -16.9248 C   0  0  0  0  0  0  0  0  0  0  0  0
   23.1592  -19.0919  -16.9507 C   0  0  0  0  0  0  0  0  0  0  0  0
   23.4092  -20.2092  -15.9723 C   0  0  2  0  0  0  0  0  0  0  0  0
   24.5924  -20.9015  -16.4545 N   0  0  0  0  0  0  0  0  0  0  0  0
   22.2869  -21.0981  -15.7172 C   0  0  0  0  0  0  0  0  0  0  0  0
   21.7829  -21.7952  -16.6355 O   0  0  0  0  0  0  0  0  0  0  0  0
   21.2539  -16.1482  -20.0903 O   0  0  0  0  0  0  0  0  0  0  0  0
   24.9364  -26.5396  -15.4620 C   0  0  0  0  0  0  0  0  0  0  0  0
   23.9280  -25.7462  -14.9427 C   0  0  0  0  0  0  0  0  0  0  0  0
   24.2739  -24.6466  -14.1722 C   0  0  0  0  0  0  0  0  0  0  0  0
   23.2818  -23.8546  -13.6534 C   0  0  0  0  0  0  0  0  0  0  0  0
   21.9466  -24.1046  -13.8654 C   0  0  0  0  0  0  0  0  0  0  0  0
   20.8526  -23.2714  -13.3194 C   0  0  2  0  0  0  0  0  0  0  0  0
   20.5139  -22.1172  -14.2038 N   0  0  0  0  0  0  0  0  0  0  0  0
   21.6734  -21.2526  -14.4301 C   0  0  0  0  0  0  0  0  0  0  0  0
   19.3424  -21.3392  -13.8026 O   0  0  0  0  0  0  0  0  0  0  0  0
   19.4139  -19.9496  -13.5891 C   0  0  0  0  0  0  0  0  0  0  0  0
   21.6113  -25.2091  -14.6390 C   0  0  0  0  0  0  0  0  0  0  0  0
   22.5912  -26.0134  -15.1666 O   0  0  0  0  0  0  0  0  0  0  0  0
  2 12  2  0
  2  1  1  0
  3  2  1  0
  4  5  1  0
  4  3  2  0
  5 11  2  0
  6  5  1  0
  7  6  1  0
  7  8  1  1
  9  7  1  0
  9 10  2  0
 11 12  1  0
 14 13  1  0
 15 14  2  0
 16 14  1  0
 17 16  1  0
 18 17  1  0
 18 19  1  0
 20 19  1  6
 20 21  1  0
 21  9  1  0
 22 20  1  0
 23 22  2  0
 24 25  1  0
 25 26  2  0
 25 35  1  0
 26 27  1  0
 27 28  2  0
 28 29  1  0
 30 29  1  6
 30 31  1  0
 31 22  1  0
 32 33  1  0
 32 30  1  0
 34 28  1  0
 35 34  2  0
 36 32  2  0
M  END
$$$$
