YRY.pdb
     RDKit          3D

 36 37  0  0  1  0  0  0  0  0999 V2000
   16.2375  -19.6241  -27.2718 O   0  0  0  0  0  0  0  0  0  0  0  0
   16.6874  -19.8471  -25.9551 C   0  0  0  0  0  0  0  0  0  0  0  0
   17.3520  -18.8506  -25.2670 C   0  0  0  0  0  0  0  0  0  0  0  0
   17.7794  -19.0986  -23.9810 C   0  0  0  0  0  0  0  0  0  0  0  0
   17.5683  -20.3103  -23.3509 C   0  0  0  0  0  0  0  0  0  0  0  0
   18.0473  -20.5539  -21.9450 C   0  0  0  0  0  0  0  0  0  0  0  0
   19.4468  -21.0796  -22.0702 C   0  0  2  0  0  0  0  0  0  0  0  0
   19.4115  -22.4526  -22.5311 N   0  0  0  0  0  0  0  0  0  0  0  0
   20.2192  -21.0178  -20.8048 C   0  0  0  0  0  0  0  0  0  0  0  0
   20.3654  -22.0140  -20.0455 O   0  0  0  0  0  0  0  0  0  0  0  0
   16.9030  -21.2811  -24.0657 C   0  0  0  0  0  0  0  0  0  0  0  0
   16.4690  -21.0487  -25.3526 C   0  0  0  0  0  0  0  0  0  0  0  0
   27.3955  -19.0750  -18.8758 N   0  0  0  0  0  0  0  0  0  0  0  0
   26.8243  -18.5807  -20.0962 C   0  0  0  0  0  0  0  0  0  0  0  0
   27.4919  -18.5704  -21.1963 N   0  0  0  0  0  0  0  0  0  0  0  0
   25.4924  -18.0822  -20.1289 N   0  0  0  0  0  0  0  0  0  0  0  0
   24.8517  -17.5631  -18.9613 C   0  0  0  0  0  0  0  0  0  0  0  0
   23.6631  -18.4000  -18.5016 C   0  0  0  0  0  0  0  0  0  0  0  0
   22.7900  -18.7783  -19.6483 C   0  0  0  0  0  0  0  0  0  0  0  0
   21.6151  -19.6243  -19.2336 C   0  0  2  0  0  0  0  0  0  0  0  0
   20.8135  -19.8048  -20.4322 N   0  0  0  0  0  0  0  0  0  0  0  0
   20.8484  -19.1397  -18.0969 C   0  0  0  0  0  0  0  0  0  0  0  0
   20.2710  -18.0221  -18.1262 O   0  0  0  0  0  0  0  0  0  0  0  0
   27.0282  -18.1675  -22.0389 O   0  0  0  0  0  0  0  0  0  0  0  0
   14.6636  -21.4540  -18.8115 C   0  0  0  0  0  0  0  0  0  0  0  0
   15.7046  -21.1990  -17.9356 C   0  0  0  0  0  0  0  0  0  0  0  0
   16.9210  -21.8316  -18.1427 C   0  0  0  0  0  0  0  0  0  0  0  0
   17.9584  -21.5853  -17.2802 C   0  0  0  0  0  0  0  0  0  0  0  0
   17.8450  -20.7308  -16.2090 C   0  0  0  0  0  0  0  0  0  0  0  0
   18.9433  -20.4448  -15.2598 C   0  0  2  0  0  0  0  0  0  0  0  0
   19.8742  -19.3901  -15.7601 N   0  0  0  0  0  0  0  0  0  0  0  0
   20.6887  -19.8748  -16.8759 C   0  0  0  0  0  0  0  0  0  0  0  0
   20.7010  -18.7452  -14.7407 O   0  0  0  0  0  0  0  0  0  0  0  0
   20.1344  -18.1265  -13.6103 C   0  0  0  0  0  0  0  0  0  0  0  0
   16.6216  -20.1025  -16.0110 C   0  0  0  0  0  0  0  0  0  0  0  0
   15.5718  -20.3370  -16.8644 O   0  0  0  0  0  0  0  0  0  0  0  0
  2 12  2  0
  2  1  1  0
  3  2  1  0
  4  5  1  0
  4  3  2  0
  5 11  2  0
  6  5  1  0
  7  6  1  0
  7  8  1  1
  9  7  1  0
  9 10  2  0
 11 12  1  0
 14 13  1  0
 15 14  2  0
 16 14  1  0
 17 16  1  0
 18 17  1  0
 18 19  1  0
 20 19  1  6
 20 21  1  0
 21  9  1  0
 22 20  1  0
 23 22  2  0
 24 25  1  0
 25 26  2  0
 25 35  1  0
 26 27  1  0
 27 28  2  0
 28 29  1  0
 30 29  1  6
 30 31  1  0
 31 22  1  0
 32 33  1  0
 32 30  1  0
 34 28  1  0
 35 34  2  0
 36 32  2  0
M  END
$$$$
