YRY.pdb
     RDKit          3D

 36 37  0  0  1  0  0  0  0  0999 V2000
   26.3919  -20.3203  -20.4659 O   0  0  0  0  0  0  0  0  0  0  0  0
   25.0891  -20.5938  -20.0033 C   0  0  0  0  0  0  0  0  0  0  0  0
   24.8261  -20.6423  -18.6481 C   0  0  0  0  0  0  0  0  0  0  0  0
   23.5424  -20.9116  -18.2267 C   0  0  0  0  0  0  0  0  0  0  0  0
   22.5043  -21.1360  -19.1109 C   0  0  0  0  0  0  0  0  0  0  0  0
   21.1112  -21.4291  -18.6221 C   0  0  0  0  0  0  0  0  0  0  0  0
   21.1386  -22.8417  -18.1176 C   0  0  2  0  0  0  0  0  0  0  0  0
   21.4285  -23.7442  -19.2132 N   0  0  0  0  0  0  0  0  0  0  0  0
   19.8728  -23.2647  -17.4693 C   0  0  0  0  0  0  0  0  0  0  0  0
   18.8206  -23.5073  -18.1208 O   0  0  0  0  0  0  0  0  0  0  0  0
   22.8017  -21.0803  -20.4542 C   0  0  0  0  0  0  0  0  0  0  0  0
   24.0803  -20.8120  -20.8917 C   0  0  0  0  0  0  0  0  0  0  0  0
   19.9937  -26.8935   -9.7513 N   0  0  0  0  0  0  0  0  0  0  0  0
   20.3018  -27.1791  -11.1239 C   0  0  0  0  0  0  0  0  0  0  0  0
   21.2050  -28.0370  -11.4466 N   0  0  0  0  0  0  0  0  0  0  0  0
   19.6137  -26.5180  -12.1788 N   0  0  0  0  0  0  0  0  0  0  0  0
   18.5771  -25.5670  -11.9247 C   0  0  0  0  0  0  0  0  0  0  0  0
   18.0384  -24.9080  -13.1896 C   0  0  0  0  0  0  0  0  0  0  0  0
   19.1448  -24.4579  -14.0803 C   0  0  0  0  0  0  0  0  0  0  0  0
   18.6496  -23.7622  -15.3209 C   0  0  2  0  0  0  0  0  0  0  0  0
   19.8384  -23.4024  -16.0752 N   0  0  0  0  0  0  0  0  0  0  0  0
   17.7436  -22.6448  -15.1082 C   0  0  0  0  0  0  0  0  0  0  0  0
   18.1770  -21.4863  -14.8769 O   0  0  0  0  0  0  0  0  0  0  0  0
   21.3639  -28.2120  -12.4622 O   0  0  0  0  0  0  0  0  0  0  0  0
   12.1257  -16.1930  -15.5398 C   0  0  0  0  0  0  0  0  0  0  0  0
   13.0050  -17.2574  -15.6390 C   0  0  0  0  0  0  0  0  0  0  0  0
   14.2395  -17.1635  -15.0148 C   0  0  0  0  0  0  0  0  0  0  0  0
   15.1175  -18.2129  -15.1075 C   0  0  0  0  0  0  0  0  0  0  0  0
   14.8252  -19.3652  -15.7983 C   0  0  0  0  0  0  0  0  0  0  0  0
   15.7498  -20.5140  -15.9186 C   0  0  1  0  0  0  0  0  0  0  0  0
   15.4199  -21.6182  -14.9693 N   0  0  0  0  0  0  0  0  0  0  0  0
   16.3148  -22.7638  -15.1427 C   0  0  0  0  0  0  0  0  0  0  0  0
   14.0189  -22.0371  -14.9533 O   0  0  0  0  0  0  0  0  0  0  0  0
   12.9754  -21.1229  -14.7150 C   0  0  0  0  0  0  0  0  0  0  0  0
   13.5853  -19.4485  -16.4199 C   0  0  0  0  0  0  0  0  0  0  0  0
   12.6936  -18.4076  -16.3379 O   0  0  0  0  0  0  0  0  0  0  0  0
  2 12  2  0
  2  1  1  0
  3  2  1  0
  4  5  1  0
  4  3  2  0
  5 11  2  0
  6  5  1  0
  7  6  1  0
  7  8  1  6
  9  7  1  0
  9 10  2  0
 11 12  1  0
 14 13  1  0
 15 14  2  0
 16 14  1  0
 17 16  1  0
 18 17  1  0
 18 19  1  0
 20 19  1  1
 20 21  1  0
 21  9  1  0
 22 20  1  0
 23 22  2  0
 24 25  1  0
 25 26  2  0
 25 35  1  0
 26 27  1  0
 27 28  2  0
 28 29  1  0
 30 29  1  1
 30 31  1  0
 31 22  1  0
 32 33  1  0
 32 30  1  0
 34 28  1  0
 35 34  2  0
 36 32  2  0
M  END
$$$$
