YRY.pdb
     RDKit          3D

 36 37  0  0  1  0  0  0  0  0999 V2000
   34.3468  -23.1853  -26.3137 O   0  0  0  0  0  0  0  0  0  0  0  0
   34.1189  -24.5209  -25.9262 C   0  0  0  0  0  0  0  0  0  0  0  0
   35.1805  -25.3876  -25.7527 C   0  0  0  0  0  0  0  0  0  0  0  0
   34.9258  -26.6872  -25.3731 C   0  0  0  0  0  0  0  0  0  0  0  0
   33.6446  -27.1587  -25.1588 C   0  0  0  0  0  0  0  0  0  0  0  0
   33.3956  -28.5844  -24.7454 C   0  0  0  0  0  0  0  0  0  0  0  0
   33.1842  -28.5534  -23.2605 C   0  0  2  0  0  0  0  0  0  0  0  0
   34.4213  -28.1900  -22.6001 N   0  0  0  0  0  0  0  0  0  0  0  0
   32.7028  -29.8415  -22.7029 C   0  0  0  0  0  0  0  0  0  0  0  0
   33.4822  -30.7178  -22.2393 O   0  0  0  0  0  0  0  0  0  0  0  0
   32.6101  -26.2683  -25.3408 C   0  0  0  0  0  0  0  0  0  0  0  0
   32.8483  -24.9653  -25.7201 C   0  0  0  0  0  0  0  0  0  0  0  0
   28.3898  -30.6286  -16.6889 N   0  0  0  0  0  0  0  0  0  0  0  0
   29.2160  -31.7850  -16.8899 C   0  0  0  0  0  0  0  0  0  0  0  0
   28.9930  -32.8882  -16.2661 N   0  0  0  0  0  0  0  0  0  0  0  0
   30.3158  -31.7482  -17.7912 N   0  0  0  0  0  0  0  0  0  0  0  0
   30.7386  -30.5345  -18.4170 C   0  0  0  0  0  0  0  0  0  0  0  0
   30.3339  -30.4382  -19.8838 C   0  0  0  0  0  0  0  0  0  0  0  0
   31.1082  -31.3943  -20.7243 C   0  0  0  0  0  0  0  0  0  0  0  0
   30.7333  -31.3275  -22.1814 C   0  0  2  0  0  0  0  0  0  0  0  0
   31.3259  -30.1010  -22.6877 N   0  0  0  0  0  0  0  0  0  0  0  0
   29.3157  -31.4480  -22.4824 C   0  0  0  0  0  0  0  0  0  0  0  0
   28.5354  -30.4686  -22.3592 O   0  0  0  0  0  0  0  0  0  0  0  0
   29.6476  -33.6813  -16.4385 O   0  0  0  0  0  0  0  0  0  0  0  0
   20.9181  -33.0286  -22.9742 C   0  0  0  0  0  0  0  0  0  0  0  0
   22.2731  -32.8426  -22.7608 C   0  0  0  0  0  0  0  0  0  0  0  0
   22.7512  -31.5518  -22.5943 C   0  0  0  0  0  0  0  0  0  0  0  0
   24.0921  -31.3574  -22.3823 C   0  0  0  0  0  0  0  0  0  0  0  0
   24.9921  -32.3953  -22.3269 C   0  0  0  0  0  0  0  0  0  0  0  0
   26.4437  -32.2196  -22.1015 C   0  0  2  0  0  0  0  0  0  0  0  0
   27.2686  -32.7666  -23.2193 N   0  0  0  0  0  0  0  0  0  0  0  0
   28.7007  -32.6624  -22.9340 C   0  0  0  0  0  0  0  0  0  0  0  0
   26.9532  -32.2446  -24.5484 O   0  0  0  0  0  0  0  0  0  0  0  0
   25.7001  -32.4629  -25.1516 C   0  0  0  0  0  0  0  0  0  0  0  0
   24.5019  -33.6846  -22.4951 C   0  0  0  0  0  0  0  0  0  0  0  0
   23.1624  -33.8983  -22.7084 O   0  0  0  0  0  0  0  0  0  0  0  0
  2 12  2  0
  2  1  1  0
  3  2  1  0
  4  5  1  0
  4  3  2  0
  5 11  2  0
  6  5  1  0
  7  6  1  0
  7  8  1  1
  9  7  1  0
  9 10  2  0
 11 12  1  0
 14 13  1  0
 15 14  2  0
 16 14  1  0
 17 16  1  0
 18 17  1  0
 18 19  1  0
 20 19  1  1
 20 21  1  0
 21  9  1  0
 22 20  1  0
 23 22  2  0
 24 25  1  0
 25 26  2  0
 25 35  1  0
 26 27  1  0
 27 28  2  0
 28 29  1  0
 30 29  1  1
 30 31  1  0
 31 22  1  0
 32 33  1  0
 32 30  1  0
 34 28  1  0
 35 34  2  0
 36 32  2  0
M  END
$$$$
