YRY.pdb
     RDKit          3D

 36 37  0  0  1  0  0  0  0  0999 V2000
   29.3112  -19.7527   -4.5380 O   0  0  0  0  0  0  0  0  0  0  0  0
   28.7634  -19.7602   -5.8364 C   0  0  0  0  0  0  0  0  0  0  0  0
   27.4131  -19.5382   -6.0249 C   0  0  0  0  0  0  0  0  0  0  0  0
   26.9073  -19.5514   -7.3063 C   0  0  0  0  0  0  0  0  0  0  0  0
   27.7015  -19.7792   -8.4140 C   0  0  0  0  0  0  0  0  0  0  0  0
   27.1215  -19.7889   -9.8028 C   0  0  0  0  0  0  0  0  0  0  0  0
   26.4493  -21.1207   -9.9609 C   0  0  2  0  0  0  0  0  0  0  0  0
   27.4511  -22.1593  -10.0898 N   0  0  0  0  0  0  0  0  0  0  0  0
   25.5346  -21.1888  -11.1272 C   0  0  0  0  0  0  0  0  0  0  0  0
   25.9464  -21.3455  -12.3089 O   0  0  0  0  0  0  0  0  0  0  0  0
   29.0426  -19.9969   -8.1898 C   0  0  0  0  0  0  0  0  0  0  0  0
   29.5640  -19.9868   -6.9145 C   0  0  0  0  0  0  0  0  0  0  0  0
   18.2175  -23.6043   -8.5310 N   0  0  0  0  0  0  0  0  0  0  0  0
   18.4075  -22.9938   -9.8160 C   0  0  0  0  0  0  0  0  0  0  0  0
   17.4130  -22.7243  -10.5869 N   0  0  0  0  0  0  0  0  0  0  0  0
   19.7107  -22.6650  -10.2820 N   0  0  0  0  0  0  0  0  0  0  0  0
   20.8765  -22.8923   -9.4866 C   0  0  0  0  0  0  0  0  0  0  0  0
   22.1106  -22.1589  -10.0000 C   0  0  0  0  0  0  0  0  0  0  0  0
   21.9738  -21.8103  -11.4422 C   0  0  0  0  0  0  0  0  0  0  0  0
   23.1638  -21.0577  -11.9766 C   0  0  2  0  0  0  0  0  0  0  0  0
   24.1544  -21.0751  -10.9135 N   0  0  0  0  0  0  0  0  0  0  0  0
   22.8974  -19.7244  -12.4925 C   0  0  0  0  0  0  0  0  0  0  0  0
   23.5146  -18.7187  -12.0556 O   0  0  0  0  0  0  0  0  0  0  0  0
   17.6205  -22.2670  -11.5008 O   0  0  0  0  0  0  0  0  0  0  0  0
   27.8683  -16.6616  -16.2532 C   0  0  0  0  0  0  0  0  0  0  0  0
   26.8200  -17.5290  -15.9986 C   0  0  0  0  0  0  0  0  0  0  0  0
   25.6499  -17.0204  -15.4559 C   0  0  0  0  0  0  0  0  0  0  0  0
   24.6058  -17.8720  -15.2002 C   0  0  0  0  0  0  0  0  0  0  0  0
   24.6682  -19.2205  -15.4606 C   0  0  0  0  0  0  0  0  0  0  0  0
   23.5613  -20.1658  -15.1954 C   0  0  2  0  0  0  0  0  0  0  0  0
   22.2628  -19.4731  -14.9433 N   0  0  0  0  0  0  0  0  0  0  0  0
   21.9329  -19.4480  -13.5173 C   0  0  0  0  0  0  0  0  0  0  0  0
   21.1320  -19.9455  -15.7412 O   0  0  0  0  0  0  0  0  0  0  0  0
   20.5023  -19.1220  -16.6935 C   0  0  0  0  0  0  0  0  0  0  0  0
   25.8455  -19.7194  -16.0044 C   0  0  0  0  0  0  0  0  0  0  0  0
   26.9013  -18.8817  -16.2670 O   0  0  0  0  0  0  0  0  0  0  0  0
  2 12  2  0
  2  1  1  0
  3  2  1  0
  4  5  1  0
  4  3  2  0
  5 11  2  0
  6  5  1  0
  7  6  1  0
  7  8  1  6
  9  7  1  0
  9 10  2  0
 11 12  1  0
 14 13  1  0
 15 14  2  0
 16 14  1  0
 17 16  1  0
 18 17  1  0
 18 19  1  0
 20 19  1  1
 20 21  1  0
 21  9  1  0
 22 20  1  0
 23 22  2  0
 24 25  1  0
 25 26  2  0
 25 35  1  0
 26 27  1  0
 27 28  2  0
 28 29  1  0
 30 29  1  1
 30 31  1  0
 31 22  1  0
 32 33  1  0
 32 30  1  0
 34 28  1  0
 35 34  2  0
 36 32  2  0
M  END
$$$$
