YRY.pdb
     RDKit          3D

 36 37  0  0  1  0  0  0  0  0999 V2000
   42.7254   -9.9221    2.3312 O   0  0  0  0  0  0  0  0  0  0  0  0
   42.7114   -9.5610    0.9691 C   0  0  0  0  0  0  0  0  0  0  0  0
   43.3125   -8.3893    0.5520 C   0  0  0  0  0  0  0  0  0  0  0  0
   43.2826   -8.0637   -0.7863 C   0  0  0  0  0  0  0  0  0  0  0  0
   42.6720   -8.8669   -1.7307 C   0  0  0  0  0  0  0  0  0  0  0  0
   42.6537   -8.4856   -3.1866 C   0  0  0  0  0  0  0  0  0  0  0  0
   43.6791   -9.3535   -3.8542 C   0  0  2  0  0  0  0  0  0  0  0  0
   44.9958   -9.0334   -3.3418 N   0  0  0  0  0  0  0  0  0  0  0  0
   43.6946   -9.2236   -5.3323 C   0  0  0  0  0  0  0  0  0  0  0  0
   44.7606   -9.1048   -5.9954 O   0  0  0  0  0  0  0  0  0  0  0  0
   42.0826  -10.0270   -1.2803 C   0  0  0  0  0  0  0  0  0  0  0  0
   42.1041  -10.3670    0.0547 C   0  0  0  0  0  0  0  0  0  0  0  0
   43.0476  -11.2308  -12.4821 N   0  0  0  0  0  0  0  0  0  0  0  0
   42.8824  -12.5382  -11.9133 C   0  0  0  0  0  0  0  0  0  0  0  0
   42.3527  -13.5014  -12.5823 N   0  0  0  0  0  0  0  0  0  0  0  0
   43.3015  -12.8129  -10.5820 N   0  0  0  0  0  0  0  0  0  0  0  0
   44.0184  -11.8524   -9.8029 C   0  0  0  0  0  0  0  0  0  0  0  0
   43.1708  -10.6532   -9.3929 C   0  0  0  0  0  0  0  0  0  0  0  0
   43.1657  -10.4727   -7.9139 C   0  0  0  0  0  0  0  0  0  0  0  0
   42.3650   -9.2752   -7.4743 C   0  0  2  0  0  0  0  0  0  0  0  0
   42.4773   -9.2327   -6.0262 N   0  0  0  0  0  0  0  0  0  0  0  0
   40.9907   -9.2173   -7.9464 C   0  0  0  0  0  0  0  0  0  0  0  0
   40.1219  -10.0274   -7.5312 O   0  0  0  0  0  0  0  0  0  0  0  0
   42.2831  -14.4318  -12.1166 O   0  0  0  0  0  0  0  0  0  0  0  0
   39.5230   -3.0747   -5.1298 C   0  0  0  0  0  0  0  0  0  0  0  0
   39.2388   -4.2554   -5.7940 C   0  0  0  0  0  0  0  0  0  0  0  0
   38.4195   -4.2117   -6.9117 C   0  0  0  0  0  0  0  0  0  0  0  0
   38.1322   -5.3763   -7.5765 C   0  0  0  0  0  0  0  0  0  0  0  0
   38.6252   -6.5970   -7.1802 C   0  0  0  0  0  0  0  0  0  0  0  0
   38.3335   -7.8710   -7.8738 C   0  0  1  0  0  0  0  0  0  0  0  0
   39.0963   -8.0182   -9.1488 N   0  0  0  0  0  0  0  0  0  0  0  0
   40.5194   -8.2569   -8.9015 C   0  0  0  0  0  0  0  0  0  0  0  0
   38.8999   -6.9489  -10.1269 O   0  0  0  0  0  0  0  0  0  0  0  0
   39.9864   -6.2664  -10.7061 C   0  0  0  0  0  0  0  0  0  0  0  0
   39.4451   -6.6291   -6.0588 C   0  0  0  0  0  0  0  0  0  0  0  0
   39.7435   -5.4731   -5.3807 O   0  0  0  0  0  0  0  0  0  0  0  0
  2 12  2  0
  2  1  1  0
  3  2  1  0
  4  5  1  0
  4  3  2  0
  5 11  2  0
  6  5  1  0
  7  6  1  0
  7  8  1  1
  9  7  1  0
  9 10  2  0
 11 12  1  0
 14 13  1  0
 15 14  2  0
 16 14  1  0
 17 16  1  0
 18 17  1  0
 18 19  1  0
 20 19  1  1
 20 21  1  0
 21  9  1  0
 22 20  1  0
 23 22  2  0
 24 25  1  0
 25 26  2  0
 25 35  1  0
 26 27  1  0
 27 28  2  0
 28 29  1  0
 30 29  1  1
 30 31  1  0
 31 22  1  0
 32 33  1  0
 32 30  1  0
 34 28  1  0
 35 34  2  0
 36 32  2  0
M  END
$$$$
