YRY.pdb
     RDKit          3D

 36 37  0  0  1  0  0  0  0  0999 V2000
   21.4296  -22.2157  -15.4893 O   0  0  0  0  0  0  0  0  0  0  0  0
   20.4639  -22.6561  -14.5622 C   0  0  0  0  0  0  0  0  0  0  0  0
   20.5850  -22.3361  -13.2239 C   0  0  0  0  0  0  0  0  0  0  0  0
   19.6247  -22.7810  -12.3420 C   0  0  0  0  0  0  0  0  0  0  0  0
   18.5414  -23.5379  -12.7461 C   0  0  0  0  0  0  0  0  0  0  0  0
   17.5075  -24.0114  -11.7601 C   0  0  0  0  0  0  0  0  0  0  0  0
   18.1290  -25.1665  -11.0320 C   0  0  2  0  0  0  0  0  0  0  0  0
   18.3589  -26.2578  -11.9567 N   0  0  0  0  0  0  0  0  0  0  0  0
   17.3105  -25.6626   -9.8981 C   0  0  0  0  0  0  0  0  0  0  0  0
   16.1272  -26.0749  -10.0400 O   0  0  0  0  0  0  0  0  0  0  0  0
   18.4520  -23.8387  -14.0869 C   0  0  0  0  0  0  0  0  0  0  0  0
   19.4040  -23.4012  -14.9817 C   0  0  0  0  0  0  0  0  0  0  0  0
   20.2926  -27.4572   -1.6991 N   0  0  0  0  0  0  0  0  0  0  0  0
   18.8629  -27.4696   -1.5729 C   0  0  0  0  0  0  0  0  0  0  0  0
   18.2879  -27.7649   -0.4602 N   0  0  0  0  0  0  0  0  0  0  0  0
   18.0298  -27.1539   -2.6819 N   0  0  0  0  0  0  0  0  0  0  0  0
   18.5607  -26.9673   -3.9959 C   0  0  0  0  0  0  0  0  0  0  0  0
   17.5074  -26.5627   -5.0213 C   0  0  0  0  0  0  0  0  0  0  0  0
   18.1069  -26.3854   -6.3738 C   0  0  0  0  0  0  0  0  0  0  0  0
   17.1103  -25.9059   -7.3961 C   0  0  2  0  0  0  0  0  0  0  0  0
   17.8699  -25.6762   -8.6134 N   0  0  0  0  0  0  0  0  0  0  0  0
   16.2917  -24.7690   -7.0060 C   0  0  0  0  0  0  0  0  0  0  0  0
   16.8068  -23.6509   -6.7455 O   0  0  0  0  0  0  0  0  0  0  0  0
   17.2454  -27.7799   -0.4444 O   0  0  0  0  0  0  0  0  0  0  0  0
    8.9314  -27.3568   -7.4005 C   0  0  0  0  0  0  0  0  0  0  0  0
    9.9143  -26.3824   -7.4231 C   0  0  0  0  0  0  0  0  0  0  0  0
   11.0536  -26.6013   -8.1825 C   0  0  0  0  0  0  0  0  0  0  0  0
   12.0329  -25.6417   -8.2111 C   0  0  0  0  0  0  0  0  0  0  0  0
   11.9345  -24.4609   -7.5138 C   0  0  0  0  0  0  0  0  0  0  0  0
   12.9727  -23.4068   -7.5223 C   0  0  1  0  0  0  0  0  0  0  0  0
   14.0542  -23.6582   -6.5241 N   0  0  0  0  0  0  0  0  0  0  0  0
   14.8634  -24.8228   -6.8876 C   0  0  0  0  0  0  0  0  0  0  0  0
   13.6198  -23.7285   -5.1295 O   0  0  0  0  0  0  0  0  0  0  0  0
   13.8587  -24.8664   -4.3359 C   0  0  0  0  0  0  0  0  0  0  0  0
   10.7886  -24.2520   -6.7561 C   0  0  0  0  0  0  0  0  0  0  0  0
    9.7976  -25.2017   -6.7155 O   0  0  0  0  0  0  0  0  0  0  0  0
  2 12  2  0
  2  1  1  0
  3  2  1  0
  4  5  1  0
  4  3  2  0
  5 11  2  0
  6  5  1  0
  7  6  1  0
  7  8  1  6
  9  7  1  0
  9 10  2  0
 11 12  1  0
 14 13  1  0
 15 14  2  0
 16 14  1  0
 17 16  1  0
 18 17  1  0
 18 19  1  0
 20 19  1  1
 20 21  1  0
 21  9  1  0
 22 20  1  0
 23 22  2  0
 24 25  1  0
 25 26  2  0
 25 35  1  0
 26 27  1  0
 27 28  2  0
 28 29  1  0
 30 29  1  6
 30 31  1  0
 31 22  1  0
 32 33  1  0
 32 30  1  0
 34 28  1  0
 35 34  2  0
 36 32  2  0
M  END
$$$$
