YRY.pdb
     RDKit          3D

 36 37  0  0  1  0  0  0  0  0999 V2000
   28.6612  -20.3996   -5.6612 O   0  0  0  0  0  0  0  0  0  0  0  0
   27.8130  -20.5627   -6.7747 C   0  0  0  0  0  0  0  0  0  0  0  0
   27.9878  -21.6298   -7.6343 C   0  0  0  0  0  0  0  0  0  0  0  0
   27.1424  -21.7624   -8.7139 C   0  0  0  0  0  0  0  0  0  0  0  0
   26.1229  -20.8656   -8.9710 C   0  0  0  0  0  0  0  0  0  0  0  0
   25.2145  -21.0348  -10.1591 C   0  0  0  0  0  0  0  0  0  0  0  0
   26.1135  -21.1339  -11.3561 C   0  0  2  0  0  0  0  0  0  0  0  0
   27.0693  -20.0453  -11.3384 N   0  0  0  0  0  0  0  0  0  0  0  0
   25.3849  -21.1119  -12.6486 C   0  0  0  0  0  0  0  0  0  0  0  0
   25.6326  -20.2731  -13.5571 O   0  0  0  0  0  0  0  0  0  0  0  0
   25.9771  -19.8139   -8.0942 C   0  0  0  0  0  0  0  0  0  0  0  0
   26.8142  -19.6673   -7.0098 C   0  0  0  0  0  0  0  0  0  0  0  0
   27.9500  -20.2844  -17.9315 N   0  0  0  0  0  0  0  0  0  0  0  0
   27.1278  -21.0282  -18.8432 C   0  0  0  0  0  0  0  0  0  0  0  0
   26.9283  -20.6278  -20.0498 N   0  0  0  0  0  0  0  0  0  0  0  0
   26.5024  -22.2402  -18.4391 N   0  0  0  0  0  0  0  0  0  0  0  0
   26.4926  -22.6662  -17.0746 C   0  0  0  0  0  0  0  0  0  0  0  0
   25.2303  -22.2582  -16.3233 C   0  0  0  0  0  0  0  0  0  0  0  0
   25.2092  -22.8296  -14.9474 C   0  0  0  0  0  0  0  0  0  0  0  0
   23.9490  -22.4931  -14.1944 C   0  0  2  0  0  0  0  0  0  0  0  0
   24.3786  -22.0602  -12.8754 N   0  0  0  0  0  0  0  0  0  0  0  0
   22.9314  -23.5313  -14.1558 C   0  0  0  0  0  0  0  0  0  0  0  0
   23.1559  -24.6474  -13.6198 O   0  0  0  0  0  0  0  0  0  0  0  0
   26.3274  -21.2204  -20.6621 O   0  0  0  0  0  0  0  0  0  0  0  0
   16.0194  -23.0565   -9.2810 C   0  0  0  0  0  0  0  0  0  0  0  0
   17.1303  -22.9582  -10.1009 C   0  0  0  0  0  0  0  0  0  0  0  0
   17.1516  -21.9778  -11.0812 C   0  0  0  0  0  0  0  0  0  0  0  0
   18.2479  -21.8727  -11.8984 C   0  0  0  0  0  0  0  0  0  0  0  0
   19.3374  -22.7040  -11.7879 C   0  0  0  0  0  0  0  0  0  0  0  0
   20.5340  -22.6180  -12.6537 C   0  0  2  0  0  0  0  0  0  0  0  0
   20.4023  -23.4334  -13.8975 N   0  0  0  0  0  0  0  0  0  0  0  0
   21.6182  -23.3765  -14.7110 C   0  0  0  0  0  0  0  0  0  0  0  0
   19.2119  -23.1648  -14.7033 O   0  0  0  0  0  0  0  0  0  0  0  0
   18.0414  -23.9361  -14.5751 C   0  0  0  0  0  0  0  0  0  0  0  0
   19.3053  -23.6829  -10.8022 C   0  0  0  0  0  0  0  0  0  0  0  0
   18.2161  -23.8030   -9.9749 O   0  0  0  0  0  0  0  0  0  0  0  0
  2 12  2  0
  2  1  1  0
  3  2  1  0
  4  5  1  0
  4  3  2  0
  5 11  2  0
  6  5  1  0
  7  6  1  0
  7  8  1  6
  9  7  1  0
  9 10  2  0
 11 12  1  0
 14 13  1  0
 15 14  2  0
 16 14  1  0
 17 16  1  0
 18 17  1  0
 18 19  1  0
 20 19  1  6
 20 21  1  0
 21  9  1  0
 22 20  1  0
 23 22  2  0
 24 25  1  0
 25 26  2  0
 25 35  1  0
 26 27  1  0
 27 28  2  0
 28 29  1  0
 30 29  1  1
 30 31  1  0
 31 22  1  0
 32 33  1  0
 32 30  1  0
 34 28  1  0
 35 34  2  0
 36 32  2  0
M  END
$$$$
