YRY.pdb
     RDKit          3D

 36 37  0  0  1  0  0  0  0  0999 V2000
   36.3634   -2.4874    0.9321 O   0  0  0  0  0  0  0  0  0  0  0  0
   36.9020   -2.8369   -0.3224 C   0  0  0  0  0  0  0  0  0  0  0  0
   37.7136   -3.9476   -0.4479 C   0  0  0  0  0  0  0  0  0  0  0  0
   38.2249   -4.2638   -1.6875 C   0  0  0  0  0  0  0  0  0  0  0  0
   37.9563   -3.5097   -2.8140 C   0  0  0  0  0  0  0  0  0  0  0  0
   38.5294   -3.8782   -4.1560 C   0  0  0  0  0  0  0  0  0  0  0  0
   39.9740   -3.4757   -4.1133 C   0  0  2  0  0  0  0  0  0  0  0  0
   40.0746   -2.0424   -3.9284 N   0  0  0  0  0  0  0  0  0  0  0  0
   40.7323   -3.8570   -5.3304 C   0  0  0  0  0  0  0  0  0  0  0  0
   41.1581   -3.0101   -6.1621 O   0  0  0  0  0  0  0  0  0  0  0  0
   37.1440   -2.4095   -2.6529 C   0  0  0  0  0  0  0  0  0  0  0  0
   36.6247   -2.0800   -1.4199 C   0  0  0  0  0  0  0  0  0  0  0  0
   43.6843  -11.0061   -5.6397 N   0  0  0  0  0  0  0  0  0  0  0  0
   44.6250  -10.1811   -6.3431 C   0  0  0  0  0  0  0  0  0  0  0  0
   45.3734  -10.6577   -7.2750 N   0  0  0  0  0  0  0  0  0  0  0  0
   44.7612   -8.8002   -6.0298 N   0  0  0  0  0  0  0  0  0  0  0  0
   44.0107   -8.1868   -4.9792 C   0  0  0  0  0  0  0  0  0  0  0  0
   42.6981   -7.5729   -5.4532 C   0  0  0  0  0  0  0  0  0  0  0  0
   42.9351   -6.3518   -6.2735 C   0  0  0  0  0  0  0  0  0  0  0  0
   41.6584   -5.7174   -6.7589 C   0  0  2  0  0  0  0  0  0  0  0  0
   40.9894   -5.2132   -5.5715 N   0  0  0  0  0  0  0  0  0  0  0  0
   40.8050   -6.5529   -7.5886 C   0  0  0  0  0  0  0  0  0  0  0  0
   40.2504   -7.5835   -7.1265 O   0  0  0  0  0  0  0  0  0  0  0  0
   46.0439  -10.0061   -7.7366 O   0  0  0  0  0  0  0  0  0  0  0  0
   41.4029  -12.5223   -9.1922 C   0  0  0  0  0  0  0  0  0  0  0  0
   40.6983  -11.3324   -9.1304 C   0  0  0  0  0  0  0  0  0  0  0  0
   40.1883  -10.9216   -7.9083 C   0  0  0  0  0  0  0  0  0  0  0  0
   39.4888   -9.7442   -7.8371 C   0  0  0  0  0  0  0  0  0  0  0  0
   39.2688   -8.9451   -8.9341 C   0  0  0  0  0  0  0  0  0  0  0  0
   38.5178   -7.6710   -8.8914 C   0  0  2  0  0  0  0  0  0  0  0  0
   39.2320   -6.5602   -9.5881 N   0  0  0  0  0  0  0  0  0  0  0  0
   40.5292   -6.2813   -8.9696 C   0  0  0  0  0  0  0  0  0  0  0  0
   38.4583   -5.3332   -9.7741 O   0  0  0  0  0  0  0  0  0  0  0  0
   37.1375   -5.3572  -10.2605 C   0  0  0  0  0  0  0  0  0  0  0  0
   39.7844   -9.3664  -10.1537 C   0  0  0  0  0  0  0  0  0  0  0  0
   40.4872  -10.5425  -10.2439 O   0  0  0  0  0  0  0  0  0  0  0  0
  2 12  2  0
  2  1  1  0
  3  2  1  0
  4  5  1  0
  4  3  2  0
  5 11  2  0
  6  5  1  0
  7  6  1  0
  7  8  1  6
  9  7  1  0
  9 10  2  0
 11 12  1  0
 14 13  1  0
 15 14  2  0
 16 14  1  0
 17 16  1  0
 18 17  1  0
 18 19  1  0
 20 19  1  1
 20 21  1  0
 21  9  1  0
 22 20  1  0
 23 22  2  0
 24 25  1  0
 25 26  2  0
 25 35  1  0
 26 27  1  0
 27 28  2  0
 28 29  1  0
 30 29  1  6
 30 31  1  0
 31 22  1  0
 32 33  1  0
 32 30  1  0
 34 28  1  0
 35 34  2  0
 36 32  2  0
M  END
$$$$
