LQP.pdb
     RDKit          3D

 25 25  0  0  1  0  0  0  0  0999 V2000
   27.7285  -15.1959  -15.3376 C   0  0  0  0  0  0  0  0  0  0  0  0
   26.4301  -15.7423  -15.9196 C   0  0  2  0  0  0  0  0  0  0  0  0
   26.7570  -17.0040  -16.6539 C   0  0  0  0  0  0  0  0  0  0  0  0
   25.8149  -14.7213  -16.8218 C   0  0  0  0  0  0  0  0  0  0  0  0
   25.4238  -13.5183  -16.0096 C   0  0  2  0  0  0  0  0  0  0  0  0
   24.6440  -13.8641  -14.8374 N   0  0  0  0  0  0  0  0  0  0  0  0
   24.5972  -12.5661  -16.8268 C   0  0  0  0  0  0  0  0  0  0  0  0
   24.9546  -12.1489  -17.9469 O   0  0  0  0  0  0  0  0  0  0  0  0
   18.4299  -11.6371  -16.9872 N   0  0  0  0  0  0  0  0  0  0  0  0
   19.1035  -12.0143  -15.7943 C   0  0  0  0  0  0  0  0  0  0  0  0
   18.4381  -12.1940  -14.7541 O   0  0  0  0  0  0  0  0  0  0  0  0
   20.5753  -12.2024  -15.7427 C   0  0  0  0  0  0  0  0  0  0  0  0
   21.1811  -11.9060  -17.1136 C   0  0  0  0  0  0  0  0  0  0  0  0
   22.4956  -11.1614  -16.9535 C   0  0  2  0  0  0  0  0  0  0  0  0
   23.3771  -12.1440  -16.2854 N   0  0  0  0  0  0  0  0  0  0  0  0
   22.3961   -9.9975  -16.0484 C   0  0  0  0  0  0  0  0  0  0  0  0
   22.6385  -10.1391  -14.7958 O   0  0  0  0  0  0  0  0  0  0  0  0
   22.0465   -8.6970  -16.4614 N   0  0  0  0  0  0  0  0  0  0  0  0
   21.6453   -8.3279  -17.8001 C   0  0  0  0  0  0  0  0  0  0  0  0
   21.8524   -6.8459  -17.9055 C   0  0  0  0  0  0  0  0  0  0  0  0
   22.5416   -6.4492  -16.6453 C   0  0  0  0  0  0  0  0  0  0  0  0
   22.0343   -7.4808  -15.6364 C   0  0  1  0  0  0  0  0  0  0  0  0
   20.6811   -7.1523  -15.1823 C   0  0  0  0  0  0  0  0  0  0  0  0
   20.4174   -6.2160  -14.1955 O   0  0  0  0  0  0  0  0  0  0  0  0
   19.6641   -7.7263  -15.6864 O   0  0  0  0  0  0  0  0  0  0  0  0
  2  1  1  6
  2  3  1  0
  4  2  1  0
  5  4  1  0
  5  6  1  1
  7  5  1  0
  7  8  2  0
  9 10  1  0
 10 12  1  0
 11 10  2  0
 13 12  1  0
 14 13  1  1
 14 15  1  0
 14 16  1  0
 15  7  1  0
 16 17  2  0
 16 18  1  0
 18 22  1  0
 19 20  1  0
 19 18  1  0
 20 21  1  0
 22 21  1  0
 22 23  1  6
 23 25  2  0
 23 24  1  0
M  END
$$$$
