LQP.pdb
     RDKit          3D

 25 25  0  0  1  0  0  0  0  0999 V2000
   25.4996  -20.8366  -16.2435 C   0  0  0  0  0  0  0  0  0  0  0  0
   25.3324  -21.5805  -14.9237 C   0  0  2  0  0  0  0  0  0  0  0  0
   24.0796  -22.3928  -15.0159 C   0  0  0  0  0  0  0  0  0  0  0  0
   25.2733  -20.5992  -13.7976 C   0  0  0  0  0  0  0  0  0  0  0  0
   26.2031  -21.0472  -12.7047 C   0  0  2  0  0  0  0  0  0  0  0  0
   26.0039  -22.4347  -12.3345 N   0  0  0  0  0  0  0  0  0  0  0  0
   26.0057  -20.2245  -11.4629 C   0  0  0  0  0  0  0  0  0  0  0  0
   26.0386  -18.9774  -11.4649 O   0  0  0  0  0  0  0  0  0  0  0  0
   23.4625  -22.5650   -6.6572 N   0  0  0  0  0  0  0  0  0  0  0  0
   23.4989  -21.2065   -6.2423 C   0  0  0  0  0  0  0  0  0  0  0  0
   23.2475  -20.9300   -5.0517 O   0  0  0  0  0  0  0  0  0  0  0  0
   23.8266  -20.1020   -7.1787 C   0  0  0  0  0  0  0  0  0  0  0  0
   24.1718  -20.6758   -8.5518 C   0  0  0  0  0  0  0  0  0  0  0  0
   25.5610  -20.2260   -8.9714 C   0  0  2  0  0  0  0  0  0  0  0  0
   25.7767  -20.9113  -10.2647 N   0  0  0  0  0  0  0  0  0  0  0  0
   26.6234  -20.6986   -8.0593 C   0  0  0  0  0  0  0  0  0  0  0  0
   27.0457  -21.9080   -8.1420 O   0  0  0  0  0  0  0  0  0  0  0  0
   27.2353  -19.9023   -7.0716 N   0  0  0  0  0  0  0  0  0  0  0  0
   26.9297  -18.5131   -6.8145 C   0  0  0  0  0  0  0  0  0  0  0  0
   28.1077  -17.9559   -6.0714 C   0  0  0  0  0  0  0  0  0  0  0  0
   29.1351  -19.0352   -6.0864 C   0  0  0  0  0  0  0  0  0  0  0  0
   28.2929  -20.3109   -6.1366 C   0  0  1  0  0  0  0  0  0  0  0  0
   27.7480  -20.6348   -4.8162 C   0  0  0  0  0  0  0  0  0  0  0  0
   28.5145  -21.1520   -3.7842 O   0  0  0  0  0  0  0  0  0  0  0  0
   26.5173  -20.4510   -4.5530 O   0  0  0  0  0  0  0  0  0  0  0  0
  2  1  1  6
  2  3  1  0
  4  2  1  0
  5  4  1  0
  5  6  1  1
  7  5  1  0
  7  8  2  0
  9 10  1  0
 10 12  1  0
 11 10  2  0
 13 12  1  0
 14 13  1  1
 14 15  1  0
 14 16  1  0
 15  7  1  0
 16 17  2  0
 16 18  1  0
 18 22  1  0
 19 20  1  0
 19 18  1  0
 20 21  1  0
 22 21  1  0
 22 23  1  1
 23 25  2  0
 23 24  1  0
M  END
$$$$
