LQP.pdb
     RDKit          3D

 25 25  0  0  1  0  0  0  0  0999 V2000
   24.2502  -12.3660  -20.2194 C   0  0  0  0  0  0  0  0  0  0  0  0
   23.1756  -13.1305  -19.4552 C   0  0  2  0  0  0  0  0  0  0  0  0
   22.6102  -14.1634  -20.3779 C   0  0  0  0  0  0  0  0  0  0  0  0
   22.1247  -12.1798  -18.9794 C   0  0  0  0  0  0  0  0  0  0  0  0
   22.7692  -11.1146  -18.1370 C   0  0  2  0  0  0  0  0  0  0  0  0
   23.2734  -11.6262  -16.8776 N   0  0  0  0  0  0  0  0  0  0  0  0
   21.7891  -10.0232  -17.8114 C   0  0  0  0  0  0  0  0  0  0  0  0
   21.1307   -9.4222  -18.6842 O   0  0  0  0  0  0  0  0  0  0  0  0
   17.2675   -9.7958  -15.5723 N   0  0  0  0  0  0  0  0  0  0  0  0
   17.5370   -8.7270  -14.6757 C   0  0  0  0  0  0  0  0  0  0  0  0
   16.5857   -8.0459  -14.2420 O   0  0  0  0  0  0  0  0  0  0  0  0
   18.9149   -8.3919  -14.2360 C   0  0  0  0  0  0  0  0  0  0  0  0
   19.9099   -9.3574  -14.8777 C   0  0  0  0  0  0  0  0  0  0  0  0
   20.6630   -8.6620  -15.9990 C   0  0  2  0  0  0  0  0  0  0  0  0
   21.6260   -9.6850  -16.4628 N   0  0  0  0  0  0  0  0  0  0  0  0
   21.4614   -7.5090  -15.5332 C   0  0  0  0  0  0  0  0  0  0  0  0
   22.6139   -7.7022  -15.0020 O   0  0  0  0  0  0  0  0  0  0  0  0
   21.0486   -6.1657  -15.6291 N   0  0  0  0  0  0  0  0  0  0  0  0
   19.8098   -5.7154  -16.2226 C   0  0  0  0  0  0  0  0  0  0  0  0
   20.0064   -4.2652  -16.5522 C   0  0  0  0  0  0  0  0  0  0  0  0
   21.4451   -3.9866  -16.2816 C   0  0  0  0  0  0  0  0  0  0  0  0
   21.7844   -4.9797  -15.1691 C   0  0  1  0  0  0  0  0  0  0  0  0
   21.2897   -4.5086  -13.8735 C   0  0  0  0  0  0  0  0  0  0  0  0
   21.9265   -3.5300  -13.1273 O   0  0  0  0  0  0  0  0  0  0  0  0
   20.2278   -4.9893  -13.3643 O   0  0  0  0  0  0  0  0  0  0  0  0
  2  1  1  6
  2  3  1  0
  4  2  1  0
  5  4  1  0
  5  6  1  1
  7  5  1  0
  7  8  2  0
  9 10  1  0
 10 12  1  0
 11 10  2  0
 13 12  1  0
 14 13  1  1
 14 15  1  0
 14 16  1  0
 15  7  1  0
 16 17  2  0
 16 18  1  0
 18 22  1  0
 19 20  1  0
 19 18  1  0
 20 21  1  0
 22 21  1  0
 22 23  1  1
 23 25  2  0
 23 24  1  0
M  END
$$$$
