LQP.pdb
     RDKit          3D

 25 25  0  0  1  0  0  0  0  0999 V2000
   25.2737  -20.4788   -9.5798 C   0  0  0  0  0  0  0  0  0  0  0  0
   25.1038  -21.2801  -10.8652 C   0  0  2  0  0  0  0  0  0  0  0  0
   26.2340  -22.2569  -10.9442 C   0  0  0  0  0  0  0  0  0  0  0  0
   25.0916  -20.3529  -12.0377 C   0  0  0  0  0  0  0  0  0  0  0  0
   23.6690  -20.1082  -12.4573 C   0  0  2  0  0  0  0  0  0  0  0  0
   22.8912  -21.3292  -12.5363 N   0  0  0  0  0  0  0  0  0  0  0  0
   23.6141  -19.4594  -13.8115 C   0  0  0  0  0  0  0  0  0  0  0  0
   24.3076  -18.4680  -14.1157 O   0  0  0  0  0  0  0  0  0  0  0  0
   21.4263  -23.4259  -16.9180 N   0  0  0  0  0  0  0  0  0  0  0  0
   22.8098  -23.1418  -17.0734 C   0  0  0  0  0  0  0  0  0  0  0  0
   23.6139  -24.0896  -17.1843 O   0  0  0  0  0  0  0  0  0  0  0  0
   23.3331  -21.7529  -17.1085 C   0  0  0  0  0  0  0  0  0  0  0  0
   22.1836  -20.7643  -16.9202 C   0  0  0  0  0  0  0  0  0  0  0  0
   22.6657  -19.5426  -16.1566 C   0  0  2  0  0  0  0  0  0  0  0  0
   22.7387  -20.0104  -14.7549 N   0  0  0  0  0  0  0  0  0  0  0  0
   21.6987  -18.4253  -16.1803 C   0  0  0  0  0  0  0  0  0  0  0  0
   20.6939  -18.4323  -15.3814 O   0  0  0  0  0  0  0  0  0  0  0  0
   21.7924  -17.3110  -17.0368 N   0  0  0  0  0  0  0  0  0  0  0  0
   22.8403  -17.0931  -18.0084 C   0  0  0  0  0  0  0  0  0  0  0  0
   22.8269  -15.6251  -18.3165 C   0  0  0  0  0  0  0  0  0  0  0  0
   21.8594  -15.0250  -17.3550 C   0  0  0  0  0  0  0  0  0  0  0  0
   20.8731  -16.1663  -17.1021 C   0  0  1  0  0  0  0  0  0  0  0  0
   19.9259  -16.2995  -18.2113 C   0  0  0  0  0  0  0  0  0  0  0  0
   18.7879  -15.5190  -18.3363 O   0  0  0  0  0  0  0  0  0  0  0  0
   20.1113  -17.1587  -19.1307 O   0  0  0  0  0  0  0  0  0  0  0  0
  2  1  1  1
  2  3  1  0
  4  2  1  0
  5  4  1  0
  5  6  1  6
  7  5  1  0
  7  8  2  0
  9 10  1  0
 10 12  1  0
 11 10  2  0
 13 12  1  0
 14 13  1  6
 14 15  1  0
 14 16  1  0
 15  7  1  0
 16 17  2  0
 16 18  1  0
 18 22  1  0
 19 20  1  0
 19 18  1  0
 20 21  1  0
 22 21  1  0
 22 23  1  6
 23 25  2  0
 23 24  1  0
M  END
$$$$
