LQP.pdb
     RDKit          3D

 25 25  0  0  1  0  0  0  0  0999 V2000
   26.1742  -20.6339  -18.6560 C   0  0  0  0  0  0  0  0  0  0  0  0
   26.8293  -19.7375  -17.6116 C   0  0  2  0  0  0  0  0  0  0  0  0
   27.3158  -18.5073  -18.3099 C   0  0  0  0  0  0  0  0  0  0  0  0
   27.9471  -20.4744  -16.9468 C   0  0  0  0  0  0  0  0  0  0  0  0
   27.4781  -21.8549  -16.5808 C   0  0  2  0  0  0  0  0  0  0  0  0
   26.6986  -21.8752  -15.3585 N   0  0  0  0  0  0  0  0  0  0  0  0
   28.6442  -22.7806  -16.3782 C   0  0  0  0  0  0  0  0  0  0  0  0
   29.3385  -22.7779  -15.3418 O   0  0  0  0  0  0  0  0  0  0  0  0
   28.0446  -28.3907  -17.8520 N   0  0  0  0  0  0  0  0  0  0  0  0
   27.9690  -27.7360  -16.5933 C   0  0  0  0  0  0  0  0  0  0  0  0
   27.3328  -28.2773  -15.6663 O   0  0  0  0  0  0  0  0  0  0  0  0
   28.6225  -26.4267  -16.3423 C   0  0  0  0  0  0  0  0  0  0  0  0
   29.3879  -25.9854  -17.5887 C   0  0  0  0  0  0  0  0  0  0  0  0
   30.0590  -24.6449  -17.3418 C   0  0  2  0  0  0  0  0  0  0  0  0
   28.9438  -23.6752  -17.4126 N   0  0  0  0  0  0  0  0  0  0  0  0
   31.0142  -24.2703  -18.4054 C   0  0  0  0  0  0  0  0  0  0  0  0
   30.6225  -23.5462  -19.3904 O   0  0  0  0  0  0  0  0  0  0  0  0
   32.3693  -24.6539  -18.4279 N   0  0  0  0  0  0  0  0  0  0  0  0
   33.0157  -25.4866  -17.4388 C   0  0  0  0  0  0  0  0  0  0  0  0
   34.4875  -25.2286  -17.5718 C   0  0  0  0  0  0  0  0  0  0  0  0
   34.6088  -24.1031  -18.5409 C   0  0  0  0  0  0  0  0  0  0  0  0
   33.3772  -24.2807  -19.4302 C   0  0  1  0  0  0  0  0  0  0  0  0
   33.5841  -25.3503  -20.4092 C   0  0  0  0  0  0  0  0  0  0  0  0
   33.0277  -26.6131  -20.2836 O   0  0  0  0  0  0  0  0  0  0  0  0
   34.3011  -25.1619  -21.4427 O   0  0  0  0  0  0  0  0  0  0  0  0
  2  1  1  6
  2  3  1  0
  4  2  1  0
  5  4  1  0
  5  6  1  1
  7  5  1  0
  7  8  2  0
  9 10  1  0
 10 12  1  0
 11 10  2  0
 13 12  1  0
 14 13  1  6
 14 15  1  0
 14 16  1  0
 15  7  1  0
 16 17  2  0
 16 18  1  0
 18 22  1  0
 19 20  1  0
 19 18  1  0
 20 21  1  0
 22 21  1  0
 22 23  1  6
 23 25  2  0
 23 24  1  0
M  END
$$$$
