LQP.pdb
     RDKit          3D

 25 25  0  0  1  0  0  0  0  0999 V2000
   26.9849  -23.2540  -16.1706 C   0  0  0  0  0  0  0  0  0  0  0  0
   26.0953  -22.0165  -16.1927 C   0  0  2  0  0  0  0  0  0  0  0  0
   26.2016  -21.4049  -17.5538 C   0  0  0  0  0  0  0  0  0  0  0  0
   26.5299  -21.0658  -15.1241 C   0  0  0  0  0  0  0  0  0  0  0  0
   26.5681  -21.7894  -13.8070 C   0  0  2  0  0  0  0  0  0  0  0  0
   25.4830  -22.7395  -13.6590 N   0  0  0  0  0  0  0  0  0  0  0  0
   26.4695  -20.8220  -12.6615 C   0  0  0  0  0  0  0  0  0  0  0  0
   27.1074  -19.7506  -12.6234 O   0  0  0  0  0  0  0  0  0  0  0  0
   21.4139  -21.2470  -11.2167 N   0  0  0  0  0  0  0  0  0  0  0  0
   21.9441  -20.0989  -11.8645 C   0  0  0  0  0  0  0  0  0  0  0  0
   21.3312  -19.6158  -12.8381 O   0  0  0  0  0  0  0  0  0  0  0  0
   23.2052  -19.4527  -11.4217 C   0  0  0  0  0  0  0  0  0  0  0  0
   23.8486  -20.2839  -10.3130 C   0  0  0  0  0  0  0  0  0  0  0  0
   25.3610  -20.2633  -10.4558 C   0  0  2  0  0  0  0  0  0  0  0  0
   25.6179  -21.1612  -11.6033 N   0  0  0  0  0  0  0  0  0  0  0  0
   26.0610  -20.8499   -9.2940 C   0  0  0  0  0  0  0  0  0  0  0  0
   26.2135  -22.1220   -9.2150 O   0  0  0  0  0  0  0  0  0  0  0  0
   26.5965  -20.1014   -8.2277 N   0  0  0  0  0  0  0  0  0  0  0  0
   26.5993  -18.6584   -8.1418 C   0  0  0  0  0  0  0  0  0  0  0  0
   27.6637  -18.3004   -7.1473 C   0  0  0  0  0  0  0  0  0  0  0  0
   28.3567  -19.5802   -6.8272 C   0  0  0  0  0  0  0  0  0  0  0  0
   27.2574  -20.6251   -7.0241 C   0  0  1  0  0  0  0  0  0  0  0  0
   26.3454  -20.6527   -5.8784 C   0  0  0  0  0  0  0  0  0  0  0  0
   26.6798  -21.2099   -4.6545 O   0  0  0  0  0  0  0  0  0  0  0  0
   25.1781  -20.1541   -5.9589 O   0  0  0  0  0  0  0  0  0  0  0  0
  2  1  1  6
  2  3  1  0
  4  2  1  0
  5  4  1  0
  5  6  1  6
  7  5  1  0
  7  8  2  0
  9 10  1  0
 10 12  1  0
 11 10  2  0
 13 12  1  0
 14 13  1  1
 14 15  1  0
 14 16  1  0
 15  7  1  0
 16 17  2  0
 16 18  1  0
 18 22  1  0
 19 20  1  0
 19 18  1  0
 20 21  1  0
 22 21  1  0
 22 23  1  1
 23 25  2  0
 23 24  1  0
M  END
$$$$
