LQP.pdb
     RDKit          3D

 25 25  0  0  1  0  0  0  0  0999 V2000
   22.9994  -13.1736  -14.8381 C   0  0  0  0  0  0  0  0  0  0  0  0
   23.1384  -12.4708  -16.1834 C   0  0  2  0  0  0  0  0  0  0  0  0
   24.5991  -12.3031  -16.4595 C   0  0  0  0  0  0  0  0  0  0  0  0
   22.4297  -11.1553  -16.1390 C   0  0  0  0  0  0  0  0  0  0  0  0
   20.9642  -11.3932  -15.9034 C   0  0  2  0  0  0  0  0  0  0  0  0
   20.3235  -12.0770  -17.0097 N   0  0  0  0  0  0  0  0  0  0  0  0
   20.2361  -10.0940  -15.7039 C   0  0  0  0  0  0  0  0  0  0  0  0
   19.8570   -9.3779  -16.6525 O   0  0  0  0  0  0  0  0  0  0  0  0
   17.4850   -8.9386  -10.2253 N   0  0  0  0  0  0  0  0  0  0  0  0
   17.4760   -7.6473  -10.8182 C   0  0  0  0  0  0  0  0  0  0  0  0
   16.9208   -6.7074  -10.2138 O   0  0  0  0  0  0  0  0  0  0  0  0
   18.1059   -7.3772  -12.1351 C   0  0  0  0  0  0  0  0  0  0  0  0
   18.6741   -8.6736  -12.7102 C   0  0  0  0  0  0  0  0  0  0  0  0
   19.3459   -8.4020  -14.0455 C   0  0  2  0  0  0  0  0  0  0  0  0
   19.9844   -9.6922  -14.3867 N   0  0  0  0  0  0  0  0  0  0  0  0
   20.4311   -7.4029  -13.9559 C   0  0  0  0  0  0  0  0  0  0  0  0
   21.5592   -7.7291  -13.4373 O   0  0  0  0  0  0  0  0  0  0  0  0
   20.3277   -6.0739  -14.4110 N   0  0  0  0  0  0  0  0  0  0  0  0
   19.1450   -5.4836  -14.9961 C   0  0  0  0  0  0  0  0  0  0  0  0
   19.6122   -4.2806  -15.7609 C   0  0  0  0  0  0  0  0  0  0  0  0
   21.1008   -4.3351  -15.7189 C   0  0  0  0  0  0  0  0  0  0  0  0
   21.3816   -5.0498  -14.3962 C   0  0  1  0  0  0  0  0  0  0  0  0
   21.2285   -4.1367  -13.2612 C   0  0  0  0  0  0  0  0  0  0  0  0
   22.2196   -3.2580  -12.8542 O   0  0  0  0  0  0  0  0  0  0  0  0
   20.1527   -4.1100  -12.5831 O   0  0  0  0  0  0  0  0  0  0  0  0
  2  1  1  1
  2  3  1  0
  4  2  1  0
  5  4  1  0
  5  6  1  6
  7  5  1  0
  7  8  2  0
  9 10  1  0
 10 12  1  0
 11 10  2  0
 13 12  1  0
 14 13  1  1
 14 15  1  0
 14 16  1  0
 15  7  1  0
 16 17  2  0
 16 18  1  0
 18 22  1  0
 19 20  1  0
 19 18  1  0
 20 21  1  0
 22 21  1  0
 22 23  1  1
 23 25  2  0
 23 24  1  0
M  END
$$$$
