LQP.pdb
     RDKit          3D

 25 25  0  0  1  0  0  0  0  0999 V2000
   23.1818  -10.8939  -13.6414 C   0  0  0  0  0  0  0  0  0  0  0  0
   22.8468  -10.9149  -15.1282 C   0  0  2  0  0  0  0  0  0  0  0  0
   24.0638  -10.4675  -15.8743 C   0  0  0  0  0  0  0  0  0  0  0  0
   21.6772  -10.0224  -15.3926 C   0  0  0  0  0  0  0  0  0  0  0  0
   20.5166  -10.4682  -14.5476 C   0  0  2  0  0  0  0  0  0  0  0  0
   20.0406  -11.7905  -14.9038 N   0  0  0  0  0  0  0  0  0  0  0  0
   19.3555   -9.5254  -14.6921 C   0  0  0  0  0  0  0  0  0  0  0  0
   18.5231   -9.6134  -15.6171 O   0  0  0  0  0  0  0  0  0  0  0  0
   17.0149   -6.7955   -9.7111 N   0  0  0  0  0  0  0  0  0  0  0  0
   16.6543   -8.0272  -10.3210 C   0  0  0  0  0  0  0  0  0  0  0  0
   15.9999   -8.8605   -9.6619 O   0  0  0  0  0  0  0  0  0  0  0  0
   17.0302   -8.3576  -11.7187 C   0  0  0  0  0  0  0  0  0  0  0  0
   17.8571   -7.2187  -12.3130 C   0  0  0  0  0  0  0  0  0  0  0  0
   18.1510   -7.4960  -13.7775 C   0  0  2  0  0  0  0  0  0  0  0  0
   19.2247   -8.5129  -13.7341 N   0  0  0  0  0  0  0  0  0  0  0  0
   18.7048   -6.3253  -14.4894 C   0  0  0  0  0  0  0  0  0  0  0  0
   19.9460   -6.0253  -14.3576 O   0  0  0  0  0  0  0  0  0  0  0  0
   17.9570   -5.4814  -15.3335 N   0  0  0  0  0  0  0  0  0  0  0  0
   16.5621   -5.6611  -15.6672 C   0  0  0  0  0  0  0  0  0  0  0  0
   16.3278   -4.8761  -16.9238 C   0  0  0  0  0  0  0  0  0  0  0  0
   17.6743   -4.4086  -17.3585 C   0  0  0  0  0  0  0  0  0  0  0  0
   18.4380   -4.2854  -16.0392 C   0  0  1  0  0  0  0  0  0  0  0  0
   18.0699   -3.0578  -15.3300 C   0  0  0  0  0  0  0  0  0  0  0  0
   17.2880   -3.0467  -14.1862 O   0  0  0  0  0  0  0  0  0  0  0  0
   18.4617   -1.9205  -15.7435 O   0  0  0  0  0  0  0  0  0  0  0  0
  2  1  1  1
  2  3  1  0
  4  2  1  0
  5  4  1  0
  5  6  1  6
  7  5  1  0
  7  8  2  0
  9 10  1  0
 10 12  1  0
 11 10  2  0
 13 12  1  0
 14 13  1  1
 14 15  1  0
 14 16  1  0
 15  7  1  0
 16 17  2  0
 16 18  1  0
 18 22  1  0
 19 20  1  0
 19 18  1  0
 20 21  1  0
 22 21  1  0
 22 23  1  1
 23 25  2  0
 23 24  1  0
M  END
$$$$
