LQP.pdb
     RDKit          3D

 25 25  0  0  1  0  0  0  0  0999 V2000
   24.1626  -20.7627   -8.5214 C   0  0  0  0  0  0  0  0  0  0  0  0
   25.5365  -21.3656   -8.7898 C   0  0  2  0  0  0  0  0  0  0  0  0
   26.3059  -21.3313   -7.5074 C   0  0  0  0  0  0  0  0  0  0  0  0
   26.2237  -20.5906   -9.8677 C   0  0  0  0  0  0  0  0  0  0  0  0
   25.3578  -20.5820  -11.0965 C   0  0  2  0  0  0  0  0  0  0  0  0
   24.9763  -21.9146  -11.5214 N   0  0  0  0  0  0  0  0  0  0  0  0
   26.0718  -19.9363  -12.2502 C   0  0  0  0  0  0  0  0  0  0  0  0
   26.7344  -18.8857  -12.1337 O   0  0  0  0  0  0  0  0  0  0  0  0
   29.1377  -22.2296  -16.1304 N   0  0  0  0  0  0  0  0  0  0  0  0
   28.5785  -21.4101  -17.1475 C   0  0  0  0  0  0  0  0  0  0  0  0
   29.2328  -21.2085  -18.1908 O   0  0  0  0  0  0  0  0  0  0  0  0
   27.2393  -20.7838  -17.0116 C   0  0  0  0  0  0  0  0  0  0  0  0
   26.6113  -21.1938  -15.6805 C   0  0  0  0  0  0  0  0  0  0  0  0
   26.5943  -20.0124  -14.7255 C   0  0  2  0  0  0  0  0  0  0  0  0
   25.9735  -20.5605  -13.4995 N   0  0  0  0  0  0  0  0  0  0  0  0
   25.7247  -18.9090  -15.1837 C   0  0  0  0  0  0  0  0  0  0  0  0
   24.4519  -18.9970  -15.0418 O   0  0  0  0  0  0  0  0  0  0  0  0
   26.1937  -17.7239  -15.7835 N   0  0  0  0  0  0  0  0  0  0  0  0
   27.5796  -17.4248  -16.0647 C   0  0  0  0  0  0  0  0  0  0  0  0
   27.6628  -15.9353  -16.2220 C   0  0  0  0  0  0  0  0  0  0  0  0
   26.3166  -15.4190  -15.8452 C   0  0  0  0  0  0  0  0  0  0  0  0
   25.3878  -16.5750  -16.2197 C   0  0  1  0  0  0  0  0  0  0  0  0
   25.1423  -16.6070  -17.6633 C   0  0  0  0  0  0  0  0  0  0  0  0
   24.2300  -15.7788  -18.2972 O   0  0  0  0  0  0  0  0  0  0  0  0
   25.7712  -17.4164  -18.4163 O   0  0  0  0  0  0  0  0  0  0  0  0
  2  1  1  1
  2  3  1  0
  4  2  1  0
  5  4  1  0
  5  6  1  6
  7  5  1  0
  7  8  2  0
  9 10  1  0
 10 12  1  0
 11 10  2  0
 13 12  1  0
 14 13  1  6
 14 15  1  0
 14 16  1  0
 15  7  1  0
 16 17  2  0
 16 18  1  0
 18 22  1  0
 19 20  1  0
 19 18  1  0
 20 21  1  0
 22 21  1  0
 22 23  1  6
 23 25  2  0
 23 24  1  0
M  END
$$$$
