LQP.pdb
     RDKit          3D

 25 25  0  0  1  0  0  0  0  0999 V2000
   14.9837  -12.7387  -18.5557 C   0  0  0  0  0  0  0  0  0  0  0  0
   14.8612  -12.9660  -17.0535 C   0  0  2  0  0  0  0  0  0  0  0  0
   13.7050  -12.1528  -16.5639 C   0  0  0  0  0  0  0  0  0  0  0  0
   16.1370  -12.5743  -16.3801 C   0  0  0  0  0  0  0  0  0  0  0  0
   17.2482  -13.4546  -16.8803 C   0  0  2  0  0  0  0  0  0  0  0  0
   17.1388  -14.8192  -16.4030 N   0  0  0  0  0  0  0  0  0  0  0  0
   18.5855  -12.9348  -16.4338 C   0  0  0  0  0  0  0  0  0  0  0  0
   19.0325  -13.1163  -15.2833 O   0  0  0  0  0  0  0  0  0  0  0  0
   22.4604  -10.5803  -20.7952 N   0  0  0  0  0  0  0  0  0  0  0  0
   23.1651  -10.3014  -19.5933 C   0  0  0  0  0  0  0  0  0  0  0  0
   24.2836   -9.7524  -19.6607 O   0  0  0  0  0  0  0  0  0  0  0  0
   22.6151  -10.6414  -18.2569 C   0  0  0  0  0  0  0  0  0  0  0  0
   21.2574  -11.3235  -18.4166 C   0  0  0  0  0  0  0  0  0  0  0  0
   20.6607  -11.6245  -17.0523 C   0  0  2  0  0  0  0  0  0  0  0  0
   19.3432  -12.2189  -17.3683 N   0  0  0  0  0  0  0  0  0  0  0  0
   20.3966  -10.4091  -16.2541 C   0  0  0  0  0  0  0  0  0  0  0  0
   19.3025   -9.7591  -16.4223 O   0  0  0  0  0  0  0  0  0  0  0  0
   21.2771   -9.8866  -15.2868 N   0  0  0  0  0  0  0  0  0  0  0  0
   22.5841  -10.4199  -14.9757 C   0  0  0  0  0  0  0  0  0  0  0  0
   22.9345   -9.9002  -13.6128 C   0  0  0  0  0  0  0  0  0  0  0  0
   21.7072   -9.2134  -13.1204 C   0  0  0  0  0  0  0  0  0  0  0  0
   21.0424   -8.7305  -14.4103 C   0  0  1  0  0  0  0  0  0  0  0  0
   21.6988   -7.5254  -14.9221 C   0  0  0  0  0  0  0  0  0  0  0  0
   22.5548   -7.5312  -16.0118 O   0  0  0  0  0  0  0  0  0  0  0  0
   21.5070   -6.3932  -14.3752 O   0  0  0  0  0  0  0  0  0  0  0  0
  2  1  1  6
  2  3  1  0
  4  2  1  0
  5  4  1  0
  5  6  1  1
  7  5  1  0
  7  8  2  0
  9 10  1  0
 10 12  1  0
 11 10  2  0
 13 12  1  0
 14 13  1  6
 14 15  1  0
 14 16  1  0
 15  7  1  0
 16 17  2  0
 16 18  1  0
 18 22  1  0
 19 20  1  0
 19 18  1  0
 20 21  1  0
 22 21  1  0
 22 23  1  6
 23 25  2  0
 23 24  1  0
M  END
$$$$
