LQP.pdb
     RDKit          3D

 25 25  0  0  1  0  0  0  0  0999 V2000
   28.5889  -20.4324  -15.3950 C   0  0  0  0  0  0  0  0  0  0  0  0
   27.1323  -20.0164  -15.2264 C   0  0  2  0  0  0  0  0  0  0  0  0
   26.7453  -19.2189  -16.4314 C   0  0  0  0  0  0  0  0  0  0  0  0
   26.9779  -19.2256  -13.9672 C   0  0  0  0  0  0  0  0  0  0  0  0
   27.4516  -20.0530  -12.8049 C   0  0  2  0  0  0  0  0  0  0  0  0
   27.0703  -21.4471  -12.9183 N   0  0  0  0  0  0  0  0  0  0  0  0
   26.8786  -19.5404  -11.5139 C   0  0  0  0  0  0  0  0  0  0  0  0
   26.7298  -18.3251  -11.2746 O   0  0  0  0  0  0  0  0  0  0  0  0
   21.7436  -20.8217   -8.1946 N   0  0  0  0  0  0  0  0  0  0  0  0
   22.2490  -20.5774   -9.4999 C   0  0  0  0  0  0  0  0  0  0  0  0
   21.5559  -20.8968  -10.4872 O   0  0  0  0  0  0  0  0  0  0  0  0
   23.5765  -19.9537   -9.7302 C   0  0  0  0  0  0  0  0  0  0  0  0
   24.6689  -20.8227   -9.1093 C   0  0  0  0  0  0  0  0  0  0  0  0
   26.0129  -20.1212   -9.2076 C   0  0  2  0  0  0  0  0  0  0  0  0
   26.5032  -20.4882  -10.5543 N   0  0  0  0  0  0  0  0  0  0  0  0
   27.0063  -20.6336   -8.2409 C   0  0  0  0  0  0  0  0  0  0  0  0
   27.4602  -21.8282   -8.3632 O   0  0  0  0  0  0  0  0  0  0  0  0
   27.5172  -19.8921   -7.1578 N   0  0  0  0  0  0  0  0  0  0  0  0
   27.3070  -18.4782   -6.9435 C   0  0  0  0  0  0  0  0  0  0  0  0
   28.3915  -18.0307   -6.0086 C   0  0  0  0  0  0  0  0  0  0  0  0
   29.2989  -19.2034   -5.8605 C   0  0  0  0  0  0  0  0  0  0  0  0
   28.3591  -20.3931   -6.0623 C   0  0  1  0  0  0  0  0  0  0  0  0
   27.5720  -20.6534   -4.8548 C   0  0  0  0  0  0  0  0  0  0  0  0
   26.2188  -20.3724   -4.7548 O   0  0  0  0  0  0  0  0  0  0  0  0
   28.1096  -21.1613   -3.8200 O   0  0  0  0  0  0  0  0  0  0  0  0
  2  1  1  6
  2  3  1  0
  4  2  1  0
  5  4  1  0
  5  6  1  6
  7  5  1  0
  7  8  2  0
  9 10  1  0
 10 12  1  0
 11 10  2  0
 13 12  1  0
 14 13  1  1
 14 15  1  0
 14 16  1  0
 15  7  1  0
 16 17  2  0
 16 18  1  0
 18 22  1  0
 19 20  1  0
 19 18  1  0
 20 21  1  0
 22 21  1  0
 22 23  1  1
 23 25  2  0
 23 24  1  0
M  END
$$$$
