LQP.pdb
     RDKit          3D

 25 25  0  0  1  0  0  0  0  0999 V2000
   25.4337  -14.2361  -14.9126 C   0  0  0  0  0  0  0  0  0  0  0  0
   25.4525  -14.2464  -16.4366 C   0  0  2  0  0  0  0  0  0  0  0  0
   26.8795  -14.3535  -16.8725 C   0  0  0  0  0  0  0  0  0  0  0  0
   24.8079  -13.0016  -16.9557 C   0  0  0  0  0  0  0  0  0  0  0  0
   23.3624  -12.9867  -16.5432 C   0  0  2  0  0  0  0  0  0  0  0  0
   22.6286  -14.1367  -17.0342 N   0  0  0  0  0  0  0  0  0  0  0  0
   22.6685  -11.7614  -17.0674 C   0  0  0  0  0  0  0  0  0  0  0  0
   22.3468  -11.6259  -18.2650 O   0  0  0  0  0  0  0  0  0  0  0  0
   17.4804  -10.1061  -16.3340 N   0  0  0  0  0  0  0  0  0  0  0  0
   18.1649   -9.6741  -15.1662 C   0  0  0  0  0  0  0  0  0  0  0  0
   17.5070   -9.4279  -14.1349 O   0  0  0  0  0  0  0  0  0  0  0  0
   19.6394   -9.5052  -15.1307 C   0  0  0  0  0  0  0  0  0  0  0  0
   20.2297   -9.8404  -16.4993 C   0  0  0  0  0  0  0  0  0  0  0  0
   21.7058   -9.4824  -16.5331 C   0  0  2  0  0  0  0  0  0  0  0  0
   22.3817  -10.7420  -16.1516 N   0  0  0  0  0  0  0  0  0  0  0  0
   22.0816   -8.4759  -15.5183 C   0  0  0  0  0  0  0  0  0  0  0  0
   22.4280   -8.8533  -14.3413 O   0  0  0  0  0  0  0  0  0  0  0  0
   22.0939   -7.0857  -15.7442 N   0  0  0  0  0  0  0  0  0  0  0  0
   21.5913   -6.4302  -16.9305 C   0  0  0  0  0  0  0  0  0  0  0  0
   22.2357   -5.0760  -16.9652 C   0  0  0  0  0  0  0  0  0  0  0  0
   23.2352   -5.0818  -15.8600 C   0  0  0  0  0  0  0  0  0  0  0  0
   22.6214   -6.0487  -14.8463 C   0  0  1  0  0  0  0  0  0  0  0  0
   21.5512   -5.4026  -14.0831 C   0  0  0  0  0  0  0  0  0  0  0  0
   21.7866   -4.5593  -13.0092 O   0  0  0  0  0  0  0  0  0  0  0  0
   20.3291   -5.5922  -14.3803 O   0  0  0  0  0  0  0  0  0  0  0  0
  2  1  1  1
  2  3  1  0
  4  2  1  0
  5  4  1  0
  5  6  1  6
  7  5  1  0
  7  8  2  0
  9 10  1  0
 10 12  1  0
 11 10  2  0
 13 12  1  0
 14 13  1  1
 14 15  1  0
 14 16  1  0
 15  7  1  0
 16 17  2  0
 16 18  1  0
 18 22  1  0
 19 20  1  0
 19 18  1  0
 20 21  1  0
 22 21  1  0
 22 23  1  6
 23 25  2  0
 23 24  1  0
M  END
$$$$
