LQP.pdb
     RDKit          3D

 25 25  0  0  1  0  0  0  0  0999 V2000
   28.3390  -16.7980  -16.1744 C   0  0  0  0  0  0  0  0  0  0  0  0
   27.9780  -17.5084  -17.4737 C   0  0  2  0  0  0  0  0  0  0  0  0
   27.3314  -16.5050  -18.3754 C   0  0  0  0  0  0  0  0  0  0  0  0
   27.0673  -18.6573  -17.1822 C   0  0  0  0  0  0  0  0  0  0  0  0
   27.7601  -19.6103  -16.2486 C   0  0  2  0  0  0  0  0  0  0  0  0
   28.7056  -20.4728  -16.9299 N   0  0  0  0  0  0  0  0  0  0  0  0
   26.7663  -20.5007  -15.5576 C   0  0  0  0  0  0  0  0  0  0  0  0
   26.1920  -21.4477  -16.1318 O   0  0  0  0  0  0  0  0  0  0  0  0
   26.2089  -20.1599   -9.3031 N   0  0  0  0  0  0  0  0  0  0  0  0
   25.0017  -20.8150   -9.6671 C   0  0  0  0  0  0  0  0  0  0  0  0
   24.1882  -21.1260   -8.7734 O   0  0  0  0  0  0  0  0  0  0  0  0
   24.6740  -21.1430  -11.0774 C   0  0  0  0  0  0  0  0  0  0  0  0
   25.7834  -20.6340  -11.9962 C   0  0  0  0  0  0  0  0  0  0  0  0
   25.4521  -20.9568  -13.4433 C   0  0  2  0  0  0  0  0  0  0  0  0
   26.4904  -20.2348  -14.2111 N   0  0  0  0  0  0  0  0  0  0  0  0
   24.1489  -20.4102  -13.8754 C   0  0  0  0  0  0  0  0  0  0  0  0
   24.0210  -19.1497  -14.0817 O   0  0  0  0  0  0  0  0  0  0  0  0
   22.9931  -21.1863  -14.0898 N   0  0  0  0  0  0  0  0  0  0  0  0
   22.8909  -22.6096  -13.8591 C   0  0  0  0  0  0  0  0  0  0  0  0
   21.7126  -23.0799  -14.6595 C   0  0  0  0  0  0  0  0  0  0  0  0
   21.2852  -21.9035  -15.4683 C   0  0  0  0  0  0  0  0  0  0  0  0
   21.6944  -20.7176  -14.5934 C   0  0  1  0  0  0  0  0  0  0  0  0
   20.7374  -20.5117  -13.5040 C   0  0  0  0  0  0  0  0  0  0  0  0
   19.5142  -19.8839  -13.6759 O   0  0  0  0  0  0  0  0  0  0  0  0
   20.9938  -20.9101  -12.3236 O   0  0  0  0  0  0  0  0  0  0  0  0
  2  1  1  1
  2  3  1  0
  4  2  1  0
  5  4  1  0
  5  6  1  6
  7  5  1  0
  7  8  2  0
  9 10  1  0
 10 12  1  0
 11 10  2  0
 13 12  1  0
 14 13  1  1
 14 15  1  0
 14 16  1  0
 15  7  1  0
 16 17  2  0
 16 18  1  0
 18 22  1  0
 19 20  1  0
 19 18  1  0
 20 21  1  0
 22 21  1  0
 22 23  1  1
 23 25  2  0
 23 24  1  0
M  END
$$$$
