LQP.pdb
     RDKit          3D

 25 25  0  0  1  0  0  0  0  0999 V2000
   29.0030  -17.8231  -17.4600 C   0  0  0  0  0  0  0  0  0  0  0  0
   27.5221  -17.4621  -17.4570 C   0  0  2  0  0  0  0  0  0  0  0  0
   27.3659  -16.1796  -18.2111 C   0  0  0  0  0  0  0  0  0  0  0  0
   27.0380  -17.3375  -16.0483 C   0  0  0  0  0  0  0  0  0  0  0  0
   27.1818  -18.6656  -15.3589 C   0  0  2  0  0  0  0  0  0  0  0  0
   26.6723  -19.7663  -16.1532 N   0  0  0  0  0  0  0  0  0  0  0  0
   26.4340  -18.6763  -14.0556 C   0  0  0  0  0  0  0  0  0  0  0  0
   26.5414  -17.7690  -13.2061 O   0  0  0  0  0  0  0  0  0  0  0  0
   21.0588  -19.7515  -13.0171 N   0  0  0  0  0  0  0  0  0  0  0  0
   21.4408  -20.4976  -11.8698 C   0  0  0  0  0  0  0  0  0  0  0  0
   20.6230  -20.6358  -10.9375 O   0  0  0  0  0  0  0  0  0  0  0  0
   22.7826  -21.1199  -11.7416 C   0  0  0  0  0  0  0  0  0  0  0  0
   23.6294  -20.7755  -12.9657 C   0  0  0  0  0  0  0  0  0  0  0  0
   24.8096  -19.9103  -12.5575 C   0  0  2  0  0  0  0  0  0  0  0  0
   25.5864  -19.7626  -13.8079 N   0  0  0  0  0  0  0  0  0  0  0  0
   25.7011  -20.5694  -11.5804 C   0  0  0  0  0  0  0  0  0  0  0  0
   26.4217  -21.5675  -11.9442 O   0  0  0  0  0  0  0  0  0  0  0  0
   25.8324  -20.1776  -10.2338 N   0  0  0  0  0  0  0  0  0  0  0  0
   25.2107  -19.0155   -9.6400 C   0  0  0  0  0  0  0  0  0  0  0  0
   25.9894  -18.7152   -8.3935 C   0  0  0  0  0  0  0  0  0  0  0  0
   27.1572  -19.6404   -8.4205 C   0  0  0  0  0  0  0  0  0  0  0  0
   26.6214  -20.8482   -9.1909 C   0  0  1  0  0  0  0  0  0  0  0  0
   25.7794  -21.6874   -8.3353 C   0  0  0  0  0  0  0  0  0  0  0  0
   24.4032  -21.7725   -8.4728 O   0  0  0  0  0  0  0  0  0  0  0  0
   26.2873  -22.3920   -7.4061 O   0  0  0  0  0  0  0  0  0  0  0  0
  2  1  1  1
  2  3  1  0
  4  2  1  0
  5  4  1  0
  5  6  1  6
  7  5  1  0
  7  8  2  0
  9 10  1  0
 10 12  1  0
 11 10  2  0
 13 12  1  0
 14 13  1  6
 14 15  1  0
 14 16  1  0
 15  7  1  0
 16 17  2  0
 16 18  1  0
 18 22  1  0
 19 20  1  0
 19 18  1  0
 20 21  1  0
 22 21  1  0
 22 23  1  1
 23 25  2  0
 23 24  1  0
M  END
$$$$
