KIE.pdb
     RDKit          3D

 27 26  0  0  1  0  0  0  0  0999 V2000
   22.9296  -17.2774  -17.6568 N   0  0  0  0  0  0  0  0  0  0  0  0
   23.3304  -16.0801  -16.9257 C   0  0  1  0  0  0  0  0  0  0  0  0
   24.5343  -15.5371  -17.6573 C   0  0  0  0  0  0  0  0  0  0  0  0
   25.7718  -16.3609  -17.5211 C   0  0  0  0  0  0  0  0  0  0  0  0
   25.4626  -17.8358  -17.4062 C   0  0  0  0  0  0  0  0  0  0  0  0
   26.7089  -18.6801  -17.4382 C   0  0  0  0  0  0  0  0  0  0  0  0
   27.2839  -18.7217  -18.7509 N   0  0  0  0  0  0  0  0  0  0  0  0
   22.2395  -15.0574  -16.9903 C   0  0  0  0  0  0  0  0  0  0  0  0
   21.7371  -14.7664  -18.1056 O   0  0  0  0  0  0  0  0  0  0  0  0
   18.9956  -16.3087  -14.5194 C   0  0  0  0  0  0  0  0  0  0  0  0
   18.8802  -15.2618  -15.6032 C   0  0  0  0  0  0  0  0  0  0  0  0
   19.5050  -13.9794  -15.0463 C   0  0  2  0  0  0  0  0  0  0  0  0
   18.3922  -12.9543  -15.0106 C   0  0  0  0  0  0  0  0  0  0  0  0
   20.5883  -13.4872  -15.9904 C   0  0  2  0  0  0  0  0  0  0  0  0
   21.7412  -14.3989  -15.8646 N   0  0  0  0  0  0  0  0  0  0  0  0
   20.9988  -12.1348  -15.5694 C   0  0  0  0  0  0  0  0  0  0  0  0
   21.5868  -12.0488  -14.4236 O   0  0  0  0  0  0  0  0  0  0  0  0
   20.8312  -10.9301  -16.2707 N   0  0  0  0  0  0  0  0  0  0  0  0
   21.3940   -9.6582  -15.7384 C   0  0  1  0  0  0  0  0  0  0  0  0
   21.6041   -8.7282  -16.8858 C   0  0  0  0  0  0  0  0  0  0  0  0
   22.0732   -7.3604  -16.5848 C   0  0  0  0  0  0  0  0  0  0  0  0
   22.2317   -6.5010  -17.7472 C   0  0  0  0  0  0  0  0  0  0  0  0
   22.0419   -6.8631  -18.9394 O   0  0  0  0  0  0  0  0  0  0  0  0
   20.5493   -9.2465  -14.6362 C   0  0  0  0  0  0  0  0  0  0  0  0
   19.2995   -9.3736  -14.6135 O   0  0  0  0  0  0  0  0  0  0  0  0
   22.6191   -5.1667  -17.5397 O   0  0  0  0  0  0  0  0  0  0  0  0
   21.0749   -8.6547  -13.4671 O   0  0  0  0  0  0  0  0  0  0  0  0
  2  1  1  6
  3  2  1  0
  4  3  1  0
  5  4  1  0
  5  6  1  0
  7  6  1  0
  8  9  2  0
  8  2  1  0
 11 10  1  0
 12 14  1  0
 12 11  1  0
 12 13  1  6
 14 15  1  1
 15  8  1  0
 16 14  1  0
 17 16  2  0
 18 16  1  0
 19 24  1  0
 19 18  1  0
 19 20  1  6
 21 20  1  0
 22 21  1  0
 23 22  2  0
 24 27  1  0
 25 24  2  0
 26 22  1  0
M  END
$$$$
