KIE.pdb
     RDKit          3D

 27 26  0  0  1  0  0  0  0  0999 V2000
   28.5413  -21.1579  -16.0730 N   0  0  0  0  0  0  0  0  0  0  0  0
   28.0838  -20.1721  -15.0995 C   0  0  1  0  0  0  0  0  0  0  0  0
   27.5544  -19.0126  -15.9085 C   0  0  0  0  0  0  0  0  0  0  0  0
   27.8063  -19.1089  -17.3769 C   0  0  0  0  0  0  0  0  0  0  0  0
   28.0178  -17.7516  -18.0072 C   0  0  0  0  0  0  0  0  0  0  0  0
   28.2441  -17.8459  -19.4929 C   0  0  0  0  0  0  0  0  0  0  0  0
   29.6393  -17.9431  -19.8084 N   0  0  0  0  0  0  0  0  0  0  0  0
   26.9559  -20.7390  -14.2955 C   0  0  0  0  0  0  0  0  0  0  0  0
   26.1813  -21.5737  -14.8290 O   0  0  0  0  0  0  0  0  0  0  0  0
   25.1678  -21.2188   -8.4357 C   0  0  0  0  0  0  0  0  0  0  0  0
   24.8695  -21.5491   -9.8800 C   0  0  0  0  0  0  0  0  0  0  0  0
   25.9464  -20.8590  -10.7220 C   0  0  2  0  0  0  0  0  0  0  0  0
   25.8236  -19.3799  -10.4258 C   0  0  0  0  0  0  0  0  0  0  0  0
   25.6633  -21.0837  -12.1973 C   0  0  2  0  0  0  0  0  0  0  0  0
   26.7121  -20.3876  -12.9665 N   0  0  0  0  0  0  0  0  0  0  0  0
   24.3549  -20.4851  -12.5207 C   0  0  0  0  0  0  0  0  0  0  0  0
   24.3487  -19.2128  -12.7381 O   0  0  0  0  0  0  0  0  0  0  0  0
   23.1158  -21.1368  -12.6263 N   0  0  0  0  0  0  0  0  0  0  0  0
   21.9217  -20.4156  -13.1475 C   0  0  1  0  0  0  0  0  0  0  0  0
   21.7682  -20.7563  -14.5918 C   0  0  0  0  0  0  0  0  0  0  0  0
   20.5884  -20.2225  -15.3021 C   0  0  0  0  0  0  0  0  0  0  0  0
   20.4440  -20.6818  -16.6744 C   0  0  0  0  0  0  0  0  0  0  0  0
   19.9739  -21.8017  -17.0113 O   0  0  0  0  0  0  0  0  0  0  0  0
   20.8296  -20.6839  -12.2347 C   0  0  0  0  0  0  0  0  0  0  0  0
   20.6832  -21.7575  -11.5987 O   0  0  0  0  0  0  0  0  0  0  0  0
   20.8497  -19.8229  -17.7092 O   0  0  0  0  0  0  0  0  0  0  0  0
   19.8151  -19.7362  -11.9776 O   0  0  0  0  0  0  0  0  0  0  0  0
  2  1  1  6
  3  2  1  0
  4  3  1  0
  5  4  1  0
  5  6  1  0
  7  6  1  0
  8  9  2  0
  8  2  1  0
 11 10  1  0
 12 14  1  0
 12 11  1  0
 12 13  1  6
 14 15  1  6
 15  8  1  0
 16 14  1  0
 17 16  2  0
 18 16  1  0
 19 24  1  0
 19 18  1  0
 19 20  1  6
 21 20  1  0
 22 21  1  0
 23 22  2  0
 24 27  1  0
 25 24  2  0
 26 22  1  0
M  END
$$$$
