KIE.pdb
     RDKit          3D

 27 26  0  0  1  0  0  0  0  0999 V2000
   27.6237  -21.9927  -15.9357 N   0  0  0  0  0  0  0  0  0  0  0  0
   27.0730  -20.7847  -15.3307 C   0  0  1  0  0  0  0  0  0  0  0  0
   26.5840  -19.9370  -16.4803 C   0  0  0  0  0  0  0  0  0  0  0  0
   27.6563  -19.4511  -17.3982 C   0  0  0  0  0  0  0  0  0  0  0  0
   27.1193  -18.5085  -18.4506 C   0  0  0  0  0  0  0  0  0  0  0  0
   28.2024  -18.0092  -19.3698 C   0  0  0  0  0  0  0  0  0  0  0  0
   29.0257  -19.0821  -19.8458 N   0  0  0  0  0  0  0  0  0  0  0  0
   25.8984  -21.1373  -14.4728 C   0  0  0  0  0  0  0  0  0  0  0  0
   25.1542  -22.0917  -14.8142 O   0  0  0  0  0  0  0  0  0  0  0  0
   26.7297  -20.1452   -9.5267 C   0  0  0  0  0  0  0  0  0  0  0  0
   26.0749  -21.1368  -10.4605 C   0  0  0  0  0  0  0  0  0  0  0  0
   24.8116  -20.4633  -11.0041 C   0  0  2  0  0  0  0  0  0  0  0  0
   23.6836  -20.8933  -10.0912 C   0  0  0  0  0  0  0  0  0  0  0  0
   24.5233  -20.9736  -12.4054 C   0  0  2  0  0  0  0  0  0  0  0  0
   25.5781  -20.4557  -13.2973 N   0  0  0  0  0  0  0  0  0  0  0  0
   23.2208  -20.4368  -12.8417 C   0  0  0  0  0  0  0  0  0  0  0  0
   23.0824  -19.1551  -12.7769 O   0  0  0  0  0  0  0  0  0  0  0  0
   22.1154  -21.1548  -13.3252 N   0  0  0  0  0  0  0  0  0  0  0  0
   20.8549  -20.4509  -13.6904 C   0  0  1  0  0  0  0  0  0  0  0  0
   20.1857  -21.2301  -14.7724 C   0  0  0  0  0  0  0  0  0  0  0  0
   18.8257  -20.8182  -15.1752 C   0  0  0  0  0  0  0  0  0  0  0  0
   18.2333  -21.6230  -16.2318 C   0  0  0  0  0  0  0  0  0  0  0  0
   17.0732  -21.4577  -16.6959 O   0  0  0  0  0  0  0  0  0  0  0  0
   20.1405  -20.1889  -12.4580 C   0  0  0  0  0  0  0  0  0  0  0  0
   20.1888  -20.9230  -11.4395 O   0  0  0  0  0  0  0  0  0  0  0  0
   19.0009  -22.6599  -16.7876 O   0  0  0  0  0  0  0  0  0  0  0  0
   19.3112  -19.0578  -12.2961 O   0  0  0  0  0  0  0  0  0  0  0  0
  2  1  1  6
  3  2  1  0
  4  3  1  0
  5  4  1  0
  5  6  1  0
  7  6  1  0
  8  9  2  0
  8  2  1  0
 11 10  1  0
 12 14  1  0
 12 11  1  0
 12 13  1  1
 14 15  1  6
 15  8  1  0
 16 14  1  0
 17 16  2  0
 18 16  1  0
 19 24  1  0
 19 18  1  0
 19 20  1  6
 21 20  1  0
 22 21  1  0
 23 22  2  0
 24 27  1  0
 25 24  2  0
 26 22  1  0
M  END
$$$$
