KIE.pdb
     RDKit          3D

 27 26  0  0  1  0  0  0  0  0999 V2000
   28.3176  -21.6720  -15.7484 N   0  0  0  0  0  0  0  0  0  0  0  0
   27.6771  -20.5400  -15.0874 C   0  0  1  0  0  0  0  0  0  0  0  0
   27.0568  -19.7182  -16.1916 C   0  0  0  0  0  0  0  0  0  0  0  0
   28.0329  -19.1280  -17.1546 C   0  0  0  0  0  0  0  0  0  0  0  0
   28.5563  -17.7902  -16.6848 C   0  0  0  0  0  0  0  0  0  0  0  0
   28.2497  -16.6868  -17.6625 C   0  0  0  0  0  0  0  0  0  0  0  0
   28.9388  -16.8772  -18.9053 N   0  0  0  0  0  0  0  0  0  0  0  0
   26.5818  -21.0287  -14.1922 C   0  0  0  0  0  0  0  0  0  0  0  0
   25.8677  -21.9934  -14.5672 O   0  0  0  0  0  0  0  0  0  0  0  0
   26.9218  -20.6126   -8.7936 C   0  0  0  0  0  0  0  0  0  0  0  0
   26.6175  -21.2596  -10.1251 C   0  0  0  0  0  0  0  0  0  0  0  0
   25.4021  -20.5291  -10.7031 C   0  0  2  0  0  0  0  0  0  0  0  0
   24.2166  -20.9680   -9.8710 C   0  0  0  0  0  0  0  0  0  0  0  0
   25.1768  -20.9695  -12.1393 C   0  0  2  0  0  0  0  0  0  0  0  0
   26.3046  -20.4650  -12.9454 N   0  0  0  0  0  0  0  0  0  0  0  0
   23.9272  -20.3571  -12.6275 C   0  0  0  0  0  0  0  0  0  0  0  0
   23.9002  -19.0671  -12.6608 O   0  0  0  0  0  0  0  0  0  0  0  0
   22.7653  -21.0118  -13.0663 N   0  0  0  0  0  0  0  0  0  0  0  0
   21.6035  -20.2331  -13.5778 C   0  0  1  0  0  0  0  0  0  0  0  0
   21.7640  -20.0759  -15.0526 C   0  0  0  0  0  0  0  0  0  0  0  0
   21.8510  -21.3036  -15.8691 C   0  0  0  0  0  0  0  0  0  0  0  0
   21.3156  -21.1791  -17.2155 C   0  0  0  0  0  0  0  0  0  0  0  0
   20.6673  -20.1857  -17.6417 O   0  0  0  0  0  0  0  0  0  0  0  0
   20.4068  -20.8610  -13.0567 C   0  0  0  0  0  0  0  0  0  0  0  0
   20.3780  -21.9943  -12.5149 O   0  0  0  0  0  0  0  0  0  0  0  0
   21.5342  -22.2330  -18.1181 O   0  0  0  0  0  0  0  0  0  0  0  0
   19.1430  -20.2344  -13.1155 O   0  0  0  0  0  0  0  0  0  0  0  0
  2  1  1  6
  3  2  1  0
  4  3  1  0
  5  4  1  0
  5  6  1  0
  7  6  1  0
  8  9  2  0
  8  2  1  0
 11 10  1  0
 12 14  1  0
 12 11  1  0
 12 13  1  1
 14 15  1  6
 15  8  1  0
 16 14  1  0
 17 16  2  0
 18 16  1  0
 19 24  1  0
 19 18  1  0
 19 20  1  6
 21 20  1  0
 22 21  1  0
 23 22  2  0
 24 27  1  0
 25 24  2  0
 26 22  1  0
M  END
$$$$
