KIE.pdb
     RDKit          3D

 27 26  0  0  1  0  0  0  0  0999 V2000
   17.6262  -12.4240  -17.6637 N   0  0  0  0  0  0  0  0  0  0  0  0
   18.5353  -11.8789  -16.6612 C   0  0  1  0  0  0  0  0  0  0  0  0
   19.8832  -12.4931  -16.9532 C   0  0  0  0  0  0  0  0  0  0  0  0
   19.9685  -13.9617  -16.6993 C   0  0  0  0  0  0  0  0  0  0  0  0
   21.3222  -14.5242  -17.0673 C   0  0  0  0  0  0  0  0  0  0  0  0
   21.4051  -16.0075  -16.8218 C   0  0  0  0  0  0  0  0  0  0  0  0
   22.7182  -16.5143  -17.0949 N   0  0  0  0  0  0  0  0  0  0  0  0
   18.6470  -10.3961  -16.8305 C   0  0  0  0  0  0  0  0  0  0  0  0
   18.6082   -9.9064  -17.9880 O   0  0  0  0  0  0  0  0  0  0  0  0
   15.1961   -7.6961  -15.2242 C   0  0  0  0  0  0  0  0  0  0  0  0
   16.3777   -7.5717  -16.1583 C   0  0  0  0  0  0  0  0  0  0  0  0
   17.6251   -7.4518  -15.2782 C   0  0  2  0  0  0  0  0  0  0  0  0
   17.8695   -5.9689  -15.1003 C   0  0  0  0  0  0  0  0  0  0  0  0
   18.8180   -8.0575  -15.9976 C   0  0  2  0  0  0  0  0  0  0  0  0
   18.7940   -9.5131  -15.7591 N   0  0  0  0  0  0  0  0  0  0  0  0
   20.0515   -7.4968  -15.4154 C   0  0  0  0  0  0  0  0  0  0  0  0
   20.3092   -7.8319  -14.1959 O   0  0  0  0  0  0  0  0  0  0  0  0
   20.9821   -6.6462  -16.0332 N   0  0  0  0  0  0  0  0  0  0  0  0
   22.2199   -6.2292  -15.3177 C   0  0  1  0  0  0  0  0  0  0  0  0
   23.3131   -6.0930  -16.3236 C   0  0  0  0  0  0  0  0  0  0  0  0
   24.6357   -5.6430  -15.8443 C   0  0  0  0  0  0  0  0  0  0  0  0
   25.6252   -5.4375  -16.8900 C   0  0  0  0  0  0  0  0  0  0  0  0
   25.5055   -5.8347  -18.0802 O   0  0  0  0  0  0  0  0  0  0  0  0
   21.8714   -5.0933  -14.4894 C   0  0  0  0  0  0  0  0  0  0  0  0
   21.0149   -4.2269  -14.7965 O   0  0  0  0  0  0  0  0  0  0  0  0
   26.8021   -4.7430  -16.5646 O   0  0  0  0  0  0  0  0  0  0  0  0
   22.4804   -4.8617  -13.2369 O   0  0  0  0  0  0  0  0  0  0  0  0
  2  1  1  6
  3  2  1  0
  4  3  1  0
  5  4  1  0
  5  6  1  0
  7  6  1  0
  8  9  2  0
  8  2  1  0
 11 10  1  0
 12 14  1  0
 12 11  1  0
 12 13  1  6
 14 15  1  1
 15  8  1  0
 16 14  1  0
 17 16  2  0
 18 16  1  0
 19 24  1  0
 19 18  1  0
 19 20  1  6
 21 20  1  0
 22 21  1  0
 23 22  2  0
 24 27  1  0
 25 24  2  0
 26 22  1  0
M  END
$$$$
