KIE.pdb
     RDKit          3D

 27 26  0  0  1  0  0  0  0  0999 V2000
   21.6572  -20.8253   -9.7211 N   0  0  0  0  0  0  0  0  0  0  0  0
   22.1079  -21.2130  -11.0535 C   0  0  1  0  0  0  0  0  0  0  0  0
   20.9788  -20.8529  -11.9888 C   0  0  0  0  0  0  0  0  0  0  0  0
   20.3232  -22.0176  -12.6539 C   0  0  0  0  0  0  0  0  0  0  0  0
   19.2236  -22.6120  -11.8043 C   0  0  0  0  0  0  0  0  0  0  0  0
   18.5658  -23.7903  -12.4723 C   0  0  0  0  0  0  0  0  0  0  0  0
   19.4508  -24.9158  -12.5467 N   0  0  0  0  0  0  0  0  0  0  0  0
   23.3108  -20.4089  -11.4361 C   0  0  0  0  0  0  0  0  0  0  0  0
   23.3421  -19.1827  -11.1592 O   0  0  0  0  0  0  0  0  0  0  0  0
   29.2622  -20.8919  -11.7739 C   0  0  0  0  0  0  0  0  0  0  0  0
   28.0885  -20.1340  -12.3502 C   0  0  0  0  0  0  0  0  0  0  0  0
   26.8228  -20.8552  -11.8780 C   0  0  2  0  0  0  0  0  0  0  0  0
   26.8559  -22.2231  -12.5248 C   0  0  0  0  0  0  0  0  0  0  0  0
   25.5954  -20.1121  -12.3764 C   0  0  2  0  0  0  0  0  0  0  0  0
   24.4164  -20.9522  -12.0928 N   0  0  0  0  0  0  0  0  0  0  0  0
   25.7158  -19.9321  -13.8352 C   0  0  0  0  0  0  0  0  0  0  0  0
   25.3303  -20.9243  -14.5652 O   0  0  0  0  0  0  0  0  0  0  0  0
   26.1946  -18.8064  -14.5242 N   0  0  0  0  0  0  0  0  0  0  0  0
   26.1154  -18.7361  -16.0096 C   0  0  1  0  0  0  0  0  0  0  0  0
   25.0555  -17.7505  -16.3712 C   0  0  0  0  0  0  0  0  0  0  0  0
   24.7888  -17.5237  -17.8061 C   0  0  0  0  0  0  0  0  0  0  0  0
   23.7540  -16.5409  -18.0856 C   0  0  0  0  0  0  0  0  0  0  0  0
   23.0971  -15.9199  -17.2072 O   0  0  0  0  0  0  0  0  0  0  0  0
   27.4643  -18.5403  -16.4996 C   0  0  0  0  0  0  0  0  0  0  0  0
   28.3559  -17.9002  -15.8881 O   0  0  0  0  0  0  0  0  0  0  0  0
   23.4588  -16.2495  -19.4277 O   0  0  0  0  0  0  0  0  0  0  0  0
   27.8987  -19.0670  -17.7354 O   0  0  0  0  0  0  0  0  0  0  0  0
  2  1  1  1
  3  2  1  0
  4  3  1  0
  5  4  1  0
  5  6  1  0
  7  6  1  0
  8  9  2  0
  8  2  1  0
 11 10  1  0
 12 14  1  0
 12 11  1  0
 12 13  1  6
 14 15  1  6
 15  8  1  0
 16 14  1  0
 17 16  2  0
 18 16  1  0
 19 24  1  0
 19 18  1  0
 19 20  1  1
 21 20  1  0
 22 21  1  0
 23 22  2  0
 24 27  1  0
 25 24  2  0
 26 22  1  0
M  END
$$$$
