KIE.pdb
     RDKit          3D

 27 26  0  0  1  0  0  0  0  0999 V2000
   22.7733  -20.5146  -14.7830 N   0  0  0  0  0  0  0  0  0  0  0  0
   21.9549  -19.9782  -13.7008 C   0  0  1  0  0  0  0  0  0  0  0  0
   20.5309  -20.0299  -14.1997 C   0  0  0  0  0  0  0  0  0  0  0  0
   20.1180  -18.8614  -15.0320 C   0  0  0  0  0  0  0  0  0  0  0  0
   21.3066  -18.1125  -15.5893 C   0  0  0  0  0  0  0  0  0  0  0  0
   20.8927  -16.8950  -16.3727 C   0  0  0  0  0  0  0  0  0  0  0  0
   22.0251  -16.1007  -16.7498 N   0  0  0  0  0  0  0  0  0  0  0  0
   22.0642  -20.8607  -12.4969 C   0  0  0  0  0  0  0  0  0  0  0  0
   21.9099  -22.1015  -12.6301 O   0  0  0  0  0  0  0  0  0  0  0  0
   25.5154  -19.7195   -8.4755 C   0  0  0  0  0  0  0  0  0  0  0  0
   24.7827  -20.6057   -9.4562 C   0  0  0  0  0  0  0  0  0  0  0  0
   23.3148  -20.6268   -9.0205 C   0  0  2  0  0  0  0  0  0  0  0  0
   23.2665  -21.4579   -7.7566 C   0  0  0  0  0  0  0  0  0  0  0  0
   22.4758  -21.3126  -10.0848 C   0  0  2  0  0  0  0  0  0  0  0  0
   22.3321  -20.3759  -11.2154 N   0  0  0  0  0  0  0  0  0  0  0  0
   21.1417  -21.5929   -9.5223 C   0  0  0  0  0  0  0  0  0  0  0  0
   20.3870  -20.5680   -9.3081 O   0  0  0  0  0  0  0  0  0  0  0  0
   20.5929  -22.8439   -9.1979 N   0  0  0  0  0  0  0  0  0  0  0  0
   19.2356  -22.9427   -8.5931 C   0  0  1  0  0  0  0  0  0  0  0  0
   18.4077  -23.8353   -9.4553 C   0  0  0  0  0  0  0  0  0  0  0  0
   17.0481  -24.1740   -8.9881 C   0  0  0  0  0  0  0  0  0  0  0  0
   16.3113  -25.0753   -9.8597 C   0  0  0  0  0  0  0  0  0  0  0  0
   15.5758  -26.0182   -9.4614 O   0  0  0  0  0  0  0  0  0  0  0  0
   19.4152  -23.2735   -7.1944 C   0  0  0  0  0  0  0  0  0  0  0  0
   18.5013  -23.2366   -6.3331 O   0  0  0  0  0  0  0  0  0  0  0  0
   16.4142  -24.8894  -11.2483 O   0  0  0  0  0  0  0  0  0  0  0  0
   20.6636  -23.6758   -6.6718 O   0  0  0  0  0  0  0  0  0  0  0  0
  2  1  1  6
  3  2  1  0
  4  3  1  0
  5  4  1  0
  5  6  1  0
  7  6  1  0
  8  9  2  0
  8  2  1  0
 11 10  1  0
 12 14  1  0
 12 11  1  0
 12 13  1  1
 14 15  1  6
 15  8  1  0
 16 14  1  0
 17 16  2  0
 18 16  1  0
 19 24  1  0
 19 18  1  0
 19 20  1  6
 21 20  1  0
 22 21  1  0
 23 22  2  0
 24 27  1  0
 25 24  2  0
 26 22  1  0
M  END
$$$$
