KIE.pdb
     RDKit          3D

 27 26  0  0  1  0  0  0  0  0999 V2000
   25.2737  -23.7878  -15.1035 N   0  0  0  0  0  0  0  0  0  0  0  0
   24.1366  -23.0148  -15.5913 C   0  0  1  0  0  0  0  0  0  0  0  0
   23.6300  -23.7536  -16.8065 C   0  0  0  0  0  0  0  0  0  0  0  0
   24.6962  -24.2361  -17.7335 C   0  0  0  0  0  0  0  0  0  0  0  0
   25.0929  -25.6662  -17.4477 C   0  0  0  0  0  0  0  0  0  0  0  0
   26.0277  -26.2145  -18.4930 C   0  0  0  0  0  0  0  0  0  0  0  0
   26.3426  -27.5917  -18.2483 N   0  0  0  0  0  0  0  0  0  0  0  0
   23.0513  -23.0038  -14.5608 C   0  0  0  0  0  0  0  0  0  0  0  0
   23.0827  -23.8466  -13.6281 O   0  0  0  0  0  0  0  0  0  0  0  0
   22.9160  -19.0508  -13.7464 C   0  0  0  0  0  0  0  0  0  0  0  0
   22.3405  -19.8775  -12.6198 C   0  0  0  0  0  0  0  0  0  0  0  0
   21.0058  -20.4371  -13.1202 C   0  0  2  0  0  0  0  0  0  0  0  0
   20.0182  -20.2330  -11.9917 C   0  0  0  0  0  0  0  0  0  0  0  0
   21.1425  -21.9271  -13.3820 C   0  0  2  0  0  0  0  0  0  0  0  0
   21.9903  -22.0965  -14.5774 N   0  0  0  0  0  0  0  0  0  0  0  0
   19.8040  -22.4793  -13.6617 C   0  0  0  0  0  0  0  0  0  0  0  0
   19.1693  -21.9577  -14.6572 O   0  0  0  0  0  0  0  0  0  0  0  0
   19.1409  -23.5099  -12.9767 N   0  0  0  0  0  0  0  0  0  0  0  0
   17.7529  -23.8987  -13.3512 C   0  0  1  0  0  0  0  0  0  0  0  0
   17.4791  -25.2487  -12.7782 C   0  0  0  0  0  0  0  0  0  0  0  0
   16.1120  -25.7900  -12.9178 C   0  0  0  0  0  0  0  0  0  0  0  0
   15.8742  -27.0356  -12.2057 C   0  0  0  0  0  0  0  0  0  0  0  0
   15.9913  -28.1848  -12.7099 O   0  0  0  0  0  0  0  0  0  0  0  0
   16.8900  -22.7898  -12.9997 C   0  0  0  0  0  0  0  0  0  0  0  0
   16.9906  -22.1195  -11.9417 O   0  0  0  0  0  0  0  0  0  0  0  0
   15.4906  -26.9671  -10.8562 O   0  0  0  0  0  0  0  0  0  0  0  0
   15.8395  -22.3597  -13.8392 O   0  0  0  0  0  0  0  0  0  0  0  0
  2  1  1  1
  3  2  1  0
  4  3  1  0
  5  4  1  0
  5  6  1  0
  7  6  1  0
  8  9  2  0
  8  2  1  0
 11 10  1  0
 12 14  1  0
 12 11  1  0
 12 13  1  1
 14 15  1  6
 15  8  1  0
 16 14  1  0
 17 16  2  0
 18 16  1  0
 19 24  1  0
 19 18  1  0
 19 20  1  1
 21 20  1  0
 22 21  1  0
 23 22  2  0
 24 27  1  0
 25 24  2  0
 26 22  1  0
M  END
$$$$
