KIE.pdb
     RDKit          3D

 27 26  0  0  1  0  0  0  0  0999 V2000
   28.2032  -20.9000  -15.4441 N   0  0  0  0  0  0  0  0  0  0  0  0
   27.5554  -19.8722  -14.6361 C   0  0  1  0  0  0  0  0  0  0  0  0
   26.9361  -18.9082  -15.6192 C   0  0  0  0  0  0  0  0  0  0  0  0
   27.8928  -18.3163  -16.6006 C   0  0  0  0  0  0  0  0  0  0  0  0
   28.7270  -19.3724  -17.2885 C   0  0  0  0  0  0  0  0  0  0  0  0
   29.6733  -18.7782  -18.2979 C   0  0  0  0  0  0  0  0  0  0  0  0
   29.0670  -17.6947  -19.0147 N   0  0  0  0  0  0  0  0  0  0  0  0
   26.4586  -20.4836  -13.8218 C   0  0  0  0  0  0  0  0  0  0  0  0
   25.7847  -21.4263  -14.3101 O   0  0  0  0  0  0  0  0  0  0  0  0
   26.9643  -20.6690   -8.4692 C   0  0  0  0  0  0  0  0  0  0  0  0
   26.6444  -21.1759   -9.8566 C   0  0  0  0  0  0  0  0  0  0  0  0
   25.3445  -20.4911  -10.2879 C   0  0  2  0  0  0  0  0  0  0  0  0
   24.2420  -21.1423   -9.4812 C   0  0  0  0  0  0  0  0  0  0  0  0
   25.0907  -20.7586  -11.7614 C   0  0  2  0  0  0  0  0  0  0  0  0
   26.1371  -20.0595  -12.5311 N   0  0  0  0  0  0  0  0  0  0  0  0
   23.7754  -20.1966  -12.1208 C   0  0  0  0  0  0  0  0  0  0  0  0
   23.6196  -18.9326  -11.9111 O   0  0  0  0  0  0  0  0  0  0  0  0
   22.6745  -20.8729  -12.6699 N   0  0  0  0  0  0  0  0  0  0  0  0
   21.4378  -20.1315  -13.0424 C   0  0  1  0  0  0  0  0  0  0  0  0
   21.4703  -19.8853  -14.5135 C   0  0  0  0  0  0  0  0  0  0  0  0
   20.3175  -19.1882  -15.1191 C   0  0  0  0  0  0  0  0  0  0  0  0
   19.9258  -19.6834  -16.4292 C   0  0  0  0  0  0  0  0  0  0  0  0
   20.5242  -20.5955  -17.0607 O   0  0  0  0  0  0  0  0  0  0  0  0
   20.3199  -20.8510  -12.4674 C   0  0  0  0  0  0  0  0  0  0  0  0
   20.3505  -22.0623  -12.1352 O   0  0  0  0  0  0  0  0  0  0  0  0
   18.7976  -19.1161  -17.0444 O   0  0  0  0  0  0  0  0  0  0  0  0
   19.0732  -20.2338  -12.2262 O   0  0  0  0  0  0  0  0  0  0  0  0
  2  1  1  6
  3  2  1  0
  4  3  1  0
  5  4  1  0
  5  6  1  0
  7  6  1  0
  8  9  2  0
  8  2  1  0
 11 10  1  0
 12 14  1  0
 12 11  1  0
 12 13  1  1
 14 15  1  6
 15  8  1  0
 16 14  1  0
 17 16  2  0
 18 16  1  0
 19 24  1  0
 19 18  1  0
 19 20  1  6
 21 20  1  0
 22 21  1  0
 23 22  2  0
 24 27  1  0
 25 24  2  0
 26 22  1  0
M  END
$$$$
