KIE.pdb
     RDKit          3D

 27 26  0  0  1  0  0  0  0  0999 V2000
   27.3652  -22.4966  -15.8543 N   0  0  0  0  0  0  0  0  0  0  0  0
   26.7726  -21.2460  -15.3922 C   0  0  1  0  0  0  0  0  0  0  0  0
   26.1431  -20.6158  -16.6112 C   0  0  0  0  0  0  0  0  0  0  0  0
   27.1150  -20.0717  -17.6052 C   0  0  0  0  0  0  0  0  0  0  0  0
   27.7314  -18.7712  -17.1439 C   0  0  0  0  0  0  0  0  0  0  0  0
   28.4013  -18.0306  -18.2708 C   0  0  0  0  0  0  0  0  0  0  0  0
   27.4507  -17.3123  -19.0682 N   0  0  0  0  0  0  0  0  0  0  0  0
   25.6905  -21.5339  -14.3992 C   0  0  0  0  0  0  0  0  0  0  0  0
   24.9063  -22.4944  -14.6080 O   0  0  0  0  0  0  0  0  0  0  0  0
   26.4261  -20.3141   -9.1827 C   0  0  0  0  0  0  0  0  0  0  0  0
   25.9746  -21.1860  -10.3316 C   0  0  0  0  0  0  0  0  0  0  0  0
   24.7555  -20.4995  -10.9541 C   0  0  2  0  0  0  0  0  0  0  0  0
   23.6052  -20.7481  -10.0024 C   0  0  0  0  0  0  0  0  0  0  0  0
   24.4301  -21.1478  -12.2886 C   0  0  2  0  0  0  0  0  0  0  0  0
   25.5005  -20.7846  -13.2366 N   0  0  0  0  0  0  0  0  0  0  0  0
   23.1511  -20.5999  -12.7772 C   0  0  0  0  0  0  0  0  0  0  0  0
   23.1273  -19.3307  -13.0109 O   0  0  0  0  0  0  0  0  0  0  0  0
   21.9576  -21.2969  -13.0242 N   0  0  0  0  0  0  0  0  0  0  0  0
   20.7569  -20.5847  -13.5425 C   0  0  1  0  0  0  0  0  0  0  0  0
   20.0110  -21.5210  -14.4329 C   0  0  0  0  0  0  0  0  0  0  0  0
   18.6605  -21.1189  -14.8756 C   0  0  0  0  0  0  0  0  0  0  0  0
   17.9748  -22.0973  -15.7049 C   0  0  0  0  0  0  0  0  0  0  0  0
   18.4428  -23.2235  -16.0228 O   0  0  0  0  0  0  0  0  0  0  0  0
   20.0822  -20.0005  -12.4018 C   0  0  0  0  0  0  0  0  0  0  0  0
   20.1056  -20.4803  -11.2408 O   0  0  0  0  0  0  0  0  0  0  0  0
   16.6953  -21.7784  -16.1891 O   0  0  0  0  0  0  0  0  0  0  0  0
   19.3248  -18.8133  -12.5036 O   0  0  0  0  0  0  0  0  0  0  0  0
  2  1  1  6
  3  2  1  0
  4  3  1  0
  5  4  1  0
  5  6  1  0
  7  6  1  0
  8  9  2  0
  8  2  1  0
 11 10  1  0
 12 14  1  0
 12 11  1  0
 12 13  1  1
 14 15  1  6
 15  8  1  0
 16 14  1  0
 17 16  2  0
 18 16  1  0
 19 24  1  0
 19 18  1  0
 19 20  1  1
 21 20  1  0
 22 21  1  0
 23 22  2  0
 24 27  1  0
 25 24  2  0
 26 22  1  0
M  END
$$$$
