KIE.pdb
     RDKit          3D

 27 26  0  0  1  0  0  0  0  0999 V2000
   22.4894  -21.1316  -10.1404 N   0  0  0  0  0  0  0  0  0  0  0  0
   23.2281  -21.7587  -11.2311 C   0  0  1  0  0  0  0  0  0  0  0  0
   22.1830  -22.3331  -12.1568 C   0  0  0  0  0  0  0  0  0  0  0  0
   20.9033  -22.7184  -11.4914 C   0  0  0  0  0  0  0  0  0  0  0  0
   19.9448  -21.5546  -11.3863 C   0  0  0  0  0  0  0  0  0  0  0  0
   18.8790  -21.6005  -12.4489 C   0  0  0  0  0  0  0  0  0  0  0  0
   17.6682  -22.1891  -11.9560 N   0  0  0  0  0  0  0  0  0  0  0  0
   24.0026  -20.7210  -11.9817 C   0  0  0  0  0  0  0  0  0  0  0  0
   23.6791  -19.5114  -11.8659 O   0  0  0  0  0  0  0  0  0  0  0  0
   29.2784  -21.0452  -12.0563 C   0  0  0  0  0  0  0  0  0  0  0  0
   27.8519  -20.5540  -11.9674 C   0  0  0  0  0  0  0  0  0  0  0  0
   27.3435  -20.4123  -13.4048 C   0  0  2  0  0  0  0  0  0  0  0  0
   28.1959  -19.3379  -14.0450 C   0  0  0  0  0  0  0  0  0  0  0  0
   25.8992  -19.9424  -13.3919 C   0  0  2  0  0  0  0  0  0  0  0  0
   25.0802  -21.0256  -12.8154 N   0  0  0  0  0  0  0  0  0  0  0  0
   25.4701  -19.7057  -14.7828 C   0  0  0  0  0  0  0  0  0  0  0  0
   25.6349  -20.6873  -15.6046 O   0  0  0  0  0  0  0  0  0  0  0  0
   24.8976  -18.5406  -15.3176 N   0  0  0  0  0  0  0  0  0  0  0  0
   24.4066  -18.5133  -16.7233 C   0  0  1  0  0  0  0  0  0  0  0  0
   23.2384  -17.5877  -16.7883 C   0  0  0  0  0  0  0  0  0  0  0  0
   22.5953  -17.3842  -18.1023 C   0  0  0  0  0  0  0  0  0  0  0  0
   21.5805  -16.3429  -18.1292 C   0  0  0  0  0  0  0  0  0  0  0  0
   21.2325  -15.6532  -17.1334 O   0  0  0  0  0  0  0  0  0  0  0  0
   25.5550  -18.2681  -17.5713 C   0  0  0  0  0  0  0  0  0  0  0  0
   26.3713  -17.3274  -17.4065 O   0  0  0  0  0  0  0  0  0  0  0  0
   20.9372  -16.0727  -19.3485 O   0  0  0  0  0  0  0  0  0  0  0  0
   25.8591  -19.0878  -18.6798 O   0  0  0  0  0  0  0  0  0  0  0  0
  2  1  1  1
  3  2  1  0
  4  3  1  0
  5  4  1  0
  5  6  1  0
  7  6  1  0
  8  9  2  0
  8  2  1  0
 11 10  1  0
 12 14  1  0
 12 11  1  0
 12 13  1  6
 14 15  1  6
 15  8  1  0
 16 14  1  0
 17 16  2  0
 18 16  1  0
 19 24  1  0
 19 18  1  0
 19 20  1  1
 21 20  1  0
 22 21  1  0
 23 22  2  0
 24 27  1  0
 25 24  2  0
 26 22  1  0
M  END
$$$$
