KIE.pdb
     RDKit          3D

 27 26  0  0  1  0  0  0  0  0999 V2000
   28.5470  -22.1070  -16.4473 N   0  0  0  0  0  0  0  0  0  0  0  0
   27.8399  -20.9445  -15.9208 C   0  0  1  0  0  0  0  0  0  0  0  0
   27.1738  -20.2966  -17.1106 C   0  0  0  0  0  0  0  0  0  0  0  0
   28.0960  -19.5368  -18.0055 C   0  0  0  0  0  0  0  0  0  0  0  0
   29.2408  -20.3913  -18.4992 C   0  0  0  0  0  0  0  0  0  0  0  0
   30.1746  -19.6238  -19.3970 C   0  0  0  0  0  0  0  0  0  0  0  0
   29.4735  -18.6403  -20.1695 N   0  0  0  0  0  0  0  0  0  0  0  0
   26.7740  -21.3877  -14.9681 C   0  0  0  0  0  0  0  0  0  0  0  0
   25.9551  -22.2700  -15.3315 O   0  0  0  0  0  0  0  0  0  0  0  0
   25.5167  -21.1578   -8.9599 C   0  0  0  0  0  0  0  0  0  0  0  0
   25.0841  -21.6436  -10.3240 C   0  0  0  0  0  0  0  0  0  0  0  0
   26.0426  -21.0164  -11.3403 C   0  0  2  0  0  0  0  0  0  0  0  0
   25.8391  -19.5202  -11.2378 C   0  0  0  0  0  0  0  0  0  0  0  0
   25.6646  -21.4628  -12.7421 C   0  0  2  0  0  0  0  0  0  0  0  0
   26.6363  -20.8685  -13.6795 N   0  0  0  0  0  0  0  0  0  0  0  0
   24.3196  -20.9440  -13.0532 C   0  0  0  0  0  0  0  0  0  0  0  0
   24.2378  -19.6773  -13.2870 O   0  0  0  0  0  0  0  0  0  0  0  0
   23.1183  -21.6664  -13.1313 N   0  0  0  0  0  0  0  0  0  0  0  0
   21.8492  -20.9883  -13.5150 C   0  0  1  0  0  0  0  0  0  0  0  0
   21.1472  -21.8480  -14.5118 C   0  0  0  0  0  0  0  0  0  0  0  0
   19.7871  -21.4487  -14.9267 C   0  0  0  0  0  0  0  0  0  0  0  0
   19.6980  -20.8907  -16.2668 C   0  0  0  0  0  0  0  0  0  0  0  0
   20.6612  -20.8070  -17.0755 O   0  0  0  0  0  0  0  0  0  0  0  0
   21.1713  -20.6260  -12.2873 C   0  0  0  0  0  0  0  0  0  0  0  0
   21.2557  -21.2714  -11.2127 O   0  0  0  0  0  0  0  0  0  0  0  0
   18.4529  -20.4111  -16.7059 O   0  0  0  0  0  0  0  0  0  0  0  0
   20.3402  -19.4884  -12.1954 O   0  0  0  0  0  0  0  0  0  0  0  0
  2  1  1  6
  3  2  1  0
  4  3  1  0
  5  4  1  0
  5  6  1  0
  7  6  1  0
  8  9  2  0
  8  2  1  0
 11 10  1  0
 12 14  1  0
 12 11  1  0
 12 13  1  6
 14 15  1  6
 15  8  1  0
 16 14  1  0
 17 16  2  0
 18 16  1  0
 19 24  1  0
 19 18  1  0
 19 20  1  6
 21 20  1  0
 22 21  1  0
 23 22  2  0
 24 27  1  0
 25 24  2  0
 26 22  1  0
M  END
$$$$
