KIE.pdb
     RDKit          3D

 27 26  0  0  1  0  0  0  0  0999 V2000
   29.1225  -28.6496  -16.2062 N   0  0  0  0  0  0  0  0  0  0  0  0
   28.5709  -27.8024  -17.2582 C   0  0  1  0  0  0  0  0  0  0  0  0
   27.3328  -28.5131  -17.7495 C   0  0  0  0  0  0  0  0  0  0  0  0
   27.5948  -29.6664  -18.6604 C   0  0  0  0  0  0  0  0  0  0  0  0
   28.5427  -29.3023  -19.7798 C   0  0  0  0  0  0  0  0  0  0  0  0
   28.7311  -30.4351  -20.7538 C   0  0  0  0  0  0  0  0  0  0  0  0
   29.6131  -30.0695  -21.8234 N   0  0  0  0  0  0  0  0  0  0  0  0
   28.1596  -26.4831  -16.6835 C   0  0  0  0  0  0  0  0  0  0  0  0
   27.9844  -26.3827  -15.4424 O   0  0  0  0  0  0  0  0  0  0  0  0
   30.9115  -23.1424  -18.2572 C   0  0  0  0  0  0  0  0  0  0  0  0
   30.0584  -23.2877  -17.0181 C   0  0  0  0  0  0  0  0  0  0  0  0
   28.6130  -23.0136  -17.4429 C   0  0  2  0  0  0  0  0  0  0  0  0
   28.2665  -21.6488  -16.8881 C   0  0  0  0  0  0  0  0  0  0  0  0
   27.6911  -24.0426  -16.8116 C   0  0  2  0  0  0  0  0  0  0  0  0
   27.9568  -25.3407  -17.4600 N   0  0  0  0  0  0  0  0  0  0  0  0
   26.2953  -23.6497  -17.0801 C   0  0  0  0  0  0  0  0  0  0  0  0
   25.9734  -23.5035  -18.3215 O   0  0  0  0  0  0  0  0  0  0  0  0
   25.2731  -23.4218  -16.1450 N   0  0  0  0  0  0  0  0  0  0  0  0
   23.9126  -23.0142  -16.5929 C   0  0  1  0  0  0  0  0  0  0  0  0
   22.9525  -23.3142  -15.4912 C   0  0  0  0  0  0  0  0  0  0  0  0
   21.5637  -22.8342  -15.6403 C   0  0  0  0  0  0  0  0  0  0  0  0
   20.6960  -23.1183  -14.5083 C   0  0  0  0  0  0  0  0  0  0  0  0
   19.5034  -22.7250  -14.4010 O   0  0  0  0  0  0  0  0  0  0  0  0
   24.0170  -21.6595  -17.0946 C   0  0  0  0  0  0  0  0  0  0  0  0
   24.7521  -20.7718  -16.5943 O   0  0  0  0  0  0  0  0  0  0  0  0
   21.2106  -23.8902  -13.4534 O   0  0  0  0  0  0  0  0  0  0  0  0
   23.2835  -21.2149  -18.2160 O   0  0  0  0  0  0  0  0  0  0  0  0
  2  1  1  1
  3  2  1  0
  4  3  1  0
  5  4  1  0
  5  6  1  0
  7  6  1  0
  8  9  2  0
  8  2  1  0
 11 10  1  0
 12 14  1  0
 12 11  1  0
 12 13  1  1
 14 15  1  6
 15  8  1  0
 16 14  1  0
 17 16  2  0
 18 16  1  0
 19 24  1  0
 19 18  1  0
 19 20  1  1
 21 20  1  0
 22 21  1  0
 23 22  2  0
 24 27  1  0
 25 24  2  0
 26 22  1  0
M  END
$$$$
