PAP.pdb
     RDKit          3D

 20 21  0  0  1  0  0  0  0  0999 V2000
   20.5367  -11.8000  -19.4217 N   0  0  0  0  0  0  0  0  0  0  0  0
   20.9974  -12.1577  -20.7723 C   0  0  0  0  0  0  0  0  0  0  0  0
   21.1146  -10.7740  -21.3941 C   0  0  0  0  0  0  0  0  0  0  0  0
   21.6696   -9.9739  -20.2318 C   0  0  0  0  0  0  0  0  0  0  0  0
   21.6018  -10.8923  -19.0213 C   0  0  1  0  0  0  0  0  0  0  0  0
   21.2656  -10.1556  -17.7882 C   0  0  0  0  0  0  0  0  0  0  0  0
   20.1526   -9.6202  -17.6914 O   0  0  0  0  0  0  0  0  0  0  0  0
   22.8075   -9.7153  -14.4189 C   0  0  0  0  0  0  0  0  0  0  0  0
   21.8199   -9.3486  -15.5139 C   0  0  2  0  0  0  0  0  0  0  0  0
   22.2040  -10.0560  -16.7161 N   0  0  0  0  0  0  0  0  0  0  0  0
   21.8400   -7.8978  -15.7905 C   0  0  0  0  0  0  0  0  0  0  0  0
   22.5174   -7.4899  -16.7782 O   0  0  0  0  0  0  0  0  0  0  0  0
   21.1409   -6.9506  -15.0067 N   0  0  0  0  0  0  0  0  0  0  0  0
   20.2799   -7.2744  -13.8943 C   0  0  0  0  0  0  0  0  0  0  0  0
   19.0559   -6.4100  -14.2257 C   0  0  0  0  0  0  0  0  0  0  0  0
   19.7354   -5.1079  -14.6078 C   0  0  0  0  0  0  0  0  0  0  0  0
   21.1241   -5.5119  -15.1215 C   0  0  1  0  0  0  0  0  0  0  0  0
   22.1683   -4.9230  -14.2118 C   0  0  0  0  0  0  0  0  0  0  0  0
   22.5646   -5.5779  -13.2143 O   0  0  0  0  0  0  0  0  0  0  0  0
   22.7202   -3.6752  -14.4265 O   0  0  0  0  0  0  0  0  0  0  0  0
  1  2  1  0
  3  2  1  0
  4  5  1  0
  4  3  1  0
  5  1  1  0
  5  6  1  1
  7  6  2  0
  9  8  1  1
  9 11  1  0
  9 10  1  0
 10  6  1  0
 11 13  1  0
 12 11  2  0
 13 14  1  0
 13 17  1  0
 14 15  1  0
 15 16  1  0
 17 18  1  1
 17 16  1  0
 18 20  1  0
 19 18  2  0
M  END
$$$$
