PAP.pdb
     RDKit          3D

 20 21  0  0  1  0  0  0  0  0999 V2000
   29.1443  -19.0605  -19.1488 N   0  0  0  0  0  0  0  0  0  0  0  0
   28.8952  -19.2889  -20.5805 C   0  0  0  0  0  0  0  0  0  0  0  0
   28.0938  -20.5806  -20.5136 C   0  0  0  0  0  0  0  0  0  0  0  0
   27.2381  -20.3339  -19.2864 C   0  0  0  0  0  0  0  0  0  0  0  0
   27.7772  -19.0626  -18.6488 C   0  0  1  0  0  0  0  0  0  0  0  0
   27.7277  -19.1206  -17.1756 C   0  0  0  0  0  0  0  0  0  0  0  0
   28.5288  -19.8499  -16.5746 O   0  0  0  0  0  0  0  0  0  0  0  0
   26.1248  -17.2286  -14.4246 C   0  0  0  0  0  0  0  0  0  0  0  0
   26.6983  -18.5088  -15.0083 C   0  0  2  0  0  0  0  0  0  0  0  0
   26.7729  -18.3500  -16.4445 N   0  0  0  0  0  0  0  0  0  0  0  0
   25.8375  -19.6700  -14.7037 C   0  0  0  0  0  0  0  0  0  0  0  0
   25.2169  -20.2177  -15.6606 O   0  0  0  0  0  0  0  0  0  0  0  0
   25.6770  -20.1936  -13.3997 N   0  0  0  0  0  0  0  0  0  0  0  0
   26.2457  -19.6190  -12.2039 C   0  0  0  0  0  0  0  0  0  0  0  0
   26.8441  -20.8708  -11.5480 C   0  0  0  0  0  0  0  0  0  0  0  0
   25.6987  -21.8497  -11.7303 C   0  0  0  0  0  0  0  0  0  0  0  0
   24.9435  -21.3615  -12.9740 C   0  0  1  0  0  0  0  0  0  0  0  0
   23.5506  -20.9602  -12.5695 C   0  0  0  0  0  0  0  0  0  0  0  0
   23.3005  -19.7548  -12.3139 O   0  0  0  0  0  0  0  0  0  0  0  0
   22.5175  -21.8710  -12.4646 O   0  0  0  0  0  0  0  0  0  0  0  0
  1  2  1  0
  3  2  1  0
  4  5  1  0
  4  3  1  0
  5  1  1  0
  5  6  1  1
  7  6  2  0
  9  8  1  1
  9 11  1  0
  9 10  1  0
 10  6  1  0
 11 13  1  0
 12 11  2  0
 13 14  1  0
 13 17  1  0
 14 15  1  0
 15 16  1  0
 17 18  1  1
 17 16  1  0
 18 20  1  0
 19 18  2  0
M  END
$$$$
