PAP.pdb
     RDKit          3D

 20 21  0  0  1  0  0  0  0  0999 V2000
   18.5989  -10.1438  -16.8274 N   0  0  0  0  0  0  0  0  0  0  0  0
   17.9434  -11.1405  -17.6883 C   0  0  0  0  0  0  0  0  0  0  0  0
   17.9592  -12.3492  -16.7642 C   0  0  0  0  0  0  0  0  0  0  0  0
   17.6591  -11.7019  -15.4263 C   0  0  0  0  0  0  0  0  0  0  0  0
   17.7278  -10.2010  -15.6626 C   0  0  1  0  0  0  0  0  0  0  0  0
   18.3027   -9.4865  -14.5071 C   0  0  0  0  0  0  0  0  0  0  0  0
   17.6536   -9.4249  -13.4537 O   0  0  0  0  0  0  0  0  0  0  0  0
   21.5932   -8.0310  -13.5762 C   0  0  0  0  0  0  0  0  0  0  0  0
   20.0808   -8.1178  -13.4600 C   0  0  2  0  0  0  0  0  0  0  0  0
   19.5889   -8.8714  -14.5929 N   0  0  0  0  0  0  0  0  0  0  0  0
   19.4634   -6.7759  -13.4791 C   0  0  0  0  0  0  0  0  0  0  0  0
   18.9003   -6.3953  -14.5462 O   0  0  0  0  0  0  0  0  0  0  0  0
   19.4730   -5.9036  -12.3658 N   0  0  0  0  0  0  0  0  0  0  0  0
   20.0347   -6.2200  -11.0744 C   0  0  0  0  0  0  0  0  0  0  0  0
   18.8962   -5.7615  -10.1530 C   0  0  0  0  0  0  0  0  0  0  0  0
   18.5536   -4.4250  -10.7852 C   0  0  0  0  0  0  0  0  0  0  0  0
   18.9557   -4.5603  -12.2602 C   0  0  1  0  0  0  0  0  0  0  0  0
   20.0534   -3.5744  -12.5564 C   0  0  0  0  0  0  0  0  0  0  0  0
   21.2538   -3.9167  -12.4052 O   0  0  0  0  0  0  0  0  0  0  0  0
   19.7979   -2.2895  -12.9940 O   0  0  0  0  0  0  0  0  0  0  0  0
  1  2  1  0
  3  2  1  0
  4  5  1  0
  4  3  1  0
  5  1  1  0
  5  6  1  1
  7  6  2  0
  9  8  1  6
  9 11  1  0
  9 10  1  0
 10  6  1  0
 11 13  1  0
 12 11  2  0
 13 14  1  0
 13 17  1  0
 14 15  1  0
 15 16  1  0
 17 18  1  1
 17 16  1  0
 18 20  1  0
 19 18  2  0
M  END
$$$$
