PAP.pdb
     RDKit          3D

 20 21  0  0  1  0  0  0  0  0999 V2000
   26.5554  -20.0176  -13.7968 N   0  0  0  0  0  0  0  0  0  0  0  0
   26.8021  -20.9976  -14.8658 C   0  0  0  0  0  0  0  0  0  0  0  0
   28.0157  -21.7186  -14.2978 C   0  0  0  0  0  0  0  0  0  0  0  0
   27.6594  -21.7816  -12.8253 C   0  0  0  0  0  0  0  0  0  0  0  0
   26.4228  -20.9124  -12.6564 C   0  0  1  0  0  0  0  0  0  0  0  0
   26.4337  -20.1806  -11.3756 C   0  0  0  0  0  0  0  0  0  0  0  0
   27.0373  -19.1010  -11.3043 O   0  0  0  0  0  0  0  0  0  0  0  0
   24.3885  -19.8657   -8.4468 C   0  0  0  0  0  0  0  0  0  0  0  0
   25.8042  -19.9532   -8.9916 C   0  0  2  0  0  0  0  0  0  0  0  0
   25.7605  -20.7020  -10.2289 N   0  0  0  0  0  0  0  0  0  0  0  0
   26.7005  -20.6503   -8.0468 C   0  0  0  0  0  0  0  0  0  0  0  0
   26.9116  -21.8846   -8.2278 O   0  0  0  0  0  0  0  0  0  0  0  0
   27.3293  -20.0046   -6.9568 N   0  0  0  0  0  0  0  0  0  0  0  0
   27.1257  -18.6246   -6.5861 C   0  0  0  0  0  0  0  0  0  0  0  0
   28.5785  -18.1673   -6.3970 C   0  0  0  0  0  0  0  0  0  0  0  0
   29.1325  -19.3363   -5.6034 C   0  0  0  0  0  0  0  0  0  0  0  0
   28.2706  -20.5415   -6.0035 C   0  0  1  0  0  0  0  0  0  0  0  0
   27.5305  -21.0335   -4.7890 C   0  0  0  0  0  0  0  0  0  0  0  0
   26.3077  -20.7717   -4.6579 O   0  0  0  0  0  0  0  0  0  0  0  0
   28.1436  -21.7716   -3.7955 O   0  0  0  0  0  0  0  0  0  0  0  0
  1  2  1  0
  3  2  1  0
  4  5  1  0
  4  3  1  0
  5  1  1  0
  5  6  1  1
  7  6  2  0
  9  8  1  1
  9 11  1  0
  9 10  1  0
 10  6  1  0
 11 13  1  0
 12 11  2  0
 13 14  1  0
 13 17  1  0
 14 15  1  0
 15 16  1  0
 17 18  1  1
 17 16  1  0
 18 20  1  0
 19 18  2  0
M  END
$$$$
