PAP.pdb
     RDKit          3D

 20 21  0  0  1  0  0  0  0  0999 V2000
   23.6689  -21.1292   -9.3023 N   0  0  0  0  0  0  0  0  0  0  0  0
   22.3023  -21.3547   -8.8066 C   0  0  0  0  0  0  0  0  0  0  0  0
   21.5681  -20.2240   -9.5121 C   0  0  0  0  0  0  0  0  0  0  0  0
   22.2486  -20.2301  -10.8671 C   0  0  0  0  0  0  0  0  0  0  0  0
   23.4307  -21.1783  -10.7375 C   0  0  1  0  0  0  0  0  0  0  0  0
   24.5991  -20.7117  -11.5078 C   0  0  0  0  0  0  0  0  0  0  0  0
   25.2782  -19.7756  -11.0635 O   0  0  0  0  0  0  0  0  0  0  0  0
   26.5940  -21.8405  -14.4189 C   0  0  0  0  0  0  0  0  0  0  0  0
   26.0142  -20.7455  -13.5395 C   0  0  2  0  0  0  0  0  0  0  0  0
   24.9496  -21.3248  -12.7493 N   0  0  0  0  0  0  0  0  0  0  0  0
   25.4568  -19.6444  -14.3512 C   0  0  0  0  0  0  0  0  0  0  0  0
   24.2006  -19.4942  -14.3674 O   0  0  0  0  0  0  0  0  0  0  0  0
   26.2585  -18.7563  -15.1056 N   0  0  0  0  0  0  0  0  0  0  0  0
   27.6943  -18.8406  -15.2261 C   0  0  0  0  0  0  0  0  0  0  0  0
   28.0842  -17.3791  -14.9667 C   0  0  0  0  0  0  0  0  0  0  0  0
   27.0570  -16.6650  -15.8258 C   0  0  0  0  0  0  0  0  0  0  0  0
   25.8557  -17.6177  -15.8958 C   0  0  1  0  0  0  0  0  0  0  0  0
   25.6565  -18.0433  -17.3254 C   0  0  0  0  0  0  0  0  0  0  0  0
   26.1193  -19.1452  -17.7162 O   0  0  0  0  0  0  0  0  0  0  0  0
   24.9772  -17.2658  -18.2429 O   0  0  0  0  0  0  0  0  0  0  0  0
  1  2  1  0
  3  2  1  0
  4  5  1  0
  4  3  1  0
  5  1  1  0
  5  6  1  6
  7  6  2  0
  9  8  1  6
  9 11  1  0
  9 10  1  0
 10  6  1  0
 11 13  1  0
 12 11  2  0
 13 14  1  0
 13 17  1  0
 14 15  1  0
 15 16  1  0
 17 18  1  6
 17 16  1  0
 18 20  1  0
 19 18  2  0
M  END
$$$$
