PAP.pdb
     RDKit          3D

 20 21  0  0  1  0  0  0  0  0999 V2000
   24.3287  -15.7247  -16.0205 N   0  0  0  0  0  0  0  0  0  0  0  0
   25.1503  -14.7250  -16.7205 C   0  0  0  0  0  0  0  0  0  0  0  0
   26.2791  -14.5499  -15.7153 C   0  0  0  0  0  0  0  0  0  0  0  0
   26.4731  -15.9759  -15.2378 C   0  0  0  0  0  0  0  0  0  0  0  0
   25.3179  -16.7740  -15.8226 C   0  0  1  0  0  0  0  0  0  0  0  0
   24.8405  -17.8152  -14.8930 C   0  0  0  0  0  0  0  0  0  0  0  0
   24.0016  -17.5149  -14.0322 O   0  0  0  0  0  0  0  0  0  0  0  0
   25.0078  -21.4777  -14.4788 C   0  0  0  0  0  0  0  0  0  0  0  0
   25.0446  -20.0738  -13.8988 C   0  0  2  0  0  0  0  0  0  0  0  0
   25.3332  -19.1532  -14.9771 N   0  0  0  0  0  0  0  0  0  0  0  0
   26.0978  -19.9454  -12.8711 C   0  0  0  0  0  0  0  0  0  0  0  0
   27.1271  -19.2670  -13.1557 O   0  0  0  0  0  0  0  0  0  0  0  0
   26.0080  -20.5423  -11.5920 N   0  0  0  0  0  0  0  0  0  0  0  0
   24.9051  -21.3540  -11.1357 C   0  0  0  0  0  0  0  0  0  0  0  0
   24.6494  -20.7308   -9.7568 C   0  0  0  0  0  0  0  0  0  0  0  0
   26.0721  -20.6108   -9.2423 C   0  0  0  0  0  0  0  0  0  0  0  0
   26.9472  -20.4896  -10.4973 C   0  0  1  0  0  0  0  0  0  0  0  0
   27.8656  -21.6798  -10.5654 C   0  0  0  0  0  0  0  0  0  0  0  0
   27.4222  -22.7848  -10.9695 O   0  0  0  0  0  0  0  0  0  0  0  0
   29.1954  -21.6123  -10.1980 O   0  0  0  0  0  0  0  0  0  0  0  0
  1  2  1  0
  3  2  1  0
  4  5  1  0
  4  3  1  0
  5  1  1  0
  5  6  1  1
  7  6  2  0
  9  8  1  6
  9 11  1  0
  9 10  1  0
 10  6  1  0
 11 13  1  0
 12 11  2  0
 13 14  1  0
 13 17  1  0
 14 15  1  0
 15 16  1  0
 17 18  1  6
 17 16  1  0
 18 20  1  0
 19 18  2  0
M  END
$$$$
