PAP.pdb
     RDKit          3D

 20 21  0  0  1  0  0  0  0  0999 V2000
   14.5377  -22.3882    2.0486 N   0  0  0  0  0  0  0  0  0  0  0  0
   13.8988  -23.2790    1.0676 C   0  0  0  0  0  0  0  0  0  0  0  0
   14.3760  -22.6412   -0.2289 C   0  0  0  0  0  0  0  0  0  0  0  0
   15.7994  -22.2649    0.1336 C   0  0  0  0  0  0  0  0  0  0  0  0
   15.9272  -22.5034    1.6303 C   0  0  1  0  0  0  0  0  0  0  0  0
   16.7849  -21.4933    2.2786 C   0  0  0  0  0  0  0  0  0  0  0  0
   18.0150  -21.5840    2.1624 O   0  0  0  0  0  0  0  0  0  0  0  0
   16.2517  -18.2465    4.0422 C   0  0  0  0  0  0  0  0  0  0  0  0
   17.0929  -19.4441    3.6341 C   0  0  2  0  0  0  0  0  0  0  0  0
   16.2136  -20.4223    3.0314 N   0  0  0  0  0  0  0  0  0  0  0  0
   17.7549  -20.0581    4.8032 C   0  0  0  0  0  0  0  0  0  0  0  0
   17.3100  -21.1647    5.2255 O   0  0  0  0  0  0  0  0  0  0  0  0
   18.8562  -19.4690    5.4670 N   0  0  0  0  0  0  0  0  0  0  0  0
   19.4673  -18.2145    5.0981 C   0  0  0  0  0  0  0  0  0  0  0  0
   20.9505  -18.6081    5.1180 C   0  0  0  0  0  0  0  0  0  0  0  0
   21.0074  -19.3960    6.4139 C   0  0  0  0  0  0  0  0  0  0  0  0
   19.5906  -19.9518    6.6119 C   0  0  1  0  0  0  0  0  0  0  0  0
   19.0087  -19.3611    7.8677 C   0  0  0  0  0  0  0  0  0  0  0  0
   19.2813  -19.8770    8.9815 O   0  0  0  0  0  0  0  0  0  0  0  0
   18.1751  -18.2599    7.8521 O   0  0  0  0  0  0  0  0  0  0  0  0
  1  2  1  0
  3  2  1  0
  4  5  1  0
  4  3  1  0
  5  1  1  0
  5  6  1  1
  7  6  2  0
  9  8  1  1
  9 11  1  0
  9 10  1  0
 10  6  1  0
 11 13  1  0
 12 11  2  0
 13 14  1  0
 13 17  1  0
 14 15  1  0
 15 16  1  0
 17 18  1  1
 17 16  1  0
 18 20  1  0
 19 18  2  0
M  END
$$$$
