PAP.pdb
     RDKit          3D

 20 21  0  0  1  0  0  0  0  0999 V2000
   36.9402   -6.1152   -8.3885 N   0  0  0  0  0  0  0  0  0  0  0  0
   36.9373   -6.9428   -7.1724 C   0  0  0  0  0  0  0  0  0  0  0  0
   38.0871   -6.3043   -6.4071 C   0  0  0  0  0  0  0  0  0  0  0  0
   37.8745   -4.8370   -6.7249 C   0  0  0  0  0  0  0  0  0  0  0  0
   36.7967   -4.7928   -7.7971 C   0  0  1  0  0  0  0  0  0  0  0  0
   37.0393   -3.7191   -8.7791 C   0  0  0  0  0  0  0  0  0  0  0  0
   36.9695   -2.5386   -8.4098 O   0  0  0  0  0  0  0  0  0  0  0  0
   38.2112   -3.5389  -12.3247 C   0  0  0  0  0  0  0  0  0  0  0  0
   37.6239   -2.9426  -11.0565 C   0  0  2  0  0  0  0  0  0  0  0  0
   37.3510   -4.0271  -10.1385 N   0  0  0  0  0  0  0  0  0  0  0  0
   36.3616   -2.2276  -11.3345 C   0  0  0  0  0  0  0  0  0  0  0  0
   35.2735   -2.8207  -11.0797 O   0  0  0  0  0  0  0  0  0  0  0  0
   36.3148   -0.9189  -11.8688 N   0  0  0  0  0  0  0  0  0  0  0  0
   37.4689   -0.1460  -12.2612 C   0  0  0  0  0  0  0  0  0  0  0  0
   37.1485    1.1971  -11.5914 C   0  0  0  0  0  0  0  0  0  0  0  0
   35.6838    1.3446  -11.9602 C   0  0  0  0  0  0  0  0  0  0  0  0
   35.1653   -0.0889  -12.1389 C   0  0  1  0  0  0  0  0  0  0  0  0
   34.7361   -0.2749  -13.5693 C   0  0  0  0  0  0  0  0  0  0  0  0
   35.5603   -0.7083  -14.4142 O   0  0  0  0  0  0  0  0  0  0  0  0
   33.4569    0.0135  -14.0032 O   0  0  0  0  0  0  0  0  0  0  0  0
  1  2  1  0
  3  2  1  0
  4  5  1  0
  4  3  1  0
  5  1  1  0
  5  6  1  6
  7  6  2  0
  9  8  1  6
  9 11  1  0
  9 10  1  0
 10  6  1  0
 11 13  1  0
 12 11  2  0
 13 14  1  0
 13 17  1  0
 14 15  1  0
 15 16  1  0
 17 18  1  6
 17 16  1  0
 18 20  1  0
 19 18  2  0
M  END
$$$$
