PAP.pdb
     RDKit          3D

 20 21  0  0  1  0  0  0  0  0999 V2000
   35.4816  -36.9078   -7.9207 N   0  0  0  0  0  0  0  0  0  0  0  0
   36.1590  -38.1900   -8.1679 C   0  0  0  0  0  0  0  0  0  0  0  0
   35.9751  -38.8593   -6.8139 C   0  0  0  0  0  0  0  0  0  0  0  0
   34.5670  -38.4239   -6.4580 C   0  0  0  0  0  0  0  0  0  0  0  0
   34.1735  -37.3878   -7.4997 C   0  0  1  0  0  0  0  0  0  0  0  0
   33.3492  -36.3097   -6.9213 C   0  0  0  0  0  0  0  0  0  0  0  0
   33.8949  -35.2502   -6.5830 O   0  0  0  0  0  0  0  0  0  0  0  0
   29.7111  -35.6573   -6.4129 C   0  0  0  0  0  0  0  0  0  0  0  0
   31.1826  -35.4176   -6.1203 C   0  0  2  0  0  0  0  0  0  0  0  0
   31.9410  -36.4766   -6.7501 N   0  0  0  0  0  0  0  0  0  0  0  0
   31.4516  -35.4409   -4.6680 C   0  0  0  0  0  0  0  0  0  0  0  0
   32.0254  -36.4601   -4.1856 O   0  0  0  0  0  0  0  0  0  0  0  0
   31.0994  -34.3824   -3.7985 N   0  0  0  0  0  0  0  0  0  0  0  0
   30.4079  -33.1806   -4.1994 C   0  0  0  0  0  0  0  0  0  0  0  0
   31.2768  -32.1156   -3.5166 C   0  0  0  0  0  0  0  0  0  0  0  0
   31.4580  -32.7462   -2.1480 C   0  0  0  0  0  0  0  0  0  0  0  0
   31.3303  -34.2580   -2.3792 C   0  0  1  0  0  0  0  0  0  0  0  0
   30.1282  -34.7640   -1.6283 C   0  0  0  0  0  0  0  0  0  0  0  0
   30.1966  -34.9280   -0.3836 O   0  0  0  0  0  0  0  0  0  0  0  0
   28.9337  -35.0612   -2.2547 O   0  0  0  0  0  0  0  0  0  0  0  0
  1  2  1  0
  3  2  1  0
  4  5  1  0
  4  3  1  0
  5  1  1  0
  5  6  1  1
  7  6  2  0
  9  8  1  1
  9 11  1  0
  9 10  1  0
 10  6  1  0
 11 13  1  0
 12 11  2  0
 13 14  1  0
 13 17  1  0
 14 15  1  0
 15 16  1  0
 17 18  1  1
 17 16  1  0
 18 20  1  0
 19 18  2  0
M  END
$$$$
