PAP.pdb
     RDKit          3D

 20 21  0  0  1  0  0  0  0  0999 V2000
   17.7092  -12.0941  -16.5401 N   0  0  0  0  0  0  0  0  0  0  0  0
   16.8062  -13.0854  -15.9350 C   0  0  0  0  0  0  0  0  0  0  0  0
   17.2598  -13.0153  -14.4843 C   0  0  0  0  0  0  0  0  0  0  0  0
   17.5068  -11.5280  -14.3236 C   0  0  0  0  0  0  0  0  0  0  0  0
   17.3994  -10.9327  -15.7191 C   0  0  1  0  0  0  0  0  0  0  0  0
   18.3640   -9.8361  -15.9268 C   0  0  0  0  0  0  0  0  0  0  0  0
   19.5661  -10.1077  -16.0533 O   0  0  0  0  0  0  0  0  0  0  0  0
   18.0961   -6.1921  -16.6939 C   0  0  0  0  0  0  0  0  0  0  0  0
   18.8761   -7.4523  -16.3586 C   0  0  2  0  0  0  0  0  0  0  0  0
   17.9269   -8.4775  -15.9824 N   0  0  0  0  0  0  0  0  0  0  0  0
   19.8016   -7.2259  -15.2298 C   0  0  0  0  0  0  0  0  0  0  0  0
   19.4770   -7.6795  -14.0942 O   0  0  0  0  0  0  0  0  0  0  0  0
   21.0260   -6.5300  -15.3605 N   0  0  0  0  0  0  0  0  0  0  0  0
   21.5033   -5.9213  -16.5791 C   0  0  0  0  0  0  0  0  0  0  0  0
   22.9489   -6.4360  -16.6027 C   0  0  0  0  0  0  0  0  0  0  0  0
   23.3459   -6.2040  -15.1564 C   0  0  0  0  0  0  0  0  0  0  0  0
   22.0350   -6.2720  -14.3612 C   0  0  1  0  0  0  0  0  0  0  0  0
   21.7823   -4.9310  -13.7265 C   0  0  0  0  0  0  0  0  0  0  0  0
   21.0786   -4.0809  -14.3289 O   0  0  0  0  0  0  0  0  0  0  0  0
   22.2968   -4.5863  -12.4919 O   0  0  0  0  0  0  0  0  0  0  0  0
  1  2  1  0
  3  2  1  0
  4  5  1  0
  4  3  1  0
  5  1  1  0
  5  6  1  1
  7  6  2  0
  9  8  1  1
  9 11  1  0
  9 10  1  0
 10  6  1  0
 11 13  1  0
 12 11  2  0
 13 14  1  0
 13 17  1  0
 14 15  1  0
 15 16  1  0
 17 18  1  6
 17 16  1  0
 18 20  1  0
 19 18  2  0
M  END
$$$$
