PAP.pdb
     RDKit          3D

 20 21  0  0  1  0  0  0  0  0999 V2000
   18.2480  -11.9797  -15.9052 N   0  0  0  0  0  0  0  0  0  0  0  0
   17.7858  -13.3714  -15.7886 C   0  0  0  0  0  0  0  0  0  0  0  0
   18.4363  -13.9775  -17.0234 C   0  0  0  0  0  0  0  0  0  0  0  0
   19.7794  -13.2738  -17.0251 C   0  0  0  0  0  0  0  0  0  0  0  0
   19.6869  -12.1928  -15.9592 C   0  0  1  0  0  0  0  0  0  0  0  0
   20.4124  -10.9692  -16.3502 C   0  0  0  0  0  0  0  0  0  0  0  0
   21.6510  -10.9689  -16.3224 O   0  0  0  0  0  0  0  0  0  0  0  0
   19.5977   -7.8502  -18.1551 C   0  0  0  0  0  0  0  0  0  0  0  0
   20.4582   -8.6371  -17.1810 C   0  0  2  0  0  0  0  0  0  0  0  0
   19.7047   -9.7970  -16.7565 N   0  0  0  0  0  0  0  0  0  0  0  0
   20.7965   -7.8299  -15.9910 C   0  0  0  0  0  0  0  0  0  0  0  0
   20.2354   -8.1216  -14.8952 O   0  0  0  0  0  0  0  0  0  0  0  0
   21.7132   -6.7532  -16.0210 N   0  0  0  0  0  0  0  0  0  0  0  0
   22.4231   -6.3064  -17.1957 C   0  0  0  0  0  0  0  0  0  0  0  0
   23.8471   -6.1892  -16.6357 C   0  0  0  0  0  0  0  0  0  0  0  0
   23.5669   -5.4877  -15.3193 C   0  0  0  0  0  0  0  0  0  0  0  0
   22.1332   -5.8878  -14.9450 C   0  0  1  0  0  0  0  0  0  0  0  0
   21.2733   -4.6529  -14.9286 C   0  0  0  0  0  0  0  0  0  0  0  0
   20.7033   -4.2783  -15.9848 O   0  0  0  0  0  0  0  0  0  0  0  0
   21.0787   -3.8999  -13.7871 O   0  0  0  0  0  0  0  0  0  0  0  0
  1  2  1  0
  3  2  1  0
  4  5  1  0
  4  3  1  0
  5  1  1  0
  5  6  1  6
  7  6  2  0
  9  8  1  6
  9 11  1  0
  9 10  1  0
 10  6  1  0
 11 13  1  0
 12 11  2  0
 13 14  1  0
 13 17  1  0
 14 15  1  0
 15 16  1  0
 17 18  1  6
 17 16  1  0
 18 20  1  0
 19 18  2  0
M  END
$$$$
