PAP.pdb
     RDKit          3D

 20 21  0  0  1  0  0  0  0  0999 V2000
   29.4573  -22.9493  -17.0689 N   0  0  0  0  0  0  0  0  0  0  0  0
   29.3460  -23.9288  -18.1609 C   0  0  0  0  0  0  0  0  0  0  0  0
   28.3120  -24.8763  -17.5709 C   0  0  0  0  0  0  0  0  0  0  0  0
   27.3754  -23.9011  -16.8847 C   0  0  0  0  0  0  0  0  0  0  0  0
   28.0640  -22.5463  -16.9451 C   0  0  1  0  0  0  0  0  0  0  0  0
   27.8250  -21.7512  -15.7258 C   0  0  0  0  0  0  0  0  0  0  0  0
   28.4874  -21.9962  -14.7079 O   0  0  0  0  0  0  0  0  0  0  0  0
   25.9981  -18.6633  -14.7917 C   0  0  0  0  0  0  0  0  0  0  0  0
   26.5647  -20.0342  -14.4629 C   0  0  2  0  0  0  0  0  0  0  0  0
   26.8457  -20.7117  -15.7101 N   0  0  0  0  0  0  0  0  0  0  0  0
   25.5990  -20.8428  -13.6911 C   0  0  0  0  0  0  0  0  0  0  0  0
   25.0555  -21.8297  -14.2668 O   0  0  0  0  0  0  0  0  0  0  0  0
   25.2572  -20.5657  -12.3470 N   0  0  0  0  0  0  0  0  0  0  0  0
   25.7628  -19.4527  -11.5796 C   0  0  0  0  0  0  0  0  0  0  0  0
   26.1593  -20.1650  -10.2793 C   0  0  0  0  0  0  0  0  0  0  0  0
   24.9410  -21.0447  -10.0665 C   0  0  0  0  0  0  0  0  0  0  0  0
   24.3670  -21.2869  -11.4691 C   0  0  1  0  0  0  0  0  0  0  0  0
   22.9909  -20.6820  -11.5414 C   0  0  0  0  0  0  0  0  0  0  0  0
   22.8383  -19.5441  -12.0541 O   0  0  0  0  0  0  0  0  0  0  0  0
   21.8696  -21.3308  -11.0624 O   0  0  0  0  0  0  0  0  0  0  0  0
  1  2  1  0
  3  2  1  0
  4  5  1  0
  4  3  1  0
  5  1  1  0
  5  6  1  1
  7  6  2  0
  9  8  1  6
  9 11  1  0
  9 10  1  0
 10  6  1  0
 11 13  1  0
 12 11  2  0
 13 14  1  0
 13 17  1  0
 14 15  1  0
 15 16  1  0
 17 18  1  1
 17 16  1  0
 18 20  1  0
 19 18  2  0
M  END
$$$$
