PAP.pdb
     RDKit          3D

 20 21  0  0  1  0  0  0  0  0999 V2000
   26.4195  -24.4349  -17.7045 N   0  0  0  0  0  0  0  0  0  0  0  0
   25.5526  -25.5527  -18.1086 C   0  0  0  0  0  0  0  0  0  0  0  0
   25.3325  -26.2257  -16.7618 C   0  0  0  0  0  0  0  0  0  0  0  0
   25.2014  -25.0225  -15.8484 C   0  0  0  0  0  0  0  0  0  0  0  0
   25.5790  -23.8140  -16.6912 C   0  0  1  0  0  0  0  0  0  0  0  0
   26.3137  -22.8029  -15.9075 C   0  0  0  0  0  0  0  0  0  0  0  0
   27.4794  -23.0399  -15.5616 O   0  0  0  0  0  0  0  0  0  0  0  0
   25.6927  -19.3523  -14.6215 C   0  0  0  0  0  0  0  0  0  0  0  0
   26.3377  -20.7266  -14.5587 C   0  0  2  0  0  0  0  0  0  0  0  0
   25.6973  -21.5655  -15.5483 N   0  0  0  0  0  0  0  0  0  0  0  0
   26.1594  -21.3425  -13.2279 C   0  0  0  0  0  0  0  0  0  0  0  0
   25.2721  -22.2352  -13.0997 O   0  0  0  0  0  0  0  0  0  0  0  0
   26.9308  -20.9820  -12.0986 N   0  0  0  0  0  0  0  0  0  0  0  0
   27.9979  -20.0102  -12.1042 C   0  0  0  0  0  0  0  0  0  0  0  0
   29.0863  -20.7839  -11.3478 C   0  0  0  0  0  0  0  0  0  0  0  0
   28.2707  -21.3549  -10.2024 C   0  0  0  0  0  0  0  0  0  0  0  0
   26.8389  -21.4692  -10.7431 C   0  0  1  0  0  0  0  0  0  0  0  0
   25.9439  -20.5620   -9.9426 C   0  0  0  0  0  0  0  0  0  0  0  0
   25.7098  -19.3976  -10.3553 O   0  0  0  0  0  0  0  0  0  0  0  0
   25.3584  -20.9569   -8.7556 O   0  0  0  0  0  0  0  0  0  0  0  0
  1  2  1  0
  3  2  1  0
  4  5  1  0
  4  3  1  0
  5  1  1  0
  5  6  1  1
  7  6  2  0
  9  8  1  1
  9 11  1  0
  9 10  1  0
 10  6  1  0
 11 13  1  0
 12 11  2  0
 13 14  1  0
 13 17  1  0
 14 15  1  0
 15 16  1  0
 17 18  1  1
 17 16  1  0
 18 20  1  0
 19 18  2  0
M  END
$$$$
