PAP.pdb
     RDKit          3D

 20 21  0  0  1  0  0  0  0  0999 V2000
   22.5070  -18.9966  -17.8868 N   0  0  0  0  0  0  0  0  0  0  0  0
   21.0786  -18.7166  -18.1000 C   0  0  0  0  0  0  0  0  0  0  0  0
   20.4870  -19.3633  -16.8563 C   0  0  0  0  0  0  0  0  0  0  0  0
   21.5232  -18.9970  -15.8116 C   0  0  0  0  0  0  0  0  0  0  0  0
   22.6919  -18.3932  -16.5751 C   0  0  1  0  0  0  0  0  0  0  0  0
   23.9896  -18.7589  -15.9765 C   0  0  0  0  0  0  0  0  0  0  0  0
   24.4261  -19.9067  -16.1407 O   0  0  0  0  0  0  0  0  0  0  0  0
   26.5848  -17.0480  -13.8863 C   0  0  0  0  0  0  0  0  0  0  0  0
   25.8780  -18.2683  -14.4519 C   0  0  2  0  0  0  0  0  0  0  0  0
   24.7390  -17.8094  -15.2170 N   0  0  0  0  0  0  0  0  0  0  0  0
   25.3983  -19.1577  -13.3745 C   0  0  0  0  0  0  0  0  0  0  0  0
   24.1504  -19.2398  -13.1823 O   0  0  0  0  0  0  0  0  0  0  0  0
   26.2649  -19.9166  -12.5539 N   0  0  0  0  0  0  0  0  0  0  0  0
   27.7064  -19.8768  -12.6171 C   0  0  0  0  0  0  0  0  0  0  0  0
   28.0288  -21.3773  -12.6212 C   0  0  0  0  0  0  0  0  0  0  0  0
   27.0970  -21.8606  -11.5251 C   0  0  0  0  0  0  0  0  0  0  0  0
   25.9349  -20.8582  -11.5109 C   0  0  1  0  0  0  0  0  0  0  0  0
   25.9197  -20.1515  -10.1823 C   0  0  0  0  0  0  0  0  0  0  0  0
   25.3152  -20.6700   -9.2094 O   0  0  0  0  0  0  0  0  0  0  0  0
   26.5500  -18.9393   -9.9799 O   0  0  0  0  0  0  0  0  0  0  0  0
  1  2  1  0
  3  2  1  0
  4  5  1  0
  4  3  1  0
  5  1  1  0
  5  6  1  1
  7  6  2  0
  9  8  1  1
  9 11  1  0
  9 10  1  0
 10  6  1  0
 11 13  1  0
 12 11  2  0
 13 14  1  0
 13 17  1  0
 14 15  1  0
 15 16  1  0
 17 18  1  1
 17 16  1  0
 18 20  1  0
 19 18  2  0
M  END
$$$$
