LMT.pdb
     RDKit          3D

 24 23  0  0  1  0  0  0  0  0999 V2000
   27.6078  -16.2587  -15.2828 C   0  0  0  0  0  0  0  0  0  0  0  0
   28.1435  -17.6269  -15.5640 C   0  0  2  0  0  0  0  0  0  0  0  0
   28.5360  -17.7665  -17.0038 C   0  0  0  0  0  0  0  0  0  0  0  0
   27.2056  -18.6920  -15.0988 C   0  0  0  0  0  0  0  0  0  0  0  0
   27.8646  -19.8891  -14.4827 C   0  0  2  0  0  0  0  0  0  0  0  0
   28.3797  -20.7984  -15.4659 N   0  0  0  0  0  0  0  0  0  0  0  0
   26.8454  -20.5775  -13.6457 C   0  0  0  0  0  0  0  0  0  0  0  0
   26.0851  -21.4719  -14.1347 O   0  0  0  0  0  0  0  0  0  0  0  0
   26.4366  -19.3921   -7.4176 C   0  0  0  0  0  0  0  0  0  0  0  0
   25.5659  -20.9813   -7.4169 S   0  0  0  0  0  0  0  0  0  0  0  0
   24.8968  -21.2810   -9.0998 C   0  0  0  0  0  0  0  0  0  0  0  0
   25.8804  -20.7162  -10.0638 C   0  0  0  0  0  0  0  0  0  0  0  0
   25.5608  -20.9576  -11.5150 C   0  0  2  0  0  0  0  0  0  0  0  0
   26.6440  -20.2966  -12.2601 N   0  0  0  0  0  0  0  0  0  0  0  0
   24.2539  -20.4310  -11.9375 C   0  0  0  0  0  0  0  0  0  0  0  0
   24.0687  -19.1675  -11.9656 O   0  0  0  0  0  0  0  0  0  0  0  0
   22.7924  -20.5061  -14.9892 C   0  0  0  0  0  0  0  0  0  0  0  0
   21.7604  -21.1860  -14.1480 C   0  0  1  0  0  0  0  0  0  0  0  0
   21.9583  -22.5764  -14.3080 O   0  0  0  0  0  0  0  0  0  0  0  0
   21.9360  -20.8473  -12.6765 C   0  0  2  0  0  0  0  0  0  0  0  0
   23.2353  -21.3395  -12.3026 N   0  0  0  0  0  0  0  0  0  0  0  0
   20.8487  -21.4026  -11.8553 C   0  0  0  0  0  0  0  0  0  0  0  0
   21.1120  -22.3227  -11.0462 O   0  0  0  0  0  0  0  0  0  0  0  0
   19.5722  -20.9161  -11.9795 O   0  0  0  0  0  0  0  0  0  0  0  0
  2  1  1  6
  3  2  1  0
  4  2  1  0
  5  4  1  0
  5  6  1  6
  7  8  2  0
  7  5  1  0
  9 10  1  0
 11 10  1  0
 12 11  1  0
 13 12  1  1
 13 14  1  0
 14  7  1  0
 15 13  1  0
 15 16  2  0
 18 17  1  6
 19 18  1  0
 20 21  1  1
 20 18  1  0
 21 15  1  0
 22 20  1  0
 23 22  2  0
 24 22  1  0
M  END
$$$$
