LMT.pdb
     RDKit          3D

 24 23  0  0  1  0  0  0  0  0999 V2000
   16.7243  -12.0216  -18.5726 C   0  0  0  0  0  0  0  0  0  0  0  0
   17.7907  -12.9209  -18.0321 C   0  0  2  0  0  0  0  0  0  0  0  0
   17.1940  -14.0882  -17.3055 C   0  0  0  0  0  0  0  0  0  0  0  0
   18.7898  -12.1643  -17.2198 C   0  0  0  0  0  0  0  0  0  0  0  0
   19.3504  -10.9434  -17.8849 C   0  0  2  0  0  0  0  0  0  0  0  0
   20.1241  -11.2606  -19.0509 N   0  0  0  0  0  0  0  0  0  0  0  0
   20.2061  -10.2459  -16.8876 C   0  0  0  0  0  0  0  0  0  0  0  0
   19.7570   -9.9262  -15.7418 O   0  0  0  0  0  0  0  0  0  0  0  0
   26.4137  -11.4954  -14.5836 C   0  0  0  0  0  0  0  0  0  0  0  0
   26.3287   -9.9832  -15.5783 S   0  0  0  0  0  0  0  0  0  0  0  0
   24.7211   -9.1593  -15.2519 C   0  0  0  0  0  0  0  0  0  0  0  0
   23.7414   -9.7222  -16.2210 C   0  0  0  0  0  0  0  0  0  0  0  0
   22.3446   -9.1727  -16.1066 C   0  0  2  0  0  0  0  0  0  0  0  0
   21.5672   -9.8882  -17.1308 N   0  0  0  0  0  0  0  0  0  0  0  0
   22.2520   -7.7197  -16.3167 C   0  0  0  0  0  0  0  0  0  0  0  0
   22.6030   -7.2272  -17.4417 O   0  0  0  0  0  0  0  0  0  0  0  0
   19.4854   -5.9110  -16.6164 C   0  0  0  0  0  0  0  0  0  0  0  0
   20.1573   -5.1918  -15.4912 C   0  0  1  0  0  0  0  0  0  0  0  0
   19.5850   -5.6838  -14.2959 O   0  0  0  0  0  0  0  0  0  0  0  0
   21.6485   -5.4850  -15.4598 C   0  0  2  0  0  0  0  0  0  0  0  0
   21.7754   -6.9050  -15.2653 N   0  0  0  0  0  0  0  0  0  0  0  0
   22.3382   -4.6958  -14.4271 C   0  0  0  0  0  0  0  0  0  0  0  0
   22.7521   -5.2782  -13.3975 O   0  0  0  0  0  0  0  0  0  0  0  0
   22.5206   -3.3468  -14.5963 O   0  0  0  0  0  0  0  0  0  0  0  0
  2  1  1  1
  3  2  1  0
  4  2  1  0
  5  4  1  0
  5  6  1  6
  7  8  2  0
  7  5  1  0
  9 10  1  0
 11 10  1  0
 12 11  1  0
 13 12  1  6
 13 14  1  0
 14  7  1  0
 15 13  1  0
 15 16  2  0
 18 17  1  6
 19 18  1  0
 20 21  1  1
 20 18  1  0
 21 15  1  0
 22 20  1  0
 23 22  2  0
 24 22  1  0
M  END
$$$$
