LMT.pdb
     RDKit          3D

 24 23  0  0  1  0  0  0  0  0999 V2000
   28.7488  -19.8830  -17.5089 C   0  0  0  0  0  0  0  0  0  0  0  0
   29.0881  -20.9194  -16.4848 C   0  0  2  0  0  0  0  0  0  0  0  0
   29.8250  -22.0682  -17.1044 C   0  0  0  0  0  0  0  0  0  0  0  0
   27.8850  -21.3378  -15.7049 C   0  0  0  0  0  0  0  0  0  0  0  0
   27.1502  -20.2197  -15.0289 C   0  0  2  0  0  0  0  0  0  0  0  0
   28.0362  -19.2292  -14.4878 N   0  0  0  0  0  0  0  0  0  0  0  0
   26.3366  -20.8176  -13.9362 C   0  0  0  0  0  0  0  0  0  0  0  0
   25.5612  -21.8017  -14.1539 O   0  0  0  0  0  0  0  0  0  0  0  0
   27.6762  -20.4532   -7.7633 C   0  0  0  0  0  0  0  0  0  0  0  0
   25.9042  -20.1080   -7.6061 S   0  0  0  0  0  0  0  0  0  0  0  0
   25.0512  -20.7393   -9.1039 C   0  0  0  0  0  0  0  0  0  0  0  0
   25.8872  -20.3531  -10.2734 C   0  0  0  0  0  0  0  0  0  0  0  0
   25.3912  -20.8532  -11.6039 C   0  0  2  0  0  0  0  0  0  0  0  0
   26.3604  -20.3463  -12.5883 N   0  0  0  0  0  0  0  0  0  0  0  0
   24.0327  -20.4040  -11.9455 C   0  0  0  0  0  0  0  0  0  0  0  0
   23.8304  -19.1710  -12.2109 O   0  0  0  0  0  0  0  0  0  0  0  0
   21.4927  -23.2016  -13.5452 C   0  0  0  0  0  0  0  0  0  0  0  0
   21.4830  -21.7227  -13.7636 C   0  0  1  0  0  0  0  0  0  0  0  0
   20.2038  -21.3955  -14.2682 O   0  0  0  0  0  0  0  0  0  0  0  0
   21.6857  -20.9699  -12.4587 C   0  0  2  0  0  0  0  0  0  0  0  0
   22.9847  -21.3512  -11.9717 N   0  0  0  0  0  0  0  0  0  0  0  0
   20.6049  -21.2422  -11.4981 C   0  0  0  0  0  0  0  0  0  0  0  0
   20.8779  -21.8541  -10.4389 O   0  0  0  0  0  0  0  0  0  0  0  0
   19.3240  -20.8302  -11.7649 O   0  0  0  0  0  0  0  0  0  0  0  0
  2  1  1  6
  3  2  1  0
  4  2  1  0
  5  4  1  0
  5  6  1  1
  7  8  2  0
  7  5  1  0
  9 10  1  0
 11 10  1  0
 12 11  1  0
 13 12  1  1
 13 14  1  0
 14  7  1  0
 15 13  1  0
 15 16  2  0
 18 17  1  1
 19 18  1  0
 20 21  1  1
 20 18  1  0
 21 15  1  0
 22 20  1  0
 23 22  2  0
 24 22  1  0
M  END
$$$$
