LMT.pdb
     RDKit          3D

 24 23  0  0  1  0  0  0  0  0999 V2000
   23.8028  -14.9170  -15.1262 C   0  0  0  0  0  0  0  0  0  0  0  0
   24.6537  -14.1061  -16.0517 C   0  0  2  0  0  0  0  0  0  0  0  0
   26.0138  -13.8718  -15.4670 C   0  0  0  0  0  0  0  0  0  0  0  0
   23.9653  -12.8500  -16.4745 C   0  0  0  0  0  0  0  0  0  0  0  0
   22.5745  -13.0383  -17.0012 C   0  0  2  0  0  0  0  0  0  0  0  0
   22.5461  -13.8083  -18.2117 N   0  0  0  0  0  0  0  0  0  0  0  0
   22.0058  -11.6865  -17.2514 C   0  0  0  0  0  0  0  0  0  0  0  0
   22.3001  -11.0309  -18.3004 O   0  0  0  0  0  0  0  0  0  0  0  0
   16.1572  -10.2022  -17.2342 C   0  0  0  0  0  0  0  0  0  0  0  0
   16.6651   -8.7207  -16.3227 S   0  0  0  0  0  0  0  0  0  0  0  0
   18.4458   -8.4167  -16.6484 C   0  0  0  0  0  0  0  0  0  0  0  0
   19.1452   -9.7202  -16.4817 C   0  0  0  0  0  0  0  0  0  0  0  0
   20.6420   -9.6638  -16.6323 C   0  0  2  0  0  0  0  0  0  0  0  0
   21.1058  -11.0327  -16.3559 N   0  0  0  0  0  0  0  0  0  0  0  0
   21.3007   -8.7083  -15.7284 C   0  0  0  0  0  0  0  0  0  0  0  0
   21.6116   -9.0788  -14.5462 O   0  0  0  0  0  0  0  0  0  0  0  0
   23.3605   -4.2361  -15.4477 C   0  0  0  0  0  0  0  0  0  0  0  0
   22.6036   -5.2711  -16.2163 C   0  0  1  0  0  0  0  0  0  0  0  0
   23.4568   -5.7104  -17.2542 O   0  0  0  0  0  0  0  0  0  0  0  0
   22.2622   -6.4678  -15.3435 C   0  0  2  0  0  0  0  0  0  0  0  0
   21.5733   -7.4023  -16.1934 N   0  0  0  0  0  0  0  0  0  0  0  0
   21.4791   -6.0753  -14.1613 C   0  0  0  0  0  0  0  0  0  0  0  0
   20.2662   -5.7949  -14.3057 O   0  0  0  0  0  0  0  0  0  0  0  0
   22.0740   -6.0196  -12.9265 O   0  0  0  0  0  0  0  0  0  0  0  0
  2  1  1  1
  3  2  1  0
  4  2  1  0
  5  4  1  0
  5  6  1  6
  7  8  2  0
  7  5  1  0
  9 10  1  0
 11 10  1  0
 12 11  1  0
 13 12  1  1
 13 14  1  0
 14  7  1  0
 15 13  1  0
 15 16  2  0
 18 17  1  1
 19 18  1  0
 20 21  1  6
 20 18  1  0
 21 15  1  0
 22 20  1  0
 23 22  2  0
 24 22  1  0
M  END
$$$$
