LMT.pdb
     RDKit          3D

 24 23  0  0  1  0  0  0  0  0999 V2000
   28.0624  -15.9731  -15.1959 C   0  0  0  0  0  0  0  0  0  0  0  0
   27.0586  -16.5314  -16.1545 C   0  0  2  0  0  0  0  0  0  0  0  0
   26.0752  -15.4820  -16.5768 C   0  0  0  0  0  0  0  0  0  0  0  0
   26.4137  -17.7675  -15.6189 C   0  0  0  0  0  0  0  0  0  0  0  0
   27.3628  -18.7819  -15.0556 C   0  0  2  0  0  0  0  0  0  0  0  0
   28.1325  -19.4375  -16.0737 N   0  0  0  0  0  0  0  0  0  0  0  0
   26.5535  -19.7849  -14.3124 C   0  0  0  0  0  0  0  0  0  0  0  0
   25.9801  -20.7469  -14.9146 O   0  0  0  0  0  0  0  0  0  0  0  0
   25.9588  -19.5006   -7.8930 C   0  0  0  0  0  0  0  0  0  0  0  0
   25.6855  -21.2696   -8.1753 S   0  0  0  0  0  0  0  0  0  0  0  0
   25.0249  -21.4946   -9.8731 C   0  0  0  0  0  0  0  0  0  0  0  0
   25.8834  -20.6870  -10.7823 C   0  0  0  0  0  0  0  0  0  0  0  0
   25.5007  -20.7440  -12.2372 C   0  0  2  0  0  0  0  0  0  0  0  0
   26.3605  -19.7491  -12.8979 N   0  0  0  0  0  0  0  0  0  0  0  0
   24.0834  -20.4483  -12.4972 C   0  0  0  0  0  0  0  0  0  0  0  0
   23.6888  -19.2335  -12.5007 O   0  0  0  0  0  0  0  0  0  0  0  0
   20.0499  -21.9473  -14.6576 C   0  0  0  0  0  0  0  0  0  0  0  0
   21.5035  -22.0233  -14.3165 C   0  0  1  0  0  0  0  0  0  0  0  0
   22.2031  -21.4173  -15.3848 O   0  0  0  0  0  0  0  0  0  0  0  0
   21.8142  -21.2497  -13.0455 C   0  0  2  0  0  0  0  0  0  0  0  0
   23.1935  -21.5191  -12.7374 N   0  0  0  0  0  0  0  0  0  0  0  0
   20.8969  -21.6061  -11.9517 C   0  0  0  0  0  0  0  0  0  0  0  0
   21.0700  -22.6901  -11.3468 O   0  0  0  0  0  0  0  0  0  0  0  0
   19.8727  -20.7613  -11.6065 O   0  0  0  0  0  0  0  0  0  0  0  0
  2  1  1  1
  3  2  1  0
  4  2  1  0
  5  4  1  0
  5  6  1  6
  7  8  2  0
  7  5  1  0
  9 10  1  0
 11 10  1  0
 12 11  1  0
 13 12  1  1
 13 14  1  0
 14  7  1  0
 15 13  1  0
 15 16  2  0
 18 17  1  6
 19 18  1  0
 20 21  1  1
 20 18  1  0
 21 15  1  0
 22 20  1  0
 23 22  2  0
 24 22  1  0
M  END
$$$$
