LMT.pdb
     RDKit          3D

 24 23  0  0  1  0  0  0  0  0999 V2000
   28.2384  -18.1198  -18.4849 C   0  0  0  0  0  0  0  0  0  0  0  0
   27.4621  -17.5927  -17.3197 C   0  0  2  0  0  0  0  0  0  0  0  0
   28.3580  -16.8758  -16.3553 C   0  0  0  0  0  0  0  0  0  0  0  0
   26.6354  -18.6598  -16.6806 C   0  0  0  0  0  0  0  0  0  0  0  0
   25.2334  -18.2536  -16.3395 C   0  0  2  0  0  0  0  0  0  0  0  0
   25.1821  -17.0181  -15.6116 N   0  0  0  0  0  0  0  0  0  0  0  0
   24.6398  -19.3449  -15.5209 C   0  0  0  0  0  0  0  0  0  0  0  0
   24.5605  -20.5339  -15.9647 O   0  0  0  0  0  0  0  0  0  0  0  0
   25.9949  -20.6249   -9.7476 C   0  0  0  0  0  0  0  0  0  0  0  0
   24.2126  -20.8092   -9.4778 S   0  0  0  0  0  0  0  0  0  0  0  0
   23.4046  -21.1088  -11.0986 C   0  0  0  0  0  0  0  0  0  0  0  0
   24.0012  -20.1458  -12.0644 C   0  0  0  0  0  0  0  0  0  0  0  0
   23.4941  -20.2636  -13.4769 C   0  0  2  0  0  0  0  0  0  0  0  0
   24.1244  -19.1499  -14.2035 N   0  0  0  0  0  0  0  0  0  0  0  0
   22.0299  -20.1892  -13.5973 C   0  0  0  0  0  0  0  0  0  0  0  0
   21.4242  -19.1321  -13.2137 O   0  0  0  0  0  0  0  0  0  0  0  0
   20.2031  -21.2446  -16.7762 C   0  0  0  0  0  0  0  0  0  0  0  0
   19.5933  -21.9462  -15.6054 C   0  0  1  0  0  0  0  0  0  0  0  0
   20.1837  -23.2294  -15.5488 O   0  0  0  0  0  0  0  0  0  0  0  0
   19.9032  -21.2230  -14.3048 C   0  0  2  0  0  0  0  0  0  0  0  0
   21.3304  -21.2923  -14.1360 N   0  0  0  0  0  0  0  0  0  0  0  0
   19.1582  -21.7942  -13.1719 C   0  0  0  0  0  0  0  0  0  0  0  0
   19.7708  -22.5096  -12.3450 O   0  0  0  0  0  0  0  0  0  0  0  0
   17.8170  -21.5434  -13.0307 O   0  0  0  0  0  0  0  0  0  0  0  0
  2  1  1  6
  3  2  1  0
  4  2  1  0
  5  4  1  0
  5  6  1  1
  7  8  2  0
  7  5  1  0
  9 10  1  0
 11 10  1  0
 12 11  1  0
 13 12  1  1
 13 14  1  0
 14  7  1  0
 15 13  1  0
 15 16  2  0
 18 17  1  6
 19 18  1  0
 20 21  1  1
 20 18  1  0
 21 15  1  0
 22 20  1  0
 23 22  2  0
 24 22  1  0
M  END
$$$$
