LMT.pdb
     RDKit          3D

 24 23  0  0  1  0  0  0  0  0999 V2000
   18.4507  -11.4245  -19.7467 C   0  0  0  0  0  0  0  0  0  0  0  0
   17.5535  -11.2965  -18.5565 C   0  0  2  0  0  0  0  0  0  0  0  0
   16.3470  -10.4672  -18.8779 C   0  0  0  0  0  0  0  0  0  0  0  0
   18.2988  -10.8184  -17.3537 C   0  0  0  0  0  0  0  0  0  0  0  0
   19.5691  -11.5589  -17.0620 C   0  0  2  0  0  0  0  0  0  0  0  0
   19.3304  -12.8558  -16.4965 N   0  0  0  0  0  0  0  0  0  0  0  0
   20.3582  -10.7322  -16.1096 C   0  0  0  0  0  0  0  0  0  0  0  0
   19.9994  -10.5997  -14.8969 O   0  0  0  0  0  0  0  0  0  0  0  0
   26.8218  -10.5807  -14.4009 C   0  0  0  0  0  0  0  0  0  0  0  0
   25.8581  -11.2725  -15.7708 S   0  0  0  0  0  0  0  0  0  0  0  0
   24.0739  -11.0568  -15.3970 C   0  0  0  0  0  0  0  0  0  0  0  0
   23.7415   -9.6334  -15.6789 C   0  0  0  0  0  0  0  0  0  0  0  0
   22.2979   -9.2625  -15.4673 C   0  0  2  0  0  0  0  0  0  0  0  0
   21.5527  -10.0382  -16.4716 N   0  0  0  0  0  0  0  0  0  0  0  0
   22.0184   -7.8264  -15.6198 C   0  0  0  0  0  0  0  0  0  0  0  0
   22.1510   -7.2824  -16.7679 O   0  0  0  0  0  0  0  0  0  0  0  0
   19.0674   -6.2599  -15.5840 C   0  0  0  0  0  0  0  0  0  0  0  0
   19.7847   -5.5765  -14.4645 C   0  0  1  0  0  0  0  0  0  0  0  0
   19.4156   -6.2477  -13.2765 O   0  0  0  0  0  0  0  0  0  0  0  0
   21.2922   -5.6878  -14.6242 C   0  0  2  0  0  0  0  0  0  0  0  0
   21.6091   -7.0847  -14.4891 N   0  0  0  0  0  0  0  0  0  0  0  0
   22.0074   -4.8365  -13.6606 C   0  0  0  0  0  0  0  0  0  0  0  0
   22.6241   -5.3806  -12.7149 O   0  0  0  0  0  0  0  0  0  0  0  0
   21.9942   -3.4721  -13.8020 O   0  0  0  0  0  0  0  0  0  0  0  0
  2  1  1  6
  3  2  1  0
  4  2  1  0
  5  4  1  0
  5  6  1  1
  7  8  2  0
  7  5  1  0
  9 10  1  0
 11 10  1  0
 12 11  1  0
 13 12  1  6
 13 14  1  0
 14  7  1  0
 15 13  1  0
 15 16  2  0
 18 17  1  6
 19 18  1  0
 20 21  1  1
 20 18  1  0
 21 15  1  0
 22 20  1  0
 23 22  2  0
 24 22  1  0
M  END
$$$$
