LMT.pdb
     RDKit          3D

 24 23  0  0  1  0  0  0  0  0999 V2000
   15.7686  -24.6171  -14.2640 C   0  0  0  0  0  0  0  0  0  0  0  0
   16.3083  -24.6385  -12.8689 C   0  0  2  0  0  0  0  0  0  0  0  0
   15.2253  -24.9375  -11.8767 C   0  0  0  0  0  0  0  0  0  0  0  0
   17.0734  -23.3947  -12.5551 C   0  0  0  0  0  0  0  0  0  0  0  0
   18.4468  -23.6212  -11.9988 C   0  0  2  0  0  0  0  0  0  0  0  0
   18.4450  -23.7516  -10.5699 N   0  0  0  0  0  0  0  0  0  0  0  0
   19.2862  -22.4593  -12.3970 C   0  0  0  0  0  0  0  0  0  0  0  0
   18.9275  -21.2670  -12.1384 O   0  0  0  0  0  0  0  0  0  0  0  0
   25.2246  -22.2050  -11.5337 C   0  0  0  0  0  0  0  0  0  0  0  0
   25.3711  -21.2950  -13.0939 S   0  0  0  0  0  0  0  0  0  0  0  0
   23.7102  -20.6702  -13.5635 C   0  0  0  0  0  0  0  0  0  0  0  0
   22.7274  -21.7188  -13.1755 C   0  0  0  0  0  0  0  0  0  0  0  0
   21.2904  -21.3889  -13.4795 C   0  0  2  0  0  0  0  0  0  0  0  0
   20.5315  -22.5861  -13.0844 N   0  0  0  0  0  0  0  0  0  0  0  0
   21.0348  -21.0641  -14.8913 C   0  0  0  0  0  0  0  0  0  0  0  0
   21.1171  -21.9876  -15.7699 O   0  0  0  0  0  0  0  0  0  0  0  0
   19.0322  -17.7638  -17.9002 C   0  0  0  0  0  0  0  0  0  0  0  0
   19.3679  -18.2723  -16.5351 C   0  0  1  0  0  0  0  0  0  0  0  0
   18.1670  -18.7721  -15.9817 O   0  0  0  0  0  0  0  0  0  0  0  0
   20.3712  -19.4123  -16.6011 C   0  0  2  0  0  0  0  0  0  0  0  0
   20.7035  -19.7354  -15.2389 N   0  0  0  0  0  0  0  0  0  0  0  0
   21.5451  -19.0596  -17.4149 C   0  0  0  0  0  0  0  0  0  0  0  0
   22.4885  -18.4349  -16.8758 O   0  0  0  0  0  0  0  0  0  0  0  0
   21.5981  -19.4120  -18.7395 O   0  0  0  0  0  0  0  0  0  0  0  0
  2  1  1  6
  3  2  1  0
  4  2  1  0
  5  4  1  0
  5  6  1  1
  7  8  2  0
  7  5  1  0
  9 10  1  0
 11 10  1  0
 12 11  1  0
 13 12  1  6
 13 14  1  0
 14  7  1  0
 15 13  1  0
 15 16  2  0
 18 17  1  6
 19 18  1  0
 20 21  1  1
 20 18  1  0
 21 15  1  0
 22 20  1  0
 23 22  2  0
 24 22  1  0
M  END
$$$$
