LMT.pdb
     RDKit          3D

 24 23  0  0  1  0  0  0  0  0999 V2000
   20.3790  -12.2150  -18.5595 C   0  0  0  0  0  0  0  0  0  0  0  0
   19.2610  -12.6799  -17.6808 C   0  0  2  0  0  0  0  0  0  0  0  0
   18.4206  -13.7077  -18.3764 C   0  0  0  0  0  0  0  0  0  0  0  0
   18.4705  -11.5330  -17.1420 C   0  0  0  0  0  0  0  0  0  0  0  0
   19.2844  -10.4534  -16.4946 C   0  0  2  0  0  0  0  0  0  0  0  0
   20.0076  -10.9246  -15.3484 N   0  0  0  0  0  0  0  0  0  0  0  0
   18.3473   -9.3716  -16.0885 C   0  0  0  0  0  0  0  0  0  0  0  0
   17.5816   -8.8102  -16.9343 O   0  0  0  0  0  0  0  0  0  0  0  0
   16.8791   -7.4620   -9.6631 C   0  0  0  0  0  0  0  0  0  0  0  0
   15.4694   -7.9939  -10.6699 S   0  0  0  0  0  0  0  0  0  0  0  0
   15.7296   -7.4135  -12.3918 C   0  0  0  0  0  0  0  0  0  0  0  0
   16.7913   -8.2735  -12.9828 C   0  0  0  0  0  0  0  0  0  0  0  0
   17.1869   -7.9195  -14.3915 C   0  0  2  0  0  0  0  0  0  0  0  0
   18.2349   -8.8887  -14.7492 N   0  0  0  0  0  0  0  0  0  0  0  0
   17.6869   -6.5449  -14.5473 C   0  0  0  0  0  0  0  0  0  0  0  0
   18.8558   -6.2532  -14.1229 O   0  0  0  0  0  0  0  0  0  0  0  0
   17.3833   -2.5281  -17.2086 C   0  0  0  0  0  0  0  0  0  0  0  0
   16.9614   -3.9151  -16.8433 C   0  0  1  0  0  0  0  0  0  0  0  0
   17.6441   -4.7905  -17.7183 O   0  0  0  0  0  0  0  0  0  0  0  0
   17.3644   -4.2581  -15.4183 C   0  0  2  0  0  0  0  0  0  0  0  0
   16.8586   -5.5809  -15.1644 N   0  0  0  0  0  0  0  0  0  0  0  0
   16.8752   -3.2574  -14.4570 C   0  0  0  0  0  0  0  0  0  0  0  0
   15.6637   -3.2694  -14.1361 O   0  0  0  0  0  0  0  0  0  0  0  0
   17.7365   -2.3311  -13.9262 O   0  0  0  0  0  0  0  0  0  0  0  0
  2  1  1  6
  3  2  1  0
  4  2  1  0
  5  4  1  0
  5  6  1  1
  7  8  2  0
  7  5  1  0
  9 10  1  0
 11 10  1  0
 12 11  1  0
 13 12  1  1
 13 14  1  0
 14  7  1  0
 15 13  1  0
 15 16  2  0
 18 17  1  6
 19 18  1  0
 20 21  1  1
 20 18  1  0
 21 15  1  0
 22 20  1  0
 23 22  2  0
 24 22  1  0
M  END
$$$$
