LMT.pdb
     RDKit          3D

 24 23  0  0  1  0  0  0  0  0999 V2000
   28.4957  -17.1418  -15.5394 C   0  0  0  0  0  0  0  0  0  0  0  0
   27.6868  -18.0167  -16.4439 C   0  0  2  0  0  0  0  0  0  0  0  0
   26.7965  -17.1988  -17.3301 C   0  0  0  0  0  0  0  0  0  0  0  0
   26.9560  -19.0722  -15.6806 C   0  0  0  0  0  0  0  0  0  0  0  0
   27.8026  -19.8660  -14.7317 C   0  0  2  0  0  0  0  0  0  0  0  0
   28.6377  -20.8178  -15.4067 N   0  0  0  0  0  0  0  0  0  0  0  0
   26.8837  -20.5741  -13.8003 C   0  0  0  0  0  0  0  0  0  0  0  0
   26.3886  -21.7073  -14.0967 O   0  0  0  0  0  0  0  0  0  0  0  0
   27.3686  -20.8226   -7.6016 C   0  0  0  0  0  0  0  0  0  0  0  0
   25.5873  -20.4911   -7.6235 S   0  0  0  0  0  0  0  0  0  0  0  0
   24.9221  -20.9815   -9.2626 C   0  0  0  0  0  0  0  0  0  0  0  0
   25.8227  -20.3901  -10.2898 C   0  0  0  0  0  0  0  0  0  0  0  0
   25.4886  -20.7500  -11.7129 C   0  0  2  0  0  0  0  0  0  0  0  0
   26.4937  -20.0515  -12.5299 N   0  0  0  0  0  0  0  0  0  0  0  0
   24.1321  -20.3608  -12.1279 C   0  0  0  0  0  0  0  0  0  0  0  0
   23.8276  -19.1217  -12.1861 O   0  0  0  0  0  0  0  0  0  0  0  0
   22.6667  -21.6769  -15.2380 C   0  0  0  0  0  0  0  0  0  0  0  0
   21.6549  -21.9126  -14.1630 C   0  0  1  0  0  0  0  0  0  0  0  0
   21.8095  -23.2549  -13.7476 O   0  0  0  0  0  0  0  0  0  0  0  0
   21.9029  -21.0125  -12.9635 C   0  0  2  0  0  0  0  0  0  0  0  0
   23.1992  -21.3711  -12.4525 N   0  0  0  0  0  0  0  0  0  0  0  0
   20.8325  -21.1320  -11.9611 C   0  0  0  0  0  0  0  0  0  0  0  0
   21.1109  -21.6014  -10.8329 O   0  0  0  0  0  0  0  0  0  0  0  0
   19.5551  -20.7345  -12.2642 O   0  0  0  0  0  0  0  0  0  0  0  0
  2  1  1  1
  3  2  1  0
  4  2  1  0
  5  4  1  0
  5  6  1  6
  7  8  2  0
  7  5  1  0
  9 10  1  0
 11 10  1  0
 12 11  1  0
 13 12  1  1
 13 14  1  0
 14  7  1  0
 15 13  1  0
 15 16  2  0
 18 17  1  6
 19 18  1  0
 20 21  1  1
 20 18  1  0
 21 15  1  0
 22 20  1  0
 23 22  2  0
 24 22  1  0
M  END
$$$$
