LMT.pdb
     RDKit          3D

 24 23  0  0  1  0  0  0  0  0999 V2000
   21.6571  -12.7211  -14.7253 C   0  0  0  0  0  0  0  0  0  0  0  0
   21.4444  -11.8916  -15.9520 C   0  0  2  0  0  0  0  0  0  0  0  0
   22.6512  -11.0550  -16.2526 C   0  0  0  0  0  0  0  0  0  0  0  0
   20.1800  -11.1010  -15.8699 C   0  0  0  0  0  0  0  0  0  0  0  0
   18.9595  -11.8963  -15.5163 C   0  0  2  0  0  0  0  0  0  0  0  0
   18.6202  -12.8581  -16.5256 N   0  0  0  0  0  0  0  0  0  0  0  0
   17.8374  -10.9356  -15.3393 C   0  0  0  0  0  0  0  0  0  0  0  0
   17.1814  -10.4966  -16.3363 O   0  0  0  0  0  0  0  0  0  0  0  0
   14.2792  -10.1353   -9.7352 C   0  0  0  0  0  0  0  0  0  0  0  0
   13.2883  -10.3912  -11.2307 S   0  0  0  0  0  0  0  0  0  0  0  0
   14.0931   -9.5061  -12.6229 C   0  0  0  0  0  0  0  0  0  0  0  0
   15.3834  -10.1992  -12.8886 C   0  0  0  0  0  0  0  0  0  0  0  0
   16.2356   -9.5707  -13.9587 C   0  0  2  0  0  0  0  0  0  0  0  0
   17.4169  -10.4415  -14.0671 N   0  0  0  0  0  0  0  0  0  0  0  0
   16.6444   -8.1884  -13.6658 C   0  0  0  0  0  0  0  0  0  0  0  0
   17.5784   -7.9786  -12.8202 O   0  0  0  0  0  0  0  0  0  0  0  0
   16.9757   -3.7098  -15.3954 C   0  0  0  0  0  0  0  0  0  0  0  0
   16.5731   -5.1464  -15.4906 C   0  0  1  0  0  0  0  0  0  0  0  0
   17.6171   -5.8163  -16.1684 O   0  0  0  0  0  0  0  0  0  0  0  0
   16.4236   -5.7710  -14.1129 C   0  0  2  0  0  0  0  0  0  0  0  0
   15.9913   -7.1260  -14.3301 N   0  0  0  0  0  0  0  0  0  0  0  0
   15.5043   -5.0000  -13.2611 C   0  0  0  0  0  0  0  0  0  0  0  0
   14.2716   -5.2000  -13.3667 O   0  0  0  0  0  0  0  0  0  0  0  0
   15.9962   -4.0806  -12.3699 O   0  0  0  0  0  0  0  0  0  0  0  0
  2  1  1  1
  3  2  1  0
  4  2  1  0
  5  4  1  0
  5  6  1  6
  7  8  2  0
  7  5  1  0
  9 10  1  0
 11 10  1  0
 12 11  1  0
 13 12  1  1
 13 14  1  0
 14  7  1  0
 15 13  1  0
 15 16  2  0
 18 17  1  1
 19 18  1  0
 20 21  1  6
 20 18  1  0
 21 15  1  0
 22 20  1  0
 23 22  2  0
 24 22  1  0
M  END
$$$$
