LMT.pdb
     RDKit          3D

 24 23  0  0  1  0  0  0  0  0999 V2000
   28.9293  -19.4129  -18.4286 C   0  0  0  0  0  0  0  0  0  0  0  0
   28.1328  -20.6521  -18.6896 C   0  0  2  0  0  0  0  0  0  0  0  0
   27.5311  -20.6267  -20.0622 C   0  0  0  0  0  0  0  0  0  0  0  0
   27.1335  -20.9025  -17.6083 C   0  0  0  0  0  0  0  0  0  0  0  0
   27.6658  -20.7706  -16.2132 C   0  0  2  0  0  0  0  0  0  0  0  0
   28.7639  -21.6586  -15.9590 N   0  0  0  0  0  0  0  0  0  0  0  0
   26.5479  -21.0726  -15.2792 C   0  0  0  0  0  0  0  0  0  0  0  0
   25.4728  -21.6132  -15.6901 O   0  0  0  0  0  0  0  0  0  0  0  0
   24.6093  -21.0367   -7.5946 C   0  0  0  0  0  0  0  0  0  0  0  0
   25.7991  -20.7821   -8.9376 S   0  0  0  0  0  0  0  0  0  0  0  0
   24.9840  -21.2038  -10.5274 C   0  0  0  0  0  0  0  0  0  0  0  0
   25.9822  -20.9583  -11.6041 C   0  0  0  0  0  0  0  0  0  0  0  0
   25.4760  -21.1799  -13.0045 C   0  0  2  0  0  0  0  0  0  0  0  0
   26.5912  -20.7871  -13.8806 N   0  0  0  0  0  0  0  0  0  0  0  0
   24.2688  -20.4075  -13.3358 C   0  0  0  0  0  0  0  0  0  0  0  0
   24.3160  -19.1314  -13.3075 O   0  0  0  0  0  0  0  0  0  0  0  0
   22.6117  -20.0640  -16.3172 C   0  0  0  0  0  0  0  0  0  0  0  0
   21.5546  -20.6215  -15.4190 C   0  0  1  0  0  0  0  0  0  0  0  0
   21.5388  -22.0191  -15.6297 O   0  0  0  0  0  0  0  0  0  0  0  0
   21.8802  -20.3651  -13.9566 C   0  0  2  0  0  0  0  0  0  0  0  0
   23.0856  -21.0997  -13.6779 N   0  0  0  0  0  0  0  0  0  0  0  0
   20.7611  -20.7341  -13.0755 C   0  0  0  0  0  0  0  0  0  0  0  0
   20.8892  -21.7247  -12.3185 O   0  0  0  0  0  0  0  0  0  0  0  0
   19.6014  -20.0016  -13.0887 O   0  0  0  0  0  0  0  0  0  0  0  0
  2  1  1  1
  3  2  1  0
  4  2  1  0
  5  4  1  0
  5  6  1  6
  7  8  2  0
  7  5  1  0
  9 10  1  0
 11 10  1  0
 12 11  1  0
 13 12  1  1
 13 14  1  0
 14  7  1  0
 15 13  1  0
 15 16  2  0
 18 17  1  6
 19 18  1  0
 20 21  1  1
 20 18  1  0
 21 15  1  0
 22 20  1  0
 23 22  2  0
 24 22  1  0
M  END
$$$$
