LMT.pdb
     RDKit          3D

 24 23  0  0  1  0  0  0  0  0999 V2000
   16.9544  -11.8776  -20.0529 C   0  0  0  0  0  0  0  0  0  0  0  0
   15.7924  -11.5776  -19.1597 C   0  0  2  0  0  0  0  0  0  0  0  0
   14.6270  -11.0594  -19.9473 C   0  0  0  0  0  0  0  0  0  0  0  0
   16.1845  -10.6883  -18.0257 C   0  0  0  0  0  0  0  0  0  0  0  0
   17.3642  -11.1611  -17.2308 C   0  0  2  0  0  0  0  0  0  0  0  0
   17.0504  -12.2898  -16.4022 N   0  0  0  0  0  0  0  0  0  0  0  0
   17.8149  -10.0246  -16.3832 C   0  0  0  0  0  0  0  0  0  0  0  0
   17.2223   -9.7374  -15.2954 O   0  0  0  0  0  0  0  0  0  0  0  0
   22.3752   -6.5114  -12.1450 C   0  0  0  0  0  0  0  0  0  0  0  0
   21.6872   -7.8224  -13.1899 S   0  0  0  0  0  0  0  0  0  0  0  0
   21.4962   -7.1702  -14.8951 C   0  0  0  0  0  0  0  0  0  0  0  0
   20.8287   -8.2346  -15.6935 C   0  0  0  0  0  0  0  0  0  0  0  0
   19.3335   -8.1015  -15.8086 C   0  0  2  0  0  0  0  0  0  0  0  0
   18.9219   -9.1855  -16.7146 N   0  0  0  0  0  0  0  0  0  0  0  0
   18.8849   -6.8012  -16.3298 C   0  0  0  0  0  0  0  0  0  0  0  0
   19.1209   -6.5014  -17.5488 O   0  0  0  0  0  0  0  0  0  0  0  0
   15.4241   -5.4770  -16.2378 C   0  0  0  0  0  0  0  0  0  0  0  0
   16.3026   -4.5044  -15.5185 C   0  0  1  0  0  0  0  0  0  0  0  0
   16.2240   -4.8261  -14.1443 O   0  0  0  0  0  0  0  0  0  0  0  0
   17.7520   -4.6404  -15.9562 C   0  0  2  0  0  0  0  0  0  0  0  0
   18.2025   -5.9158  -15.4657 N   0  0  0  0  0  0  0  0  0  0  0  0
   18.5730   -3.5154  -15.4817 C   0  0  0  0  0  0  0  0  0  0  0  0
   19.4575   -3.7336  -14.6210 O   0  0  0  0  0  0  0  0  0  0  0  0
   18.3674   -2.2532  -15.9779 O   0  0  0  0  0  0  0  0  0  0  0  0
  2  1  1  6
  3  2  1  0
  4  2  1  0
  5  4  1  0
  5  6  1  1
  7  8  2  0
  7  5  1  0
  9 10  1  0
 11 10  1  0
 12 11  1  0
 13 12  1  6
 13 14  1  0
 14  7  1  0
 15 13  1  0
 15 16  2  0
 18 17  1  6
 19 18  1  0
 20 21  1  1
 20 18  1  0
 21 15  1  0
 22 20  1  0
 23 22  2  0
 24 22  1  0
M  END
$$$$
