RTC.pdb
     RDKit          3D

 25 24  0  0  1  0  0  0  0  0999 V2000
   28.6575  -24.7815  -16.2403 N   0  0  0  0  0  0  0  0  0  0  0  0
   27.3227  -24.8581  -16.7476 C   0  0  0  0  0  0  0  0  0  0  0  0
   26.5869  -25.8659  -16.4153 N   0  0  0  0  0  0  0  0  0  0  0  0
   26.8603  -23.8342  -17.5891 N   0  0  0  0  0  0  0  0  0  0  0  0
   27.7248  -22.6616  -17.8212 C   0  0  0  0  0  0  0  0  0  0  0  0
   27.2806  -21.5890  -16.8901 C   0  0  0  0  0  0  0  0  0  0  0  0
   26.1258  -20.7646  -17.3094 C   0  0  0  0  0  0  0  0  0  0  0  0
   26.2896  -19.2820  -17.2283 C   0  0  2  0  0  0  0  0  0  0  0  0
   27.6368  -18.8465  -16.9736 N   0  0  0  0  0  0  0  0  0  0  0  0
   25.3359  -18.7630  -16.2100 C   0  0  0  0  0  0  0  0  0  0  0  0
   25.6364  -18.8045  -14.9847 O   0  0  0  0  0  0  0  0  0  0  0  0
   25.6327  -25.9926  -16.7984 C   0  0  0  0  0  0  0  0  0  0  0  0
   24.3728  -15.4366  -15.7207 C   0  0  2  0  0  0  0  0  0  0  0  0
   23.0376  -16.1287  -15.8307 O   0  0  0  0  0  0  0  0  0  0  0  0
   22.7118  -16.0018  -17.2170 C   0  0  2  0  0  0  0  0  0  0  0  0
   23.2279  -17.5887  -15.5127 N   0  0  0  0  0  0  0  0  0  0  0  0
   24.0835  -18.2118  -16.5256 C   0  0  0  0  0  0  0  0  0  0  0  0
   21.9186  -18.2698  -15.4785 O   0  0  0  0  0  0  0  0  0  0  0  0
   21.6258  -19.1042  -16.4190 N   0  0  0  0  0  0  0  0  0  0  0  0
   20.9059  -18.1274  -14.5142 C   0  0  1  0  0  0  0  0  0  0  0  0
   19.6516  -18.8522  -14.5375 C   0  0  0  0  0  0  0  0  0  0  0  0
   18.8663  -18.7237  -13.2798 S   0  0  0  0  0  0  0  0  0  0  0  0
   17.3593  -19.7422  -13.4735 C   0  0  0  0  0  0  0  0  0  0  0  0
   18.8226  -18.3434  -15.6586 O   0  0  0  0  0  0  0  0  0  0  0  0
   18.7753  -17.1330  -15.9126 O   0  0  0  0  0  0  0  0  0  0  0  0
  1  2  1  0
  2  3  2  0
  4  2  1  0
  4  5  1  0
  6  5  1  0
  6  7  1  0
  7  8  1  0
  8  9  1  1
 10  8  1  0
 10 11  2  0
 13 12  1  1
 14 13  1  0
 15 16  1  1
 15 13  1  0
 16 10  1  0
 17 15  1  0
 18 17  2  0
 19 17  1  0
 20 19  1  0
 21 22  1  0
 20 21  1  6
 23 20  1  0
 23 25  1  0
 24 23  2  0
M  END
$$$$
