RTC.pdb
     RDKit          3D

 25 24  0  0  1  0  0  0  0  0999 V2000
   25.8165  -21.7205   -9.0556 N   0  0  0  0  0  0  0  0  0  0  0  0
   24.6354  -21.6844   -9.8610 C   0  0  0  0  0  0  0  0  0  0  0  0
   23.5665  -21.1468   -9.3754 N   0  0  0  0  0  0  0  0  0  0  0  0
   24.6807  -22.2353  -11.1513 N   0  0  0  0  0  0  0  0  0  0  0  0
   24.7967  -21.3264  -12.3074 C   0  0  0  0  0  0  0  0  0  0  0  0
   25.6639  -20.1893  -11.8954 C   0  0  0  0  0  0  0  0  0  0  0  0
   26.3181  -19.4129  -12.9716 C   0  0  0  0  0  0  0  0  0  0  0  0
   26.9590  -20.1927  -14.0728 C   0  0  2  0  0  0  0  0  0  0  0  0
   28.2810  -20.6718  -13.7696 N   0  0  0  0  0  0  0  0  0  0  0  0
   26.9390  -19.3596  -15.3063 C   0  0  0  0  0  0  0  0  0  0  0  0
   27.8961  -18.5744  -15.5531 O   0  0  0  0  0  0  0  0  0  0  0  0
   23.5015  -20.8687   -8.3795 C   0  0  0  0  0  0  0  0  0  0  0  0
   25.3021  -18.3871  -19.8101 C   0  0  2  0  0  0  0  0  0  0  0  0
   25.3144  -19.2955  -18.6065 O   0  0  0  0  0  0  0  0  0  0  0  0
   26.2205  -20.3346  -18.9850 C   0  0  1  0  0  0  0  0  0  0  0  0
   25.9052  -18.5414  -17.4441 N   0  0  0  0  0  0  0  0  0  0  0  0
   25.8965  -19.3853  -16.2467 C   0  0  0  0  0  0  0  0  0  0  0  0
   25.1252  -17.3131  -17.1941 O   0  0  0  0  0  0  0  0  0  0  0  0
   23.9143  -17.4218  -16.7601 N   0  0  0  0  0  0  0  0  0  0  0  0
   25.5452  -15.9833  -17.3697 C   0  0  1  0  0  0  0  0  0  0  0  0
   24.7252  -14.8251  -17.0777 C   0  0  0  0  0  0  0  0  0  0  0  0
   25.5113  -13.5850  -16.8346 S   0  0  0  0  0  0  0  0  0  0  0  0
   26.5734  -13.8917  -15.3772 C   0  0  0  0  0  0  0  0  0  0  0  0
   23.8119  -14.5812  -18.2222 O   0  0  0  0  0  0  0  0  0  0  0  0
   24.1893  -14.7728  -19.3852 O   0  0  0  0  0  0  0  0  0  0  0  0
  1  2  1  0
  2  3  2  0
  4  2  1  0
  4  5  1  0
  6  5  1  0
  6  7  1  0
  7  8  1  0
  8  9  1  1
 10  8  1  0
 10 11  2  0
 13 12  1  6
 14 13  1  0
 15 16  1  1
 15 13  1  0
 16 10  1  0
 17 15  1  0
 18 17  2  0
 19 17  1  0
 20 19  1  0
 21 22  1  0
 20 21  1  6
 23 20  1  0
 23 25  1  0
 24 23  2  0
M  END
$$$$
