RTC.pdb
     RDKit          3D

 25 24  0  0  1  0  0  0  0  0999 V2000
   29.6844  -25.8552  -16.1850 N   0  0  0  0  0  0  0  0  0  0  0  0
   29.5067  -25.8629  -17.6039 C   0  0  0  0  0  0  0  0  0  0  0  0
   29.0478  -26.9296  -18.1685 N   0  0  0  0  0  0  0  0  0  0  0  0
   29.8379  -24.7095  -18.3322 N   0  0  0  0  0  0  0  0  0  0  0  0
   30.2029  -23.4850  -17.5949 C   0  0  0  0  0  0  0  0  0  0  0  0
   29.3638  -22.3772  -18.1273 C   0  0  0  0  0  0  0  0  0  0  0  0
   28.5722  -21.5982  -17.1497 C   0  0  0  0  0  0  0  0  0  0  0  0
   28.0222  -22.3446  -15.9784 C   0  0  2  0  0  0  0  0  0  0  0  0
   27.2360  -23.4982  -16.3254 N   0  0  0  0  0  0  0  0  0  0  0  0
   27.2597  -21.3866  -15.1318 C   0  0  0  0  0  0  0  0  0  0  0  0
   27.7109  -20.2250  -14.9301 O   0  0  0  0  0  0  0  0  0  0  0  0
   29.0294  -27.0349  -19.1989 C   0  0  0  0  0  0  0  0  0  0  0  0
   23.1338  -19.8359  -13.0399 C   0  0  2  0  0  0  0  0  0  0  0  0
   23.8418  -20.7985  -13.9597 O   0  0  0  0  0  0  0  0  0  0  0  0
   23.5992  -20.2541  -15.2592 C   0  0  1  0  0  0  0  0  0  0  0  0
   25.3199  -20.7302  -13.6775 N   0  0  0  0  0  0  0  0  0  0  0  0
   26.0330  -21.6927  -14.5208 C   0  0  0  0  0  0  0  0  0  0  0  0
   25.5736  -21.0301  -12.2544 O   0  0  0  0  0  0  0  0  0  0  0  0
   25.4716  -22.2510  -11.8475 N   0  0  0  0  0  0  0  0  0  0  0  0
   25.9308  -20.1246  -11.2405 C   0  0  1  0  0  0  0  0  0  0  0  0
   25.9963  -20.4623   -9.8331 C   0  0  0  0  0  0  0  0  0  0  0  0
   26.6162  -19.4007   -8.9943 S   0  0  0  0  0  0  0  0  0  0  0  0
   26.6346  -20.0117   -7.2702 C   0  0  0  0  0  0  0  0  0  0  0  0
   24.6207  -20.7079   -9.3326 O   0  0  0  0  0  0  0  0  0  0  0  0
   23.6695  -20.0256   -9.7344 O   0  0  0  0  0  0  0  0  0  0  0  0
  1  2  1  0
  2  3  2  0
  4  2  1  0
  4  5  1  0
  6  5  1  0
  6  7  1  0
  7  8  1  0
  8  9  1  6
 10  8  1  0
 10 11  2  0
 13 12  1  6
 14 13  1  0
 15 16  1  1
 15 13  1  0
 16 10  1  0
 17 15  1  0
 18 17  2  0
 19 17  1  0
 20 19  1  0
 21 22  1  0
 20 21  1  1
 23 20  1  0
 23 25  1  0
 24 23  2  0
M  END
$$$$
