RTC.pdb
     RDKit          3D

 25 24  0  0  1  0  0  0  0  0999 V2000
   23.7142  -21.2085  -19.9465 N   0  0  0  0  0  0  0  0  0  0  0  0
   23.1410  -22.3684  -20.5555 C   0  0  0  0  0  0  0  0  0  0  0  0
   22.0216  -22.2510  -21.1882 N   0  0  0  0  0  0  0  0  0  0  0  0
   23.8165  -23.5938  -20.4431 N   0  0  0  0  0  0  0  0  0  0  0  0
   25.1380  -23.6181  -19.7879 C   0  0  0  0  0  0  0  0  0  0  0  0
   24.9728  -24.3019  -18.4764 C   0  0  0  0  0  0  0  0  0  0  0  0
   25.4460  -23.5817  -17.2737 C   0  0  0  0  0  0  0  0  0  0  0  0
   26.8512  -23.0755  -17.2989 C   0  0  2  0  0  0  0  0  0  0  0  0
   27.8513  -24.1048  -17.3976 N   0  0  0  0  0  0  0  0  0  0  0  0
   27.0573  -22.2131  -16.1032 C   0  0  0  0  0  0  0  0  0  0  0  0
   27.8887  -22.5524  -15.2161 O   0  0  0  0  0  0  0  0  0  0  0  0
   21.5312  -23.0735  -21.5837 C   0  0  0  0  0  0  0  0  0  0  0  0
   26.6829  -17.8662  -13.8662 C   0  0  1  0  0  0  0  0  0  0  0  0
   26.3239  -18.7226  -15.0543 O   0  0  0  0  0  0  0  0  0  0  0  0
   27.2298  -18.2798  -16.0678 C   0  0  1  0  0  0  0  0  0  0  0  0
   26.6377  -20.1578  -14.7218 N   0  0  0  0  0  0  0  0  0  0  0  0
   26.3698  -21.0085  -15.8840 C   0  0  0  0  0  0  0  0  0  0  0  0
   25.8138  -20.6001  -13.5795 O   0  0  0  0  0  0  0  0  0  0  0  0
   24.6861  -21.1831  -13.8137 N   0  0  0  0  0  0  0  0  0  0  0  0
   26.1084  -20.4689  -12.2114 C   0  0  1  0  0  0  0  0  0  0  0  0
   25.2280  -20.8984  -11.1439 C   0  0  0  0  0  0  0  0  0  0  0  0
   25.7756  -20.6471   -9.7831 S   0  0  0  0  0  0  0  0  0  0  0  0
   27.4275  -21.4291   -9.7089 C   0  0  0  0  0  0  0  0  0  0  0  0
   23.9359  -20.1783  -11.2667 O   0  0  0  0  0  0  0  0  0  0  0  0
   23.8505  -19.1406  -11.9358 O   0  0  0  0  0  0  0  0  0  0  0  0
  1  2  1  0
  2  3  2  0
  4  2  1  0
  4  5  1  0
  6  5  1  0
  6  7  1  0
  7  8  1  0
  8  9  1  1
 10  8  1  0
 10 11  2  0
 13 12  1  6
 14 13  1  0
 15 16  1  6
 15 13  1  0
 16 10  1  0
 17 15  1  0
 18 17  2  0
 19 17  1  0
 20 19  1  0
 21 22  1  0
 20 21  1  1
 23 20  1  0
 23 25  1  0
 24 23  2  0
M  END
$$$$
