RTC.pdb
     RDKit          3D

 25 24  0  0  1  0  0  0  0  0999 V2000
   24.6492  -20.9375   -7.3401 N   0  0  0  0  0  0  0  0  0  0  0  0
   23.3772  -21.5294   -7.6167 C   0  0  0  0  0  0  0  0  0  0  0  0
   22.6982  -22.0316   -6.6400 N   0  0  0  0  0  0  0  0  0  0  0  0
   22.9124  -21.5431   -8.9412 N   0  0  0  0  0  0  0  0  0  0  0  0
   23.5806  -20.6836   -9.9367 C   0  0  0  0  0  0  0  0  0  0  0  0
   24.8158  -21.3876  -10.3762 C   0  0  0  0  0  0  0  0  0  0  0  0
   25.6312  -20.7333  -11.4231 C   0  0  0  0  0  0  0  0  0  0  0  0
   24.9936  -20.5541  -12.7621 C   0  0  2  0  0  0  0  0  0  0  0  0
   24.9157  -21.7563  -13.5483 N   0  0  0  0  0  0  0  0  0  0  0  0
   25.7139  -19.4667  -13.4793 C   0  0  0  0  0  0  0  0  0  0  0  0
   25.9539  -18.3749  -12.8929 O   0  0  0  0  0  0  0  0  0  0  0  0
   21.7621  -22.4506   -6.7868 C   0  0  0  0  0  0  0  0  0  0  0  0
   28.6692  -20.0784  -16.0379 C   0  0  2  0  0  0  0  0  0  0  0  0
   27.7185  -19.0520  -16.6005 O   0  0  0  0  0  0  0  0  0  0  0  0
   26.8644  -19.8219  -17.4499 C   0  0  2  0  0  0  0  0  0  0  0  0
   26.8954  -18.4921  -15.4701 N   0  0  0  0  0  0  0  0  0  0  0  0
   26.1606  -19.5718  -14.8064 C   0  0  0  0  0  0  0  0  0  0  0  0
   25.9455  -17.4886  -15.9900 O   0  0  0  0  0  0  0  0  0  0  0  0
   24.7906  -17.8835  -16.4104 N   0  0  0  0  0  0  0  0  0  0  0  0
   26.1381  -16.0998  -16.0887 C   0  0  1  0  0  0  0  0  0  0  0  0
   25.1717  -15.1821  -16.6571 C   0  0  0  0  0  0  0  0  0  0  0  0
   24.7745  -14.0869  -15.7309 S   0  0  0  0  0  0  0  0  0  0  0  0
   26.3072  -13.4225  -14.9856 C   0  0  0  0  0  0  0  0  0  0  0  0
   25.7496  -14.5713  -17.8803 O   0  0  0  0  0  0  0  0  0  0  0  0
   26.9241  -14.7908  -18.2033 O   0  0  0  0  0  0  0  0  0  0  0  0
  1  2  1  0
  2  3  2  0
  4  2  1  0
  4  5  1  0
  6  5  1  0
  6  7  1  0
  7  8  1  0
  8  9  1  6
 10  8  1  0
 10 11  2  0
 13 12  1  6
 14 13  1  0
 15 16  1  6
 15 13  1  0
 16 10  1  0
 17 15  1  0
 18 17  2  0
 19 17  1  0
 20 19  1  0
 21 22  1  0
 20 21  1  6
 23 20  1  0
 23 25  1  0
 24 23  2  0
M  END
$$$$
