RTC.pdb
     RDKit          3D

 25 24  0  0  1  0  0  0  0  0999 V2000
   20.4645  -22.0428   -9.5893 N   0  0  0  0  0  0  0  0  0  0  0  0
   20.9834  -22.0524   -8.2567 C   0  0  0  0  0  0  0  0  0  0  0  0
   20.4208  -22.8092   -7.3747 N   0  0  0  0  0  0  0  0  0  0  0  0
   22.0864  -21.2380   -7.9556 N   0  0  0  0  0  0  0  0  0  0  0  0
   22.7290  -20.4816   -9.0469 C   0  0  0  0  0  0  0  0  0  0  0  0
   24.1728  -20.8427   -9.0497 C   0  0  0  0  0  0  0  0  0  0  0  0
   25.0286  -20.2013  -10.0720 C   0  0  0  0  0  0  0  0  0  0  0  0
   25.6704  -21.1014  -11.0767 C   0  0  2  0  0  0  0  0  0  0  0  0
   26.7440  -21.9039  -10.5546 N   0  0  0  0  0  0  0  0  0  0  0  0
   26.1079  -20.2721  -12.2328 C   0  0  0  0  0  0  0  0  0  0  0  0
   27.1345  -19.5441  -12.1349 O   0  0  0  0  0  0  0  0  0  0  0  0
   20.7243  -22.8086   -6.3841 C   0  0  0  0  0  0  0  0  0  0  0  0
   27.0331  -21.4256  -15.5485 C   0  0  2  0  0  0  0  0  0  0  0  0
   26.0308  -20.3330  -15.8235 O   0  0  0  0  0  0  0  0  0  0  0  0
   24.8000  -21.0437  -15.9781 C   0  0  2  0  0  0  0  0  0  0  0  0
   25.9307  -19.4572  -14.6021 N   0  0  0  0  0  0  0  0  0  0  0  0
   25.4378  -20.2405  -13.4664 C   0  0  0  0  0  0  0  0  0  0  0  0
   25.0139  -18.3305  -14.8661 O   0  0  0  0  0  0  0  0  0  0  0  0
   23.7777  -18.4369  -14.5099 N   0  0  0  0  0  0  0  0  0  0  0  0
   25.3224  -17.1026  -15.4766 C   0  0  1  0  0  0  0  0  0  0  0  0
   24.3602  -16.0447  -15.7095 C   0  0  0  0  0  0  0  0  0  0  0  0
   24.9847  -14.7226  -15.9872 S   0  0  0  0  0  0  0  0  0  0  0  0
   23.6290  -13.5066  -16.1595 C   0  0  0  0  0  0  0  0  0  0  0  0
   23.5120  -16.4126  -16.8707 O   0  0  0  0  0  0  0  0  0  0  0  0
   22.2887  -16.2265  -16.8454 O   0  0  0  0  0  0  0  0  0  0  0  0
  1  2  1  0
  2  3  2  0
  4  2  1  0
  4  5  1  0
  6  5  1  0
  6  7  1  0
  7  8  1  0
  8  9  1  1
 10  8  1  0
 10 11  2  0
 13 12  1  6
 14 13  1  0
 15 16  1  6
 15 13  1  0
 16 10  1  0
 17 15  1  0
 18 17  2  0
 19 17  1  0
 20 19  1  0
 21 22  1  0
 20 21  1  6
 23 20  1  0
 23 25  1  0
 24 23  2  0
M  END
$$$$
