RTC.pdb
     RDKit          3D

 25 24  0  0  1  0  0  0  0  0999 V2000
   26.3048  -20.6584   -8.7894 N   0  0  0  0  0  0  0  0  0  0  0  0
   25.0229  -20.8789   -9.3837 C   0  0  0  0  0  0  0  0  0  0  0  0
   23.9663  -20.7407   -8.6546 N   0  0  0  0  0  0  0  0  0  0  0  0
   24.9597  -21.2381  -10.7392 N   0  0  0  0  0  0  0  0  0  0  0  0
   26.2162  -21.3415  -11.5053 C   0  0  0  0  0  0  0  0  0  0  0  0
   25.8731  -21.1963  -12.9461 C   0  0  0  0  0  0  0  0  0  0  0  0
   24.8101  -20.2279  -13.2942 C   0  0  0  0  0  0  0  0  0  0  0  0
   24.5276  -20.0287  -14.7474 C   0  0  2  0  0  0  0  0  0  0  0  0
   24.5940  -21.2304  -15.5354 N   0  0  0  0  0  0  0  0  0  0  0  0
   25.4465  -18.9761  -15.2607 C   0  0  0  0  0  0  0  0  0  0  0  0
   25.6397  -17.9248  -14.5892 O   0  0  0  0  0  0  0  0  0  0  0  0
   23.0156  -20.8787   -9.0426 C   0  0  0  0  0  0  0  0  0  0  0  0
   29.0942  -17.3925  -18.0507 C   0  0  2  0  0  0  0  0  0  0  0  0
   28.2030  -18.5404  -17.6481 O   0  0  0  0  0  0  0  0  0  0  0  0
   28.9732  -19.2264  -16.6581 C   0  0  1  0  0  0  0  0  0  0  0  0
   26.9675  -17.9800  -16.9936 N   0  0  0  0  0  0  0  0  0  0  0  0
   26.1372  -19.0720  -16.4795 C   0  0  0  0  0  0  0  0  0  0  0  0
   26.1976  -17.1861  -17.9717 O   0  0  0  0  0  0  0  0  0  0  0  0
   25.4020  -17.7989  -18.7829 N   0  0  0  0  0  0  0  0  0  0  0  0
   26.2132  -15.7910  -18.1417 C   0  0  1  0  0  0  0  0  0  0  0  0
   25.4071  -15.0800  -19.1133 C   0  0  0  0  0  0  0  0  0  0  0  0
   25.3758  -13.6078  -18.8979 S   0  0  0  0  0  0  0  0  0  0  0  0
   24.2403  -12.9000  -20.1451 C   0  0  0  0  0  0  0  0  0  0  0  0
   25.9481  -15.3410  -20.4707 O   0  0  0  0  0  0  0  0  0  0  0  0
   27.1692  -15.3847  -20.6680 O   0  0  0  0  0  0  0  0  0  0  0  0
  1  2  1  0
  2  3  2  0
  4  2  1  0
  4  5  1  0
  6  5  1  0
  6  7  1  0
  7  8  1  0
  8  9  1  6
 10  8  1  0
 10 11  2  0
 13 12  1  6
 14 13  1  0
 15 16  1  6
 15 13  1  0
 16 10  1  0
 17 15  1  0
 18 17  2  0
 19 17  1  0
 20 19  1  0
 21 22  1  0
 20 21  1  6
 23 20  1  0
 23 25  1  0
 24 23  2  0
M  END
$$$$
