RTC.pdb
     RDKit          3D

 25 24  0  0  1  0  0  0  0  0999 V2000
   27.6686  -15.7247  -19.0669 N   0  0  0  0  0  0  0  0  0  0  0  0
   28.8506  -16.5227  -18.9612 C   0  0  0  0  0  0  0  0  0  0  0  0
   30.0014  -15.9514  -19.0894 N   0  0  0  0  0  0  0  0  0  0  0  0
   28.7168  -17.8994  -18.7218 N   0  0  0  0  0  0  0  0  0  0  0  0
   27.3632  -18.4845  -18.6820 C   0  0  0  0  0  0  0  0  0  0  0  0
   26.8990  -18.4385  -17.2688 C   0  0  0  0  0  0  0  0  0  0  0  0
   26.4515  -19.7115  -16.6619 C   0  0  0  0  0  0  0  0  0  0  0  0
   27.3171  -20.2898  -15.5906 C   0  0  2  0  0  0  0  0  0  0  0  0
   28.4172  -21.0787  -16.0773 N   0  0  0  0  0  0  0  0  0  0  0  0
   26.4509  -21.0604  -14.6570 C   0  0  0  0  0  0  0  0  0  0  0  0
   26.3048  -22.3044  -14.8130 O   0  0  0  0  0  0  0  0  0  0  0  0
   30.8861  -16.4802  -18.9843 C   0  0  0  0  0  0  0  0  0  0  0  0
   25.0831  -19.5077  -10.9670 C   0  0  2  0  0  0  0  0  0  0  0  0
   25.3590  -20.9668  -11.2292 O   0  0  0  0  0  0  0  0  0  0  0  0
   24.4609  -21.6384  -10.3425 C   0  0  1  0  0  0  0  0  0  0  0  0
   24.9606  -21.2816  -12.6473 N   0  0  0  0  0  0  0  0  0  0  0  0
   25.7611  -20.4830  -13.5787 C   0  0  0  0  0  0  0  0  0  0  0  0
   23.5271  -20.9876  -12.8429 O   0  0  0  0  0  0  0  0  0  0  0  0
   23.1678  -19.7707  -13.0806 N   0  0  0  0  0  0  0  0  0  0  0  0
   22.4555  -21.8964  -12.8073 C   0  0  1  0  0  0  0  0  0  0  0  0
   21.0772  -21.5412  -13.0784 C   0  0  0  0  0  0  0  0  0  0  0  0
   20.2582  -22.6766  -13.5834 S   0  0  0  0  0  0  0  0  0  0  0  0
   20.8223  -23.0389  -15.2853 C   0  0  0  0  0  0  0  0  0  0  0  0
   20.4552  -21.0376  -11.8283 O   0  0  0  0  0  0  0  0  0  0  0  0
   20.9695  -21.2705  -10.7269 O   0  0  0  0  0  0  0  0  0  0  0  0
  1  2  1  0
  2  3  2  0
  4  2  1  0
  4  5  1  0
  6  5  1  0
  6  7  1  0
  7  8  1  0
  8  9  1  6
 10  8  1  0
 10 11  2  0
 13 12  1  1
 14 13  1  0
 15 16  1  1
 15 13  1  0
 16 10  1  0
 17 15  1  0
 18 17  2  0
 19 17  1  0
 20 19  1  0
 21 22  1  0
 20 21  1  1
 23 20  1  0
 23 25  1  0
 24 23  2  0
M  END
$$$$
