RTC.pdb
     RDKit          3D

 25 24  0  0  1  0  0  0  0  0999 V2000
   20.3969  -22.5601   -8.7791 N   0  0  0  0  0  0  0  0  0  0  0  0
   19.9364  -22.1320  -10.0635 C   0  0  0  0  0  0  0  0  0  0  0  0
   18.8765  -21.3979  -10.1324 N   0  0  0  0  0  0  0  0  0  0  0  0
   20.6540  -22.5259  -11.2039 N   0  0  0  0  0  0  0  0  0  0  0  0
   22.1282  -22.5237  -11.1506 C   0  0  0  0  0  0  0  0  0  0  0  0
   22.5970  -21.2838  -11.8270 C   0  0  0  0  0  0  0  0  0  0  0  0
   23.9022  -20.7326  -11.4004 C   0  0  0  0  0  0  0  0  0  0  0  0
   25.1253  -21.3898  -11.9515 C   0  0  2  0  0  0  0  0  0  0  0  0
   25.8697  -22.1595  -10.9910 N   0  0  0  0  0  0  0  0  0  0  0  0
   25.9653  -20.3440  -12.5968 C   0  0  0  0  0  0  0  0  0  0  0  0
   26.8821  -19.7767  -11.9402 O   0  0  0  0  0  0  0  0  0  0  0  0
   18.4751  -21.1057  -11.0417 C   0  0  0  0  0  0  0  0  0  0  0  0
   26.5570  -19.9500  -16.7667 C   0  0  2  0  0  0  0  0  0  0  0  0
   27.4910  -19.5701  -15.6454 O   0  0  0  0  0  0  0  0  0  0  0  0
   28.3285  -18.5728  -16.2353 C   0  0  1  0  0  0  0  0  0  0  0  0
   26.6834  -18.9316  -14.5458 N   0  0  0  0  0  0  0  0  0  0  0  0
   25.8056  -19.9291  -13.9289 C   0  0  0  0  0  0  0  0  0  0  0  0
   25.8735  -17.8262  -15.0949 O   0  0  0  0  0  0  0  0  0  0  0  0
   24.7308  -18.0977  -15.6305 N   0  0  0  0  0  0  0  0  0  0  0  0
   26.1932  -16.4575  -15.1092 C   0  0  1  0  0  0  0  0  0  0  0  0
   25.3621  -15.4334  -15.7090 C   0  0  0  0  0  0  0  0  0  0  0  0
   25.8820  -14.0531  -15.5106 S   0  0  0  0  0  0  0  0  0  0  0  0
   24.6083  -12.8977  -16.1343 C   0  0  0  0  0  0  0  0  0  0  0  0
   25.2616  -15.6885  -17.1678 O   0  0  0  0  0  0  0  0  0  0  0  0
   24.1828  -15.5589  -17.7603 O   0  0  0  0  0  0  0  0  0  0  0  0
  1  2  1  0
  2  3  2  0
  4  2  1  0
  4  5  1  0
  6  5  1  0
  6  7  1  0
  7  8  1  0
  8  9  1  1
 10  8  1  0
 10 11  2  0
 13 12  1  6
 14 13  1  0
 15 16  1  1
 15 13  1  0
 16 10  1  0
 17 15  1  0
 18 17  2  0
 19 17  1  0
 20 19  1  0
 21 22  1  0
 20 21  1  6
 23 20  1  0
 23 25  1  0
 24 23  2  0
M  END
$$$$
