RTC.pdb
     RDKit          3D

 25 24  0  0  1  0  0  0  0  0999 V2000
   13.5725  -13.7684  -11.6288 N   0  0  0  0  0  0  0  0  0  0  0  0
   12.2499  -13.5271  -12.1161 C   0  0  0  0  0  0  0  0  0  0  0  0
   11.5057  -14.5363  -12.4241 N   0  0  0  0  0  0  0  0  0  0  0  0
   11.8082  -12.2006  -12.2422 N   0  0  0  0  0  0  0  0  0  0  0  0
   12.3920  -11.3559  -13.3013 C   0  0  0  0  0  0  0  0  0  0  0  0
   13.6358  -10.7497  -12.7533 C   0  0  0  0  0  0  0  0  0  0  0  0
   14.3903   -9.8361  -13.6394 C   0  0  0  0  0  0  0  0  0  0  0  0
   14.1896   -8.3711  -13.4273 C   0  0  2  0  0  0  0  0  0  0  0  0
   12.8660   -7.9019  -13.7392 N   0  0  0  0  0  0  0  0  0  0  0  0
   15.2338   -7.6415  -14.1974 C   0  0  0  0  0  0  0  0  0  0  0  0
   15.1339   -7.5341  -15.4511 O   0  0  0  0  0  0  0  0  0  0  0  0
   10.5551  -14.4117  -12.8167 C   0  0  0  0  0  0  0  0  0  0  0  0
   18.0773   -4.0866  -15.1351 C   0  0  2  0  0  0  0  0  0  0  0  0
   16.9614   -4.8481  -14.4652 O   0  0  0  0  0  0  0  0  0  0  0  0
   15.8708   -4.7100  -15.3792 C   0  0  1  0  0  0  0  0  0  0  0  0
   17.3493   -6.3019  -14.3949 N   0  0  0  0  0  0  0  0  0  0  0  0
   16.3602   -7.0440  -13.6092 C   0  0  0  0  0  0  0  0  0  0  0  0
   18.6819   -6.4364  -13.7741 O   0  0  0  0  0  0  0  0  0  0  0  0
   18.8356   -6.0744  -12.5446 N   0  0  0  0  0  0  0  0  0  0  0  0
   19.8557   -6.9314  -14.3682 C   0  0  1  0  0  0  0  0  0  0  0  0
   21.1376   -7.0090  -13.6975 C   0  0  0  0  0  0  0  0  0  0  0  0
   22.1136   -7.9015  -14.3800 S   0  0  0  0  0  0  0  0  0  0  0  0
   21.3277   -9.5456  -14.5390 C   0  0  0  0  0  0  0  0  0  0  0  0
   21.7245   -5.6477  -13.6222 O   0  0  0  0  0  0  0  0  0  0  0  0
   22.7037   -5.4194  -12.9005 O   0  0  0  0  0  0  0  0  0  0  0  0
  1  2  1  0
  2  3  2  0
  4  2  1  0
  4  5  1  0
  6  5  1  0
  6  7  1  0
  7  8  1  0
  8  9  1  6
 10  8  1  0
 10 11  2  0
 13 12  1  1
 14 13  1  0
 15 16  1  1
 15 13  1  0
 16 10  1  0
 17 15  1  0
 18 17  2  0
 19 17  1  0
 20 19  1  0
 21 22  1  0
 20 21  1  1
 23 20  1  0
 23 25  1  0
 24 23  2  0
M  END
$$$$
