RTC.pdb
     RDKit          3D

 25 24  0  0  1  0  0  0  0  0999 V2000
   19.7887  -16.7561  -16.2233 N   0  0  0  0  0  0  0  0  0  0  0  0
   20.1680  -17.8342  -17.0829 C   0  0  0  0  0  0  0  0  0  0  0  0
   20.9623  -17.5924  -18.0718 N   0  0  0  0  0  0  0  0  0  0  0  0
   19.6628  -19.1172  -16.8202 N   0  0  0  0  0  0  0  0  0  0  0  0
   18.7744  -19.3058  -15.6578 C   0  0  0  0  0  0  0  0  0  0  0  0
   19.3862  -20.3519  -14.7941 C   0  0  0  0  0  0  0  0  0  0  0  0
   19.5039  -20.0530  -13.3498 C   0  0  0  0  0  0  0  0  0  0  0  0
   20.8814  -20.0457  -12.7718 C   0  0  2  0  0  0  0  0  0  0  0  0
   21.9341  -20.1676  -13.7446 N   0  0  0  0  0  0  0  0  0  0  0  0
   20.9570  -21.1108  -11.7346 C   0  0  0  0  0  0  0  0  0  0  0  0
   21.2544  -22.2925  -12.0639 O   0  0  0  0  0  0  0  0  0  0  0  0
   21.2033  -18.3218  -18.7670 C   0  0  0  0  0  0  0  0  0  0  0  0
   22.9436  -20.8031   -8.4822 C   0  0  2  0  0  0  0  0  0  0  0  0
   21.5640  -21.2987   -8.1288 O   0  0  0  0  0  0  0  0  0  0  0  0
   20.8510  -20.0995   -7.8168 C   0  0  2  0  0  0  0  0  0  0  0  0
   20.9493  -21.9186   -9.3563 N   0  0  0  0  0  0  0  0  0  0  0  0
   20.7129  -20.8876  -10.3699 C   0  0  0  0  0  0  0  0  0  0  0  0
   19.6737  -22.5725   -9.0033 O   0  0  0  0  0  0  0  0  0  0  0  0
   18.5664  -21.9849   -9.3114 N   0  0  0  0  0  0  0  0  0  0  0  0
   19.4967  -23.8053   -8.3516 C   0  0  1  0  0  0  0  0  0  0  0  0
   18.2067  -24.3606   -7.9960 C   0  0  0  0  0  0  0  0  0  0  0  0
   18.0637  -25.8016   -8.3393 S   0  0  0  0  0  0  0  0  0  0  0  0
   18.4325  -25.9748  -10.1225 C   0  0  0  0  0  0  0  0  0  0  0  0
   18.0034  -24.2074   -6.5336 O   0  0  0  0  0  0  0  0  0  0  0  0
   18.9450  -23.8975   -5.7925 O   0  0  0  0  0  0  0  0  0  0  0  0
  1  2  1  0
  2  3  2  0
  4  2  1  0
  4  5  1  0
  6  5  1  0
  6  7  1  0
  7  8  1  0
  8  9  1  6
 10  8  1  0
 10 11  2  0
 13 12  1  1
 14 13  1  0
 15 16  1  1
 15 13  1  0
 16 10  1  0
 17 15  1  0
 18 17  2  0
 19 17  1  0
 20 19  1  0
 21 22  1  0
 20 21  1  1
 23 20  1  0
 23 25  1  0
 24 23  2  0
M  END
$$$$
