RTC.pdb
     RDKit          3D

 25 24  0  0  1  0  0  0  0  0999 V2000
   20.0770  -16.1644  -17.2808 N   0  0  0  0  0  0  0  0  0  0  0  0
   18.6797  -16.4663  -17.2466 C   0  0  0  0  0  0  0  0  0  0  0  0
   18.3046  -17.6352  -16.8465 N   0  0  0  0  0  0  0  0  0  0  0  0
   17.7656  -15.4800  -17.6495 N   0  0  0  0  0  0  0  0  0  0  0  0
   18.2803  -14.1577  -18.0529 C   0  0  0  0  0  0  0  0  0  0  0  0
   18.4515  -13.3493  -16.8152 C   0  0  0  0  0  0  0  0  0  0  0  0
   18.8490  -11.9339  -16.9813 C   0  0  0  0  0  0  0  0  0  0  0  0
   18.9948  -11.1228  -15.7353 C   0  0  2  0  0  0  0  0  0  0  0  0
   17.9365  -11.3085  -14.7787 N   0  0  0  0  0  0  0  0  0  0  0  0
   19.1477   -9.6942  -16.1246 C   0  0  0  0  0  0  0  0  0  0  0  0
   20.0729   -9.3500  -16.9112 O   0  0  0  0  0  0  0  0  0  0  0  0
   17.3169  -17.9413  -16.9108 C   0  0  0  0  0  0  0  0  0  0  0  0
   16.1795   -7.3037  -17.0909 C   0  0  2  0  0  0  0  0  0  0  0  0
   17.0865   -6.6109  -16.1054 O   0  0  0  0  0  0  0  0  0  0  0  0
   16.4707   -6.8789  -14.8433 C   0  0  2  0  0  0  0  0  0  0  0  0
   18.4324   -7.2865  -16.1373 N   0  0  0  0  0  0  0  0  0  0  0  0
   18.3081   -8.6673  -15.6638 C   0  0  0  0  0  0  0  0  0  0  0  0
   19.3842   -6.5500  -15.2823 O   0  0  0  0  0  0  0  0  0  0  0  0
   19.4911   -6.8824  -14.0395 N   0  0  0  0  0  0  0  0  0  0  0  0
   20.2291   -5.4916  -15.6587 C   0  0  1  0  0  0  0  0  0  0  0  0
   21.0271   -4.7170  -14.7301 C   0  0  0  0  0  0  0  0  0  0  0  0
   22.4691   -4.6539  -15.0930 S   0  0  0  0  0  0  0  0  0  0  0  0
   23.2961   -3.5945  -13.8521 C   0  0  0  0  0  0  0  0  0  0  0  0
   20.4979   -3.3311  -14.6804 O   0  0  0  0  0  0  0  0  0  0  0  0
   19.8814   -2.8540  -15.6417 O   0  0  0  0  0  0  0  0  0  0  0  0
  1  2  1  0
  2  3  2  0
  4  2  1  0
  4  5  1  0
  6  5  1  0
  6  7  1  0
  7  8  1  0
  8  9  1  1
 10  8  1  0
 10 11  2  0
 13 12  1  6
 14 13  1  0
 15 16  1  6
 15 13  1  0
 16 10  1  0
 17 15  1  0
 18 17  2  0
 19 17  1  0
 20 19  1  0
 21 22  1  0
 20 21  1  1
 23 20  1  0
 23 25  1  0
 24 23  2  0
M  END
$$$$
