RTC.pdb
     RDKit          3D

 25 24  0  0  1  0  0  0  0  0999 V2000
   29.3900  -22.4956  -18.9718 N   0  0  0  0  0  0  0  0  0  0  0  0
   30.1080  -22.9128  -17.8076 C   0  0  0  0  0  0  0  0  0  0  0  0
   31.3208  -23.3351  -17.9418 N   0  0  0  0  0  0  0  0  0  0  0  0
   29.4678  -22.8481  -16.5601 N   0  0  0  0  0  0  0  0  0  0  0  0
   28.0250  -22.5437  -16.5178 C   0  0  0  0  0  0  0  0  0  0  0  0
   27.8828  -21.0629  -16.4756 C   0  0  0  0  0  0  0  0  0  0  0  0
   27.2298  -20.4797  -15.2828 C   0  0  0  0  0  0  0  0  0  0  0  0
   25.8235  -20.9023  -15.0085 C   0  0  2  0  0  0  0  0  0  0  0  0
   24.9099  -20.6660  -16.0943 N   0  0  0  0  0  0  0  0  0  0  0  0
   25.3755  -20.2425  -13.7516 C   0  0  0  0  0  0  0  0  0  0  0  0
   25.0880  -19.0134  -13.7518 O   0  0  0  0  0  0  0  0  0  0  0  0
   31.8562  -23.7157  -17.1407 C   0  0  0  0  0  0  0  0  0  0  0  0
   22.5362  -19.9543  -12.4042 C   0  0  2  0  0  0  0  0  0  0  0  0
   23.2388  -20.5344  -11.2026 O   0  0  0  0  0  0  0  0  0  0  0  0
   23.0284  -21.9415  -11.3431 C   0  0  2  0  0  0  0  0  0  0  0  0
   24.7132  -20.2533  -11.3288 N   0  0  0  0  0  0  0  0  0  0  0  0
   25.2455  -20.9121  -12.5242 C   0  0  0  0  0  0  0  0  0  0  0  0
   25.4223  -20.7451  -10.1309 O   0  0  0  0  0  0  0  0  0  0  0  0
   25.8624  -21.9586  -10.1221 N   0  0  0  0  0  0  0  0  0  0  0  0
   25.6973  -20.0357   -8.9490 C   0  0  1  0  0  0  0  0  0  0  0  0
   26.2343  -20.6366   -7.7450 C   0  0  0  0  0  0  0  0  0  0  0  0
   26.8148  -19.6492   -6.7947 S   0  0  0  0  0  0  0  0  0  0  0  0
   28.4737  -19.2014   -7.4221 C   0  0  0  0  0  0  0  0  0  0  0  0
   25.1489  -21.3713   -7.0484 O   0  0  0  0  0  0  0  0  0  0  0  0
   23.9824  -21.3158   -7.4584 O   0  0  0  0  0  0  0  0  0  0  0  0
  1  2  1  0
  2  3  2  0
  4  2  1  0
  4  5  1  0
  6  5  1  0
  6  7  1  0
  7  8  1  0
  8  9  1  6
 10  8  1  0
 10 11  2  0
 13 12  1  1
 14 13  1  0
 15 16  1  1
 15 13  1  0
 16 10  1  0
 17 15  1  0
 18 17  2  0
 19 17  1  0
 20 19  1  0
 21 22  1  0
 20 21  1  1
 23 20  1  0
 23 25  1  0
 24 23  2  0
M  END
$$$$
