PQF.pdb
     RDKit          3D

 28 29  0  0  1  0  0  0  0  0999 V2000
    8.5372  -15.2780   19.2305 N   0  0  0  0  0  0  0  0  0  0  0  0
    8.5031  -14.6553   17.9401 C   0  0  0  0  0  0  0  0  0  0  0  0
    8.1007  -13.2138   18.1504 C   0  0  0  0  0  0  0  0  0  0  0  0
    7.4648  -13.2700   19.5278 C   0  0  0  0  0  0  0  0  0  0  0  0
    8.4348  -14.2372   20.2183 C   0  0  1  0  0  0  0  0  0  0  0  0
    7.8816  -14.7239   21.5042 C   0  0  0  0  0  0  0  0  0  0  0  0
    7.6779  -13.9187   22.4218 O   0  0  0  0  0  0  0  0  0  0  0  0
    6.2358  -20.8626   22.0967 N   0  0  0  0  0  0  0  0  0  0  0  0
    5.9151  -20.3587   23.3916 C   0  0  0  0  0  0  0  0  0  0  0  0
    5.3817  -21.1588   24.1923 O   0  0  0  0  0  0  0  0  0  0  0  0
    6.2291  -18.9504   23.6922 C   0  0  0  0  0  0  0  0  0  0  0  0
    6.7496  -18.1629   22.5346 C   0  0  0  0  0  0  0  0  0  0  0  0
    7.0863  -16.7377   22.8254 C   0  0  2  0  0  0  0  0  0  0  0  0
    7.6045  -16.1081   21.6339 N   0  0  0  0  0  0  0  0  0  0  0  0
    7.9994  -16.5129   23.9369 C   0  0  0  0  0  0  0  0  0  0  0  0
    9.2652  -16.4759   23.8162 O   0  0  0  0  0  0  0  0  0  0  0  0
    7.4920  -16.3193   25.2474 N   0  0  0  0  0  0  0  0  0  0  0  0
    8.4145  -16.0483   26.3615 C   0  0  1  0  0  0  0  0  0  0  0  0
    7.6659  -15.2373   27.4021 C   0  0  0  0  0  0  0  0  0  0  0  0
    7.3938  -13.8465   26.9727 C   0  0  0  0  0  0  0  0  0  0  0  0
    8.3450  -12.8593   26.8656 C   0  0  0  0  0  0  0  0  0  0  0  0
    8.0466  -11.5727   26.4472 C   0  0  0  0  0  0  0  0  0  0  0  0
    6.7548  -11.2255   26.1152 C   0  0  0  0  0  0  0  0  0  0  0  0
    5.7924  -12.1935   26.2153 C   0  0  0  0  0  0  0  0  0  0  0  0
    6.0885  -13.4701   26.6302 C   0  0  0  0  0  0  0  0  0  0  0  0
    8.7865  -17.3392   26.9526 C   0  0  0  0  0  0  0  0  0  0  0  0
    8.1911  -18.5023   26.5120 O   0  0  0  0  0  0  0  0  0  0  0  0
    9.6401  -17.3948   27.8541 O   0  0  0  0  0  0  0  0  0  0  0  0
  2  1  1  0
  3  2  1  0
  4  3  1  0
  4  5  1  0
  5  1  1  0
  5  6  1  1
  6  7  2  0
  8  9  1  0
  9 11  1  0
 10  9  2  0
 11 12  1  0
 13 12  1  6
 14  6  1  0
 14 13  1  0
 15 17  1  0
 15 13  1  0
 16 15  2  0
 18 26  1  0
 18 19  1  1
 18 17  1  0
 20 19  1  0
 20 21  2  0
 22 21  1  0
 23 22  2  0
 24 25  2  0
 24 23  1  0
 25 20  1  0
 26 27  1  0
 28 26  2  0
M  END
$$$$
