PQF.pdb
     RDKit          3D

 28 29  0  0  1  0  0  0  0  0999 V2000
    8.1127  -14.6137   18.4617 N   0  0  0  0  0  0  0  0  0  0  0  0
    7.9420  -13.3798   17.7530 C   0  0  0  0  0  0  0  0  0  0  0  0
    8.0285  -12.2651   18.7700 C   0  0  0  0  0  0  0  0  0  0  0  0
    7.7594  -13.0096   20.0654 C   0  0  0  0  0  0  0  0  0  0  0  0
    8.5539  -14.2931   19.7928 C   0  0  1  0  0  0  0  0  0  0  0  0
    8.2173  -15.3505   20.7752 C   0  0  0  0  0  0  0  0  0  0  0  0
    7.1747  -16.0022   20.6335 O   0  0  0  0  0  0  0  0  0  0  0  0
   10.7701  -20.2943   21.7740 N   0  0  0  0  0  0  0  0  0  0  0  0
   11.5662  -19.1207   21.6243 C   0  0  0  0  0  0  0  0  0  0  0  0
   12.7433  -19.2835   21.2322 O   0  0  0  0  0  0  0  0  0  0  0  0
   10.9561  -17.8163   21.9380 C   0  0  0  0  0  0  0  0  0  0  0  0
    9.5307  -17.8805   22.3801 C   0  0  0  0  0  0  0  0  0  0  0  0
    8.9479  -16.5932   22.8622 C   0  0  2  0  0  0  0  0  0  0  0  0
    9.1129  -15.5763   21.8507 N   0  0  0  0  0  0  0  0  0  0  0  0
    9.4515  -16.1041   24.1377 C   0  0  0  0  0  0  0  0  0  0  0  0
   10.4377  -15.3087   24.2507 O   0  0  0  0  0  0  0  0  0  0  0  0
    8.8373  -16.5122   25.3495 N   0  0  0  0  0  0  0  0  0  0  0  0
    9.3574  -16.0277   26.6381 C   0  0  1  0  0  0  0  0  0  0  0  0
    8.1894  -15.4859   27.4402 C   0  0  0  0  0  0  0  0  0  0  0  0
    7.6178  -14.2438   26.8717 C   0  0  0  0  0  0  0  0  0  0  0  0
    6.4878  -14.1875   26.0901 C   0  0  0  0  0  0  0  0  0  0  0  0
    5.9812  -12.9994   25.5889 C   0  0  0  0  0  0  0  0  0  0  0  0
    6.6055  -11.8012   25.8607 C   0  0  0  0  0  0  0  0  0  0  0  0
    7.7324  -11.8351   26.6368 C   0  0  0  0  0  0  0  0  0  0  0  0
    8.2350  -13.0138   27.1342 C   0  0  0  0  0  0  0  0  0  0  0  0
    9.9197  -17.1812   27.3505 C   0  0  0  0  0  0  0  0  0  0  0  0
   10.5783  -17.0039   28.5490 O   0  0  0  0  0  0  0  0  0  0  0  0
    9.8072  -18.3260   26.8801 O   0  0  0  0  0  0  0  0  0  0  0  0
  2  1  1  0
  3  2  1  0
  4  3  1  0
  4  5  1  0
  5  1  1  0
  5  6  1  1
  6  7  2  0
  8  9  1  0
  9 11  1  0
 10  9  2  0
 11 12  1  0
 13 12  1  6
 14  6  1  0
 14 13  1  0
 15 17  1  0
 15 13  1  0
 16 15  2  0
 18 26  1  0
 18 19  1  1
 18 17  1  0
 20 19  1  0
 20 21  2  0
 22 21  1  0
 23 22  2  0
 24 25  2  0
 24 23  1  0
 25 20  1  0
 26 27  1  0
 28 26  2  0
M  END
$$$$
