PQF.pdb
     RDKit          3D

 28 29  0  0  1  0  0  0  0  0999 V2000
    9.1038  -14.4761   19.1547 N   0  0  0  0  0  0  0  0  0  0  0  0
    8.8062  -13.8474   17.9017 C   0  0  0  0  0  0  0  0  0  0  0  0
    7.7323  -12.8166   18.1633 C   0  0  0  0  0  0  0  0  0  0  0  0
    7.1643  -13.2939   19.4878 C   0  0  0  0  0  0  0  0  0  0  0  0
    8.4641  -13.7081   20.1893 C   0  0  1  0  0  0  0  0  0  0  0  0
    8.1854  -14.5093   21.4045 C   0  0  0  0  0  0  0  0  0  0  0  0
    7.5730  -13.9910   22.3470 O   0  0  0  0  0  0  0  0  0  0  0  0
    9.5816  -20.7024   21.3360 N   0  0  0  0  0  0  0  0  0  0  0  0
   10.6160  -19.7255   21.4330 C   0  0  0  0  0  0  0  0  0  0  0  0
   11.7806  -20.1105   21.1859 O   0  0  0  0  0  0  0  0  0  0  0  0
   10.2465  -18.3503   21.8131 C   0  0  0  0  0  0  0  0  0  0  0  0
    8.7975  -18.1510   22.1158 C   0  0  0  0  0  0  0  0  0  0  0  0
    8.4111  -16.7701   22.5319 C   0  0  2  0  0  0  0  0  0  0  0  0
    8.6362  -15.8528   21.4400 N   0  0  0  0  0  0  0  0  0  0  0  0
    9.0520  -16.2655   23.7379 C   0  0  0  0  0  0  0  0  0  0  0  0
   10.1368  -15.6012   23.7374 O   0  0  0  0  0  0  0  0  0  0  0  0
    8.4680  -16.5052   25.0083 N   0  0  0  0  0  0  0  0  0  0  0  0
    9.1060  -15.9750   26.2237 C   0  0  1  0  0  0  0  0  0  0  0  0
    8.0121  -15.4605   27.1400 C   0  0  0  0  0  0  0  0  0  0  0  0
    7.5774  -14.0832   26.8132 C   0  0  0  0  0  0  0  0  0  0  0  0
    8.4244  -13.0124   26.6493 C   0  0  0  0  0  0  0  0  0  0  0  0
    7.9736  -11.7416   26.3312 C   0  0  0  0  0  0  0  0  0  0  0  0
    6.6277  -11.4968   26.1637 C   0  0  0  0  0  0  0  0  0  0  0  0
    5.7672  -12.5492   26.3229 C   0  0  0  0  0  0  0  0  0  0  0  0
    6.2144  -13.8101   26.6382 C   0  0  0  0  0  0  0  0  0  0  0  0
    9.7876  -17.0916   26.8892 C   0  0  0  0  0  0  0  0  0  0  0  0
    9.7038  -18.3659   26.3692 O   0  0  0  0  0  0  0  0  0  0  0  0
   10.4452  -16.8981   27.9259 O   0  0  0  0  0  0  0  0  0  0  0  0
  2  1  1  0
  3  2  1  0
  4  3  1  0
  4  5  1  0
  5  1  1  0
  5  6  1  1
  6  7  2  0
  8  9  1  0
  9 11  1  0
 10  9  2  0
 11 12  1  0
 13 12  1  6
 14  6  1  0
 14 13  1  0
 15 17  1  0
 15 13  1  0
 16 15  2  0
 18 26  1  0
 18 19  1  1
 18 17  1  0
 20 19  1  0
 20 21  2  0
 22 21  1  0
 23 22  2  0
 24 25  2  0
 24 23  1  0
 25 20  1  0
 26 27  1  0
 28 26  2  0
M  END
$$$$
