PQF.pdb
     RDKit          3D

 28 29  0  0  1  0  0  0  0  0999 V2000
    9.0030  -14.4520   19.1875 N   0  0  0  0  0  0  0  0  0  0  0  0
    8.7347  -13.7403   17.9728 C   0  0  0  0  0  0  0  0  0  0  0  0
    7.8121  -12.5949   18.3208 C   0  0  0  0  0  0  0  0  0  0  0  0
    7.2447  -13.0513   19.6530 C   0  0  0  0  0  0  0  0  0  0  0  0
    8.5100  -13.6531   20.2774 C   0  0  1  0  0  0  0  0  0  0  0  0
    8.1836  -14.4622   21.4755 C   0  0  0  0  0  0  0  0  0  0  0  0
    7.6746  -13.9120   22.4603 O   0  0  0  0  0  0  0  0  0  0  0  0
    8.8328  -20.9059   21.7883 N   0  0  0  0  0  0  0  0  0  0  0  0
    9.9619  -20.0446   21.6594 C   0  0  0  0  0  0  0  0  0  0  0  0
   11.0739  -20.5932   21.4912 O   0  0  0  0  0  0  0  0  0  0  0  0
    9.7438  -18.5888   21.7329 C   0  0  0  0  0  0  0  0  0  0  0  0
    8.3353  -18.1789   22.0140 C   0  0  0  0  0  0  0  0  0  0  0  0
    8.1580  -16.7801   22.5050 C   0  0  2  0  0  0  0  0  0  0  0  0
    8.4705  -15.8502   21.4458 N   0  0  0  0  0  0  0  0  0  0  0  0
    8.9031  -16.4270   23.7049 C   0  0  0  0  0  0  0  0  0  0  0  0
   10.0793  -15.9427   23.6903 O   0  0  0  0  0  0  0  0  0  0  0  0
    8.3229  -16.6174   24.9853 N   0  0  0  0  0  0  0  0  0  0  0  0
    9.0307  -16.1561   26.1903 C   0  0  1  0  0  0  0  0  0  0  0  0
    8.0170  -15.4932   27.1035 C   0  0  0  0  0  0  0  0  0  0  0  0
    7.5320  -14.1920   26.5892 C   0  0  0  0  0  0  0  0  0  0  0  0
    6.3081  -13.9911   25.9956 C   0  0  0  0  0  0  0  0  0  0  0  0
    5.8904  -12.7515   25.5393 C   0  0  0  0  0  0  0  0  0  0  0  0
    6.7051  -11.6471   25.6657 C   0  0  0  0  0  0  0  0  0  0  0  0
    7.9282  -11.8254   26.2535 C   0  0  0  0  0  0  0  0  0  0  0  0
    8.3426  -13.0553   26.7065 C   0  0  0  0  0  0  0  0  0  0  0  0
    9.5678  -17.3414   26.8692 C   0  0  0  0  0  0  0  0  0  0  0  0
    9.2867  -18.6035   26.3902 O   0  0  0  0  0  0  0  0  0  0  0  0
   10.2797  -17.2175   27.8804 O   0  0  0  0  0  0  0  0  0  0  0  0
  2  1  1  0
  3  2  1  0
  4  3  1  0
  4  5  1  0
  5  1  1  0
  5  6  1  1
  6  7  2  0
  8  9  1  0
  9 11  1  0
 10  9  2  0
 11 12  1  0
 13 12  1  6
 14  6  1  0
 14 13  1  0
 15 17  1  0
 15 13  1  0
 16 15  2  0
 18 26  1  0
 18 19  1  1
 18 17  1  0
 20 19  1  0
 20 21  2  0
 22 21  1  0
 23 22  2  0
 24 25  2  0
 24 23  1  0
 25 20  1  0
 26 27  1  0
 28 26  2  0
M  END
$$$$
