PQF.pdb
     RDKit          3D

 28 29  0  0  1  0  0  0  0  0999 V2000
    9.3013  -15.0401   17.8648 N   0  0  0  0  0  0  0  0  0  0  0  0
    9.1042  -14.4048   16.5954 C   0  0  0  0  0  0  0  0  0  0  0  0
    8.1290  -13.2703   16.8104 C   0  0  0  0  0  0  0  0  0  0  0  0
    7.4777  -13.6696   18.1224 C   0  0  0  0  0  0  0  0  0  0  0  0
    8.7091  -14.1976   18.8693 C   0  0  1  0  0  0  0  0  0  0  0  0
    8.3171  -14.9490   20.0851 C   0  0  0  0  0  0  0  0  0  0  0  0
    7.6349  -14.3885   20.9525 O   0  0  0  0  0  0  0  0  0  0  0  0
   10.6073  -20.9505   21.8852 N   0  0  0  0  0  0  0  0  0  0  0  0
   11.2660  -19.7910   21.3799 C   0  0  0  0  0  0  0  0  0  0  0  0
   12.3742  -19.9677   20.8265 O   0  0  0  0  0  0  0  0  0  0  0  0
   10.6053  -18.4837   21.5432 C   0  0  0  0  0  0  0  0  0  0  0  0
    9.1613  -18.4586   21.1619 C   0  0  0  0  0  0  0  0  0  0  0  0
    8.4711  -17.1469   21.3415 C   0  0  2  0  0  0  0  0  0  0  0  0
    8.7436  -16.2953   20.2079 N   0  0  0  0  0  0  0  0  0  0  0  0
    8.7697  -16.4337   22.5752 C   0  0  0  0  0  0  0  0  0  0  0  0
    9.8927  -15.8906   22.8242 O   0  0  0  0  0  0  0  0  0  0  0  0
    7.7810  -16.3132   23.5853 N   0  0  0  0  0  0  0  0  0  0  0  0
    7.9699  -15.3600   24.6904 C   0  0  1  0  0  0  0  0  0  0  0  0
    6.9473  -14.2509   24.5318 C   0  0  0  0  0  0  0  0  0  0  0  0
    6.9796  -13.2655   25.6365 C   0  0  0  0  0  0  0  0  0  0  0  0
    5.9649  -13.0727   26.5443 C   0  0  0  0  0  0  0  0  0  0  0  0
    6.0435  -12.1459   27.5711 C   0  0  0  0  0  0  0  0  0  0  0  0
    7.1677  -11.3636   27.7248 C   0  0  0  0  0  0  0  0  0  0  0  0
    8.1894  -11.5394   26.8313 C   0  0  0  0  0  0  0  0  0  0  0  0
    8.1116  -12.4591   25.8126 C   0  0  0  0  0  0  0  0  0  0  0  0
    7.6955  -16.0743   25.9430 C   0  0  0  0  0  0  0  0  0  0  0  0
    8.4356  -15.8024   27.0742 O   0  0  0  0  0  0  0  0  0  0  0  0
    6.7950  -16.9292   25.9943 O   0  0  0  0  0  0  0  0  0  0  0  0
  2  1  1  0
  3  2  1  0
  4  3  1  0
  4  5  1  0
  5  1  1  0
  5  6  1  1
  6  7  2  0
  8  9  1  0
  9 11  1  0
 10  9  2  0
 11 12  1  0
 13 12  1  6
 14  6  1  0
 14 13  1  0
 15 17  1  0
 15 13  1  0
 16 15  2  0
 18 26  1  0
 18 19  1  6
 18 17  1  0
 20 19  1  0
 20 21  2  0
 22 21  1  0
 23 22  2  0
 24 25  2  0
 24 23  1  0
 25 20  1  0
 26 27  1  0
 28 26  2  0
M  END
$$$$
