PQF.pdb
     RDKit          3D

 28 29  0  0  1  0  0  0  0  0999 V2000
    9.0726  -14.0653   19.4422 N   0  0  0  0  0  0  0  0  0  0  0  0
    8.6256  -13.3490   18.2842 C   0  0  0  0  0  0  0  0  0  0  0  0
    7.3993  -12.5644   18.6903 C   0  0  0  0  0  0  0  0  0  0  0  0
    6.9707  -13.2946   19.9504 C   0  0  0  0  0  0  0  0  0  0  0  0
    8.3470  -13.5563   20.5752 C   0  0  1  0  0  0  0  0  0  0  0  0
    8.2554  -14.5381   21.6816 C   0  0  0  0  0  0  0  0  0  0  0  0
    7.4205  -14.3664   22.5790 O   0  0  0  0  0  0  0  0  0  0  0  0
    9.6159  -20.3380   19.1932 N   0  0  0  0  0  0  0  0  0  0  0  0
   10.1368  -19.6133   20.3054 C   0  0  0  0  0  0  0  0  0  0  0  0
   11.2547  -19.9717   20.7388 O   0  0  0  0  0  0  0  0  0  0  0  0
    9.3335  -18.5090   20.8597 C   0  0  0  0  0  0  0  0  0  0  0  0
    9.8924  -17.8862   22.0970 C   0  0  0  0  0  0  0  0  0  0  0  0
    9.1272  -16.7216   22.6332 C   0  0  2  0  0  0  0  0  0  0  0  0
    9.1375  -15.6477   21.6682 N   0  0  0  0  0  0  0  0  0  0  0  0
    9.5565  -16.2205   23.9310 C   0  0  0  0  0  0  0  0  0  0  0  0
   10.5677  -15.4674   24.0993 O   0  0  0  0  0  0  0  0  0  0  0  0
    8.8351  -16.5670   25.1023 N   0  0  0  0  0  0  0  0  0  0  0  0
    9.3094  -16.1147   26.4199 C   0  0  1  0  0  0  0  0  0  0  0  0
    8.1133  -15.5954   27.1949 C   0  0  0  0  0  0  0  0  0  0  0  0
    7.6680  -14.2549   26.7508 C   0  0  0  0  0  0  0  0  0  0  0  0
    6.4325  -13.9774   26.2146 C   0  0  0  0  0  0  0  0  0  0  0  0
    6.0537  -12.7036   25.8233 C   0  0  0  0  0  0  0  0  0  0  0  0
    6.9214  -11.6415   25.9594 C   0  0  0  0  0  0  0  0  0  0  0  0
    8.1568  -11.8961   26.4907 C   0  0  0  0  0  0  0  0  0  0  0  0
    8.5326  -13.1599   26.8791 C   0  0  0  0  0  0  0  0  0  0  0  0
    9.8499  -17.2851   27.1216 C   0  0  0  0  0  0  0  0  0  0  0  0
    9.7394  -18.5415   26.5643 O   0  0  0  0  0  0  0  0  0  0  0  0
   10.4108  -17.1536   28.2228 O   0  0  0  0  0  0  0  0  0  0  0  0
  2  1  1  0
  3  2  1  0
  4  3  1  0
  4  5  1  0
  5  1  1  0
  5  6  1  1
  6  7  2  0
  8  9  1  0
  9 11  1  0
 10  9  2  0
 11 12  1  0
 13 12  1  6
 14  6  1  0
 14 13  1  0
 15 17  1  0
 15 13  1  0
 16 15  2  0
 18 26  1  0
 18 19  1  1
 18 17  1  0
 20 19  1  0
 20 21  2  0
 22 21  1  0
 23 22  2  0
 24 25  2  0
 24 23  1  0
 25 20  1  0
 26 27  1  0
 28 26  2  0
M  END
$$$$
