PQF.pdb
     RDKit          3D

 28 29  0  0  1  0  0  0  0  0999 V2000
    8.9956  -14.5302   19.0982 N   0  0  0  0  0  0  0  0  0  0  0  0
    8.6995  -13.8651   17.8637 C   0  0  0  0  0  0  0  0  0  0  0  0
    7.7213  -12.7565   18.1773 C   0  0  0  0  0  0  0  0  0  0  0  0
    7.1699  -13.2036   19.5192 C   0  0  0  0  0  0  0  0  0  0  0  0
    8.4595  -13.7268   20.1644 C   0  0  1  0  0  0  0  0  0  0  0  0
    8.1664  -14.5182   21.3826 C   0  0  0  0  0  0  0  0  0  0  0  0
    7.5283  -13.9977   22.3067 O   0  0  0  0  0  0  0  0  0  0  0  0
    9.4322  -20.7046   21.2371 N   0  0  0  0  0  0  0  0  0  0  0  0
   10.5072  -19.7991   21.4779 C   0  0  0  0  0  0  0  0  0  0  0  0
   11.6657  -20.2418   21.3119 O   0  0  0  0  0  0  0  0  0  0  0  0
   10.1835  -18.4248   21.9005 C   0  0  0  0  0  0  0  0  0  0  0  0
    8.7287  -18.1593   22.1106 C   0  0  0  0  0  0  0  0  0  0  0  0
    8.3825  -16.7693   22.5313 C   0  0  2  0  0  0  0  0  0  0  0  0
    8.6336  -15.8553   21.4423 N   0  0  0  0  0  0  0  0  0  0  0  0
    9.0380  -16.2873   23.7387 C   0  0  0  0  0  0  0  0  0  0  0  0
   10.1554  -15.6795   23.7424 O   0  0  0  0  0  0  0  0  0  0  0  0
    8.4316  -16.4853   25.0058 N   0  0  0  0  0  0  0  0  0  0  0  0
    9.1029  -16.0092   26.2257 C   0  0  1  0  0  0  0  0  0  0  0  0
    8.0483  -15.4098   27.1365 C   0  0  0  0  0  0  0  0  0  0  0  0
    7.5419  -14.1021   26.6610 C   0  0  0  0  0  0  0  0  0  0  0  0
    6.2918  -13.8929   26.1278 C   0  0  0  0  0  0  0  0  0  0  0  0
    5.8552  -12.6475   25.7063 C   0  0  0  0  0  0  0  0  0  0  0  0
    6.6768  -11.5455   25.8073 C   0  0  0  0  0  0  0  0  0  0  0  0
    7.9258  -11.7321   26.3350 C   0  0  0  0  0  0  0  0  0  0  0  0
    8.3589  -12.9677   26.7534 C   0  0  0  0  0  0  0  0  0  0  0  0
    9.6890  -17.1775   26.8933 C   0  0  0  0  0  0  0  0  0  0  0  0
   10.5111  -17.0123   27.9880 O   0  0  0  0  0  0  0  0  0  0  0  0
    9.4495  -18.3241   26.4781 O   0  0  0  0  0  0  0  0  0  0  0  0
  2  1  1  0
  3  2  1  0
  4  3  1  0
  4  5  1  0
  5  1  1  0
  5  6  1  1
  6  7  2  0
  8  9  1  0
  9 11  1  0
 10  9  2  0
 11 12  1  0
 13 12  1  6
 14  6  1  0
 14 13  1  0
 15 17  1  0
 15 13  1  0
 16 15  2  0
 18 26  1  0
 18 19  1  1
 18 17  1  0
 20 19  1  0
 20 21  2  0
 22 21  1  0
 23 22  2  0
 24 25  2  0
 24 23  1  0
 25 20  1  0
 26 27  1  0
 28 26  2  0
M  END
$$$$
