PQF.pdb
     RDKit          3D

 28 29  0  0  1  0  0  0  0  0999 V2000
    9.0215  -14.7824   20.9472 N   0  0  0  0  0  0  0  0  0  0  0  0
    9.3812  -14.5017   19.5886 C   0  0  0  0  0  0  0  0  0  0  0  0
    8.1967  -13.8183   18.9451 C   0  0  0  0  0  0  0  0  0  0  0  0
    7.0694  -14.2085   19.8841 C   0  0  0  0  0  0  0  0  0  0  0  0
    7.7986  -14.0785   21.2274 C   0  0  1  0  0  0  0  0  0  0  0  0
    7.0194  -14.7029   22.3227 C   0  0  0  0  0  0  0  0  0  0  0  0
    5.8371  -14.3772   22.4898 O   0  0  0  0  0  0  0  0  0  0  0  0
    9.9455  -19.4553   23.8839 N   0  0  0  0  0  0  0  0  0  0  0  0
    8.8222  -19.6387   23.0247 C   0  0  0  0  0  0  0  0  0  0  0  0
    8.9189  -20.5304   22.1521 O   0  0  0  0  0  0  0  0  0  0  0  0
    7.6428  -18.7770   23.2209 C   0  0  0  0  0  0  0  0  0  0  0  0
    7.7833  -17.7585   24.3044 C   0  0  0  0  0  0  0  0  0  0  0  0
    7.0014  -16.5013   24.1111 C   0  0  2  0  0  0  0  0  0  0  0  0
    7.6663  -15.6594   23.1450 N   0  0  0  0  0  0  0  0  0  0  0  0
    6.7171  -15.7363   25.3168 C   0  0  0  0  0  0  0  0  0  0  0  0
    6.0639  -16.1943   26.3076 O   0  0  0  0  0  0  0  0  0  0  0  0
    7.1755  -14.3992   25.4364 N   0  0  0  0  0  0  0  0  0  0  0  0
    6.7312  -13.5667   26.5657 C   0  0  1  0  0  0  0  0  0  0  0  0
    7.9519  -12.8830   27.1517 C   0  0  0  0  0  0  0  0  0  0  0  0
    8.9428  -13.8335   27.7060 C   0  0  0  0  0  0  0  0  0  0  0  0
    9.9362  -14.4437   26.9768 C   0  0  0  0  0  0  0  0  0  0  0  0
   10.8506  -15.3185   27.5405 C   0  0  0  0  0  0  0  0  0  0  0  0
   10.7978  -15.6175   28.8848 C   0  0  0  0  0  0  0  0  0  0  0  0
    9.8161  -15.0209   29.6290 C   0  0  0  0  0  0  0  0  0  0  0  0
    8.9089  -14.1528   29.0697 C   0  0  0  0  0  0  0  0  0  0  0  0
    5.8304  -12.5389   26.0306 C   0  0  0  0  0  0  0  0  0  0  0  0
    5.1619  -11.6879   26.8851 O   0  0  0  0  0  0  0  0  0  0  0  0
    5.6629  -12.4271   24.8042 O   0  0  0  0  0  0  0  0  0  0  0  0
  2  1  1  0
  3  2  1  0
  4  3  1  0
  4  5  1  0
  5  1  1  0
  5  6  1  1
  6  7  2  0
  8  9  1  0
  9 11  1  0
 10  9  2  0
 11 12  1  0
 13 12  1  1
 14  6  1  0
 14 13  1  0
 15 17  1  0
 15 13  1  0
 16 15  2  0
 18 26  1  0
 18 19  1  6
 18 17  1  0
 20 19  1  0
 20 21  2  0
 22 21  1  0
 23 22  2  0
 24 25  2  0
 24 23  1  0
 25 20  1  0
 26 27  1  0
 28 26  2  0
M  END
$$$$
