PQF.pdb
     RDKit          3D

 28 29  0  0  1  0  0  0  0  0999 V2000
    8.7446  -15.0917   19.7029 N   0  0  0  0  0  0  0  0  0  0  0  0
    8.9269  -14.4781   18.4206 C   0  0  0  0  0  0  0  0  0  0  0  0
    8.2903  -13.1089   18.4862 C   0  0  0  0  0  0  0  0  0  0  0  0
    7.3643  -13.2574   19.6800 C   0  0  0  0  0  0  0  0  0  0  0  0
    8.2708  -14.0777   20.6066 C   0  0  1  0  0  0  0  0  0  0  0  0
    7.5055  -14.6403   21.7443 C   0  0  0  0  0  0  0  0  0  0  0  0
    6.9434  -13.8739   22.5370 O   0  0  0  0  0  0  0  0  0  0  0  0
    6.2586  -20.9716   24.5071 N   0  0  0  0  0  0  0  0  0  0  0  0
    5.8428  -20.4249   23.2573 C   0  0  0  0  0  0  0  0  0  0  0  0
    5.8010  -21.2101   22.2840 O   0  0  0  0  0  0  0  0  0  0  0  0
    5.4971  -18.9934   23.1998 C   0  0  0  0  0  0  0  0  0  0  0  0
    6.4079  -18.1614   22.3577 C   0  0  0  0  0  0  0  0  0  0  0  0
    6.6013  -16.7538   22.8162 C   0  0  2  0  0  0  0  0  0  0  0  0
    7.4469  -16.0501   21.8813 N   0  0  0  0  0  0  0  0  0  0  0  0
    7.1188  -16.5893   24.1671 C   0  0  0  0  0  0  0  0  0  0  0  0
    6.4509  -16.8518   25.2174 O   0  0  0  0  0  0  0  0  0  0  0  0
    8.4389  -16.1114   24.3708 N   0  0  0  0  0  0  0  0  0  0  0  0
    8.9123  -15.8137   25.7320 C   0  0  1  0  0  0  0  0  0  0  0  0
    7.7141  -15.3963   26.5633 C   0  0  0  0  0  0  0  0  0  0  0  0
    7.3964  -13.9548   26.4458 C   0  0  0  0  0  0  0  0  0  0  0  0
    8.3207  -12.9661   26.2026 C   0  0  0  0  0  0  0  0  0  0  0  0
    7.9760  -11.6292   26.0882 C   0  0  0  0  0  0  0  0  0  0  0  0
    6.6631  -11.2302   26.2173 C   0  0  0  0  0  0  0  0  0  0  0  0
    5.7271  -12.1988   26.4601 C   0  0  0  0  0  0  0  0  0  0  0  0
    6.0690  -13.5253   26.5734 C   0  0  0  0  0  0  0  0  0  0  0  0
    9.4608  -17.0548   26.2913 C   0  0  0  0  0  0  0  0  0  0  0  0
   10.0485  -17.0545   27.5388 O   0  0  0  0  0  0  0  0  0  0  0  0
    9.4004  -18.1153   25.6461 O   0  0  0  0  0  0  0  0  0  0  0  0
  2  1  1  0
  3  2  1  0
  4  3  1  0
  4  5  1  0
  5  1  1  0
  5  6  1  1
  6  7  2  0
  8  9  1  0
  9 11  1  0
 10  9  2  0
 11 12  1  0
 13 12  1  6
 14  6  1  0
 14 13  1  0
 15 17  1  0
 15 13  1  0
 16 15  2  0
 18 26  1  0
 18 19  1  1
 18 17  1  0
 20 19  1  0
 20 21  2  0
 22 21  1  0
 23 22  2  0
 24 25  2  0
 24 23  1  0
 25 20  1  0
 26 27  1  0
 28 26  2  0
M  END
$$$$
