PQF.pdb
     RDKit          3D

 28 29  0  0  1  0  0  0  0  0999 V2000
    8.5489  -15.2415   19.3395 N   0  0  0  0  0  0  0  0  0  0  0  0
    8.4825  -14.6724   18.0259 C   0  0  0  0  0  0  0  0  0  0  0  0
    8.0292  -13.2392   18.1825 C   0  0  0  0  0  0  0  0  0  0  0  0
    7.4059  -13.2636   19.5666 C   0  0  0  0  0  0  0  0  0  0  0  0
    8.4158  -14.1666   20.2862 C   0  0  1  0  0  0  0  0  0  0  0  0
    7.8902  -14.6215   21.5952 C   0  0  0  0  0  0  0  0  0  0  0  0
    7.6743  -13.7896   22.4858 O   0  0  0  0  0  0  0  0  0  0  0  0
    6.5061  -20.7964   22.4846 N   0  0  0  0  0  0  0  0  0  0  0  0
    6.0938  -20.2250   23.7244 C   0  0  0  0  0  0  0  0  0  0  0  0
    5.5220  -20.9878   24.5349 O   0  0  0  0  0  0  0  0  0  0  0  0
    6.3654  -18.7959   23.9612 C   0  0  0  0  0  0  0  0  0  0  0  0
    6.9035  -18.0557   22.7807 C   0  0  0  0  0  0  0  0  0  0  0  0
    7.2118  -16.6132   23.0116 C   0  0  2  0  0  0  0  0  0  0  0  0
    7.6530  -16.0071   21.7777 N   0  0  0  0  0  0  0  0  0  0  0  0
    8.1706  -16.3282   24.0695 C   0  0  0  0  0  0  0  0  0  0  0  0
    9.4228  -16.2132   23.8773 O   0  0  0  0  0  0  0  0  0  0  0  0
    7.7271  -16.1617   25.4067 N   0  0  0  0  0  0  0  0  0  0  0  0
    8.6983  -15.8727   26.4739 C   0  0  1  0  0  0  0  0  0  0  0  0
    7.9966  -15.0441   27.5332 C   0  0  0  0  0  0  0  0  0  0  0  0
    7.4967  -13.7471   27.0228 C   0  0  0  0  0  0  0  0  0  0  0  0
    6.1914  -13.4934   26.6728 C   0  0  0  0  0  0  0  0  0  0  0  0
    5.7654  -12.2589   26.2104 C   0  0  0  0  0  0  0  0  0  0  0  0
    6.6547  -11.2141   26.0803 C   0  0  0  0  0  0  0  0  0  0  0  0
    7.9594  -11.4456   26.4230 C   0  0  0  0  0  0  0  0  0  0  0  0
    8.3821  -12.6704   26.8819 C   0  0  0  0  0  0  0  0  0  0  0  0
    9.0964  -17.1538   27.0691 C   0  0  0  0  0  0  0  0  0  0  0  0
   10.1115  -17.2012   28.0012 O   0  0  0  0  0  0  0  0  0  0  0  0
    8.5227  -18.2055   26.7384 O   0  0  0  0  0  0  0  0  0  0  0  0
  2  1  1  0
  3  2  1  0
  4  3  1  0
  4  5  1  0
  5  1  1  0
  5  6  1  1
  6  7  2  0
  8  9  1  0
  9 11  1  0
 10  9  2  0
 11 12  1  0
 13 12  1  6
 14  6  1  0
 14 13  1  0
 15 17  1  0
 15 13  1  0
 16 15  2  0
 18 26  1  0
 18 19  1  1
 18 17  1  0
 20 19  1  0
 20 21  2  0
 22 21  1  0
 23 22  2  0
 24 25  2  0
 24 23  1  0
 25 20  1  0
 26 27  1  0
 28 26  2  0
M  END
$$$$
