PQF.pdb
     RDKit          3D

 28 29  0  0  1  0  0  0  0  0999 V2000
    8.3210  -14.6957   19.1485 N   0  0  0  0  0  0  0  0  0  0  0  0
    8.1906  -13.9191   17.9510 C   0  0  0  0  0  0  0  0  0  0  0  0
    7.7233  -12.5415   18.3610 C   0  0  0  0  0  0  0  0  0  0  0  0
    7.1596  -12.8075   19.7453 C   0  0  0  0  0  0  0  0  0  0  0  0
    8.2123  -13.7949   20.2648 C   0  0  1  0  0  0  0  0  0  0  0  0
    7.7495  -14.4709   21.4999 C   0  0  0  0  0  0  0  0  0  0  0  0
    7.4745  -13.7921   22.4977 O   0  0  0  0  0  0  0  0  0  0  0  0
    4.4810  -20.0411   22.2827 N   0  0  0  0  0  0  0  0  0  0  0  0
    5.0451  -19.5481   21.0693 C   0  0  0  0  0  0  0  0  0  0  0  0
    4.9648  -20.2922   20.0665 O   0  0  0  0  0  0  0  0  0  0  0  0
    5.6752  -18.2158   21.0809 C   0  0  0  0  0  0  0  0  0  0  0  0
    6.7997  -18.0622   22.0520 C   0  0  0  0  0  0  0  0  0  0  0  0
    7.0418  -16.6726   22.5415 C   0  0  2  0  0  0  0  0  0  0  0  0
    7.6388  -15.8841   21.4897 N   0  0  0  0  0  0  0  0  0  0  0  0
    7.8363  -16.5543   23.7558 C   0  0  0  0  0  0  0  0  0  0  0  0
    9.1082  -16.5639   23.7727 O   0  0  0  0  0  0  0  0  0  0  0  0
    7.1969  -16.4189   25.0149 N   0  0  0  0  0  0  0  0  0  0  0  0
    8.0009  -16.3534   26.2457 C   0  0  1  0  0  0  0  0  0  0  0  0
    7.3239  -15.3838   27.1958 C   0  0  0  0  0  0  0  0  0  0  0  0
    7.4275  -13.9723   26.7604 C   0  0  0  0  0  0  0  0  0  0  0  0
    8.5948  -13.2461   26.7279 C   0  0  0  0  0  0  0  0  0  0  0  0
    8.6469  -11.9292   26.3010 C   0  0  0  0  0  0  0  0  0  0  0  0
    7.5041  -11.2820   25.8832 C   0  0  0  0  0  0  0  0  0  0  0  0
    6.3312  -11.9869   25.9080 C   0  0  0  0  0  0  0  0  0  0  0  0
    6.2794  -13.2936   26.3315 C   0  0  0  0  0  0  0  0  0  0  0  0
    7.9899  -17.6893   26.8534 C   0  0  0  0  0  0  0  0  0  0  0  0
    8.8417  -17.9849   27.8968 O   0  0  0  0  0  0  0  0  0  0  0  0
    7.2138  -18.5643   26.4333 O   0  0  0  0  0  0  0  0  0  0  0  0
  2  1  1  0
  3  2  1  0
  4  3  1  0
  4  5  1  0
  5  1  1  0
  5  6  1  1
  6  7  2  0
  8  9  1  0
  9 11  1  0
 10  9  2  0
 11 12  1  0
 13 12  1  6
 14  6  1  0
 14 13  1  0
 15 17  1  0
 15 13  1  0
 16 15  2  0
 18 26  1  0
 18 19  1  1
 18 17  1  0
 20 19  1  0
 20 21  2  0
 22 21  1  0
 23 22  2  0
 24 25  2  0
 24 23  1  0
 25 20  1  0
 26 27  1  0
 28 26  2  0
M  END
$$$$
