PQF.pdb
     RDKit          3D

 28 29  0  0  1  0  0  0  0  0999 V2000
    8.2264  -14.6318   17.9233 N   0  0  0  0  0  0  0  0  0  0  0  0
    8.3687  -13.3321   17.3364 C   0  0  0  0  0  0  0  0  0  0  0  0
    8.4941  -12.3412   18.4707 C   0  0  0  0  0  0  0  0  0  0  0  0
    7.9208  -13.1311   19.6336 C   0  0  0  0  0  0  0  0  0  0  0  0
    8.5195  -14.5097   19.3264 C   0  0  1  0  0  0  0  0  0  0  0  0
    7.8728  -15.5677   20.1381 C   0  0  0  0  0  0  0  0  0  0  0  0
    6.6734  -15.8193   19.9645 O   0  0  0  0  0  0  0  0  0  0  0  0
    9.0905  -20.5890   19.8181 N   0  0  0  0  0  0  0  0  0  0  0  0
   10.1828  -19.9423   20.4678 C   0  0  0  0  0  0  0  0  0  0  0  0
   11.3330  -20.2865   20.1152 O   0  0  0  0  0  0  0  0  0  0  0  0
    9.8853  -18.9285   21.4954 C   0  0  0  0  0  0  0  0  0  0  0  0
    8.4386  -18.5850   21.6373 C   0  0  0  0  0  0  0  0  0  0  0  0
    8.1490  -17.1861   22.0715 C   0  0  2  0  0  0  0  0  0  0  0  0
    8.6623  -16.2575   21.0923 N   0  0  0  0  0  0  0  0  0  0  0  0
    8.6280  -16.8182   23.3962 C   0  0  0  0  0  0  0  0  0  0  0  0
    8.3221  -17.4470   24.4588 O   0  0  0  0  0  0  0  0  0  0  0  0
    9.4871  -15.7011   23.5581 N   0  0  0  0  0  0  0  0  0  0  0  0
    9.2136  -14.7081   24.6091 C   0  0  1  0  0  0  0  0  0  0  0  0
    7.8963  -14.0309   24.2816 C   0  0  0  0  0  0  0  0  0  0  0  0
    7.4333  -13.1108   25.3455 C   0  0  0  0  0  0  0  0  0  0  0  0
    8.0755  -11.9519   25.7133 C   0  0  0  0  0  0  0  0  0  0  0  0
    7.5986  -11.1136   26.7079 C   0  0  0  0  0  0  0  0  0  0  0  0
    6.4356  -11.4169   27.3823 C   0  0  0  0  0  0  0  0  0  0  0  0
    5.7808  -12.5665   27.0318 C   0  0  0  0  0  0  0  0  0  0  0  0
    6.2538  -13.3982   26.0448 C   0  0  0  0  0  0  0  0  0  0  0  0
    9.0647  -15.4340   25.8761 C   0  0  0  0  0  0  0  0  0  0  0  0
    8.2662  -16.5561   25.9441 O   0  0  0  0  0  0  0  0  0  0  0  0
    9.6562  -15.0437   26.8970 O   0  0  0  0  0  0  0  0  0  0  0  0
  2  1  1  0
  3  2  1  0
  4  3  1  0
  4  5  1  0
  5  1  1  0
  5  6  1  1
  6  7  2  0
  8  9  1  0
  9 11  1  0
 10  9  2  0
 11 12  1  0
 13 12  1  6
 14  6  1  0
 14 13  1  0
 15 17  1  0
 15 13  1  0
 16 15  2  0
 18 26  1  0
 18 19  1  6
 18 17  1  0
 20 19  1  0
 20 21  2  0
 22 21  1  0
 23 22  2  0
 24 25  2  0
 24 23  1  0
 25 20  1  0
 26 27  1  0
 28 26  2  0
M  END
$$$$
