PQF.pdb
     RDKit          3D

 28 29  0  0  1  0  0  0  0  0999 V2000
    9.1270  -14.2580   19.2936 N   0  0  0  0  0  0  0  0  0  0  0  0
    8.8303  -13.6331   18.0384 C   0  0  0  0  0  0  0  0  0  0  0  0
    7.5859  -12.7990   18.2380 C   0  0  0  0  0  0  0  0  0  0  0  0
    7.0010  -13.4158   19.4959 C   0  0  0  0  0  0  0  0  0  0  0  0
    8.2918  -13.6459   20.2922 C   0  0  1  0  0  0  0  0  0  0  0  0
    8.0526  -14.5314   21.4563 C   0  0  0  0  0  0  0  0  0  0  0  0
    7.2630  -14.1739   22.3398 O   0  0  0  0  0  0  0  0  0  0  0  0
   10.1754  -20.5067   21.2657 N   0  0  0  0  0  0  0  0  0  0  0  0
   11.1035  -19.4347   21.4169 C   0  0  0  0  0  0  0  0  0  0  0  0
   12.3005  -19.6827   21.1497 O   0  0  0  0  0  0  0  0  0  0  0  0
   10.5956  -18.1280   21.8718 C   0  0  0  0  0  0  0  0  0  0  0  0
    9.1183  -18.0687   22.0843 C   0  0  0  0  0  0  0  0  0  0  0  0
    8.5881  -16.7544   22.5540 C   0  0  2  0  0  0  0  0  0  0  0  0
    8.7455  -15.7669   21.5126 N   0  0  0  0  0  0  0  0  0  0  0  0
    9.1489  -16.2495   23.7991 C   0  0  0  0  0  0  0  0  0  0  0  0
   10.1784  -15.5049   23.8605 O   0  0  0  0  0  0  0  0  0  0  0  0
    8.5449  -16.5822   25.0388 N   0  0  0  0  0  0  0  0  0  0  0  0
    9.1814  -16.1734   26.3011 C   0  0  1  0  0  0  0  0  0  0  0  0
    8.1175  -15.5412   27.1783 C   0  0  0  0  0  0  0  0  0  0  0  0
    7.8436  -14.1270   26.8355 C   0  0  0  0  0  0  0  0  0  0  0  0
    8.7709  -13.1132   26.8926 C   0  0  0  0  0  0  0  0  0  0  0  0
    8.4729  -11.8043   26.5503 C   0  0  0  0  0  0  0  0  0  0  0  0
    7.2061  -11.4607   26.1302 C   0  0  0  0  0  0  0  0  0  0  0  0
    6.2677  -12.4550   26.0666 C   0  0  0  0  0  0  0  0  0  0  0  0
    6.5633  -13.7538   26.4060 C   0  0  0  0  0  0  0  0  0  0  0  0
    9.6731  -17.3878   26.9627 C   0  0  0  0  0  0  0  0  0  0  0  0
    9.4508  -18.6256   26.3971 O   0  0  0  0  0  0  0  0  0  0  0  0
   10.2930  -17.3107   28.0370 O   0  0  0  0  0  0  0  0  0  0  0  0
  2  1  1  0
  3  2  1  0
  4  3  1  0
  4  5  1  0
  5  1  1  0
  5  6  1  1
  6  7  2  0
  8  9  1  0
  9 11  1  0
 10  9  2  0
 11 12  1  0
 13 12  1  6
 14  6  1  0
 14 13  1  0
 15 17  1  0
 15 13  1  0
 16 15  2  0
 18 26  1  0
 18 19  1  1
 18 17  1  0
 20 19  1  0
 20 21  2  0
 22 21  1  0
 23 22  2  0
 24 25  2  0
 24 23  1  0
 25 20  1  0
 26 27  1  0
 28 26  2  0
M  END
$$$$
