PQF.pdb
     RDKit          3D

 28 29  0  0  1  0  0  0  0  0999 V2000
    9.2015  -14.1280   18.7913 N   0  0  0  0  0  0  0  0  0  0  0  0
    8.8072  -13.3147   17.6791 C   0  0  0  0  0  0  0  0  0  0  0  0
    7.4938  -12.6629   18.0461 C   0  0  0  0  0  0  0  0  0  0  0  0
    7.0105  -13.5586   19.1725 C   0  0  0  0  0  0  0  0  0  0  0  0
    8.3412  -13.8000   19.8965 C   0  0  1  0  0  0  0  0  0  0  0  0
    8.2251  -14.9057   20.8765 C   0  0  0  0  0  0  0  0  0  0  0  0
    7.3522  -14.8526   21.7523 O   0  0  0  0  0  0  0  0  0  0  0  0
   11.8266  -20.1060   20.1382 N   0  0  0  0  0  0  0  0  0  0  0  0
   10.8038  -19.6561   19.2521 C   0  0  0  0  0  0  0  0  0  0  0  0
   10.7598  -20.1926   18.1225 O   0  0  0  0  0  0  0  0  0  0  0  0
    9.8836  -18.6050   19.7215 C   0  0  0  0  0  0  0  0  0  0  0  0
   10.1105  -18.1547   21.1275 C   0  0  0  0  0  0  0  0  0  0  0  0
    9.1411  -17.1431   21.6435 C   0  0  2  0  0  0  0  0  0  0  0  0
    9.1286  -15.9930   20.7709 N   0  0  0  0  0  0  0  0  0  0  0  0
    9.3412  -16.7135   23.0202 C   0  0  0  0  0  0  0  0  0  0  0  0
   10.3442  -16.0357   23.4110 O   0  0  0  0  0  0  0  0  0  0  0  0
    8.3881  -17.0479   24.0162 N   0  0  0  0  0  0  0  0  0  0  0  0
    8.2164  -16.1797   25.1920 C   0  0  1  0  0  0  0  0  0  0  0  0
    7.7956  -14.8069   24.7026 C   0  0  0  0  0  0  0  0  0  0  0  0
    7.4006  -13.8929   25.7985 C   0  0  0  0  0  0  0  0  0  0  0  0
    6.1075  -13.5178   26.0783 C   0  0  0  0  0  0  0  0  0  0  0  0
    5.7826  -12.6682   27.1232 C   0  0  0  0  0  0  0  0  0  0  0  0
    6.7661  -12.1545   27.9406 C   0  0  0  0  0  0  0  0  0  0  0  0
    8.0603  -12.5150   27.6791 C   0  0  0  0  0  0  0  0  0  0  0  0
    8.3827  -13.3582   26.6425 C   0  0  0  0  0  0  0  0  0  0  0  0
    7.1292  -16.7415   26.0023 C   0  0  0  0  0  0  0  0  0  0  0  0
    7.2045  -16.7165   27.3789 O   0  0  0  0  0  0  0  0  0  0  0  0
    6.1329  -17.2439   25.4551 O   0  0  0  0  0  0  0  0  0  0  0  0
  2  1  1  0
  3  2  1  0
  4  3  1  0
  4  5  1  0
  5  1  1  0
  5  6  1  1
  6  7  2  0
  8  9  1  0
  9 11  1  0
 10  9  2  0
 11 12  1  0
 13 12  1  6
 14  6  1  0
 14 13  1  0
 15 17  1  0
 15 13  1  0
 16 15  2  0
 18 26  1  0
 18 19  1  6
 18 17  1  0
 20 19  1  0
 20 21  2  0
 22 21  1  0
 23 22  2  0
 24 25  2  0
 24 23  1  0
 25 20  1  0
 26 27  1  0
 28 26  2  0
M  END
$$$$
