DWI.pdb
     RDKit          3D

 31 32  0  0  1  0  0  0  0  0999 V2000
   10.5721  -18.2730   20.2670 N   0  0  0  0  0  0  0  0  0  0  0  0
   11.7618  -17.6519   20.8140 C   0  0  1  0  0  0  0  0  0  0  0  0
   12.3316  -16.6675   19.8129 C   0  0  0  0  0  0  0  0  0  0  0  0
   13.3010  -17.3662   18.9422 C   0  0  0  0  0  0  0  0  0  0  0  0
   13.5257  -18.5845   19.1253 O   0  0  0  0  0  0  0  0  0  0  0  0
   11.3276  -16.8200   21.9878 C   0  0  0  0  0  0  0  0  0  0  0  0
   12.0683  -15.9598   22.4891 O   0  0  0  0  0  0  0  0  0  0  0  0
   13.9831  -16.7289   17.9178 O   0  0  0  0  0  0  0  0  0  0  0  0
   10.0424  -17.0151   22.5438 N   0  0  0  0  0  0  0  0  0  0  0  0
    9.4907  -16.3656   23.6856 C   0  0  1  0  0  0  0  0  0  0  0  0
    7.9489  -16.3949   23.7256 C   0  0  0  0  0  0  0  0  0  0  0  0
    7.3449  -15.0701   23.5272 C   0  0  0  0  0  0  0  0  0  0  0  0
    7.0071  -14.4340   22.3713 C   0  0  0  0  0  0  0  0  0  0  0  0
    6.4638  -13.2160   22.6400 N   0  0  0  0  0  0  0  0  0  0  0  0
    6.4359  -13.0356   23.9535 C   0  0  0  0  0  0  0  0  0  0  0  0
    6.0030  -12.0153   24.7873 C   0  0  0  0  0  0  0  0  0  0  0  0
    6.1139  -12.1434   26.1484 C   0  0  0  0  0  0  0  0  0  0  0  0
    6.6511  -13.2714   26.7404 C   0  0  0  0  0  0  0  0  0  0  0  0
    7.0787  -14.2797   25.8998 C   0  0  0  0  0  0  0  0  0  0  0  0
    6.9709  -14.1583   24.5336 C   0  0  0  0  0  0  0  0  0  0  0  0
   10.0132  -16.7682   24.9827 C   0  0  0  0  0  0  0  0  0  0  0  0
   10.5559  -17.9203   25.1103 O   0  0  0  0  0  0  0  0  0  0  0  0
   10.7141  -13.0331   29.2410 C   0  0  0  0  0  0  0  0  0  0  0  0
   10.9137  -13.9868   28.1047 C   0  0  0  0  0  0  0  0  0  0  0  0
   10.6113  -15.3838   28.4582 C   0  0  2  0  0  0  0  0  0  0  0  0
   11.4177  -15.8267   29.6887 C   0  0  0  0  0  0  0  0  0  0  0  0
   10.6115  -16.4247   27.4200 C   0  0  2  0  0  0  0  0  0  0  0  0
    9.9799  -15.9797   26.1648 N   0  0  0  0  0  0  0  0  0  0  0  0
    9.9368  -17.6655   27.8219 C   0  0  0  0  0  0  0  0  0  0  0  0
   10.6479  -18.7829   28.3130 O   0  0  0  0  0  0  0  0  0  0  0  0
    8.6917  -17.8272   27.7639 O   0  0  0  0  0  0  0  0  0  0  0  0
  2  1  1  6
  2  6  1  0
  3  4  1  0
  3  2  1  0
  4  5  2  0
  6  7  2  0
  8  4  1  0
  9  6  1  0
  9 10  1  0
 10 11  1  1
 11 12  1  0
 12 13  2  0
 13 14  1  0
 15 14  1  0
 16 15  2  0
 17 16  1  0
 18 19  1  0
 18 17  2  0
 19 20  2  0
 20 12  1  0
 20 15  1  0
 21 10  1  0
 21 22  2  0
 23 24  1  0
 24 25  1  0
 25 27  1  0
 25 26  1  1
 27 29  1  0
 27 28  1  6
 28 21  1  0
 29 30  1  0
 31 29  2  0
M  END
$$$$
