DWI.pdb
     RDKit          3D

 31 32  0  0  1  0  0  0  0  0999 V2000
   10.6911  -18.5282   20.1725 N   0  0  0  0  0  0  0  0  0  0  0  0
   11.7937  -17.6859   20.5909 C   0  0  1  0  0  0  0  0  0  0  0  0
   12.2051  -16.7772   19.4503 C   0  0  0  0  0  0  0  0  0  0  0  0
   12.8254  -17.5892   18.3818 C   0  0  0  0  0  0  0  0  0  0  0  0
   13.2642  -18.7305   18.6524 O   0  0  0  0  0  0  0  0  0  0  0  0
   11.2702  -16.7698   21.6611 C   0  0  0  0  0  0  0  0  0  0  0  0
   11.9067  -15.7732   22.0372 O   0  0  0  0  0  0  0  0  0  0  0  0
   12.9465  -17.1422   17.0755 O   0  0  0  0  0  0  0  0  0  0  0  0
   10.0198  -17.0421   22.2621 N   0  0  0  0  0  0  0  0  0  0  0  0
    9.4099  -16.3354   23.3385 C   0  0  1  0  0  0  0  0  0  0  0  0
    7.8685  -16.3313   23.2774 C   0  0  0  0  0  0  0  0  0  0  0  0
    7.2984  -14.9769   23.2756 C   0  0  0  0  0  0  0  0  0  0  0  0
    6.9678  -14.1753   22.2255 C   0  0  0  0  0  0  0  0  0  0  0  0
    6.4595  -12.9943   22.6702 N   0  0  0  0  0  0  0  0  0  0  0  0
    6.4476  -13.0011   23.9963 C   0  0  0  0  0  0  0  0  0  0  0  0
    6.0491  -12.0986   24.9711 C   0  0  0  0  0  0  0  0  0  0  0  0
    6.1683  -12.4208   26.2990 C   0  0  0  0  0  0  0  0  0  0  0  0
    6.6802  -13.6345   26.7190 C   0  0  0  0  0  0  0  0  0  0  0  0
    7.0736  -14.5240   25.7392 C   0  0  0  0  0  0  0  0  0  0  0  0
    6.9574  -14.2077   24.4053 C   0  0  0  0  0  0  0  0  0  0  0  0
    9.8370  -16.6954   24.6822 C   0  0  0  0  0  0  0  0  0  0  0  0
   10.4086  -17.8238   24.8776 O   0  0  0  0  0  0  0  0  0  0  0  0
   11.1472  -13.8234   30.0311 C   0  0  0  0  0  0  0  0  0  0  0  0
   10.9425  -15.1554   29.3798 C   0  0  0  0  0  0  0  0  0  0  0  0
   10.2639  -15.0670   28.0761 C   0  0  2  0  0  0  0  0  0  0  0  0
    8.7750  -14.7312   28.2527 C   0  0  0  0  0  0  0  0  0  0  0  0
   10.4547  -16.1230   27.0712 C   0  0  2  0  0  0  0  0  0  0  0  0
    9.6771  -15.8884   25.8412 N   0  0  0  0  0  0  0  0  0  0  0  0
   10.1060  -17.4675   27.5478 C   0  0  0  0  0  0  0  0  0  0  0  0
    8.8699  -18.0775   27.2389 O   0  0  0  0  0  0  0  0  0  0  0  0
   10.8698  -18.1716   28.2553 O   0  0  0  0  0  0  0  0  0  0  0  0
  2  1  1  6
  2  6  1  0
  3  4  1  0
  3  2  1  0
  4  5  2  0
  6  7  2  0
  8  4  1  0
  9  6  1  0
  9 10  1  0
 10 11  1  1
 11 12  1  0
 12 13  2  0
 13 14  1  0
 15 14  1  0
 16 15  2  0
 17 16  1  0
 18 19  1  0
 18 17  2  0
 19 20  2  0
 20 12  1  0
 20 15  1  0
 21 10  1  0
 21 22  2  0
 23 24  1  0
 24 25  1  0
 25 27  1  0
 25 26  1  1
 27 29  1  0
 27 28  1  6
 28 21  1  0
 29 30  1  0
 31 29  2  0
M  END
$$$$
