DWI.pdb
     RDKit          3D

 31 32  0  0  1  0  0  0  0  0999 V2000
    9.5143  -18.0580   20.2514 N   0  0  0  0  0  0  0  0  0  0  0  0
   10.7018  -17.2921   20.5729 C   0  0  1  0  0  0  0  0  0  0  0  0
   10.8913  -16.1888   19.5518 C   0  0  0  0  0  0  0  0  0  0  0  0
   11.4808  -16.7606   18.3224 C   0  0  0  0  0  0  0  0  0  0  0  0
   11.6154  -18.0018   18.2243 O   0  0  0  0  0  0  0  0  0  0  0  0
   10.4368  -16.5891   21.8744 C   0  0  0  0  0  0  0  0  0  0  0  0
   11.1299  -15.6320   22.2534 O   0  0  0  0  0  0  0  0  0  0  0  0
   11.8978  -15.9782   17.2572 O   0  0  0  0  0  0  0  0  0  0  0  0
    9.3715  -17.0221   22.6969 N   0  0  0  0  0  0  0  0  0  0  0  0
    9.0150  -16.5175   23.9808 C   0  0  1  0  0  0  0  0  0  0  0  0
    7.6591  -17.0440   24.4945 C   0  0  0  0  0  0  0  0  0  0  0  0
    6.6892  -15.9714   24.7554 C   0  0  0  0  0  0  0  0  0  0  0  0
    5.3295  -16.0251   24.8125 C   0  0  0  0  0  0  0  0  0  0  0  0
    4.8162  -14.7960   25.0895 N   0  0  0  0  0  0  0  0  0  0  0  0
    5.8127  -13.9303   25.2171 C   0  0  0  0  0  0  0  0  0  0  0  0
    5.8947  -12.5737   25.4933 C   0  0  0  0  0  0  0  0  0  0  0  0
    7.1178  -11.9568   25.5620 C   0  0  0  0  0  0  0  0  0  0  0  0
    8.3011  -12.6437   25.3633 C   0  0  0  0  0  0  0  0  0  0  0  0
    8.2061  -13.9934   25.0888 C   0  0  0  0  0  0  0  0  0  0  0  0
    6.9828  -14.6190   25.0180 C   0  0  0  0  0  0  0  0  0  0  0  0
   10.0112  -16.6466   25.0336 C   0  0  0  0  0  0  0  0  0  0  0  0
   11.0161  -17.4188   24.8550 O   0  0  0  0  0  0  0  0  0  0  0  0
   10.0601  -13.2990   29.6616 C   0  0  0  0  0  0  0  0  0  0  0  0
   10.4843  -13.9418   28.3783 C   0  0  0  0  0  0  0  0  0  0  0  0
   10.7922  -15.3747   28.5196 C   0  0  2  0  0  0  0  0  0  0  0  0
   11.9096  -15.5982   29.5502 C   0  0  0  0  0  0  0  0  0  0  0  0
   10.9967  -16.2073   27.3254 C   0  0  2  0  0  0  0  0  0  0  0  0
    9.9778  -15.9751   26.2859 N   0  0  0  0  0  0  0  0  0  0  0  0
   11.0060  -17.6497   27.6005 C   0  0  0  0  0  0  0  0  0  0  0  0
    9.8152  -18.3911   27.7667 O   0  0  0  0  0  0  0  0  0  0  0  0
   12.0588  -18.3283   27.7055 O   0  0  0  0  0  0  0  0  0  0  0  0
  2  1  1  6
  2  6  1  0
  3  4  1  0
  3  2  1  0
  4  5  2  0
  6  7  2  0
  8  4  1  0
  9  6  1  0
  9 10  1  0
 10 11  1  1
 11 12  1  0
 12 13  2  0
 13 14  1  0
 15 14  1  0
 16 15  2  0
 17 16  1  0
 18 19  1  0
 18 17  2  0
 19 20  2  0
 20 12  1  0
 20 15  1  0
 21 10  1  0
 21 22  2  0
 23 24  1  0
 24 25  1  0
 25 27  1  0
 25 26  1  1
 27 29  1  0
 27 28  1  6
 28 21  1  0
 29 30  1  0
 31 29  2  0
M  END
$$$$
