DWI.pdb
     RDKit          3D

 31 32  0  0  1  0  0  0  0  0999 V2000
   10.6086  -17.8040   19.8483 N   0  0  0  0  0  0  0  0  0  0  0  0
   11.7383  -17.1872   20.5144 C   0  0  1  0  0  0  0  0  0  0  0  0
   12.3509  -16.1338   19.6139 C   0  0  0  0  0  0  0  0  0  0  0  0
   13.0643  -16.7995   18.5031 C   0  0  0  0  0  0  0  0  0  0  0  0
   13.0148  -18.0465   18.3996 O   0  0  0  0  0  0  0  0  0  0  0  0
   11.1980  -16.4345   21.6976 C   0  0  0  0  0  0  0  0  0  0  0  0
   11.8947  -15.6276   22.3327 O   0  0  0  0  0  0  0  0  0  0  0  0
   13.7961  -16.1001   17.5566 O   0  0  0  0  0  0  0  0  0  0  0  0
    9.8609  -16.6442   22.1066 N   0  0  0  0  0  0  0  0  0  0  0  0
    9.2162  -16.0993   23.2543 C   0  0  1  0  0  0  0  0  0  0  0  0
    7.6861  -16.2956   23.2523 C   0  0  0  0  0  0  0  0  0  0  0  0
    7.0288  -15.6908   24.4191 C   0  0  0  0  0  0  0  0  0  0  0  0
    6.4364  -16.2894   25.4893 C   0  0  0  0  0  0  0  0  0  0  0  0
    5.9550  -15.3536   26.3515 N   0  0  0  0  0  0  0  0  0  0  0  0
    6.2192  -14.1463   25.8704 C   0  0  0  0  0  0  0  0  0  0  0  0
    5.9780  -12.8512   26.3040 C   0  0  0  0  0  0  0  0  0  0  0  0
    6.3967  -11.7832   25.5519 C   0  0  0  0  0  0  0  0  0  0  0  0
    7.0644  -11.9443   24.3521 C   0  0  0  0  0  0  0  0  0  0  0  0
    7.2981  -13.2384   23.9312 C   0  0  0  0  0  0  0  0  0  0  0  0
    6.8809  -14.3145   24.6800 C   0  0  0  0  0  0  0  0  0  0  0  0
    9.7494  -16.4899   24.5508 C   0  0  0  0  0  0  0  0  0  0  0  0
   10.3050  -17.6355   24.6813 O   0  0  0  0  0  0  0  0  0  0  0  0
   10.6538  -12.6930   28.7230 C   0  0  0  0  0  0  0  0  0  0  0  0
   10.8636  -13.6944   27.6305 C   0  0  0  0  0  0  0  0  0  0  0  0
   10.4122  -15.0493   27.9890 C   0  0  2  0  0  0  0  0  0  0  0  0
   11.0918  -15.5319   29.2798 C   0  0  0  0  0  0  0  0  0  0  0  0
   10.3858  -16.1117   26.9733 C   0  0  2  0  0  0  0  0  0  0  0  0
    9.7136  -15.6959   25.7291 N   0  0  0  0  0  0  0  0  0  0  0  0
    9.7301  -17.3468   27.4214 C   0  0  0  0  0  0  0  0  0  0  0  0
   10.4496  -18.4064   28.0173 O   0  0  0  0  0  0  0  0  0  0  0  0
    8.4950  -17.5539   27.3141 O   0  0  0  0  0  0  0  0  0  0  0  0
  2  1  1  6
  2  6  1  0
  3  4  1  0
  3  2  1  0
  4  5  2  0
  6  7  2  0
  8  4  1  0
  9  6  1  0
  9 10  1  0
 10 11  1  1
 11 12  1  0
 12 13  2  0
 13 14  1  0
 15 14  1  0
 16 15  2  0
 17 16  1  0
 18 19  1  0
 18 17  2  0
 19 20  2  0
 20 12  1  0
 20 15  1  0
 21 10  1  0
 21 22  2  0
 23 24  1  0
 24 25  1  0
 25 27  1  0
 25 26  1  1
 27 29  1  0
 27 28  1  6
 28 21  1  0
 29 30  1  0
 31 29  2  0
M  END
$$$$
