DWI.pdb
     RDKit          3D

 31 32  0  0  1  0  0  0  0  0999 V2000
   10.7521  -17.8203   19.8772 N   0  0  0  0  0  0  0  0  0  0  0  0
   11.8709  -17.1575   20.5170 C   0  0  1  0  0  0  0  0  0  0  0  0
   12.4304  -16.0930   19.5953 C   0  0  0  0  0  0  0  0  0  0  0  0
   13.1184  -16.7453   18.4609 C   0  0  0  0  0  0  0  0  0  0  0  0
   13.8628  -17.7291   18.6762 O   0  0  0  0  0  0  0  0  0  0  0  0
   11.3252  -16.4117   21.7021 C   0  0  0  0  0  0  0  0  0  0  0  0
   12.0280  -15.6319   22.3638 O   0  0  0  0  0  0  0  0  0  0  0  0
   12.9775  -16.3147   17.1511 O   0  0  0  0  0  0  0  0  0  0  0  0
    9.9760  -16.5965   22.0819 N   0  0  0  0  0  0  0  0  0  0  0  0
    9.3211  -16.0533   23.2248 C   0  0  1  0  0  0  0  0  0  0  0  0
    7.7820  -16.1000   23.1326 C   0  0  0  0  0  0  0  0  0  0  0  0
    7.1193  -15.5091   24.3034 C   0  0  0  0  0  0  0  0  0  0  0  0
    6.4585  -16.1184   25.3266 C   0  0  0  0  0  0  0  0  0  0  0  0
    5.9998  -15.1944   26.2136 N   0  0  0  0  0  0  0  0  0  0  0  0
    6.3463  -13.9846   25.7952 C   0  0  0  0  0  0  0  0  0  0  0  0
    6.1619  -12.6974   26.2778 C   0  0  0  0  0  0  0  0  0  0  0  0
    6.6642  -11.6238   25.5875 C   0  0  0  0  0  0  0  0  0  0  0  0
    7.3628  -11.7712   24.4036 C   0  0  0  0  0  0  0  0  0  0  0  0
    7.5394  -13.0573   23.9336 C   0  0  0  0  0  0  0  0  0  0  0  0
    7.0382  -14.1390   24.6203 C   0  0  0  0  0  0  0  0  0  0  0  0
    9.7409  -16.5619   24.5220 C   0  0  0  0  0  0  0  0  0  0  0  0
   10.2180  -17.7465   24.6069 O   0  0  0  0  0  0  0  0  0  0  0  0
   10.0396  -13.0783   29.0349 C   0  0  0  0  0  0  0  0  0  0  0  0
   10.3743  -13.9081   27.8350 C   0  0  0  0  0  0  0  0  0  0  0  0
   10.2580  -15.3557   28.0783 C   0  0  2  0  0  0  0  0  0  0  0  0
   11.1335  -15.7860   29.2653 C   0  0  0  0  0  0  0  0  0  0  0  0
   10.3744  -16.3039   26.9609 C   0  0  2  0  0  0  0  0  0  0  0  0
    9.6715  -15.8471   25.7485 N   0  0  0  0  0  0  0  0  0  0  0  0
    9.8696  -17.6485   27.2670 C   0  0  0  0  0  0  0  0  0  0  0  0
   10.7123  -18.6777   27.7424 O   0  0  0  0  0  0  0  0  0  0  0  0
    8.6654  -17.9833   27.1344 O   0  0  0  0  0  0  0  0  0  0  0  0
  2  1  1  6
  2  6  1  0
  3  4  1  0
  3  2  1  0
  4  5  2  0
  6  7  2  0
  8  4  1  0
  9  6  1  0
  9 10  1  0
 10 11  1  6
 11 12  1  0
 12 13  2  0
 13 14  1  0
 15 14  1  0
 16 15  2  0
 17 16  1  0
 18 19  1  0
 18 17  2  0
 19 20  2  0
 20 12  1  0
 20 15  1  0
 21 10  1  0
 21 22  2  0
 23 24  1  0
 24 25  1  0
 25 27  1  0
 25 26  1  1
 27 29  1  0
 27 28  1  6
 28 21  1  0
 29 30  1  0
 31 29  2  0
M  END
$$$$
