DWI.pdb
     RDKit          3D

 31 32  0  0  1  0  0  0  0  0999 V2000
   11.1180  -18.1124   19.2831 N   0  0  0  0  0  0  0  0  0  0  0  0
   10.7996  -18.6379   20.5957 C   0  0  1  0  0  0  0  0  0  0  0  0
   12.0008  -19.3699   21.1591 C   0  0  0  0  0  0  0  0  0  0  0  0
   12.2092  -20.6198   20.3974 C   0  0  0  0  0  0  0  0  0  0  0  0
   11.4964  -20.8557   19.3951 O   0  0  0  0  0  0  0  0  0  0  0  0
   10.5882  -17.4603   21.5051 C   0  0  0  0  0  0  0  0  0  0  0  0
   11.2929  -16.4417   21.4301 O   0  0  0  0  0  0  0  0  0  0  0  0
   13.1696  -21.5571   20.7437 O   0  0  0  0  0  0  0  0  0  0  0  0
    9.5615  -17.5043   22.4761 N   0  0  0  0  0  0  0  0  0  0  0  0
    9.2437  -16.5033   23.4390 C   0  0  1  0  0  0  0  0  0  0  0  0
    7.7470  -16.1312   23.4692 C   0  0  0  0  0  0  0  0  0  0  0  0
    7.5178  -14.6812   23.5348 C   0  0  0  0  0  0  0  0  0  0  0  0
    7.7245  -13.7257   22.5867 C   0  0  0  0  0  0  0  0  0  0  0  0
    7.3715  -12.5005   23.0613 N   0  0  0  0  0  0  0  0  0  0  0  0
    6.9343  -12.6292   24.3067 C   0  0  0  0  0  0  0  0  0  0  0  0
    6.4520  -11.7503   25.2651 C   0  0  0  0  0  0  0  0  0  0  0  0
    6.0662  -12.2164   26.4961 C   0  0  0  0  0  0  0  0  0  0  0  0
    6.1385  -13.5556   26.8320 C   0  0  0  0  0  0  0  0  0  0  0  0
    6.6206  -14.4202   25.8696 C   0  0  0  0  0  0  0  0  0  0  0  0
    7.0097  -13.9600   24.6329 C   0  0  0  0  0  0  0  0  0  0  0  0
    9.7100  -16.7323   24.7983 C   0  0  0  0  0  0  0  0  0  0  0  0
    9.4043  -17.8249   25.3906 O   0  0  0  0  0  0  0  0  0  0  0  0
   10.4294  -13.7628   30.0261 C   0  0  0  0  0  0  0  0  0  0  0  0
   10.8622  -14.9844   29.2774 C   0  0  0  0  0  0  0  0  0  0  0  0
   10.5603  -14.9215   27.8377 C   0  0  2  0  0  0  0  0  0  0  0  0
    9.1487  -14.3651   27.5955 C   0  0  0  0  0  0  0  0  0  0  0  0
   10.8292  -16.0815   26.9755 C   0  0  2  0  0  0  0  0  0  0  0  0
   10.5005  -15.8302   25.5608 N   0  0  0  0  0  0  0  0  0  0  0  0
   10.1082  -17.2975   27.3726 C   0  0  0  0  0  0  0  0  0  0  0  0
    8.8992  -17.6898   26.7563 O   0  0  0  0  0  0  0  0  0  0  0  0
   10.5058  -18.0747   28.2769 O   0  0  0  0  0  0  0  0  0  0  0  0
  2  1  1  6
  2  6  1  0
  3  4  1  0
  3  2  1  0
  4  5  2  0
  6  7  2  0
  8  4  1  0
  9  6  1  0
  9 10  1  0
 10 11  1  1
 11 12  1  0
 12 13  2  0
 13 14  1  0
 15 14  1  0
 16 15  2  0
 17 16  1  0
 18 19  1  0
 18 17  2  0
 19 20  2  0
 20 12  1  0
 20 15  1  0
 21 10  1  0
 21 22  2  0
 23 24  1  0
 24 25  1  0
 25 27  1  0
 25 26  1  1
 27 29  1  0
 27 28  1  6
 28 21  1  0
 29 30  1  0
 31 29  2  0
M  END
$$$$
