DWI.pdb
     RDKit          3D

 31 32  0  0  1  0  0  0  0  0999 V2000
   10.7936  -17.6361   19.8060 N   0  0  0  0  0  0  0  0  0  0  0  0
   11.9099  -17.1900   20.6154 C   0  0  1  0  0  0  0  0  0  0  0  0
   12.7305  -16.1777   19.8422 C   0  0  0  0  0  0  0  0  0  0  0  0
   13.1776  -16.7845   18.5703 C   0  0  0  0  0  0  0  0  0  0  0  0
   13.1205  -18.0274   18.4279 O   0  0  0  0  0  0  0  0  0  0  0  0
   11.3377  -16.4325   21.7804 C   0  0  0  0  0  0  0  0  0  0  0  0
   11.9757  -15.5358   22.3540 O   0  0  0  0  0  0  0  0  0  0  0  0
   13.6639  -16.0335   17.5118 O   0  0  0  0  0  0  0  0  0  0  0  0
   10.0383  -16.7422   22.2435 N   0  0  0  0  0  0  0  0  0  0  0  0
    9.3541  -16.1535   23.3459 C   0  0  1  0  0  0  0  0  0  0  0  0
    7.8199  -16.2913   23.2630 C   0  0  0  0  0  0  0  0  0  0  0  0
    7.1239  -15.6307   24.3759 C   0  0  0  0  0  0  0  0  0  0  0  0
    6.3897  -16.1742   25.3859 C   0  0  0  0  0  0  0  0  0  0  0  0
    5.9246  -15.1997   26.2136 N   0  0  0  0  0  0  0  0  0  0  0  0
    6.3390  -14.0211   25.7688 C   0  0  0  0  0  0  0  0  0  0  0  0
    6.1821  -12.7101   26.1934 C   0  0  0  0  0  0  0  0  0  0  0  0
    6.7601  -11.6839   25.4904 C   0  0  0  0  0  0  0  0  0  0  0  0
    7.5102  -11.9036   24.3499 C   0  0  0  0  0  0  0  0  0  0  0  0
    7.6587  -13.2127   23.9374 C   0  0  0  0  0  0  0  0  0  0  0  0
    7.0816  -14.2472   24.6372 C   0  0  0  0  0  0  0  0  0  0  0  0
    9.8008  -16.5416   24.6754 C   0  0  0  0  0  0  0  0  0  0  0  0
   10.1656  -17.7500   24.8866 O   0  0  0  0  0  0  0  0  0  0  0  0
    9.9495  -12.8405   29.0437 C   0  0  0  0  0  0  0  0  0  0  0  0
   10.3126  -13.7035   27.8760 C   0  0  0  0  0  0  0  0  0  0  0  0
   10.2306  -15.1440   28.1697 C   0  0  2  0  0  0  0  0  0  0  0  0
   11.0670  -15.5013   29.4081 C   0  0  0  0  0  0  0  0  0  0  0  0
   10.4243  -16.1288   27.0955 C   0  0  2  0  0  0  0  0  0  0  0  0
    9.8754  -15.6800   25.8033 N   0  0  0  0  0  0  0  0  0  0  0  0
    9.8319  -17.4422   27.3789 C   0  0  0  0  0  0  0  0  0  0  0  0
   10.6091  -18.5406   27.8088 O   0  0  0  0  0  0  0  0  0  0  0  0
    8.6044  -17.6877   27.2655 O   0  0  0  0  0  0  0  0  0  0  0  0
  2  1  1  6
  2  6  1  0
  3  4  1  0
  3  2  1  0
  4  5  2  0
  6  7  2  0
  8  4  1  0
  9  6  1  0
  9 10  1  0
 10 11  1  6
 11 12  1  0
 12 13  2  0
 13 14  1  0
 15 14  1  0
 16 15  2  0
 17 16  1  0
 18 19  1  0
 18 17  2  0
 19 20  2  0
 20 12  1  0
 20 15  1  0
 21 10  1  0
 21 22  2  0
 23 24  1  0
 24 25  1  0
 25 27  1  0
 25 26  1  1
 27 29  1  0
 27 28  1  6
 28 21  1  0
 29 30  1  0
 31 29  2  0
M  END
$$$$
