DWI.pdb
     RDKit          3D

 31 32  0  0  1  0  0  0  0  0999 V2000
   11.1504  -17.3791   19.4099 N   0  0  0  0  0  0  0  0  0  0  0  0
   11.2992  -18.0523   20.6846 C   0  0  1  0  0  0  0  0  0  0  0  0
   12.7605  -18.3705   20.9280 C   0  0  0  0  0  0  0  0  0  0  0  0
   13.1710  -19.4785   20.0393 C   0  0  0  0  0  0  0  0  0  0  0  0
   14.2520  -20.0725   20.2556 O   0  0  0  0  0  0  0  0  0  0  0  0
   10.9231  -17.0653   21.7536 C   0  0  0  0  0  0  0  0  0  0  0  0
   11.5401  -15.9994   21.9054 O   0  0  0  0  0  0  0  0  0  0  0  0
   12.4060  -19.8983   18.9626 O   0  0  0  0  0  0  0  0  0  0  0  0
    9.8386  -17.3493   22.6150 N   0  0  0  0  0  0  0  0  0  0  0  0
    9.3745  -16.5574   23.7049 C   0  0  1  0  0  0  0  0  0  0  0  0
    7.8395  -16.4115   23.7502 C   0  0  0  0  0  0  0  0  0  0  0  0
    7.3907  -15.0216   23.5892 C   0  0  0  0  0  0  0  0  0  0  0  0
    7.2709  -14.2733   22.4576 C   0  0  0  0  0  0  0  0  0  0  0  0
    6.8094  -13.0290   22.7569 N   0  0  0  0  0  0  0  0  0  0  0  0
    6.6213  -12.9414   24.0668 C   0  0  0  0  0  0  0  0  0  0  0  0
    6.1747  -11.9450   24.9219 C   0  0  0  0  0  0  0  0  0  0  0  0
    6.0892  -12.1810   26.2704 C   0  0  0  0  0  0  0  0  0  0  0  0
    6.4370  -13.3971   26.8285 C   0  0  0  0  0  0  0  0  0  0  0  0
    6.8804  -14.3806   25.9669 C   0  0  0  0  0  0  0  0  0  0  0  0
    6.9690  -14.1512   24.6133 C   0  0  0  0  0  0  0  0  0  0  0  0
    9.8628  -16.9161   25.0280 C   0  0  0  0  0  0  0  0  0  0  0  0
    9.8552  -18.1443   25.3878 O   0  0  0  0  0  0  0  0  0  0  0  0
    9.6682  -14.1674   30.1202 C   0  0  0  0  0  0  0  0  0  0  0  0
    9.5719  -15.2219   29.0624 C   0  0  0  0  0  0  0  0  0  0  0  0
   10.8338  -15.4309   28.3330 C   0  0  2  0  0  0  0  0  0  0  0  0
   11.4182  -14.0943   27.8507 C   0  0  0  0  0  0  0  0  0  0  0  0
   10.9191  -16.4575   27.2841 C   0  0  2  0  0  0  0  0  0  0  0  0
   10.3663  -16.0043   25.9951 N   0  0  0  0  0  0  0  0  0  0  0  0
   10.2377  -17.7131   27.6240 C   0  0  0  0  0  0  0  0  0  0  0  0
    8.9895  -18.0663   27.0650 O   0  0  0  0  0  0  0  0  0  0  0  0
   10.7061  -18.5607   28.4252 O   0  0  0  0  0  0  0  0  0  0  0  0
  2  1  1  6
  2  6  1  0
  3  4  1  0
  3  2  1  0
  4  5  2  0
  6  7  2  0
  8  4  1  0
  9  6  1  0
  9 10  1  0
 10 11  1  1
 11 12  1  0
 12 13  2  0
 13 14  1  0
 15 14  1  0
 16 15  2  0
 17 16  1  0
 18 19  1  0
 18 17  2  0
 19 20  2  0
 20 12  1  0
 20 15  1  0
 21 10  1  0
 21 22  2  0
 23 24  1  0
 24 25  1  0
 25 27  1  0
 25 26  1  6
 27 29  1  0
 27 28  1  6
 28 21  1  0
 29 30  1  0
 31 29  2  0
M  END
$$$$
