DWI.pdb
     RDKit          3D

 31 32  0  0  1  0  0  0  0  0999 V2000
   10.5598  -16.7099   18.5989 N   0  0  0  0  0  0  0  0  0  0  0  0
   11.2192  -17.1269   19.8202 C   0  0  1  0  0  0  0  0  0  0  0  0
   12.6971  -16.8025   19.7404 C   0  0  0  0  0  0  0  0  0  0  0  0
   13.3689  -17.8040   18.8851 C   0  0  0  0  0  0  0  0  0  0  0  0
   12.6808  -18.5316   18.1331 O   0  0  0  0  0  0  0  0  0  0  0  0
   10.6820  -16.2671   20.9296 C   0  0  0  0  0  0  0  0  0  0  0  0
   10.9216  -15.0510   20.9886 O   0  0  0  0  0  0  0  0  0  0  0  0
   14.7436  -17.9793   18.8746 O   0  0  0  0  0  0  0  0  0  0  0  0
    9.8811  -16.8499   21.9385 N   0  0  0  0  0  0  0  0  0  0  0  0
    9.2536  -16.1847   23.0311 C   0  0  1  0  0  0  0  0  0  0  0  0
    7.7188  -16.3384   23.0462 C   0  0  0  0  0  0  0  0  0  0  0  0
    7.0836  -15.6401   24.1723 C   0  0  0  0  0  0  0  0  0  0  0  0
    6.4234  -16.1497   25.2490 C   0  0  0  0  0  0  0  0  0  0  0  0
    5.9956  -15.1469   26.0628 N   0  0  0  0  0  0  0  0  0  0  0  0
    6.3618  -13.9829   25.5433 C   0  0  0  0  0  0  0  0  0  0  0  0
    6.2106  -12.6571   25.9215 C   0  0  0  0  0  0  0  0  0  0  0  0
    6.7262  -11.6543   25.1405 C   0  0  0  0  0  0  0  0  0  0  0  0
    7.4064  -11.9126   23.9649 C   0  0  0  0  0  0  0  0  0  0  0  0
    7.5500  -13.2362   23.5992 C   0  0  0  0  0  0  0  0  0  0  0  0
    7.0353  -14.2473   24.3773 C   0  0  0  0  0  0  0  0  0  0  0  0
    9.7785  -16.4692   24.3582 C   0  0  0  0  0  0  0  0  0  0  0  0
   10.2743  -17.6236   24.6025 O   0  0  0  0  0  0  0  0  0  0  0  0
   10.4594  -13.9259   30.0448 C   0  0  0  0  0  0  0  0  0  0  0  0
   10.8866  -14.9810   29.0730 C   0  0  0  0  0  0  0  0  0  0  0  0
   10.2192  -14.8715   27.7651 C   0  0  2  0  0  0  0  0  0  0  0  0
    8.7136  -14.6169   27.9355 C   0  0  0  0  0  0  0  0  0  0  0  0
   10.4736  -15.8738   26.7201 C   0  0  2  0  0  0  0  0  0  0  0  0
    9.7964  -15.5587   25.4494 N   0  0  0  0  0  0  0  0  0  0  0  0
   10.0719  -17.2362   27.0925 C   0  0  0  0  0  0  0  0  0  0  0  0
   10.8963  -18.0761   27.8738 O   0  0  0  0  0  0  0  0  0  0  0  0
    8.9780  -17.7534   26.7525 O   0  0  0  0  0  0  0  0  0  0  0  0
  2  1  1  6
  2  6  1  0
  3  4  1  0
  3  2  1  0
  4  5  2  0
  6  7  2  0
  8  4  1  0
  9  6  1  0
  9 10  1  0
 10 11  1  1
 11 12  1  0
 12 13  2  0
 13 14  1  0
 15 14  1  0
 16 15  2  0
 17 16  1  0
 18 19  1  0
 18 17  2  0
 19 20  2  0
 20 12  1  0
 20 15  1  0
 21 10  1  0
 21 22  2  0
 23 24  1  0
 24 25  1  0
 25 27  1  0
 25 26  1  1
 27 29  1  0
 27 28  1  6
 28 21  1  0
 29 30  1  0
 31 29  2  0
M  END
$$$$
