DWI.pdb
     RDKit          3D

 31 32  0  0  1  0  0  0  0  0999 V2000
   10.4610  -16.4820   18.9049 N   0  0  0  0  0  0  0  0  0  0  0  0
   11.0228  -17.1118   20.0831 C   0  0  1  0  0  0  0  0  0  0  0  0
   12.5276  -16.9343   20.0899 C   0  0  0  0  0  0  0  0  0  0  0  0
   13.1213  -17.7801   19.0325 C   0  0  0  0  0  0  0  0  0  0  0  0
   12.6528  -18.9224   18.8227 O   0  0  0  0  0  0  0  0  0  0  0  0
   10.5258  -16.3440   21.2755 C   0  0  0  0  0  0  0  0  0  0  0  0
   10.8772  -15.1737   21.4923 O   0  0  0  0  0  0  0  0  0  0  0  0
   14.1870  -17.3641   18.2502 O   0  0  0  0  0  0  0  0  0  0  0  0
    9.6337  -16.9626   22.1812 N   0  0  0  0  0  0  0  0  0  0  0  0
    9.1052  -16.4087   23.3828 C   0  0  1  0  0  0  0  0  0  0  0  0
    7.7095  -16.9536   23.7502 C   0  0  0  0  0  0  0  0  0  0  0  0
    6.9416  -16.0354   24.6024 C   0  0  0  0  0  0  0  0  0  0  0  0
    5.8093  -16.2626   25.3242 C   0  0  0  0  0  0  0  0  0  0  0  0
    5.4305  -15.1340   25.9827 N   0  0  0  0  0  0  0  0  0  0  0  0
    6.2929  -14.1643   25.7095 C   0  0  0  0  0  0  0  0  0  0  0  0
    6.4155  -12.8353   26.0867 C   0  0  0  0  0  0  0  0  0  0  0  0
    7.4583  -12.0785   25.6164 C   0  0  0  0  0  0  0  0  0  0  0  0
    8.4156  -12.5940   24.7624 C   0  0  0  0  0  0  0  0  0  0  0  0
    8.2823  -13.9179   24.3940 C   0  0  0  0  0  0  0  0  0  0  0  0
    7.2389  -14.6831   24.8615 C   0  0  0  0  0  0  0  0  0  0  0  0
    9.9638  -16.4548   24.5568 C   0  0  0  0  0  0  0  0  0  0  0  0
   11.0669  -17.1016   24.5023 O   0  0  0  0  0  0  0  0  0  0  0  0
    9.6750  -12.7877   28.9479 C   0  0  0  0  0  0  0  0  0  0  0  0
   10.1187  -13.5818   27.7593 C   0  0  0  0  0  0  0  0  0  0  0  0
   10.2698  -15.0187   28.0435 C   0  0  2  0  0  0  0  0  0  0  0  0
   11.1753  -15.2457   29.2639 C   0  0  0  0  0  0  0  0  0  0  0  0
   10.5956  -15.9556   26.9585 C   0  0  2  0  0  0  0  0  0  0  0  0
    9.6890  -15.8293   25.8032 N   0  0  0  0  0  0  0  0  0  0  0  0
   10.5760  -17.3665   27.3653 C   0  0  0  0  0  0  0  0  0  0  0  0
   11.7506  -18.0587   27.7349 O   0  0  0  0  0  0  0  0  0  0  0  0
    9.5276  -18.0578   27.4183 O   0  0  0  0  0  0  0  0  0  0  0  0
  2  1  1  6
  2  6  1  0
  3  4  1  0
  3  2  1  0
  4  5  2  0
  6  7  2  0
  8  4  1  0
  9  6  1  0
  9 10  1  0
 10 11  1  1
 11 12  1  0
 12 13  2  0
 13 14  1  0
 15 14  1  0
 16 15  2  0
 17 16  1  0
 18 19  1  0
 18 17  2  0
 19 20  2  0
 20 12  1  0
 20 15  1  0
 21 10  1  0
 21 22  2  0
 23 24  1  0
 24 25  1  0
 25 27  1  0
 25 26  1  1
 27 29  1  0
 27 28  1  6
 28 21  1  0
 29 30  1  0
 31 29  2  0
M  END
$$$$
