DWI.pdb
     RDKit          3D

 31 32  0  0  1  0  0  0  0  0999 V2000
   10.5708  -18.4239   20.3573 N   0  0  0  0  0  0  0  0  0  0  0  0
   11.6986  -17.6313   20.8046 C   0  0  1  0  0  0  0  0  0  0  0  0
   12.0742  -16.6261   19.7347 C   0  0  0  0  0  0  0  0  0  0  0  0
   12.8317  -17.3131   18.6670 C   0  0  0  0  0  0  0  0  0  0  0  0
   12.9037  -18.5634   18.6705 O   0  0  0  0  0  0  0  0  0  0  0  0
   11.2287  -16.8120   21.9735 C   0  0  0  0  0  0  0  0  0  0  0  0
   11.8960  -15.8652   22.4185 O   0  0  0  0  0  0  0  0  0  0  0  0
   13.4754  -16.6307   17.6469 O   0  0  0  0  0  0  0  0  0  0  0  0
    9.9945  -17.1204   22.5903 N   0  0  0  0  0  0  0  0  0  0  0  0
    9.4220  -16.4906   23.7329 C   0  0  1  0  0  0  0  0  0  0  0  0
    7.8802  -16.4474   23.7044 C   0  0  0  0  0  0  0  0  0  0  0  0
    7.3481  -15.0915   23.5106 C   0  0  0  0  0  0  0  0  0  0  0  0
    7.1107  -14.4085   22.3565 C   0  0  0  0  0  0  0  0  0  0  0  0
    6.6055  -13.1750   22.6291 N   0  0  0  0  0  0  0  0  0  0  0  0
    6.5042  -13.0305   23.9435 C   0  0  0  0  0  0  0  0  0  0  0  0
    6.0654  -12.0154   24.7805 C   0  0  0  0  0  0  0  0  0  0  0  0
    6.0861  -12.1865   26.1412 C   0  0  0  0  0  0  0  0  0  0  0  0
    6.5358  -13.3539   26.7297 C   0  0  0  0  0  0  0  0  0  0  0  0
    6.9702  -14.3567   25.8859 C   0  0  0  0  0  0  0  0  0  0  0  0
    6.9527  -14.1921   24.5201 C   0  0  0  0  0  0  0  0  0  0  0  0
    9.8657  -16.9685   25.0338 C   0  0  0  0  0  0  0  0  0  0  0  0
   10.4526  -18.1027   25.1187 O   0  0  0  0  0  0  0  0  0  0  0  0
    9.9401  -13.3745   29.4679 C   0  0  0  0  0  0  0  0  0  0  0  0
   10.3066  -14.2043   28.2774 C   0  0  0  0  0  0  0  0  0  0  0  0
   10.3140  -15.6501   28.5563 C   0  0  2  0  0  0  0  0  0  0  0  0
   11.2338  -15.9765   29.7430 C   0  0  0  0  0  0  0  0  0  0  0  0
   10.4987  -16.6125   27.4605 C   0  0  2  0  0  0  0  0  0  0  0  0
    9.7067  -16.2749   26.2642 N   0  0  0  0  0  0  0  0  0  0  0  0
   10.1612  -17.9955   27.8206 C   0  0  0  0  0  0  0  0  0  0  0  0
   11.1253  -18.8990   28.3204 O   0  0  0  0  0  0  0  0  0  0  0  0
    9.0045  -18.4760   27.7165 O   0  0  0  0  0  0  0  0  0  0  0  0
  2  1  1  6
  2  6  1  0
  3  4  1  0
  3  2  1  0
  4  5  2  0
  6  7  2  0
  8  4  1  0
  9  6  1  0
  9 10  1  0
 10 11  1  1
 11 12  1  0
 12 13  2  0
 13 14  1  0
 15 14  1  0
 16 15  2  0
 17 16  1  0
 18 19  1  0
 18 17  2  0
 19 20  2  0
 20 12  1  0
 20 15  1  0
 21 10  1  0
 21 22  2  0
 23 24  1  0
 24 25  1  0
 25 27  1  0
 25 26  1  1
 27 29  1  0
 27 28  1  6
 28 21  1  0
 29 30  1  0
 31 29  2  0
M  END
$$$$
