DWI.pdb
     RDKit          3D

 31 32  0  0  1  0  0  0  0  0999 V2000
   10.5292  -18.4714   20.3140 N   0  0  0  0  0  0  0  0  0  0  0  0
   11.4804  -17.3902   20.4767 C   0  0  1  0  0  0  0  0  0  0  0  0
   11.4146  -16.4658   19.2779 C   0  0  0  0  0  0  0  0  0  0  0  0
   12.0744  -17.1165   18.1259 C   0  0  0  0  0  0  0  0  0  0  0  0
   12.5279  -18.2770   18.2515 O   0  0  0  0  0  0  0  0  0  0  0  0
   11.0165  -16.5636   21.6429 C   0  0  0  0  0  0  0  0  0  0  0  0
   11.5341  -15.4692   21.9155 O   0  0  0  0  0  0  0  0  0  0  0  0
   12.2175  -16.4953   16.8953 O   0  0  0  0  0  0  0  0  0  0  0  0
    9.9627  -17.0368   22.4581 N   0  0  0  0  0  0  0  0  0  0  0  0
    9.4182  -16.4059   23.6137 C   0  0  1  0  0  0  0  0  0  0  0  0
    7.8842  -16.5311   23.7184 C   0  0  0  0  0  0  0  0  0  0  0  0
    7.1890  -15.2537   23.5083 C   0  0  0  0  0  0  0  0  0  0  0  0
    6.7078  -14.7059   22.3581 C   0  0  0  0  0  0  0  0  0  0  0  0
    6.1230  -13.5040   22.6120 N   0  0  0  0  0  0  0  0  0  0  0  0
    6.2086  -13.2476   23.9103 C   0  0  0  0  0  0  0  0  0  0  0  0
    5.7981  -12.2036   24.7258 C   0  0  0  0  0  0  0  0  0  0  0  0
    6.0440  -12.2446   26.0746 C   0  0  0  0  0  0  0  0  0  0  0  0
    6.6986  -13.3059   26.6717 C   0  0  0  0  0  0  0  0  0  0  0  0
    7.1024  -14.3387   25.8493 C   0  0  0  0  0  0  0  0  0  0  0  0
    6.8596  -14.3044   24.4955 C   0  0  0  0  0  0  0  0  0  0  0  0
   10.0177  -16.7550   24.8929 C   0  0  0  0  0  0  0  0  0  0  0  0
   10.8086  -17.7590   24.9618 O   0  0  0  0  0  0  0  0  0  0  0  0
   10.8533  -12.8507   28.8825 C   0  0  0  0  0  0  0  0  0  0  0  0
   10.9650  -13.8914   27.8127 C   0  0  0  0  0  0  0  0  0  0  0  0
   10.6200  -15.2446   28.2795 C   0  0  2  0  0  0  0  0  0  0  0  0
   11.4141  -15.6096   29.5432 C   0  0  0  0  0  0  0  0  0  0  0  0
   10.5863  -16.3669   27.3306 C   0  0  2  0  0  0  0  0  0  0  0  0
    9.8046  -16.0661   26.1177 N   0  0  0  0  0  0  0  0  0  0  0  0
   10.0392  -17.6071   27.8954 C   0  0  0  0  0  0  0  0  0  0  0  0
   10.8654  -18.6067   28.4553 O   0  0  0  0  0  0  0  0  0  0  0  0
    8.8108  -17.8712   27.9269 O   0  0  0  0  0  0  0  0  0  0  0  0
  2  1  1  6
  2  6  1  0
  3  4  1  0
  3  2  1  0
  4  5  2  0
  6  7  2  0
  8  4  1  0
  9  6  1  0
  9 10  1  0
 10 11  1  1
 11 12  1  0
 12 13  2  0
 13 14  1  0
 15 14  1  0
 16 15  2  0
 17 16  1  0
 18 19  1  0
 18 17  2  0
 19 20  2  0
 20 12  1  0
 20 15  1  0
 21 10  1  0
 21 22  2  0
 23 24  1  0
 24 25  1  0
 25 27  1  0
 25 26  1  1
 27 29  1  0
 27 28  1  6
 28 21  1  0
 29 30  1  0
 31 29  2  0
M  END
$$$$
