NCL.pdb
     RDKit          3D

 23 22  0  0  1  0  0  0  0  0999 V2000
    9.6173  -14.1313   16.4944 N   0  0  0  0  0  0  0  0  0  0  0  0
    8.2183  -13.9412   16.7195 C   0  0  0  0  0  0  0  0  0  0  0  0
    7.6241  -13.2381   15.8753 O   0  0  0  0  0  0  0  0  0  0  0  0
    7.6523  -14.5858   17.8998 C   0  0  0  0  0  0  0  0  0  0  0  0
    8.6290  -15.3236   18.7711 C   0  0  2  0  0  0  0  0  0  0  0  0
    8.8934  -16.5866   18.0899 N   0  0  0  0  0  0  0  0  0  0  0  0
    7.9061  -15.6815   20.0451 C   0  0  0  0  0  0  0  0  0  0  0  0
    6.7781  -16.2285   20.0502 O   0  0  0  0  0  0  0  0  0  0  0  0
    8.4711  -15.4148   21.3341 N   0  0  0  0  0  0  0  0  0  0  0  0
    7.9972  -15.9864   22.5548 C   0  0  1  0  0  0  0  0  0  0  0  0
    8.3127  -17.4682   22.5373 C   0  0  0  0  0  0  0  0  0  0  0  0
   10.0734  -17.8137   22.4702 S   0  0  0  0  0  0  0  0  0  0  0  0
    8.6772  -15.4124   23.7577 C   0  0  0  0  0  0  0  0  0  0  0  0
    9.9092  -15.1507   23.7538 O   0  0  0  0  0  0  0  0  0  0  0  0
    5.6563  -11.8464   26.6566 C   0  0  0  0  0  0  0  0  0  0  0  0
    6.7878  -12.5451   25.9610 C   0  0  1  0  0  0  0  0  0  0  0  0
    7.5596  -11.4214   25.2626 C   0  0  0  0  0  0  0  0  0  0  0  0
    7.6150  -13.4854   26.6859 C   0  0  0  0  0  0  0  0  0  0  0  0
    8.5809  -14.3992   26.0914 C   0  0  2  0  0  0  0  0  0  0  0  0
    7.9976  -15.1292   24.9588 N   0  0  0  0  0  0  0  0  0  0  0  0
    9.0924  -15.4177   26.9848 C   0  0  0  0  0  0  0  0  0  0  0  0
    9.7276  -15.0902   28.0351 O   0  0  0  0  0  0  0  0  0  0  0  0
    8.9203  -16.7600   26.7632 O   0  0  0  0  0  0  0  0  0  0  0  0
  2  1  1  0
  2  4  1  0
  3  2  2  0
  5  6  1  6
  5  7  1  0
  5  4  1  0
  7  9  1  0
  7  8  2  0
  9 10  1  0
 10 13  1  0
 11 12  1  0
 10 11  1  6
 13 14  2  0
 13 20  1  0
 16 15  1  1
 16 17  1  0
 18 16  1  0
 19 18  1  1
 20 19  1  0
 21 19  1  0
 21 23  1  0
 22 21  2  0
M  END
$$$$
