NCL.pdb
     RDKit          3D

 23 22  0  0  1  0  0  0  0  0999 V2000
    9.5605  -20.3698   18.2076 N   0  0  0  0  0  0  0  0  0  0  0  0
   10.4321  -20.1740   19.3238 C   0  0  0  0  0  0  0  0  0  0  0  0
   10.9009  -21.2131   19.8343 O   0  0  0  0  0  0  0  0  0  0  0  0
   10.6705  -18.7939   19.7331 C   0  0  0  0  0  0  0  0  0  0  0  0
   10.3434  -18.4723   21.1638 C   0  0  2  0  0  0  0  0  0  0  0  0
    8.9982  -18.9906   21.3898 N   0  0  0  0  0  0  0  0  0  0  0  0
   10.2344  -16.9721   21.2686 C   0  0  0  0  0  0  0  0  0  0  0  0
   11.1881  -16.2055   20.9961 O   0  0  0  0  0  0  0  0  0  0  0  0
    9.0246  -16.3307   21.6891 N   0  0  0  0  0  0  0  0  0  0  0  0
    8.8887  -14.9232   21.8939 C   0  0  1  0  0  0  0  0  0  0  0  0
    7.5456  -14.4920   21.3407 C   0  0  0  0  0  0  0  0  0  0  0  0
    6.1634  -15.3617   22.0871 S   0  0  0  0  0  0  0  0  0  0  0  0
    8.9002  -14.5517   23.3432 C   0  0  0  0  0  0  0  0  0  0  0  0
    8.8739  -13.3481   23.7135 O   0  0  0  0  0  0  0  0  0  0  0  0
    5.9832  -12.6654   26.1445 C   0  0  0  0  0  0  0  0  0  0  0  0
    7.3715  -13.1572   25.8563 C   0  0  1  0  0  0  0  0  0  0  0  0
    8.2877  -12.0574   26.4016 C   0  0  0  0  0  0  0  0  0  0  0  0
    7.7563  -14.5020   26.2269 C   0  0  0  0  0  0  0  0  0  0  0  0
    8.9752  -15.1809   25.8091 C   0  0  2  0  0  0  0  0  0  0  0  0
    8.9406  -15.5070   24.3779 N   0  0  0  0  0  0  0  0  0  0  0  0
    9.2417  -16.4342   26.4841 C   0  0  0  0  0  0  0  0  0  0  0  0
    9.4043  -16.4630   27.7437 O   0  0  0  0  0  0  0  0  0  0  0  0
    9.3241  -17.6341   25.8255 O   0  0  0  0  0  0  0  0  0  0  0  0
  2  1  1  0
  2  4  1  0
  3  2  2  0
  5  6  1  6
  5  7  1  0
  5  4  1  0
  7  9  1  0
  7  8  2  0
  9 10  1  0
 10 13  1  0
 11 12  1  0
 10 11  1  1
 13 14  2  0
 13 20  1  0
 16 15  1  1
 16 17  1  0
 18 16  1  0
 19 18  1  1
 20 19  1  0
 21 19  1  0
 21 23  1  0
 22 21  2  0
M  END
$$$$
