NCL.pdb
     RDKit          3D

 23 22  0  0  1  0  0  0  0  0999 V2000
   10.3657  -21.4714   18.6781 N   0  0  0  0  0  0  0  0  0  0  0  0
    9.5091  -20.9410   19.6925 C   0  0  0  0  0  0  0  0  0  0  0  0
    8.8160  -21.7777   20.3085 O   0  0  0  0  0  0  0  0  0  0  0  0
    9.5445  -19.4955   19.8882 C   0  0  0  0  0  0  0  0  0  0  0  0
    9.2096  -19.0165   21.2723 C   0  0  2  0  0  0  0  0  0  0  0  0
    7.7523  -18.9944   21.3431 N   0  0  0  0  0  0  0  0  0  0  0  0
    9.6525  -17.5782   21.3643 C   0  0  0  0  0  0  0  0  0  0  0  0
   10.8405  -17.2246   21.1768 O   0  0  0  0  0  0  0  0  0  0  0  0
    8.7338  -16.5237   21.6740 N   0  0  0  0  0  0  0  0  0  0  0  0
    9.0997  -15.1485   21.8011 C   0  0  1  0  0  0  0  0  0  0  0  0
    8.0180  -14.3090   21.1522 C   0  0  0  0  0  0  0  0  0  0  0  0
    6.3818  -14.6291   21.8189 S   0  0  0  0  0  0  0  0  0  0  0  0
    9.1911  -14.7099   23.2287 C   0  0  0  0  0  0  0  0  0  0  0  0
    9.6663  -13.5864   23.5420 O   0  0  0  0  0  0  0  0  0  0  0  0
    5.3907  -13.0723   26.0645 C   0  0  0  0  0  0  0  0  0  0  0  0
    6.8422  -13.3344   25.7874 C   0  0  1  0  0  0  0  0  0  0  0  0
    7.5715  -12.1354   26.4012 C   0  0  0  0  0  0  0  0  0  0  0  0
    7.4210  -14.6214   26.1076 C   0  0  0  0  0  0  0  0  0  0  0  0
    8.7446  -15.0792   25.7079 C   0  0  2  0  0  0  0  0  0  0  0  0
    8.7587  -15.5104   24.3045 N   0  0  0  0  0  0  0  0  0  0  0  0
    9.2587  -16.2035   26.4622 C   0  0  0  0  0  0  0  0  0  0  0  0
    9.4070  -16.1180   27.7210 O   0  0  0  0  0  0  0  0  0  0  0  0
    9.5994  -17.3984   25.8823 O   0  0  0  0  0  0  0  0  0  0  0  0
  2  1  1  0
  2  4  1  0
  3  2  2  0
  5  6  1  6
  5  7  1  0
  5  4  1  0
  7  9  1  0
  7  8  2  0
  9 10  1  0
 10 13  1  0
 11 12  1  0
 10 11  1  6
 13 14  2  0
 13 20  1  0
 16 15  1  1
 16 17  1  0
 18 16  1  0
 19 18  1  1
 20 19  1  0
 21 19  1  0
 21 23  1  0
 22 21  2  0
M  END
$$$$
