NCL.pdb
     RDKit          3D

 23 22  0  0  1  0  0  0  0  0999 V2000
   13.8687  -19.6667   21.7795 N   0  0  0  0  0  0  0  0  0  0  0  0
   13.3880  -19.3221   20.4778 C   0  0  0  0  0  0  0  0  0  0  0  0
   14.0453  -19.7785   19.5189 O   0  0  0  0  0  0  0  0  0  0  0  0
   12.1949  -18.4840   20.4222 C   0  0  0  0  0  0  0  0  0  0  0  0
   11.6413  -18.0489   21.7494 C   0  0  2  0  0  0  0  0  0  0  0  0
   10.6720  -19.0711   22.1297 N   0  0  0  0  0  0  0  0  0  0  0  0
   10.8461  -16.7906   21.5085 C   0  0  0  0  0  0  0  0  0  0  0  0
   11.3643  -15.7397   21.0627 O   0  0  0  0  0  0  0  0  0  0  0  0
    9.4408  -16.7226   21.7774 N   0  0  0  0  0  0  0  0  0  0  0  0
    8.6499  -15.5413   21.6343 C   0  0  1  0  0  0  0  0  0  0  0  0
    7.2161  -15.9597   21.3798 C   0  0  0  0  0  0  0  0  0  0  0  0
    6.0608  -14.5860   21.4314 S   0  0  0  0  0  0  0  0  0  0  0  0
    8.6435  -14.7030   22.8737 C   0  0  0  0  0  0  0  0  0  0  0  0
    8.3295  -13.4837   22.8409 O   0  0  0  0  0  0  0  0  0  0  0  0
    7.9515  -11.7430   27.0220 C   0  0  0  0  0  0  0  0  0  0  0  0
    7.2480  -13.0394   26.7452 C   0  0  1  0  0  0  0  0  0  0  0  0
    5.7586  -12.6868   26.8052 C   0  0  0  0  0  0  0  0  0  0  0  0
    7.6322  -13.8445   25.6058 C   0  0  0  0  0  0  0  0  0  0  0  0
    8.9470  -14.4316   25.3869 C   0  0  2  0  0  0  0  0  0  0  0  0
    8.9828  -15.2111   24.1432 N   0  0  0  0  0  0  0  0  0  0  0  0
    9.3944  -15.3384   26.4237 C   0  0  0  0  0  0  0  0  0  0  0  0
    9.5867  -14.9165   27.6064 O   0  0  0  0  0  0  0  0  0  0  0  0
    9.6231  -16.6720   26.2014 O   0  0  0  0  0  0  0  0  0  0  0  0
  2  1  1  0
  2  4  1  0
  3  2  2  0
  5  6  1  6
  5  7  1  0
  5  4  1  0
  7  9  1  0
  7  8  2  0
  9 10  1  0
 10 13  1  0
 11 12  1  0
 10 11  1  1
 13 14  2  0
 13 20  1  0
 16 15  1  6
 16 17  1  0
 18 16  1  0
 19 18  1  1
 20 19  1  0
 21 19  1  0
 21 23  1  0
 22 21  2  0
M  END
$$$$
