NCL.pdb
     RDKit          3D

 23 22  0  0  1  0  0  0  0  0999 V2000
   14.6127  -14.6585   19.9168 N   0  0  0  0  0  0  0  0  0  0  0  0
   13.4975  -14.0780   19.2359 C   0  0  0  0  0  0  0  0  0  0  0  0
   13.7707  -13.4262   18.2060 O   0  0  0  0  0  0  0  0  0  0  0  0
   12.1808  -14.3129   19.8191 C   0  0  0  0  0  0  0  0  0  0  0  0
   11.7733  -15.7530   19.9501 C   0  0  2  0  0  0  0  0  0  0  0  0
   11.3492  -16.1686   18.6172 N   0  0  0  0  0  0  0  0  0  0  0  0
   10.5355  -15.7884   20.8104 C   0  0  0  0  0  0  0  0  0  0  0  0
    9.4384  -15.3125   20.4342 O   0  0  0  0  0  0  0  0  0  0  0  0
   10.5415  -16.3726   22.1182 N   0  0  0  0  0  0  0  0  0  0  0  0
    9.3861  -16.4982   22.9493 C   0  0  1  0  0  0  0  0  0  0  0  0
    9.1240  -17.9733   23.1756 C   0  0  0  0  0  0  0  0  0  0  0  0
    8.1633  -18.7288   21.8601 S   0  0  0  0  0  0  0  0  0  0  0  0
    9.5812  -15.8806   24.2982 C   0  0  0  0  0  0  0  0  0  0  0  0
   10.7048  -15.8860   24.8672 O   0  0  0  0  0  0  0  0  0  0  0  0
    5.5852  -12.2781   26.3022 C   0  0  0  0  0  0  0  0  0  0  0  0
    6.8967  -12.8848   25.8971 C   0  0  1  0  0  0  0  0  0  0  0  0
    7.7935  -11.6832   25.5839 C   0  0  0  0  0  0  0  0  0  0  0  0
    7.5135  -13.8988   26.7249 C   0  0  0  0  0  0  0  0  0  0  0  0
    8.6766  -14.6972   26.3629 C   0  0  2  0  0  0  0  0  0  0  0  0
    8.5384  -15.2600   25.0139 N   0  0  0  0  0  0  0  0  0  0  0  0
    8.9375  -15.8287   27.2283 C   0  0  0  0  0  0  0  0  0  0  0  0
    8.5453  -16.9916   26.9003 O   0  0  0  0  0  0  0  0  0  0  0  0
    9.6122  -15.7194   28.4170 O   0  0  0  0  0  0  0  0  0  0  0  0
  2  1  1  0
  2  4  1  0
  3  2  2  0
  5  6  1  6
  5  7  1  0
  5  4  1  0
  7  9  1  0
  7  8  2  0
  9 10  1  0
 10 13  1  0
 11 12  1  0
 10 11  1  1
 13 14  2  0
 13 20  1  0
 16 15  1  1
 16 17  1  0
 18 16  1  0
 19 18  1  1
 20 19  1  0
 21 19  1  0
 21 23  1  0
 22 21  2  0
M  END
$$$$
