NCL.pdb
     RDKit          3D

 23 22  0  0  1  0  0  0  0  0999 V2000
    7.8323  -12.2691   17.3049 N   0  0  0  0  0  0  0  0  0  0  0  0
    8.3333  -13.5248   17.7699 C   0  0  0  0  0  0  0  0  0  0  0  0
    9.2683  -14.0158   17.1031 O   0  0  0  0  0  0  0  0  0  0  0  0
    7.6988  -14.0816   18.9600 C   0  0  0  0  0  0  0  0  0  0  0  0
    8.3284  -15.3295   19.5112 C   0  0  2  0  0  0  0  0  0  0  0  0
    7.8629  -16.4188   18.6592 N   0  0  0  0  0  0  0  0  0  0  0  0
    7.7184  -15.5731   20.8685 C   0  0  0  0  0  0  0  0  0  0  0  0
    6.6874  -14.9781   21.2617 O   0  0  0  0  0  0  0  0  0  0  0  0
    8.2865  -16.5063   21.7949 N   0  0  0  0  0  0  0  0  0  0  0  0
    7.7663  -16.7624   23.1008 C   0  0  1  0  0  0  0  0  0  0  0  0
    7.9290  -18.2401   23.3936 C   0  0  0  0  0  0  0  0  0  0  0  0
    9.6392  -18.7849   23.3433 S   0  0  0  0  0  0  0  0  0  0  0  0
    8.5107  -16.0242   24.1684 C   0  0  0  0  0  0  0  0  0  0  0  0
    9.7404  -15.7745   24.0595 O   0  0  0  0  0  0  0  0  0  0  0  0
    5.8725  -12.0049   26.8920 C   0  0  0  0  0  0  0  0  0  0  0  0
    6.9729  -12.7802   26.2284 C   0  0  1  0  0  0  0  0  0  0  0  0
    7.8499  -11.7114   25.5690 C   0  0  0  0  0  0  0  0  0  0  0  0
    7.7023  -13.7852   26.9714 C   0  0  0  0  0  0  0  0  0  0  0  0
    8.5820  -14.7933   26.3959 C   0  0  2  0  0  0  0  0  0  0  0  0
    7.8976  -15.5647   25.3508 N   0  0  0  0  0  0  0  0  0  0  0  0
    9.0855  -15.7755   27.3334 C   0  0  0  0  0  0  0  0  0  0  0  0
    8.6304  -16.9615   27.3268 O   0  0  0  0  0  0  0  0  0  0  0  0
   10.0627  -15.4966   28.2541 O   0  0  0  0  0  0  0  0  0  0  0  0
  2  1  1  0
  2  4  1  0
  3  2  2  0
  5  6  1  6
  5  7  1  0
  5  4  1  0
  7  9  1  0
  7  8  2  0
  9 10  1  0
 10 13  1  0
 11 12  1  0
 10 11  1  1
 13 14  2  0
 13 20  1  0
 16 15  1  1
 16 17  1  0
 18 16  1  0
 19 18  1  1
 20 19  1  0
 21 19  1  0
 21 23  1  0
 22 21  2  0
M  END
$$$$
