NCL.pdb
     RDKit          3D

 23 22  0  0  1  0  0  0  0  0999 V2000
    8.5138  -11.9806   17.8890 N   0  0  0  0  0  0  0  0  0  0  0  0
    8.8364  -13.3704   17.7968 C   0  0  0  0  0  0  0  0  0  0  0  0
    9.7203  -13.6677   16.9659 O   0  0  0  0  0  0  0  0  0  0  0  0
    8.1011  -14.2721   18.6773 C   0  0  0  0  0  0  0  0  0  0  0  0
    8.7833  -15.5723   18.9959 C   0  0  2  0  0  0  0  0  0  0  0  0
    8.3960  -16.4946   17.9335 N   0  0  0  0  0  0  0  0  0  0  0  0
    8.1561  -16.1057   20.2590 C   0  0  0  0  0  0  0  0  0  0  0  0
    7.0908  -16.7666   20.2566 O   0  0  0  0  0  0  0  0  0  0  0  0
    8.7461  -15.8862   21.5457 N   0  0  0  0  0  0  0  0  0  0  0  0
    8.1989  -16.3669   22.7750 C   0  0  1  0  0  0  0  0  0  0  0  0
    8.4872  -17.8512   22.8729 C   0  0  0  0  0  0  0  0  0  0  0  0
   10.2043  -18.2594   22.5424 S   0  0  0  0  0  0  0  0  0  0  0  0
    8.8262  -15.7235   23.9713 C   0  0  0  0  0  0  0  0  0  0  0  0
   10.0609  -15.4783   24.0141 O   0  0  0  0  0  0  0  0  0  0  0  0
    5.8939  -11.9266   26.8100 C   0  0  0  0  0  0  0  0  0  0  0  0
    7.0127  -12.6763   26.1476 C   0  0  1  0  0  0  0  0  0  0  0  0
    7.9263  -11.5825   25.5861 C   0  0  0  0  0  0  0  0  0  0  0  0
    7.7012  -13.7307   26.8603 C   0  0  0  0  0  0  0  0  0  0  0  0
    8.6585  -14.6621   26.2794 C   0  0  2  0  0  0  0  0  0  0  0  0
    8.0912  -15.3531   25.1148 N   0  0  0  0  0  0  0  0  0  0  0  0
    9.1102  -15.7120   27.1688 C   0  0  0  0  0  0  0  0  0  0  0  0
    8.7131  -16.9074   27.0046 O   0  0  0  0  0  0  0  0  0  0  0  0
    9.9765  -15.4887   28.2081 O   0  0  0  0  0  0  0  0  0  0  0  0
  2  1  1  0
  2  4  1  0
  3  2  2  0
  5  6  1  6
  5  7  1  0
  5  4  1  0
  7  9  1  0
  7  8  2  0
  9 10  1  0
 10 13  1  0
 11 12  1  0
 10 11  1  1
 13 14  2  0
 13 20  1  0
 16 15  1  1
 16 17  1  0
 18 16  1  0
 19 18  1  1
 20 19  1  0
 21 19  1  0
 21 23  1  0
 22 21  2  0
M  END
$$$$
