NCL.pdb
     RDKit          3D

 23 22  0  0  1  0  0  0  0  0999 V2000
    9.3100  -21.2119   19.5779 N   0  0  0  0  0  0  0  0  0  0  0  0
    8.5745  -20.3148   18.7421 C   0  0  0  0  0  0  0  0  0  0  0  0
    8.1742  -20.7890   17.6582 O   0  0  0  0  0  0  0  0  0  0  0  0
    8.3791  -18.9607   19.2491 C   0  0  0  0  0  0  0  0  0  0  0  0
    9.0039  -18.6675   20.5836 C   0  0  2  0  0  0  0  0  0  0  0  0
    7.9859  -18.9895   21.5781 N   0  0  0  0  0  0  0  0  0  0  0  0
    9.2051  -17.1753   20.6622 C   0  0  0  0  0  0  0  0  0  0  0  0
    9.5962  -16.4946   19.6848 O   0  0  0  0  0  0  0  0  0  0  0  0
    8.9590  -16.4429   21.8684 N   0  0  0  0  0  0  0  0  0  0  0  0
    8.9378  -15.0168   21.9543 C   0  0  1  0  0  0  0  0  0  0  0  0
    7.7505  -14.5124   21.1595 C   0  0  0  0  0  0  0  0  0  0  0  0
    7.2752  -12.8351   21.5895 S   0  0  0  0  0  0  0  0  0  0  0  0
    8.7582  -14.5304   23.3579 C   0  0  0  0  0  0  0  0  0  0  0  0
    8.8670  -13.3100   23.6495 O   0  0  0  0  0  0  0  0  0  0  0  0
    5.8502  -12.6592   26.5247 C   0  0  0  0  0  0  0  0  0  0  0  0
    7.1981  -13.1073   26.0403 C   0  0  1  0  0  0  0  0  0  0  0  0
    8.1041  -11.8903   26.2509 C   0  0  0  0  0  0  0  0  0  0  0  0
    7.7547  -14.3610   26.5011 C   0  0  0  0  0  0  0  0  0  0  0  0
    8.8050  -15.1185   25.8346 C   0  0  2  0  0  0  0  0  0  0  0  0
    8.4599  -15.3900   24.4335 N   0  0  0  0  0  0  0  0  0  0  0  0
    9.0935  -16.4120   26.4186 C   0  0  0  0  0  0  0  0  0  0  0  0
    8.8664  -17.4769   25.7642 O   0  0  0  0  0  0  0  0  0  0  0  0
    9.6225  -16.5627   27.6747 O   0  0  0  0  0  0  0  0  0  0  0  0
  2  1  1  0
  2  4  1  0
  3  2  2  0
  5  6  1  1
  5  7  1  0
  5  4  1  0
  7  9  1  0
  7  8  2  0
  9 10  1  0
 10 13  1  0
 11 12  1  0
 10 11  1  6
 13 14  2  0
 13 20  1  0
 16 15  1  1
 16 17  1  0
 18 16  1  0
 19 18  1  1
 20 19  1  0
 21 19  1  0
 21 23  1  0
 22 21  2  0
M  END
$$$$
