NCL.pdb
     RDKit          3D

 23 22  0  0  1  0  0  0  0  0999 V2000
    8.0103  -18.6694   16.7481 N   0  0  0  0  0  0  0  0  0  0  0  0
    7.7637  -17.3635   17.2754 C   0  0  0  0  0  0  0  0  0  0  0  0
    7.8923  -16.4196   16.4676 O   0  0  0  0  0  0  0  0  0  0  0  0
    7.3936  -17.2866   18.6847 C   0  0  0  0  0  0  0  0  0  0  0  0
    8.2140  -16.3486   19.5241 C   0  0  2  0  0  0  0  0  0  0  0  0
    9.5365  -16.9572   19.6223 N   0  0  0  0  0  0  0  0  0  0  0  0
    7.6376  -16.3788   20.9170 C   0  0  0  0  0  0  0  0  0  0  0  0
    6.4559  -16.0423   21.1658 O   0  0  0  0  0  0  0  0  0  0  0  0
    8.4134  -16.7972   22.0461 N   0  0  0  0  0  0  0  0  0  0  0  0
    7.9394  -16.7952   23.3940 C   0  0  1  0  0  0  0  0  0  0  0  0
    8.1593  -18.1772   23.9750 C   0  0  0  0  0  0  0  0  0  0  0  0
    9.8836  -18.6779   23.9706 S   0  0  0  0  0  0  0  0  0  0  0  0
    8.6890  -15.8352   24.2631 C   0  0  0  0  0  0  0  0  0  0  0  0
    9.8784  -15.5085   24.0081 O   0  0  0  0  0  0  0  0  0  0  0  0
    5.8009  -11.9445   26.9818 C   0  0  0  0  0  0  0  0  0  0  0  0
    6.8611  -12.6661   26.2024 C   0  0  1  0  0  0  0  0  0  0  0  0
    7.3207  -11.6512   25.1512 C   0  0  0  0  0  0  0  0  0  0  0  0
    7.9346  -13.3458   26.8950 C   0  0  0  0  0  0  0  0  0  0  0  0
    8.8402  -14.3221   26.3052 C   0  0  2  0  0  0  0  0  0  0  0  0
    8.1255  -15.2394   25.4087 N   0  0  0  0  0  0  0  0  0  0  0  0
    9.5308  -15.1702   27.2544 C   0  0  0  0  0  0  0  0  0  0  0  0
   10.3285  -14.6654   28.1045 O   0  0  0  0  0  0  0  0  0  0  0  0
    9.3646  -16.5307   27.2988 O   0  0  0  0  0  0  0  0  0  0  0  0
  2  1  1  0
  2  4  1  0
  3  2  2  0
  5  6  1  1
  5  7  1  0
  5  4  1  0
  7  9  1  0
  7  8  2  0
  9 10  1  0
 10 13  1  0
 11 12  1  0
 10 11  1  1
 13 14  2  0
 13 20  1  0
 16 15  1  1
 16 17  1  0
 18 16  1  0
 19 18  1  1
 20 19  1  0
 21 19  1  0
 21 23  1  0
 22 21  2  0
M  END
$$$$
