NCL.pdb
     RDKit          3D

 23 22  0  0  1  0  0  0  0  0999 V2000
   10.5806  -21.1039   20.2706 N   0  0  0  0  0  0  0  0  0  0  0  0
   10.7999  -20.1126   19.2639 C   0  0  0  0  0  0  0  0  0  0  0  0
   11.2377  -20.5354   18.1732 O   0  0  0  0  0  0  0  0  0  0  0  0
   10.4891  -18.7336   19.6255 C   0  0  0  0  0  0  0  0  0  0  0  0
    9.9729  -18.5260   21.0211 C   0  0  2  0  0  0  0  0  0  0  0  0
    8.5378  -18.7815   20.9558 N   0  0  0  0  0  0  0  0  0  0  0  0
   10.1204  -17.0588   21.3361 C   0  0  0  0  0  0  0  0  0  0  0  0
   11.2346  -16.4854   21.3738 O   0  0  0  0  0  0  0  0  0  0  0  0
    8.9866  -16.2284   21.6127 N   0  0  0  0  0  0  0  0  0  0  0  0
    9.0603  -14.8252   21.8718 C   0  0  1  0  0  0  0  0  0  0  0  0
    7.7978  -14.1786   21.3392 C   0  0  0  0  0  0  0  0  0  0  0  0
    6.2996  -15.0142   21.8698 S   0  0  0  0  0  0  0  0  0  0  0  0
    9.1223  -14.5156   23.3344 C   0  0  0  0  0  0  0  0  0  0  0  0
    9.4167  -13.3638   23.7505 O   0  0  0  0  0  0  0  0  0  0  0  0
    5.5883  -12.9764   26.0415 C   0  0  0  0  0  0  0  0  0  0  0  0
    7.0386  -13.3134   25.8534 C   0  0  1  0  0  0  0  0  0  0  0  0
    7.7893  -12.1824   26.5631 C   0  0  0  0  0  0  0  0  0  0  0  0
    7.5202  -14.6430   26.1602 C   0  0  0  0  0  0  0  0  0  0  0  0
    8.8138  -15.1873   25.7707 C   0  0  2  0  0  0  0  0  0  0  0  0
    8.8600  -15.4755   24.3317 N   0  0  0  0  0  0  0  0  0  0  0  0
    9.1799  -16.4266   26.4244 C   0  0  0  0  0  0  0  0  0  0  0  0
    9.2059  -16.5002   27.6924 O   0  0  0  0  0  0  0  0  0  0  0  0
    9.5036  -17.5669   25.7351 O   0  0  0  0  0  0  0  0  0  0  0  0
  2  1  1  0
  2  4  1  0
  3  2  2  0
  5  6  1  6
  5  7  1  0
  5  4  1  0
  7  9  1  0
  7  8  2  0
  9 10  1  0
 10 13  1  0
 11 12  1  0
 10 11  1  1
 13 14  2  0
 13 20  1  0
 16 15  1  1
 16 17  1  0
 18 16  1  0
 19 18  1  1
 20 19  1  0
 21 19  1  0
 21 23  1  0
 22 21  2  0
M  END
$$$$
