NCL.pdb
     RDKit          3D

 23 22  0  0  1  0  0  0  0  0999 V2000
    9.7505  -21.7667   19.2390 N   0  0  0  0  0  0  0  0  0  0  0  0
    8.9092  -21.0414   20.1391 C   0  0  0  0  0  0  0  0  0  0  0  0
    8.1749  -21.7356   20.8732 O   0  0  0  0  0  0  0  0  0  0  0  0
    9.0059  -19.5861   20.0954 C   0  0  0  0  0  0  0  0  0  0  0  0
    8.8876  -18.8847   21.4188 C   0  0  2  0  0  0  0  0  0  0  0  0
    7.4664  -18.8972   21.7492 N   0  0  0  0  0  0  0  0  0  0  0  0
    9.2488  -17.4389   21.1896 C   0  0  0  0  0  0  0  0  0  0  0  0
   10.4342  -17.0514   21.0625 O   0  0  0  0  0  0  0  0  0  0  0  0
    8.2500  -16.4158   21.1032 N   0  0  0  0  0  0  0  0  0  0  0  0
    8.5344  -15.0226   20.9635 C   0  0  1  0  0  0  0  0  0  0  0  0
    7.2738  -14.3272   20.4911 C   0  0  0  0  0  0  0  0  0  0  0  0
    7.4477  -12.5428   20.3916 S   0  0  0  0  0  0  0  0  0  0  0  0
    8.9217  -14.3845   22.2603 C   0  0  0  0  0  0  0  0  0  0  0  0
    9.5962  -13.3213   22.2940 O   0  0  0  0  0  0  0  0  0  0  0  0
    6.8171  -11.1070   26.1017 C   0  0  0  0  0  0  0  0  0  0  0  0
    7.5178  -12.4307   26.1974 C   0  0  1  0  0  0  0  0  0  0  0  0
    6.8527  -13.1305   27.3867 C   0  0  0  0  0  0  0  0  0  0  0  0
    7.6712  -13.2572   25.0196 C   0  0  0  0  0  0  0  0  0  0  0  0
    8.7375  -14.2234   24.7944 C   0  0  2  0  0  0  0  0  0  0  0  0
    8.5646  -14.9199   23.5135 N   0  0  0  0  0  0  0  0  0  0  0  0
    8.8388  -15.2688   25.7916 C   0  0  0  0  0  0  0  0  0  0  0  0
    9.2708  -15.0048   26.9567 O   0  0  0  0  0  0  0  0  0  0  0  0
    8.4770  -16.5691   25.5494 O   0  0  0  0  0  0  0  0  0  0  0  0
  2  1  1  0
  2  4  1  0
  3  2  2  0
  5  6  1  6
  5  7  1  0
  5  4  1  0
  7  9  1  0
  7  8  2  0
  9 10  1  0
 10 13  1  0
 11 12  1  0
 10 11  1  1
 13 14  2  0
 13 20  1  0
 16 15  1  6
 16 17  1  0
 18 16  1  0
 19 18  1  1
 20 19  1  0
 21 19  1  0
 21 23  1  0
 22 21  2  0
M  END
$$$$
