NCL.pdb
     RDKit          3D

 23 22  0  0  1  0  0  0  0  0999 V2000
   10.4984  -17.1079   18.0658 N   0  0  0  0  0  0  0  0  0  0  0  0
    9.1769  -16.5825   17.9180 C   0  0  0  0  0  0  0  0  0  0  0  0
    8.8856  -16.1608   16.7791 O   0  0  0  0  0  0  0  0  0  0  0  0
    8.3296  -16.6002   19.1058 C   0  0  0  0  0  0  0  0  0  0  0  0
    8.9176  -17.2683   20.3163 C   0  0  2  0  0  0  0  0  0  0  0  0
    8.7279  -18.7005   20.1108 N   0  0  0  0  0  0  0  0  0  0  0  0
    8.0509  -16.8984   21.4933 C   0  0  0  0  0  0  0  0  0  0  0  0
    6.9674  -16.2809   21.3659 O   0  0  0  0  0  0  0  0  0  0  0  0
    8.4185  -17.2341   22.8365 N   0  0  0  0  0  0  0  0  0  0  0  0
    7.4972  -17.3238   23.9249 C   0  0  1  0  0  0  0  0  0  0  0  0
    6.4310  -18.3367   23.5600 C   0  0  0  0  0  0  0  0  0  0  0  0
    5.9398  -19.3725   24.9420 S   0  0  0  0  0  0  0  0  0  0  0  0
    8.1439  -17.8094   25.1838 C   0  0  0  0  0  0  0  0  0  0  0  0
    8.4954  -19.0110   25.3209 O   0  0  0  0  0  0  0  0  0  0  0  0
    7.6605  -12.5757   24.5905 C   0  0  0  0  0  0  0  0  0  0  0  0
    7.6622  -13.2517   25.9304 C   0  0  1  0  0  0  0  0  0  0  0  0
    6.5551  -12.5438   26.7174 C   0  0  0  0  0  0  0  0  0  0  0  0
    7.6334  -14.6960   26.0143 C   0  0  0  0  0  0  0  0  0  0  0  0
    8.7946  -15.5591   26.1813 C   0  0  2  0  0  0  0  0  0  0  0  0
    8.4003  -16.9696   26.2856 N   0  0  0  0  0  0  0  0  0  0  0  0
    9.5923  -15.2932   27.3604 C   0  0  0  0  0  0  0  0  0  0  0  0
    9.4493  -16.0014   28.4053 O   0  0  0  0  0  0  0  0  0  0  0  0
   10.5305  -14.2948   27.4174 O   0  0  0  0  0  0  0  0  0  0  0  0
  2  1  1  0
  2  4  1  0
  3  2  2  0
  5  6  1  6
  5  7  1  0
  5  4  1  0
  7  9  1  0
  7  8  2  0
  9 10  1  0
 10 13  1  0
 11 12  1  0
 10 11  1  6
 13 14  2  0
 13 20  1  0
 16 15  1  6
 16 17  1  0
 18 16  1  0
 19 18  1  1
 20 19  1  0
 21 19  1  0
 21 23  1  0
 22 21  2  0
M  END
$$$$
