NCL.pdb
     RDKit          3D

 23 22  0  0  1  0  0  0  0  0999 V2000
   12.1337  -19.9610   18.6373 N   0  0  0  0  0  0  0  0  0  0  0  0
   12.5341  -19.0923   19.7000 C   0  0  0  0  0  0  0  0  0  0  0  0
   13.5768  -19.4201   20.3043 O   0  0  0  0  0  0  0  0  0  0  0  0
   11.6844  -17.9333   19.9524 C   0  0  0  0  0  0  0  0  0  0  0  0
   11.1921  -17.7807   21.3637 C   0  0  2  0  0  0  0  0  0  0  0  0
   10.0814  -18.7172   21.5003 N   0  0  0  0  0  0  0  0  0  0  0  0
   10.5910  -16.4027   21.4784 C   0  0  0  0  0  0  0  0  0  0  0  0
   11.2567  -15.3579   21.2867 O   0  0  0  0  0  0  0  0  0  0  0  0
    9.2128  -16.2060   21.8159 N   0  0  0  0  0  0  0  0  0  0  0  0
    8.6009  -14.9265   21.9889 C   0  0  1  0  0  0  0  0  0  0  0  0
    7.1915  -14.9975   21.4376 C   0  0  0  0  0  0  0  0  0  0  0  0
    6.1270  -16.1081   22.3637 S   0  0  0  0  0  0  0  0  0  0  0  0
    8.4841  -14.5378   23.4291 C   0  0  0  0  0  0  0  0  0  0  0  0
    7.9769  -13.4377   23.7739 O   0  0  0  0  0  0  0  0  0  0  0  0
    5.7452  -12.6316   26.2796 C   0  0  0  0  0  0  0  0  0  0  0  0
    7.1542  -13.0619   25.9932 C   0  0  1  0  0  0  0  0  0  0  0  0
    8.0241  -12.0029   26.6775 C   0  0  0  0  0  0  0  0  0  0  0  0
    7.5601  -14.4286   26.2413 C   0  0  0  0  0  0  0  0  0  0  0  0
    8.8554  -15.0030   25.9046 C   0  0  2  0  0  0  0  0  0  0  0  0
    8.9264  -15.3621   24.4827 N   0  0  0  0  0  0  0  0  0  0  0  0
    9.1965  -16.2119   26.6254 C   0  0  0  0  0  0  0  0  0  0  0  0
    9.3179  -16.1928   27.8898 O   0  0  0  0  0  0  0  0  0  0  0  0
    9.3954  -17.4192   26.0064 O   0  0  0  0  0  0  0  0  0  0  0  0
  2  1  1  0
  2  4  1  0
  3  2  2  0
  5  6  1  6
  5  7  1  0
  5  4  1  0
  7  9  1  0
  7  8  2  0
  9 10  1  0
 10 13  1  0
 11 12  1  0
 10 11  1  1
 13 14  2  0
 13 20  1  0
 16 15  1  1
 16 17  1  0
 18 16  1  0
 19 18  1  1
 20 19  1  0
 21 19  1  0
 21 23  1  0
 22 21  2  0
M  END
$$$$
