FRQ.pdb
     RDKit          3D

 32 32  0  0  1  0  0  0  0  0999 V2000
   26.7872  -20.8392  -17.7237 N   0  0  0  0  0  0  0  0  0  0  0  0
   27.2910  -20.1630  -16.5706 C   0  0  1  0  0  0  0  0  0  0  0  0
   26.8576  -18.7153  -16.6242 C   0  0  0  0  0  0  0  0  0  0  0  0
   27.4922  -17.9911  -17.7449 C   0  0  0  0  0  0  0  0  0  0  0  0
   28.8370  -17.7272  -17.7075 C   0  0  0  0  0  0  0  0  0  0  0  0
   29.4403  -17.0470  -18.7577 C   0  0  0  0  0  0  0  0  0  0  0  0
   28.7162  -16.6255  -19.8481 C   0  0  0  0  0  0  0  0  0  0  0  0
   27.3715  -16.8857  -19.8923 C   0  0  0  0  0  0  0  0  0  0  0  0
   26.7800  -17.5619  -18.8449 C   0  0  0  0  0  0  0  0  0  0  0  0
   26.8925  -20.8108  -15.2992 C   0  0  0  0  0  0  0  0  0  0  0  0
   25.7300  -21.2945  -15.1524 O   0  0  0  0  0  0  0  0  0  0  0  0
   31.5892  -22.0670   -8.6008 N   0  0  0  0  0  0  0  0  0  0  0  0
   31.7248  -22.2978   -9.9969 C   0  0  0  0  0  0  0  0  0  0  0  0
   32.5228  -23.2493  -10.3614 N   0  0  0  0  0  0  0  0  0  0  0  0
   31.0308  -21.5368  -10.9643 N   0  0  0  0  0  0  0  0  0  0  0  0
   30.1739  -20.4562  -10.5505 C   0  0  0  0  0  0  0  0  0  0  0  0
   29.1038  -20.1705  -11.6089 C   0  0  0  0  0  0  0  0  0  0  0  0
   28.3322  -21.4600  -11.8233 C   0  0  0  0  0  0  0  0  0  0  0  0
   27.2765  -21.3335  -12.8752 C   0  0  2  0  0  0  0  0  0  0  0  0
   27.7271  -20.9536  -14.1643 N   0  0  0  0  0  0  0  0  0  0  0  0
   26.1862  -20.5087  -12.3153 C   0  0  0  0  0  0  0  0  0  0  0  0
   26.3108  -19.2614  -12.2479 O   0  0  0  0  0  0  0  0  0  0  0  0
   32.7351  -23.3910  -11.3619 N   0  0  0  0  0  0  0  0  0  0  0  0
   20.6475  -20.2320  -13.9111 C   0  0  0  0  0  0  0  0  0  0  0  0
   20.6055  -21.1644  -12.8573 O   0  0  0  0  0  0  0  0  0  0  0  0
   19.6489  -21.9499  -12.7567 C   0  0  0  0  0  0  0  0  0  0  0  0
   21.7074  -21.2131  -11.8584 C   0  0  0  0  0  0  0  0  0  0  0  0
   22.7281  -20.1743  -12.2176 C   0  0  1  0  0  0  0  0  0  0  0  0
   23.9078  -20.1555  -11.3038 N   0  0  0  0  0  0  0  0  0  0  0  0
   24.9668  -21.0466  -11.8321 C   0  0  0  0  0  0  0  0  0  0  0  0
   23.5809  -20.6432   -9.9596 O   0  0  0  0  0  0  0  0  0  0  0  0
   22.6078  -20.0510   -9.1887 O   0  0  0  0  0  0  0  0  0  0  0  0
  2  1  1  6
  2 10  1  0
  3  2  1  0
  4  3  1  0
  4  5  2  0
  6  5  1  0
  7  6  2  0
  8  9  2  0
  8  7  1  0
  9  4  1  0
 10 20  1  0
 10 11  2  0
 13 12  1  0
 13 14  2  0
 15 13  1  0
 16 15  1  0
 16 17  1  0
 17 18  1  0
 19 18  1  1
 20 19  1  0
 21 19  1  0
 21 29  1  0
 22 21  2  0
 23 24  1  0
 24 25  2  0
 26 24  1  0
 26 27  1  0
 28 27  1  6
 28 29  1  0
 28 30  1  0
 30 31  1  0
 32 30  2  0
M  END
$$$$
