FRQ.pdb
     RDKit          3D

 32 32  0  0  1  0  0  0  0  0999 V2000
   24.4363  -26.1275  -15.3369 N   0  0  0  0  0  0  0  0  0  0  0  0
   24.3382  -24.7653  -15.7561 C   0  0  1  0  0  0  0  0  0  0  0  0
   22.8850  -24.3479  -15.7268 C   0  0  0  0  0  0  0  0  0  0  0  0
   22.0943  -25.0307  -16.7717 C   0  0  0  0  0  0  0  0  0  0  0  0
   22.1670  -24.5965  -18.0700 C   0  0  0  0  0  0  0  0  0  0  0  0
   21.4266  -25.2338  -19.0574 C   0  0  0  0  0  0  0  0  0  0  0  0
   20.6118  -26.3022  -18.7647 C   0  0  0  0  0  0  0  0  0  0  0  0
   20.5340  -26.7416  -17.4690 C   0  0  0  0  0  0  0  0  0  0  0  0
   21.2729  -26.1029  -16.4940 C   0  0  0  0  0  0  0  0  0  0  0  0
   25.1901  -23.8516  -14.9598 C   0  0  0  0  0  0  0  0  0  0  0  0
   25.4299  -24.0863  -13.7374 O   0  0  0  0  0  0  0  0  0  0  0  0
   28.4458  -18.1407  -18.1569 N   0  0  0  0  0  0  0  0  0  0  0  0
   27.5845  -17.4245  -17.2815 C   0  0  0  0  0  0  0  0  0  0  0  0
   26.8079  -16.5376  -17.8155 N   0  0  0  0  0  0  0  0  0  0  0  0
   27.5579  -17.6516  -15.8871 N   0  0  0  0  0  0  0  0  0  0  0  0
   28.5002  -18.5606  -15.2880 C   0  0  0  0  0  0  0  0  0  0  0  0
   27.7823  -19.5999  -14.4212 C   0  0  0  0  0  0  0  0  0  0  0  0
   27.1066  -20.5784  -15.3648 C   0  0  0  0  0  0  0  0  0  0  0  0
   26.3569  -21.6527  -14.6431 C   0  0  2  0  0  0  0  0  0  0  0  0
   25.8002  -22.6733  -15.4542 N   0  0  0  0  0  0  0  0  0  0  0  0
   25.4139  -20.9929  -13.7169 C   0  0  0  0  0  0  0  0  0  0  0  0
   24.2367  -20.7537  -14.0811 O   0  0  0  0  0  0  0  0  0  0  0  0
   26.2228  -15.9344  -17.2154 N   0  0  0  0  0  0  0  0  0  0  0  0
   20.7563  -20.1664  -10.1396 C   0  0  0  0  0  0  0  0  0  0  0  0
   21.0544  -20.1022  -11.5139 O   0  0  0  0  0  0  0  0  0  0  0  0
   20.2215  -20.4848  -12.3518 C   0  0  0  0  0  0  0  0  0  0  0  0
   22.3697  -19.5759  -11.9693 C   0  0  0  0  0  0  0  0  0  0  0  0
   23.3702  -20.6931  -11.9415 C   0  0  2  0  0  0  0  0  0  0  0  0
   24.7032  -20.2874  -11.4069 N   0  0  0  0  0  0  0  0  0  0  0  0
   25.7582  -20.5972  -12.3998 C   0  0  0  0  0  0  0  0  0  0  0  0
   25.0564  -21.0099  -10.1801 O   0  0  0  0  0  0  0  0  0  0  0  0
   24.2672  -20.9598   -9.0548 O   0  0  0  0  0  0  0  0  0  0  0  0
  2  1  1  1
  2 10  1  0
  3  2  1  0
  4  3  1  0
  4  5  2  0
  6  5  1  0
  7  6  2  0
  8  9  2  0
  8  7  1  0
  9  4  1  0
 10 20  1  0
 10 11  2  0
 13 12  1  0
 13 14  2  0
 15 13  1  0
 16 15  1  0
 16 17  1  0
 17 18  1  0
 19 18  1  6
 20 19  1  0
 21 19  1  0
 21 29  1  0
 22 21  2  0
 23 24  1  0
 24 25  2  0
 26 24  1  0
 26 27  1  0
 28 27  1  6
 28 29  1  0
 28 30  1  0
 30 31  1  0
 32 30  2  0
M  END
$$$$
