FRQ.pdb
     RDKit          3D

 32 32  0  0  1  0  0  0  0  0999 V2000
   26.2019  -20.8519  -16.6501 N   0  0  0  0  0  0  0  0  0  0  0  0
   25.7195  -19.9167  -15.6839 C   0  0  1  0  0  0  0  0  0  0  0  0
   25.3657  -18.6255  -16.3871 C   0  0  0  0  0  0  0  0  0  0  0  0
   26.5456  -18.0025  -17.0219 C   0  0  0  0  0  0  0  0  0  0  0  0
   27.5883  -17.5731  -16.2421 C   0  0  0  0  0  0  0  0  0  0  0  0
   28.7006  -16.9868  -16.8322 C   0  0  0  0  0  0  0  0  0  0  0  0
   28.7858  -16.8228  -18.1949 C   0  0  0  0  0  0  0  0  0  0  0  0
   27.7473  -17.2493  -18.9806 C   0  0  0  0  0  0  0  0  0  0  0  0
   26.6459  -17.8309  -18.3864 C   0  0  0  0  0  0  0  0  0  0  0  0
   24.5845  -20.4397  -14.8883 C   0  0  0  0  0  0  0  0  0  0  0  0
   23.7069  -21.1846  -15.4191 O   0  0  0  0  0  0  0  0  0  0  0  0
   19.5569  -21.7511   -9.1207 N   0  0  0  0  0  0  0  0  0  0  0  0
   20.6490  -22.1724   -8.3140 C   0  0  0  0  0  0  0  0  0  0  0  0
   20.4540  -23.1975   -7.5483 N   0  0  0  0  0  0  0  0  0  0  0  0
   21.9016  -21.5188   -8.3284 N   0  0  0  0  0  0  0  0  0  0  0  0
   22.0949  -20.3517   -9.1493 C   0  0  0  0  0  0  0  0  0  0  0  0
   21.9393  -20.6953  -10.6340 C   0  0  0  0  0  0  0  0  0  0  0  0
   23.2171  -20.2612  -11.3292 C   0  0  0  0  0  0  0  0  0  0  0  0
   23.2009  -20.5451  -12.7976 C   0  0  2  0  0  0  0  0  0  0  0  0
   24.3674  -20.1771  -13.5139 N   0  0  0  0  0  0  0  0  0  0  0  0
   21.9311  -20.0190  -13.3392 C   0  0  0  0  0  0  0  0  0  0  0  0
   21.7172  -18.7822  -13.3547 O   0  0  0  0  0  0  0  0  0  0  0  0
   21.2265  -23.5652   -6.9702 N   0  0  0  0  0  0  0  0  0  0  0  0
   18.8351  -21.9324  -18.1423 C   0  0  0  0  0  0  0  0  0  0  0  0
   18.0135  -20.8525  -17.7673 O   0  0  0  0  0  0  0  0  0  0  0  0
   17.1293  -20.4441  -18.5376 C   0  0  0  0  0  0  0  0  0  0  0  0
   18.2011  -20.1948  -16.4457 C   0  0  0  0  0  0  0  0  0  0  0  0
   19.4140  -20.7802  -15.7853 C   0  0  2  0  0  0  0  0  0  0  0  0
   19.6663  -20.2424  -14.4162 N   0  0  0  0  0  0  0  0  0  0  0  0
   20.9016  -20.8425  -13.8605 C   0  0  0  0  0  0  0  0  0  0  0  0
   18.5843  -20.5669  -13.4805 O   0  0  0  0  0  0  0  0  0  0  0  0
   17.3993  -19.8689  -13.4699 O   0  0  0  0  0  0  0  0  0  0  0  0
  2  1  1  6
  2 10  1  0
  3  2  1  0
  4  3  1  0
  4  5  2  0
  6  5  1  0
  7  6  2  0
  8  9  2  0
  8  7  1  0
  9  4  1  0
 10 20  1  0
 10 11  2  0
 13 12  1  0
 13 14  2  0
 15 13  1  0
 16 15  1  0
 16 17  1  0
 17 18  1  0
 19 18  1  1
 20 19  1  0
 21 19  1  0
 21 29  1  0
 22 21  2  0
 23 24  1  0
 24 25  2  0
 26 24  1  0
 26 27  1  0
 28 27  1  6
 28 29  1  0
 28 30  1  0
 30 31  1  0
 32 30  2  0
M  END
$$$$
