FRQ.pdb
     RDKit          3D

 32 32  0  0  1  0  0  0  0  0999 V2000
   27.3923  -15.5671  -18.5363 N   0  0  0  0  0  0  0  0  0  0  0  0
   27.0936  -15.7179  -17.1475 C   0  0  1  0  0  0  0  0  0  0  0  0
   26.0069  -14.7359  -16.7714 C   0  0  0  0  0  0  0  0  0  0  0  0
   26.4727  -13.3367  -16.8634 C   0  0  0  0  0  0  0  0  0  0  0  0
   27.3999  -12.8698  -15.9680 C   0  0  0  0  0  0  0  0  0  0  0  0
   27.8424  -11.5556  -16.0488 C   0  0  0  0  0  0  0  0  0  0  0  0
   27.3697  -10.6987  -17.0149 C   0  0  0  0  0  0  0  0  0  0  0  0
   26.4426  -11.1583  -17.9132 C   0  0  0  0  0  0  0  0  0  0  0  0
   26.0083  -12.4653  -17.8260 C   0  0  0  0  0  0  0  0  0  0  0  0
   26.7320  -17.1069  -16.7805 C   0  0  0  0  0  0  0  0  0  0  0  0
   26.1360  -17.8631  -17.6049 O   0  0  0  0  0  0  0  0  0  0  0  0
   25.3681  -19.7949   -9.8047 N   0  0  0  0  0  0  0  0  0  0  0  0
   25.3854  -21.1821  -10.1146 C   0  0  0  0  0  0  0  0  0  0  0  0
   24.5265  -21.9326   -9.5029 N   0  0  0  0  0  0  0  0  0  0  0  0
   26.2895  -21.7422  -11.0450 N   0  0  0  0  0  0  0  0  0  0  0  0
   27.0965  -20.8824  -11.8712 C   0  0  0  0  0  0  0  0  0  0  0  0
   26.3416  -20.4784  -13.1415 C   0  0  0  0  0  0  0  0  0  0  0  0
   27.2722  -19.5943  -13.9519 C   0  0  0  0  0  0  0  0  0  0  0  0
   26.6154  -19.0283  -15.1706 C   0  0  2  0  0  0  0  0  0  0  0  0
   27.0006  -17.7120  -15.5287 N   0  0  0  0  0  0  0  0  0  0  0  0
   25.1609  -19.2495  -15.0363 C   0  0  0  0  0  0  0  0  0  0  0  0
   24.4535  -18.4243  -14.4084 O   0  0  0  0  0  0  0  0  0  0  0  0
   24.5019  -22.9479   -9.6895 N   0  0  0  0  0  0  0  0  0  0  0  0
   22.0330  -19.1875  -11.5440 C   0  0  0  0  0  0  0  0  0  0  0  0
   20.9611  -19.6714  -12.3177 O   0  0  0  0  0  0  0  0  0  0  0  0
   19.8131  -19.6999  -11.8451 C   0  0  0  0  0  0  0  0  0  0  0  0
   21.1987  -20.1515  -13.7060 C   0  0  0  0  0  0  0  0  0  0  0  0
   22.6718  -20.1054  -13.9851 C   0  0  1  0  0  0  0  0  0  0  0  0
   23.0330  -20.5553  -15.3614 N   0  0  0  0  0  0  0  0  0  0  0  0
   24.4852  -20.3679  -15.5864 C   0  0  0  0  0  0  0  0  0  0  0  0
   22.3441  -19.7825  -16.4005 O   0  0  0  0  0  0  0  0  0  0  0  0
   23.0271  -18.9657  -17.2713 O   0  0  0  0  0  0  0  0  0  0  0  0
  2  1  1  6
  2 10  1  0
  3  2  1  0
  4  3  1  0
  4  5  2  0
  6  5  1  0
  7  6  2  0
  8  9  2  0
  8  7  1  0
  9  4  1  0
 10 20  1  0
 10 11  2  0
 13 12  1  0
 13 14  2  0
 15 13  1  0
 16 15  1  0
 16 17  1  0
 17 18  1  0
 19 18  1  1
 20 19  1  0
 21 19  1  0
 21 29  1  0
 22 21  2  0
 23 24  1  0
 24 25  2  0
 26 24  1  0
 26 27  1  0
 28 27  1  1
 28 29  1  0
 28 30  1  0
 30 31  1  0
 32 30  2  0
M  END
$$$$
