FRQ.pdb
     RDKit          3D

 32 32  0  0  1  0  0  0  0  0999 V2000
   23.5288  -14.7527  -18.0999 N   0  0  0  0  0  0  0  0  0  0  0  0
   23.4760  -15.3466  -16.8017 C   0  0  1  0  0  0  0  0  0  0  0  0
   22.0945  -15.1367  -16.2236 C   0  0  0  0  0  0  0  0  0  0  0  0
   21.7720  -13.7026  -16.0736 C   0  0  0  0  0  0  0  0  0  0  0  0
   20.7995  -13.1399  -16.8592 C   0  0  0  0  0  0  0  0  0  0  0  0
   20.4910  -11.7924  -16.7234 C   0  0  0  0  0  0  0  0  0  0  0  0
   21.1428  -10.9967  -15.8107 C   0  0  0  0  0  0  0  0  0  0  0  0
   22.1161  -11.5522  -15.0221 C   0  0  0  0  0  0  0  0  0  0  0  0
   22.4165  -12.8917  -15.1633 C   0  0  0  0  0  0  0  0  0  0  0  0
   23.8611  -16.7771  -16.8032 C   0  0  0  0  0  0  0  0  0  0  0  0
   23.4834  -17.5512  -17.7332 O   0  0  0  0  0  0  0  0  0  0  0  0
   26.4211  -20.0518  -10.5344 N   0  0  0  0  0  0  0  0  0  0  0  0
   26.7903  -20.9610  -11.5630 C   0  0  0  0  0  0  0  0  0  0  0  0
   26.4714  -22.2037  -11.3924 N   0  0  0  0  0  0  0  0  0  0  0  0
   27.4750  -20.5522  -12.7294 N   0  0  0  0  0  0  0  0  0  0  0  0
   27.5653  -19.1532  -13.0579 C   0  0  0  0  0  0  0  0  0  0  0  0
   26.2358  -18.6354  -13.6158 C   0  0  0  0  0  0  0  0  0  0  0  0
   26.0482  -19.2687  -14.9826 C   0  0  0  0  0  0  0  0  0  0  0  0
   24.8007  -18.8074  -15.6666 C   0  0  2  0  0  0  0  0  0  0  0  0
   24.6555  -17.4050  -15.8135 N   0  0  0  0  0  0  0  0  0  0  0  0
   23.6614  -19.5002  -15.0305 C   0  0  0  0  0  0  0  0  0  0  0  0
   23.1711  -19.0572  -13.9632 O   0  0  0  0  0  0  0  0  0  0  0  0
   26.7409  -22.9079  -12.0978 N   0  0  0  0  0  0  0  0  0  0  0  0
   20.3813  -20.2847  -12.1136 C   0  0  0  0  0  0  0  0  0  0  0  0
   19.5743  -21.1260  -12.9026 O   0  0  0  0  0  0  0  0  0  0  0  0
   18.9445  -22.0586  -12.3775 C   0  0  0  0  0  0  0  0  0  0  0  0
   19.4723  -20.9019  -14.3701 C   0  0  0  0  0  0  0  0  0  0  0  0
   20.7615  -20.3093  -14.8567 C   0  0  1  0  0  0  0  0  0  0  0  0
   21.8905  -21.2846  -14.8936 N   0  0  0  0  0  0  0  0  0  0  0  0
   23.0628  -20.6711  -15.5600 C   0  0  0  0  0  0  0  0  0  0  0  0
   21.5596  -22.4935  -15.6556 O   0  0  0  0  0  0  0  0  0  0  0  0
   20.7433  -23.4746  -15.1429 O   0  0  0  0  0  0  0  0  0  0  0  0
  2  1  1  6
  2 10  1  0
  3  2  1  0
  4  3  1  0
  4  5  2  0
  6  5  1  0
  7  6  2  0
  8  9  2  0
  8  7  1  0
  9  4  1  0
 10 20  1  0
 10 11  2  0
 13 12  1  0
 13 14  2  0
 15 13  1  0
 16 15  1  0
 16 17  1  0
 17 18  1  0
 19 18  1  1
 20 19  1  0
 21 19  1  0
 21 29  1  0
 22 21  2  0
 23 24  1  0
 24 25  2  0
 26 24  1  0
 26 27  1  0
 28 27  1  1
 28 29  1  0
 28 30  1  0
 30 31  1  0
 32 30  2  0
M  END
$$$$
