FRQ.pdb
     RDKit          3D

 32 32  0  0  1  0  0  0  0  0999 V2000
   24.3015  -20.6383  -18.6906 N   0  0  0  0  0  0  0  0  0  0  0  0
   23.5665  -19.8242  -17.7753 C   0  0  1  0  0  0  0  0  0  0  0  0
   22.3972  -19.2016  -18.5047 C   0  0  0  0  0  0  0  0  0  0  0  0
   22.8375  -18.2020  -19.4997 C   0  0  0  0  0  0  0  0  0  0  0  0
   22.9225  -18.5528  -20.8223 C   0  0  0  0  0  0  0  0  0  0  0  0
   23.3354  -17.6181  -21.7631 C   0  0  0  0  0  0  0  0  0  0  0  0
   23.6658  -16.3336  -21.3997 C   0  0  0  0  0  0  0  0  0  0  0  0
   23.5834  -15.9758  -20.0794 C   0  0  0  0  0  0  0  0  0  0  0  0
   23.1722  -16.9104  -19.1511 C   0  0  0  0  0  0  0  0  0  0  0  0
   23.1323  -20.5605  -16.5654 C   0  0  0  0  0  0  0  0  0  0  0  0
   22.9309  -21.8115  -16.6027 O   0  0  0  0  0  0  0  0  0  0  0  0
   25.6211  -20.8272   -8.3894 N   0  0  0  0  0  0  0  0  0  0  0  0
   25.9554  -20.5850   -9.7497 C   0  0  0  0  0  0  0  0  0  0  0  0
   27.1975  -20.7267  -10.0847 N   0  0  0  0  0  0  0  0  0  0  0  0
   24.9940  -20.2055  -10.7131 N   0  0  0  0  0  0  0  0  0  0  0  0
   23.5915  -20.3784  -10.4369 C   0  0  0  0  0  0  0  0  0  0  0  0
   22.8707  -21.0031  -11.6356 C   0  0  0  0  0  0  0  0  0  0  0  0
   23.2374  -20.1789  -12.8565 C   0  0  0  0  0  0  0  0  0  0  0  0
   22.6173  -20.7009  -14.1134 C   0  0  2  0  0  0  0  0  0  0  0  0
   22.9062  -19.9749  -15.2961 N   0  0  0  0  0  0  0  0  0  0  0  0
   21.1829  -20.9272  -13.8420 C   0  0  0  0  0  0  0  0  0  0  0  0
   20.3678  -19.9765  -13.9282 O   0  0  0  0  0  0  0  0  0  0  0  0
   27.5018  -20.5066  -11.0466 N   0  0  0  0  0  0  0  0  0  0  0  0
   18.3942  -26.2794  -12.0797 C   0  0  0  0  0  0  0  0  0  0  0  0
   17.3393  -25.3672  -11.8878 O   0  0  0  0  0  0  0  0  0  0  0  0
   16.2667  -25.7487  -11.3918 C   0  0  0  0  0  0  0  0  0  0  0  0
   17.5044  -23.9410  -12.2789 C   0  0  0  0  0  0  0  0  0  0  0  0
   18.9063  -23.7369  -12.7720 C   0  0  1  0  0  0  0  0  0  0  0  0
   19.2058  -22.3252  -13.1523 N   0  0  0  0  0  0  0  0  0  0  0  0
   20.6444  -22.1872  -13.4782 C   0  0  0  0  0  0  0  0  0  0  0  0
   18.9300  -21.3828  -12.0626 O   0  0  0  0  0  0  0  0  0  0  0  0
   17.8419  -20.5419  -12.0875 O   0  0  0  0  0  0  0  0  0  0  0  0
  2  1  1  6
  2 10  1  0
  3  2  1  0
  4  3  1  0
  4  5  2  0
  6  5  1  0
  7  6  2  0
  8  9  2  0
  8  7  1  0
  9  4  1  0
 10 20  1  0
 10 11  2  0
 13 12  1  0
 13 14  2  0
 15 13  1  0
 16 15  1  0
 16 17  1  0
 17 18  1  0
 19 18  1  1
 20 19  1  0
 21 19  1  0
 21 29  1  0
 22 21  2  0
 23 24  1  0
 24 25  2  0
 26 24  1  0
 26 27  1  0
 28 27  1  6
 28 29  1  0
 28 30  1  0
 30 31  1  0
 32 30  2  0
M  END
$$$$
