FRQ.pdb
     RDKit          3D

 32 32  0  0  1  0  0  0  0  0999 V2000
   24.3313  -24.7702  -14.6109 N   0  0  0  0  0  0  0  0  0  0  0  0
   23.4163  -23.8309  -15.1779 C   0  0  1  0  0  0  0  0  0  0  0  0
   22.7018  -24.4842  -16.3395 C   0  0  0  0  0  0  0  0  0  0  0  0
   23.6259  -24.7979  -17.4490 C   0  0  0  0  0  0  0  0  0  0  0  0
   24.0592  -26.0863  -17.6276 C   0  0  0  0  0  0  0  0  0  0  0  0
   24.9278  -26.3883  -18.6686 C   0  0  0  0  0  0  0  0  0  0  0  0
   25.3711  -25.4178  -19.5362 C   0  0  0  0  0  0  0  0  0  0  0  0
   24.9424  -24.1278  -19.3636 C   0  0  0  0  0  0  0  0  0  0  0  0
   24.0794  -23.8362  -18.3270 C   0  0  0  0  0  0  0  0  0  0  0  0
   22.4647  -23.2785  -14.1860 C   0  0  0  0  0  0  0  0  0  0  0  0
   22.3045  -23.8350  -13.0585 O   0  0  0  0  0  0  0  0  0  0  0  0
   18.5884  -21.9948  -17.0358 N   0  0  0  0  0  0  0  0  0  0  0  0
   18.8509  -20.9033  -17.9079 C   0  0  0  0  0  0  0  0  0  0  0  0
   18.6324  -21.0923  -19.1695 N   0  0  0  0  0  0  0  0  0  0  0  0
   19.3293  -19.6573  -17.4440 N   0  0  0  0  0  0  0  0  0  0  0  0
   19.9497  -19.5620  -16.1481 C   0  0  0  0  0  0  0  0  0  0  0  0
   19.2551  -20.4828  -15.1399 C   0  0  0  0  0  0  0  0  0  0  0  0
   20.0177  -20.3694  -13.8324 C   0  0  0  0  0  0  0  0  0  0  0  0
   20.7096  -21.6406  -13.4551 C   0  0  2  0  0  0  0  0  0  0  0  0
   21.6689  -22.1235  -14.3803 N   0  0  0  0  0  0  0  0  0  0  0  0
   19.6708  -22.6112  -13.0533 C   0  0  0  0  0  0  0  0  0  0  0  0
   19.3196  -23.5212  -13.8434 O   0  0  0  0  0  0  0  0  0  0  0  0
   18.8194  -20.3346  -19.8456 N   0  0  0  0  0  0  0  0  0  0  0  0
   18.8827  -25.2117   -7.6897 C   0  0  0  0  0  0  0  0  0  0  0  0
   17.7006  -25.6829   -8.2916 O   0  0  0  0  0  0  0  0  0  0  0  0
   16.9962  -26.5239   -7.7097 C   0  0  0  0  0  0  0  0  0  0  0  0
   17.2894  -25.1754   -9.6287 C   0  0  0  0  0  0  0  0  0  0  0  0
   18.2945  -24.1610  -10.0877 C   0  0  1  0  0  0  0  0  0  0  0  0
   18.0112  -23.6124  -11.4464 N   0  0  0  0  0  0  0  0  0  0  0  0
   19.0205  -22.5851  -11.7939 C   0  0  0  0  0  0  0  0  0  0  0  0
   16.7014  -22.9564  -11.5219 O   0  0  0  0  0  0  0  0  0  0  0  0
   15.5327  -23.6760  -11.6117 O   0  0  0  0  0  0  0  0  0  0  0  0
  2  1  1  1
  2 10  1  0
  3  2  1  0
  4  3  1  0
  4  5  2  0
  6  5  1  0
  7  6  2  0
  8  9  2  0
  8  7  1  0
  9  4  1  0
 10 20  1  0
 10 11  2  0
 13 12  1  0
 13 14  2  0
 15 13  1  0
 16 15  1  0
 16 17  1  0
 17 18  1  0
 19 18  1  6
 20 19  1  0
 21 19  1  0
 21 29  1  0
 22 21  2  0
 23 24  1  0
 24 25  2  0
 26 24  1  0
 26 27  1  0
 28 27  1  6
 28 29  1  0
 28 30  1  0
 30 31  1  0
 32 30  2  0
M  END
$$$$
