FRQ.pdb
     RDKit          3D

 32 32  0  0  1  0  0  0  0  0999 V2000
   27.1885  -17.2108  -17.6142 N   0  0  0  0  0  0  0  0  0  0  0  0
   26.1624  -16.9255  -16.6621 C   0  0  1  0  0  0  0  0  0  0  0  0
   25.5116  -15.6093  -17.0239 C   0  0  0  0  0  0  0  0  0  0  0  0
   26.4162  -14.4646  -16.7902 C   0  0  0  0  0  0  0  0  0  0  0  0
   26.9120  -13.7623  -17.8581 C   0  0  0  0  0  0  0  0  0  0  0  0
   27.7627  -12.6850  -17.6457 C   0  0  0  0  0  0  0  0  0  0  0  0
   28.1263  -12.2986  -16.3770 C   0  0  0  0  0  0  0  0  0  0  0  0
   27.6348  -12.9961  -15.3047 C   0  0  0  0  0  0  0  0  0  0  0  0
   26.7901  -14.0650  -15.5244 C   0  0  0  0  0  0  0  0  0  0  0  0
   25.1676  -18.0163  -16.5384 C   0  0  0  0  0  0  0  0  0  0  0  0
   24.9700  -18.8273  -17.4923 O   0  0  0  0  0  0  0  0  0  0  0  0
   27.0482  -20.6927  -10.8138 N   0  0  0  0  0  0  0  0  0  0  0  0
   25.7303  -21.1406  -10.5249 C   0  0  0  0  0  0  0  0  0  0  0  0
   25.2723  -20.8963   -9.3393 N   0  0  0  0  0  0  0  0  0  0  0  0
   24.9349  -21.8243  -11.4717 N   0  0  0  0  0  0  0  0  0  0  0  0
   25.2103  -21.6842  -12.8780 C   0  0  0  0  0  0  0  0  0  0  0  0
   24.7402  -20.3207  -13.3944 C   0  0  0  0  0  0  0  0  0  0  0  0
   23.9291  -20.5748  -14.6521 C   0  0  0  0  0  0  0  0  0  0  0  0
   23.4269  -19.3137  -15.2801 C   0  0  2  0  0  0  0  0  0  0  0  0
   24.3680  -18.2601  -15.3955 N   0  0  0  0  0  0  0  0  0  0  0  0
   22.1563  -18.9597  -14.6147 C   0  0  0  0  0  0  0  0  0  0  0  0
   22.1655  -18.2740  -13.5633 O   0  0  0  0  0  0  0  0  0  0  0  0
   24.2913  -21.1206   -9.1078 N   0  0  0  0  0  0  0  0  0  0  0  0
   16.3805  -19.4891  -16.4253 C   0  0  0  0  0  0  0  0  0  0  0  0
   16.2153  -18.4993  -15.4380 O   0  0  0  0  0  0  0  0  0  0  0  0
   15.0760  -18.1458  -15.0931 C   0  0  0  0  0  0  0  0  0  0  0  0
   17.4057  -17.8716  -14.8030 C   0  0  0  0  0  0  0  0  0  0  0  0
   18.6428  -18.4592  -15.4147 C   0  0  2  0  0  0  0  0  0  0  0  0
   19.6474  -18.9147  -14.4093 N   0  0  0  0  0  0  0  0  0  0  0  0
   20.8832  -19.3545  -15.0977 C   0  0  0  0  0  0  0  0  0  0  0  0
   19.1732  -20.0603  -13.6254 O   0  0  0  0  0  0  0  0  0  0  0  0
   19.3950  -21.3569  -14.0269 O   0  0  0  0  0  0  0  0  0  0  0  0
  2  1  1  6
  2 10  1  0
  3  2  1  0
  4  3  1  0
  4  5  2  0
  6  5  1  0
  7  6  2  0
  8  9  2  0
  8  7  1  0
  9  4  1  0
 10 20  1  0
 10 11  2  0
 13 12  1  0
 13 14  2  0
 15 13  1  0
 16 15  1  0
 16 17  1  0
 17 18  1  0
 19 18  1  1
 20 19  1  0
 21 19  1  0
 21 29  1  0
 22 21  2  0
 23 24  1  0
 24 25  2  0
 26 24  1  0
 26 27  1  0
 28 27  1  1
 28 29  1  0
 28 30  1  0
 30 31  1  0
 32 30  2  0
M  END
$$$$
