FRQ.pdb
     RDKit          3D

 32 32  0  0  1  0  0  0  0  0999 V2000
   28.3266  -20.8620   -9.0774 N   0  0  0  0  0  0  0  0  0  0  0  0
   26.9056  -20.7216   -9.0340 C   0  0  1  0  0  0  0  0  0  0  0  0
   26.5559  -19.5648   -8.1250 C   0  0  0  0  0  0  0  0  0  0  0  0
   27.1463  -19.7229   -6.7798 C   0  0  0  0  0  0  0  0  0  0  0  0
   26.6480  -20.6740   -5.9274 C   0  0  0  0  0  0  0  0  0  0  0  0
   27.1984  -20.8283   -4.6615 C   0  0  0  0  0  0  0  0  0  0  0  0
   28.2431  -20.0428   -4.2339 C   0  0  0  0  0  0  0  0  0  0  0  0
   28.7463  -19.0899   -5.0805 C   0  0  0  0  0  0  0  0  0  0  0  0
   28.1937  -18.9432   -6.3365 C   0  0  0  0  0  0  0  0  0  0  0  0
   26.2973  -20.5710  -10.3764 C   0  0  0  0  0  0  0  0  0  0  0  0
   26.4277  -19.4942  -11.0322 O   0  0  0  0  0  0  0  0  0  0  0  0
   27.9016  -20.4067  -16.6039 N   0  0  0  0  0  0  0  0  0  0  0  0
   28.7858  -21.4369  -16.1822 C   0  0  0  0  0  0  0  0  0  0  0  0
   30.0370  -21.2981  -16.4827 N   0  0  0  0  0  0  0  0  0  0  0  0
   28.3442  -22.5720  -15.4659 N   0  0  0  0  0  0  0  0  0  0  0  0
   26.9618  -22.6864  -15.0800 C   0  0  0  0  0  0  0  0  0  0  0  0
   26.6884  -21.9100  -13.7879 C   0  0  0  0  0  0  0  0  0  0  0  0
   25.2347  -22.1492  -13.4222 C   0  0  0  0  0  0  0  0  0  0  0  0
   24.8005  -21.3552  -12.2314 C   0  0  2  0  0  0  0  0  0  0  0  0
   25.5406  -21.5663  -11.0411 N   0  0  0  0  0  0  0  0  0  0  0  0
   23.3365  -21.5076  -12.1039 C   0  0  0  0  0  0  0  0  0  0  0  0
   22.8158  -21.6654  -10.9728 O   0  0  0  0  0  0  0  0  0  0  0  0
   30.7246  -22.0027  -16.1713 N   0  0  0  0  0  0  0  0  0  0  0  0
   20.1594  -17.2203  -11.3326 C   0  0  0  0  0  0  0  0  0  0  0  0
   19.8263  -18.4398  -10.7134 O   0  0  0  0  0  0  0  0  0  0  0  0
   19.6622  -18.4910   -9.4835 C   0  0  0  0  0  0  0  0  0  0  0  0
   19.6694  -19.6739  -11.5298 C   0  0  0  0  0  0  0  0  0  0  0  0
   20.8654  -19.8139  -12.4242 C   0  0  2  0  0  0  0  0  0  0  0  0
   21.0129  -21.1764  -13.0150 N   0  0  0  0  0  0  0  0  0  0  0  0
   22.4483  -21.4873  -13.2087 C   0  0  0  0  0  0  0  0  0  0  0  0
   20.3783  -21.2854  -14.3329 O   0  0  0  0  0  0  0  0  0  0  0  0
   19.0359  -21.5502  -14.4731 O   0  0  0  0  0  0  0  0  0  0  0  0
  2  1  1  6
  2 10  1  0
  3  2  1  0
  4  3  1  0
  4  5  2  0
  6  5  1  0
  7  6  2  0
  8  9  2  0
  8  7  1  0
  9  4  1  0
 10 20  1  0
 10 11  2  0
 13 12  1  0
 13 14  2  0
 15 13  1  0
 16 15  1  0
 16 17  1  0
 17 18  1  0
 19 18  1  6
 20 19  1  0
 21 19  1  0
 21 29  1  0
 22 21  2  0
 23 24  1  0
 24 25  2  0
 26 24  1  0
 26 27  1  0
 28 27  1  1
 28 29  1  0
 28 30  1  0
 30 31  1  0
 32 30  2  0
M  END
$$$$
