FRQ.pdb
     RDKit          3D

 32 32  0  0  1  0  0  0  0  0999 V2000
   25.0669  -18.8498  -19.5885 N   0  0  0  0  0  0  0  0  0  0  0  0
   24.2694  -18.1863  -18.6064 C   0  0  1  0  0  0  0  0  0  0  0  0
   23.2807  -17.2826  -19.3082 C   0  0  0  0  0  0  0  0  0  0  0  0
   23.9429  -16.1137  -19.9233 C   0  0  0  0  0  0  0  0  0  0  0  0
   24.2650  -15.0301  -19.1476 C   0  0  0  0  0  0  0  0  0  0  0  0
   24.8878  -13.9280  -19.7192 C   0  0  0  0  0  0  0  0  0  0  0  0
   25.1942  -13.8933  -21.0594 C   0  0  0  0  0  0  0  0  0  0  0  0
   24.8751  -14.9727  -21.8409 C   0  0  0  0  0  0  0  0  0  0  0  0
   24.2565  -16.0637  -21.2652 C   0  0  0  0  0  0  0  0  0  0  0  0
   23.5960  -19.1238  -17.6777 C   0  0  0  0  0  0  0  0  0  0  0  0
   23.2266  -20.2721  -18.0673 O   0  0  0  0  0  0  0  0  0  0  0  0
   24.9800  -21.1728   -9.4749 N   0  0  0  0  0  0  0  0  0  0  0  0
   25.5206  -21.2337  -10.7883 C   0  0  0  0  0  0  0  0  0  0  0  0
   26.7941  -21.4401  -10.8915 N   0  0  0  0  0  0  0  0  0  0  0  0
   24.7253  -21.0790  -11.9459 N   0  0  0  0  0  0  0  0  0  0  0  0
   23.3119  -20.8341  -11.8204 C   0  0  0  0  0  0  0  0  0  0  0  0
   22.6234  -20.8904  -13.1877 C   0  0  0  0  0  0  0  0  0  0  0  0
   23.1989  -19.7620  -14.0243 C   0  0  0  0  0  0  0  0  0  0  0  0
   22.6851  -19.7643  -15.4289 C   0  0  2  0  0  0  0  0  0  0  0  0
   23.3060  -18.8520  -16.3186 N   0  0  0  0  0  0  0  0  0  0  0  0
   21.2113  -19.6844  -15.3644 C   0  0  0  0  0  0  0  0  0  0  0  0
   20.6511  -18.5971  -15.0821 O   0  0  0  0  0  0  0  0  0  0  0  0
   27.2434  -21.4441  -11.8213 N   0  0  0  0  0  0  0  0  0  0  0  0
   17.0343  -24.2144  -16.6076 C   0  0  0  0  0  0  0  0  0  0  0  0
   16.1673  -23.1614  -16.2598 O   0  0  0  0  0  0  0  0  0  0  0  0
   14.9373  -23.3157  -16.3324 C   0  0  0  0  0  0  0  0  0  0  0  0
   16.7209  -21.8576  -15.8035 C   0  0  0  0  0  0  0  0  0  0  0  0
   18.2151  -21.9002  -15.9271 C   0  0  1  0  0  0  0  0  0  0  0  0
   18.8875  -20.6471  -15.4743 N   0  0  0  0  0  0  0  0  0  0  0  0
   20.3561  -20.7887  -15.6075 C   0  0  0  0  0  0  0  0  0  0  0  0
   18.6209  -20.3487  -14.0631 O   0  0  0  0  0  0  0  0  0  0  0  0
   19.3386  -20.9371  -13.0480 O   0  0  0  0  0  0  0  0  0  0  0  0
  2  1  1  6
  2 10  1  0
  3  2  1  0
  4  3  1  0
  4  5  2  0
  6  5  1  0
  7  6  2  0
  8  9  2  0
  8  7  1  0
  9  4  1  0
 10 20  1  0
 10 11  2  0
 13 12  1  0
 13 14  2  0
 15 13  1  0
 16 15  1  0
 16 17  1  0
 17 18  1  0
 19 18  1  1
 20 19  1  0
 21 19  1  0
 21 29  1  0
 22 21  2  0
 23 24  1  0
 24 25  2  0
 26 24  1  0
 26 27  1  0
 28 27  1  6
 28 29  1  0
 28 30  1  0
 30 31  1  0
 32 30  2  0
M  END
$$$$
