FRQ.pdb
     RDKit          3D

 32 32  0  0  1  0  0  0  0  0999 V2000
   23.9382  -22.9880   11.8386 N   0  0  0  0  0  0  0  0  0  0  0  0
   24.9914  -22.3431   12.5568 C   0  0  1  0  0  0  0  0  0  0  0  0
   25.0999  -22.9665   13.9303 C   0  0  0  0  0  0  0  0  0  0  0  0
   24.0340  -22.4917   14.8367 C   0  0  0  0  0  0  0  0  0  0  0  0
   24.1411  -21.2566   15.4220 C   0  0  0  0  0  0  0  0  0  0  0  0
   23.1427  -20.8039   16.2750 C   0  0  0  0  0  0  0  0  0  0  0  0
   22.0353  -21.5706   16.5523 C   0  0  0  0  0  0  0  0  0  0  0  0
   21.9215  -22.8063   15.9710 C   0  0  0  0  0  0  0  0  0  0  0  0
   22.9178  -23.2485   15.1248 C   0  0  0  0  0  0  0  0  0  0  0  0
   26.2852  -22.3702   11.8357 C   0  0  0  0  0  0  0  0  0  0  0  0
   26.5022  -23.2207   10.9211 O   0  0  0  0  0  0  0  0  0  0  0  0
   33.1474  -17.9022    8.4171 N   0  0  0  0  0  0  0  0  0  0  0  0
   31.8049  -17.9361    7.9506 C   0  0  0  0  0  0  0  0  0  0  0  0
   31.6009  -17.5935    6.7193 N   0  0  0  0  0  0  0  0  0  0  0  0
   30.7235  -18.3227    8.7738 N   0  0  0  0  0  0  0  0  0  0  0  0
   30.9681  -18.7696   10.1205 C   0  0  0  0  0  0  0  0  0  0  0  0
   30.4834  -20.2097   10.3156 C   0  0  0  0  0  0  0  0  0  0  0  0
   29.2392  -20.1484   11.1831 C   0  0  0  0  0  0  0  0  0  0  0  0
   28.5790  -21.4812   11.3410 C   0  0  2  0  0  0  0  0  0  0  0  0
   27.3682  -21.4907   12.0779 N   0  0  0  0  0  0  0  0  0  0  0  0
   29.6083  -22.4369   11.7989 C   0  0  0  0  0  0  0  0  0  0  0  0
   29.8686  -22.5441   13.0222 O   0  0  0  0  0  0  0  0  0  0  0  0
   30.6372  -17.5251    6.3548 N   0  0  0  0  0  0  0  0  0  0  0  0
   32.4757  -26.9513    8.5330 C   0  0  0  0  0  0  0  0  0  0  0  0
   31.7020  -27.4381    9.6036 O   0  0  0  0  0  0  0  0  0  0  0  0
   31.3120  -28.6171    9.6064 C   0  0  0  0  0  0  0  0  0  0  0  0
   31.3475  -26.5418   10.7373 C   0  0  0  0  0  0  0  0  0  0  0  0
   31.8051  -25.1510   10.4118 C   0  0  2  0  0  0  0  0  0  0  0  0
   31.4270  -24.1412   11.4436 N   0  0  0  0  0  0  0  0  0  0  0  0
   30.3481  -23.2701   10.9224 C   0  0  0  0  0  0  0  0  0  0  0  0
   32.5443  -23.2593   11.7978 O   0  0  0  0  0  0  0  0  0  0  0  0
   33.4919  -23.6241   12.7256 O   0  0  0  0  0  0  0  0  0  0  0  0
  2  1  1  6
  2 10  1  0
  3  2  1  0
  4  3  1  0
  4  5  2  0
  6  5  1  0
  7  6  2  0
  8  9  2  0
  8  7  1  0
  9  4  1  0
 10 20  1  0
 10 11  2  0
 13 12  1  0
 13 14  2  0
 15 13  1  0
 16 15  1  0
 16 17  1  0
 17 18  1  0
 19 18  1  1
 20 19  1  0
 21 19  1  0
 21 29  1  0
 22 21  2  0
 23 24  1  0
 24 25  2  0
 26 24  1  0
 26 27  1  0
 28 27  1  1
 28 29  1  0
 28 30  1  0
 30 31  1  0
 32 30  2  0
M  END
$$$$
