FRQ.pdb
     RDKit          3D

 32 32  0  0  1  0  0  0  0  0999 V2000
   25.3727  -19.0812   -7.9527 N   0  0  0  0  0  0  0  0  0  0  0  0
   26.3717  -19.7856   -8.6921 C   0  0  1  0  0  0  0  0  0  0  0  0
   26.7880  -21.0099   -7.9083 C   0  0  0  0  0  0  0  0  0  0  0  0
   27.5294  -20.6528   -6.6811 C   0  0  0  0  0  0  0  0  0  0  0  0
   26.9764  -20.9136   -5.4540 C   0  0  0  0  0  0  0  0  0  0  0  0
   27.6679  -20.5808   -4.2962 C   0  0  0  0  0  0  0  0  0  0  0  0
   28.9081  -19.9890   -4.3476 C   0  0  0  0  0  0  0  0  0  0  0  0
   29.4670  -19.7252   -5.5706 C   0  0  0  0  0  0  0  0  0  0  0  0
   28.7735  -20.0590   -6.7160 C   0  0  0  0  0  0  0  0  0  0  0  0
   25.9388  -20.1317  -10.0659 C   0  0  0  0  0  0  0  0  0  0  0  0
   24.7083  -20.1895  -10.3648 O   0  0  0  0  0  0  0  0  0  0  0  0
   27.8822  -22.1655  -17.4981 N   0  0  0  0  0  0  0  0  0  0  0  0
   28.9078  -22.2550  -16.5178 C   0  0  0  0  0  0  0  0  0  0  0  0
   29.5704  -23.3652  -16.4591 N   0  0  0  0  0  0  0  0  0  0  0  0
   29.2103  -21.1943  -15.6347 N   0  0  0  0  0  0  0  0  0  0  0  0
   28.5016  -19.9454  -15.7407 C   0  0  0  0  0  0  0  0  0  0  0  0
   27.2248  -19.9674  -14.8945 C   0  0  0  0  0  0  0  0  0  0  0  0
   27.6422  -20.2548  -13.4636 C   0  0  0  0  0  0  0  0  0  0  0  0
   26.4885  -20.2423  -12.5118 C   0  0  2  0  0  0  0  0  0  0  0  0
   26.8109  -20.4214  -11.1432 N   0  0  0  0  0  0  0  0  0  0  0  0
   25.4597  -21.1577  -13.0466 C   0  0  0  0  0  0  0  0  0  0  0  0
   25.4697  -22.3718  -12.7279 O   0  0  0  0  0  0  0  0  0  0  0  0
   30.1965  -23.5518  -15.6594 N   0  0  0  0  0  0  0  0  0  0  0  0
   19.2441  -20.1996  -12.5038 C   0  0  0  0  0  0  0  0  0  0  0  0
   20.3890  -20.8113  -11.9592 O   0  0  0  0  0  0  0  0  0  0  0  0
   20.2753  -21.6579  -11.0578 C   0  0  0  0  0  0  0  0  0  0  0  0
   21.7414  -20.4459  -12.4609 C   0  0  0  0  0  0  0  0  0  0  0  0
   22.4690  -21.7017  -12.8400 C   0  0  1  0  0  0  0  0  0  0  0  0
   23.2246  -21.5900  -14.1221 N   0  0  0  0  0  0  0  0  0  0  0  0
   24.4261  -20.7460  -13.9252 C   0  0  0  0  0  0  0  0  0  0  0  0
   22.4347  -20.9550  -15.1825 O   0  0  0  0  0  0  0  0  0  0  0  0
   22.7485  -19.7099  -15.6754 O   0  0  0  0  0  0  0  0  0  0  0  0
  2  1  1  1
  2 10  1  0
  3  2  1  0
  4  3  1  0
  4  5  2  0
  6  5  1  0
  7  6  2  0
  8  9  2  0
  8  7  1  0
  9  4  1  0
 10 20  1  0
 10 11  2  0
 13 12  1  0
 13 14  2  0
 15 13  1  0
 16 15  1  0
 16 17  1  0
 17 18  1  0
 19 18  1  6
 20 19  1  0
 21 19  1  0
 21 29  1  0
 22 21  2  0
 23 24  1  0
 24 25  2  0
 26 24  1  0
 26 27  1  0
 28 27  1  1
 28 29  1  0
 28 30  1  0
 30 31  1  0
 32 30  2  0
M  END
$$$$
