FRQ.pdb
     RDKit          3D

 32 32  0  0  1  0  0  0  0  0999 V2000
   25.3219  -19.3492  -11.1092 N   0  0  0  0  0  0  0  0  0  0  0  0
   25.7856  -20.6876  -11.2950 C   0  0  1  0  0  0  0  0  0  0  0  0
   25.5599  -21.4652  -10.0178 C   0  0  0  0  0  0  0  0  0  0  0  0
   26.3904  -20.9545   -8.9076 C   0  0  0  0  0  0  0  0  0  0  0  0
   27.7285  -21.2503   -8.8692 C   0  0  0  0  0  0  0  0  0  0  0  0
   28.5151  -20.7733   -7.8285 C   0  0  0  0  0  0  0  0  0  0  0  0
   27.9817  -20.0024   -6.8224 C   0  0  0  0  0  0  0  0  0  0  0  0
   26.6449  -19.7028   -6.8541 C   0  0  0  0  0  0  0  0  0  0  0  0
   25.8704  -20.1807   -7.8915 C   0  0  0  0  0  0  0  0  0  0  0  0
   25.1690  -21.3570  -12.4639 C   0  0  0  0  0  0  0  0  0  0  0  0
   23.9595  -21.1392  -12.7747 O   0  0  0  0  0  0  0  0  0  0  0  0
   28.3817  -27.0496  -18.3404 N   0  0  0  0  0  0  0  0  0  0  0  0
   28.0977  -26.9833  -16.9491 C   0  0  0  0  0  0  0  0  0  0  0  0
   28.7295  -27.8099  -16.1793 N   0  0  0  0  0  0  0  0  0  0  0  0
   27.1714  -26.0653  -16.4050 N   0  0  0  0  0  0  0  0  0  0  0  0
   26.4859  -25.1382  -17.2675 C   0  0  0  0  0  0  0  0  0  0  0  0
   25.4402  -24.3357  -16.4870 C   0  0  0  0  0  0  0  0  0  0  0  0
   26.1443  -23.7368  -15.2829 C   0  0  0  0  0  0  0  0  0  0  0  0
   25.2303  -22.9186  -14.4272 C   0  0  2  0  0  0  0  0  0  0  0  0
   25.8322  -22.2690  -13.3204 N   0  0  0  0  0  0  0  0  0  0  0  0
   24.0520  -23.7516  -14.1104 C   0  0  0  0  0  0  0  0  0  0  0  0
   24.1562  -24.7108  -13.3073 O   0  0  0  0  0  0  0  0  0  0  0  0
   28.5072  -27.8509  -15.1718 N   0  0  0  0  0  0  0  0  0  0  0  0
   18.1922  -22.1498  -12.1442 C   0  0  0  0  0  0  0  0  0  0  0  0
   19.3432  -21.6823  -12.8063 O   0  0  0  0  0  0  0  0  0  0  0  0
   19.3466  -20.5580  -13.3334 C   0  0  0  0  0  0  0  0  0  0  0  0
   20.5615  -22.5338  -12.8779 C   0  0  0  0  0  0  0  0  0  0  0  0
   20.4194  -23.4799  -14.0332 C   0  0  2  0  0  0  0  0  0  0  0  0
   21.6110  -24.3547  -14.2383 N   0  0  0  0  0  0  0  0  0  0  0  0
   22.7674  -23.5355  -14.6698 C   0  0  0  0  0  0  0  0  0  0  0  0
   21.3934  -25.3583  -15.2858 O   0  0  0  0  0  0  0  0  0  0  0  0
   22.0648  -25.3135  -16.4854 O   0  0  0  0  0  0  0  0  0  0  0  0
  2  1  1  1
  2 10  1  0
  3  2  1  0
  4  3  1  0
  4  5  2  0
  6  5  1  0
  7  6  2  0
  8  9  2  0
  8  7  1  0
  9  4  1  0
 10 20  1  0
 10 11  2  0
 13 12  1  0
 13 14  2  0
 15 13  1  0
 16 15  1  0
 16 17  1  0
 17 18  1  0
 19 18  1  1
 20 19  1  0
 21 19  1  0
 21 29  1  0
 22 21  2  0
 23 24  1  0
 24 25  2  0
 26 24  1  0
 26 27  1  0
 28 27  1  1
 28 29  1  0
 28 30  1  0
 30 31  1  0
 32 30  2  0
M  END
$$$$
