LMV.pdb
     RDKit          3D

 24 23  0  0  1  0  0  0  0  0999 V2000
   25.5055  -17.9448  -14.7917 C   0  0  0  0  0  0  0  0  0  0  0  0
   24.7632  -19.2216  -15.1119 C   0  0  2  0  0  0  0  0  0  0  0  0
   23.4114  -18.8386  -15.7012 C   0  0  0  0  0  0  0  0  0  0  0  0
   24.5278  -20.0886  -13.9115 C   0  0  0  0  0  0  0  0  0  0  0  0
   25.8531  -20.4054  -13.2490 C   0  0  2  0  0  0  0  0  0  0  0  0
   26.6414  -21.3216  -14.0466 N   0  0  0  0  0  0  0  0  0  0  0  0
   25.5951  -21.0493  -11.9134 C   0  0  0  0  0  0  0  0  0  0  0  0
   25.2420  -22.2552  -11.8408 O   0  0  0  0  0  0  0  0  0  0  0  0
   28.9372  -19.1533   -7.1817 C   0  0  0  0  0  0  0  0  0  0  0  0
   27.4761  -19.3785   -6.1168 S   0  0  0  0  0  0  0  0  0  0  0  0
   26.2220  -20.3961   -7.0006 C   0  0  0  0  0  0  0  0  0  0  0  0
   26.3637  -20.0317   -8.4412 C   0  0  0  0  0  0  0  0  0  0  0  0
   25.5326  -20.8288   -9.3984 C   0  0  2  0  0  0  0  0  0  0  0  0
   25.7535  -20.2890  -10.7460 N   0  0  0  0  0  0  0  0  0  0  0  0
   24.1051  -20.7210   -9.1039 C   0  0  0  0  0  0  0  0  0  0  0  0
   23.5090  -19.6172   -9.3447 O   0  0  0  0  0  0  0  0  0  0  0  0
   21.2067  -22.1422  -10.5905 C   0  0  0  0  0  0  0  0  0  0  0  0
   20.9649  -22.3230   -9.0819 C   0  0  2  0  0  0  0  0  0  0  0  0
   19.5127  -22.0266   -8.7729 C   0  0  0  0  0  0  0  0  0  0  0  0
   21.9153  -21.4939   -8.3009 C   0  0  2  0  0  0  0  0  0  0  0  0
   23.3006  -21.7699   -8.5574 N   0  0  0  0  0  0  0  0  0  0  0  0
   21.6306  -21.8533   -6.8252 C   0  0  0  0  0  0  0  0  0  0  0  0
   22.3815  -22.5283   -6.1425 O   0  0  0  0  0  0  0  0  0  0  0  0
   20.4462  -21.3513   -6.3301 O   0  0  0  0  0  0  0  0  0  0  0  0
  2  1  1  1
  3  2  1  0
  4  5  1  0
  4  2  1  0
  5  6  1  6
  7  5  1  0
  7  8  2  0
 10  9  1  0
 11 10  1  0
 12 11  1  0
 13 12  1  1
 13 14  1  0
 14  7  1  0
 15 13  1  0
 16 15  2  0
 18 17  1  6
 18 20  1  0
 19 18  1  0
 20 21  1  6
 20 22  1  0
 21 15  1  0
 22 24  1  0
 23 22  2  0
M  END
$$$$
