LMV.pdb
     RDKit          3D

 24 23  0  0  1  0  0  0  0  0999 V2000
   27.7755  -17.0346  -17.6611 C   0  0  0  0  0  0  0  0  0  0  0  0
   28.6531  -17.5159  -16.5289 C   0  0  2  0  0  0  0  0  0  0  0  0
   29.9635  -18.0061  -17.1322 C   0  0  0  0  0  0  0  0  0  0  0  0
   28.0453  -18.6381  -15.7421 C   0  0  0  0  0  0  0  0  0  0  0  0
   26.6646  -18.2328  -15.2675 C   0  0  2  0  0  0  0  0  0  0  0  0
   26.7310  -17.1876  -14.2675 N   0  0  0  0  0  0  0  0  0  0  0  0
   25.9844  -19.4265  -14.6533 C   0  0  0  0  0  0  0  0  0  0  0  0
   25.9054  -20.5135  -15.2830 O   0  0  0  0  0  0  0  0  0  0  0  0
   25.0355  -21.1165   -8.0616 C   0  0  0  0  0  0  0  0  0  0  0  0
   26.4128  -20.2482   -8.8790 S   0  0  0  0  0  0  0  0  0  0  0  0
   26.4210  -20.6600  -10.6733 C   0  0  0  0  0  0  0  0  0  0  0  0
   25.0831  -20.2350  -11.1808 C   0  0  0  0  0  0  0  0  0  0  0  0
   24.8451  -20.4474  -12.6440 C   0  0  2  0  0  0  0  0  0  0  0  0
   25.4380  -19.3151  -13.3668 N   0  0  0  0  0  0  0  0  0  0  0  0
   23.4200  -20.4846  -12.9662 C   0  0  0  0  0  0  0  0  0  0  0  0
   22.7800  -19.3824  -13.0528 O   0  0  0  0  0  0  0  0  0  0  0  0
   21.7939  -22.4835  -15.8659 C   0  0  0  0  0  0  0  0  0  0  0  0
   20.8657  -22.5282  -14.6398 C   0  0  2  0  0  0  0  0  0  0  0  0
   19.4341  -22.3369  -15.0935 C   0  0  0  0  0  0  0  0  0  0  0  0
   21.2999  -21.5383  -13.6238 C   0  0  2  0  0  0  0  0  0  0  0  0
   22.6641  -21.6765  -13.1986 N   0  0  0  0  0  0  0  0  0  0  0  0
   20.3969  -21.8089  -12.3994 C   0  0  0  0  0  0  0  0  0  0  0  0
   20.6804  -22.6035  -11.5197 O   0  0  0  0  0  0  0  0  0  0  0  0
   19.2280  -21.0788  -12.3753 O   0  0  0  0  0  0  0  0  0  0  0  0
  2  1  1  6
  3  2  1  0
  4  5  1  0
  4  2  1  0
  5  6  1  1
  7  5  1  0
  7  8  2  0
 10  9  1  0
 11 10  1  0
 12 11  1  0
 13 12  1  1
 13 14  1  0
 14  7  1  0
 15 13  1  0
 16 15  2  0
 18 17  1  6
 18 20  1  0
 19 18  1  0
 20 21  1  1
 20 22  1  0
 21 15  1  0
 22 24  1  0
 23 22  2  0
M  END
$$$$
