LMV.pdb
     RDKit          3D

 24 23  0  0  1  0  0  0  0  0999 V2000
   19.4887  -11.7780  -22.9548 C   0  0  0  0  0  0  0  0  0  0  0  0
   18.2048  -11.1102  -22.5199 C   0  0  2  0  0  0  0  0  0  0  0  0
   17.9226   -9.9691  -23.4893 C   0  0  0  0  0  0  0  0  0  0  0  0
   18.2688  -10.5471  -21.1318 C   0  0  0  0  0  0  0  0  0  0  0  0
   18.5413  -11.6643  -20.1452 C   0  0  2  0  0  0  0  0  0  0  0  0
   17.3811  -12.5123  -19.9675 N   0  0  0  0  0  0  0  0  0  0  0  0
   18.8945  -11.0672  -18.8097 C   0  0  0  0  0  0  0  0  0  0  0  0
   18.0010  -10.8401  -17.9527 O   0  0  0  0  0  0  0  0  0  0  0  0
   24.9972  -11.2842  -13.9224 C   0  0  0  0  0  0  0  0  0  0  0  0
   24.1165  -11.6662  -15.4708 S   0  0  0  0  0  0  0  0  0  0  0  0
   22.6277  -10.5925  -15.6124 C   0  0  0  0  0  0  0  0  0  0  0  0
   21.9746  -10.9922  -16.8938 C   0  0  0  0  0  0  0  0  0  0  0  0
   20.6937  -10.2876  -17.2182 C   0  0  2  0  0  0  0  0  0  0  0  0
   20.2347  -10.7661  -18.5285 N   0  0  0  0  0  0  0  0  0  0  0  0
   20.8742   -8.8402  -17.3108 C   0  0  0  0  0  0  0  0  0  0  0  0
   21.4144   -8.3536  -18.3611 O   0  0  0  0  0  0  0  0  0  0  0  0
   18.9267   -6.1807  -18.1831 C   0  0  0  0  0  0  0  0  0  0  0  0
   19.5612   -5.6969  -16.8677 C   0  0  2  0  0  0  0  0  0  0  0  0
   19.8517   -4.2148  -16.9723 C   0  0  0  0  0  0  0  0  0  0  0  0
   20.7571   -6.5106  -16.5383 C   0  0  2  0  0  0  0  0  0  0  0  0
   20.4883   -7.9011  -16.3032 N   0  0  0  0  0  0  0  0  0  0  0  0
   21.2932   -5.9070  -15.2207 C   0  0  0  0  0  0  0  0  0  0  0  0
   21.8408   -4.8201  -15.1550 O   0  0  0  0  0  0  0  0  0  0  0  0
   21.1084   -6.7001  -14.1086 O   0  0  0  0  0  0  0  0  0  0  0  0
  2  1  1  6
  3  2  1  0
  4  5  1  0
  4  2  1  0
  5  6  1  1
  7  5  1  0
  7  8  2  0
 10  9  1  0
 11 10  1  0
 12 11  1  0
 13 12  1  6
 13 14  1  0
 14  7  1  0
 15 13  1  0
 16 15  2  0
 18 17  1  6
 18 20  1  0
 19 18  1  0
 20 21  1  1
 20 22  1  0
 21 15  1  0
 22 24  1  0
 23 22  2  0
M  END
$$$$
