LMV.pdb
     RDKit          3D

 24 23  0  0  1  0  0  0  0  0999 V2000
   19.1848  -23.9780   -8.9005 C   0  0  0  0  0  0  0  0  0  0  0  0
   19.0008  -22.5500   -8.4416 C   0  0  2  0  0  0  0  0  0  0  0  0
   17.6783  -22.0466   -9.0063 C   0  0  0  0  0  0  0  0  0  0  0  0
   20.0927  -21.6323   -8.9037 C   0  0  0  0  0  0  0  0  0  0  0  0
   21.4371  -22.2037   -8.5017 C   0  0  2  0  0  0  0  0  0  0  0  0
   21.5448  -22.3512   -7.0652 N   0  0  0  0  0  0  0  0  0  0  0  0
   22.5259  -21.2713   -8.9600 C   0  0  0  0  0  0  0  0  0  0  0  0
   22.3178  -20.4523   -9.8928 O   0  0  0  0  0  0  0  0  0  0  0  0
   26.8401  -19.6144   -5.1287 C   0  0  0  0  0  0  0  0  0  0  0  0
   27.6896  -18.9510   -6.5976 S   0  0  0  0  0  0  0  0  0  0  0  0
   27.3050  -20.0036   -8.0582 C   0  0  0  0  0  0  0  0  0  0  0  0
   26.0062  -20.6648   -7.7358 C   0  0  0  0  0  0  0  0  0  0  0  0
   24.9280  -20.5167   -8.7645 C   0  0  2  0  0  0  0  0  0  0  0  0
   23.7795  -21.3241   -8.3341 N   0  0  0  0  0  0  0  0  0  0  0  0
   25.3514  -21.0071  -10.0746 C   0  0  0  0  0  0  0  0  0  0  0  0
   25.6898  -22.2332  -10.1924 O   0  0  0  0  0  0  0  0  0  0  0  0
   23.6122  -20.4778  -13.6481 C   0  0  0  0  0  0  0  0  0  0  0  0
   25.1386  -20.2927  -13.7022 C   0  0  2  0  0  0  0  0  0  0  0  0
   25.6645  -20.8807  -14.9943 C   0  0  0  0  0  0  0  0  0  0  0  0
   25.7742  -20.8668  -12.4909 C   0  0  2  0  0  0  0  0  0  0  0  0
   25.4199  -20.2135  -11.2626 N   0  0  0  0  0  0  0  0  0  0  0  0
   27.2907  -20.6653  -12.7091 C   0  0  0  0  0  0  0  0  0  0  0  0
   27.9266  -19.7582  -12.2008 O   0  0  0  0  0  0  0  0  0  0  0  0
   27.8807  -21.5970  -13.5360 O   0  0  0  0  0  0  0  0  0  0  0  0
  2  1  1  6
  3  2  1  0
  4  5  1  0
  4  2  1  0
  5  6  1  1
  7  5  1  0
  7  8  2  0
 10  9  1  0
 11 10  1  0
 12 11  1  0
 13 12  1  1
 13 14  1  0
 14  7  1  0
 15 13  1  0
 16 15  2  0
 18 17  1  1
 18 20  1  0
 19 18  1  0
 20 21  1  1
 20 22  1  0
 21 15  1  0
 22 24  1  0
 23 22  2  0
M  END
$$$$
