LMV.pdb
     RDKit          3D

 24 23  0  0  1  0  0  0  0  0999 V2000
   28.4137  -17.1455  -15.2225 C   0  0  0  0  0  0  0  0  0  0  0  0
   27.6604  -18.0377  -16.1817 C   0  0  2  0  0  0  0  0  0  0  0  0
   26.8070  -17.1454  -17.0743 C   0  0  0  0  0  0  0  0  0  0  0  0
   26.7599  -19.0208  -15.4957 C   0  0  0  0  0  0  0  0  0  0  0  0
   27.5760  -19.8808  -14.5522 C   0  0  2  0  0  0  0  0  0  0  0  0
   28.4332  -20.7977  -15.2744 N   0  0  0  0  0  0  0  0  0  0  0  0
   26.6435  -20.6901  -13.6918 C   0  0  0  0  0  0  0  0  0  0  0  0
   26.1604  -21.7733  -14.1132 O   0  0  0  0  0  0  0  0  0  0  0  0
   27.1590  -19.9438   -7.6547 C   0  0  0  0  0  0  0  0  0  0  0  0
   25.3831  -20.3096   -7.4772 S   0  0  0  0  0  0  0  0  0  0  0  0
   24.7294  -20.9699   -9.0666 C   0  0  0  0  0  0  0  0  0  0  0  0
   25.6201  -20.4058  -10.1232 C   0  0  0  0  0  0  0  0  0  0  0  0
   25.3945  -20.9252  -11.5095 C   0  0  2  0  0  0  0  0  0  0  0  0
   26.3177  -20.2235  -12.4104 N   0  0  0  0  0  0  0  0  0  0  0  0
   24.0338  -20.6658  -11.9757 C   0  0  0  0  0  0  0  0  0  0  0  0
   23.7247  -19.4820  -12.3428 O   0  0  0  0  0  0  0  0  0  0  0  0
   22.2380  -22.3801  -14.8341 C   0  0  0  0  0  0  0  0  0  0  0  0
   21.2385  -22.2262  -13.6746 C   0  0  2  0  0  0  0  0  0  0  0  0
   19.8844  -21.8443  -14.2338 C   0  0  0  0  0  0  0  0  0  0  0  0
   21.7540  -21.2649  -12.6692 C   0  0  2  0  0  0  0  0  0  0  0  0
   22.9959  -21.6465  -12.0584 N   0  0  0  0  0  0  0  0  0  0  0  0
   20.6759  -21.2368  -11.5625 C   0  0  0  0  0  0  0  0  0  0  0  0
   19.7000  -20.5073  -11.5955 O   0  0  0  0  0  0  0  0  0  0  0  0
   20.9029  -22.1063  -10.5174 O   0  0  0  0  0  0  0  0  0  0  0  0
  2  1  1  1
  3  2  1  0
  4  5  1  0
  4  2  1  0
  5  6  1  6
  7  5  1  0
  7  8  2  0
 10  9  1  0
 11 10  1  0
 12 11  1  0
 13 12  1  1
 13 14  1  0
 14  7  1  0
 15 13  1  0
 16 15  2  0
 18 17  1  6
 18 20  1  0
 19 18  1  0
 20 21  1  1
 20 22  1  0
 21 15  1  0
 22 24  1  0
 23 22  2  0
M  END
$$$$
