LMV.pdb
     RDKit          3D

 24 23  0  0  1  0  0  0  0  0999 V2000
   29.5050  -18.1261  -15.8735 C   0  0  0  0  0  0  0  0  0  0  0  0
   28.5292  -18.7461  -16.8468 C   0  0  2  0  0  0  0  0  0  0  0  0
   27.9234  -17.6219  -17.6778 C   0  0  0  0  0  0  0  0  0  0  0  0
   27.4150  -19.4925  -16.1764 C   0  0  0  0  0  0  0  0  0  0  0  0
   27.9946  -20.5673  -15.2794 C   0  0  2  0  0  0  0  0  0  0  0  0
   28.5548  -21.6583  -16.0493 N   0  0  0  0  0  0  0  0  0  0  0  0
   26.9019  -21.1226  -14.4062 C   0  0  0  0  0  0  0  0  0  0  0  0
   26.0844  -21.9651  -14.8603 O   0  0  0  0  0  0  0  0  0  0  0  0
   26.2494  -18.9043   -7.9754 C   0  0  0  0  0  0  0  0  0  0  0  0
   26.0938  -20.7150   -8.1035 S   0  0  0  0  0  0  0  0  0  0  0  0
   25.2341  -21.1489   -9.6726 C   0  0  0  0  0  0  0  0  0  0  0  0
   26.1972  -20.8005  -10.7584 C   0  0  0  0  0  0  0  0  0  0  0  0
   25.7773  -21.1773  -12.1456 C   0  0  2  0  0  0  0  0  0  0  0  0
   26.8040  -20.6905  -13.0759 N   0  0  0  0  0  0  0  0  0  0  0  0
   24.5075  -20.5578  -12.5197 C   0  0  0  0  0  0  0  0  0  0  0  0
   24.4671  -19.2925  -12.6904 O   0  0  0  0  0  0  0  0  0  0  0  0
   21.3669  -22.2383  -14.6998 C   0  0  0  0  0  0  0  0  0  0  0  0
   21.6425  -20.7418  -14.4727 C   0  0  2  0  0  0  0  0  0  0  0  0
   22.6054  -20.2481  -15.5315 C   0  0  0  0  0  0  0  0  0  0  0  0
   22.1174  -20.5059  -13.0872 C   0  0  2  0  0  0  0  0  0  0  0  0
   23.2789  -21.2635  -12.7158 N   0  0  0  0  0  0  0  0  0  0  0  0
   20.9490  -20.9664  -12.1869 C   0  0  0  0  0  0  0  0  0  0  0  0
   20.9867  -21.9744  -11.5028 O   0  0  0  0  0  0  0  0  0  0  0  0
   19.8427  -20.1447  -12.2166 O   0  0  0  0  0  0  0  0  0  0  0  0
  2  1  1  1
  3  2  1  0
  4  5  1  0
  4  2  1  0
  5  6  1  6
  7  5  1  0
  7  8  2  0
 10  9  1  0
 11 10  1  0
 12 11  1  0
 13 12  1  1
 13 14  1  0
 14  7  1  0
 15 13  1  0
 16 15  2  0
 18 17  1  6
 18 20  1  0
 19 18  1  0
 20 21  1  1
 20 22  1  0
 21 15  1  0
 22 24  1  0
 23 22  2  0
M  END
$$$$
