LMV.pdb
     RDKit          3D

 24 23  0  0  1  0  0  0  0  0999 V2000
   25.5124  -18.2674  -14.8342 C   0  0  0  0  0  0  0  0  0  0  0  0
   24.6449  -19.4982  -14.9624 C   0  0  2  0  0  0  0  0  0  0  0  0
   23.3340  -19.0774  -15.6148 C   0  0  0  0  0  0  0  0  0  0  0  0
   24.3325  -20.1442  -13.6460 C   0  0  0  0  0  0  0  0  0  0  0  0
   25.6225  -20.5566  -12.9665 C   0  0  2  0  0  0  0  0  0  0  0  0
   26.3281  -21.5642  -13.7306 N   0  0  0  0  0  0  0  0  0  0  0  0
   25.3044  -21.1323  -11.6129 C   0  0  0  0  0  0  0  0  0  0  0  0
   24.8904  -22.3157  -11.5009 O   0  0  0  0  0  0  0  0  0  0  0  0
   28.7243  -19.3960   -6.6750 C   0  0  0  0  0  0  0  0  0  0  0  0
   27.1073  -19.2510   -5.8483 S   0  0  0  0  0  0  0  0  0  0  0  0
   25.8751  -20.3068   -6.7180 C   0  0  0  0  0  0  0  0  0  0  0  0
   26.0414  -19.9930   -8.1678 C   0  0  0  0  0  0  0  0  0  0  0  0
   25.2136  -20.8118   -9.1095 C   0  0  2  0  0  0  0  0  0  0  0  0
   25.4755  -20.3338  -10.4731 N   0  0  0  0  0  0  0  0  0  0  0  0
   23.7828  -20.6614   -8.8519 C   0  0  0  0  0  0  0  0  0  0  0  0
   23.1801  -19.6327   -9.3104 O   0  0  0  0  0  0  0  0  0  0  0  0
   20.8268  -23.5284   -8.6883 C   0  0  0  0  0  0  0  0  0  0  0  0
   20.6799  -22.0070   -8.8637 C   0  0  2  0  0  0  0  0  0  0  0  0
   20.8975  -21.6518  -10.3192 C   0  0  0  0  0  0  0  0  0  0  0  0
   21.5895  -21.2877   -7.9385 C   0  0  2  0  0  0  0  0  0  0  0  0
   22.9821  -21.5890   -8.1141 N   0  0  0  0  0  0  0  0  0  0  0  0
   21.1791  -21.7699   -6.5289 C   0  0  0  0  0  0  0  0  0  0  0  0
   21.8895  -22.4670   -5.8255 O   0  0  0  0  0  0  0  0  0  0  0  0
   19.9310  -21.3519   -6.1197 O   0  0  0  0  0  0  0  0  0  0  0  0
  2  1  1  1
  3  2  1  0
  4  5  1  0
  4  2  1  0
  5  6  1  6
  7  5  1  0
  7  8  2  0
 10  9  1  0
 11 10  1  0
 12 11  1  0
 13 12  1  1
 13 14  1  0
 14  7  1  0
 15 13  1  0
 16 15  2  0
 18 17  1  6
 18 20  1  0
 19 18  1  0
 20 21  1  6
 20 22  1  0
 21 15  1  0
 22 24  1  0
 23 22  2  0
M  END
$$$$
