LMV.pdb
     RDKit          3D

 24 23  0  0  1  0  0  0  0  0999 V2000
   21.4740  -28.1206  -10.6672 C   0  0  0  0  0  0  0  0  0  0  0  0
   20.2413  -27.9658  -11.5275 C   0  0  2  0  0  0  0  0  0  0  0  0
   20.4708  -26.7834  -12.4606 C   0  0  0  0  0  0  0  0  0  0  0  0
   18.9935  -27.7093  -10.7366 C   0  0  0  0  0  0  0  0  0  0  0  0
   18.7834  -28.8352   -9.7447 C   0  0  2  0  0  0  0  0  0  0  0  0
   18.3846  -30.0600  -10.4062 N   0  0  0  0  0  0  0  0  0  0  0  0
   17.6943  -28.4467   -8.7815 C   0  0  0  0  0  0  0  0  0  0  0  0
   16.4867  -28.6744   -9.0537 O   0  0  0  0  0  0  0  0  0  0  0  0
   19.5489  -26.3969   -2.8219 C   0  0  0  0  0  0  0  0  0  0  0  0
   17.9746  -27.2813   -2.5797 S   0  0  0  0  0  0  0  0  0  0  0  0
   16.9027  -27.0448   -4.0577 C   0  0  0  0  0  0  0  0  0  0  0  0
   17.7359  -27.4712   -5.2205 C   0  0  0  0  0  0  0  0  0  0  0  0
   17.0542  -27.4447   -6.5535 C   0  0  2  0  0  0  0  0  0  0  0  0
   18.0402  -27.8266   -7.5725 N   0  0  0  0  0  0  0  0  0  0  0  0
   16.5611  -26.1103   -6.8889 C   0  0  0  0  0  0  0  0  0  0  0  0
   17.4073  -25.1874   -7.1418 O   0  0  0  0  0  0  0  0  0  0  0  0
   14.2887  -24.9391   -9.6884 C   0  0  0  0  0  0  0  0  0  0  0  0
   13.8184  -24.2737   -8.3834 C   0  0  2  0  0  0  0  0  0  0  0  0
   13.4164  -22.8430   -8.6724 C   0  0  0  0  0  0  0  0  0  0  0  0
   14.8610  -24.3932   -7.3349 C   0  0  2  0  0  0  0  0  0  0  0  0
   15.1809  -25.7416   -6.9601 N   0  0  0  0  0  0  0  0  0  0  0  0
   14.2566  -23.6930   -6.0971 C   0  0  0  0  0  0  0  0  0  0  0  0
   13.8433  -24.2950   -5.1212 O   0  0  0  0  0  0  0  0  0  0  0  0
   14.2141  -22.3176   -6.1789 O   0  0  0  0  0  0  0  0  0  0  0  0
  2  1  1  1
  3  2  1  0
  4  5  1  0
  4  2  1  0
  5  6  1  6
  7  5  1  0
  7  8  2  0
 10  9  1  0
 11 10  1  0
 12 11  1  0
 13 12  1  1
 13 14  1  0
 14  7  1  0
 15 13  1  0
 16 15  2  0
 18 17  1  6
 18 20  1  0
 19 18  1  0
 20 21  1  1
 20 22  1  0
 21 15  1  0
 22 24  1  0
 23 22  2  0
M  END
$$$$
