LMV.pdb
     RDKit          3D

 24 23  0  0  1  0  0  0  0  0999 V2000
   13.9686   -7.8992  -15.7312 C   0  0  0  0  0  0  0  0  0  0  0  0
   13.9246   -9.3110  -15.1940 C   0  0  2  0  0  0  0  0  0  0  0  0
   12.4638   -9.6731  -14.9566 C   0  0  0  0  0  0  0  0  0  0  0  0
   14.6696   -9.4790  -13.9038 C   0  0  0  0  0  0  0  0  0  0  0  0
   16.1150   -9.0678  -14.0975 C   0  0  2  0  0  0  0  0  0  0  0  0
   16.8811  -10.1076  -14.7523 N   0  0  0  0  0  0  0  0  0  0  0  0
   16.7368   -8.8038  -12.7527 C   0  0  0  0  0  0  0  0  0  0  0  0
   17.4696   -9.6681  -12.2046 O   0  0  0  0  0  0  0  0  0  0  0  0
   22.5027   -6.4815   -9.5193 C   0  0  0  0  0  0  0  0  0  0  0  0
   21.2940   -6.8684  -10.8265 S   0  0  0  0  0  0  0  0  0  0  0  0
   19.5883   -6.6197  -10.1800 C   0  0  0  0  0  0  0  0  0  0  0  0
   18.6829   -7.1287  -11.2520 C   0  0  0  0  0  0  0  0  0  0  0  0
   17.2223   -7.1338  -10.9216 C   0  0  2  0  0  0  0  0  0  0  0  0
   16.4912   -7.5798  -12.1144 N   0  0  0  0  0  0  0  0  0  0  0  0
   16.7360   -5.8001  -10.5738 C   0  0  0  0  0  0  0  0  0  0  0  0
   16.6102   -4.9302  -11.5007 O   0  0  0  0  0  0  0  0  0  0  0  0
   14.4036   -4.8611   -7.1473 C   0  0  0  0  0  0  0  0  0  0  0  0
   14.3666   -4.1738   -8.5232 C   0  0  2  0  0  0  0  0  0  0  0  0
   13.3678   -4.8886   -9.4085 C   0  0  0  0  0  0  0  0  0  0  0  0
   15.7290   -4.1060   -9.1063 C   0  0  2  0  0  0  0  0  0  0  0  0
   16.3802   -5.3768   -9.2546 N   0  0  0  0  0  0  0  0  0  0  0  0
   16.5490   -3.2737   -8.0950 C   0  0  0  0  0  0  0  0  0  0  0  0
   17.4179   -3.7484   -7.3842 O   0  0  0  0  0  0  0  0  0  0  0  0
   16.2192   -1.9360   -8.0510 O   0  0  0  0  0  0  0  0  0  0  0  0
  2  1  1  1
  3  2  1  0
  4  5  1  0
  4  2  1  0
  5  6  1  1
  7  5  1  0
  7  8  2  0
 10  9  1  0
 11 10  1  0
 12 11  1  0
 13 12  1  6
 13 14  1  0
 14  7  1  0
 15 13  1  0
 16 15  2  0
 18 17  1  1
 18 20  1  0
 19 18  1  0
 20 21  1  1
 20 22  1  0
 21 15  1  0
 22 24  1  0
 23 22  2  0
M  END
$$$$
