LMV.pdb
     RDKit          3D

 24 23  0  0  1  0  0  0  0  0999 V2000
   17.9872  -15.0918  -18.2036 C   0  0  0  0  0  0  0  0  0  0  0  0
   19.3264  -15.6507  -17.7819 C   0  0  2  0  0  0  0  0  0  0  0  0
   19.0818  -17.0108  -17.1405 C   0  0  0  0  0  0  0  0  0  0  0  0
   20.0470  -14.7839  -16.7932 C   0  0  0  0  0  0  0  0  0  0  0  0
   20.2855  -13.4160  -17.3997 C   0  0  2  0  0  0  0  0  0  0  0  0
   21.1227  -13.4950  -18.5786 N   0  0  0  0  0  0  0  0  0  0  0  0
   20.9798  -12.5431  -16.3894 C   0  0  0  0  0  0  0  0  0  0  0  0
   20.5309  -12.4364  -15.2183 O   0  0  0  0  0  0  0  0  0  0  0  0
   27.1479  -12.3941  -14.7824 C   0  0  0  0  0  0  0  0  0  0  0  0
   26.8931  -10.7689  -15.5652 S   0  0  0  0  0  0  0  0  0  0  0  0
   25.1730  -10.1955  -15.2462 C   0  0  0  0  0  0  0  0  0  0  0  0
   24.2990  -11.1186  -16.0286 C   0  0  0  0  0  0  0  0  0  0  0  0
   22.8251  -10.8933  -15.8886 C   0  0  2  0  0  0  0  0  0  0  0  0
   22.1372  -11.8477  -16.7674 N   0  0  0  0  0  0  0  0  0  0  0  0
   22.4363   -9.5466  -16.3025 C   0  0  0  0  0  0  0  0  0  0  0  0
   22.6790   -9.1773  -17.5010 O   0  0  0  0  0  0  0  0  0  0  0  0
   19.0196   -7.6066  -15.3291 C   0  0  0  0  0  0  0  0  0  0  0  0
   19.9691   -7.3098  -16.5027 C   0  0  2  0  0  0  0  0  0  0  0  0
   19.6778   -8.2739  -17.6330 C   0  0  0  0  0  0  0  0  0  0  0  0
   21.3811   -7.3422  -16.0489 C   0  0  2  0  0  0  0  0  0  0  0  0
   21.7922   -8.5857  -15.4611 N   0  0  0  0  0  0  0  0  0  0  0  0
   21.4680   -6.2545  -14.9547 C   0  0  0  0  0  0  0  0  0  0  0  0
   21.5523   -6.5055  -13.7650 O   0  0  0  0  0  0  0  0  0  0  0  0
   21.4388   -4.9602  -15.4279 O   0  0  0  0  0  0  0  0  0  0  0  0
  2  1  1  1
  3  2  1  0
  4  5  1  0
  4  2  1  0
  5  6  1  6
  7  5  1  0
  7  8  2  0
 10  9  1  0
 11 10  1  0
 12 11  1  0
 13 12  1  6
 13 14  1  0
 14  7  1  0
 15 13  1  0
 16 15  2  0
 18 17  1  1
 18 20  1  0
 19 18  1  0
 20 21  1  1
 20 22  1  0
 21 15  1  0
 22 24  1  0
 23 22  2  0
M  END
$$$$
