LMV.pdb
     RDKit          3D

 24 23  0  0  1  0  0  0  0  0999 V2000
   20.1532  -17.6878  -14.5302 C   0  0  0  0  0  0  0  0  0  0  0  0
   21.2316  -17.4845  -15.5690 C   0  0  2  0  0  0  0  0  0  0  0  0
   22.5698  -17.8193  -14.9220 C   0  0  0  0  0  0  0  0  0  0  0  0
   21.2963  -16.0805  -16.0910 C   0  0  0  0  0  0  0  0  0  0  0  0
   19.9767  -15.7226  -16.7440 C   0  0  2  0  0  0  0  0  0  0  0  0
   19.7264  -16.5330  -17.9177 N   0  0  0  0  0  0  0  0  0  0  0  0
   20.0128  -14.2796  -17.1697 C   0  0  0  0  0  0  0  0  0  0  0  0
   20.5403  -13.9469  -18.2630 O   0  0  0  0  0  0  0  0  0  0  0  0
   14.8090  -11.4124  -19.6523 C   0  0  0  0  0  0  0  0  0  0  0  0
   15.6407  -11.1794  -18.0481 S   0  0  0  0  0  0  0  0  0  0  0  0
   17.4061  -11.6814  -18.1921 C   0  0  0  0  0  0  0  0  0  0  0  0
   17.9869  -11.4724  -16.8331 C   0  0  0  0  0  0  0  0  0  0  0  0
   19.4194  -11.8766  -16.6688 C   0  0  2  0  0  0  0  0  0  0  0  0
   19.4496  -13.3057  -16.3329 N   0  0  0  0  0  0  0  0  0  0  0  0
   20.0712  -11.1495  -15.5813 C   0  0  0  0  0  0  0  0  0  0  0  0
   19.8541  -11.5186  -14.3778 O   0  0  0  0  0  0  0  0  0  0  0  0
   23.7251   -9.0746  -15.7085 C   0  0  0  0  0  0  0  0  0  0  0  0
   23.0128   -9.6512  -14.4728 C   0  0  2  0  0  0  0  0  0  0  0  0
   23.4174  -11.0995  -14.2972 C   0  0  0  0  0  0  0  0  0  0  0  0
   21.5460   -9.4574  -14.5817 C   0  0  2  0  0  0  0  0  0  0  0  0
   20.9517  -10.0355  -15.7537 N   0  0  0  0  0  0  0  0  0  0  0  0
   21.3564   -7.9262  -14.6660 C   0  0  0  0  0  0  0  0  0  0  0  0
   21.6024   -7.1683  -13.7436 O   0  0  0  0  0  0  0  0  0  0  0  0
   20.8779   -7.4725  -15.8764 O   0  0  0  0  0  0  0  0  0  0  0  0
  2  1  1  1
  3  2  1  0
  4  5  1  0
  4  2  1  0
  5  6  1  6
  7  5  1  0
  7  8  2  0
 10  9  1  0
 11 10  1  0
 12 11  1  0
 13 12  1  1
 13 14  1  0
 14  7  1  0
 15 13  1  0
 16 15  2  0
 18 17  1  6
 18 20  1  0
 19 18  1  0
 20 21  1  6
 20 22  1  0
 21 15  1  0
 22 24  1  0
 23 22  2  0
M  END
$$$$
