LMV.pdb
     RDKit          3D

 24 23  0  0  1  0  0  0  0  0999 V2000
   19.2809  -21.6371  -13.0478 C   0  0  0  0  0  0  0  0  0  0  0  0
   20.2189  -21.9486  -11.9047 C   0  0  2  0  0  0  0  0  0  0  0  0
   19.4125  -21.8940  -10.6131 C   0  0  0  0  0  0  0  0  0  0  0  0
   21.3593  -20.9817  -11.7919 C   0  0  0  0  0  0  0  0  0  0  0  0
   22.0872  -20.9017  -13.1183 C   0  0  2  0  0  0  0  0  0  0  0  0
   22.5638  -22.2014  -13.5433 N   0  0  0  0  0  0  0  0  0  0  0  0
   23.2763  -19.9907  -12.9738 C   0  0  0  0  0  0  0  0  0  0  0  0
   23.1277  -18.7965  -12.6049 O   0  0  0  0  0  0  0  0  0  0  0  0
   28.9211  -21.6314  -10.2764 C   0  0  0  0  0  0  0  0  0  0  0  0
   29.3613  -21.2369  -11.9997 S   0  0  0  0  0  0  0  0  0  0  0  0
   28.2391  -19.9233  -12.6358 C   0  0  0  0  0  0  0  0  0  0  0  0
   26.9012  -20.5738  -12.7578 C   0  0  0  0  0  0  0  0  0  0  0  0
   25.7747  -19.6733  -13.1611 C   0  0  2  0  0  0  0  0  0  0  0  0
   24.5567  -20.4882  -13.2547 N   0  0  0  0  0  0  0  0  0  0  0  0
   26.0040  -19.0631  -14.4692 C   0  0  0  0  0  0  0  0  0  0  0  0
   25.6730  -19.7133  -15.5178 O   0  0  0  0  0  0  0  0  0  0  0  0
   26.1954  -15.1339  -17.3812 C   0  0  0  0  0  0  0  0  0  0  0  0
   26.2577  -15.6916  -15.9487 C   0  0  2  0  0  0  0  0  0  0  0  0
   27.3496  -14.9744  -15.1837 C   0  0  0  0  0  0  0  0  0  0  0  0
   26.4245  -17.1655  -15.9725 C   0  0  2  0  0  0  0  0  0  0  0  0
   26.5799  -17.7709  -14.6800 N   0  0  0  0  0  0  0  0  0  0  0  0
   27.7322  -17.4010  -16.7613 C   0  0  0  0  0  0  0  0  0  0  0  0
   28.8234  -17.5176  -16.2311 O   0  0  0  0  0  0  0  0  0  0  0  0
   27.5739  -17.4668  -18.1290 O   0  0  0  0  0  0  0  0  0  0  0  0
  2  1  1  6
  3  2  1  0
  4  5  1  0
  4  2  1  0
  5  6  1  1
  7  5  1  0
  7  8  2  0
 10  9  1  0
 11 10  1  0
 12 11  1  0
 13 12  1  6
 13 14  1  0
 14  7  1  0
 15 13  1  0
 16 15  2  0
 18 17  1  6
 18 20  1  0
 19 18  1  0
 20 21  1  1
 20 22  1  0
 21 15  1  0
 22 24  1  0
 23 22  2  0
M  END
$$$$
