LMV.pdb
     RDKit          3D

 24 23  0  0  1  0  0  0  0  0999 V2000
   20.5986  -19.0145  -15.4737 C   0  0  0  0  0  0  0  0  0  0  0  0
   21.8858  -19.7958  -15.3446 C   0  0  2  0  0  0  0  0  0  0  0  0
   22.0642  -20.6121  -16.6186 C   0  0  0  0  0  0  0  0  0  0  0  0
   21.8959  -20.7346  -14.1756 C   0  0  0  0  0  0  0  0  0  0  0  0
   21.7336  -19.9456  -12.8923 C   0  0  2  0  0  0  0  0  0  0  0  0
   22.7300  -18.9009  -12.7800 N   0  0  0  0  0  0  0  0  0  0  0  0
   21.8941  -20.8744  -11.7191 C   0  0  0  0  0  0  0  0  0  0  0  0
   21.5043  -22.0692  -11.7894 O   0  0  0  0  0  0  0  0  0  0  0  0
   26.8012  -20.3149   -7.7702 C   0  0  0  0  0  0  0  0  0  0  0  0
   25.4833  -20.3570   -6.5130 S   0  0  0  0  0  0  0  0  0  0  0  0
   24.0129  -21.2321   -7.1925 C   0  0  0  0  0  0  0  0  0  0  0  0
   23.7322  -20.5720   -8.5015 C   0  0  0  0  0  0  0  0  0  0  0  0
   22.6740  -21.2177   -9.3417 C   0  0  2  0  0  0  0  0  0  0  0  0
   22.4855  -20.3934  -10.5423 N   0  0  0  0  0  0  0  0  0  0  0  0
   21.3913  -21.2898   -8.6450 C   0  0  0  0  0  0  0  0  0  0  0  0
   20.5253  -20.3744   -8.8543 O   0  0  0  0  0  0  0  0  0  0  0  0
   19.3760  -24.4929   -8.8616 C   0  0  0  0  0  0  0  0  0  0  0  0
   18.8201  -23.1015   -8.5124 C   0  0  2  0  0  0  0  0  0  0  0  0
   18.7573  -22.2619   -9.7706 C   0  0  0  0  0  0  0  0  0  0  0  0
   19.6196  -22.4804   -7.4280 C   0  0  2  0  0  0  0  0  0  0  0  0
   21.0143  -22.3216   -7.7288 N   0  0  0  0  0  0  0  0  0  0  0  0
   19.5044  -23.4636   -6.2414 C   0  0  0  0  0  0  0  0  0  0  0  0
   20.4314  -24.1492   -5.8463 O   0  0  0  0  0  0  0  0  0  0  0  0
   18.2577  -23.5131   -5.6556 O   0  0  0  0  0  0  0  0  0  0  0  0
  2  1  1  6
  3  2  1  0
  4  5  1  0
  4  2  1  0
  5  6  1  1
  7  5  1  0
  7  8  2  0
 10  9  1  0
 11 10  1  0
 12 11  1  0
 13 12  1  1
 13 14  1  0
 14  7  1  0
 15 13  1  0
 16 15  2  0
 18 17  1  6
 18 20  1  0
 19 18  1  0
 20 21  1  6
 20 22  1  0
 21 15  1  0
 22 24  1  0
 23 22  2  0
M  END
$$$$
