CDY.pdb
     RDKit          3D

 27 27  0  0  1  0  0  0  0  0999 V2000
   12.2439  -17.8369   18.8023 N   0  0  0  0  0  0  0  0  0  0  0  0
   12.3146  -18.5117   20.0576 C   0  0  1  0  0  0  0  0  0  0  0  0
   13.7582  -18.5606   20.5149 C   0  0  0  0  0  0  0  0  0  0  0  0
   14.4450  -16.9199   20.7993 S   0  0  0  0  0  0  0  0  0  0  0  0
   11.5498  -17.8134   21.1401 C   0  0  0  0  0  0  0  0  0  0  0  0
   11.0506  -16.7124   20.8548 O   0  0  0  0  0  0  0  0  0  0  0  0
   11.3803  -18.3441   22.4335 N   0  0  0  0  0  0  0  0  0  0  0  0
   10.5636  -17.7569   23.4620 C   0  0  1  0  0  0  0  0  0  0  0  0
    9.7985  -18.8252   24.1649 C   0  0  0  0  0  0  0  0  0  0  0  0
   10.7616  -19.7968   24.7359 C   0  0  0  0  0  0  0  0  0  0  0  0
   12.0078  -19.7098   24.6593 O   0  0  0  0  0  0  0  0  0  0  0  0
   11.4224  -16.9551   24.3599 C   0  0  0  0  0  0  0  0  0  0  0  0
   10.8452  -16.3331   25.2859 O   0  0  0  0  0  0  0  0  0  0  0  0
   10.2773  -20.9241   25.4291 O   0  0  0  0  0  0  0  0  0  0  0  0
    9.3246  -13.4194   28.8916 O   0  0  0  0  0  0  0  0  0  0  0  0
   10.3368  -14.1887   28.3257 C   0  0  0  0  0  0  0  0  0  0  0  0
   10.9338  -15.2200   29.0190 C   0  0  0  0  0  0  0  0  0  0  0  0
   11.9347  -15.9937   28.4823 C   0  0  0  0  0  0  0  0  0  0  0  0
   12.3924  -15.7584   27.1893 C   0  0  0  0  0  0  0  0  0  0  0  0
   13.4632  -16.5410   26.5705 C   0  0  0  0  0  0  0  0  0  0  0  0
   13.6817  -16.1375   25.1565 C   0  0  2  0  0  0  0  0  0  0  0  0
   12.8229  -16.8570   24.2306 N   0  0  0  0  0  0  0  0  0  0  0  0
   15.0643  -16.1877   24.6726 C   0  0  0  0  0  0  0  0  0  0  0  0
   15.3720  -16.9965   23.7505 O   0  0  0  0  0  0  0  0  0  0  0  0
   11.7905  -14.7197   26.4923 C   0  0  0  0  0  0  0  0  0  0  0  0
   10.7897  -13.9550   27.0447 C   0  0  0  0  0  0  0  0  0  0  0  0
   16.1132  -15.4100   25.1367 O   0  0  0  0  0  0  0  0  0  0  0  0
  2  3  1  0
  2  1  1  6
  4  3  1  0
  5  2  1  0
  6  5  2  0
  7  5  1  0
  8  7  1  0
  8  9  1  1
 10  9  1  0
 11 10  2  0
 12 22  1  0
 12  8  1  0
 13 12  2  0
 14 10  1  0
 16 15  1  0
 17 16  2  0
 18 17  1  0
 19 18  2  0
 19 25  1  0
 21 20  1  1
 20 19  1  0
 21 22  1  0
 23 27  1  0
 23 21  1  0
 24 23  2  0
 25 26  2  0
 26 16  1  0
M  END
$$$$
