CDY.pdb
     RDKit          3D

 27 27  0  0  1  0  0  0  0  0999 V2000
    7.7289  -15.4374   17.4142 N   0  0  0  0  0  0  0  0  0  0  0  0
    8.5719  -15.0109   18.4835 C   0  0  1  0  0  0  0  0  0  0  0  0
    8.0331  -13.7151   19.0547 C   0  0  0  0  0  0  0  0  0  0  0  0
    8.3430  -12.3068   17.9755 S   0  0  0  0  0  0  0  0  0  0  0  0
    8.6166  -15.9886   19.6177 C   0  0  0  0  0  0  0  0  0  0  0  0
    7.5497  -16.5485   19.9193 O   0  0  0  0  0  0  0  0  0  0  0  0
    9.7910  -16.2884   20.3351 N   0  0  0  0  0  0  0  0  0  0  0  0
    9.8611  -17.1835   21.4591 C   0  0  1  0  0  0  0  0  0  0  0  0
   10.7632  -18.3245   21.1350 C   0  0  0  0  0  0  0  0  0  0  0  0
   12.1348  -17.7990   20.9348 C   0  0  0  0  0  0  0  0  0  0  0  0
   12.5182  -17.1376   19.9438 O   0  0  0  0  0  0  0  0  0  0  0  0
   10.2767  -16.4216   22.6564 C   0  0  0  0  0  0  0  0  0  0  0  0
   11.1017  -15.4920   22.4755 O   0  0  0  0  0  0  0  0  0  0  0  0
   13.1176  -18.0407   21.9153 O   0  0  0  0  0  0  0  0  0  0  0  0
    5.8636  -11.4332   28.1466 O   0  0  0  0  0  0  0  0  0  0  0  0
    6.5121  -12.2174   27.1974 C   0  0  0  0  0  0  0  0  0  0  0  0
    7.7405  -11.8607   26.6829 C   0  0  0  0  0  0  0  0  0  0  0  0
    8.4007  -12.6179   25.7453 C   0  0  0  0  0  0  0  0  0  0  0  0
    7.8400  -13.7996   25.2702 C   0  0  0  0  0  0  0  0  0  0  0  0
    8.4904  -14.6396   24.2636 C   0  0  0  0  0  0  0  0  0  0  0  0
    9.3759  -15.6537   24.8940 C   0  0  2  0  0  0  0  0  0  0  0  0
    9.8037  -16.6811   23.9589 N   0  0  0  0  0  0  0  0  0  0  0  0
    8.8701  -16.2899   26.1136 C   0  0  0  0  0  0  0  0  0  0  0  0
    8.1436  -17.3209   26.0225 O   0  0  0  0  0  0  0  0  0  0  0  0
    6.6031  -14.1576   25.7889 C   0  0  0  0  0  0  0  0  0  0  0  0
    5.9559  -13.3879   26.7272 C   0  0  0  0  0  0  0  0  0  0  0  0
    9.1145  -15.8646   27.4096 O   0  0  0  0  0  0  0  0  0  0  0  0
  2  3  1  0
  2  1  1  6
  4  3  1  0
  5  2  1  0
  6  5  2  0
  7  5  1  0
  8  7  1  0
  8  9  1  6
 10  9  1  0
 11 10  2  0
 12 22  1  0
 12  8  1  0
 13 12  2  0
 14 10  1  0
 16 15  1  0
 17 16  2  0
 18 17  1  0
 19 18  2  0
 19 25  1  0
 21 20  1  6
 20 19  1  0
 21 22  1  0
 23 27  1  0
 23 21  1  0
 24 23  2  0
 25 26  2  0
 26 16  1  0
M  END
$$$$
