CDY.pdb
     RDKit          3D

 27 27  0  0  1  0  0  0  0  0999 V2000
    7.0114  -17.1195   19.2387 N   0  0  0  0  0  0  0  0  0  0  0  0
    7.6242  -16.0833   20.0048 C   0  0  1  0  0  0  0  0  0  0  0  0
    6.5538  -15.3310   20.7690 C   0  0  0  0  0  0  0  0  0  0  0  0
    7.2421  -14.0641   21.8484 S   0  0  0  0  0  0  0  0  0  0  0  0
    8.5882  -16.6043   21.0263 C   0  0  0  0  0  0  0  0  0  0  0  0
    8.2205  -17.5814   21.6992 O   0  0  0  0  0  0  0  0  0  0  0  0
    9.8610  -16.0429   21.2462 N   0  0  0  0  0  0  0  0  0  0  0  0
   10.8013  -16.5006   22.2341 C   0  0  1  0  0  0  0  0  0  0  0  0
   12.1721  -16.0429   21.8706 C   0  0  0  0  0  0  0  0  0  0  0  0
   13.1433  -16.6919   22.7834 C   0  0  0  0  0  0  0  0  0  0  0  0
   14.2520  -16.2162   23.1163 O   0  0  0  0  0  0  0  0  0  0  0  0
   10.3587  -16.0432   23.5688 C   0  0  0  0  0  0  0  0  0  0  0  0
   10.4889  -14.8190   23.8177 O   0  0  0  0  0  0  0  0  0  0  0  0
   12.8328  -17.9469   23.3440 O   0  0  0  0  0  0  0  0  0  0  0  0
    6.2782  -10.9009   26.3546 O   0  0  0  0  0  0  0  0  0  0  0  0
    6.6752  -12.2318   26.2665 C   0  0  0  0  0  0  0  0  0  0  0  0
    7.3949  -12.8390   27.2735 C   0  0  0  0  0  0  0  0  0  0  0  0
    7.7983  -14.1512   27.2101 C   0  0  0  0  0  0  0  0  0  0  0  0
    7.4877  -14.9324   26.1012 C   0  0  0  0  0  0  0  0  0  0  0  0
    7.9011  -16.3304   25.9728 C   0  0  0  0  0  0  0  0  0  0  0  0
    9.3790  -16.4511   25.8670 C   0  0  2  0  0  0  0  0  0  0  0  0
    9.8112  -16.8932   24.5515 N   0  0  0  0  0  0  0  0  0  0  0  0
   10.0398  -17.2642   26.8919 C   0  0  0  0  0  0  0  0  0  0  0  0
   10.5857  -18.3565   26.5633 O   0  0  0  0  0  0  0  0  0  0  0  0
    6.7630  -14.3198   25.0880 C   0  0  0  0  0  0  0  0  0  0  0  0
    6.3670  -13.0051   25.1676 C   0  0  0  0  0  0  0  0  0  0  0  0
   10.1345  -16.9496   28.2381 O   0  0  0  0  0  0  0  0  0  0  0  0
  2  3  1  0
  2  1  1  1
  4  3  1  0
  5  2  1  0
  6  5  2  0
  7  5  1  0
  8  7  1  0
  8  9  1  6
 10  9  1  0
 11 10  2  0
 12 22  1  0
 12  8  1  0
 13 12  2  0
 14 10  1  0
 16 15  1  0
 17 16  2  0
 18 17  1  0
 19 18  2  0
 19 25  1  0
 21 20  1  6
 20 19  1  0
 21 22  1  0
 23 27  1  0
 23 21  1  0
 24 23  2  0
 25 26  2  0
 26 16  1  0
M  END
$$$$
