CDY.pdb
     RDKit          3D

 27 27  0  0  1  0  0  0  0  0999 V2000
    5.9071  -18.0088   24.1885 N   0  0  0  0  0  0  0  0  0  0  0  0
    6.7195  -19.1794   24.1128 C   0  0  1  0  0  0  0  0  0  0  0  0
    6.3647  -19.9502   22.8575 C   0  0  0  0  0  0  0  0  0  0  0  0
    4.6078  -19.8626   22.4707 S   0  0  0  0  0  0  0  0  0  0  0  0
    8.1825  -18.8703   24.0218 C   0  0  0  0  0  0  0  0  0  0  0  0
    8.9587  -19.8381   23.9614 O   0  0  0  0  0  0  0  0  0  0  0  0
    8.6966  -17.5592   24.0026 N   0  0  0  0  0  0  0  0  0  0  0  0
   10.0947  -17.2258   23.9416 C   0  0  1  0  0  0  0  0  0  0  0  0
   10.3325  -16.2665   22.8263 C   0  0  0  0  0  0  0  0  0  0  0  0
   11.7940  -16.1536   22.6051 C   0  0  0  0  0  0  0  0  0  0  0  0
   12.6050  -17.1066   22.6307 O   0  0  0  0  0  0  0  0  0  0  0  0
   10.5270  -16.7184   25.2616 C   0  0  0  0  0  0  0  0  0  0  0  0
   11.7120  -16.3114   25.3493 O   0  0  0  0  0  0  0  0  0  0  0  0
   12.3576  -14.8892   22.3417 O   0  0  0  0  0  0  0  0  0  0  0  0
    6.3129  -12.3217   24.4538 O   0  0  0  0  0  0  0  0  0  0  0  0
    7.0180  -13.0449   25.4110 C   0  0  0  0  0  0  0  0  0  0  0  0
    8.3006  -12.6977   25.7786 C   0  0  0  0  0  0  0  0  0  0  0  0
    9.0173  -13.3956   26.7209 C   0  0  0  0  0  0  0  0  0  0  0  0
    8.4612  -14.5038   27.3526 C   0  0  0  0  0  0  0  0  0  0  0  0
    9.1808  -15.2924   28.3536 C   0  0  0  0  0  0  0  0  0  0  0  0
   10.1326  -16.2396   27.7157 C   0  0  2  0  0  0  0  0  0  0  0  0
    9.6945  -16.6703   26.3984 N   0  0  0  0  0  0  0  0  0  0  0  0
   10.5104  -17.4135   28.5077 C   0  0  0  0  0  0  0  0  0  0  0  0
   10.9583  -17.2558   29.6797 O   0  0  0  0  0  0  0  0  0  0  0  0
    7.1697  -14.8524   26.9816 C   0  0  0  0  0  0  0  0  0  0  0  0
    6.4663  -14.1427   26.0364 C   0  0  0  0  0  0  0  0  0  0  0  0
   10.4243  -18.7326   28.0917 O   0  0  0  0  0  0  0  0  0  0  0  0
  2  3  1  0
  2  1  1  6
  4  3  1  0
  5  2  1  0
  6  5  2  0
  7  5  1  0
  8  7  1  0
  8  9  1  6
 10  9  1  0
 11 10  2  0
 12 22  1  0
 12  8  1  0
 13 12  2  0
 14 10  1  0
 16 15  1  0
 17 16  2  0
 18 17  1  0
 19 18  2  0
 19 25  1  0
 21 20  1  1
 20 19  1  0
 21 22  1  0
 23 27  1  0
 23 21  1  0
 24 23  2  0
 25 26  2  0
 26 16  1  0
M  END
$$$$
