CDY.pdb
     RDKit          3D

 27 27  0  0  1  0  0  0  0  0999 V2000
    7.2608  -15.3751   18.3012 N   0  0  0  0  0  0  0  0  0  0  0  0
    8.4996  -14.9653   18.8787 C   0  0  1  0  0  0  0  0  0  0  0  0
    8.3600  -13.5501   19.4017 C   0  0  0  0  0  0  0  0  0  0  0  0
    8.4349  -12.3210   18.0872 S   0  0  0  0  0  0  0  0  0  0  0  0
    8.9080  -15.8109   20.0459 C   0  0  0  0  0  0  0  0  0  0  0  0
    7.9968  -16.3497   20.6956 O   0  0  0  0  0  0  0  0  0  0  0  0
   10.2498  -16.0121   20.4237 N   0  0  0  0  0  0  0  0  0  0  0  0
   10.6844  -16.8975   21.4710 C   0  0  1  0  0  0  0  0  0  0  0  0
   12.0274  -17.4491   21.1351 C   0  0  0  0  0  0  0  0  0  0  0  0
   12.4351  -18.3846   22.2103 C   0  0  0  0  0  0  0  0  0  0  0  0
   11.7043  -18.7671   23.1517 O   0  0  0  0  0  0  0  0  0  0  0  0
   10.6468  -16.1739   22.7600 C   0  0  0  0  0  0  0  0  0  0  0  0
   11.2378  -15.0664   22.8030 O   0  0  0  0  0  0  0  0  0  0  0  0
   13.7428  -18.9097   22.2106 O   0  0  0  0  0  0  0  0  0  0  0  0
    5.8243  -11.4719   28.0052 O   0  0  0  0  0  0  0  0  0  0  0  0
    6.4484  -12.3025   27.0794 C   0  0  0  0  0  0  0  0  0  0  0  0
    7.6206  -11.9347   26.4538 C   0  0  0  0  0  0  0  0  0  0  0  0
    8.2557  -12.7369   25.5365 C   0  0  0  0  0  0  0  0  0  0  0  0
    7.7260  -13.9785   25.1980 C   0  0  0  0  0  0  0  0  0  0  0  0
    8.3511  -14.8693   24.2195 C   0  0  0  0  0  0  0  0  0  0  0  0
    9.2985  -15.8113   24.8715 C   0  0  2  0  0  0  0  0  0  0  0  0
    9.9961  -16.6544   23.9148 N   0  0  0  0  0  0  0  0  0  0  0  0
    8.7498  -16.6472   25.9430 C   0  0  0  0  0  0  0  0  0  0  0  0
    8.7292  -16.2061   27.1279 O   0  0  0  0  0  0  0  0  0  0  0  0
    6.5457  -14.3476   25.8286 C   0  0  0  0  0  0  0  0  0  0  0  0
    5.9230  -13.5323   26.7446 C   0  0  0  0  0  0  0  0  0  0  0  0
    8.2287  -17.9220   25.7889 O   0  0  0  0  0  0  0  0  0  0  0  0
  2  3  1  0
  2  1  1  1
  4  3  1  0
  5  2  1  0
  6  5  2  0
  7  5  1  0
  8  7  1  0
  8  9  1  6
 10  9  1  0
 11 10  2  0
 12 22  1  0
 12  8  1  0
 13 12  2  0
 14 10  1  0
 16 15  1  0
 17 16  2  0
 18 17  1  0
 19 18  2  0
 19 25  1  0
 21 20  1  6
 20 19  1  0
 21 22  1  0
 23 27  1  0
 23 21  1  0
 24 23  2  0
 25 26  2  0
 26 16  1  0
M  END
$$$$
