CDY.pdb
     RDKit          3D

 27 27  0  0  1  0  0  0  0  0999 V2000
    6.4126  -14.4115   20.0649 N   0  0  0  0  0  0  0  0  0  0  0  0
    7.7709  -14.4218   20.5017 C   0  0  1  0  0  0  0  0  0  0  0  0
    8.0915  -13.0951   21.1596 C   0  0  0  0  0  0  0  0  0  0  0  0
    7.0564  -12.7734   22.5981 S   0  0  0  0  0  0  0  0  0  0  0  0
    8.0475  -15.4807   21.5248 C   0  0  0  0  0  0  0  0  0  0  0  0
    7.0626  -16.0142   22.0617 O   0  0  0  0  0  0  0  0  0  0  0  0
    9.3467  -15.8827   21.8906 N   0  0  0  0  0  0  0  0  0  0  0  0
    9.6510  -16.9963   22.7490 C   0  0  1  0  0  0  0  0  0  0  0  0
   10.7933  -17.7677   22.1825 C   0  0  0  0  0  0  0  0  0  0  0  0
   10.4644  -19.2118   22.2457 C   0  0  0  0  0  0  0  0  0  0  0  0
    9.3919  -19.7268   21.8572 O   0  0  0  0  0  0  0  0  0  0  0  0
    9.8957  -16.4958   24.1188 C   0  0  0  0  0  0  0  0  0  0  0  0
   10.7493  -15.5827   24.2419 O   0  0  0  0  0  0  0  0  0  0  0  0
   11.4074  -20.1128   22.7791 O   0  0  0  0  0  0  0  0  0  0  0  0
    6.2315  -11.1898   25.3712 O   0  0  0  0  0  0  0  0  0  0  0  0
    6.7309  -12.3943   25.8571 C   0  0  0  0  0  0  0  0  0  0  0  0
    7.9330  -12.4594   26.5290 C   0  0  0  0  0  0  0  0  0  0  0  0
    8.4472  -13.6363   27.0181 C   0  0  0  0  0  0  0  0  0  0  0  0
    7.7568  -14.8326   26.8487 C   0  0  0  0  0  0  0  0  0  0  0  0
    8.2608  -16.1171   27.3365 C   0  0  0  0  0  0  0  0  0  0  0  0
    9.4979  -16.5219   26.6185 C   0  0  2  0  0  0  0  0  0  0  0  0
    9.2340  -16.9815   25.2651 N   0  0  0  0  0  0  0  0  0  0  0  0
   10.3567  -17.4942   27.3007 C   0  0  0  0  0  0  0  0  0  0  0  0
   10.5784  -18.6157   26.7604 O   0  0  0  0  0  0  0  0  0  0  0  0
    6.5466  -14.7657   26.1720 C   0  0  0  0  0  0  0  0  0  0  0  0
    6.0463  -13.5791   25.6889 C   0  0  0  0  0  0  0  0  0  0  0  0
   10.9779  -17.3067   28.5252 O   0  0  0  0  0  0  0  0  0  0  0  0
  2  3  1  0
  2  1  1  1
  4  3  1  0
  5  2  1  0
  6  5  2  0
  7  5  1  0
  8  7  1  0
  8  9  1  6
 10  9  1  0
 11 10  2  0
 12 22  1  0
 12  8  1  0
 13 12  2  0
 14 10  1  0
 16 15  1  0
 17 16  2  0
 18 17  1  0
 19 18  2  0
 19 25  1  0
 21 20  1  1
 20 19  1  0
 21 22  1  0
 23 27  1  0
 23 21  1  0
 24 23  2  0
 25 26  2  0
 26 16  1  0
M  END
$$$$
