CDY.pdb
     RDKit          3D

 27 27  0  0  1  0  0  0  0  0999 V2000
    6.9177  -13.4810   19.1986 N   0  0  0  0  0  0  0  0  0  0  0  0
    8.2302  -13.7649   19.6809 C   0  0  1  0  0  0  0  0  0  0  0  0
    8.7071  -12.6078   20.5349 C   0  0  0  0  0  0  0  0  0  0  0  0
    7.6581  -12.3376   21.9739 S   0  0  0  0  0  0  0  0  0  0  0  0
    8.2821  -14.9838   20.5505 C   0  0  0  0  0  0  0  0  0  0  0  0
    7.1975  -15.5196   20.8321 O   0  0  0  0  0  0  0  0  0  0  0  0
    9.4817  -15.5297   21.0469 N   0  0  0  0  0  0  0  0  0  0  0  0
    9.6462  -16.8905   21.4835 C   0  0  1  0  0  0  0  0  0  0  0  0
   10.8164  -17.5005   20.7912 C   0  0  0  0  0  0  0  0  0  0  0  0
   10.4488  -18.8712   20.3628 C   0  0  0  0  0  0  0  0  0  0  0  0
    9.5407  -19.5680   20.8692 O   0  0  0  0  0  0  0  0  0  0  0  0
    9.7524  -16.9137   22.9582 C   0  0  0  0  0  0  0  0  0  0  0  0
    9.8577  -18.0426   23.4988 O   0  0  0  0  0  0  0  0  0  0  0  0
   11.1533  -19.4765   19.3030 O   0  0  0  0  0  0  0  0  0  0  0  0
    5.5057  -11.0079   26.2135 O   0  0  0  0  0  0  0  0  0  0  0  0
    6.1806  -12.2185   26.0899 C   0  0  0  0  0  0  0  0  0  0  0  0
    7.5484  -12.3018   26.2413 C   0  0  0  0  0  0  0  0  0  0  0  0
    8.2375  -13.4850   26.1241 C   0  0  0  0  0  0  0  0  0  0  0  0
    7.5636  -14.6694   25.8417 C   0  0  0  0  0  0  0  0  0  0  0  0
    8.2454  -15.9558   25.6931 C   0  0  0  0  0  0  0  0  0  0  0  0
    9.6424  -15.7771   25.2173 C   0  0  2  0  0  0  0  0  0  0  0  0
    9.7414  -15.7592   23.7673 N   0  0  0  0  0  0  0  0  0  0  0  0
   10.6374  -16.7072   25.7587 C   0  0  0  0  0  0  0  0  0  0  0  0
   11.2720  -17.4670   24.9720 O   0  0  0  0  0  0  0  0  0  0  0  0
    6.1864  -14.5842   25.6894 C   0  0  0  0  0  0  0  0  0  0  0  0
    5.5122  -13.3915   25.8101 C   0  0  0  0  0  0  0  0  0  0  0  0
   10.9711  -16.8473   27.0964 O   0  0  0  0  0  0  0  0  0  0  0  0
  2  3  1  0
  2  1  1  1
  4  3  1  0
  5  2  1  0
  6  5  2  0
  7  5  1  0
  8  7  1  0
  8  9  1  6
 10  9  1  0
 11 10  2  0
 12 22  1  0
 12  8  1  0
 13 12  2  0
 14 10  1  0
 16 15  1  0
 17 16  2  0
 18 17  1  0
 19 18  2  0
 19 25  1  0
 21 20  1  6
 20 19  1  0
 21 22  1  0
 23 27  1  0
 23 21  1  0
 24 23  2  0
 25 26  2  0
 26 16  1  0
M  END
$$$$
