CDY.pdb
     RDKit          3D

 27 27  0  0  1  0  0  0  0  0999 V2000
    6.0185  -17.9153   21.4894 N   0  0  0  0  0  0  0  0  0  0  0  0
    7.1222  -17.1190   21.0608 C   0  0  1  0  0  0  0  0  0  0  0  0
    6.6351  -15.7169   20.7568 C   0  0  0  0  0  0  0  0  0  0  0  0
    5.8667  -14.9317   22.1841 S   0  0  0  0  0  0  0  0  0  0  0  0
    8.1849  -16.9815   22.1077 C   0  0  0  0  0  0  0  0  0  0  0  0
    7.8686  -17.2778   23.2717 O   0  0  0  0  0  0  0  0  0  0  0  0
    9.4933  -16.5411   21.8291 N   0  0  0  0  0  0  0  0  0  0  0  0
   10.5350  -16.3885   22.8095 C   0  0  1  0  0  0  0  0  0  0  0  0
   11.8106  -16.0221   22.1318 C   0  0  0  0  0  0  0  0  0  0  0  0
   12.2636  -17.1786   21.3226 C   0  0  0  0  0  0  0  0  0  0  0  0
   12.3310  -17.2048   20.0731 O   0  0  0  0  0  0  0  0  0  0  0  0
   10.1004  -15.4056   23.8252 C   0  0  0  0  0  0  0  0  0  0  0  0
    9.6894  -14.2979   23.3990 O   0  0  0  0  0  0  0  0  0  0  0  0
   12.6596  -18.3644   21.9728 O   0  0  0  0  0  0  0  0  0  0  0  0
    9.3103  -19.7076   30.0502 O   0  0  0  0  0  0  0  0  0  0  0  0
    9.1204  -18.5542   29.2953 C   0  0  0  0  0  0  0  0  0  0  0  0
    8.3847  -18.5669   28.1294 C   0  0  0  0  0  0  0  0  0  0  0  0
    8.1829  -17.4417   27.3667 C   0  0  0  0  0  0  0  0  0  0  0  0
    8.7267  -16.2203   27.7529 C   0  0  0  0  0  0  0  0  0  0  0  0
    8.5558  -14.9926   26.9748 C   0  0  0  0  0  0  0  0  0  0  0  0
    9.7913  -14.6517   26.2218 C   0  0  2  0  0  0  0  0  0  0  0  0
   10.1242  -15.6451   25.2144 N   0  0  0  0  0  0  0  0  0  0  0  0
   10.9820  -14.3591   27.0248 C   0  0  0  0  0  0  0  0  0  0  0  0
   10.9616  -13.3914   27.8384 O   0  0  0  0  0  0  0  0  0  0  0  0
    9.4672  -16.2088   28.9270 C   0  0  0  0  0  0  0  0  0  0  0  0
    9.6594  -17.3445   29.6785 C   0  0  0  0  0  0  0  0  0  0  0  0
   12.1768  -15.0601   26.9861 O   0  0  0  0  0  0  0  0  0  0  0  0
  2  3  1  0
  2  1  1  1
  4  3  1  0
  5  2  1  0
  6  5  2  0
  7  5  1  0
  8  7  1  0
  8  9  1  6
 10  9  1  0
 11 10  2  0
 12 22  1  0
 12  8  1  0
 13 12  2  0
 14 10  1  0
 16 15  1  0
 17 16  2  0
 18 17  1  0
 19 18  2  0
 19 25  1  0
 21 20  1  1
 20 19  1  0
 21 22  1  0
 23 27  1  0
 23 21  1  0
 24 23  2  0
 25 26  2  0
 26 16  1  0
M  END
$$$$
