CDY.pdb
     RDKit          3D

 27 27  0  0  1  0  0  0  0  0999 V2000
    7.0578  -15.9014   19.3640 N   0  0  0  0  0  0  0  0  0  0  0  0
    7.7518  -15.1979   20.3933 C   0  0  1  0  0  0  0  0  0  0  0  0
    6.7438  -14.6077   21.3583 C   0  0  0  0  0  0  0  0  0  0  0  0
    7.5271  -13.8537   22.7943 S   0  0  0  0  0  0  0  0  0  0  0  0
    8.6477  -16.0834   21.2042 C   0  0  0  0  0  0  0  0  0  0  0  0
    8.2224  -17.2192   21.4720 O   0  0  0  0  0  0  0  0  0  0  0  0
    9.9194  -15.6870   21.6616 N   0  0  0  0  0  0  0  0  0  0  0  0
   10.8890  -16.5667   22.2578 C   0  0  1  0  0  0  0  0  0  0  0  0
   12.1902  -16.4354   21.5434 C   0  0  0  0  0  0  0  0  0  0  0  0
   13.1574  -17.3826   22.1475 C   0  0  0  0  0  0  0  0  0  0  0  0
   14.2690  -17.0711   22.6309 O   0  0  0  0  0  0  0  0  0  0  0  0
   10.9763  -16.2772   23.7053 C   0  0  0  0  0  0  0  0  0  0  0  0
   11.9146  -15.5289   24.0756 O   0  0  0  0  0  0  0  0  0  0  0  0
   12.8391  -18.7543   22.2024 O   0  0  0  0  0  0  0  0  0  0  0  0
    4.9209  -12.7823   26.9225 O   0  0  0  0  0  0  0  0  0  0  0  0
    6.1949  -13.3194   26.7644 C   0  0  0  0  0  0  0  0  0  0  0  0
    6.3872  -14.5823   26.2457 C   0  0  0  0  0  0  0  0  0  0  0  0
    7.6346  -15.1345   26.0799 C   0  0  0  0  0  0  0  0  0  0  0  0
    8.7752  -14.4223   26.4380 C   0  0  0  0  0  0  0  0  0  0  0  0
   10.1275  -14.9636   26.2960 C   0  0  0  0  0  0  0  0  0  0  0  0
   10.1026  -16.4336   26.0759 C   0  0  2  0  0  0  0  0  0  0  0  0
   10.0799  -16.7877   24.6664 N   0  0  0  0  0  0  0  0  0  0  0  0
    9.0540  -17.1783   26.7788 C   0  0  0  0  0  0  0  0  0  0  0  0
    8.1559  -17.7681   26.1119 O   0  0  0  0  0  0  0  0  0  0  0  0
    8.5802  -13.1510   26.9602 C   0  0  0  0  0  0  0  0  0  0  0  0
    7.3244  -12.6132   27.1195 C   0  0  0  0  0  0  0  0  0  0  0  0
    8.9381  -17.3111   28.1533 O   0  0  0  0  0  0  0  0  0  0  0  0
  2  3  1  0
  2  1  1  6
  4  3  1  0
  5  2  1  0
  6  5  2  0
  7  5  1  0
  8  7  1  0
  8  9  1  6
 10  9  1  0
 11 10  2  0
 12 22  1  0
 12  8  1  0
 13 12  2  0
 14 10  1  0
 16 15  1  0
 17 16  2  0
 18 17  1  0
 19 18  2  0
 19 25  1  0
 21 20  1  6
 20 19  1  0
 21 22  1  0
 23 27  1  0
 23 21  1  0
 24 23  2  0
 25 26  2  0
 26 16  1  0
M  END
$$$$
