CDY.pdb
     RDKit          3D

 27 27  0  0  1  0  0  0  0  0999 V2000
    6.7641  -18.1981   19.7324 N   0  0  0  0  0  0  0  0  0  0  0  0
    7.9178  -17.3766   19.5585 C   0  0  1  0  0  0  0  0  0  0  0  0
    7.4851  -15.9287   19.4496 C   0  0  0  0  0  0  0  0  0  0  0  0
    6.5841  -15.3693   20.9054 S   0  0  0  0  0  0  0  0  0  0  0  0
    8.8669  -17.4502   20.7153 C   0  0  0  0  0  0  0  0  0  0  0  0
    8.3896  -17.7797   21.8137 O   0  0  0  0  0  0  0  0  0  0  0  0
   10.2423  -17.1674   20.6070 N   0  0  0  0  0  0  0  0  0  0  0  0
   11.1740  -17.1871   21.7029 C   0  0  1  0  0  0  0  0  0  0  0  0
   12.5581  -16.9904   21.1871 C   0  0  0  0  0  0  0  0  0  0  0  0
   13.1489  -18.3202   20.9037 C   0  0  0  0  0  0  0  0  0  0  0  0
   14.3731  -18.5617   20.8061 O   0  0  0  0  0  0  0  0  0  0  0  0
   10.7647  -16.1758   22.7012 C   0  0  0  0  0  0  0  0  0  0  0  0
   10.6702  -14.9902   22.2974 O   0  0  0  0  0  0  0  0  0  0  0  0
   12.2992  -19.4297   20.7226 O   0  0  0  0  0  0  0  0  0  0  0  0
    6.3096  -11.1657   27.9226 O   0  0  0  0  0  0  0  0  0  0  0  0
    6.8770  -12.0751   27.0351 C   0  0  0  0  0  0  0  0  0  0  0  0
    6.2037  -12.5033   25.9108 C   0  0  0  0  0  0  0  0  0  0  0  0
    6.7424  -13.4002   25.0197 C   0  0  0  0  0  0  0  0  0  0  0  0
    8.0166  -13.9206   25.2251 C   0  0  0  0  0  0  0  0  0  0  0  0
    8.6360  -14.8875   24.3177 C   0  0  0  0  0  0  0  0  0  0  0  0
    9.7922  -15.5681   24.9579 C   0  0  2  0  0  0  0  0  0  0  0  0
   10.4824  -16.4701   24.0509 N   0  0  0  0  0  0  0  0  0  0  0  0
    9.5199  -16.2646   26.2184 C   0  0  0  0  0  0  0  0  0  0  0  0
    9.6997  -15.6605   27.3147 O   0  0  0  0  0  0  0  0  0  0  0  0
    8.6934  -13.4886   26.3574 C   0  0  0  0  0  0  0  0  0  0  0  0
    8.1394  -12.5902   27.2392 C   0  0  0  0  0  0  0  0  0  0  0  0
    9.0665  -17.5683   26.3415 O   0  0  0  0  0  0  0  0  0  0  0  0
  2  3  1  0
  2  1  1  1
  4  3  1  0
  5  2  1  0
  6  5  2  0
  7  5  1  0
  8  7  1  0
  8  9  1  6
 10  9  1  0
 11 10  2  0
 12 22  1  0
 12  8  1  0
 13 12  2  0
 14 10  1  0
 16 15  1  0
 17 16  2  0
 18 17  1  0
 19 18  2  0
 19 25  1  0
 21 20  1  6
 20 19  1  0
 21 22  1  0
 23 27  1  0
 23 21  1  0
 24 23  2  0
 25 26  2  0
 26 16  1  0
M  END
$$$$
