CDY.pdb
     RDKit          3D

 27 27  0  0  1  0  0  0  0  0999 V2000
    7.5937  -15.6726   17.6396 N   0  0  0  0  0  0  0  0  0  0  0  0
    8.7509  -15.1883   18.3195 C   0  0  1  0  0  0  0  0  0  0  0  0
    8.4938  -13.7713   18.7905 C   0  0  0  0  0  0  0  0  0  0  0  0
    8.3238  -12.6124   17.4223 S   0  0  0  0  0  0  0  0  0  0  0  0
    9.0876  -15.9872   19.5413 C   0  0  0  0  0  0  0  0  0  0  0  0
    8.1345  -16.4230   20.2080 O   0  0  0  0  0  0  0  0  0  0  0  0
   10.4082  -16.2552   19.9509 N   0  0  0  0  0  0  0  0  0  0  0  0
   10.7690  -16.9501   21.1578 C   0  0  1  0  0  0  0  0  0  0  0  0
   12.2090  -17.3298   21.1055 C   0  0  0  0  0  0  0  0  0  0  0  0
   12.5363  -18.1062   22.3252 C   0  0  0  0  0  0  0  0  0  0  0  0
   11.7355  -18.8307   22.9578 O   0  0  0  0  0  0  0  0  0  0  0  0
   10.4207  -16.1068   22.3216 C   0  0  0  0  0  0  0  0  0  0  0  0
   11.0637  -15.0362   22.4554 O   0  0  0  0  0  0  0  0  0  0  0  0
   13.8436  -18.0527   22.8486 O   0  0  0  0  0  0  0  0  0  0  0  0
    6.1528  -11.4001   28.2323 O   0  0  0  0  0  0  0  0  0  0  0  0
    6.5277  -12.2521   27.1979 C   0  0  0  0  0  0  0  0  0  0  0  0
    6.0175  -13.5286   27.0924 C   0  0  0  0  0  0  0  0  0  0  0  0
    6.3721  -14.3884   26.0807 C   0  0  0  0  0  0  0  0  0  0  0  0
    7.2801  -13.9922   25.1034 C   0  0  0  0  0  0  0  0  0  0  0  0
    7.7042  -14.8684   24.0105 C   0  0  0  0  0  0  0  0  0  0  0  0
    8.9836  -15.5542   24.3308 C   0  0  2  0  0  0  0  0  0  0  0  0
    9.4266  -16.4377   23.2650 N   0  0  0  0  0  0  0  0  0  0  0  0
    9.0340  -16.2728   25.6073 C   0  0  0  0  0  0  0  0  0  0  0  0
    9.5046  -15.6947   26.6287 O   0  0  0  0  0  0  0  0  0  0  0  0
    7.7931  -12.7068   25.2107 C   0  0  0  0  0  0  0  0  0  0  0  0
    7.4274  -11.8589   26.2300 C   0  0  0  0  0  0  0  0  0  0  0  0
    8.6019  -17.5717   25.8226 O   0  0  0  0  0  0  0  0  0  0  0  0
  2  3  1  0
  2  1  1  1
  4  3  1  0
  5  2  1  0
  6  5  2  0
  7  5  1  0
  8  7  1  0
  8  9  1  6
 10  9  1  0
 11 10  2  0
 12 22  1  0
 12  8  1  0
 13 12  2  0
 14 10  1  0
 16 15  1  0
 17 16  2  0
 18 17  1  0
 19 18  2  0
 19 25  1  0
 21 20  1  6
 20 19  1  0
 21 22  1  0
 23 27  1  0
 23 21  1  0
 24 23  2  0
 25 26  2  0
 26 16  1  0
M  END
$$$$
