CDY.pdb
     RDKit          3D

 27 27  0  0  1  0  0  0  0  0999 V2000
    6.1539  -26.3331   27.7577 N   0  0  0  0  0  0  0  0  0  0  0  0
    6.6396  -25.2188   28.5050 C   0  0  1  0  0  0  0  0  0  0  0  0
    6.3126  -25.4227   29.9703 C   0  0  0  0  0  0  0  0  0  0  0  0
    7.0620  -26.9172   30.6403 S   0  0  0  0  0  0  0  0  0  0  0  0
    8.1271  -25.0620   28.4198 C   0  0  0  0  0  0  0  0  0  0  0  0
    8.7987  -26.1042   28.3460 O   0  0  0  0  0  0  0  0  0  0  0  0
    8.7745  -23.8113   28.4203 N   0  0  0  0  0  0  0  0  0  0  0  0
   10.2002  -23.6242   28.3744 C   0  0  1  0  0  0  0  0  0  0  0  0
   10.5282  -22.4992   27.4540 C   0  0  0  0  0  0  0  0  0  0  0  0
   11.8564  -22.7575   26.8483 C   0  0  0  0  0  0  0  0  0  0  0  0
   12.5443  -23.7878   27.0264 O   0  0  0  0  0  0  0  0  0  0  0  0
   10.7050  -23.4299   29.7507 C   0  0  0  0  0  0  0  0  0  0  0  0
    9.9715  -22.7771   30.5339 O   0  0  0  0  0  0  0  0  0  0  0  0
   12.4276  -21.7909   25.9967 O   0  0  0  0  0  0  0  0  0  0  0  0
    7.8111  -28.0328   32.9554 O   0  0  0  0  0  0  0  0  0  0  0  0
    8.9941  -27.3239   32.7699 C   0  0  0  0  0  0  0  0  0  0  0  0
    9.7483  -27.4643   31.6243 C   0  0  0  0  0  0  0  0  0  0  0  0
   10.9195  -26.7757   31.4177 C   0  0  0  0  0  0  0  0  0  0  0  0
   11.3975  -25.8913   32.3799 C   0  0  0  0  0  0  0  0  0  0  0  0
   12.6438  -25.1408   32.2203 C   0  0  0  0  0  0  0  0  0  0  0  0
   12.4023  -23.8171   31.5883 C   0  0  2  0  0  0  0  0  0  0  0  0
   11.9390  -23.9292   30.2152 N   0  0  0  0  0  0  0  0  0  0  0  0
   13.5077  -22.8565   31.6490 C   0  0  0  0  0  0  0  0  0  0  0  0
   13.8698  -22.2570   30.5962 O   0  0  0  0  0  0  0  0  0  0  0  0
   10.6372  -25.7508   33.5328 C   0  0  0  0  0  0  0  0  0  0  0  0
    9.4670  -26.4478   33.7236 C   0  0  0  0  0  0  0  0  0  0  0  0
   14.2271  -22.5209   32.7849 O   0  0  0  0  0  0  0  0  0  0  0  0
  2  3  1  0
  2  1  1  6
  4  3  1  0
  5  2  1  0
  6  5  2  0
  7  5  1  0
  8  7  1  0
  8  9  1  6
 10  9  1  0
 11 10  2  0
 12 22  1  0
 12  8  1  0
 13 12  2  0
 14 10  1  0
 16 15  1  0
 17 16  2  0
 18 17  1  0
 19 18  2  0
 19 25  1  0
 21 20  1  6
 20 19  1  0
 21 22  1  0
 23 27  1  0
 23 21  1  0
 24 23  2  0
 25 26  2  0
 26 16  1  0
M  END
$$$$
