CDY.pdb
     RDKit          3D

 27 27  0  0  1  0  0  0  0  0999 V2000
    9.6921  -17.9130   15.0528 N   0  0  0  0  0  0  0  0  0  0  0  0
   10.0217  -17.0713   16.1567 C   0  0  1  0  0  0  0  0  0  0  0  0
    9.0751  -15.8885   16.1799 C   0  0  0  0  0  0  0  0  0  0  0  0
    7.3458  -16.3918   16.1658 S   0  0  0  0  0  0  0  0  0  0  0  0
    9.8747  -17.7586   17.4797 C   0  0  0  0  0  0  0  0  0  0  0  0
    9.4935  -18.9406   17.4596 O   0  0  0  0  0  0  0  0  0  0  0  0
   10.1450  -17.1318   18.7116 N   0  0  0  0  0  0  0  0  0  0  0  0
   10.4667  -17.8227   19.9318 C   0  0  1  0  0  0  0  0  0  0  0  0
   11.6623  -18.6861   19.7181 C   0  0  0  0  0  0  0  0  0  0  0  0
   11.9109  -19.4620   20.9566 C   0  0  0  0  0  0  0  0  0  0  0  0
   12.8750  -19.2907   21.7360 O   0  0  0  0  0  0  0  0  0  0  0  0
   10.6380  -16.8316   21.0157 C   0  0  0  0  0  0  0  0  0  0  0  0
   11.6297  -16.0657   20.9286 O   0  0  0  0  0  0  0  0  0  0  0  0
   11.0135  -20.4847   21.3233 O   0  0  0  0  0  0  0  0  0  0  0  0
    6.9786  -12.7210   18.2813 O   0  0  0  0  0  0  0  0  0  0  0  0
    7.3835  -13.2443   19.5055 C   0  0  0  0  0  0  0  0  0  0  0  0
    8.4844  -12.7514   20.1732 C   0  0  0  0  0  0  0  0  0  0  0  0
    8.9041  -13.2510   21.3827 C   0  0  0  0  0  0  0  0  0  0  0  0
    8.2167  -14.2968   21.9913 C   0  0  0  0  0  0  0  0  0  0  0  0
    8.6242  -14.8773   23.2715 C   0  0  0  0  0  0  0  0  0  0  0  0
    9.8711  -15.6748   23.1327 C   0  0  2  0  0  0  0  0  0  0  0  0
    9.7641  -16.7072   22.1151 N   0  0  0  0  0  0  0  0  0  0  0  0
   10.4071  -16.2625   24.3637 C   0  0  0  0  0  0  0  0  0  0  0  0
   10.4501  -17.5204   24.4854 O   0  0  0  0  0  0  0  0  0  0  0  0
    7.1084  -14.7922   21.3180 C   0  0  0  0  0  0  0  0  0  0  0  0
    6.7020  -14.2804   20.1078 C   0  0  0  0  0  0  0  0  0  0  0  0
   10.8927  -15.5568   25.4530 O   0  0  0  0  0  0  0  0  0  0  0  0
  2  3  1  0
  2  1  1  6
  4  3  1  0
  5  2  1  0
  6  5  2  0
  7  5  1  0
  8  7  1  0
  8  9  1  6
 10  9  1  0
 11 10  2  0
 12 22  1  0
 12  8  1  0
 13 12  2  0
 14 10  1  0
 16 15  1  0
 17 16  2  0
 18 17  1  0
 19 18  2  0
 19 25  1  0
 21 20  1  1
 20 19  1  0
 21 22  1  0
 23 27  1  0
 23 21  1  0
 24 23  2  0
 25 26  2  0
 26 16  1  0
M  END
$$$$
