WSR.pdb
     RDKit          3D

 32 33  0  0  1  0  0  0  0  0999 V2000
    5.9227  -17.0758   23.9199 N   0  0  0  0  0  0  0  0  0  0  0  0
    6.8291  -16.1144   23.3236 C   0  0  1  0  0  0  0  0  0  0  0  0
    7.6300  -15.3819   24.3716 C   0  0  0  0  0  0  0  0  0  0  0  0
    6.7839  -14.5999   25.3036 C   0  0  0  0  0  0  0  0  0  0  0  0
    5.6140  -14.9591   25.9356 C   0  0  0  0  0  0  0  0  0  0  0  0
    5.2125  -13.9180   26.6854 N   0  0  0  0  0  0  0  0  0  0  0  0
    6.0741  -12.8831   26.5726 C   0  0  0  0  0  0  0  0  0  0  0  0
    6.0831  -11.6342   27.1409 C   0  0  0  0  0  0  0  0  0  0  0  0
    7.1058  -10.7588   26.8486 C   0  0  0  0  0  0  0  0  0  0  0  0
    8.0921  -11.1662   25.9908 C   0  0  0  0  0  0  0  0  0  0  0  0
    8.0766  -12.4187   25.4251 C   0  0  0  0  0  0  0  0  0  0  0  0
    7.0594  -13.3127   25.7053 C   0  0  0  0  0  0  0  0  0  0  0  0
    7.7460  -16.7929   22.3848 C   0  0  0  0  0  0  0  0  0  0  0  0
    7.3781  -17.5918   21.4965 O   0  0  0  0  0  0  0  0  0  0  0  0
    9.2074  -15.2474   20.0538 O   0  0  0  0  0  0  0  0  0  0  0  0
    9.5398  -16.6059   20.0090 C   0  0  0  0  0  0  0  0  0  0  0  0
   10.0396  -16.9760   21.3865 C   0  0  2  0  0  0  0  0  0  0  0  0
    9.1675  -16.5657   22.4391 N   0  0  0  0  0  0  0  0  0  0  0  0
   11.4367  -16.4940   21.5699 C   0  0  0  0  0  0  0  0  0  0  0  0
   11.8983  -15.5545   20.8754 O   0  0  0  0  0  0  0  0  0  0  0  0
   11.6528  -23.5432   21.1436 N   0  0  0  0  0  0  0  0  0  0  0  0
   10.6131  -23.2220   22.0737 C   0  0  0  0  0  0  0  0  0  0  0  0
    9.9047  -24.1365   22.6419 N   0  0  0  0  0  0  0  0  0  0  0  0
   10.3177  -21.8695   22.4089 N   0  0  0  0  0  0  0  0  0  0  0  0
   10.7832  -20.7239   21.7055 C   0  0  0  0  0  0  0  0  0  0  0  0
   12.2007  -20.3320   21.9883 C   0  0  0  0  0  0  0  0  0  0  0  0
   12.6536  -19.1187   21.2602 C   0  0  0  0  0  0  0  0  0  0  0  0
   13.3113  -18.0672   22.1232 C   0  0  2  0  0  0  0  0  0  0  0  0
   12.3215  -17.0624   22.5330 N   0  0  0  0  0  0  0  0  0  0  0  0
   14.4175  -17.3535   21.4762 C   0  0  0  0  0  0  0  0  0  0  0  0
   14.4167  -17.0467   20.2580 O   0  0  0  0  0  0  0  0  0  0  0  0
   15.5366  -16.9777   22.1988 O   0  0  0  0  0  0  0  0  0  0  0  0
  2  1  1  1
  3  4  1  0
  3  2  1  0
  4  5  2  0
  6  5  1  0
  7  6  1  0
  8  7  2  0
  9  8  1  0
 10 11  1  0
 10  9  2  0
 11 12  2  0
 12  7  1  0
 12  4  1  0
 13  2  1  0
 13 14  2  0
 15 16  1  0
 17 16  1  6
 17 18  1  0
 18 13  1  0
 19 17  1  0
 20 19  2  0
 22 21  1  0
 22 23  2  0
 24 22  1  0
 25 24  1  0
 26 25  1  0
 27 26  1  0
 28 27  1  6
 28 29  1  0
 29 19  1  0
 30 32  1  0
 30 28  1  0
 31 30  2  0
M  END
$$$$
