WSR.pdb
     RDKit          3D

 32 33  0  0  1  0  0  0  0  0999 V2000
    8.1437  -18.0388   21.3728 N   0  0  0  0  0  0  0  0  0  0  0  0
    9.2940  -17.1716   21.2111 C   0  0  1  0  0  0  0  0  0  0  0  0
    9.0881  -15.8425   21.8948 C   0  0  0  0  0  0  0  0  0  0  0  0
    8.0296  -15.0234   21.2587 C   0  0  0  0  0  0  0  0  0  0  0  0
    6.6820  -14.9639   21.5373 C   0  0  0  0  0  0  0  0  0  0  0  0
    6.1249  -14.0741   20.6974 N   0  0  0  0  0  0  0  0  0  0  0  0
    7.0548  -13.5427   19.8733 C   0  0  0  0  0  0  0  0  0  0  0  0
    6.9629  -12.6103   18.8709 C   0  0  0  0  0  0  0  0  0  0  0  0
    8.0942  -12.2403   18.1773 C   0  0  0  0  0  0  0  0  0  0  0  0
    9.2879  -12.8207   18.5130 C   0  0  0  0  0  0  0  0  0  0  0  0
    9.3725  -13.7541   19.5182 C   0  0  0  0  0  0  0  0  0  0  0  0
    8.2492  -14.1395   20.2270 C   0  0  0  0  0  0  0  0  0  0  0  0
   10.5040  -17.8241   21.7521 C   0  0  0  0  0  0  0  0  0  0  0  0
   10.5562  -18.4006   22.8601 O   0  0  0  0  0  0  0  0  0  0  0  0
   14.2147  -17.0651   20.0122 O   0  0  0  0  0  0  0  0  0  0  0  0
   14.1143  -18.3257   20.6112 C   0  0  0  0  0  0  0  0  0  0  0  0
   12.9711  -18.2481   21.5967 C   0  0  2  0  0  0  0  0  0  0  0  0
   11.7380  -17.8352   21.0088 N   0  0  0  0  0  0  0  0  0  0  0  0
   13.3621  -17.4162   22.7685 C   0  0  0  0  0  0  0  0  0  0  0  0
   13.3774  -16.1618   22.7010 O   0  0  0  0  0  0  0  0  0  0  0  0
   11.2816  -16.3735   29.4651 N   0  0  0  0  0  0  0  0  0  0  0  0
   10.5569  -15.1600   29.2381 C   0  0  0  0  0  0  0  0  0  0  0  0
   10.2689  -14.3517   30.1998 N   0  0  0  0  0  0  0  0  0  0  0  0
   10.1215  -14.7963   27.9317 N   0  0  0  0  0  0  0  0  0  0  0  0
   10.4391  -15.4919   26.7320 C   0  0  0  0  0  0  0  0  0  0  0  0
   11.8159  -16.0789   26.6784 C   0  0  0  0  0  0  0  0  0  0  0  0
   12.1321  -16.7741   25.4041 C   0  0  0  0  0  0  0  0  0  0  0  0
   13.5692  -17.2184   25.2612 C   0  0  2  0  0  0  0  0  0  0  0  0
   13.7364  -17.9868   24.0206 N   0  0  0  0  0  0  0  0  0  0  0  0
   14.0606  -18.0530   26.3627 C   0  0  0  0  0  0  0  0  0  0  0  0
   14.8149  -17.6187   27.2686 O   0  0  0  0  0  0  0  0  0  0  0  0
   13.7047  -19.3874   26.4534 O   0  0  0  0  0  0  0  0  0  0  0  0
  2  1  1  1
  3  4  1  0
  3  2  1  0
  4  5  2  0
  6  5  1  0
  7  6  1  0
  8  7  2  0
  9  8  1  0
 10 11  1  0
 10  9  2  0
 11 12  2  0
 12  7  1  0
 12  4  1  0
 13  2  1  0
 13 14  2  0
 15 16  1  0
 17 16  1  6
 17 18  1  0
 18 13  1  0
 19 17  1  0
 20 19  2  0
 22 21  1  0
 22 23  2  0
 24 22  1  0
 25 24  1  0
 26 25  1  0
 27 26  1  0
 28 27  1  1
 28 29  1  0
 29 19  1  0
 30 32  1  0
 30 28  1  0
 31 30  2  0
M  END
$$$$
