WSR.pdb
     RDKit          3D

 32 33  0  0  1  0  0  0  0  0999 V2000
    7.9313  -17.5352   26.1035 N   0  0  0  0  0  0  0  0  0  0  0  0
    8.0036  -16.7765   24.8704 C   0  0  1  0  0  0  0  0  0  0  0  0
    8.8517  -15.5387   25.0286 C   0  0  0  0  0  0  0  0  0  0  0  0
    8.4622  -14.7173   26.1989 C   0  0  0  0  0  0  0  0  0  0  0  0
    8.9621  -14.7285   27.4823 C   0  0  0  0  0  0  0  0  0  0  0  0
    8.2953  -13.8032   28.1940 N   0  0  0  0  0  0  0  0  0  0  0  0
    7.3724  -13.1802   27.4283 C   0  0  0  0  0  0  0  0  0  0  0  0
    6.4724  -12.1833   27.7097 C   0  0  0  0  0  0  0  0  0  0  0  0
    5.6325  -11.7228   26.7196 C   0  0  0  0  0  0  0  0  0  0  0  0
    5.7225  -12.2800   25.4722 C   0  0  0  0  0  0  0  0  0  0  0  0
    6.6263  -13.2783   25.1976 C   0  0  0  0  0  0  0  0  0  0  0  0
    7.4786  -13.7549   26.1768 C   0  0  0  0  0  0  0  0  0  0  0  0
    8.5524  -17.6170   23.7864 C   0  0  0  0  0  0  0  0  0  0  0  0
    9.7541  -17.9484   23.6936 O   0  0  0  0  0  0  0  0  0  0  0  0
    6.2100  -18.6276   20.5018 O   0  0  0  0  0  0  0  0  0  0  0  0
    7.1522  -19.6011   20.8515 C   0  0  0  0  0  0  0  0  0  0  0  0
    8.2219  -18.9004   21.6570 C   0  0  2  0  0  0  0  0  0  0  0  0
    7.7055  -18.1222   22.7362 N   0  0  0  0  0  0  0  0  0  0  0  0
    9.1129  -18.1202   20.7540 C   0  0  0  0  0  0  0  0  0  0  0  0
    8.6829  -17.6261   19.6820 O   0  0  0  0  0  0  0  0  0  0  0  0
    6.8416  -13.1260   18.1881 N   0  0  0  0  0  0  0  0  0  0  0  0
    8.2323  -13.3380   17.9236 C   0  0  0  0  0  0  0  0  0  0  0  0
    8.6601  -13.6457   16.7474 N   0  0  0  0  0  0  0  0  0  0  0  0
    9.2047  -13.2178   18.9574 N   0  0  0  0  0  0  0  0  0  0  0  0
   10.5406  -13.7029   18.8949 C   0  0  0  0  0  0  0  0  0  0  0  0
   11.0847  -14.2460   20.1802 C   0  0  0  0  0  0  0  0  0  0  0  0
   10.4105  -15.4830   20.6521 C   0  0  0  0  0  0  0  0  0  0  0  0
   11.1951  -16.7564   20.4385 C   0  0  2  0  0  0  0  0  0  0  0  0
   10.4889  -17.8902   21.0494 N   0  0  0  0  0  0  0  0  0  0  0  0
   12.5525  -16.7355   20.9940 C   0  0  0  0  0  0  0  0  0  0  0  0
   12.8277  -17.1474   22.1485 O   0  0  0  0  0  0  0  0  0  0  0  0
   13.6143  -16.2498   20.2508 O   0  0  0  0  0  0  0  0  0  0  0  0
  2  1  1  1
  3  4  1  0
  3  2  1  0
  4  5  2  0
  6  5  1  0
  7  6  1  0
  8  7  2  0
  9  8  1  0
 10 11  1  0
 10  9  2  0
 11 12  2  0
 12  7  1  0
 12  4  1  0
 13  2  1  0
 13 14  2  0
 15 16  1  0
 17 16  1  6
 17 18  1  0
 18 13  1  0
 19 17  1  0
 20 19  2  0
 22 21  1  0
 22 23  2  0
 24 22  1  0
 25 24  1  0
 26 25  1  0
 27 26  1  0
 28 27  1  1
 28 29  1  0
 29 19  1  0
 30 32  1  0
 30 28  1  0
 31 30  2  0
M  END
$$$$
