WSR.pdb
     RDKit          3D

 32 33  0  0  1  0  0  0  0  0999 V2000
    6.6957  -17.3000   21.6542 N   0  0  0  0  0  0  0  0  0  0  0  0
    7.5387  -16.4345   22.4553 C   0  0  1  0  0  0  0  0  0  0  0  0
    6.7457  -15.7166   23.5193 C   0  0  0  0  0  0  0  0  0  0  0  0
    7.0403  -14.2656   23.5792 C   0  0  0  0  0  0  0  0  0  0  0  0
    7.5566  -13.4358   22.6086 C   0  0  0  0  0  0  0  0  0  0  0  0
    7.6444  -12.1982   23.1264 N   0  0  0  0  0  0  0  0  0  0  0  0
    7.2050  -12.1788   24.4041 C   0  0  0  0  0  0  0  0  0  0  0  0
    7.1037  -11.1633   25.3213 C   0  0  0  0  0  0  0  0  0  0  0  0
    6.6074  -11.4268   26.5791 C   0  0  0  0  0  0  0  0  0  0  0  0
    6.2266  -12.7075   26.8784 C   0  0  0  0  0  0  0  0  0  0  0  0
    6.3309  -13.7198   25.9547 C   0  0  0  0  0  0  0  0  0  0  0  0
    6.8263  -13.4768   24.6866 C   0  0  0  0  0  0  0  0  0  0  0  0
    8.6190  -17.2188   23.0880 C   0  0  0  0  0  0  0  0  0  0  0  0
    8.4307  -18.2342   23.7925 O   0  0  0  0  0  0  0  0  0  0  0  0
   12.5162  -15.6931   23.3654 O   0  0  0  0  0  0  0  0  0  0  0  0
   12.4325  -17.0807   23.2065 C   0  0  0  0  0  0  0  0  0  0  0  0
   11.0474  -17.4863   23.6551 C   0  0  2  0  0  0  0  0  0  0  0  0
   10.0011  -16.8472   22.9246 N   0  0  0  0  0  0  0  0  0  0  0  0
   10.9160  -17.3124   25.1284 C   0  0  0  0  0  0  0  0  0  0  0  0
   10.5470  -16.2191   25.6250 O   0  0  0  0  0  0  0  0  0  0  0  0
    6.2098  -20.9894   26.6497 N   0  0  0  0  0  0  0  0  0  0  0  0
    7.0878  -21.9761   27.2016 C   0  0  0  0  0  0  0  0  0  0  0  0
    7.1183  -23.1841   26.7533 N   0  0  0  0  0  0  0  0  0  0  0  0
    7.9675  -21.6598   28.2762 N   0  0  0  0  0  0  0  0  0  0  0  0
    8.4075  -20.3528   28.6256 C   0  0  0  0  0  0  0  0  0  0  0  0
    8.9959  -19.5546   27.5033 C   0  0  0  0  0  0  0  0  0  0  0  0
    9.6424  -18.2873   27.9311 C   0  0  0  0  0  0  0  0  0  0  0  0
   11.0804  -18.1277   27.4955 C   0  0  2  0  0  0  0  0  0  0  0  0
   11.1967  -18.3633   26.0504 N   0  0  0  0  0  0  0  0  0  0  0  0
   12.0227  -19.0317   28.1637 C   0  0  0  0  0  0  0  0  0  0  0  0
   12.1511  -19.0881   29.4121 O   0  0  0  0  0  0  0  0  0  0  0  0
   12.8297  -19.8826   27.4288 O   0  0  0  0  0  0  0  0  0  0  0  0
  2  1  1  1
  3  4  1  0
  3  2  1  0
  4  5  2  0
  6  5  1  0
  7  6  1  0
  8  7  2  0
  9  8  1  0
 10 11  1  0
 10  9  2  0
 11 12  2  0
 12  7  1  0
 12  4  1  0
 13  2  1  0
 13 14  2  0
 15 16  1  0
 17 16  1  6
 17 18  1  0
 18 13  1  0
 19 17  1  0
 20 19  2  0
 22 21  1  0
 22 23  2  0
 24 22  1  0
 25 24  1  0
 26 25  1  0
 27 26  1  0
 28 27  1  1
 28 29  1  0
 29 19  1  0
 30 32  1  0
 30 28  1  0
 31 30  2  0
M  END
$$$$
