WSR.pdb
     RDKit          3D

 32 33  0  0  1  0  0  0  0  0999 V2000
    6.2327  -17.8377   24.1828 N   0  0  0  0  0  0  0  0  0  0  0  0
    6.7024  -17.1563   22.9927 C   0  0  1  0  0  0  0  0  0  0  0  0
    6.4697  -15.6680   23.0763 C   0  0  0  0  0  0  0  0  0  0  0  0
    6.6264  -15.1350   24.4501 C   0  0  0  0  0  0  0  0  0  0  0  0
    6.6166  -15.8023   25.6550 C   0  0  0  0  0  0  0  0  0  0  0  0
    6.7983  -14.8961   26.6312 N   0  0  0  0  0  0  0  0  0  0  0  0
    6.9279  -13.6534   26.1163 C   0  0  0  0  0  0  0  0  0  0  0  0
    7.1283  -12.4331   26.7109 C   0  0  0  0  0  0  0  0  0  0  0  0
    7.2288  -11.3022   25.9307 C   0  0  0  0  0  0  0  0  0  0  0  0
    7.1242  -11.4320   24.5717 C   0  0  0  0  0  0  0  0  0  0  0  0
    6.9234  -12.6576   23.9830 C   0  0  0  0  0  0  0  0  0  0  0  0
    6.8199  -13.8053   24.7476 C   0  0  0  0  0  0  0  0  0  0  0  0
    8.1414  -17.4214   22.7883 C   0  0  0  0  0  0  0  0  0  0  0  0
    8.9411  -17.7062   23.7059 O   0  0  0  0  0  0  0  0  0  0  0  0
   10.0718  -16.1088   19.4450 O   0  0  0  0  0  0  0  0  0  0  0  0
   10.5527  -17.3665   19.8255 C   0  0  0  0  0  0  0  0  0  0  0  0
   10.1226  -17.5803   21.2585 C   0  0  2  0  0  0  0  0  0  0  0  0
    8.7282  -17.3655   21.4738 N   0  0  0  0  0  0  0  0  0  0  0  0
   10.9809  -16.7790   22.1747 C   0  0  0  0  0  0  0  0  0  0  0  0
   10.6437  -15.6256   22.5410 O   0  0  0  0  0  0  0  0  0  0  0  0
   12.3295  -16.6036   30.3909 N   0  0  0  0  0  0  0  0  0  0  0  0
   11.5644  -16.0170   29.3327 C   0  0  0  0  0  0  0  0  0  0  0  0
   10.3341  -15.6699   29.4968 N   0  0  0  0  0  0  0  0  0  0  0  0
   12.1364  -15.7936   28.0476 N   0  0  0  0  0  0  0  0  0  0  0  0
   13.1995  -16.5458   27.4749 C   0  0  0  0  0  0  0  0  0  0  0  0
   13.5516  -16.1843   26.0648 C   0  0  0  0  0  0  0  0  0  0  0  0
   12.6899  -16.8258   25.0386 C   0  0  0  0  0  0  0  0  0  0  0  0
   13.0110  -16.4479   23.6114 C   0  0  2  0  0  0  0  0  0  0  0  0
   12.2198  -17.2676   22.6844 N   0  0  0  0  0  0  0  0  0  0  0  0
   14.4216  -16.6074   23.2421 C   0  0  0  0  0  0  0  0  0  0  0  0
   14.8204  -17.4577   22.4078 O   0  0  0  0  0  0  0  0  0  0  0  0
   15.3972  -15.8071   23.8107 O   0  0  0  0  0  0  0  0  0  0  0  0
  2  1  1  1
  3  4  1  0
  3  2  1  0
  4  5  2  0
  6  5  1  0
  7  6  1  0
  8  7  2  0
  9  8  1  0
 10 11  1  0
 10  9  2  0
 11 12  2  0
 12  7  1  0
 12  4  1  0
 13  2  1  0
 13 14  2  0
 15 16  1  0
 17 16  1  6
 17 18  1  0
 18 13  1  0
 19 17  1  0
 20 19  2  0
 22 21  1  0
 22 23  2  0
 24 22  1  0
 25 24  1  0
 26 25  1  0
 27 26  1  0
 28 27  1  1
 28 29  1  0
 29 19  1  0
 30 32  1  0
 30 28  1  0
 31 30  2  0
M  END
$$$$
