WSR.pdb
     RDKit          3D

 32 33  0  0  1  0  0  0  0  0999 V2000
    7.9032  -18.8125   27.5428 N   0  0  0  0  0  0  0  0  0  0  0  0
    7.8735  -17.7800   26.5257 C   0  0  1  0  0  0  0  0  0  0  0  0
    7.5120  -16.4363   27.1087 C   0  0  0  0  0  0  0  0  0  0  0  0
    7.2340  -15.4131   26.0734 C   0  0  0  0  0  0  0  0  0  0  0  0
    7.0125  -15.5709   24.7232 C   0  0  0  0  0  0  0  0  0  0  0  0
    6.8028  -14.3533   24.1934 N   0  0  0  0  0  0  0  0  0  0  0  0
    6.8775  -13.3955   25.1437 C   0  0  0  0  0  0  0  0  0  0  0  0
    6.7338  -12.0323   25.0820 C   0  0  0  0  0  0  0  0  0  0  0  0
    6.8602  -11.2802   26.2292 C   0  0  0  0  0  0  0  0  0  0  0  0
    7.1284  -11.9228   27.4080 C   0  0  0  0  0  0  0  0  0  0  0  0
    7.2712  -13.2887   27.4624 C   0  0  0  0  0  0  0  0  0  0  0  0
    7.1481  -14.0623   26.3228 C   0  0  0  0  0  0  0  0  0  0  0  0
    9.1854  -17.6904   25.8522 C   0  0  0  0  0  0  0  0  0  0  0  0
   10.0620  -16.8437   26.1302 O   0  0  0  0  0  0  0  0  0  0  0  0
   10.5624  -20.6577   23.2785 O   0  0  0  0  0  0  0  0  0  0  0  0
   11.4856  -19.7642   23.8325 C   0  0  0  0  0  0  0  0  0  0  0  0
   10.7514  -18.4614   24.0512 C   0  0  2  0  0  0  0  0  0  0  0  0
    9.5443  -18.6053   24.7990 N   0  0  0  0  0  0  0  0  0  0  0  0
   10.5481  -17.7648   22.7506 C   0  0  0  0  0  0  0  0  0  0  0  0
    9.4169  -17.7183   22.2062 O   0  0  0  0  0  0  0  0  0  0  0  0
    8.0522  -12.0861   17.6935 N   0  0  0  0  0  0  0  0  0  0  0  0
    8.4309  -13.3958   17.2570 C   0  0  0  0  0  0  0  0  0  0  0  0
    8.3249  -13.7573   16.0245 N   0  0  0  0  0  0  0  0  0  0  0  0
    8.9419  -14.3580   18.1745 N   0  0  0  0  0  0  0  0  0  0  0  0
    8.7960  -14.3093   19.5888 C   0  0  0  0  0  0  0  0  0  0  0  0
   10.0650  -14.0991   20.3558 C   0  0  0  0  0  0  0  0  0  0  0  0
   10.3429  -15.1469   21.3718 C   0  0  0  0  0  0  0  0  0  0  0  0
   11.3187  -16.2144   20.9347 C   0  0  2  0  0  0  0  0  0  0  0  0
   11.6116  -17.1169   22.0559 N   0  0  0  0  0  0  0  0  0  0  0  0
   12.6004  -15.7014   20.4392 C   0  0  0  0  0  0  0  0  0  0  0  0
   13.6612  -15.7416   21.1110 O   0  0  0  0  0  0  0  0  0  0  0  0
   12.6980  -15.1381   19.1788 O   0  0  0  0  0  0  0  0  0  0  0  0
  2  1  1  1
  3  4  1  0
  3  2  1  0
  4  5  2  0
  6  5  1  0
  7  6  1  0
  8  7  2  0
  9  8  1  0
 10 11  1  0
 10  9  2  0
 11 12  2  0
 12  7  1  0
 12  4  1  0
 13  2  1  0
 13 14  2  0
 15 16  1  0
 17 16  1  6
 17 18  1  0
 18 13  1  0
 19 17  1  0
 20 19  2  0
 22 21  1  0
 22 23  2  0
 24 22  1  0
 25 24  1  0
 26 25  1  0
 27 26  1  0
 28 27  1  1
 28 29  1  0
 29 19  1  0
 30 32  1  0
 30 28  1  0
 31 30  2  0
M  END
$$$$
