WSR.pdb
     RDKit          3D

 32 33  0  0  1  0  0  0  0  0999 V2000
   12.4748  -13.2838   19.5050 N   0  0  0  0  0  0  0  0  0  0  0  0
   11.8587  -14.4249   20.1528 C   0  0  1  0  0  0  0  0  0  0  0  0
   10.9843  -15.2002   19.1984 C   0  0  0  0  0  0  0  0  0  0  0  0
    9.7438  -14.4764   18.8336 C   0  0  0  0  0  0  0  0  0  0  0  0
    9.3542  -13.9648   17.6155 C   0  0  0  0  0  0  0  0  0  0  0  0
    8.1470  -13.3947   17.7735 N   0  0  0  0  0  0  0  0  0  0  0  0
    7.7236  -13.5103   19.0516 C   0  0  0  0  0  0  0  0  0  0  0  0
    6.5754  -13.0929   19.6762 C   0  0  0  0  0  0  0  0  0  0  0  0
    6.3957  -13.3510   21.0174 C   0  0  0  0  0  0  0  0  0  0  0  0
    7.3789  -14.0231   21.6930 C   0  0  0  0  0  0  0  0  0  0  0  0
    8.5265  -14.4380   21.0608 C   0  0  0  0  0  0  0  0  0  0  0  0
    8.7267  -14.1893   19.7153 C   0  0  0  0  0  0  0  0  0  0  0  0
   12.8967  -15.3171   20.7087 C   0  0  0  0  0  0  0  0  0  0  0  0
   13.9789  -15.5768   20.1395 O   0  0  0  0  0  0  0  0  0  0  0  0
   12.2093  -17.7904   23.9558 O   0  0  0  0  0  0  0  0  0  0  0  0
   13.4357  -17.1208   24.0303 C   0  0  0  0  0  0  0  0  0  0  0  0
   13.7733  -16.6759   22.6260 C   0  0  2  0  0  0  0  0  0  0  0  0
   12.7169  -15.9626   21.9840 N   0  0  0  0  0  0  0  0  0  0  0  0
   14.2608  -17.8339   21.8262 C   0  0  0  0  0  0  0  0  0  0  0  0
   13.4783  -18.5060   21.1092 O   0  0  0  0  0  0  0  0  0  0  0  0
   16.1711  -16.5684   16.6686 N   0  0  0  0  0  0  0  0  0  0  0  0
   17.2273  -15.7009   17.0944 C   0  0  0  0  0  0  0  0  0  0  0  0
   17.3221  -14.4880   16.6692 N   0  0  0  0  0  0  0  0  0  0  0  0
   18.2225  -16.1478   18.0101 N   0  0  0  0  0  0  0  0  0  0  0  0
   18.2676  -17.4333   18.6181 C   0  0  0  0  0  0  0  0  0  0  0  0
   17.0957  -17.7711   19.4874 C   0  0  0  0  0  0  0  0  0  0  0  0
   17.1990  -19.0903   20.1627 C   0  0  0  0  0  0  0  0  0  0  0  0
   16.0415  -19.4322   21.0718 C   0  0  2  0  0  0  0  0  0  0  0  0
   15.6270  -18.2423   21.8265 N   0  0  0  0  0  0  0  0  0  0  0  0
   16.3249  -20.4917   22.0458 C   0  0  0  0  0  0  0  0  0  0  0  0
   16.4485  -20.2762   23.2772 O   0  0  0  0  0  0  0  0  0  0  0  0
   16.4707  -21.8067   21.6393 O   0  0  0  0  0  0  0  0  0  0  0  0
  2  1  1  6
  3  4  1  0
  3  2  1  0
  4  5  2  0
  6  5  1  0
  7  6  1  0
  8  7  2  0
  9  8  1  0
 10 11  1  0
 10  9  2  0
 11 12  2  0
 12  7  1  0
 12  4  1  0
 13  2  1  0
 13 14  2  0
 15 16  1  0
 17 16  1  1
 17 18  1  0
 18 13  1  0
 19 17  1  0
 20 19  2  0
 22 21  1  0
 22 23  2  0
 24 22  1  0
 25 24  1  0
 26 25  1  0
 27 26  1  0
 28 27  1  1
 28 29  1  0
 29 19  1  0
 30 32  1  0
 30 28  1  0
 31 30  2  0
M  END
$$$$
