WSR.pdb
     RDKit          3D

 32 33  0  0  1  0  0  0  0  0999 V2000
    7.5670  -17.4913   25.4785 N   0  0  0  0  0  0  0  0  0  0  0  0
    7.4428  -16.4425   24.4854 C   0  0  1  0  0  0  0  0  0  0  0  0
    8.5282  -15.4052   24.6344 C   0  0  0  0  0  0  0  0  0  0  0  0
    8.4638  -14.6830   25.9268 C   0  0  0  0  0  0  0  0  0  0  0  0
    8.9764  -15.0379   27.1550 C   0  0  0  0  0  0  0  0  0  0  0  0
    8.6674  -14.0643   28.0291 N   0  0  0  0  0  0  0  0  0  0  0  0
    7.9691  -13.0782   27.4241 C   0  0  0  0  0  0  0  0  0  0  0  0
    7.4481  -11.9014   27.9001 C   0  0  0  0  0  0  0  0  0  0  0  0
    6.7684  -11.0611   27.0460 C   0  0  0  0  0  0  0  0  0  0  0  0
    6.6320  -11.4300   25.7345 C   0  0  0  0  0  0  0  0  0  0  0  0
    7.1564  -12.6103   25.2646 C   0  0  0  0  0  0  0  0  0  0  0  0
    7.8423  -13.4680   26.1050 C   0  0  0  0  0  0  0  0  0  0  0  0
    7.4929  -17.0193   23.1263 C   0  0  0  0  0  0  0  0  0  0  0  0
    8.0056  -18.1256   22.8505 O   0  0  0  0  0  0  0  0  0  0  0  0
    6.1828  -14.8077   19.8823 O   0  0  0  0  0  0  0  0  0  0  0  0
    6.0006  -16.1864   19.7286 C   0  0  0  0  0  0  0  0  0  0  0  0
    6.9624  -16.8601   20.6801 C   0  0  2  0  0  0  0  0  0  0  0  0
    6.9343  -16.3168   21.9995 N   0  0  0  0  0  0  0  0  0  0  0  0
    8.3305  -16.8842   20.0920 C   0  0  0  0  0  0  0  0  0  0  0  0
    9.1786  -16.0030   20.3789 O   0  0  0  0  0  0  0  0  0  0  0  0
   13.8919  -17.4518   23.0864 N   0  0  0  0  0  0  0  0  0  0  0  0
   13.2227  -18.6896   23.3494 C   0  0  0  0  0  0  0  0  0  0  0  0
   13.1166  -19.1632   24.5433 N   0  0  0  0  0  0  0  0  0  0  0  0
   12.6450  -19.4524   22.2944 N   0  0  0  0  0  0  0  0  0  0  0  0
   12.7427  -19.1502   20.9076 C   0  0  0  0  0  0  0  0  0  0  0  0
   11.6724  -18.2498   20.3722 C   0  0  0  0  0  0  0  0  0  0  0  0
   11.0468  -18.7298   19.1131 C   0  0  0  0  0  0  0  0  0  0  0  0
   10.0475  -17.7789   18.4963 C   0  0  2  0  0  0  0  0  0  0  0  0
    8.7534  -17.8964   19.1810 N   0  0  0  0  0  0  0  0  0  0  0  0
    9.8068  -17.9929   17.0653 C   0  0  0  0  0  0  0  0  0  0  0  0
    8.9856  -18.8363   16.6264 O   0  0  0  0  0  0  0  0  0  0  0  0
   10.4905  -17.2556   16.1142 O   0  0  0  0  0  0  0  0  0  0  0  0
  2  1  1  1
  3  4  1  0
  3  2  1  0
  4  5  2  0
  6  5  1  0
  7  6  1  0
  8  7  2  0
  9  8  1  0
 10 11  1  0
 10  9  2  0
 11 12  2  0
 12  7  1  0
 12  4  1  0
 13  2  1  0
 13 14  2  0
 15 16  1  0
 17 16  1  6
 17 18  1  0
 18 13  1  0
 19 17  1  0
 20 19  2  0
 22 21  1  0
 22 23  2  0
 24 22  1  0
 25 24  1  0
 26 25  1  0
 27 26  1  0
 28 27  1  1
 28 29  1  0
 29 19  1  0
 30 32  1  0
 30 28  1  0
 31 30  2  0
M  END
$$$$
