WSR.pdb
     RDKit          3D

 32 33  0  0  1  0  0  0  0  0999 V2000
   10.7416  -16.5714   20.5592 N   0  0  0  0  0  0  0  0  0  0  0  0
   10.1162  -16.1928   21.8110 C   0  0  1  0  0  0  0  0  0  0  0  0
    8.6983  -16.7007   21.8994 C   0  0  0  0  0  0  0  0  0  0  0  0
    7.7245  -15.8176   21.2154 C   0  0  0  0  0  0  0  0  0  0  0  0
    6.3628  -15.9631   21.0685 C   0  0  0  0  0  0  0  0  0  0  0  0
    5.9066  -14.9068   20.3732 N   0  0  0  0  0  0  0  0  0  0  0  0
    6.9168  -14.0678   20.0545 C   0  0  0  0  0  0  0  0  0  0  0  0
    6.9376  -12.8808   19.3665 C   0  0  0  0  0  0  0  0  0  0  0  0
    8.1315  -12.2179   19.1851 C   0  0  0  0  0  0  0  0  0  0  0  0
    9.2728  -12.7699   19.7024 C   0  0  0  0  0  0  0  0  0  0  0  0
    9.2445  -13.9594   20.3904 C   0  0  0  0  0  0  0  0  0  0  0  0
    8.0567  -14.6408   20.5838 C   0  0  0  0  0  0  0  0  0  0  0  0
   10.9001  -16.7131   22.9501 C   0  0  0  0  0  0  0  0  0  0  0  0
   11.7966  -17.5785   22.8497 O   0  0  0  0  0  0  0  0  0  0  0  0
    9.7974  -16.0032   26.9287 O   0  0  0  0  0  0  0  0  0  0  0  0
   11.1734  -15.9530   26.6799 C   0  0  0  0  0  0  0  0  0  0  0  0
   11.4125  -16.7290   25.4052 C   0  0  2  0  0  0  0  0  0  0  0  0
   10.6697  -16.2373   24.2901 N   0  0  0  0  0  0  0  0  0  0  0  0
   11.2029  -18.1838   25.6454 C   0  0  0  0  0  0  0  0  0  0  0  0
   10.1510  -18.7607   25.2729 O   0  0  0  0  0  0  0  0  0  0  0  0
   17.0702  -19.3612   24.7795 N   0  0  0  0  0  0  0  0  0  0  0  0
   16.9523  -20.3877   23.7887 C   0  0  0  0  0  0  0  0  0  0  0  0
   17.7211  -20.4244   22.7550 N   0  0  0  0  0  0  0  0  0  0  0  0
   15.9728  -21.4151   23.9065 N   0  0  0  0  0  0  0  0  0  0  0  0
   15.2035  -21.6929   25.0705 C   0  0  0  0  0  0  0  0  0  0  0  0
   13.9684  -20.8618   25.2342 C   0  0  0  0  0  0  0  0  0  0  0  0
   13.1302  -21.2403   26.4010 C   0  0  0  0  0  0  0  0  0  0  0  0
   11.8813  -20.4097   26.5836 C   0  0  2  0  0  0  0  0  0  0  0  0
   12.1717  -18.9975   26.3032 N   0  0  0  0  0  0  0  0  0  0  0  0
   11.2958  -20.4780   27.9267 C   0  0  0  0  0  0  0  0  0  0  0  0
   11.2951  -19.5078   28.7248 O   0  0  0  0  0  0  0  0  0  0  0  0
   10.7037  -21.6429   28.3826 O   0  0  0  0  0  0  0  0  0  0  0  0
  2  1  1  6
  3  4  1  0
  3  2  1  0
  4  5  2  0
  6  5  1  0
  7  6  1  0
  8  7  2  0
  9  8  1  0
 10 11  1  0
 10  9  2  0
 11 12  2  0
 12  7  1  0
 12  4  1  0
 13  2  1  0
 13 14  2  0
 15 16  1  0
 17 16  1  1
 17 18  1  0
 18 13  1  0
 19 17  1  0
 20 19  2  0
 22 21  1  0
 22 23  2  0
 24 22  1  0
 25 24  1  0
 26 25  1  0
 27 26  1  0
 28 27  1  1
 28 29  1  0
 29 19  1  0
 30 32  1  0
 30 28  1  0
 31 30  2  0
M  END
$$$$
