WSR.pdb
     RDKit          3D

 32 33  0  0  1  0  0  0  0  0999 V2000
    8.1832  -18.7709   20.0170 N   0  0  0  0  0  0  0  0  0  0  0  0
    8.7237  -17.7120   20.8465 C   0  0  1  0  0  0  0  0  0  0  0  0
    7.6426  -16.7750   21.3256 C   0  0  0  0  0  0  0  0  0  0  0  0
    7.4084  -15.6417   20.4001 C   0  0  0  0  0  0  0  0  0  0  0  0
    6.9637  -15.6528   19.0965 C   0  0  0  0  0  0  0  0  0  0  0  0
    6.9069  -14.3798   18.6681 N   0  0  0  0  0  0  0  0  0  0  0  0
    7.2978  -13.5268   19.6406 C   0  0  0  0  0  0  0  0  0  0  0  0
    7.4013  -12.1589   19.6702 C   0  0  0  0  0  0  0  0  0  0  0  0
    7.8335  -11.5320   20.8183 C   0  0  0  0  0  0  0  0  0  0  0  0
    8.1499  -12.3014   21.9057 C   0  0  0  0  0  0  0  0  0  0  0  0
    8.0439  -13.6711   21.8688 C   0  0  0  0  0  0  0  0  0  0  0  0
    7.6120  -14.3203   20.7266 C   0  0  0  0  0  0  0  0  0  0  0  0
    9.4315  -18.2865   22.0091 C   0  0  0  0  0  0  0  0  0  0  0  0
    8.9607  -19.1773   22.7490 O   0  0  0  0  0  0  0  0  0  0  0  0
   12.9953  -16.5884   23.6571 O   0  0  0  0  0  0  0  0  0  0  0  0
   12.8873  -17.9813   23.5818 C   0  0  0  0  0  0  0  0  0  0  0  0
   11.4104  -18.3010   23.5499 C   0  0  2  0  0  0  0  0  0  0  0  0
   10.7519  -17.8387   22.3711 N   0  0  0  0  0  0  0  0  0  0  0  0
   10.7579  -17.8277   24.8022 C   0  0  0  0  0  0  0  0  0  0  0  0
    9.8910  -16.9187   24.7817 O   0  0  0  0  0  0  0  0  0  0  0  0
    8.3558  -21.7686   25.4120 N   0  0  0  0  0  0  0  0  0  0  0  0
    6.9536  -21.6304   25.6649 C   0  0  0  0  0  0  0  0  0  0  0  0
    6.0688  -22.1372   24.8766 N   0  0  0  0  0  0  0  0  0  0  0  0
    6.4779  -20.9213   26.8048 N   0  0  0  0  0  0  0  0  0  0  0  0
    7.2542  -20.0496   27.6182 C   0  0  0  0  0  0  0  0  0  0  0  0
    8.5831  -19.6584   27.0492 C   0  0  0  0  0  0  0  0  0  0  0  0
    8.9009  -18.2133   27.1828 C   0  0  0  0  0  0  0  0  0  0  0  0
   10.3741  -17.8920   27.2808 C   0  0  2  0  0  0  0  0  0  0  0  0
   11.0737  -18.3719   26.0818 N   0  0  0  0  0  0  0  0  0  0  0  0
   11.0485  -18.4768   28.4447 C   0  0  0  0  0  0  0  0  0  0  0  0
   11.9696  -19.3256   28.3490 O   0  0  0  0  0  0  0  0  0  0  0  0
   10.6902  -18.1083   29.7298 O   0  0  0  0  0  0  0  0  0  0  0  0
  2  1  1  1
  3  4  1  0
  3  2  1  0
  4  5  2  0
  6  5  1  0
  7  6  1  0
  8  7  2  0
  9  8  1  0
 10 11  1  0
 10  9  2  0
 11 12  2  0
 12  7  1  0
 12  4  1  0
 13  2  1  0
 13 14  2  0
 15 16  1  0
 17 16  1  6
 17 18  1  0
 18 13  1  0
 19 17  1  0
 20 19  2  0
 22 21  1  0
 22 23  2  0
 24 22  1  0
 25 24  1  0
 26 25  1  0
 27 26  1  0
 28 27  1  6
 28 29  1  0
 29 19  1  0
 30 32  1  0
 30 28  1  0
 31 30  2  0
M  END
$$$$
