WSR.pdb
     RDKit          3D

 32 33  0  0  1  0  0  0  0  0999 V2000
    6.3884  -18.1760   23.9230 N   0  0  0  0  0  0  0  0  0  0  0  0
    6.9881  -16.8687   23.7418 C   0  0  1  0  0  0  0  0  0  0  0  0
    7.6399  -16.3760   25.0100 C   0  0  0  0  0  0  0  0  0  0  0  0
    6.8147  -15.3814   25.7351 C   0  0  0  0  0  0  0  0  0  0  0  0
    5.6620  -15.5657   26.4662 C   0  0  0  0  0  0  0  0  0  0  0  0
    5.2760  -14.3677   26.9387 N   0  0  0  0  0  0  0  0  0  0  0  0
    6.1312  -13.3975   26.5470 C   0  0  0  0  0  0  0  0  0  0  0  0
    6.1503  -12.0457   26.7813 C   0  0  0  0  0  0  0  0  0  0  0  0
    7.1627  -11.2757   26.2522 C   0  0  0  0  0  0  0  0  0  0  0  0
    8.1287  -11.8895   25.5007 C   0  0  0  0  0  0  0  0  0  0  0  0
    8.1031  -13.2442   25.2701 C   0  0  0  0  0  0  0  0  0  0  0  0
    7.0961  -14.0353   25.7919 C   0  0  0  0  0  0  0  0  0  0  0  0
    7.9889  -16.9133   22.6560 C   0  0  0  0  0  0  0  0  0  0  0  0
    8.6824  -17.9160   22.3798 O   0  0  0  0  0  0  0  0  0  0  0  0
    7.5900  -14.6991   19.4676 O   0  0  0  0  0  0  0  0  0  0  0  0
    8.9662  -14.7233   19.7189 C   0  0  0  0  0  0  0  0  0  0  0  0
    9.1970  -15.7843   20.7701 C   0  0  2  0  0  0  0  0  0  0  0  0
    8.2332  -15.7640   21.8225 N   0  0  0  0  0  0  0  0  0  0  0  0
   10.5994  -15.7153   21.2668 C   0  0  0  0  0  0  0  0  0  0  0  0
   11.5605  -15.5260   20.4804 O   0  0  0  0  0  0  0  0  0  0  0  0
   10.7269  -16.2864   28.8622 N   0  0  0  0  0  0  0  0  0  0  0  0
   11.0743  -15.1271   28.0977 C   0  0  0  0  0  0  0  0  0  0  0  0
   10.5078  -13.9870   28.2986 N   0  0  0  0  0  0  0  0  0  0  0  0
   12.0656  -15.1888   27.0768 N   0  0  0  0  0  0  0  0  0  0  0  0
   11.8518  -15.6394   25.7444 C   0  0  0  0  0  0  0  0  0  0  0  0
   12.2425  -17.0607   25.4794 C   0  0  0  0  0  0  0  0  0  0  0  0
   12.0509  -17.4922   24.0708 C   0  0  0  0  0  0  0  0  0  0  0  0
   12.2354  -16.4023   23.0407 C   0  0  2  0  0  0  0  0  0  0  0  0
   10.9297  -15.8571   22.6467 N   0  0  0  0  0  0  0  0  0  0  0  0
   12.9181  -16.8319   21.8156 C   0  0  0  0  0  0  0  0  0  0  0  0
   12.3091  -17.2760   20.8106 O   0  0  0  0  0  0  0  0  0  0  0  0
   14.2966  -16.7637   21.7121 O   0  0  0  0  0  0  0  0  0  0  0  0
  2  1  1  1
  3  4  1  0
  3  2  1  0
  4  5  2  0
  6  5  1  0
  7  6  1  0
  8  7  2  0
  9  8  1  0
 10 11  1  0
 10  9  2  0
 11 12  2  0
 12  7  1  0
 12  4  1  0
 13  2  1  0
 13 14  2  0
 15 16  1  0
 17 16  1  6
 17 18  1  0
 18 13  1  0
 19 17  1  0
 20 19  2  0
 22 21  1  0
 22 23  2  0
 24 22  1  0
 25 24  1  0
 26 25  1  0
 27 26  1  0
 28 27  1  1
 28 29  1  0
 29 19  1  0
 30 32  1  0
 30 28  1  0
 31 30  2  0
M  END
$$$$
