WSR.pdb
     RDKit          3D

 32 33  0  0  1  0  0  0  0  0999 V2000
    8.2439  -18.3287   27.9448 N   0  0  0  0  0  0  0  0  0  0  0  0
    8.3380  -17.6872   26.6482 C   0  0  1  0  0  0  0  0  0  0  0  0
    9.0392  -16.3543   26.7375 C   0  0  0  0  0  0  0  0  0  0  0  0
    8.1110  -15.2045   26.6266 C   0  0  0  0  0  0  0  0  0  0  0  0
    7.3510  -14.5952   27.6003 C   0  0  0  0  0  0  0  0  0  0  0  0
    6.6675  -13.5913   27.0237 N   0  0  0  0  0  0  0  0  0  0  0  0
    6.9475  -13.5142   25.7039 C   0  0  0  0  0  0  0  0  0  0  0  0
    6.5014  -12.6657   24.7222 C   0  0  0  0  0  0  0  0  0  0  0  0
    6.9626  -12.8121   23.4324 C   0  0  0  0  0  0  0  0  0  0  0  0
    7.8612  -13.8104   23.1670 C   0  0  0  0  0  0  0  0  0  0  0  0
    8.3035  -14.6568   24.1554 C   0  0  0  0  0  0  0  0  0  0  0  0
    7.8534  -14.5271   25.4565 C   0  0  0  0  0  0  0  0  0  0  0  0
    9.0560  -18.5614   25.6981 C   0  0  0  0  0  0  0  0  0  0  0  0
   10.2409  -18.9327   25.8421 O   0  0  0  0  0  0  0  0  0  0  0  0
    7.0840  -20.2123   22.4103 O   0  0  0  0  0  0  0  0  0  0  0  0
    8.1697  -20.9252   22.9307 C   0  0  0  0  0  0  0  0  0  0  0  0
    9.0807  -19.9121   23.5850 C   0  0  2  0  0  0  0  0  0  0  0  0
    8.4106  -19.0548   24.5085 N   0  0  0  0  0  0  0  0  0  0  0  0
    9.8422  -19.1637   22.5466 C   0  0  0  0  0  0  0  0  0  0  0  0
    9.5770  -19.2917   21.3254 O   0  0  0  0  0  0  0  0  0  0  0  0
    8.6307  -13.8023   16.6891 N   0  0  0  0  0  0  0  0  0  0  0  0
    8.7125  -13.3840   18.0556 C   0  0  0  0  0  0  0  0  0  0  0  0
    8.9006  -12.1503   18.3775 N   0  0  0  0  0  0  0  0  0  0  0  0
    8.5898  -14.3216   19.1208 N   0  0  0  0  0  0  0  0  0  0  0  0
    9.5837  -15.2612   19.5124 C   0  0  0  0  0  0  0  0  0  0  0  0
   10.0768  -15.1215   20.9196 C   0  0  0  0  0  0  0  0  0  0  0  0
    9.9097  -16.3438   21.7474 C   0  0  0  0  0  0  0  0  0  0  0  0
   11.1836  -17.1118   22.0125 C   0  0  2  0  0  0  0  0  0  0  0  0
   10.9030  -18.2685   22.8731 N   0  0  0  0  0  0  0  0  0  0  0  0
   12.2419  -16.3301   22.6610 C   0  0  0  0  0  0  0  0  0  0  0  0
   13.1553  -15.7501   22.0228 O   0  0  0  0  0  0  0  0  0  0  0  0
   12.2792  -16.1943   24.0379 O   0  0  0  0  0  0  0  0  0  0  0  0
  2  1  1  1
  3  4  1  0
  3  2  1  0
  4  5  2  0
  6  5  1  0
  7  6  1  0
  8  7  2  0
  9  8  1  0
 10 11  1  0
 10  9  2  0
 11 12  2  0
 12  7  1  0
 12  4  1  0
 13  2  1  0
 13 14  2  0
 15 16  1  0
 17 16  1  6
 17 18  1  0
 18 13  1  0
 19 17  1  0
 20 19  2  0
 22 21  1  0
 22 23  2  0
 24 22  1  0
 25 24  1  0
 26 25  1  0
 27 26  1  0
 28 27  1  1
 28 29  1  0
 29 19  1  0
 30 32  1  0
 30 28  1  0
 31 30  2  0
M  END
$$$$
