MQW.pdb
     RDKit          3D

 32 33  0  0  1  0  0  0  0  0999 V2000
   31.8105  -24.5354  -15.7283 C   0  0  0  0  0  0  0  0  0  0  0  0
   31.6174  -24.6843  -17.4983 S   0  0  0  0  0  0  0  0  0  0  0  0
   30.4291  -23.6177  -18.2546 C   0  0  0  0  0  0  0  0  0  0  0  0
   29.7269  -22.6867  -17.3425 C   0  0  0  0  0  0  0  0  0  0  0  0
   28.8222  -21.7240  -18.0035 C   0  0  2  0  0  0  0  0  0  0  0  0
   29.5668  -20.6543  -18.6693 N   0  0  0  0  0  0  0  0  0  0  0  0
   28.0285  -20.9932  -16.9317 C   0  0  0  0  0  0  0  0  0  0  0  0
   28.6901  -20.1847  -16.1949 O   0  0  0  0  0  0  0  0  0  0  0  0
   23.8609  -17.4011  -16.7819 N   0  0  0  0  0  0  0  0  0  0  0  0
   23.3048  -18.1009  -15.6932 C   0  0  0  0  0  0  0  0  0  0  0  0
   22.5473  -17.4989  -14.9056 O   0  0  0  0  0  0  0  0  0  0  0  0
   23.6094  -19.5082  -15.4886 C   0  0  0  0  0  0  0  0  0  0  0  0
   24.6161  -20.1144  -16.3808 C   0  0  0  0  0  0  0  0  0  0  0  0
   25.9663  -20.4143  -15.7453 C   0  0  2  0  0  0  0  0  0  0  0  0
   26.6501  -21.2161  -16.7867 N   0  0  0  0  0  0  0  0  0  0  0  0
   25.8531  -21.3091  -14.5721 C   0  0  0  0  0  0  0  0  0  0  0  0
   25.6794  -22.5747  -14.6883 O   0  0  0  0  0  0  0  0  0  0  0  0
   25.9243  -20.8783  -13.2127 N   0  0  0  0  0  0  0  0  0  0  0  0
   25.7560  -21.7740  -12.0885 C   0  0  1  0  0  0  0  0  0  0  0  0
   26.9648  -21.8189  -11.1899 C   0  0  0  0  0  0  0  0  0  0  0  0
   26.8303  -20.8713  -10.0927 C   0  0  0  0  0  0  0  0  0  0  0  0
   25.7313  -20.0573   -9.8749 C   0  0  0  0  0  0  0  0  0  0  0  0
   25.9992  -19.3271   -8.8046 N   0  0  0  0  0  0  0  0  0  0  0  0
   27.2075  -19.6259   -8.3213 C   0  0  0  0  0  0  0  0  0  0  0  0
   27.9085  -19.1537   -7.2394 C   0  0  0  0  0  0  0  0  0  0  0  0
   29.1785  -19.6554   -6.9347 C   0  0  0  0  0  0  0  0  0  0  0  0
   29.6781  -20.6213   -7.7520 C   0  0  0  0  0  0  0  0  0  0  0  0
   28.9931  -21.1071   -8.8405 C   0  0  0  0  0  0  0  0  0  0  0  0
   27.7432  -20.5913   -9.1147 C   0  0  0  0  0  0  0  0  0  0  0  0
   24.5309  -21.3849  -11.3729 C   0  0  0  0  0  0  0  0  0  0  0  0
   24.0600  -20.2340  -11.5299 O   0  0  0  0  0  0  0  0  0  0  0  0
   23.8756  -22.2509  -10.5271 O   0  0  0  0  0  0  0  0  0  0  0  0
  2  1  1  0
  3  2  1  0
  4  3  1  0
  4  5  1  0
  5  7  1  0
  5  6  1  1
  7  8  2  0
 10 12  1  0
 10  9  1  0
 11 10  2  0
 14 13  1  6
 13 12  1  0
 15 14  1  0
 15  7  1  0
 16 17  2  0
 16 14  1  0
 18 16  1  0
 19 30  1  0
 19 18  1  0
 19 20  1  1
 21 29  1  0
 21 20  1  0
 22 21  2  0
 23 22  1  0
 23 24  1  0
 24 29  2  0
 25 24  1  0
 25 26  2  0
 26 27  1  0
 27 28  2  0
 29 28  1  0
 30 32  1  0
 31 30  2  0
M  END
$$$$
