MQW.pdb
     RDKit          3D

 32 33  0  0  1  0  0  0  0  0999 V2000
   26.6534  -13.8078  -16.2651 C   0  0  0  0  0  0  0  0  0  0  0  0
   26.2591  -15.3729  -15.4987 S   0  0  0  0  0  0  0  0  0  0  0  0
   24.5483  -15.6942  -15.1961 C   0  0  0  0  0  0  0  0  0  0  0  0
   24.2365  -17.0125  -14.5987 C   0  0  0  0  0  0  0  0  0  0  0  0
   25.0611  -18.1349  -15.0908 C   0  0  2  0  0  0  0  0  0  0  0  0
   24.5249  -18.6937  -16.3326 N   0  0  0  0  0  0  0  0  0  0  0  0
   24.9485  -19.2859  -14.1031 C   0  0  0  0  0  0  0  0  0  0  0  0
   23.7727  -19.7500  -13.9119 O   0  0  0  0  0  0  0  0  0  0  0  0
   26.5104  -23.8364  -15.1865 N   0  0  0  0  0  0  0  0  0  0  0  0
   27.2894  -22.6823  -15.4001 C   0  0  0  0  0  0  0  0  0  0  0  0
   27.8443  -22.5185  -16.5055 O   0  0  0  0  0  0  0  0  0  0  0  0
   27.4456  -21.6929  -14.3457 C   0  0  0  0  0  0  0  0  0  0  0  0
   26.8053  -21.9860  -13.0492 C   0  0  0  0  0  0  0  0  0  0  0  0
   25.8660  -20.9119  -12.5190 C   0  0  2  0  0  0  0  0  0  0  0  0
   26.0893  -19.7865  -13.4563 N   0  0  0  0  0  0  0  0  0  0  0  0
   26.2784  -20.4050  -11.1913 C   0  0  0  0  0  0  0  0  0  0  0  0
   27.4611  -19.9643  -10.9618 O   0  0  0  0  0  0  0  0  0  0  0  0
   25.4295  -20.3476  -10.0447 N   0  0  0  0  0  0  0  0  0  0  0  0
   25.9059  -20.5640   -8.6954 C   0  0  1  0  0  0  0  0  0  0  0  0
   25.9297  -19.3012   -7.8735 C   0  0  0  0  0  0  0  0  0  0  0  0
   27.2437  -19.0925   -7.2822 C   0  0  0  0  0  0  0  0  0  0  0  0
   28.2378  -18.2894   -7.8159 C   0  0  0  0  0  0  0  0  0  0  0  0
   29.2818  -18.3812   -7.0084 N   0  0  0  0  0  0  0  0  0  0  0  0
   29.0154  -19.1969   -5.9854 C   0  0  0  0  0  0  0  0  0  0  0  0
   29.7632  -19.5908   -4.9035 C   0  0  0  0  0  0  0  0  0  0  0  0
   29.2327  -20.4611   -3.9451 C   0  0  0  0  0  0  0  0  0  0  0  0
   27.9565  -20.8921   -4.1350 C   0  0  0  0  0  0  0  0  0  0  0  0
   27.1913  -20.5105   -5.2115 C   0  0  0  0  0  0  0  0  0  0  0  0
   27.7435  -19.6519   -6.1395 C   0  0  0  0  0  0  0  0  0  0  0  0
   25.0866  -21.6228   -8.0853 C   0  0  0  0  0  0  0  0  0  0  0  0
   24.0274  -21.9886   -8.6467 O   0  0  0  0  0  0  0  0  0  0  0  0
   25.4471  -22.2335   -6.9055 O   0  0  0  0  0  0  0  0  0  0  0  0
  2  1  1  0
  3  2  1  0
  4  3  1  0
  4  5  1  0
  5  7  1  0
  5  6  1  6
  7  8  2  0
 10 12  1  0
 10  9  1  0
 11 10  2  0
 14 13  1  6
 13 12  1  0
 15 14  1  0
 15  7  1  0
 16 17  2  0
 16 14  1  0
 18 16  1  0
 19 30  1  0
 19 18  1  0
 19 20  1  1
 21 29  1  0
 21 20  1  0
 22 21  2  0
 23 22  1  0
 23 24  1  0
 24 29  2  0
 25 24  1  0
 25 26  2  0
 26 27  1  0
 27 28  2  0
 29 28  1  0
 30 32  1  0
 31 30  2  0
M  END
$$$$
