MQW.pdb
     RDKit          3D

 32 33  0  0  1  0  0  0  0  0999 V2000
   32.7597  -21.5539  -10.8292 C   0  0  0  0  0  0  0  0  0  0  0  0
   33.4721  -22.4176  -12.2216 S   0  0  0  0  0  0  0  0  0  0  0  0
   32.3415  -23.0211  -13.4379 C   0  0  0  0  0  0  0  0  0  0  0  0
   31.0623  -22.2841  -13.5499 C   0  0  0  0  0  0  0  0  0  0  0  0
   30.2019  -22.6894  -14.6801 C   0  0  2  0  0  0  0  0  0  0  0  0
   30.8939  -22.5487  -15.9619 N   0  0  0  0  0  0  0  0  0  0  0  0
   29.0487  -21.7036  -14.7865 C   0  0  0  0  0  0  0  0  0  0  0  0
   29.2367  -20.6988  -15.5542 O   0  0  0  0  0  0  0  0  0  0  0  0
   27.8825  -21.5751  -17.9682 N   0  0  0  0  0  0  0  0  0  0  0  0
   26.8218  -22.3420  -17.4476 C   0  0  0  0  0  0  0  0  0  0  0  0
   26.5192  -23.4179  -18.0021 O   0  0  0  0  0  0  0  0  0  0  0  0
   26.0874  -21.8862  -16.2780 C   0  0  0  0  0  0  0  0  0  0  0  0
   26.5855  -20.6725  -15.6028 C   0  0  0  0  0  0  0  0  0  0  0  0
   26.8688  -20.8143  -14.1140 C   0  0  2  0  0  0  0  0  0  0  0  0
   27.8600  -21.9146  -14.0703 N   0  0  0  0  0  0  0  0  0  0  0  0
   25.6966  -21.3116  -13.3600 C   0  0  0  0  0  0  0  0  0  0  0  0
   25.3799  -22.5541  -13.3246 O   0  0  0  0  0  0  0  0  0  0  0  0
   24.8086  -20.4878  -12.6040 N   0  0  0  0  0  0  0  0  0  0  0  0
   24.6887  -20.5666  -11.1639 C   0  0  1  0  0  0  0  0  0  0  0  0
   26.0080  -20.3950  -10.4564 C   0  0  0  0  0  0  0  0  0  0  0  0
   25.8386  -20.4913   -9.0135 C   0  0  0  0  0  0  0  0  0  0  0  0
   24.6680  -20.8617   -8.3730 C   0  0  0  0  0  0  0  0  0  0  0  0
   24.9054  -20.8029   -7.0728 N   0  0  0  0  0  0  0  0  0  0  0  0
   26.1623  -20.4165   -6.8408 C   0  0  0  0  0  0  0  0  0  0  0  0
   26.8662  -20.2243   -5.6778 C   0  0  0  0  0  0  0  0  0  0  0  0
   28.2062  -19.8236   -5.7100 C   0  0  0  0  0  0  0  0  0  0  0  0
   28.7702  -19.6362   -6.9337 C   0  0  0  0  0  0  0  0  0  0  0  0
   28.0829  -19.8222   -8.1096 C   0  0  0  0  0  0  0  0  0  0  0  0
   26.7625  -20.2169   -8.0443 C   0  0  0  0  0  0  0  0  0  0  0  0
   23.6821  -19.5834  -10.7342 C   0  0  0  0  0  0  0  0  0  0  0  0
   23.6482  -18.4534  -11.2756 O   0  0  0  0  0  0  0  0  0  0  0  0
   22.7650  -19.8644   -9.7469 O   0  0  0  0  0  0  0  0  0  0  0  0
  2  1  1  0
  3  2  1  0
  4  3  1  0
  4  5  1  0
  5  7  1  0
  5  6  1  6
  7  8  2  0
 10 12  1  0
 10  9  1  0
 11 10  2  0
 14 13  1  6
 13 12  1  0
 15 14  1  0
 15  7  1  0
 16 17  2  0
 16 14  1  0
 18 16  1  0
 19 30  1  0
 19 18  1  0
 19 20  1  1
 21 29  1  0
 21 20  1  0
 22 21  2  0
 23 22  1  0
 23 24  1  0
 24 29  2  0
 25 24  1  0
 25 26  2  0
 26 27  1  0
 27 28  2  0
 29 28  1  0
 30 32  1  0
 31 30  2  0
M  END
$$$$
