MQW.pdb
     RDKit          3D

 32 33  0  0  1  0  0  0  0  0999 V2000
   30.5253  -17.8552  -15.7467 C   0  0  0  0  0  0  0  0  0  0  0  0
   29.7357  -16.9496  -17.0692 S   0  0  0  0  0  0  0  0  0  0  0  0
   27.9807  -16.7731  -16.9661 C   0  0  0  0  0  0  0  0  0  0  0  0
   27.3299  -17.4625  -15.8289 C   0  0  0  0  0  0  0  0  0  0  0  0
   26.4564  -18.5949  -16.1987 C   0  0  2  0  0  0  0  0  0  0  0  0
   25.3422  -18.1628  -17.0435 N   0  0  0  0  0  0  0  0  0  0  0  0
   25.7729  -19.1082  -14.9408 C   0  0  0  0  0  0  0  0  0  0  0  0
   24.7942  -18.4092  -14.5074 O   0  0  0  0  0  0  0  0  0  0  0  0
   24.0383  -24.7277  -14.6376 N   0  0  0  0  0  0  0  0  0  0  0  0
   23.6396  -24.2743  -13.3649 C   0  0  0  0  0  0  0  0  0  0  0  0
   22.9183  -25.0055  -12.6566 O   0  0  0  0  0  0  0  0  0  0  0  0
   24.0631  -22.9697  -12.8812 C   0  0  0  0  0  0  0  0  0  0  0  0
   24.9165  -22.1657  -13.7768 C   0  0  0  0  0  0  0  0  0  0  0  0
   25.3531  -20.8124  -13.2336 C   0  0  2  0  0  0  0  0  0  0  0  0
   26.2156  -20.2850  -14.3166 N   0  0  0  0  0  0  0  0  0  0  0  0
   26.2363  -20.9351  -12.0527 C   0  0  0  0  0  0  0  0  0  0  0  0
   27.3209  -21.6197  -12.0749 O   0  0  0  0  0  0  0  0  0  0  0  0
   25.9905  -20.3204  -10.7877 N   0  0  0  0  0  0  0  0  0  0  0  0
   26.7576  -20.6224   -9.5983 C   0  0  1  0  0  0  0  0  0  0  0  0
   27.6629  -19.4917   -9.1829 C   0  0  0  0  0  0  0  0  0  0  0  0
   28.5171  -19.8924   -8.0739 C   0  0  0  0  0  0  0  0  0  0  0  0
   29.4295  -20.9336   -8.1085 C   0  0  0  0  0  0  0  0  0  0  0  0
   29.9854  -20.9983   -6.9097 N   0  0  0  0  0  0  0  0  0  0  0  0
   29.4830  -20.0574   -6.1065 C   0  0  0  0  0  0  0  0  0  0  0  0
   29.7472  -19.7249   -4.8008 C   0  0  0  0  0  0  0  0  0  0  0  0
   29.0787  -18.6623   -4.1833 C   0  0  0  0  0  0  0  0  0  0  0  0
   28.1662  -17.9836   -4.9299 C   0  0  0  0  0  0  0  0  0  0  0  0
   27.8863  -18.3009   -6.2379 C   0  0  0  0  0  0  0  0  0  0  0  0
   28.5621  -19.3546   -6.8181 C   0  0  0  0  0  0  0  0  0  0  0  0
   25.8190  -21.0174   -8.5364 C   0  0  0  0  0  0  0  0  0  0  0  0
   24.6442  -20.5807   -8.5532 O   0  0  0  0  0  0  0  0  0  0  0  0
   26.1899  -21.8599   -7.5131 O   0  0  0  0  0  0  0  0  0  0  0  0
  2  1  1  0
  3  2  1  0
  4  3  1  0
  4  5  1  0
  5  7  1  0
  5  6  1  6
  7  8  2  0
 10 12  1  0
 10  9  1  0
 11 10  2  0
 14 13  1  6
 13 12  1  0
 15 14  1  0
 15  7  1  0
 16 17  2  0
 16 14  1  0
 18 16  1  0
 19 30  1  0
 19 18  1  0
 19 20  1  1
 21 29  1  0
 21 20  1  0
 22 21  2  0
 23 22  1  0
 23 24  1  0
 24 29  2  0
 25 24  1  0
 25 26  2  0
 26 27  1  0
 27 28  2  0
 29 28  1  0
 30 32  1  0
 31 30  2  0
M  END
$$$$
