MQW.pdb
     RDKit          3D

 32 33  0  0  1  0  0  0  0  0999 V2000
   31.3631  -17.2269  -20.7941 C   0  0  0  0  0  0  0  0  0  0  0  0
   30.1348  -17.9844  -19.7406 S   0  0  0  0  0  0  0  0  0  0  0  0
   28.4744  -17.4091  -19.9252 C   0  0  0  0  0  0  0  0  0  0  0  0
   27.4611  -18.0862  -19.0846 C   0  0  0  0  0  0  0  0  0  0  0  0
   27.5952  -19.5549  -19.0014 C   0  0  2  0  0  0  0  0  0  0  0  0
   27.1202  -20.2095  -20.2211 N   0  0  0  0  0  0  0  0  0  0  0  0
   26.6462  -20.0663  -17.9286 C   0  0  0  0  0  0  0  0  0  0  0  0
   25.6932  -19.2802  -17.5996 O   0  0  0  0  0  0  0  0  0  0  0  0
   26.3379  -26.0401  -16.2758 N   0  0  0  0  0  0  0  0  0  0  0  0
   26.1224  -25.3594  -17.4900 C   0  0  0  0  0  0  0  0  0  0  0  0
   26.0872  -26.0095  -18.5544 O   0  0  0  0  0  0  0  0  0  0  0  0
   25.9430  -23.9162  -17.5042 C   0  0  0  0  0  0  0  0  0  0  0  0
   26.0236  -23.2164  -16.2079 C   0  0  0  0  0  0  0  0  0  0  0  0
   25.8965  -21.7007  -16.2668 C   0  0  2  0  0  0  0  0  0  0  0  0
   26.8336  -21.3331  -17.3537 N   0  0  0  0  0  0  0  0  0  0  0  0
   26.4255  -21.0411  -15.0523 C   0  0  0  0  0  0  0  0  0  0  0  0
   27.6611  -20.7191  -14.9290 O   0  0  0  0  0  0  0  0  0  0  0  0
   25.6421  -20.6947  -13.9100 N   0  0  0  0  0  0  0  0  0  0  0  0
   26.2170  -20.4061  -12.6137 C   0  0  1  0  0  0  0  0  0  0  0  0
   25.4913  -19.3058  -11.8833 C   0  0  0  0  0  0  0  0  0  0  0  0
   26.0278  -19.1334  -10.5408 C   0  0  0  0  0  0  0  0  0  0  0  0
   27.0057  -18.2191  -10.1863 C   0  0  0  0  0  0  0  0  0  0  0  0
   27.2397  -18.3870   -8.8950 N   0  0  0  0  0  0  0  0  0  0  0  0
   26.4673  -19.3566   -8.3988 C   0  0  0  0  0  0  0  0  0  0  0  0
   26.3410  -19.8762   -7.1343 C   0  0  0  0  0  0  0  0  0  0  0  0
   25.4261  -20.9010   -6.8695 C   0  0  0  0  0  0  0  0  0  0  0  0
   24.6776  -21.3514   -7.9123 C   0  0  0  0  0  0  0  0  0  0  0  0
   24.7893  -20.8455   -9.1857 C   0  0  0  0  0  0  0  0  0  0  0  0
   25.7012  -19.8359   -9.4146 C   0  0  0  0  0  0  0  0  0  0  0  0
   26.2669  -21.6601  -11.8459 C   0  0  0  0  0  0  0  0  0  0  0  0
   25.3349  -22.4912  -11.9543 O   0  0  0  0  0  0  0  0  0  0  0  0
   27.3139  -21.9564  -11.0028 O   0  0  0  0  0  0  0  0  0  0  0  0
  2  1  1  0
  3  2  1  0
  4  3  1  0
  4  5  1  0
  5  7  1  0
  5  6  1  6
  7  8  2  0
 10 12  1  0
 10  9  1  0
 11 10  2  0
 14 13  1  1
 13 12  1  0
 15 14  1  0
 15  7  1  0
 16 17  2  0
 16 14  1  0
 18 16  1  0
 19 30  1  0
 19 18  1  0
 19 20  1  1
 21 29  1  0
 21 20  1  0
 22 21  2  0
 23 22  1  0
 23 24  1  0
 24 29  2  0
 25 24  1  0
 25 26  2  0
 26 27  1  0
 27 28  2  0
 29 28  1  0
 30 32  1  0
 31 30  2  0
M  END
$$$$
