MQW.pdb
     RDKit          3D

 32 33  0  0  1  0  0  0  0  0999 V2000
   30.8073  -18.5155  -18.2942 C   0  0  0  0  0  0  0  0  0  0  0  0
   29.4106  -18.6585  -17.1892 S   0  0  0  0  0  0  0  0  0  0  0  0
   29.1150  -17.2909  -16.1104 C   0  0  0  0  0  0  0  0  0  0  0  0
   27.9687  -17.4368  -15.1848 C   0  0  0  0  0  0  0  0  0  0  0  0
   26.8684  -18.2897  -15.6787 C   0  0  2  0  0  0  0  0  0  0  0  0
   26.0595  -17.5981  -16.6832 N   0  0  0  0  0  0  0  0  0  0  0  0
   25.8928  -18.5283  -14.5367 C   0  0  0  0  0  0  0  0  0  0  0  0
   25.3242  -17.4890  -14.0563 O   0  0  0  0  0  0  0  0  0  0  0  0
   21.3583  -22.1842  -12.4091 N   0  0  0  0  0  0  0  0  0  0  0  0
   21.1687  -21.0163  -13.1734 C   0  0  0  0  0  0  0  0  0  0  0  0
   20.0162  -20.5581  -13.3092 O   0  0  0  0  0  0  0  0  0  0  0  0
   22.3019  -20.3516  -13.7973 C   0  0  0  0  0  0  0  0  0  0  0  0
   23.6396  -20.9164  -13.5355 C   0  0  0  0  0  0  0  0  0  0  0  0
   24.6650  -19.9475  -12.9639 C   0  0  2  0  0  0  0  0  0  0  0  0
   25.6527  -19.8272  -14.0617 N   0  0  0  0  0  0  0  0  0  0  0  0
   25.4130  -20.5230  -11.8241 C   0  0  0  0  0  0  0  0  0  0  0  0
   26.1937  -21.5324  -11.9547 O   0  0  0  0  0  0  0  0  0  0  0  0
   25.3548  -20.0325  -10.4844 N   0  0  0  0  0  0  0  0  0  0  0  0
   25.8998  -20.7523   -9.3534 C   0  0  1  0  0  0  0  0  0  0  0  0
   27.0705  -20.0464   -8.7194 C   0  0  0  0  0  0  0  0  0  0  0  0
   27.1940  -20.4073   -7.3143 C   0  0  0  0  0  0  0  0  0  0  0  0
   26.5510  -21.4730   -6.7071 C   0  0  0  0  0  0  0  0  0  0  0  0
   26.8943  -21.4526   -5.4296 N   0  0  0  0  0  0  0  0  0  0  0  0
   27.7222  -20.4349   -5.1808 C   0  0  0  0  0  0  0  0  0  0  0  0
   28.3468  -20.0163   -4.0321 C   0  0  0  0  0  0  0  0  0  0  0  0
   29.1960  -18.9045   -4.0433 C   0  0  0  0  0  0  0  0  0  0  0  0
   29.3704  -18.2671   -5.2324 C   0  0  0  0  0  0  0  0  0  0  0  0
   28.7539  -18.6693   -6.3934 C   0  0  0  0  0  0  0  0  0  0  0  0
   27.9218  -19.7689   -6.3492 C   0  0  0  0  0  0  0  0  0  0  0  0
   24.8065  -21.0053   -8.4021 C   0  0  0  0  0  0  0  0  0  0  0  0
   23.8125  -20.2420   -8.3824 O   0  0  0  0  0  0  0  0  0  0  0  0
   24.8370  -22.0636   -7.5225 O   0  0  0  0  0  0  0  0  0  0  0  0
  2  1  1  0
  3  2  1  0
  4  3  1  0
  4  5  1  0
  5  7  1  0
  5  6  1  6
  7  8  2  0
 10 12  1  0
 10  9  1  0
 11 10  2  0
 14 13  1  6
 13 12  1  0
 15 14  1  0
 15  7  1  0
 16 17  2  0
 16 14  1  0
 18 16  1  0
 19 30  1  0
 19 18  1  0
 19 20  1  1
 21 29  1  0
 21 20  1  0
 22 21  2  0
 23 22  1  0
 23 24  1  0
 24 29  2  0
 25 24  1  0
 25 26  2  0
 26 27  1  0
 27 28  2  0
 29 28  1  0
 30 32  1  0
 31 30  2  0
M  END
$$$$
