MQW.pdb
     RDKit          3D

 32 33  0  0  1  0  0  0  0  0999 V2000
   24.3373  -23.1188  -19.2431 C   0  0  0  0  0  0  0  0  0  0  0  0
   25.9838  -23.6829  -18.8390 S   0  0  0  0  0  0  0  0  0  0  0  0
   27.2810  -22.4908  -18.9725 C   0  0  0  0  0  0  0  0  0  0  0  0
   27.5358  -21.6781  -17.7615 C   0  0  0  0  0  0  0  0  0  0  0  0
   26.8610  -22.1507  -16.5355 C   0  0  2  0  0  0  0  0  0  0  0  0
   25.4389  -21.8049  -16.5355 N   0  0  0  0  0  0  0  0  0  0  0  0
   27.4168  -21.3774  -15.3498 C   0  0  0  0  0  0  0  0  0  0  0  0
   28.6759  -21.4785  -15.1527 O   0  0  0  0  0  0  0  0  0  0  0  0
   26.1540  -15.7659  -14.2365 N   0  0  0  0  0  0  0  0  0  0  0  0
   26.9376  -16.4852  -15.1600 C   0  0  0  0  0  0  0  0  0  0  0  0
   27.3061  -15.9249  -16.2121 O   0  0  0  0  0  0  0  0  0  0  0  0
   27.3132  -17.8643  -14.8915 C   0  0  0  0  0  0  0  0  0  0  0  0
   26.8337  -18.4575  -13.6285 C   0  0  0  0  0  0  0  0  0  0  0  0
   27.2116  -19.9138  -13.3976 C   0  0  2  0  0  0  0  0  0  0  0  0
   26.5692  -20.6061  -14.5391 N   0  0  0  0  0  0  0  0  0  0  0  0
   26.5748  -20.4784  -12.1871 C   0  0  0  0  0  0  0  0  0  0  0  0
   25.3015  -20.5205  -12.0374 O   0  0  0  0  0  0  0  0  0  0  0  0
   27.2853  -21.0282  -11.0774 N   0  0  0  0  0  0  0  0  0  0  0  0
   26.6574  -21.3408   -9.8116 C   0  0  1  0  0  0  0  0  0  0  0  0
   27.6539  -21.6522   -8.7250 C   0  0  0  0  0  0  0  0  0  0  0  0
   27.7533  -20.5481   -7.7811 C   0  0  0  0  0  0  0  0  0  0  0  0
   27.2538  -19.2738   -7.9921 C   0  0  0  0  0  0  0  0  0  0  0  0
   27.5649  -18.5567   -6.9247 N   0  0  0  0  0  0  0  0  0  0  0  0
   28.2353  -19.2976   -6.0389 C   0  0  0  0  0  0  0  0  0  0  0  0
   28.7502  -19.0085   -4.7994 C   0  0  0  0  0  0  0  0  0  0  0  0
   29.4100  -19.9897   -4.0517 C   0  0  0  0  0  0  0  0  0  0  0  0
   29.5149  -21.2279   -4.6053 C   0  0  0  0  0  0  0  0  0  0  0  0
   29.0073  -21.5378   -5.8447 C   0  0  0  0  0  0  0  0  0  0  0  0
   28.3627  -20.5479   -6.5576 C   0  0  0  0  0  0  0  0  0  0  0  0
   25.7614  -20.2287   -9.4582 C   0  0  0  0  0  0  0  0  0  0  0  0
   26.0452  -19.0636   -9.8233 O   0  0  0  0  0  0  0  0  0  0  0  0
   24.6084  -20.4250   -8.7324 O   0  0  0  0  0  0  0  0  0  0  0  0
  2  1  1  0
  3  2  1  0
  4  3  1  0
  4  5  1  0
  5  7  1  0
  5  6  1  6
  7  8  2  0
 10 12  1  0
 10  9  1  0
 11 10  2  0
 14 13  1  6
 13 12  1  0
 15 14  1  0
 15  7  1  0
 16 17  2  0
 16 14  1  0
 18 16  1  0
 19 30  1  0
 19 18  1  0
 19 20  1  1
 21 29  1  0
 21 20  1  0
 22 21  2  0
 23 22  1  0
 23 24  1  0
 24 29  2  0
 25 24  1  0
 25 26  2  0
 26 27  1  0
 27 28  2  0
 29 28  1  0
 30 32  1  0
 31 30  2  0
M  END
$$$$
