MQW.pdb
     RDKit          3D

 32 33  0  0  1  0  0  0  0  0999 V2000
   20.7413  -11.9189  -16.7681 C   0  0  0  0  0  0  0  0  0  0  0  0
   19.4556  -12.3421  -15.6017 S   0  0  0  0  0  0  0  0  0  0  0  0
   17.8613  -11.6396  -15.8959 C   0  0  0  0  0  0  0  0  0  0  0  0
   17.6598  -10.2642  -15.3863 C   0  0  0  0  0  0  0  0  0  0  0  0
   16.6940  -10.1422  -14.2753 C   0  0  2  0  0  0  0  0  0  0  0  0
   15.3266  -10.4199  -14.7167 N   0  0  0  0  0  0  0  0  0  0  0  0
   16.6402   -8.6860  -13.8402 C   0  0  0  0  0  0  0  0  0  0  0  0
   15.9961   -7.8928  -14.6085 O   0  0  0  0  0  0  0  0  0  0  0  0
   14.9875   -6.9510   -8.4586 N   0  0  0  0  0  0  0  0  0  0  0  0
   15.4106   -5.7157   -8.9870 C   0  0  0  0  0  0  0  0  0  0  0  0
   15.1669   -4.6678   -8.3552 O   0  0  0  0  0  0  0  0  0  0  0  0
   16.1232   -5.6611  -10.2537 C   0  0  0  0  0  0  0  0  0  0  0  0
   16.4158   -6.9466  -10.9159 C   0  0  0  0  0  0  0  0  0  0  0  0
   17.0806   -6.8495  -12.2818 C   0  0  2  0  0  0  0  0  0  0  0  0
   17.2715   -8.2698  -12.6574 N   0  0  0  0  0  0  0  0  0  0  0  0
   18.4429   -6.2763  -12.2083 C   0  0  0  0  0  0  0  0  0  0  0  0
   19.1963   -6.4263  -11.1809 O   0  0  0  0  0  0  0  0  0  0  0  0
   19.0594   -5.5128  -13.2453 N   0  0  0  0  0  0  0  0  0  0  0  0
   20.3819   -4.9373  -13.1255 C   0  0  1  0  0  0  0  0  0  0  0  0
   21.3888   -5.5896  -14.0373 C   0  0  0  0  0  0  0  0  0  0  0  0
   21.4961   -7.0141  -13.7562 C   0  0  0  0  0  0  0  0  0  0  0  0
   21.2359   -8.0261  -14.6652 C   0  0  0  0  0  0  0  0  0  0  0  0
   21.4178   -9.1715  -14.0285 N   0  0  0  0  0  0  0  0  0  0  0  0
   21.7809   -8.9537  -12.7621 C   0  0  0  0  0  0  0  0  0  0  0  0
   22.0880   -9.8087  -11.7328 C   0  0  0  0  0  0  0  0  0  0  0  0
   22.4620   -9.3141  -10.4787 C   0  0  0  0  0  0  0  0  0  0  0  0
   22.5060   -7.9624  -10.3310 C   0  0  0  0  0  0  0  0  0  0  0  0
   22.2015   -7.0893  -11.3483 C   0  0  0  0  0  0  0  0  0  0  0  0
   21.8356   -7.6084  -12.5730 C   0  0  0  0  0  0  0  0  0  0  0  0
   20.2715   -3.4870  -13.3468 C   0  0  0  0  0  0  0  0  0  0  0  0
   19.1682   -2.9921  -13.6767 O   0  0  0  0  0  0  0  0  0  0  0  0
   21.3503   -2.6443  -13.2023 O   0  0  0  0  0  0  0  0  0  0  0  0
  2  1  1  0
  3  2  1  0
  4  3  1  0
  4  5  1  0
  5  7  1  0
  5  6  1  6
  7  8  2  0
 10 12  1  0
 10  9  1  0
 11 10  2  0
 14 13  1  1
 13 12  1  0
 15 14  1  0
 15  7  1  0
 16 17  2  0
 16 14  1  0
 18 16  1  0
 19 30  1  0
 19 18  1  0
 19 20  1  6
 21 29  1  0
 21 20  1  0
 22 21  2  0
 23 22  1  0
 23 24  1  0
 24 29  2  0
 25 24  1  0
 25 26  2  0
 26 27  1  0
 27 28  2  0
 29 28  1  0
 30 32  1  0
 31 30  2  0
M  END
$$$$
