MQW.pdb
     RDKit          3D

 32 33  0  0  1  0  0  0  0  0999 V2000
   27.7510  -22.9249  -15.4005 C   0  0  0  0  0  0  0  0  0  0  0  0
   28.2476  -22.2517  -16.9792 S   0  0  0  0  0  0  0  0  0  0  0  0
   27.7780  -20.5803  -17.3069 C   0  0  0  0  0  0  0  0  0  0  0  0
   27.2843  -19.8101  -16.1429 C   0  0  0  0  0  0  0  0  0  0  0  0
   25.8148  -19.7612  -16.0007 C   0  0  2  0  0  0  0  0  0  0  0  0
   25.2250  -18.7276  -16.8526 N   0  0  0  0  0  0  0  0  0  0  0  0
   25.4813  -19.2963  -14.5917 C   0  0  0  0  0  0  0  0  0  0  0  0
   25.4738  -18.0317  -14.4037 O   0  0  0  0  0  0  0  0  0  0  0  0
   20.5965  -19.6728  -12.2026 N   0  0  0  0  0  0  0  0  0  0  0  0
   21.2930  -20.8808  -12.4026 C   0  0  0  0  0  0  0  0  0  0  0  0
   20.6476  -21.9382  -12.5509 O   0  0  0  0  0  0  0  0  0  0  0  0
   22.7469  -20.8965  -12.4360 C   0  0  0  0  0  0  0  0  0  0  0  0
   23.4393  -19.6257  -12.1490 C   0  0  0  0  0  0  0  0  0  0  0  0
   24.9588  -19.6690  -12.2288 C   0  0  2  0  0  0  0  0  0  0  0  0
   25.2023  -20.2277  -13.5792 N   0  0  0  0  0  0  0  0  0  0  0  0
   25.5470  -20.6473  -11.2871 C   0  0  0  0  0  0  0  0  0  0  0  0
   25.7418  -21.8747  -11.6052 O   0  0  0  0  0  0  0  0  0  0  0  0
   25.9562  -20.3451   -9.9531 N   0  0  0  0  0  0  0  0  0  0  0  0
   26.4644  -21.3424   -9.0357 C   0  0  1  0  0  0  0  0  0  0  0  0
   27.8983  -21.0986   -8.6416 C   0  0  0  0  0  0  0  0  0  0  0  0
   27.9941  -20.0047   -7.6856 C   0  0  0  0  0  0  0  0  0  0  0  0
   27.4227  -18.7537   -7.8483 C   0  0  0  0  0  0  0  0  0  0  0  0
   27.7550  -18.0376   -6.7866 N   0  0  0  0  0  0  0  0  0  0  0  0
   28.5067  -18.7573   -5.9499 C   0  0  0  0  0  0  0  0  0  0  0  0
   29.0722  -18.4611   -4.7344 C   0  0  0  0  0  0  0  0  0  0  0  0
   29.8177  -19.4192   -4.0391 C   0  0  0  0  0  0  0  0  0  0  0  0
   29.9531  -20.6426   -4.6185 C   0  0  0  0  0  0  0  0  0  0  0  0
   29.3959  -20.9591   -5.8348 C   0  0  0  0  0  0  0  0  0  0  0  0
   28.6669  -19.9921   -6.4958 C   0  0  0  0  0  0  0  0  0  0  0  0
   25.5596  -21.4017   -7.8772 C   0  0  0  0  0  0  0  0  0  0  0  0
   24.6414  -20.5560   -7.7634 O   0  0  0  0  0  0  0  0  0  0  0  0
   25.6872  -22.3650   -6.9023 O   0  0  0  0  0  0  0  0  0  0  0  0
  2  1  1  0
  3  2  1  0
  4  3  1  0
  4  5  1  0
  5  7  1  0
  5  6  1  6
  7  8  2  0
 10 12  1  0
 10  9  1  0
 11 10  2  0
 14 13  1  1
 13 12  1  0
 15 14  1  0
 15  7  1  0
 16 17  2  0
 16 14  1  0
 18 16  1  0
 19 30  1  0
 19 18  1  0
 19 20  1  1
 21 29  1  0
 21 20  1  0
 22 21  2  0
 23 22  1  0
 23 24  1  0
 24 29  2  0
 25 24  1  0
 25 26  2  0
 26 27  1  0
 27 28  2  0
 29 28  1  0
 30 32  1  0
 31 30  2  0
M  END
$$$$
