MQW.pdb
     RDKit          3D

 32 33  0  0  1  0  0  0  0  0999 V2000
   31.7369  -20.9980  -11.0189 C   0  0  0  0  0  0  0  0  0  0  0  0
   31.9877  -21.8795  -12.5527 S   0  0  0  0  0  0  0  0  0  0  0  0
   30.7165  -21.7224  -13.7697 C   0  0  0  0  0  0  0  0  0  0  0  0
   29.4544  -21.1025  -13.3063 C   0  0  0  0  0  0  0  0  0  0  0  0
   28.4833  -20.7842  -14.3729 C   0  0  2  0  0  0  0  0  0  0  0  0
   28.9110  -19.6298  -15.1642 N   0  0  0  0  0  0  0  0  0  0  0  0
   27.1907  -20.3137  -13.7241 C   0  0  0  0  0  0  0  0  0  0  0  0
   27.1254  -19.0693  -13.4384 O   0  0  0  0  0  0  0  0  0  0  0  0
   22.2628  -19.0298  -13.9324 N   0  0  0  0  0  0  0  0  0  0  0  0
   22.7988  -19.7653  -15.0075 C   0  0  0  0  0  0  0  0  0  0  0  0
   22.5967  -19.3726  -16.1744 O   0  0  0  0  0  0  0  0  0  0  0  0
   23.5785  -20.9681  -14.7616 C   0  0  0  0  0  0  0  0  0  0  0  0
   23.8065  -21.3448  -13.3534 C   0  0  0  0  0  0  0  0  0  0  0  0
   25.0079  -20.6942  -12.6822 C   0  0  2  0  0  0  0  0  0  0  0  0
   26.1489  -21.2190  -13.4681 N   0  0  0  0  0  0  0  0  0  0  0  0
   25.2211  -21.1872  -11.3033 C   0  0  0  0  0  0  0  0  0  0  0  0
   24.5011  -22.1148  -10.7869 O   0  0  0  0  0  0  0  0  0  0  0  0
   26.2269  -20.7014  -10.4140 N   0  0  0  0  0  0  0  0  0  0  0  0
   26.1576  -20.8611   -8.9773 C   0  0  1  0  0  0  0  0  0  0  0  0
   27.3015  -20.1937   -8.2583 C   0  0  0  0  0  0  0  0  0  0  0  0
   27.1888  -20.3812   -6.8189 C   0  0  0  0  0  0  0  0  0  0  0  0
   26.1852  -21.0955   -6.1858 C   0  0  0  0  0  0  0  0  0  0  0  0
   26.4148  -21.0120   -4.8855 N   0  0  0  0  0  0  0  0  0  0  0  0
   27.5093  -20.2855   -4.6465 C   0  0  0  0  0  0  0  0  0  0  0  0
   28.1448  -19.9349   -3.4810 C   0  0  0  0  0  0  0  0  0  0  0  0
   29.3107  -19.1620   -3.5058 C   0  0  0  0  0  0  0  0  0  0  0  0
   29.7779  -18.7801   -4.7250 C   0  0  0  0  0  0  0  0  0  0  0  0
   29.1564  -19.1196   -5.9033 C   0  0  0  0  0  0  0  0  0  0  0  0
   28.0080  -19.8820   -5.8452 C   0  0  0  0  0  0  0  0  0  0  0  0
   24.8437  -20.3768   -8.5260 C   0  0  0  0  0  0  0  0  0  0  0  0
   24.4130  -19.2751   -8.9404 O   0  0  0  0  0  0  0  0  0  0  0  0
   24.0613  -21.1000   -7.6544 O   0  0  0  0  0  0  0  0  0  0  0  0
  2  1  1  0
  3  2  1  0
  4  3  1  0
  4  5  1  0
  5  7  1  0
  5  6  1  6
  7  8  2  0
 10 12  1  0
 10  9  1  0
 11 10  2  0
 14 13  1  6
 13 12  1  0
 15 14  1  0
 15  7  1  0
 16 17  2  0
 16 14  1  0
 18 16  1  0
 19 30  1  0
 19 18  1  0
 19 20  1  1
 21 29  1  0
 21 20  1  0
 22 21  2  0
 23 22  1  0
 23 24  1  0
 24 29  2  0
 25 24  1  0
 25 26  2  0
 26 27  1  0
 27 28  2  0
 29 28  1  0
 30 32  1  0
 31 30  2  0
M  END
$$$$
