MQW.pdb
     RDKit          3D

 32 33  0  0  1  0  0  0  0  0999 V2000
   31.1122  -18.8431  -19.4518 C   0  0  0  0  0  0  0  0  0  0  0  0
   29.7982  -18.4749  -18.2984 S   0  0  0  0  0  0  0  0  0  0  0  0
   30.1031  -17.1716  -17.1451 C   0  0  0  0  0  0  0  0  0  0  0  0
   29.0831  -16.9968  -16.0864 C   0  0  0  0  0  0  0  0  0  0  0  0
   27.6881  -17.2237  -16.5159 C   0  0  2  0  0  0  0  0  0  0  0  0
   27.1084  -16.0239  -17.1210 N   0  0  0  0  0  0  0  0  0  0  0  0
   26.8327  -17.4490  -15.2788 C   0  0  0  0  0  0  0  0  0  0  0  0
   26.6297  -16.4247  -14.5412 O   0  0  0  0  0  0  0  0  0  0  0  0
   21.6445  -20.3948  -15.1497 N   0  0  0  0  0  0  0  0  0  0  0  0
   21.8741  -20.2284  -13.7700 C   0  0  0  0  0  0  0  0  0  0  0  0
   20.9650  -20.5103  -12.9633 O   0  0  0  0  0  0  0  0  0  0  0  0
   23.1549  -19.7340  -13.2902 C   0  0  0  0  0  0  0  0  0  0  0  0
   24.1698  -19.3996  -14.3076 C   0  0  0  0  0  0  0  0  0  0  0  0
   25.4735  -18.8222  -13.7748 C   0  0  2  0  0  0  0  0  0  0  0  0
   26.3111  -18.7204  -14.9926 N   0  0  0  0  0  0  0  0  0  0  0  0
   26.1875  -19.7646  -12.8848 C   0  0  0  0  0  0  0  0  0  0  0  0
   26.8980  -20.7319  -13.3375 O   0  0  0  0  0  0  0  0  0  0  0  0
   26.1697  -19.7056  -11.4583 N   0  0  0  0  0  0  0  0  0  0  0  0
   26.7943  -20.7036  -10.6168 C   0  0  1  0  0  0  0  0  0  0  0  0
   27.6348  -20.1019   -9.5204 C   0  0  0  0  0  0  0  0  0  0  0  0
   27.0264  -20.3290   -8.2172 C   0  0  0  0  0  0  0  0  0  0  0  0
   25.7804  -20.8966   -8.0090 C   0  0  0  0  0  0  0  0  0  0  0  0
   25.5755  -20.9065   -6.7020 N   0  0  0  0  0  0  0  0  0  0  0  0
   26.6191  -20.3784   -6.0579 C   0  0  0  0  0  0  0  0  0  0  0  0
   26.8749  -20.1853   -4.7228 C   0  0  0  0  0  0  0  0  0  0  0  0
   28.0790  -19.6121   -4.3002 C   0  0  0  0  0  0  0  0  0  0  0  0
   28.9724  -19.2602   -5.2639 C   0  0  0  0  0  0  0  0  0  0  0  0
   28.7354  -19.4440   -6.6055 C   0  0  0  0  0  0  0  0  0  0  0  0
   27.5381  -20.0112   -6.9902 C   0  0  0  0  0  0  0  0  0  0  0  0
   25.7408  -21.5921  -10.1017 C   0  0  0  0  0  0  0  0  0  0  0  0
   24.5502  -21.2006  -10.0902 O   0  0  0  0  0  0  0  0  0  0  0  0
   26.0202  -22.8534   -9.6265 O   0  0  0  0  0  0  0  0  0  0  0  0
  2  1  1  0
  3  2  1  0
  4  3  1  0
  4  5  1  0
  5  7  1  0
  5  6  1  1
  7  8  2  0
 10 12  1  0
 10  9  1  0
 11 10  2  0
 14 13  1  6
 13 12  1  0
 15 14  1  0
 15  7  1  0
 16 17  2  0
 16 14  1  0
 18 16  1  0
 19 30  1  0
 19 18  1  0
 19 20  1  1
 21 29  1  0
 21 20  1  0
 22 21  2  0
 23 22  1  0
 23 24  1  0
 24 29  2  0
 25 24  1  0
 25 26  2  0
 26 27  1  0
 27 28  2  0
 29 28  1  0
 30 32  1  0
 31 30  2  0
M  END
$$$$
