MQW.pdb
     RDKit          3D

 32 33  0  0  1  0  0  0  0  0999 V2000
   25.9695  -20.3743   -6.9737 C   0  0  0  0  0  0  0  0  0  0  0  0
   25.7338  -20.6072   -8.7294 S   0  0  0  0  0  0  0  0  0  0  0  0
   27.0738  -20.1263   -9.7758 C   0  0  0  0  0  0  0  0  0  0  0  0
   26.8314  -20.2513  -11.2310 C   0  0  0  0  0  0  0  0  0  0  0  0
   25.7748  -21.2113  -11.6107 C   0  0  2  0  0  0  0  0  0  0  0  0
   26.1578  -22.5877  -11.2935 N   0  0  0  0  0  0  0  0  0  0  0  0
   25.6486  -21.2157  -13.1262 C   0  0  0  0  0  0  0  0  0  0  0  0
   26.6085  -21.7634  -13.7689 O   0  0  0  0  0  0  0  0  0  0  0  0
   25.3134  -24.7575  -14.9383 N   0  0  0  0  0  0  0  0  0  0  0  0
   24.0443  -24.7704  -15.5494 C   0  0  0  0  0  0  0  0  0  0  0  0
   23.7561  -25.6962  -16.3345 O   0  0  0  0  0  0  0  0  0  0  0  0
   23.0807  -23.7177  -15.2693 C   0  0  0  0  0  0  0  0  0  0  0  0
   23.4870  -22.6726  -14.3103 C   0  0  0  0  0  0  0  0  0  0  0  0
   23.9934  -21.3747  -14.9235 C   0  0  2  0  0  0  0  0  0  0  0  0
   24.5297  -20.6437  -13.7517 N   0  0  0  0  0  0  0  0  0  0  0  0
   22.8962  -20.5297  -15.4450 C   0  0  0  0  0  0  0  0  0  0  0  0
   21.8950  -20.1817  -14.7226 O   0  0  0  0  0  0  0  0  0  0  0  0
   22.8290  -20.0166  -16.7757 N   0  0  0  0  0  0  0  0  0  0  0  0
   21.7075  -19.2486  -17.2724 C   0  0  1  0  0  0  0  0  0  0  0  0
   22.0048  -18.5554  -18.5770 C   0  0  0  0  0  0  0  0  0  0  0  0
   20.8732  -17.7438  -19.0021 C   0  0  0  0  0  0  0  0  0  0  0  0
   20.4940  -16.5433  -18.4250 C   0  0  0  0  0  0  0  0  0  0  0  0
   19.4138  -16.1312  -19.0684 N   0  0  0  0  0  0  0  0  0  0  0  0
   19.0774  -16.9979  -20.0268 C   0  0  0  0  0  0  0  0  0  0  0  0
   18.0604  -17.0011  -20.9491 C   0  0  0  0  0  0  0  0  0  0  0  0
   17.9361  -18.0432  -21.8742 C   0  0  0  0  0  0  0  0  0  0  0  0
   18.8601  -19.0400  -21.8161 C   0  0  0  0  0  0  0  0  0  0  0  0
   19.8852  -19.0562  -20.9001 C   0  0  0  0  0  0  0  0  0  0  0  0
   19.9800  -18.0143  -20.0008 C   0  0  0  0  0  0  0  0  0  0  0  0
   20.5424  -20.1429  -17.3575 C   0  0  0  0  0  0  0  0  0  0  0  0
   20.6845  -21.3060  -17.8027 O   0  0  0  0  0  0  0  0  0  0  0  0
   19.2868  -19.7425  -16.9604 O   0  0  0  0  0  0  0  0  0  0  0  0
  2  1  1  0
  3  2  1  0
  4  3  1  0
  4  5  1  0
  5  7  1  0
  5  6  1  6
  7  8  2  0
 10 12  1  0
 10  9  1  0
 11 10  2  0
 14 13  1  1
 13 12  1  0
 15 14  1  0
 15  7  1  0
 16 17  2  0
 16 14  1  0
 18 16  1  0
 19 30  1  0
 19 18  1  0
 19 20  1  6
 21 29  1  0
 21 20  1  0
 22 21  2  0
 23 22  1  0
 23 24  1  0
 24 29  2  0
 25 24  1  0
 25 26  2  0
 26 27  1  0
 27 28  2  0
 29 28  1  0
 30 32  1  0
 31 30  2  0
M  END
$$$$
