ITQ.pdb
     RDKit          3D

 25 24  0  0  1  0  0  0  0  0999 V2000
   21.1806  -13.1746  -17.4790 C   0  0  0  0  0  0  0  0  0  0  0  0
   22.5139  -13.8679  -17.4744 C   0  0  0  0  0  0  0  0  0  0  0  0
   22.4914  -15.2015  -16.8074 C   0  0  2  0  0  0  0  0  0  0  0  0
   23.3498  -15.1651  -15.5809 C   0  0  0  0  0  0  0  0  0  0  0  0
   22.8760  -16.2921  -17.7756 C   0  0  2  0  0  0  0  0  0  0  0  0
   21.9529  -16.2169  -18.8933 N   0  0  0  0  0  0  0  0  0  0  0  0
   22.9246  -17.6212  -17.1670 C   0  0  0  0  0  0  0  0  0  0  0  0
   21.8844  -18.2361  -16.8602 O   0  0  0  0  0  0  0  0  0  0  0  0
   24.3194  -20.4296  -18.8787 C   0  0  0  0  0  0  0  0  0  0  0  0
   25.0879  -20.3108  -17.5798 C   0  0  1  0  0  0  0  0  0  0  0  0
   26.1988  -19.5036  -17.8847 O   0  0  0  0  0  0  0  0  0  0  0  0
   24.2600  -19.6471  -16.4743 C   0  0  2  0  0  0  0  0  0  0  0  0
   24.1679  -18.2403  -16.9126 N   0  0  0  0  0  0  0  0  0  0  0  0
   25.0688  -19.6485  -15.2408 C   0  0  0  0  0  0  0  0  0  0  0  0
   25.8608  -18.6805  -15.0442 O   0  0  0  0  0  0  0  0  0  0  0  0
   26.3464  -20.0821   -8.6135 N   0  0  0  0  0  0  0  0  0  0  0  0
   25.6115  -20.7445   -9.6189 C   0  0  0  0  0  0  0  0  0  0  0  0
   24.3743  -20.8133   -9.5568 O   0  0  0  0  0  0  0  0  0  0  0  0
   26.3298  -21.3607  -10.7555 C   0  0  0  0  0  0  0  0  0  0  0  0
   25.4659  -21.4157  -11.9845 C   0  0  0  0  0  0  0  0  0  0  0  0
   25.9058  -20.5107  -13.0798 C   0  0  2  0  0  0  0  0  0  0  0  0
   25.0300  -20.6451  -14.2559 N   0  0  0  0  0  0  0  0  0  0  0  0
   27.2986  -20.7219  -13.5217 C   0  0  0  0  0  0  0  0  0  0  0  0
   27.5594  -21.5201  -14.4711 O   0  0  0  0  0  0  0  0  0  0  0  0
   28.4129  -20.0982  -12.9726 O   0  0  0  0  0  0  0  0  0  0  0  0
  2  1  1  0
  3  5  1  0
  3  2  1  0
  3  4  1  1
  5  7  1  0
  5  6  1  6
  7  8  2  0
 10 12  1  0
 10  9  1  6
 11 10  1  0
 12 14  1  0
 13  7  1  0
 12 13  1  6
 14 22  1  0
 15 14  2  0
 17 19  1  0
 17 16  1  0
 18 17  2  0
 19 20  1  0
 21 20  1  1
 21 23  1  0
 22 21  1  0
 23 25  1  0
 24 23  2  0
M  END
$$$$
