ITQ.pdb
     RDKit          3D

 25 24  0  0  1  0  0  0  0  0999 V2000
   17.9262  -15.6345  -16.7911 C   0  0  0  0  0  0  0  0  0  0  0  0
   18.6576  -14.3525  -16.5084 C   0  0  0  0  0  0  0  0  0  0  0  0
   17.7763  -13.1494  -16.5087 C   0  0  2  0  0  0  0  0  0  0  0  0
   17.0243  -13.0772  -17.8016 C   0  0  0  0  0  0  0  0  0  0  0  0
   18.5700  -11.9030  -16.2069 C   0  0  2  0  0  0  0  0  0  0  0  0
   19.2780  -12.1379  -14.9616 N   0  0  0  0  0  0  0  0  0  0  0  0
   17.7573  -10.6873  -16.1781 C   0  0  0  0  0  0  0  0  0  0  0  0
   17.0115  -10.3790  -17.1284 O   0  0  0  0  0  0  0  0  0  0  0  0
   15.6597   -9.5453  -13.0244 C   0  0  0  0  0  0  0  0  0  0  0  0
   16.6535   -8.4985  -13.4813 C   0  0  1  0  0  0  0  0  0  0  0  0
   17.8179   -8.7483  -12.7327 O   0  0  0  0  0  0  0  0  0  0  0  0
   16.9706   -8.6128  -14.9760 C   0  0  2  0  0  0  0  0  0  0  0  0
   17.8035   -9.8290  -15.0578 N   0  0  0  0  0  0  0  0  0  0  0  0
   17.8450   -7.4821  -15.3406 C   0  0  0  0  0  0  0  0  0  0  0  0
   19.0869   -7.5916  -15.1203 O   0  0  0  0  0  0  0  0  0  0  0  0
   20.4724   -3.0855  -20.2642 N   0  0  0  0  0  0  0  0  0  0  0  0
   19.7173   -4.1072  -19.6514 C   0  0  0  0  0  0  0  0  0  0  0  0
   19.2298   -5.0258  -20.3278 O   0  0  0  0  0  0  0  0  0  0  0  0
   19.5089   -4.0763  -18.1875 C   0  0  0  0  0  0  0  0  0  0  0  0
   18.6318   -5.2103  -17.7351 C   0  0  0  0  0  0  0  0  0  0  0  0
   18.4084   -5.2592  -16.2654 C   0  0  2  0  0  0  0  0  0  0  0  0
   17.4078   -6.2829  -15.9200 N   0  0  0  0  0  0  0  0  0  0  0  0
   17.9741   -3.9787  -15.6726 C   0  0  0  0  0  0  0  0  0  0  0  0
   16.7833   -3.8280  -15.2656 O   0  0  0  0  0  0  0  0  0  0  0  0
   18.7844   -2.8618  -15.5053 O   0  0  0  0  0  0  0  0  0  0  0  0
  2  1  1  0
  3  5  1  0
  3  2  1  0
  3  4  1  6
  5  7  1  0
  5  6  1  1
  7  8  2  0
 10 12  1  0
 10  9  1  1
 11 10  1  0
 12 14  1  0
 13  7  1  0
 12 13  1  1
 14 22  1  0
 15 14  2  0
 17 19  1  0
 17 16  1  0
 18 17  2  0
 19 20  1  0
 21 20  1  6
 21 23  1  0
 22 21  1  0
 23 25  1  0
 24 23  2  0
M  END
$$$$
