ITQ.pdb
     RDKit          3D

 25 24  0  0  1  0  0  0  0  0999 V2000
   27.7965  -19.3298   -6.2494 C   0  0  0  0  0  0  0  0  0  0  0  0
   26.6241  -19.9989   -6.9098 C   0  0  0  0  0  0  0  0  0  0  0  0
   26.5071  -19.6983   -8.3658 C   0  0  2  0  0  0  0  0  0  0  0  0
   26.5205  -18.2157   -8.5760 C   0  0  0  0  0  0  0  0  0  0  0  0
   25.2969  -20.3763   -8.9579 C   0  0  2  0  0  0  0  0  0  0  0  0
   25.3710  -21.7792   -8.5924 N   0  0  0  0  0  0  0  0  0  0  0  0
   25.1609  -20.1710  -10.3996 C   0  0  0  0  0  0  0  0  0  0  0  0
   25.2097  -19.0316  -10.9033 O   0  0  0  0  0  0  0  0  0  0  0  0
   25.1929  -22.5414  -14.7761 C   0  0  0  0  0  0  0  0  0  0  0  0
   25.3612  -22.4413  -13.2749 C   0  0  1  0  0  0  0  0  0  0  0  0
   26.7473  -22.5367  -13.0551 O   0  0  0  0  0  0  0  0  0  0  0  0
   24.8448  -21.1094  -12.7205 C   0  0  2  0  0  0  0  0  0  0  0  0
   24.9693  -21.2750  -11.2588 N   0  0  0  0  0  0  0  0  0  0  0  0
   23.4008  -21.0283  -13.0105 C   0  0  0  0  0  0  0  0  0  0  0  0
   22.5996  -21.6167  -12.2263 O   0  0  0  0  0  0  0  0  0  0  0  0
   23.5574  -17.7453  -16.6546 N   0  0  0  0  0  0  0  0  0  0  0  0
   22.1504  -17.7894  -16.7447 C   0  0  0  0  0  0  0  0  0  0  0  0
   21.5096  -16.7979  -17.1262 O   0  0  0  0  0  0  0  0  0  0  0  0
   21.4389  -19.0334  -16.3792 C   0  0  0  0  0  0  0  0  0  0  0  0
   20.9854  -19.0042  -14.9462 C   0  0  0  0  0  0  0  0  0  0  0  0
   21.3718  -20.2061  -14.1600 C   0  0  2  0  0  0  0  0  0  0  0  0
   22.8365  -20.3429  -14.0953 N   0  0  0  0  0  0  0  0  0  0  0  0
   20.8176  -21.4742  -14.6744 C   0  0  0  0  0  0  0  0  0  0  0  0
   21.5302  -22.2501  -15.3791 O   0  0  0  0  0  0  0  0  0  0  0  0
   19.5231  -21.9282  -14.4499 O   0  0  0  0  0  0  0  0  0  0  0  0
  2  1  1  0
  3  5  1  0
  3  2  1  0
  3  4  1  1
  5  7  1  0
  5  6  1  6
  7  8  2  0
 10 12  1  0
 10  9  1  6
 11 10  1  0
 12 14  1  0
 13  7  1  0
 12 13  1  1
 14 22  1  0
 15 14  2  0
 17 19  1  0
 17 16  1  0
 18 17  2  0
 19 20  1  0
 21 20  1  6
 21 23  1  0
 22 21  1  0
 23 25  1  0
 24 23  2  0
M  END
$$$$
