ITQ.pdb
     RDKit          3D

 25 24  0  0  1  0  0  0  0  0999 V2000
   18.3525  -16.2887  -17.3844 C   0  0  0  0  0  0  0  0  0  0  0  0
   18.6341  -15.1693  -16.4220 C   0  0  0  0  0  0  0  0  0  0  0  0
   18.7553  -13.8349  -17.0767 C   0  0  2  0  0  0  0  0  0  0  0  0
   19.8131  -13.8882  -18.1353 C   0  0  0  0  0  0  0  0  0  0  0  0
   18.9878  -12.7535  -16.0515 C   0  0  2  0  0  0  0  0  0  0  0  0
   18.0852  -13.0125  -14.9444 N   0  0  0  0  0  0  0  0  0  0  0  0
   18.8526  -11.4006  -16.5905 C   0  0  0  0  0  0  0  0  0  0  0  0
   19.4396  -11.0529  -17.6340 O   0  0  0  0  0  0  0  0  0  0  0  0
   15.3521   -9.4287  -16.6178 C   0  0  0  0  0  0  0  0  0  0  0  0
   16.4751   -8.6848  -15.9268 C   0  0  1  0  0  0  0  0  0  0  0  0
   16.3732   -9.0461  -14.5712 O   0  0  0  0  0  0  0  0  0  0  0  0
   17.8533   -9.0871  -16.4623 C   0  0  2  0  0  0  0  0  0  0  0  0
   18.0436  -10.4507  -15.9294 N   0  0  0  0  0  0  0  0  0  0  0  0
   18.8611   -8.2359  -15.8021 C   0  0  0  0  0  0  0  0  0  0  0  0
   19.3016   -8.5982  -14.6717 O   0  0  0  0  0  0  0  0  0  0  0  0
   22.8769   -4.0174  -18.0721 N   0  0  0  0  0  0  0  0  0  0  0  0
   23.0686   -3.8440  -16.6854 C   0  0  0  0  0  0  0  0  0  0  0  0
   23.9095   -3.0375  -16.2591 O   0  0  0  0  0  0  0  0  0  0  0  0
   22.2554   -4.6348  -15.7364 C   0  0  0  0  0  0  0  0  0  0  0  0
   21.2596   -5.5001  -16.4572 C   0  0  0  0  0  0  0  0  0  0  0  0
   20.3952   -6.3120  -15.5594 C   0  0  2  0  0  0  0  0  0  0  0  0
   19.3785   -7.0457  -16.3317 N   0  0  0  0  0  0  0  0  0  0  0  0
   19.7005   -5.5331  -14.5151 C   0  0  0  0  0  0  0  0  0  0  0  0
   20.3022   -5.2039  -13.4493 O   0  0  0  0  0  0  0  0  0  0  0  0
   18.3819   -5.0994  -14.5882 O   0  0  0  0  0  0  0  0  0  0  0  0
  2  1  1  0
  3  5  1  0
  3  2  1  0
  3  4  1  6
  5  7  1  0
  5  6  1  1
  7  8  2  0
 10 12  1  0
 10  9  1  6
 11 10  1  0
 12 14  1  0
 13  7  1  0
 12 13  1  1
 14 22  1  0
 15 14  2  0
 17 19  1  0
 17 16  1  0
 18 17  2  0
 19 20  1  0
 21 20  1  6
 21 23  1  0
 22 21  1  0
 23 25  1  0
 24 23  2  0
M  END
$$$$
