ITQ.pdb
     RDKit          3D

 25 24  0  0  1  0  0  0  0  0999 V2000
   28.3599  -19.6504  -13.5886 C   0  0  0  0  0  0  0  0  0  0  0  0
   27.0521  -20.0047  -14.2388 C   0  0  0  0  0  0  0  0  0  0  0  0
   26.0987  -20.6969  -13.3246 C   0  0  2  0  0  0  0  0  0  0  0  0
   26.7561  -21.9056  -12.7336 C   0  0  0  0  0  0  0  0  0  0  0  0
   24.8039  -21.0057  -14.0338 C   0  0  2  0  0  0  0  0  0  0  0  0
   24.5319  -19.8964  -14.9298 N   0  0  0  0  0  0  0  0  0  0  0  0
   23.6938  -21.2868  -13.1240 C   0  0  0  0  0  0  0  0  0  0  0  0
   23.7240  -22.2542  -12.3380 O   0  0  0  0  0  0  0  0  0  0  0  0
   20.1203  -19.4153  -10.4681 C   0  0  0  0  0  0  0  0  0  0  0  0
   21.3258  -19.4251  -11.3838 C   0  0  1  0  0  0  0  0  0  0  0  0
   22.4376  -19.3462  -10.5257 O   0  0  0  0  0  0  0  0  0  0  0  0
   21.4113  -20.7084  -12.2168 C   0  0  2  0  0  0  0  0  0  0  0  0
   22.5521  -20.4561  -13.1193 N   0  0  0  0  0  0  0  0  0  0  0  0
   20.2099  -20.7746  -13.0701 C   0  0  0  0  0  0  0  0  0  0  0  0
   20.1498  -20.0108  -14.0781 O   0  0  0  0  0  0  0  0  0  0  0  0
   16.2025  -25.2433  -12.8177 N   0  0  0  0  0  0  0  0  0  0  0  0
   17.2359  -25.3408  -13.7728 C   0  0  0  0  0  0  0  0  0  0  0  0
   17.6179  -26.4486  -14.1804 O   0  0  0  0  0  0  0  0  0  0  0  0
   17.8655  -24.1061  -14.2888 C   0  0  0  0  0  0  0  0  0  0  0  0
   17.2123  -22.8784  -13.7178 C   0  0  0  0  0  0  0  0  0  0  0  0
   18.0267  -21.6402  -13.8437 C   0  0  2  0  0  0  0  0  0  0  0  0
   19.1174  -21.6260  -12.8545 N   0  0  0  0  0  0  0  0  0  0  0  0
   17.2586  -20.3883  -13.6937 C   0  0  0  0  0  0  0  0  0  0  0  0
   17.1964  -19.8008  -12.5724 O   0  0  0  0  0  0  0  0  0  0  0  0
   16.5604  -19.7538  -14.7146 O   0  0  0  0  0  0  0  0  0  0  0  0
  2  1  1  0
  3  5  1  0
  3  2  1  0
  3  4  1  6
  5  7  1  0
  5  6  1  1
  7  8  2  0
 10 12  1  0
 10  9  1  1
 11 10  1  0
 12 14  1  0
 13  7  1  0
 12 13  1  6
 14 22  1  0
 15 14  2  0
 17 19  1  0
 17 16  1  0
 18 17  2  0
 19 20  1  0
 21 20  1  1
 21 23  1  0
 22 21  1  0
 23 25  1  0
 24 23  2  0
M  END
$$$$
