ITQ.pdb
     RDKit          3D

 25 24  0  0  1  0  0  0  0  0999 V2000
   16.2063  -13.1132  -17.5231 C   0  0  0  0  0  0  0  0  0  0  0  0
   17.6475  -12.7727  -17.7792 C   0  0  0  0  0  0  0  0  0  0  0  0
   18.3340  -12.1596  -16.6058 C   0  0  2  0  0  0  0  0  0  0  0  0
   17.5351  -10.9953  -16.1075 C   0  0  0  0  0  0  0  0  0  0  0  0
   19.7609  -11.8065  -16.9435 C   0  0  2  0  0  0  0  0  0  0  0  0
   20.3684  -12.9899  -17.5246 N   0  0  0  0  0  0  0  0  0  0  0  0
   20.5156  -11.2800  -15.8067 C   0  0  0  0  0  0  0  0  0  0  0  0
   20.6842  -11.9506  -14.7693 O   0  0  0  0  0  0  0  0  0  0  0  0
   23.9422  -10.6225  -15.4835 C   0  0  0  0  0  0  0  0  0  0  0  0
   23.2605   -9.2820  -15.3104 C   0  0  1  0  0  0  0  0  0  0  0  0
   23.1940   -8.7355  -16.6048 O   0  0  0  0  0  0  0  0  0  0  0  0
   21.8454   -9.4201  -14.7390 C   0  0  2  0  0  0  0  0  0  0  0  0
   21.0747   -9.9847  -15.8646 N   0  0  0  0  0  0  0  0  0  0  0  0
   21.3159   -8.0627  -14.5091 C   0  0  0  0  0  0  0  0  0  0  0  0
   20.7339   -7.4775  -15.4692 O   0  0  0  0  0  0  0  0  0  0  0  0
   18.6372   -5.3619   -9.7305 N   0  0  0  0  0  0  0  0  0  0  0  0
   17.9556   -5.9811  -10.7989 C   0  0  0  0  0  0  0  0  0  0  0  0
   16.7681   -6.3202  -10.6799 O   0  0  0  0  0  0  0  0  0  0  0  0
   18.6700   -6.2253  -12.0706 C   0  0  0  0  0  0  0  0  0  0  0  0
   20.1001   -5.7685  -11.9919 C   0  0  0  0  0  0  0  0  0  0  0  0
   20.8789   -5.9859  -13.2403 C   0  0  2  0  0  0  0  0  0  0  0  0
   21.4039   -7.3604  -13.2992 N   0  0  0  0  0  0  0  0  0  0  0  0
   22.0121   -5.0568  -13.4206 C   0  0  0  0  0  0  0  0  0  0  0  0
   21.8085   -3.8170  -13.5875 O   0  0  0  0  0  0  0  0  0  0  0  0
   23.3525   -5.4248  -13.4240 O   0  0  0  0  0  0  0  0  0  0  0  0
  2  1  1  0
  3  5  1  0
  3  2  1  0
  3  4  1  6
  5  7  1  0
  5  6  1  1
  7  8  2  0
 10 12  1  0
 10  9  1  6
 11 10  1  0
 12 14  1  0
 13  7  1  0
 12 13  1  6
 14 22  1  0
 15 14  2  0
 17 19  1  0
 17 16  1  0
 18 17  2  0
 19 20  1  0
 21 20  1  1
 21 23  1  0
 22 21  1  0
 23 25  1  0
 24 23  2  0
M  END
$$$$
