ITQ.pdb
     RDKit          3D

 25 24  0  0  1  0  0  0  0  0999 V2000
   26.2335  -20.9006   -6.4407 C   0  0  0  0  0  0  0  0  0  0  0  0
   25.3876  -20.8080   -7.6794 C   0  0  0  0  0  0  0  0  0  0  0  0
   26.1111  -20.2461   -8.8562 C   0  0  2  0  0  0  0  0  0  0  0  0
   26.7325  -18.9350   -8.4855 C   0  0  0  0  0  0  0  0  0  0  0  0
   25.1998  -20.1595  -10.0548 C   0  0  2  0  0  0  0  0  0  0  0  0
   24.6015  -21.4700  -10.2328 N   0  0  0  0  0  0  0  0  0  0  0  0
   25.8680  -19.6711  -11.2607 C   0  0  0  0  0  0  0  0  0  0  0  0
   26.5604  -18.6344  -11.2480 O   0  0  0  0  0  0  0  0  0  0  0  0
   28.1882  -21.7454  -13.2132 C   0  0  0  0  0  0  0  0  0  0  0  0
   27.1261  -21.2558  -14.1745 C   0  0  1  0  0  0  0  0  0  0  0  0
   26.1692  -22.2858  -14.2179 O   0  0  0  0  0  0  0  0  0  0  0  0
   26.4631  -19.9599  -13.6959 C   0  0  2  0  0  0  0  0  0  0  0  0
   25.7389  -20.3748  -12.4781 N   0  0  0  0  0  0  0  0  0  0  0  0
   25.4358  -19.5851  -14.6858 C   0  0  0  0  0  0  0  0  0  0  0  0
   24.2802  -20.0889  -14.5681 O   0  0  0  0  0  0  0  0  0  0  0  0
   24.9627  -14.5291  -18.3110 N   0  0  0  0  0  0  0  0  0  0  0  0
   23.7350  -15.1732  -18.5709 C   0  0  0  0  0  0  0  0  0  0  0  0
   22.8789  -14.6364  -19.2906 O   0  0  0  0  0  0  0  0  0  0  0  0
   23.4728  -16.5017  -17.9760 C   0  0  0  0  0  0  0  0  0  0  0  0
   24.6258  -16.9585  -17.1263 C   0  0  0  0  0  0  0  0  0  0  0  0
   24.4843  -18.3424  -16.6001 C   0  0  2  0  0  0  0  0  0  0  0  0
   25.6365  -18.7044  -15.7576 N   0  0  0  0  0  0  0  0  0  0  0  0
   24.3380  -19.3781  -17.6422 C   0  0  0  0  0  0  0  0  0  0  0  0
   23.1922  -19.6866  -18.0876 O   0  0  0  0  0  0  0  0  0  0  0  0
   25.3876  -20.0857  -18.2163 O   0  0  0  0  0  0  0  0  0  0  0  0
  2  1  1  0
  3  5  1  0
  3  2  1  0
  3  4  1  1
  5  7  1  0
  5  6  1  6
  7  8  2  0
 10 12  1  0
 10  9  1  1
 11 10  1  0
 12 14  1  0
 13  7  1  0
 12 13  1  1
 14 22  1  0
 15 14  2  0
 17 19  1  0
 17 16  1  0
 18 17  2  0
 19 20  1  0
 21 20  1  6
 21 23  1  0
 22 21  1  0
 23 25  1  0
 24 23  2  0
M  END
$$$$
