ITQ.pdb
     RDKit          3D

 25 24  0  0  1  0  0  0  0  0999 V2000
   15.6226  -13.8227  -19.3140 C   0  0  0  0  0  0  0  0  0  0  0  0
   17.0609  -14.1900  -19.0798 C   0  0  0  0  0  0  0  0  0  0  0  0
   17.7482  -13.3113  -18.0901 C   0  0  2  0  0  0  0  0  0  0  0  0
   17.6558  -11.8844  -18.5349 C   0  0  0  0  0  0  0  0  0  0  0  0
   19.1639  -13.7746  -17.8537 C   0  0  2  0  0  0  0  0  0  0  0  0
   19.1010  -15.1833  -17.5089 N   0  0  0  0  0  0  0  0  0  0  0  0
   19.8794  -12.9772  -16.8581 C   0  0  0  0  0  0  0  0  0  0  0  0
   19.5874  -13.0311  -15.6473 O   0  0  0  0  0  0  0  0  0  0  0  0
   24.0311  -10.4011  -16.0706 C   0  0  0  0  0  0  0  0  0  0  0  0
   23.1200  -11.3700  -16.7939 C   0  0  1  0  0  0  0  0  0  0  0  0
   23.6562  -12.6432  -16.5293 O   0  0  0  0  0  0  0  0  0  0  0  0
   21.6779  -11.3042  -16.2800 C   0  0  2  0  0  0  0  0  0  0  0  0
   20.9285  -12.1199  -17.2560 N   0  0  0  0  0  0  0  0  0  0  0  0
   21.2028   -9.9172  -16.4421 C   0  0  0  0  0  0  0  0  0  0  0  0
   20.8216   -9.5463  -17.5911 O   0  0  0  0  0  0  0  0  0  0  0  0
   16.4588   -7.4223  -15.8278 N   0  0  0  0  0  0  0  0  0  0  0  0
   17.1367   -6.2009  -16.0227 C   0  0  0  0  0  0  0  0  0  0  0  0
   16.5052   -5.1510  -16.2177 O   0  0  0  0  0  0  0  0  0  0  0  0
   18.6153   -6.1793  -15.9931 C   0  0  0  0  0  0  0  0  0  0  0  0
   19.1776   -7.5465  -15.7203 C   0  0  0  0  0  0  0  0  0  0  0  0
   20.6636   -7.6090  -15.7382 C   0  0  2  0  0  0  0  0  0  0  0  0
   21.1361   -8.9657  -15.4150 N   0  0  0  0  0  0  0  0  0  0  0  0
   21.3240   -6.6641  -14.8158 C   0  0  0  0  0  0  0  0  0  0  0  0
   21.8507   -7.0764  -13.7392 O   0  0  0  0  0  0  0  0  0  0  0  0
   21.4335   -5.2938  -15.0214 O   0  0  0  0  0  0  0  0  0  0  0  0
  2  1  1  0
  3  5  1  0
  3  2  1  0
  3  4  1  6
  5  7  1  0
  5  6  1  1
  7  8  2  0
 10 12  1  0
 10  9  1  1
 11 10  1  0
 12 14  1  0
 13  7  1  0
 12 13  1  6
 14 22  1  0
 15 14  2  0
 17 19  1  0
 17 16  1  0
 18 17  2  0
 19 20  1  0
 21 20  1  1
 21 23  1  0
 22 21  1  0
 23 25  1  0
 24 23  2  0
M  END
$$$$
