ITQ.pdb
     RDKit          3D

 25 24  0  0  1  0  0  0  0  0999 V2000
   22.4838  -17.0879  -15.3102 C   0  0  0  0  0  0  0  0  0  0  0  0
   23.7914  -16.5372  -15.8058 C   0  0  0  0  0  0  0  0  0  0  0  0
   24.0947  -15.1689  -15.2961 C   0  0  2  0  0  0  0  0  0  0  0  0
   22.9255  -14.2678  -15.5476 C   0  0  0  0  0  0  0  0  0  0  0  0
   25.3855  -14.6526  -15.8810 C   0  0  2  0  0  0  0  0  0  0  0  0
   26.4272  -15.5963  -15.5181 N   0  0  0  0  0  0  0  0  0  0  0  0
   25.6980  -13.2804  -15.4830 C   0  0  0  0  0  0  0  0  0  0  0  0
   26.1554  -13.0173  -14.3534 O   0  0  0  0  0  0  0  0  0  0  0  0
   26.8121  -10.6288  -18.2420 C   0  0  0  0  0  0  0  0  0  0  0  0
   26.9475  -10.3969  -16.7521 C   0  0  1  0  0  0  0  0  0  0  0  0
   27.1524   -9.0121  -16.6146 O   0  0  0  0  0  0  0  0  0  0  0  0
   25.6866  -10.8073  -15.9840 C   0  0  2  0  0  0  0  0  0  0  0  0
   25.4843  -12.2140  -16.3836 N   0  0  0  0  0  0  0  0  0  0  0  0
   24.5511  -10.0474  -16.5399 C   0  0  0  0  0  0  0  0  0  0  0  0
   24.1299  -10.3595  -17.6923 O   0  0  0  0  0  0  0  0  0  0  0  0
   19.1264   -9.7901  -14.9988 N   0  0  0  0  0  0  0  0  0  0  0  0
   19.9790   -9.1370  -14.0844 C   0  0  0  0  0  0  0  0  0  0  0  0
   19.6596   -9.0251  -12.8908 O   0  0  0  0  0  0  0  0  0  0  0  0
   21.2649   -8.5827  -14.5605 C   0  0  0  0  0  0  0  0  0  0  0  0
   21.4625   -8.8404  -16.0283 C   0  0  0  0  0  0  0  0  0  0  0  0
   22.7581   -8.3449  -16.5651 C   0  0  2  0  0  0  0  0  0  0  0  0
   23.8912   -8.9968  -15.8874 N   0  0  0  0  0  0  0  0  0  0  0  0
   22.9423   -6.8839  -16.4589 C   0  0  0  0  0  0  0  0  0  0  0  0
   22.1314   -6.0894  -17.0225 O   0  0  0  0  0  0  0  0  0  0  0  0
   23.9706   -6.2581  -15.7637 O   0  0  0  0  0  0  0  0  0  0  0  0
  2  1  1  0
  3  5  1  0
  3  2  1  0
  3  4  1  6
  5  7  1  0
  5  6  1  1
  7  8  2  0
 10 12  1  0
 10  9  1  6
 11 10  1  0
 12 14  1  0
 13  7  1  0
 12 13  1  6
 14 22  1  0
 15 14  2  0
 17 19  1  0
 17 16  1  0
 18 17  2  0
 19 20  1  0
 21 20  1  1
 21 23  1  0
 22 21  1  0
 23 25  1  0
 24 23  2  0
M  END
$$$$
