ITQ.pdb
     RDKit          3D

 25 24  0  0  1  0  0  0  0  0999 V2000
   18.0684  -16.6848  -17.0631 C   0  0  0  0  0  0  0  0  0  0  0  0
   17.5735  -15.5541  -16.2056 C   0  0  0  0  0  0  0  0  0  0  0  0
   17.8187  -14.2062  -16.7946 C   0  0  2  0  0  0  0  0  0  0  0  0
   19.2768  -14.0467  -17.0962 C   0  0  0  0  0  0  0  0  0  0  0  0
   17.2698  -13.1224  -15.9009 C   0  0  2  0  0  0  0  0  0  0  0  0
   15.9059  -13.4920  -15.5685 N   0  0  0  0  0  0  0  0  0  0  0  0
   17.3707  -11.7830  -16.4796 C   0  0  0  0  0  0  0  0  0  0  0  0
   17.7593  -11.6066  -17.6511 O   0  0  0  0  0  0  0  0  0  0  0  0
   14.6350   -9.4324  -16.8577 C   0  0  0  0  0  0  0  0  0  0  0  0
   15.6830   -8.7309  -16.0200 C   0  0  1  0  0  0  0  0  0  0  0  0
   15.3095   -8.9764  -14.6862 O   0  0  0  0  0  0  0  0  0  0  0  0
   17.0902   -9.2842  -16.2683 C   0  0  2  0  0  0  0  0  0  0  0  0
   17.0249  -10.6499  -15.7114 N   0  0  0  0  0  0  0  0  0  0  0  0
   18.0294   -8.5300  -15.4170 C   0  0  0  0  0  0  0  0  0  0  0  0
   18.2044   -8.9230  -14.2262 O   0  0  0  0  0  0  0  0  0  0  0  0
   22.6235   -9.7564  -13.8947 N   0  0  0  0  0  0  0  0  0  0  0  0
   22.9228   -8.9594  -15.0194 C   0  0  0  0  0  0  0  0  0  0  0  0
   23.9731   -9.1332  -15.6563 O   0  0  0  0  0  0  0  0  0  0  0  0
   21.9703   -7.9080  -15.4373 C   0  0  0  0  0  0  0  0  0  0  0  0
   20.7695   -7.8661  -14.5339 C   0  0  0  0  0  0  0  0  0  0  0  0
   19.7606   -6.8394  -14.9082 C   0  0  2  0  0  0  0  0  0  0  0  0
   18.7542   -7.4015  -15.8244 N   0  0  0  0  0  0  0  0  0  0  0  0
   20.3271   -5.6306  -15.5389 C   0  0  0  0  0  0  0  0  0  0  0  0
   20.2019   -5.4350  -16.7849 O   0  0  0  0  0  0  0  0  0  0  0  0
   21.0200   -4.6305  -14.8668 O   0  0  0  0  0  0  0  0  0  0  0  0
  2  1  1  0
  3  5  1  0
  3  2  1  0
  3  4  1  1
  5  7  1  0
  5  6  1  6
  7  8  2  0
 10 12  1  0
 10  9  1  6
 11 10  1  0
 12 14  1  0
 13  7  1  0
 12 13  1  1
 14 22  1  0
 15 14  2  0
 17 19  1  0
 17 16  1  0
 18 17  2  0
 19 20  1  0
 21 20  1  6
 21 23  1  0
 22 21  1  0
 23 25  1  0
 24 23  2  0
M  END
$$$$
