ITQ.pdb
     RDKit          3D

 25 24  0  0  1  0  0  0  0  0999 V2000
   24.4303  -15.8833  -16.5131 C   0  0  0  0  0  0  0  0  0  0  0  0
   23.2973  -15.0485  -15.9860 C   0  0  0  0  0  0  0  0  0  0  0  0
   23.6323  -13.6011  -15.8554 C   0  0  2  0  0  0  0  0  0  0  0  0
   24.8113  -13.4377  -14.9468 C   0  0  0  0  0  0  0  0  0  0  0  0
   22.4256  -12.8085  -15.4193 C   0  0  2  0  0  0  0  0  0  0  0  0
   21.3389  -13.1551  -16.3173 N   0  0  0  0  0  0  0  0  0  0  0  0
   22.6684  -11.3679  -15.3503 C   0  0  0  0  0  0  0  0  0  0  0  0
   23.6643  -10.9020  -14.7626 O   0  0  0  0  0  0  0  0  0  0  0  0
   23.3803   -9.0530  -18.0205 C   0  0  0  0  0  0  0  0  0  0  0  0
   22.0734   -8.6167  -17.3931 C   0  0  1  0  0  0  0  0  0  0  0  0
   21.0757   -9.2908  -18.1203 O   0  0  0  0  0  0  0  0  0  0  0  0
   21.9812   -9.0062  -15.9140 C   0  0  2  0  0  0  0  0  0  0  0  0
   21.7666  -10.4662  -15.9566 N   0  0  0  0  0  0  0  0  0  0  0  0
   20.7440   -8.4176  -15.3675 C   0  0  0  0  0  0  0  0  0  0  0  0
   19.6381   -8.9394  -15.6957 O   0  0  0  0  0  0  0  0  0  0  0  0
   19.0287   -6.4601   -9.9370 N   0  0  0  0  0  0  0  0  0  0  0  0
   17.8882   -6.0922  -10.6810 C   0  0  0  0  0  0  0  0  0  0  0  0
   16.8584   -5.7030  -10.1090 O   0  0  0  0  0  0  0  0  0  0  0  0
   17.9279   -6.1738  -12.1571 C   0  0  0  0  0  0  0  0  0  0  0  0
   19.2160   -6.7818  -12.6377 C   0  0  0  0  0  0  0  0  0  0  0  0
   19.3758   -6.7815  -14.1164 C   0  0  2  0  0  0  0  0  0  0  0  0
   20.6926   -7.3158  -14.5025 N   0  0  0  0  0  0  0  0  0  0  0  0
   19.2195   -5.4549  -14.7454 C   0  0  0  0  0  0  0  0  0  0  0  0
   18.0793   -4.9062  -14.8174 O   0  0  0  0  0  0  0  0  0  0  0  0
   20.2536   -4.7059  -15.2948 O   0  0  0  0  0  0  0  0  0  0  0  0
  2  1  1  0
  3  5  1  0
  3  2  1  0
  3  4  1  1
  5  7  1  0
  5  6  1  6
  7  8  2  0
 10 12  1  0
 10  9  1  6
 11 10  1  0
 12 14  1  0
 13  7  1  0
 12 13  1  6
 14 22  1  0
 15 14  2  0
 17 19  1  0
 17 16  1  0
 18 17  2  0
 19 20  1  0
 21 20  1  1
 21 23  1  0
 22 21  1  0
 23 25  1  0
 24 23  2  0
M  END
$$$$
