ITQ.pdb
     RDKit          3D

 25 24  0  0  1  0  0  0  0  0999 V2000
   25.0295  -20.7267   -7.9932 C   0  0  0  0  0  0  0  0  0  0  0  0
   25.7142  -21.3003   -9.2018 C   0  0  0  0  0  0  0  0  0  0  0  0
   25.4914  -20.5091  -10.4462 C   0  0  2  0  0  0  0  0  0  0  0  0
   24.0226  -20.3116  -10.6605 C   0  0  0  0  0  0  0  0  0  0  0  0
   26.1874  -21.1498  -11.6209 C   0  0  2  0  0  0  0  0  0  0  0  0
   27.5294  -21.4939  -11.1873 N   0  0  0  0  0  0  0  0  0  0  0  0
   26.1744  -20.3234  -12.8275 C   0  0  0  0  0  0  0  0  0  0  0  0
   26.7441  -19.2150  -12.8648 O   0  0  0  0  0  0  0  0  0  0  0  0
   27.9837  -19.9345  -15.3592 C   0  0  0  0  0  0  0  0  0  0  0  0
   26.6978  -20.4164  -15.9966 C   0  0  1  0  0  0  0  0  0  0  0  0
   26.7796  -21.8204  -15.9688 O   0  0  0  0  0  0  0  0  0  0  0  0
   25.4585  -19.9597  -15.2197 C   0  0  2  0  0  0  0  0  0  0  0  0
   25.5070  -20.7723  -13.9881 N   0  0  0  0  0  0  0  0  0  0  0  0
   24.2670  -20.4042  -15.9671 C   0  0  0  0  0  0  0  0  0  0  0  0
   23.6973  -21.4744  -15.6021 O   0  0  0  0  0  0  0  0  0  0  0  0
   19.6843  -17.5258  -15.2162 N   0  0  0  0  0  0  0  0  0  0  0  0
   19.0811  -18.3936  -16.1504 C   0  0  0  0  0  0  0  0  0  0  0  0
   17.8521  -18.3852  -16.3197 O   0  0  0  0  0  0  0  0  0  0  0  0
   19.9285  -19.3199  -16.9322 C   0  0  0  0  0  0  0  0  0  0  0  0
   21.3858  -19.1265  -16.6179 C   0  0  0  0  0  0  0  0  0  0  0  0
   22.3000  -19.9936  -17.4081 C   0  0  2  0  0  0  0  0  0  0  0  0
   23.7062  -19.7292  -17.0601 N   0  0  0  0  0  0  0  0  0  0  0  0
   22.1582  -19.8543  -18.8711 C   0  0  0  0  0  0  0  0  0  0  0  0
   21.3314  -20.5719  -19.5096 O   0  0  0  0  0  0  0  0  0  0  0  0
   22.8782  -18.9657  -19.6611 O   0  0  0  0  0  0  0  0  0  0  0  0
  2  1  1  0
  3  5  1  0
  3  2  1  0
  3  4  1  6
  5  7  1  0
  5  6  1  1
  7  8  2  0
 10 12  1  0
 10  9  1  1
 11 10  1  0
 12 14  1  0
 13  7  1  0
 12 13  1  1
 14 22  1  0
 15 14  2  0
 17 19  1  0
 17 16  1  0
 18 17  2  0
 19 20  1  0
 21 20  1  1
 21 23  1  0
 22 21  1  0
 23 25  1  0
 24 23  2  0
M  END
$$$$
