KAK.pdb
     RDKit          3D

 24 23  0  0  1  0  0  0  0  0999 V2000
   17.4867  -10.3642  -10.4489 N   0  0  0  0  0  0  0  0  0  0  0  0
   16.4717   -9.4696  -10.9454 C   0  0  1  0  0  0  0  0  0  0  0  0
   15.1306  -10.1201  -10.7082 C   0  0  0  0  0  0  0  0  0  0  0  0
   14.9066  -11.1082  -11.8341 C   0  0  0  0  0  0  0  0  0  0  0  0
   13.5055  -11.6826  -11.7973 C   0  0  0  0  0  0  0  0  0  0  0  0
   13.4099  -12.6598  -12.9751 C   0  0  0  0  0  0  0  0  0  0  0  0
   12.0903  -13.2289  -13.0790 N   0  0  0  0  0  0  0  0  0  0  0  0
   16.6001   -8.1595  -10.3020 C   0  0  0  0  0  0  0  0  0  0  0  0
   16.7060   -8.1197   -9.0513 O   0  0  0  0  0  0  0  0  0  0  0  0
   17.1285   -4.6157  -11.3981 C   0  0  0  0  0  0  0  0  0  0  0  0
   16.6722   -5.6183  -10.3934 C   0  0  2  0  0  0  0  0  0  0  0  0
   16.6122   -6.9292  -11.0079 N   0  0  0  0  0  0  0  0  0  0  0  0
   15.3568   -5.2619   -9.7749 C   0  0  0  0  0  0  0  0  0  0  0  0
   14.3141   -5.6274  -10.3504 O   0  0  0  0  0  0  0  0  0  0  0  0
   15.3075   -4.5274   -8.5655 N   0  0  0  0  0  0  0  0  0  0  0  0
   14.0633   -4.1226   -7.9874 C   0  0  1  0  0  0  0  0  0  0  0  0
   14.1242   -4.0263   -6.4620 C   0  0  0  0  0  0  0  0  0  0  0  0
   12.8319   -3.5269   -5.9004 C   0  0  0  0  0  0  0  0  0  0  0  0
   12.8383   -3.4537   -4.4083 C   0  0  0  0  0  0  0  0  0  0  0  0
   11.5600   -2.9960   -3.8085 C   0  0  0  0  0  0  0  0  0  0  0  0
   11.4994   -2.8990   -2.3946 N   0  0  0  0  0  0  0  0  0  0  0  0
   13.6644   -2.7865   -8.5095 C   0  0  0  0  0  0  0  0  0  0  0  0
   14.6012   -1.8889   -8.9940 O   0  0  0  0  0  0  0  0  0  0  0  0
   12.4548   -2.4060   -8.5366 O   0  0  0  0  0  0  0  0  0  0  0  0
  2  1  1  1
  2  3  1  0
  3  4  1  0
  5  4  1  0
  5  6  1  0
  6  7  1  0
  8 12  1  0
  8  2  1  0
  9  8  2  0
 11 10  1  6
 11 13  1  0
 11 12  1  0
 13 15  1  0
 14 13  2  0
 15 16  1  0
 16 17  1  1
 16 22  1  0
 18 17  1  0
 19 20  1  0
 19 18  1  0
 21 20  1  0
 22 24  2  0
 22 23  1  0
M  END
$$$$
