KAK.pdb
     RDKit          3D

 24 23  0  0  1  0  0  0  0  0999 V2000
   23.0939  -15.2058  -18.4253 N   0  0  0  0  0  0  0  0  0  0  0  0
   23.4341  -13.8214  -18.6372 C   0  0  1  0  0  0  0  0  0  0  0  0
   22.6739  -13.3424  -19.8499 C   0  0  0  0  0  0  0  0  0  0  0  0
   22.6119  -14.4993  -20.8255 C   0  0  0  0  0  0  0  0  0  0  0  0
   23.9308  -14.6887  -21.5459 C   0  0  0  0  0  0  0  0  0  0  0  0
   23.6860  -15.7570  -22.6182 C   0  0  0  0  0  0  0  0  0  0  0  0
   24.9085  -16.1139  -23.2921 N   0  0  0  0  0  0  0  0  0  0  0  0
   23.1446  -13.0437  -17.4297 C   0  0  0  0  0  0  0  0  0  0  0  0
   21.9999  -13.1387  -16.9221 O   0  0  0  0  0  0  0  0  0  0  0  0
   25.0546  -10.7720  -15.1170 C   0  0  0  0  0  0  0  0  0  0  0  0
   23.7840  -11.3043  -15.6869 C   0  0  2  0  0  0  0  0  0  0  0  0
   24.0816  -12.1871  -16.7967 N   0  0  0  0  0  0  0  0  0  0  0  0
   22.8396  -10.2224  -16.1084 C   0  0  0  0  0  0  0  0  0  0  0  0
   22.9620   -9.7427  -17.2516 O   0  0  0  0  0  0  0  0  0  0  0  0
   21.8349   -9.7614  -15.2238 N   0  0  0  0  0  0  0  0  0  0  0  0
   20.9294   -8.7197  -15.5993 C   0  0  1  0  0  0  0  0  0  0  0  0
   19.4932   -8.9952  -15.1509 C   0  0  0  0  0  0  0  0  0  0  0  0
   18.5638   -7.9260  -15.6283 C   0  0  0  0  0  0  0  0  0  0  0  0
   17.1413   -8.1844  -15.2526 C   0  0  0  0  0  0  0  0  0  0  0  0
   16.1643   -7.2434  -15.8552 C   0  0  0  0  0  0  0  0  0  0  0  0
   14.8075   -7.3686  -15.4604 N   0  0  0  0  0  0  0  0  0  0  0  0
   21.3527   -7.4274  -14.9928 C   0  0  0  0  0  0  0  0  0  0  0  0
   22.1896   -7.3843  -13.8903 O   0  0  0  0  0  0  0  0  0  0  0  0
   20.9706   -6.3088  -15.4526 O   0  0  0  0  0  0  0  0  0  0  0  0
  2  1  1  1
  2  3  1  0
  3  4  1  0
  5  4  1  0
  5  6  1  0
  6  7  1  0
  8 12  1  0
  8  2  1  0
  9  8  2  0
 11 10  1  6
 11 13  1  0
 11 12  1  0
 13 15  1  0
 14 13  2  0
 15 16  1  0
 16 17  1  1
 16 22  1  0
 18 17  1  0
 19 20  1  0
 19 18  1  0
 21 20  1  0
 22 24  2  0
 22 23  1  0
M  END
$$$$
