KAK.pdb
     RDKit          3D

 24 23  0  0  1  0  0  0  0  0999 V2000
   15.7812  -13.4870  -17.6179 N   0  0  0  0  0  0  0  0  0  0  0  0
   16.3889  -13.2072  -16.3415 C   0  0  1  0  0  0  0  0  0  0  0  0
   17.5193  -14.1880  -16.1464 C   0  0  0  0  0  0  0  0  0  0  0  0
   16.9064  -15.4898  -15.6735 C   0  0  0  0  0  0  0  0  0  0  0  0
   17.9568  -16.5675  -15.5021 C   0  0  0  0  0  0  0  0  0  0  0  0
   17.2154  -17.8175  -15.0133 C   0  0  0  0  0  0  0  0  0  0  0  0
   18.1272  -18.9054  -14.7659 N   0  0  0  0  0  0  0  0  0  0  0  0
   16.8222  -11.8085  -16.2886 C   0  0  0  0  0  0  0  0  0  0  0  0
   17.5495  -11.3764  -17.2167 O   0  0  0  0  0  0  0  0  0  0  0  0
   16.1217   -8.8403  -14.0799 C   0  0  0  0  0  0  0  0  0  0  0  0
   16.8515   -9.5131  -15.1923 C   0  0  2  0  0  0  0  0  0  0  0  0
   16.4691  -10.9096  -15.2496 N   0  0  0  0  0  0  0  0  0  0  0  0
   18.3373   -9.3744  -15.0784 C   0  0  0  0  0  0  0  0  0  0  0  0
   18.9600  -10.2164  -14.4037 O   0  0  0  0  0  0  0  0  0  0  0  0
   19.0107   -8.3097  -15.7246 N   0  0  0  0  0  0  0  0  0  0  0  0
   20.4308   -8.1618  -15.6382 C   0  0  1  0  0  0  0  0  0  0  0  0
   21.0873   -7.9522  -17.0037 C   0  0  0  0  0  0  0  0  0  0  0  0
   22.5655   -7.7736  -16.8707 C   0  0  0  0  0  0  0  0  0  0  0  0
   23.2481   -7.5915  -18.1870 C   0  0  0  0  0  0  0  0  0  0  0  0
   24.7274   -7.5015  -18.1066 C   0  0  0  0  0  0  0  0  0  0  0  0
   25.4523   -7.5513  -19.3249 N   0  0  0  0  0  0  0  0  0  0  0  0
   20.7746   -6.9901  -14.7862 C   0  0  0  0  0  0  0  0  0  0  0  0
   19.8727   -5.9614  -14.5710 O   0  0  0  0  0  0  0  0  0  0  0  0
   21.9031   -6.8762  -14.2187 O   0  0  0  0  0  0  0  0  0  0  0  0
  2  1  1  6
  2  3  1  0
  3  4  1  0
  5  4  1  0
  5  6  1  0
  6  7  1  0
  8 12  1  0
  8  2  1  0
  9  8  2  0
 11 10  1  1
 11 13  1  0
 11 12  1  0
 13 15  1  0
 14 13  2  0
 15 16  1  0
 16 17  1  6
 16 22  1  0
 18 17  1  0
 19 20  1  0
 19 18  1  0
 21 20  1  0
 22 24  2  0
 22 23  1  0
M  END
$$$$
