KAK.pdb
     RDKit          3D

 24 23  0  0  1  0  0  0  0  0999 V2000
   13.7109  -10.9694  -11.0881 N   0  0  0  0  0  0  0  0  0  0  0  0
   15.0103  -10.4128  -10.8070 C   0  0  1  0  0  0  0  0  0  0  0  0
   15.8944  -10.6863  -11.9992 C   0  0  0  0  0  0  0  0  0  0  0  0
   15.9205  -12.1869  -12.2028 C   0  0  0  0  0  0  0  0  0  0  0  0
   16.7270  -12.5665  -13.4274 C   0  0  0  0  0  0  0  0  0  0  0  0
   16.6651  -14.0954  -13.5267 C   0  0  0  0  0  0  0  0  0  0  0  0
   17.4681  -14.5834  -14.6190 N   0  0  0  0  0  0  0  0  0  0  0  0
   14.8875   -8.9868  -10.4938 C   0  0  0  0  0  0  0  0  0  0  0  0
   14.1725   -8.2740  -11.2405 O   0  0  0  0  0  0  0  0  0  0  0  0
   15.8439   -6.7146   -7.6731 C   0  0  0  0  0  0  0  0  0  0  0  0
   15.4789   -6.9421   -9.1006 C   0  0  2  0  0  0  0  0  0  0  0  0
   15.5291   -8.3600   -9.3948 N   0  0  0  0  0  0  0  0  0  0  0  0
   16.3430   -6.1725  -10.0498 C   0  0  0  0  0  0  0  0  0  0  0  0
   17.4483   -6.6528  -10.3655 O   0  0  0  0  0  0  0  0  0  0  0  0
   15.9076   -4.9303  -10.5712 N   0  0  0  0  0  0  0  0  0  0  0  0
   16.6773   -4.2170  -11.5432 C   0  0  1  0  0  0  0  0  0  0  0  0
   16.1711   -4.4310  -12.9706 C   0  0  0  0  0  0  0  0  0  0  0  0
   16.9098   -3.5664  -13.9410 C   0  0  0  0  0  0  0  0  0  0  0  0
   16.4140   -3.7137  -15.3425 C   0  0  0  0  0  0  0  0  0  0  0  0
   17.1412   -2.8928  -16.3427 C   0  0  0  0  0  0  0  0  0  0  0  0
   16.7358   -3.0030  -17.6976 N   0  0  0  0  0  0  0  0  0  0  0  0
   16.6334   -2.7556  -11.2619 C   0  0  0  0  0  0  0  0  0  0  0  0
   17.6435   -1.9063  -11.6819 O   0  0  0  0  0  0  0  0  0  0  0  0
   15.6751   -2.2188  -10.6277 O   0  0  0  0  0  0  0  0  0  0  0  0
  2  1  1  6
  2  3  1  0
  3  4  1  0
  5  4  1  0
  5  6  1  0
  6  7  1  0
  8 12  1  0
  8  2  1  0
  9  8  2  0
 11 10  1  1
 11 13  1  0
 11 12  1  0
 13 15  1  0
 14 13  2  0
 15 16  1  0
 16 17  1  6
 16 22  1  0
 18 17  1  0
 19 20  1  0
 19 18  1  0
 21 20  1  0
 22 24  2  0
 22 23  1  0
M  END
$$$$
