KAK.pdb
     RDKit          3D

 24 23  0  0  1  0  0  0  0  0999 V2000
   27.7421  -21.0721  -15.3497 N   0  0  0  0  0  0  0  0  0  0  0  0
   26.6014  -20.8442  -16.2007 C   0  0  1  0  0  0  0  0  0  0  0  0
   26.7602  -21.7140  -17.4238 C   0  0  0  0  0  0  0  0  0  0  0  0
   28.1785  -22.2455  -17.4145 C   0  0  0  0  0  0  0  0  0  0  0  0
   28.2213  -23.7048  -17.0109 C   0  0  0  0  0  0  0  0  0  0  0  0
   29.6776  -24.1549  -17.1777 C   0  0  0  0  0  0  0  0  0  0  0  0
   29.8607  -25.5140  -16.7356 N   0  0  0  0  0  0  0  0  0  0  0  0
   25.3641  -21.1074  -15.4613 C   0  0  0  0  0  0  0  0  0  0  0  0
   24.3180  -21.3379  -16.1168 O   0  0  0  0  0  0  0  0  0  0  0  0
   24.3957  -21.4178  -11.8304 C   0  0  0  0  0  0  0  0  0  0  0  0
   24.0932  -21.4780  -13.2890 C   0  0  2  0  0  0  0  0  0  0  0  0
   25.2753  -21.1179  -14.0456 N   0  0  0  0  0  0  0  0  0  0  0  0
   22.9326  -20.6162  -13.6765 C   0  0  0  0  0  0  0  0  0  0  0  0
   23.0308  -19.3847  -13.5162 O   0  0  0  0  0  0  0  0  0  0  0  0
   21.7560  -21.1942  -14.2113 N   0  0  0  0  0  0  0  0  0  0  0  0
   20.6070  -20.4000  -14.5197 C   0  0  1  0  0  0  0  0  0  0  0  0
   20.0133  -20.7271  -15.8909 C   0  0  0  0  0  0  0  0  0  0  0  0
   18.8538  -19.8368  -16.2038 C   0  0  0  0  0  0  0  0  0  0  0  0
   18.2606  -20.1086  -17.5477 C   0  0  0  0  0  0  0  0  0  0  0  0
   17.2426  -19.1201  -17.9830 C   0  0  0  0  0  0  0  0  0  0  0  0
   16.7464  -19.2330  -19.3071 N   0  0  0  0  0  0  0  0  0  0  0  0
   19.5426  -20.6189  -13.5018 C   0  0  0  0  0  0  0  0  0  0  0  0
   19.3483  -21.8565  -12.9115 O   0  0  0  0  0  0  0  0  0  0  0  0
   18.7656  -19.6892  -13.1270 O   0  0  0  0  0  0  0  0  0  0  0  0
  2  1  1  1
  2  3  1  0
  3  4  1  0
  5  4  1  0
  5  6  1  0
  6  7  1  0
  8 12  1  0
  8  2  1  0
  9  8  2  0
 11 10  1  1
 11 13  1  0
 11 12  1  0
 13 15  1  0
 14 13  2  0
 15 16  1  0
 16 17  1  6
 16 22  1  0
 18 17  1  0
 19 20  1  0
 19 18  1  0
 21 20  1  0
 22 24  2  0
 22 23  1  0
M  END
$$$$
