KAK.pdb
     RDKit          3D

 24 23  0  0  1  0  0  0  0  0999 V2000
   19.2949  -12.1888  -16.6666 N   0  0  0  0  0  0  0  0  0  0  0  0
   18.5413  -11.1344  -16.0362 C   0  0  1  0  0  0  0  0  0  0  0  0
   17.3866  -11.7713  -15.3020 C   0  0  0  0  0  0  0  0  0  0  0  0
   16.6016  -12.5781  -16.3154 C   0  0  0  0  0  0  0  0  0  0  0  0
   16.5781  -14.0490  -15.9551 C   0  0  0  0  0  0  0  0  0  0  0  0
   15.7364  -14.7428  -17.0328 C   0  0  0  0  0  0  0  0  0  0  0  0
   15.5356  -16.1362  -16.7257 N   0  0  0  0  0  0  0  0  0  0  0  0
   19.4156  -10.3457  -15.1643 C   0  0  0  0  0  0  0  0  0  0  0  0
   18.8894   -9.4836  -14.4180 O   0  0  0  0  0  0  0  0  0  0  0  0
   23.0012  -10.4432  -14.0953 C   0  0  0  0  0  0  0  0  0  0  0  0
   21.7152   -9.7119  -14.2801 C   0  0  2  0  0  0  0  0  0  0  0  0
   20.8251  -10.4969  -15.1114 N   0  0  0  0  0  0  0  0  0  0  0  0
   21.9044   -8.3419  -14.8520 C   0  0  0  0  0  0  0  0  0  0  0  0
   22.5524   -7.5089  -14.1901 O   0  0  0  0  0  0  0  0  0  0  0  0
   21.3571   -8.0091  -16.1147 N   0  0  0  0  0  0  0  0  0  0  0  0
   21.4536   -6.6841  -16.6450 C   0  0  1  0  0  0  0  0  0  0  0  0
   21.1312   -6.6208  -18.1389 C   0  0  0  0  0  0  0  0  0  0  0  0
   21.3992   -5.2580  -18.6920 C   0  0  0  0  0  0  0  0  0  0  0  0
   20.9946   -5.1238  -20.1238 C   0  0  0  0  0  0  0  0  0  0  0  0
   21.1835   -3.7659  -20.6926 C   0  0  0  0  0  0  0  0  0  0  0  0
   20.9288   -3.5964  -22.0778 N   0  0  0  0  0  0  0  0  0  0  0  0
   20.5067   -5.7776  -15.9390 C   0  0  0  0  0  0  0  0  0  0  0  0
   19.1802   -6.1248  -15.7447 O   0  0  0  0  0  0  0  0  0  0  0  0
   20.8651   -4.6497  -15.4831 O   0  0  0  0  0  0  0  0  0  0  0  0
  2  1  1  1
  2  3  1  0
  3  4  1  0
  5  4  1  0
  5  6  1  0
  6  7  1  0
  8 12  1  0
  8  2  1  0
  9  8  2  0
 11 10  1  6
 11 13  1  0
 11 12  1  0
 13 15  1  0
 14 13  2  0
 15 16  1  0
 16 17  1  6
 16 22  1  0
 18 17  1  0
 19 20  1  0
 19 18  1  0
 21 20  1  0
 22 24  2  0
 22 23  1  0
M  END
$$$$
