KAK.pdb
     RDKit          3D

 24 23  0  0  1  0  0  0  0  0999 V2000
   27.0210  -26.2523  -18.9694 N   0  0  0  0  0  0  0  0  0  0  0  0
   27.3797  -25.9106  -17.6160 C   0  0  1  0  0  0  0  0  0  0  0  0
   28.7506  -26.4814  -17.3466 C   0  0  0  0  0  0  0  0  0  0  0  0
   28.6974  -27.9558  -17.6893 C   0  0  0  0  0  0  0  0  0  0  0  0
   30.0589  -28.6058  -17.5557 C   0  0  0  0  0  0  0  0  0  0  0  0
   29.8746  -30.0760  -17.9504 C   0  0  0  0  0  0  0  0  0  0  0  0
   31.1407  -30.7577  -18.0412 N   0  0  0  0  0  0  0  0  0  0  0  0
   27.3119  -24.4588  -17.4309 C   0  0  0  0  0  0  0  0  0  0  0  0
   27.4984  -23.9975  -16.2779 O   0  0  0  0  0  0  0  0  0  0  0  0
   27.8774  -21.4828  -19.4021 C   0  0  0  0  0  0  0  0  0  0  0  0
   27.0361  -22.0972  -18.3356 C   0  0  2  0  0  0  0  0  0  0  0  0
   27.0476  -23.5391  -18.4781 N   0  0  0  0  0  0  0  0  0  0  0  0
   25.6332  -21.5759  -18.3314 C   0  0  0  0  0  0  0  0  0  0  0  0
   24.7800  -22.1682  -19.0193 O   0  0  0  0  0  0  0  0  0  0  0  0
   25.2927  -20.4372  -17.5620 N   0  0  0  0  0  0  0  0  0  0  0  0
   23.9601  -19.9174  -17.5463 C   0  0  1  0  0  0  0  0  0  0  0  0
   23.4016  -19.7659  -16.1304 C   0  0  0  0  0  0  0  0  0  0  0  0
   22.0020  -19.2412  -16.1550 C   0  0  0  0  0  0  0  0  0  0  0  0
   21.3906  -19.1570  -14.7946 C   0  0  0  0  0  0  0  0  0  0  0  0
   20.0097  -18.6132  -14.7724 C   0  0  0  0  0  0  0  0  0  0  0  0
   19.4468  -18.3107  -13.5060 N   0  0  0  0  0  0  0  0  0  0  0  0
   23.9237  -18.5766  -18.1928 C   0  0  0  0  0  0  0  0  0  0  0  0
   22.7262  -17.9557  -18.5061 O   0  0  0  0  0  0  0  0  0  0  0  0
   24.9807  -17.9403  -18.4871 O   0  0  0  0  0  0  0  0  0  0  0  0
  2  1  1  6
  2  3  1  0
  3  4  1  0
  5  4  1  0
  5  6  1  0
  6  7  1  0
  8 12  1  0
  8  2  1  0
  9  8  2  0
 11 10  1  6
 11 13  1  0
 11 12  1  0
 13 15  1  0
 14 13  2  0
 15 16  1  0
 16 17  1  1
 16 22  1  0
 18 17  1  0
 19 20  1  0
 19 18  1  0
 21 20  1  0
 22 24  2  0
 22 23  1  0
M  END
$$$$
