KAK.pdb
     RDKit          3D

 24 23  0  0  1  0  0  0  0  0999 V2000
   28.0486  -21.5339  -15.5600 N   0  0  0  0  0  0  0  0  0  0  0  0
   26.8660  -21.4153  -16.3751 C   0  0  1  0  0  0  0  0  0  0  0  0
   26.9678  -22.4354  -17.4827 C   0  0  0  0  0  0  0  0  0  0  0  0
   27.9944  -23.4626  -17.0528 C   0  0  0  0  0  0  0  0  0  0  0  0
   27.3464  -24.6260  -16.3310 C   0  0  0  0  0  0  0  0  0  0  0  0
   27.7814  -25.8923  -17.0783 C   0  0  0  0  0  0  0  0  0  0  0  0
   27.2686  -27.0792  -16.4423 N   0  0  0  0  0  0  0  0  0  0  0  0
   25.6683  -21.5790  -15.5472 C   0  0  0  0  0  0  0  0  0  0  0  0
   24.6105  -21.9661  -16.1027 O   0  0  0  0  0  0  0  0  0  0  0  0
   24.8872  -21.4942  -11.8736 C   0  0  0  0  0  0  0  0  0  0  0  0
   24.4692  -21.5102  -13.3046 C   0  0  2  0  0  0  0  0  0  0  0  0
   25.6302  -21.3263  -14.1519 N   0  0  0  0  0  0  0  0  0  0  0  0
   23.4200  -20.4887  -13.6137 C   0  0  0  0  0  0  0  0  0  0  0  0
   23.7220  -19.2837  -13.5203 O   0  0  0  0  0  0  0  0  0  0  0  0
   22.1190  -20.8904  -14.0018 N   0  0  0  0  0  0  0  0  0  0  0  0
   21.0719  -19.9371  -14.2042 C   0  0  1  0  0  0  0  0  0  0  0  0
   20.7448  -19.7240  -15.6831 C   0  0  0  0  0  0  0  0  0  0  0  0
   19.7061  -18.6633  -15.8592 C   0  0  0  0  0  0  0  0  0  0  0  0
   19.3186  -18.4631  -17.2880 C   0  0  0  0  0  0  0  0  0  0  0  0
   18.3260  -17.3824  -17.5114 C   0  0  0  0  0  0  0  0  0  0  0  0
   17.9828  -17.0777  -18.8537 N   0  0  0  0  0  0  0  0  0  0  0  0
   19.8263  -20.3901  -13.5260 C   0  0  0  0  0  0  0  0  0  0  0  0
   18.8836  -19.4869  -13.0639 O   0  0  0  0  0  0  0  0  0  0  0  0
   19.5678  -21.6176  -13.3387 O   0  0  0  0  0  0  0  0  0  0  0  0
  2  1  1  1
  2  3  1  0
  3  4  1  0
  5  4  1  0
  5  6  1  0
  6  7  1  0
  8 12  1  0
  8  2  1  0
  9  8  2  0
 11 10  1  1
 11 13  1  0
 11 12  1  0
 13 15  1  0
 14 13  2  0
 15 16  1  0
 16 17  1  6
 16 22  1  0
 18 17  1  0
 19 20  1  0
 19 18  1  0
 21 20  1  0
 22 24  2  0
 22 23  1  0
M  END
$$$$
