KAK.pdb
     RDKit          3D

 24 23  0  0  1  0  0  0  0  0999 V2000
   19.3040   -9.1786    8.7061 N   0  0  0  0  0  0  0  0  0  0  0  0
   20.0457  -10.1775    7.9786 C   0  0  1  0  0  0  0  0  0  0  0  0
   21.0533  -10.7816    8.9261 C   0  0  0  0  0  0  0  0  0  0  0  0
   22.1235   -9.7373    9.1675 C   0  0  0  0  0  0  0  0  0  0  0  0
   23.3477   -9.9897    8.3121 C   0  0  0  0  0  0  0  0  0  0  0  0
   24.3591   -8.8956    8.6744 C   0  0  0  0  0  0  0  0  0  0  0  0
   25.6266   -9.1169    8.0260 N   0  0  0  0  0  0  0  0  0  0  0  0
   19.1275  -11.1650    7.4055 C   0  0  0  0  0  0  0  0  0  0  0  0
   18.2110  -11.6177    8.1350 O   0  0  0  0  0  0  0  0  0  0  0  0
   18.5677  -12.7074    4.0172 C   0  0  0  0  0  0  0  0  0  0  0  0
   18.3295  -12.6328    5.4871 C   0  0  2  0  0  0  0  0  0  0  0  0
   19.2106  -11.6425    6.0723 N   0  0  0  0  0  0  0  0  0  0  0  0
   18.4915  -13.9554    6.1685 C   0  0  0  0  0  0  0  0  0  0  0  0
   19.5975  -14.2300    6.6719 O   0  0  0  0  0  0  0  0  0  0  0  0
   17.4096  -14.8662    6.2349 N   0  0  0  0  0  0  0  0  0  0  0  0
   17.5370  -16.1313    6.8903 C   0  0  1  0  0  0  0  0  0  0  0  0
   16.2148  -16.8974    6.9581 C   0  0  0  0  0  0  0  0  0  0  0  0
   16.3626  -18.1615    7.7423 C   0  0  0  0  0  0  0  0  0  0  0  0
   15.0837  -18.9248    7.8577 C   0  0  0  0  0  0  0  0  0  0  0  0
   15.1908  -20.1948    8.6184 C   0  0  0  0  0  0  0  0  0  0  0  0
   14.0024  -20.9465    8.8058 N   0  0  0  0  0  0  0  0  0  0  0  0
   18.5193  -16.9870    6.1694 C   0  0  0  0  0  0  0  0  0  0  0  0
   18.6565  -16.9300    4.7925 O   0  0  0  0  0  0  0  0  0  0  0  0
   19.2746  -17.8055    6.7761 O   0  0  0  0  0  0  0  0  0  0  0  0
  2  1  1  1
  2  3  1  0
  3  4  1  0
  5  4  1  0
  5  6  1  0
  6  7  1  0
  8 12  1  0
  8  2  1  0
  9  8  2  0
 11 10  1  6
 11 13  1  0
 11 12  1  0
 13 15  1  0
 14 13  2  0
 15 16  1  0
 16 17  1  6
 16 22  1  0
 18 17  1  0
 19 20  1  0
 19 18  1  0
 21 20  1  0
 22 24  2  0
 22 23  1  0
M  END
$$$$
