PIQ.pdb
     RDKit          3D

 25 25  0  0  1  0  0  0  0  0999 V2000
    6.8617  -14.6779   20.9091 N   0  0  0  0  0  0  0  0  0  0  0  0
    6.7096  -14.3340   19.4828 C   0  0  0  0  0  0  0  0  0  0  0  0
    7.2604  -12.9215   19.4728 C   0  0  0  0  0  0  0  0  0  0  0  0
    8.3741  -12.9327   20.5001 C   0  0  0  0  0  0  0  0  0  0  0  0
    8.2737  -14.3142   21.0813 C   0  0  1  0  0  0  0  0  0  0  0  0
    8.5749  -14.2873   22.5144 C   0  0  0  0  0  0  0  0  0  0  0  0
    9.8049  -14.2349   22.8661 O   0  0  0  0  0  0  0  0  0  0  0  0
    5.7627  -11.3929   26.1963 C   0  0  0  0  0  0  0  0  0  0  0  0
    6.8928  -12.0615   25.4889 C   0  0  0  0  0  0  0  0  0  0  0  0
    7.1471  -13.4797   25.8163 C   0  0  2  0  0  0  0  0  0  0  0  0
    7.8419  -13.4918   27.1933 C   0  0  0  0  0  0  0  0  0  0  0  0
    7.9888  -14.2904   24.9175 C   0  0  2  0  0  0  0  0  0  0  0  0
    7.5782  -14.3165   23.5411 N   0  0  0  0  0  0  0  0  0  0  0  0
    8.1422  -15.7101   25.3556 C   0  0  0  0  0  0  0  0  0  0  0  0
    7.1754  -16.5134   25.3848 O   0  0  0  0  0  0  0  0  0  0  0  0
   11.7592  -19.8068   22.9599 N   0  0  0  0  0  0  0  0  0  0  0  0
   12.3060  -18.6038   23.5522 C   0  0  0  0  0  0  0  0  0  0  0  0
   13.3915  -18.2345   23.0982 O   0  0  0  0  0  0  0  0  0  0  0  0
   11.5849  -17.9338   24.5968 C   0  0  0  0  0  0  0  0  0  0  0  0
   10.2378  -18.3375   25.0003 C   0  0  0  0  0  0  0  0  0  0  0  0
    9.5769  -17.6545   26.1473 C   0  0  2  0  0  0  0  0  0  0  0  0
    9.3967  -16.2227   25.7627 N   0  0  0  0  0  0  0  0  0  0  0  0
   10.3013  -17.7077   27.4314 C   0  0  0  0  0  0  0  0  0  0  0  0
   10.8048  -16.6042   28.0867 O   0  0  0  0  0  0  0  0  0  0  0  0
   10.4675  -18.8463   27.9602 O   0  0  0  0  0  0  0  0  0  0  0  0
  1  5  1  0
  2  1  1  0
  2  3  1  0
  3  4  1  0
  4  5  1  0
  5  6  1  1
  6  7  2  0
  9 10  1  0
  9  8  1  0
 10 12  1  0
 10 11  1  1
 12 13  1  6
 12 14  1  0
 13  6  1  0
 14 15  2  0
 14 22  1  0
 16 17  1  0
 17 19  1  0
 18 17  2  0
 19 20  1  0
 21 20  1  6
 21 23  1  0
 22 21  1  0
 23 25  2  0
 23 24  1  0
M  END
$$$$
