PIQ.pdb
     RDKit          3D

 25 25  0  0  1  0  0  0  0  0999 V2000
    6.6794  -16.2487   21.8958 N   0  0  0  0  0  0  0  0  0  0  0  0
    6.2045  -16.4422   20.5128 C   0  0  0  0  0  0  0  0  0  0  0  0
    6.4035  -15.0490   19.9487 C   0  0  0  0  0  0  0  0  0  0  0  0
    7.6519  -14.5291   20.6320 C   0  0  0  0  0  0  0  0  0  0  0  0
    7.9768  -15.6258   21.6057 C   0  0  1  0  0  0  0  0  0  0  0  0
    8.5100  -15.0627   22.8483 C   0  0  0  0  0  0  0  0  0  0  0  0
    9.7173  -14.6366   22.8420 O   0  0  0  0  0  0  0  0  0  0  0  0
    5.4607  -11.7013   25.9259 C   0  0  0  0  0  0  0  0  0  0  0  0
    6.6228  -12.3089   25.2153 C   0  0  0  0  0  0  0  0  0  0  0  0
    7.3489  -13.3896   25.9140 C   0  0  2  0  0  0  0  0  0  0  0  0
    8.1452  -12.7164   27.0505 C   0  0  0  0  0  0  0  0  0  0  0  0
    8.3113  -14.2174   25.1643 C   0  0  2  0  0  0  0  0  0  0  0  0
    7.7630  -14.9618   24.0648 N   0  0  0  0  0  0  0  0  0  0  0  0
    9.0635  -15.1859   26.0171 C   0  0  0  0  0  0  0  0  0  0  0  0
    9.6897  -14.8299   27.0475 O   0  0  0  0  0  0  0  0  0  0  0  0
    7.4116  -21.1699   28.8130 N   0  0  0  0  0  0  0  0  0  0  0  0
    8.2098  -21.0150   27.6147 C   0  0  0  0  0  0  0  0  0  0  0  0
    8.0628  -21.8934   26.7616 O   0  0  0  0  0  0  0  0  0  0  0  0
    9.0963  -19.8932   27.4903 C   0  0  0  0  0  0  0  0  0  0  0  0
    8.7125  -18.6670   26.7902 C   0  0  0  0  0  0  0  0  0  0  0  0
    9.7059  -17.5685   26.6305 C   0  0  2  0  0  0  0  0  0  0  0  0
    9.1067  -16.5646   25.7013 N   0  0  0  0  0  0  0  0  0  0  0  0
   11.0253  -17.9663   26.1038 C   0  0  0  0  0  0  0  0  0  0  0  0
   11.4070  -17.8392   24.7852 O   0  0  0  0  0  0  0  0  0  0  0  0
   11.8568  -18.4563   26.9239 O   0  0  0  0  0  0  0  0  0  0  0  0
  1  5  1  0
  2  1  1  0
  2  3  1  0
  3  4  1  0
  4  5  1  0
  5  6  1  1
  6  7  2  0
  9 10  1  0
  9  8  1  0
 10 12  1  0
 10 11  1  1
 12 13  1  6
 12 14  1  0
 13  6  1  0
 14 15  2  0
 14 22  1  0
 16 17  1  0
 17 19  1  0
 18 17  2  0
 19 20  1  0
 21 20  1  6
 21 23  1  0
 22 21  1  0
 23 25  2  0
 23 24  1  0
M  END
$$$$
