PIQ.pdb
     RDKit          3D

 25 25  0  0  1  0  0  0  0  0999 V2000
    7.7728  -18.3558   17.4314 N   0  0  0  0  0  0  0  0  0  0  0  0
    7.5335  -18.7990   16.0450 C   0  0  0  0  0  0  0  0  0  0  0  0
    7.7523  -17.5013   15.2923 C   0  0  0  0  0  0  0  0  0  0  0  0
    8.8498  -16.7900   16.0573 C   0  0  0  0  0  0  0  0  0  0  0  0
    9.0684  -17.6928   17.2378 C   0  0  1  0  0  0  0  0  0  0  0  0
    9.3697  -16.9035   18.4343 C   0  0  0  0  0  0  0  0  0  0  0  0
   10.5860  -16.5549   18.6301 O   0  0  0  0  0  0  0  0  0  0  0  0
    6.3296  -12.5749   20.0451 C   0  0  0  0  0  0  0  0  0  0  0  0
    7.4905  -13.4703   19.7709 C   0  0  0  0  0  0  0  0  0  0  0  0
    7.7584  -14.5441   20.7498 C   0  0  2  0  0  0  0  0  0  0  0  0
    8.2446  -13.8489   22.0379 C   0  0  0  0  0  0  0  0  0  0  0  0
    8.7582  -15.5801   20.4325 C   0  0  2  0  0  0  0  0  0  0  0  0
    8.3874  -16.5010   19.3941 N   0  0  0  0  0  0  0  0  0  0  0  0
    9.1744  -16.3955   21.6127 C   0  0  0  0  0  0  0  0  0  0  0  0
    8.4210  -17.2553   22.1358 O   0  0  0  0  0  0  0  0  0  0  0  0
   15.3893  -17.4447   22.6540 N   0  0  0  0  0  0  0  0  0  0  0  0
   14.7085  -18.2987   23.6050 C   0  0  0  0  0  0  0  0  0  0  0  0
   15.4256  -19.1037   24.2039 O   0  0  0  0  0  0  0  0  0  0  0  0
   13.2911  -18.1695   23.7900 C   0  0  0  0  0  0  0  0  0  0  0  0
   12.4755  -17.2666   22.9774 C   0  0  0  0  0  0  0  0  0  0  0  0
   10.9994  -17.2290   23.1749 C   0  0  2  0  0  0  0  0  0  0  0  0
   10.4504  -16.2364   22.2034 N   0  0  0  0  0  0  0  0  0  0  0  0
   10.5410  -16.8634   24.5286 C   0  0  0  0  0  0  0  0  0  0  0  0
   10.1283  -15.6002   24.8954 O   0  0  0  0  0  0  0  0  0  0  0  0
   10.5286  -17.7763   25.4063 O   0  0  0  0  0  0  0  0  0  0  0  0
  1  5  1  0
  2  1  1  0
  2  3  1  0
  3  4  1  0
  4  5  1  0
  5  6  1  1
  6  7  2  0
  9 10  1  0
  9  8  1  0
 10 12  1  0
 10 11  1  1
 12 13  1  6
 12 14  1  0
 13  6  1  0
 14 15  2  0
 14 22  1  0
 16 17  1  0
 17 19  1  0
 18 17  2  0
 19 20  1  0
 21 20  1  1
 21 23  1  0
 22 21  1  0
 23 25  2  0
 23 24  1  0
M  END
$$$$
