PIQ.pdb
     RDKit          3D

 25 25  0  0  1  0  0  0  0  0999 V2000
    6.9539  -15.7000   21.5979 N   0  0  0  0  0  0  0  0  0  0  0  0
    6.6045  -15.6628   20.1653 C   0  0  0  0  0  0  0  0  0  0  0  0
    6.9919  -14.2389   19.8174 C   0  0  0  0  0  0  0  0  0  0  0  0
    8.2090  -13.9487   20.6718 C   0  0  0  0  0  0  0  0  0  0  0  0
    8.3276  -15.1893   21.5103 C   0  0  1  0  0  0  0  0  0  0  0  0
    8.7842  -14.8505   22.8601 C   0  0  0  0  0  0  0  0  0  0  0  0
   10.0178  -14.5447   23.0150 O   0  0  0  0  0  0  0  0  0  0  0  0
    6.0397  -11.5304   26.1788 C   0  0  0  0  0  0  0  0  0  0  0  0
    7.0584  -12.3035   25.4111 C   0  0  0  0  0  0  0  0  0  0  0  0
    7.6165  -13.5090   26.0579 C   0  0  2  0  0  0  0  0  0  0  0  0
    8.4737  -13.0126   27.2401 C   0  0  0  0  0  0  0  0  0  0  0  0
    8.4724  -14.4196   25.2758 C   0  0  2  0  0  0  0  0  0  0  0  0
    7.9350  -14.8417   24.0121 N   0  0  0  0  0  0  0  0  0  0  0  0
    8.8712  -15.6541   26.0162 C   0  0  0  0  0  0  0  0  0  0  0  0
    8.0335  -16.5116   26.3950 O   0  0  0  0  0  0  0  0  0  0  0  0
   11.8345  -19.0028   23.2059 N   0  0  0  0  0  0  0  0  0  0  0  0
   12.7043  -18.4870   24.2425 C   0  0  0  0  0  0  0  0  0  0  0  0
   13.7947  -19.0526   24.3507 O   0  0  0  0  0  0  0  0  0  0  0  0
   12.2665  -17.3900   25.0580 C   0  0  0  0  0  0  0  0  0  0  0  0
   11.9886  -17.5399   26.4867 C   0  0  0  0  0  0  0  0  0  0  0  0
   10.6453  -17.1757   27.0177 C   0  0  2  0  0  0  0  0  0  0  0  0
   10.2256  -15.9186   26.3291 N   0  0  0  0  0  0  0  0  0  0  0  0
   10.5666  -16.9609   28.4752 C   0  0  0  0  0  0  0  0  0  0  0  0
   10.5041  -17.9737   29.4084 O   0  0  0  0  0  0  0  0  0  0  0  0
   10.5564  -15.7638   28.8882 O   0  0  0  0  0  0  0  0  0  0  0  0
  1  5  1  0
  2  1  1  0
  2  3  1  0
  3  4  1  0
  4  5  1  0
  5  6  1  1
  6  7  2  0
  9 10  1  0
  9  8  1  0
 10 12  1  0
 10 11  1  1
 12 13  1  6
 12 14  1  0
 13  6  1  0
 14 15  2  0
 14 22  1  0
 16 17  1  0
 17 19  1  0
 18 17  2  0
 19 20  1  0
 21 20  1  1
 21 23  1  0
 22 21  1  0
 23 25  2  0
 23 24  1  0
M  END
$$$$
