PIQ.pdb
     RDKit          3D

 25 25  0  0  1  0  0  0  0  0999 V2000
    6.8315  -16.3410   21.8748 N   0  0  0  0  0  0  0  0  0  0  0  0
    6.2654  -16.4258   20.5153 C   0  0  0  0  0  0  0  0  0  0  0  0
    6.3989  -14.9847   20.0638 C   0  0  0  0  0  0  0  0  0  0  0  0
    7.6818  -14.4953   20.7043 C   0  0  0  0  0  0  0  0  0  0  0  0
    8.0939  -15.6637   21.5536 C   0  0  1  0  0  0  0  0  0  0  0  0
    8.7014  -15.1972   22.8020 C   0  0  0  0  0  0  0  0  0  0  0  0
    9.8894  -14.7228   22.7482 O   0  0  0  0  0  0  0  0  0  0  0  0
    5.7972  -12.1880   26.2768 C   0  0  0  0  0  0  0  0  0  0  0  0
    6.9994  -12.6535   25.5266 C   0  0  0  0  0  0  0  0  0  0  0  0
    7.7146  -13.8294   26.0639 C   0  0  2  0  0  0  0  0  0  0  0  0
    8.5442  -13.3253   27.2626 C   0  0  0  0  0  0  0  0  0  0  0  0
    8.6465  -14.5698   25.1940 C   0  0  2  0  0  0  0  0  0  0  0  0
    8.0472  -15.2410   24.0741 N   0  0  0  0  0  0  0  0  0  0  0  0
    9.4720  -15.5810   25.9199 C   0  0  0  0  0  0  0  0  0  0  0  0
   10.2841  -15.2619   26.8252 O   0  0  0  0  0  0  0  0  0  0  0  0
   11.9502  -20.8520   25.0752 N   0  0  0  0  0  0  0  0  0  0  0  0
   13.0138  -19.9205   25.3884 C   0  0  0  0  0  0  0  0  0  0  0  0
   14.1429  -20.2640   25.0306 O   0  0  0  0  0  0  0  0  0  0  0  0
   12.7093  -18.6969   26.0740 C   0  0  0  0  0  0  0  0  0  0  0  0
   11.6201  -17.8151   25.6534 C   0  0  0  0  0  0  0  0  0  0  0  0
   10.2695  -17.9711   26.2621 C   0  0  2  0  0  0  0  0  0  0  0  0
    9.3774  -16.9605   25.6192 N   0  0  0  0  0  0  0  0  0  0  0  0
   10.1994  -17.7955   27.7252 C   0  0  0  0  0  0  0  0  0  0  0  0
   10.7491  -16.7316   28.4081 O   0  0  0  0  0  0  0  0  0  0  0  0
    9.5922  -18.6856   28.3907 O   0  0  0  0  0  0  0  0  0  0  0  0
  1  5  1  0
  2  1  1  0
  2  3  1  0
  3  4  1  0
  4  5  1  0
  5  6  1  1
  6  7  2  0
  9 10  1  0
  9  8  1  0
 10 12  1  0
 10 11  1  1
 12 13  1  6
 12 14  1  0
 13  6  1  0
 14 15  2  0
 14 22  1  0
 16 17  1  0
 17 19  1  0
 18 17  2  0
 19 20  1  0
 21 20  1  6
 21 23  1  0
 22 21  1  0
 23 25  2  0
 23 24  1  0
M  END
$$$$
