PIQ.pdb
     RDKit          3D

 25 25  0  0  1  0  0  0  0  0999 V2000
    8.6204  -14.8446   20.3234 N   0  0  0  0  0  0  0  0  0  0  0  0
    7.9383  -15.2147   19.0690 C   0  0  0  0  0  0  0  0  0  0  0  0
    7.1425  -16.4215   19.5261 C   0  0  0  0  0  0  0  0  0  0  0  0
    6.7470  -16.1064   20.9543 C   0  0  0  0  0  0  0  0  0  0  0  0
    7.4538  -14.8067   21.2140 C   0  0  1  0  0  0  0  0  0  0  0  0
    7.9280  -14.7520   22.5987 C   0  0  0  0  0  0  0  0  0  0  0  0
    9.1223  -15.1468   22.8378 O   0  0  0  0  0  0  0  0  0  0  0  0
    6.0672  -11.1364   26.6049 C   0  0  0  0  0  0  0  0  0  0  0  0
    6.9629  -11.9428   25.7263 C   0  0  0  0  0  0  0  0  0  0  0  0
    7.0348  -13.3949   25.9897 C   0  0  2  0  0  0  0  0  0  0  0  0
    7.7946  -13.5597   27.3218 C   0  0  0  0  0  0  0  0  0  0  0  0
    7.7056  -14.2750   25.0155 C   0  0  2  0  0  0  0  0  0  0  0  0
    7.1371  -14.2852   23.6963 N   0  0  0  0  0  0  0  0  0  0  0  0
    7.8060  -15.6975   25.4599 C   0  0  0  0  0  0  0  0  0  0  0  0
    6.8017  -16.4495   25.5410 O   0  0  0  0  0  0  0  0  0  0  0  0
   12.0382  -20.0709   23.5357 N   0  0  0  0  0  0  0  0  0  0  0  0
   12.0921  -18.8626   24.3321 C   0  0  0  0  0  0  0  0  0  0  0  0
   13.1701  -18.6410   24.8884 O   0  0  0  0  0  0  0  0  0  0  0  0
   10.9326  -18.0224   24.4298 C   0  0  0  0  0  0  0  0  0  0  0  0
    9.7002  -18.4632   25.0837 C   0  0  0  0  0  0  0  0  0  0  0  0
    9.1676  -17.6966   26.2446 C   0  0  2  0  0  0  0  0  0  0  0  0
    9.0500  -16.2712   25.8143 N   0  0  0  0  0  0  0  0  0  0  0  0
    9.9780  -17.7493   27.4763 C   0  0  0  0  0  0  0  0  0  0  0  0
   10.2138  -18.8965   28.2036 O   0  0  0  0  0  0  0  0  0  0  0  0
   10.4873  -16.6646   27.8859 O   0  0  0  0  0  0  0  0  0  0  0  0
  1  5  1  0
  2  1  1  0
  2  3  1  0
  3  4  1  0
  4  5  1  0
  5  6  1  1
  6  7  2  0
  9 10  1  0
  9  8  1  0
 10 12  1  0
 10 11  1  1
 12 13  1  6
 12 14  1  0
 13  6  1  0
 14 15  2  0
 14 22  1  0
 16 17  1  0
 17 19  1  0
 18 17  2  0
 19 20  1  0
 21 20  1  6
 21 23  1  0
 22 21  1  0
 23 25  2  0
 23 24  1  0
M  END
$$$$
