PIQ.pdb
     RDKit          3D

 25 25  0  0  1  0  0  0  0  0999 V2000
    8.2826  -14.8063   20.0751 N   0  0  0  0  0  0  0  0  0  0  0  0
    7.5328  -15.2843   18.8982 C   0  0  0  0  0  0  0  0  0  0  0  0
    6.9409  -16.5691   19.4436 C   0  0  0  0  0  0  0  0  0  0  0  0
    6.6503  -16.2738   20.9009 C   0  0  0  0  0  0  0  0  0  0  0  0
    7.2124  -14.8920   21.0767 C   0  0  1  0  0  0  0  0  0  0  0  0
    7.8088  -14.7496   22.4068 C   0  0  0  0  0  0  0  0  0  0  0  0
    9.0512  -15.0295   22.5383 O   0  0  0  0  0  0  0  0  0  0  0  0
    5.7265  -11.2387   26.2755 C   0  0  0  0  0  0  0  0  0  0  0  0
    6.7558  -11.9153   25.4344 C   0  0  0  0  0  0  0  0  0  0  0  0
    7.1256  -13.2971   25.8047 C   0  0  2  0  0  0  0  0  0  0  0  0
    8.0975  -13.1841   26.9970 C   0  0  0  0  0  0  0  0  0  0  0  0
    7.7857  -14.1612   24.8092 C   0  0  2  0  0  0  0  0  0  0  0  0
    7.0862  -14.3178   23.5643 N   0  0  0  0  0  0  0  0  0  0  0  0
    8.0937  -15.5329   25.3139 C   0  0  0  0  0  0  0  0  0  0  0  0
    7.1957  -16.3814   25.5471 O   0  0  0  0  0  0  0  0  0  0  0  0
   12.5603  -19.3162   23.0525 N   0  0  0  0  0  0  0  0  0  0  0  0
   12.0935  -17.9458   23.0172 C   0  0  0  0  0  0  0  0  0  0  0  0
   12.7220  -17.1898   22.2729 O   0  0  0  0  0  0  0  0  0  0  0  0
   10.9702  -17.5558   23.8211 C   0  0  0  0  0  0  0  0  0  0  0  0
   10.9158  -17.8044   25.2619 C   0  0  0  0  0  0  0  0  0  0  0  0
    9.7488  -17.3177   26.0496 C   0  0  2  0  0  0  0  0  0  0  0  0
    9.4254  -15.9459   25.5555 N   0  0  0  0  0  0  0  0  0  0  0  0
    9.9398  -17.2570   27.5112 C   0  0  0  0  0  0  0  0  0  0  0  0
    9.9794  -16.0890   28.2425 O   0  0  0  0  0  0  0  0  0  0  0  0
   10.0758  -18.3549   28.1274 O   0  0  0  0  0  0  0  0  0  0  0  0
  1  5  1  0
  2  1  1  0
  2  3  1  0
  3  4  1  0
  4  5  1  0
  5  6  1  1
  6  7  2  0
  9 10  1  0
  9  8  1  0
 10 12  1  0
 10 11  1  1
 12 13  1  6
 12 14  1  0
 13  6  1  0
 14 15  2  0
 14 22  1  0
 16 17  1  0
 17 19  1  0
 18 17  2  0
 19 20  1  0
 21 20  1  6
 21 23  1  0
 22 21  1  0
 23 25  2  0
 23 24  1  0
M  END
$$$$
