PIQ.pdb
     RDKit          3D

 25 25  0  0  1  0  0  0  0  0999 V2000
    6.7652  -14.4833   20.7475 N   0  0  0  0  0  0  0  0  0  0  0  0
    6.5875  -14.0561   19.3469 C   0  0  0  0  0  0  0  0  0  0  0  0
    7.2680  -12.7016   19.3767 C   0  0  0  0  0  0  0  0  0  0  0  0
    8.4170  -12.8666   20.3504 C   0  0  0  0  0  0  0  0  0  0  0  0
    8.2110  -14.2602   20.8717 C   0  0  1  0  0  0  0  0  0  0  0  0
    8.5721  -14.3328   22.2893 C   0  0  0  0  0  0  0  0  0  0  0  0
    9.8164  -14.3755   22.5880 O   0  0  0  0  0  0  0  0  0  0  0  0
    5.8356  -11.4382   26.1237 C   0  0  0  0  0  0  0  0  0  0  0  0
    6.8840  -12.0990   25.2936 C   0  0  0  0  0  0  0  0  0  0  0  0
    7.2262  -13.4967   25.6290 C   0  0  2  0  0  0  0  0  0  0  0  0
    7.9634  -13.4526   26.9831 C   0  0  0  0  0  0  0  0  0  0  0  0
    8.0827  -14.2721   24.7131 C   0  0  2  0  0  0  0  0  0  0  0  0
    7.6187  -14.3591   23.3563 N   0  0  0  0  0  0  0  0  0  0  0  0
    8.3487  -15.6673   25.1753 C   0  0  0  0  0  0  0  0  0  0  0  0
    7.4390  -16.5303   25.2680 O   0  0  0  0  0  0  0  0  0  0  0  0
   12.4984  -20.7140   23.3153 N   0  0  0  0  0  0  0  0  0  0  0  0
   12.7286  -19.7652   24.3848 C   0  0  0  0  0  0  0  0  0  0  0  0
   13.9019  -19.4220   24.5467 O   0  0  0  0  0  0  0  0  0  0  0  0
   11.6225  -19.2958   25.1699 C   0  0  0  0  0  0  0  0  0  0  0  0
   11.0407  -17.9661   24.9849 C   0  0  0  0  0  0  0  0  0  0  0  0
    9.9525  -17.5058   25.8920 C   0  0  2  0  0  0  0  0  0  0  0  0
    9.6514  -16.0874   25.5341 N   0  0  0  0  0  0  0  0  0  0  0  0
   10.2477  -17.5727   27.3359 C   0  0  0  0  0  0  0  0  0  0  0  0
   10.1907  -18.7262   28.0888 O   0  0  0  0  0  0  0  0  0  0  0  0
   10.5742  -16.4947   27.9147 O   0  0  0  0  0  0  0  0  0  0  0  0
  1  5  1  0
  2  1  1  0
  2  3  1  0
  3  4  1  0
  4  5  1  0
  5  6  1  1
  6  7  2  0
  9 10  1  0
  9  8  1  0
 10 12  1  0
 10 11  1  1
 12 13  1  6
 12 14  1  0
 13  6  1  0
 14 15  2  0
 14 22  1  0
 16 17  1  0
 17 19  1  0
 18 17  2  0
 19 20  1  0
 21 20  1  6
 21 23  1  0
 22 21  1  0
 23 25  2  0
 23 24  1  0
M  END
$$$$
