PIQ.pdb
     RDKit          3D

 25 25  0  0  1  0  0  0  0  0999 V2000
    8.4265  -14.9241   20.1357 N   0  0  0  0  0  0  0  0  0  0  0  0
    7.6802  -15.3368   18.9322 C   0  0  0  0  0  0  0  0  0  0  0  0
    6.9228  -16.5362   19.4674 C   0  0  0  0  0  0  0  0  0  0  0  0
    6.6033  -16.1824   20.9056 C   0  0  0  0  0  0  0  0  0  0  0  0
    7.3103  -14.8697   21.0879 C   0  0  1  0  0  0  0  0  0  0  0  0
    7.8594  -14.7702   22.4421 C   0  0  0  0  0  0  0  0  0  0  0  0
    9.1023  -15.0317   22.6041 O   0  0  0  0  0  0  0  0  0  0  0  0
    5.6849  -11.3597   26.4503 C   0  0  0  0  0  0  0  0  0  0  0  0
    6.7071  -12.0123   25.5820 C   0  0  0  0  0  0  0  0  0  0  0  0
    7.0138  -13.4319   25.8537 C   0  0  2  0  0  0  0  0  0  0  0  0
    7.8620  -13.4562   27.1417 C   0  0  0  0  0  0  0  0  0  0  0  0
    7.7562  -14.2170   24.8507 C   0  0  2  0  0  0  0  0  0  0  0  0
    7.0905  -14.3995   23.5908 N   0  0  0  0  0  0  0  0  0  0  0  0
    8.1654  -15.5712   25.3299 C   0  0  0  0  0  0  0  0  0  0  0  0
    7.3382  -16.5023   25.5021 O   0  0  0  0  0  0  0  0  0  0  0  0
   11.8268  -19.2770   22.7806 N   0  0  0  0  0  0  0  0  0  0  0  0
   12.2306  -19.6451   24.1217 C   0  0  0  0  0  0  0  0  0  0  0  0
   12.8636  -20.6993   24.2150 O   0  0  0  0  0  0  0  0  0  0  0  0
   11.8835  -18.7980   25.2271 C   0  0  0  0  0  0  0  0  0  0  0  0
   11.1404  -17.5498   25.0526 C   0  0  0  0  0  0  0  0  0  0  0  0
    9.9683  -17.2624   25.9259 C   0  0  2  0  0  0  0  0  0  0  0  0
    9.5181  -15.8726   25.6154 N   0  0  0  0  0  0  0  0  0  0  0  0
   10.2081  -17.3643   27.3780 C   0  0  0  0  0  0  0  0  0  0  0  0
   10.1793  -18.5444   28.0901 O   0  0  0  0  0  0  0  0  0  0  0  0
   10.4561  -16.2921   28.0046 O   0  0  0  0  0  0  0  0  0  0  0  0
  1  5  1  0
  2  1  1  0
  2  3  1  0
  3  4  1  0
  4  5  1  0
  5  6  1  1
  6  7  2  0
  9 10  1  0
  9  8  1  0
 10 12  1  0
 10 11  1  1
 12 13  1  6
 12 14  1  0
 13  6  1  0
 14 15  2  0
 14 22  1  0
 16 17  1  0
 17 19  1  0
 18 17  2  0
 19 20  1  0
 21 20  1  6
 21 23  1  0
 22 21  1  0
 23 25  2  0
 23 24  1  0
M  END
$$$$
