PIQ.pdb
     RDKit          3D

 25 25  0  0  1  0  0  0  0  0999 V2000
    6.9018  -14.6901   20.7888 N   0  0  0  0  0  0  0  0  0  0  0  0
    6.8717  -14.3359   19.3572 C   0  0  0  0  0  0  0  0  0  0  0  0
    7.3802  -12.9085   19.4091 C   0  0  0  0  0  0  0  0  0  0  0  0
    8.3944  -12.8992   20.5346 C   0  0  0  0  0  0  0  0  0  0  0  0
    8.2809  -14.2888   21.0934 C   0  0  1  0  0  0  0  0  0  0  0  0
    8.4480  -14.2684   22.5483 C   0  0  0  0  0  0  0  0  0  0  0  0
    9.6368  -14.1635   23.0123 O   0  0  0  0  0  0  0  0  0  0  0  0
    5.6285  -11.1836   26.0215 C   0  0  0  0  0  0  0  0  0  0  0  0
    6.6835  -11.9858   25.3373 C   0  0  0  0  0  0  0  0  0  0  0  0
    6.7618  -13.4222   25.6745 C   0  0  2  0  0  0  0  0  0  0  0  0
    7.2569  -13.5016   27.1331 C   0  0  0  0  0  0  0  0  0  0  0  0
    7.6425  -14.3038   24.8867 C   0  0  2  0  0  0  0  0  0  0  0  0
    7.3641  -14.3589   23.4785 N   0  0  0  0  0  0  0  0  0  0  0  0
    7.6805  -15.7128   25.3810 C   0  0  0  0  0  0  0  0  0  0  0  0
    6.6728  -16.4641   25.3499 O   0  0  0  0  0  0  0  0  0  0  0  0
    6.5252  -20.0643   24.0805 N   0  0  0  0  0  0  0  0  0  0  0  0
    7.5985  -20.4543   24.9709 C   0  0  0  0  0  0  0  0  0  0  0  0
    7.2991  -21.2855   25.8312 O   0  0  0  0  0  0  0  0  0  0  0  0
    8.9014  -19.8734   24.8122 C   0  0  0  0  0  0  0  0  0  0  0  0
    9.1291  -18.4303   24.8926 C   0  0  0  0  0  0  0  0  0  0  0  0
    8.9868  -17.7341   26.2018 C   0  0  2  0  0  0  0  0  0  0  0  0
    8.8656  -16.2738   25.9131 N   0  0  0  0  0  0  0  0  0  0  0  0
   10.0914  -17.9329   27.1592 C   0  0  0  0  0  0  0  0  0  0  0  0
   10.1424  -18.9508   28.0876 O   0  0  0  0  0  0  0  0  0  0  0  0
   11.0528  -17.1095   27.1192 O   0  0  0  0  0  0  0  0  0  0  0  0
  1  5  1  0
  2  1  1  0
  2  3  1  0
  3  4  1  0
  4  5  1  0
  5  6  1  1
  6  7  2  0
  9 10  1  0
  9  8  1  0
 10 12  1  0
 10 11  1  1
 12 13  1  6
 12 14  1  0
 13  6  1  0
 14 15  2  0
 14 22  1  0
 16 17  1  0
 17 19  1  0
 18 17  2  0
 19 20  1  0
 21 20  1  6
 21 23  1  0
 22 21  1  0
 23 25  2  0
 23 24  1  0
M  END
$$$$
