PIQ.pdb
     RDKit          3D

 25 25  0  0  1  0  0  0  0  0999 V2000
    6.8605  -15.4816   20.9852 N   0  0  0  0  0  0  0  0  0  0  0  0
    6.6345  -15.2442   19.5470 C   0  0  0  0  0  0  0  0  0  0  0  0
    7.1050  -13.8085   19.4208 C   0  0  0  0  0  0  0  0  0  0  0  0
    8.2564  -13.6907   20.3985 C   0  0  0  0  0  0  0  0  0  0  0  0
    8.2556  -15.0328   21.0732 C   0  0  1  0  0  0  0  0  0  0  0  0
    8.6101  -14.8925   22.4874 C   0  0  0  0  0  0  0  0  0  0  0  0
    9.8498  -14.7736   22.7843 O   0  0  0  0  0  0  0  0  0  0  0  0
    5.6085  -11.7540   25.8380 C   0  0  0  0  0  0  0  0  0  0  0  0
    6.6936  -12.4609   25.0981 C   0  0  0  0  0  0  0  0  0  0  0  0
    7.1896  -13.7264   25.6775 C   0  0  2  0  0  0  0  0  0  0  0  0
    7.9566  -13.3475   26.9610 C   0  0  0  0  0  0  0  0  0  0  0  0
    8.0959  -14.5786   24.8865 C   0  0  2  0  0  0  0  0  0  0  0  0
    7.6549  -14.8811   23.5532 N   0  0  0  0  0  0  0  0  0  0  0  0
    8.4255  -15.8786   25.5441 C   0  0  0  0  0  0  0  0  0  0  0  0
    7.5488  -16.7398   25.8092 O   0  0  0  0  0  0  0  0  0  0  0  0
   11.9022  -18.2035   22.9717 N   0  0  0  0  0  0  0  0  0  0  0  0
   11.5680  -19.3879   23.7349 C   0  0  0  0  0  0  0  0  0  0  0  0
   11.4960  -20.4345   23.0866 O   0  0  0  0  0  0  0  0  0  0  0  0
   11.3444  -19.2838   25.1488 C   0  0  0  0  0  0  0  0  0  0  0  0
   11.3484  -17.9988   25.8487 C   0  0  0  0  0  0  0  0  0  0  0  0
   10.1060  -17.5204   26.5169 C   0  0  2  0  0  0  0  0  0  0  0  0
    9.7548  -16.2048   25.9035 N   0  0  0  0  0  0  0  0  0  0  0  0
   10.1880  -17.3489   27.9799 C   0  0  0  0  0  0  0  0  0  0  0  0
   10.3935  -16.1406   28.6110 O   0  0  0  0  0  0  0  0  0  0  0  0
   10.0600  -18.3852   28.6964 O   0  0  0  0  0  0  0  0  0  0  0  0
  1  5  1  0
  2  1  1  0
  2  3  1  0
  3  4  1  0
  4  5  1  0
  5  6  1  1
  6  7  2  0
  9 10  1  0
  9  8  1  0
 10 12  1  0
 10 11  1  1
 12 13  1  6
 12 14  1  0
 13  6  1  0
 14 15  2  0
 14 22  1  0
 16 17  1  0
 17 19  1  0
 18 17  2  0
 19 20  1  0
 21 20  1  6
 21 23  1  0
 22 21  1  0
 23 25  2  0
 23 24  1  0
M  END
$$$$
