PIQ.pdb
     RDKit          3D

 25 25  0  0  1  0  0  0  0  0999 V2000
    6.8912  -14.6290   20.9500 N   0  0  0  0  0  0  0  0  0  0  0  0
    6.6053  -14.3971   19.5216 C   0  0  0  0  0  0  0  0  0  0  0  0
    7.1770  -13.0045   19.3419 C   0  0  0  0  0  0  0  0  0  0  0  0
    8.3860  -12.9613   20.2540 C   0  0  0  0  0  0  0  0  0  0  0  0
    8.3194  -14.2885   20.9542 C   0  0  1  0  0  0  0  0  0  0  0  0
    8.7607  -14.1543   22.3443 C   0  0  0  0  0  0  0  0  0  0  0  0
   10.0172  -14.0451   22.5650 O   0  0  0  0  0  0  0  0  0  0  0  0
    5.7473  -12.4235   27.0711 C   0  0  0  0  0  0  0  0  0  0  0  0
    6.3100  -13.2173   25.9406 C   0  0  0  0  0  0  0  0  0  0  0  0
    7.7642  -13.1110   25.7017 C   0  0  2  0  0  0  0  0  0  0  0  0
    8.0074  -11.7087   25.1072 C   0  0  0  0  0  0  0  0  0  0  0  0
    8.4203  -14.0686   24.7928 C   0  0  2  0  0  0  0  0  0  0  0  0
    7.8727  -14.1384   23.4666 N   0  0  0  0  0  0  0  0  0  0  0  0
    8.4661  -15.4648   25.3216 C   0  0  0  0  0  0  0  0  0  0  0  0
    7.4806  -16.2425   25.2538 O   0  0  0  0  0  0  0  0  0  0  0  0
   12.9939  -18.9285   23.4557 N   0  0  0  0  0  0  0  0  0  0  0  0
   12.4309  -19.7801   24.4827 C   0  0  0  0  0  0  0  0  0  0  0  0
   12.9302  -20.9041   24.5731 O   0  0  0  0  0  0  0  0  0  0  0  0
   11.3621  -19.2905   25.3062 C   0  0  0  0  0  0  0  0  0  0  0  0
   10.9032  -17.9024   25.2482 C   0  0  0  0  0  0  0  0  0  0  0  0
    9.8194  -17.4464   26.1629 C   0  0  2  0  0  0  0  0  0  0  0  0
    9.6338  -15.9828   25.9303 N   0  0  0  0  0  0  0  0  0  0  0  0
   10.0579  -17.6661   27.6021 C   0  0  0  0  0  0  0  0  0  0  0  0
   10.4194  -16.6760   28.4907 O   0  0  0  0  0  0  0  0  0  0  0  0
    9.9191  -18.8453   28.0427 O   0  0  0  0  0  0  0  0  0  0  0  0
  1  5  1  0
  2  1  1  0
  2  3  1  0
  3  4  1  0
  4  5  1  0
  5  6  1  1
  6  7  2  0
  9 10  1  0
  9  8  1  0
 10 12  1  0
 10 11  1  6
 12 13  1  6
 12 14  1  0
 13  6  1  0
 14 15  2  0
 14 22  1  0
 16 17  1  0
 17 19  1  0
 18 17  2  0
 19 20  1  0
 21 20  1  6
 21 23  1  0
 22 21  1  0
 23 25  2  0
 23 24  1  0
M  END
$$$$
