PIQ.pdb
     RDKit          3D

 25 25  0  0  1  0  0  0  0  0999 V2000
    7.0998  -15.0155   20.9947 N   0  0  0  0  0  0  0  0  0  0  0  0
    6.9075  -14.7723   19.5526 C   0  0  0  0  0  0  0  0  0  0  0  0
    7.3935  -13.3405   19.4407 C   0  0  0  0  0  0  0  0  0  0  0  0
    8.5242  -13.2357   20.4438 C   0  0  0  0  0  0  0  0  0  0  0  0
    8.4967  -14.5794   21.1145 C   0  0  1  0  0  0  0  0  0  0  0  0
    8.8212  -14.4461   22.5365 C   0  0  0  0  0  0  0  0  0  0  0  0
   10.0455  -14.2476   22.8544 O   0  0  0  0  0  0  0  0  0  0  0  0
    5.6959  -11.5805   25.9989 C   0  0  0  0  0  0  0  0  0  0  0  0
    6.8644  -12.1847   25.2959 C   0  0  0  0  0  0  0  0  0  0  0  0
    7.3226  -13.5081   25.7666 C   0  0  2  0  0  0  0  0  0  0  0  0
    8.0191  -13.2719   27.1224 C   0  0  0  0  0  0  0  0  0  0  0  0
    8.2677  -14.2826   24.9418 C   0  0  2  0  0  0  0  0  0  0  0  0
    7.8533  -14.5249   23.5878 N   0  0  0  0  0  0  0  0  0  0  0  0
    8.6356  -15.6052   25.5304 C   0  0  0  0  0  0  0  0  0  0  0  0
    7.7910  -16.5183   25.7136 O   0  0  0  0  0  0  0  0  0  0  0  0
   12.3757  -19.5683   23.6286 N   0  0  0  0  0  0  0  0  0  0  0  0
   12.6792  -19.8190   25.0223 C   0  0  0  0  0  0  0  0  0  0  0  0
   13.2171  -20.9024   25.2620 O   0  0  0  0  0  0  0  0  0  0  0  0
   12.3480  -18.8329   26.0112 C   0  0  0  0  0  0  0  0  0  0  0  0
   11.6453  -17.5942   25.6757 C   0  0  0  0  0  0  0  0  0  0  0  0
   10.3758  -17.2545   26.3772 C   0  0  2  0  0  0  0  0  0  0  0  0
    9.9666  -15.8951   25.9134 N   0  0  0  0  0  0  0  0  0  0  0  0
   10.4375  -17.2485   27.8512 C   0  0  0  0  0  0  0  0  0  0  0  0
   10.3448  -18.3765   28.6382 O   0  0  0  0  0  0  0  0  0  0  0  0
   10.5855  -16.1286   28.4238 O   0  0  0  0  0  0  0  0  0  0  0  0
  1  5  1  0
  2  1  1  0
  2  3  1  0
  3  4  1  0
  4  5  1  0
  5  6  1  1
  6  7  2  0
  9 10  1  0
  9  8  1  0
 10 12  1  0
 10 11  1  1
 12 13  1  6
 12 14  1  0
 13  6  1  0
 14 15  2  0
 14 22  1  0
 16 17  1  0
 17 19  1  0
 18 17  2  0
 19 20  1  0
 21 20  1  6
 21 23  1  0
 22 21  1  0
 23 25  2  0
 23 24  1  0
M  END
$$$$
