PIQ.pdb
     RDKit          3D

 25 25  0  0  1  0  0  0  0  0999 V2000
    6.8463  -14.8572   20.7659 N   0  0  0  0  0  0  0  0  0  0  0  0
    6.6324  -14.5706   19.3349 C   0  0  0  0  0  0  0  0  0  0  0  0
    7.0543  -13.1157   19.2724 C   0  0  0  0  0  0  0  0  0  0  0  0
    8.1870  -12.9975   20.2717 C   0  0  0  0  0  0  0  0  0  0  0  0
    8.2235  -14.3646   20.8931 C   0  0  1  0  0  0  0  0  0  0  0  0
    8.5528  -14.2687   22.3171 C   0  0  0  0  0  0  0  0  0  0  0  0
    9.7787  -14.0823   22.6361 O   0  0  0  0  0  0  0  0  0  0  0  0
    5.6462  -11.4639   26.0474 C   0  0  0  0  0  0  0  0  0  0  0  0
    6.7576  -12.0910   25.2752 C   0  0  0  0  0  0  0  0  0  0  0  0
    7.1117  -13.4844   25.6161 C   0  0  2  0  0  0  0  0  0  0  0  0
    7.7906  -13.4359   27.0003 C   0  0  0  0  0  0  0  0  0  0  0  0
    8.0202  -14.2374   24.7324 C   0  0  2  0  0  0  0  0  0  0  0  0
    7.5878  -14.3711   23.3690 N   0  0  0  0  0  0  0  0  0  0  0  0
    8.3393  -15.6101   25.2271 C   0  0  0  0  0  0  0  0  0  0  0  0
    7.4971  -16.5435   25.2119 O   0  0  0  0  0  0  0  0  0  0  0  0
   13.2652  -18.6155   23.3918 N   0  0  0  0  0  0  0  0  0  0  0  0
   12.8828  -19.4198   24.5337 C   0  0  0  0  0  0  0  0  0  0  0  0
   13.5387  -20.4506   24.7007 O   0  0  0  0  0  0  0  0  0  0  0  0
   11.8014  -18.9923   25.3751 C   0  0  0  0  0  0  0  0  0  0  0  0
   11.0997  -17.7259   25.1637 C   0  0  0  0  0  0  0  0  0  0  0  0
   10.0037  -17.3277   26.0907 C   0  0  2  0  0  0  0  0  0  0  0  0
    9.6187  -15.9275   25.7417 N   0  0  0  0  0  0  0  0  0  0  0  0
   10.3271  -17.3806   27.5291 C   0  0  0  0  0  0  0  0  0  0  0  0
   10.3554  -18.5377   28.2780 O   0  0  0  0  0  0  0  0  0  0  0  0
   10.5955  -16.2860   28.1069 O   0  0  0  0  0  0  0  0  0  0  0  0
  1  5  1  0
  2  1  1  0
  2  3  1  0
  3  4  1  0
  4  5  1  0
  5  6  1  1
  6  7  2  0
  9 10  1  0
  9  8  1  0
 10 12  1  0
 10 11  1  1
 12 13  1  6
 12 14  1  0
 13  6  1  0
 14 15  2  0
 14 22  1  0
 16 17  1  0
 17 19  1  0
 18 17  2  0
 19 20  1  0
 21 20  1  6
 21 23  1  0
 22 21  1  0
 23 25  2  0
 23 24  1  0
M  END
$$$$
