LMW.pdb
     RDKit          3D

 31 32  0  0  1  0  0  0  0  0999 V2000
   21.6497  -17.4743  -17.3497 C   0  0  0  0  0  0  0  0  0  0  0  0
   23.1604  -17.2536  -17.4008 C   0  0  2  0  0  0  0  0  0  0  0  0
   23.4765  -16.6041  -18.7159 C   0  0  0  0  0  0  0  0  0  0  0  0
   23.8417  -18.5721  -17.2280 C   0  0  0  0  0  0  0  0  0  0  0  0
   23.5980  -19.2419  -15.9018 C   0  0  2  0  0  0  0  0  0  0  0  0
   23.2308  -18.2453  -14.8902 N   0  0  0  0  0  0  0  0  0  0  0  0
   24.7746  -19.9818  -15.3873 C   0  0  0  0  0  0  0  0  0  0  0  0
   25.4906  -20.6004  -16.2106 O   0  0  0  0  0  0  0  0  0  0  0  0
   29.3433  -22.9920  -14.7629 C   0  0  0  0  0  0  0  0  0  0  0  0
   29.6431  -21.2393  -15.0181 S   0  0  0  0  0  0  0  0  0  0  0  0
   28.8755  -20.2956  -13.6741 C   0  0  0  0  0  0  0  0  0  0  0  0
   27.5382  -19.7314  -14.1048 C   0  0  0  0  0  0  0  0  0  0  0  0
   26.3861  -20.5360  -13.5393 C   0  0  2  0  0  0  0  0  0  0  0  0
   25.1074  -20.0048  -13.9865 N   0  0  0  0  0  0  0  0  0  0  0  0
   26.4773  -20.4292  -12.0636 C   0  0  0  0  0  0  0  0  0  0  0  0
   26.7274  -19.3192  -11.5597 O   0  0  0  0  0  0  0  0  0  0  0  0
   26.2845  -21.5581  -11.2451 N   0  0  0  0  0  0  0  0  0  0  0  0
   25.8414  -21.4229   -9.8491 C   0  0  1  0  0  0  0  0  0  0  0  0
   26.9698  -20.8149   -9.1109 C   0  0  0  0  0  0  0  0  0  0  0  0
   26.7892  -20.5797   -7.6791 C   0  0  0  0  0  0  0  0  0  0  0  0
   25.6212  -20.7739   -6.9412 C   0  0  0  0  0  0  0  0  0  0  0  0
   25.8707  -20.4052   -5.6801 N   0  0  0  0  0  0  0  0  0  0  0  0
   27.1394  -19.9803   -5.5503 C   0  0  0  0  0  0  0  0  0  0  0  0
   27.8454  -19.5255   -4.4556 C   0  0  0  0  0  0  0  0  0  0  0  0
   29.1762  -19.1763   -4.6526 C   0  0  0  0  0  0  0  0  0  0  0  0
   29.7779  -19.2737   -5.8786 C   0  0  0  0  0  0  0  0  0  0  0  0
   29.0590  -19.7280   -6.9578 C   0  0  0  0  0  0  0  0  0  0  0  0
   27.7250  -20.0868   -6.8030 C   0  0  0  0  0  0  0  0  0  0  0  0
   24.5963  -20.6893   -9.7261 C   0  0  0  0  0  0  0  0  0  0  0  0
   24.2442  -19.7286  -10.4640 O   0  0  0  0  0  0  0  0  0  0  0  0
   23.6824  -21.0474   -8.7271 O   0  0  0  0  0  0  0  0  0  0  0  0
  2  1  1  6
  2  3  1  0
  4  2  1  0
  5  4  1  0
  5  6  1  1
  7  5  1  0
  7  8  2  0
  9 10  1  0
 10 11  1  0
 11 12  1  0
 13 12  1  6
 13 14  1  0
 14  7  1  0
 15 13  1  0
 16 15  2  0
 17 15  1  0
 18 17  1  0
 18 19  1  1
 19 20  1  0
 20 28  1  0
 20 21  2  0
 21 22  1  0
 23 24  2  0
 23 22  1  0
 25 24  1  0
 26 25  2  0
 27 26  1  0
 27 28  2  0
 28 23  1  0
 29 18  1  0
 30 29  2  0
 31 29  1  0
M  END
$$$$
