LMW.pdb
     RDKit          3D

 31 32  0  0  1  0  0  0  0  0999 V2000
   23.4117  -18.7572  -21.1774 C   0  0  0  0  0  0  0  0  0  0  0  0
   24.7672  -18.4464  -20.5451 C   0  0  2  0  0  0  0  0  0  0  0  0
   25.7251  -19.5138  -20.9860 C   0  0  0  0  0  0  0  0  0  0  0  0
   24.6013  -18.3948  -19.0611 C   0  0  0  0  0  0  0  0  0  0  0  0
   23.5653  -17.4173  -18.5732 C   0  0  2  0  0  0  0  0  0  0  0  0
   24.0482  -16.0421  -18.7381 N   0  0  0  0  0  0  0  0  0  0  0  0
   23.2113  -17.5936  -17.1449 C   0  0  0  0  0  0  0  0  0  0  0  0
   24.0745  -17.3058  -16.2818 O   0  0  0  0  0  0  0  0  0  0  0  0
   17.0629  -18.3096  -14.0827 C   0  0  0  0  0  0  0  0  0  0  0  0
   18.2500  -17.3516  -13.1339 S   0  0  0  0  0  0  0  0  0  0  0  0
   19.9270  -17.9270  -13.5121 C   0  0  0  0  0  0  0  0  0  0  0  0
   20.2271  -17.7846  -14.9892 C   0  0  0  0  0  0  0  0  0  0  0  0
   21.6188  -18.2796  -15.3250 C   0  0  2  0  0  0  0  0  0  0  0  0
   21.9195  -18.0797  -16.7345 N   0  0  0  0  0  0  0  0  0  0  0  0
   21.6403  -19.7292  -15.0154 C   0  0  0  0  0  0  0  0  0  0  0  0
   21.1831  -20.5258  -15.8550 O   0  0  0  0  0  0  0  0  0  0  0  0
   22.1673  -20.1993  -13.7977 N   0  0  0  0  0  0  0  0  0  0  0  0
   22.1732  -21.6333  -13.4707 C   0  0  1  0  0  0  0  0  0  0  0  0
   23.5087  -21.9264  -12.9062 C   0  0  0  0  0  0  0  0  0  0  0  0
   24.6415  -21.9438  -13.8304 C   0  0  0  0  0  0  0  0  0  0  0  0
   25.4273  -20.8551  -14.2097 C   0  0  0  0  0  0  0  0  0  0  0  0
   26.3279  -21.2927  -15.0964 N   0  0  0  0  0  0  0  0  0  0  0  0
   26.1760  -22.6097  -15.3189 C   0  0  0  0  0  0  0  0  0  0  0  0
   26.8701  -23.4882  -16.1252 C   0  0  0  0  0  0  0  0  0  0  0  0
   26.4698  -24.8192  -16.1145 C   0  0  0  0  0  0  0  0  0  0  0  0
   25.4292  -25.2574  -15.3401 C   0  0  0  0  0  0  0  0  0  0  0  0
   24.7488  -24.3680  -14.5439 C   0  0  0  0  0  0  0  0  0  0  0  0
   25.1174  -23.0279  -14.5264 C   0  0  0  0  0  0  0  0  0  0  0  0
   21.0736  -22.0141  -12.6050 C   0  0  0  0  0  0  0  0  0  0  0  0
   20.3862  -21.2156  -11.9113 O   0  0  0  0  0  0  0  0  0  0  0  0
   20.7096  -23.3630  -12.5078 O   0  0  0  0  0  0  0  0  0  0  0  0
  2  1  1  6
  2  3  1  0
  4  2  1  0
  5  4  1  0
  5  6  1  1
  7  5  1  0
  7  8  2  0
  9 10  1  0
 10 11  1  0
 11 12  1  0
 13 12  1  6
 13 14  1  0
 14  7  1  0
 15 13  1  0
 16 15  2  0
 17 15  1  0
 18 17  1  0
 18 19  1  1
 19 20  1  0
 20 28  1  0
 20 21  2  0
 21 22  1  0
 23 24  2  0
 23 22  1  0
 25 24  1  0
 26 25  2  0
 27 26  1  0
 27 28  2  0
 28 23  1  0
 29 18  1  0
 30 29  2  0
 31 29  1  0
M  END
$$$$
