LMW.pdb
     RDKit          3D

 31 32  0  0  1  0  0  0  0  0999 V2000
   18.9058  -29.1526   -0.9456 C   0  0  0  0  0  0  0  0  0  0  0  0
   18.8894  -27.6253   -0.9168 C   0  0  2  0  0  0  0  0  0  0  0  0
   20.3117  -27.1577   -1.0151 C   0  0  0  0  0  0  0  0  0  0  0  0
   18.2190  -27.1786    0.3416 C   0  0  0  0  0  0  0  0  0  0  0  0
   16.7833  -27.6098    0.4818 C   0  0  2  0  0  0  0  0  0  0  0  0
   15.9778  -27.0538   -0.6106 N   0  0  0  0  0  0  0  0  0  0  0  0
   16.1580  -27.1807    1.7552 C   0  0  0  0  0  0  0  0  0  0  0  0
   15.3936  -26.1867    1.7332 O   0  0  0  0  0  0  0  0  0  0  0  0
   12.7965  -29.3410    8.4413 C   0  0  0  0  0  0  0  0  0  0  0  0
   13.6633  -29.8239    6.9437 S   0  0  0  0  0  0  0  0  0  0  0  0
   14.3306  -28.3468    6.1320 C   0  0  0  0  0  0  0  0  0  0  0  0
   15.1729  -28.7234    4.9316 C   0  0  0  0  0  0  0  0  0  0  0  0
   15.6845  -27.4976    4.2035 C   0  0  2  0  0  0  0  0  0  0  0  0
   16.4053  -27.8693    2.9954 N   0  0  0  0  0  0  0  0  0  0  0  0
   16.6053  -26.8035    5.1351 C   0  0  0  0  0  0  0  0  0  0  0  0
   17.6381  -27.3923    5.5029 O   0  0  0  0  0  0  0  0  0  0  0  0
   16.3213  -25.5042    5.5961 N   0  0  0  0  0  0  0  0  0  0  0  0
   17.2310  -24.8039    6.5155 C   0  0  1  0  0  0  0  0  0  0  0  0
   17.6297  -23.5527    5.8345 C   0  0  0  0  0  0  0  0  0  0  0  0
   18.1164  -23.6597    4.4599 C   0  0  0  0  0  0  0  0  0  0  0  0
   17.5321  -23.1049    3.3209 C   0  0  0  0  0  0  0  0  0  0  0  0
   18.2688  -23.4708    2.2664 N   0  0  0  0  0  0  0  0  0  0  0  0
   19.3054  -24.2349    2.6518 C   0  0  0  0  0  0  0  0  0  0  0  0
   20.3272  -24.8217    1.9341 C   0  0  0  0  0  0  0  0  0  0  0  0
   21.2754  -25.5464    2.6465 C   0  0  0  0  0  0  0  0  0  0  0  0
   21.2121  -25.6824    4.0074 C   0  0  0  0  0  0  0  0  0  0  0  0
   20.1868  -25.0917    4.7057 C   0  0  0  0  0  0  0  0  0  0  0  0
   19.2178  -24.3589    4.0304 C   0  0  0  0  0  0  0  0  0  0  0  0
   16.6500  -24.5980    7.8283 C   0  0  0  0  0  0  0  0  0  0  0  0
   17.2572  -24.1148    8.8229 O   0  0  0  0  0  0  0  0  0  0  0  0
   15.3109  -24.9432    8.0501 O   0  0  0  0  0  0  0  0  0  0  0  0
  2  1  1  1
  2  3  1  0
  4  2  1  0
  5  4  1  0
  5  6  1  6
  7  5  1  0
  7  8  2  0
  9 10  1  0
 10 11  1  0
 11 12  1  0
 13 12  1  1
 13 14  1  0
 14  7  1  0
 15 13  1  0
 16 15  2  0
 17 15  1  0
 18 17  1  0
 18 19  1  6
 19 20  1  0
 20 28  1  0
 20 21  2  0
 21 22  1  0
 23 24  2  0
 23 22  1  0
 25 24  1  0
 26 25  2  0
 27 26  1  0
 27 28  2  0
 28 23  1  0
 29 18  1  0
 30 29  2  0
 31 29  1  0
M  END
$$$$
