LMW.pdb
     RDKit          3D

 31 32  0  0  1  0  0  0  0  0999 V2000
   26.4282  -22.4331  -18.8246 C   0  0  0  0  0  0  0  0  0  0  0  0
   27.3250  -23.0656  -17.7618 C   0  0  2  0  0  0  0  0  0  0  0  0
   27.7393  -24.4160  -18.2678 C   0  0  0  0  0  0  0  0  0  0  0  0
   26.5655  -23.1369  -16.4771 C   0  0  0  0  0  0  0  0  0  0  0  0
   26.1133  -21.8074  -15.9340 C   0  0  2  0  0  0  0  0  0  0  0  0
   27.2597  -20.9052  -15.7820 N   0  0  0  0  0  0  0  0  0  0  0  0
   25.4474  -21.9030  -14.6135 C   0  0  0  0  0  0  0  0  0  0  0  0
   24.4658  -22.6756  -14.5006 O   0  0  0  0  0  0  0  0  0  0  0  0
   25.5770  -20.3288   -6.8396 C   0  0  0  0  0  0  0  0  0  0  0  0
   26.3511  -20.0129   -8.4296 S   0  0  0  0  0  0  0  0  0  0  0  0
   25.3454  -20.7503   -9.7454 C   0  0  0  0  0  0  0  0  0  0  0  0
   26.0279  -20.6114  -11.0897 C   0  0  0  0  0  0  0  0  0  0  0  0
   25.2184  -21.2581  -12.1947 C   0  0  2  0  0  0  0  0  0  0  0  0
   25.8959  -21.1410  -13.4770 N   0  0  0  0  0  0  0  0  0  0  0  0
   23.9244  -20.5371  -12.2512 C   0  0  0  0  0  0  0  0  0  0  0  0
   23.9348  -19.2929  -12.2751 O   0  0  0  0  0  0  0  0  0  0  0  0
   22.7062  -21.2418  -12.2784 N   0  0  0  0  0  0  0  0  0  0  0  0
   21.4153  -20.5377  -12.2441 C   0  0  1  0  0  0  0  0  0  0  0  0
   21.0558  -20.2581  -13.6514 C   0  0  0  0  0  0  0  0  0  0  0  0
   21.4072  -18.9441  -14.1880 C   0  0  0  0  0  0  0  0  0  0  0  0
   22.3680  -18.6688  -15.1615 C   0  0  0  0  0  0  0  0  0  0  0  0
   22.4016  -17.3433  -15.3365 N   0  0  0  0  0  0  0  0  0  0  0  0
   21.5144  -16.7341  -14.5312 C   0  0  0  0  0  0  0  0  0  0  0  0
   21.1842  -15.4038  -14.3728 C   0  0  0  0  0  0  0  0  0  0  0  0
   20.1878  -15.0970  -13.4536 C   0  0  0  0  0  0  0  0  0  0  0  0
   19.5494  -16.0650  -12.7257 C   0  0  0  0  0  0  0  0  0  0  0  0
   19.8919  -17.3847  -12.8961 C   0  0  0  0  0  0  0  0  0  0  0  0
   20.8839  -17.7335  -13.8051 C   0  0  0  0  0  0  0  0  0  0  0  0
   20.3986  -21.2690  -11.5128 C   0  0  0  0  0  0  0  0  0  0  0  0
   20.4262  -22.5074  -11.2737 O   0  0  0  0  0  0  0  0  0  0  0  0
   19.2856  -20.5835  -11.0098 O   0  0  0  0  0  0  0  0  0  0  0  0
  2  1  1  6
  2  3  1  0
  4  2  1  0
  5  4  1  0
  5  6  1  1
  7  5  1  0
  7  8  2  0
  9 10  1  0
 10 11  1  0
 11 12  1  0
 13 12  1  1
 13 14  1  0
 14  7  1  0
 15 13  1  0
 16 15  2  0
 17 15  1  0
 18 17  1  0
 18 19  1  6
 19 20  1  0
 20 28  1  0
 20 21  2  0
 21 22  1  0
 23 24  2  0
 23 22  1  0
 25 24  1  0
 26 25  2  0
 27 26  1  0
 27 28  2  0
 28 23  1  0
 29 18  1  0
 30 29  2  0
 31 29  1  0
M  END
$$$$
