LMW.pdb
     RDKit          3D

 31 32  0  0  1  0  0  0  0  0999 V2000
   28.3830  -14.2453  -16.9699 C   0  0  0  0  0  0  0  0  0  0  0  0
   27.0083  -14.0909  -16.3217 C   0  0  2  0  0  0  0  0  0  0  0  0
   27.2056  -13.3932  -15.0082 C   0  0  0  0  0  0  0  0  0  0  0  0
   26.3965  -15.4457  -16.1713 C   0  0  0  0  0  0  0  0  0  0  0  0
   26.3733  -16.2734  -17.4288 C   0  0  2  0  0  0  0  0  0  0  0  0
   25.3748  -15.7460  -18.3648 N   0  0  0  0  0  0  0  0  0  0  0  0
   26.0483  -17.6999  -17.1925 C   0  0  0  0  0  0  0  0  0  0  0  0
   24.8773  -17.9909  -16.8502 O   0  0  0  0  0  0  0  0  0  0  0  0
   30.1648  -22.7345  -18.1472 C   0  0  0  0  0  0  0  0  0  0  0  0
   28.6934  -23.6486  -17.6712 S   0  0  0  0  0  0  0  0  0  0  0  0
   27.4501  -22.4957  -17.0298 C   0  0  0  0  0  0  0  0  0  0  0  0
   27.7794  -21.0714  -17.4236 C   0  0  0  0  0  0  0  0  0  0  0  0
   26.7511  -20.0946  -16.8917 C   0  0  2  0  0  0  0  0  0  0  0  0
   27.0315  -18.7408  -17.3454 N   0  0  0  0  0  0  0  0  0  0  0  0
   26.8387  -20.1489  -15.4129 C   0  0  0  0  0  0  0  0  0  0  0  0
   27.8709  -19.7273  -14.8601 O   0  0  0  0  0  0  0  0  0  0  0  0
   25.7775  -20.6652  -14.6456 N   0  0  0  0  0  0  0  0  0  0  0  0
   26.0121  -21.2649  -13.3232 C   0  0  1  0  0  0  0  0  0  0  0  0
   25.9344  -20.1586  -12.3443 C   0  0  0  0  0  0  0  0  0  0  0  0
   25.1879  -20.4018  -11.1109 C   0  0  0  0  0  0  0  0  0  0  0  0
   25.7179  -20.7513   -9.8685 C   0  0  0  0  0  0  0  0  0  0  0  0
   24.6957  -20.9170   -9.0222 N   0  0  0  0  0  0  0  0  0  0  0  0
   23.5237  -20.6945   -9.6417 C   0  0  0  0  0  0  0  0  0  0  0  0
   22.2235  -20.7286   -9.1813 C   0  0  0  0  0  0  0  0  0  0  0  0
   21.2155  -20.4213  -10.0877 C   0  0  0  0  0  0  0  0  0  0  0  0
   21.4855  -20.0959  -11.3899 C   0  0  0  0  0  0  0  0  0  0  0  0
   22.7864  -20.0679  -11.8311 C   0  0  0  0  0  0  0  0  0  0  0  0
   23.8236  -20.3695  -10.9563 C   0  0  0  0  0  0  0  0  0  0  0  0
   25.1093  -22.3640  -13.0395 C   0  0  0  0  0  0  0  0  0  0  0  0
   25.2331  -23.1760  -12.0819 O   0  0  0  0  0  0  0  0  0  0  0  0
   23.9969  -22.5715  -13.8646 O   0  0  0  0  0  0  0  0  0  0  0  0
  2  1  1  1
  2  3  1  0
  4  2  1  0
  5  4  1  0
  5  6  1  6
  7  5  1  0
  7  8  2  0
  9 10  1  0
 10 11  1  0
 11 12  1  0
 13 12  1  6
 13 14  1  0
 14  7  1  0
 15 13  1  0
 16 15  2  0
 17 15  1  0
 18 17  1  0
 18 19  1  1
 19 20  1  0
 20 28  1  0
 20 21  2  0
 21 22  1  0
 23 24  2  0
 23 22  1  0
 25 24  1  0
 26 25  2  0
 27 26  1  0
 27 28  2  0
 28 23  1  0
 29 18  1  0
 30 29  2  0
 31 29  1  0
M  END
$$$$
