LMW.pdb
     RDKit          3D

 31 32  0  0  1  0  0  0  0  0999 V2000
   24.8341  -24.8826  -17.4923 C   0  0  0  0  0  0  0  0  0  0  0  0
   26.2624  -24.9731  -18.0267 C   0  0  2  0  0  0  0  0  0  0  0  0
   26.6202  -26.4277  -18.1112 C   0  0  0  0  0  0  0  0  0  0  0  0
   27.1634  -24.2076  -17.1132 C   0  0  0  0  0  0  0  0  0  0  0  0
   26.7941  -22.7600  -16.9260 C   0  0  2  0  0  0  0  0  0  0  0  0
   27.1522  -21.9868  -18.1198 N   0  0  0  0  0  0  0  0  0  0  0  0
   27.4652  -22.1228  -15.7684 C   0  0  0  0  0  0  0  0  0  0  0  0
   28.6336  -21.6943  -15.9245 O   0  0  0  0  0  0  0  0  0  0  0  0
   26.0478  -17.0695  -15.5795 C   0  0  0  0  0  0  0  0  0  0  0  0
   26.6281  -16.8348  -13.8956 S   0  0  0  0  0  0  0  0  0  0  0  0
   27.1117  -18.4362  -13.1973 C   0  0  0  0  0  0  0  0  0  0  0  0
   26.8253  -19.5594  -14.1712 C   0  0  0  0  0  0  0  0  0  0  0  0
   27.1830  -20.9096  -13.5850 C   0  0  2  0  0  0  0  0  0  0  0  0
   26.8153  -21.9874  -14.4907 N   0  0  0  0  0  0  0  0  0  0  0  0
   26.4169  -21.0411  -12.3226 C   0  0  0  0  0  0  0  0  0  0  0  0
   25.1737  -21.0474  -12.3767 O   0  0  0  0  0  0  0  0  0  0  0  0
   27.0787  -21.1578  -11.0858 N   0  0  0  0  0  0  0  0  0  0  0  0
   26.3291  -21.3176   -9.8304 C   0  0  1  0  0  0  0  0  0  0  0  0
   27.3377  -21.4831   -8.7611 C   0  0  0  0  0  0  0  0  0  0  0  0
   27.4274  -20.4297   -7.7511 C   0  0  0  0  0  0  0  0  0  0  0  0
   26.7103  -19.2332   -7.7256 C   0  0  0  0  0  0  0  0  0  0  0  0
   27.1166  -18.5381   -6.6577 N   0  0  0  0  0  0  0  0  0  0  0  0
   28.0609  -19.2140   -5.9807 C   0  0  0  0  0  0  0  0  0  0  0  0
   28.7533  -18.9115   -4.8262 C   0  0  0  0  0  0  0  0  0  0  0  0
   29.6669  -19.8512   -4.3632 C   0  0  0  0  0  0  0  0  0  0  0  0
   29.8832  -21.0352   -5.0158 C   0  0  0  0  0  0  0  0  0  0  0  0
   29.1852  -21.3192   -6.1646 C   0  0  0  0  0  0  0  0  0  0  0  0
   28.2628  -20.4055   -6.6612 C   0  0  0  0  0  0  0  0  0  0  0  0
   25.3959  -20.2329   -9.5942 C   0  0  0  0  0  0  0  0  0  0  0  0
   25.5427  -19.0478  -10.0010 O   0  0  0  0  0  0  0  0  0  0  0  0
   24.2242  -20.4790   -8.8675 O   0  0  0  0  0  0  0  0  0  0  0  0
  2  1  1  1
  2  3  1  0
  4  2  1  0
  5  4  1  0
  5  6  1  6
  7  5  1  0
  7  8  2  0
  9 10  1  0
 10 11  1  0
 11 12  1  0
 13 12  1  6
 13 14  1  0
 14  7  1  0
 15 13  1  0
 16 15  2  0
 17 15  1  0
 18 17  1  0
 18 19  1  1
 19 20  1  0
 20 28  1  0
 20 21  2  0
 21 22  1  0
 23 24  2  0
 23 22  1  0
 25 24  1  0
 26 25  2  0
 27 26  1  0
 27 28  2  0
 28 23  1  0
 29 18  1  0
 30 29  2  0
 31 29  1  0
M  END
$$$$
