LMW.pdb
     RDKit          3D

 31 32  0  0  1  0  0  0  0  0999 V2000
   24.0951  -23.3430  -22.7218 C   0  0  0  0  0  0  0  0  0  0  0  0
   24.2985  -24.7819  -22.2509 C   0  0  2  0  0  0  0  0  0  0  0  0
   23.0111  -25.5173  -22.4812 C   0  0  0  0  0  0  0  0  0  0  0  0
   24.7038  -24.7610  -20.8130 C   0  0  0  0  0  0  0  0  0  0  0  0
   25.8706  -23.8634  -20.4969 C   0  0  2  0  0  0  0  0  0  0  0  0
   27.1110  -24.4376  -21.0289 N   0  0  0  0  0  0  0  0  0  0  0  0
   26.0718  -23.6434  -19.0451 C   0  0  0  0  0  0  0  0  0  0  0  0
   25.7653  -24.5708  -18.2584 O   0  0  0  0  0  0  0  0  0  0  0  0
   31.2230  -24.2028  -16.6482 C   0  0  0  0  0  0  0  0  0  0  0  0
   29.7026  -23.4050  -16.1198 S   0  0  0  0  0  0  0  0  0  0  0  0
   29.3267  -22.0272  -17.2362 C   0  0  0  0  0  0  0  0  0  0  0  0
   28.0306  -21.3508  -16.8430 C   0  0  0  0  0  0  0  0  0  0  0  0
   26.8353  -22.2447  -17.1010 C   0  0  2  0  0  0  0  0  0  0  0  0
   26.6029  -22.4090  -18.5280 N   0  0  0  0  0  0  0  0  0  0  0  0
   25.6646  -21.5776  -16.4828 C   0  0  0  0  0  0  0  0  0  0  0  0
   25.2403  -20.5242  -16.9915 O   0  0  0  0  0  0  0  0  0  0  0  0
   25.0420  -22.1222  -15.3438 N   0  0  0  0  0  0  0  0  0  0  0  0
   23.8966  -21.4548  -14.7067 C   0  0  1  0  0  0  0  0  0  0  0  0
   22.8145  -21.4314  -15.7150 C   0  0  0  0  0  0  0  0  0  0  0  0
   21.5147  -20.9089  -15.2960 C   0  0  0  0  0  0  0  0  0  0  0  0
   21.1880  -19.5734  -15.0590 C   0  0  0  0  0  0  0  0  0  0  0  0
   19.9126  -19.5315  -14.6585 N   0  0  0  0  0  0  0  0  0  0  0  0
   19.3846  -20.7671  -14.6207 C   0  0  0  0  0  0  0  0  0  0  0  0
   18.1213  -21.2134  -14.2911 C   0  0  0  0  0  0  0  0  0  0  0  0
   17.8833  -22.5802  -14.3759 C   0  0  0  0  0  0  0  0  0  0  0  0
   18.8536  -23.4624  -14.7692 C   0  0  0  0  0  0  0  0  0  0  0  0
   20.1063  -23.0000  -15.0929 C   0  0  0  0  0  0  0  0  0  0  0  0
   20.3853  -21.6402  -15.0204 C   0  0  0  0  0  0  0  0  0  0  0  0
   23.5159  -22.0737  -13.4515 C   0  0  0  0  0  0  0  0  0  0  0  0
   23.8252  -23.2440  -13.0964 O   0  0  0  0  0  0  0  0  0  0  0  0
   22.7506  -21.3476  -12.5304 O   0  0  0  0  0  0  0  0  0  0  0  0
  2  1  1  1
  2  3  1  0
  4  2  1  0
  5  4  1  0
  5  6  1  1
  7  5  1  0
  7  8  2  0
  9 10  1  0
 10 11  1  0
 11 12  1  0
 13 12  1  6
 13 14  1  0
 14  7  1  0
 15 13  1  0
 16 15  2  0
 17 15  1  0
 18 17  1  0
 18 19  1  6
 19 20  1  0
 20 28  1  0
 20 21  2  0
 21 22  1  0
 23 24  2  0
 23 22  1  0
 25 24  1  0
 26 25  2  0
 27 26  1  0
 27 28  2  0
 28 23  1  0
 29 18  1  0
 30 29  2  0
 31 29  1  0
M  END
$$$$
