LMW.pdb
     RDKit          3D

 31 32  0  0  1  0  0  0  0  0999 V2000
   28.8214  -19.0457  -17.1493 C   0  0  0  0  0  0  0  0  0  0  0  0
   27.6342  -19.8097  -17.7329 C   0  0  2  0  0  0  0  0  0  0  0  0
   26.8975  -18.8708  -18.6422 C   0  0  0  0  0  0  0  0  0  0  0  0
   26.7876  -20.3087  -16.6075 C   0  0  0  0  0  0  0  0  0  0  0  0
   27.5024  -21.1942  -15.6215 C   0  0  2  0  0  0  0  0  0  0  0  0
   27.8733  -22.4636  -16.2559 N   0  0  0  0  0  0  0  0  0  0  0  0
   26.6938  -21.5184  -14.4225 C   0  0  0  0  0  0  0  0  0  0  0  0
   25.8408  -22.4332  -14.5142 O   0  0  0  0  0  0  0  0  0  0  0  0
   25.1804  -20.2970   -6.7155 C   0  0  0  0  0  0  0  0  0  0  0  0
   26.3532  -20.0920   -8.0608 S   0  0  0  0  0  0  0  0  0  0  0  0
   25.6293  -20.7349   -9.5933 C   0  0  0  0  0  0  0  0  0  0  0  0
   26.5745  -20.5422  -10.7602 C   0  0  0  0  0  0  0  0  0  0  0  0
   25.9970  -21.1029  -12.0433 C   0  0  2  0  0  0  0  0  0  0  0  0
   26.8643  -20.8177  -13.1762 N   0  0  0  0  0  0  0  0  0  0  0  0
   24.6863  -20.4402  -12.2445 C   0  0  0  0  0  0  0  0  0  0  0  0
   24.6404  -19.1966  -12.2478 O   0  0  0  0  0  0  0  0  0  0  0  0
   23.5150  -21.1987  -12.4295 N   0  0  0  0  0  0  0  0  0  0  0  0
   22.3223  -20.6193  -13.0659 C   0  0  1  0  0  0  0  0  0  0  0  0
   22.7509  -20.1441  -14.3995 C   0  0  0  0  0  0  0  0  0  0  0  0
   21.7159  -19.6333  -15.2972 C   0  0  0  0  0  0  0  0  0  0  0  0
   20.4965  -19.0644  -14.9286 C   0  0  0  0  0  0  0  0  0  0  0  0
   19.8310  -18.7667  -16.0498 N   0  0  0  0  0  0  0  0  0  0  0  0
   20.5480  -19.1087  -17.1341 C   0  0  0  0  0  0  0  0  0  0  0  0
   20.2858  -18.9819  -18.4827 C   0  0  0  0  0  0  0  0  0  0  0  0
   21.2622  -19.4220  -19.3686 C   0  0  0  0  0  0  0  0  0  0  0  0
   22.4433  -19.9629  -18.9361 C   0  0  0  0  0  0  0  0  0  0  0  0
   22.6869  -20.0822  -17.5891 C   0  0  0  0  0  0  0  0  0  0  0  0
   21.7356  -19.6546  -16.6703 C   0  0  0  0  0  0  0  0  0  0  0  0
   21.2042  -21.5423  -13.1032 C   0  0  0  0  0  0  0  0  0  0  0  0
   21.2750  -22.7546  -13.4451 O   0  0  0  0  0  0  0  0  0  0  0  0
   19.9299  -21.0951  -12.7320 O   0  0  0  0  0  0  0  0  0  0  0  0
  2  1  1  1
  2  3  1  0
  4  2  1  0
  5  4  1  0
  5  6  1  6
  7  5  1  0
  7  8  2  0
  9 10  1  0
 10 11  1  0
 11 12  1  0
 13 12  1  1
 13 14  1  0
 14  7  1  0
 15 13  1  0
 16 15  2  0
 17 15  1  0
 18 17  1  0
 18 19  1  6
 19 20  1  0
 20 28  1  0
 20 21  2  0
 21 22  1  0
 23 24  2  0
 23 22  1  0
 25 24  1  0
 26 25  2  0
 27 26  1  0
 27 28  2  0
 28 23  1  0
 29 18  1  0
 30 29  2  0
 31 29  1  0
M  END
$$$$
