LMW.pdb
     RDKit          3D

 31 32  0  0  1  0  0  0  0  0999 V2000
   24.2386  -17.2364  -18.1178 C   0  0  0  0  0  0  0  0  0  0  0  0
   22.9252  -17.9561  -17.8167 C   0  0  2  0  0  0  0  0  0  0  0  0
   21.8364  -17.2333  -18.5539 C   0  0  0  0  0  0  0  0  0  0  0  0
   22.7145  -17.9662  -16.3376 C   0  0  0  0  0  0  0  0  0  0  0  0
   23.8854  -18.4670  -15.5344 C   0  0  2  0  0  0  0  0  0  0  0  0
   24.3846  -19.7265  -16.0966 N   0  0  0  0  0  0  0  0  0  0  0  0
   23.5629  -18.7157  -14.1095 C   0  0  0  0  0  0  0  0  0  0  0  0
   23.0831  -17.7711  -13.4381 O   0  0  0  0  0  0  0  0  0  0  0  0
   20.5047  -23.6913  -12.5186 C   0  0  0  0  0  0  0  0  0  0  0  0
   19.6924  -22.0935  -12.3993 S   0  0  0  0  0  0  0  0  0  0  0  0
   20.9405  -20.7794  -12.4400 C   0  0  0  0  0  0  0  0  0  0  0  0
   22.3028  -21.3156  -12.0544 C   0  0  0  0  0  0  0  0  0  0  0  0
   23.3644  -20.2370  -12.1182 C   0  0  2  0  0  0  0  0  0  0  0  0
   23.7846  -19.9967  -13.4904 N   0  0  0  0  0  0  0  0  0  0  0  0
   24.5174  -20.7283  -11.3265 C   0  0  0  0  0  0  0  0  0  0  0  0
   25.2477  -21.6078  -11.8182 O   0  0  0  0  0  0  0  0  0  0  0  0
   24.7848  -20.2123  -10.0445 N   0  0  0  0  0  0  0  0  0  0  0  0
   25.7746  -20.8432   -9.1582 C   0  0  1  0  0  0  0  0  0  0  0  0
   26.8261  -19.8304   -8.9201 C   0  0  0  0  0  0  0  0  0  0  0  0
   27.9743  -20.2298   -8.1077 C   0  0  0  0  0  0  0  0  0  0  0  0
   28.9444  -21.1757   -8.4400 C   0  0  0  0  0  0  0  0  0  0  0  0
   29.7923  -21.2682   -7.4098 N   0  0  0  0  0  0  0  0  0  0  0  0
   29.4314  -20.4335   -6.4198 C   0  0  0  0  0  0  0  0  0  0  0  0
   29.9992  -20.1721   -5.1898 C   0  0  0  0  0  0  0  0  0  0  0  0
   29.3822  -19.2171   -4.3903 C   0  0  0  0  0  0  0  0  0  0  0  0
   28.2546  -18.5530   -4.7927 C   0  0  0  0  0  0  0  0  0  0  0  0
   27.7025  -18.8269   -6.0207 C   0  0  0  0  0  0  0  0  0  0  0  0
   28.2886  -19.7759   -6.8501 C   0  0  0  0  0  0  0  0  0  0  0  0
   25.1823  -21.3709   -7.9441 C   0  0  0  0  0  0  0  0  0  0  0  0
   24.0305  -21.0861   -7.5155 O   0  0  0  0  0  0  0  0  0  0  0  0
   25.9096  -22.2754   -7.1603 O   0  0  0  0  0  0  0  0  0  0  0  0
  2  1  1  1
  2  3  1  0
  4  2  1  0
  5  4  1  0
  5  6  1  6
  7  5  1  0
  7  8  2  0
  9 10  1  0
 10 11  1  0
 11 12  1  0
 13 12  1  6
 13 14  1  0
 14  7  1  0
 15 13  1  0
 16 15  2  0
 17 15  1  0
 18 17  1  0
 18 19  1  1
 19 20  1  0
 20 28  1  0
 20 21  2  0
 21 22  1  0
 23 24  2  0
 23 22  1  0
 25 24  1  0
 26 25  2  0
 27 26  1  0
 27 28  2  0
 28 23  1  0
 29 18  1  0
 30 29  2  0
 31 29  1  0
M  END
$$$$
