LMW.pdb
     RDKit          3D

 31 32  0  0  1  0  0  0  0  0999 V2000
   28.8524  -17.7191  -16.4432 C   0  0  0  0  0  0  0  0  0  0  0  0
   28.1046  -16.5109  -15.8821 C   0  0  2  0  0  0  0  0  0  0  0  0
   29.1200  -15.6093  -15.2440 C   0  0  0  0  0  0  0  0  0  0  0  0
   27.0721  -16.9946  -14.9165 C   0  0  0  0  0  0  0  0  0  0  0  0
   26.0662  -17.9551  -15.4932 C   0  0  2  0  0  0  0  0  0  0  0  0
   25.0807  -17.2316  -16.3035 N   0  0  0  0  0  0  0  0  0  0  0  0
   25.3194  -18.7180  -14.4652 C   0  0  0  0  0  0  0  0  0  0  0  0
   24.3697  -18.1464  -13.8783 O   0  0  0  0  0  0  0  0  0  0  0  0
   21.9165  -25.2632  -12.1565 C   0  0  0  0  0  0  0  0  0  0  0  0
   22.9178  -24.4102  -13.3801 S   0  0  0  0  0  0  0  0  0  0  0  0
   23.6056  -22.9010  -12.6485 C   0  0  0  0  0  0  0  0  0  0  0  0
   24.4936  -22.1766  -13.6380 C   0  0  0  0  0  0  0  0  0  0  0  0
   24.8884  -20.8047  -13.1315 C   0  0  2  0  0  0  0  0  0  0  0  0
   25.6551  -20.0781  -14.1322 N   0  0  0  0  0  0  0  0  0  0  0  0
   25.7259  -21.0211  -11.9276 C   0  0  0  0  0  0  0  0  0  0  0  0
   26.9242  -21.3199  -12.0799 O   0  0  0  0  0  0  0  0  0  0  0  0
   25.1807  -20.8911  -10.6364 N   0  0  0  0  0  0  0  0  0  0  0  0
   25.9584  -21.2458   -9.4395 C   0  0  1  0  0  0  0  0  0  0  0  0
   27.0179  -20.2214   -9.3123 C   0  0  0  0  0  0  0  0  0  0  0  0
   28.0549  -20.4463   -8.3064 C   0  0  0  0  0  0  0  0  0  0  0  0
   29.1554  -21.2967   -8.4165 C   0  0  0  0  0  0  0  0  0  0  0  0
   29.8319  -21.2379   -7.2643 N   0  0  0  0  0  0  0  0  0  0  0  0
   29.2352  -20.3944   -6.4044 C   0  0  0  0  0  0  0  0  0  0  0  0
   29.5693  -20.0042   -5.1239 C   0  0  0  0  0  0  0  0  0  0  0  0
   28.7398  -19.0799   -4.4997 C   0  0  0  0  0  0  0  0  0  0  0  0
   27.6307  -18.5674   -5.1175 C   0  0  0  0  0  0  0  0  0  0  0  0
   27.3130  -18.9681   -6.3928 C   0  0  0  0  0  0  0  0  0  0  0  0
   28.1164  -19.8914   -7.0516 C   0  0  0  0  0  0  0  0  0  0  0  0
   25.1315  -21.3849   -8.2561 C   0  0  0  0  0  0  0  0  0  0  0  0
   23.9803  -20.8893   -8.1129 O   0  0  0  0  0  0  0  0  0  0  0  0
   25.6079  -22.1251   -7.1667 O   0  0  0  0  0  0  0  0  0  0  0  0
  2  1  1  1
  2  3  1  0
  4  2  1  0
  5  4  1  0
  5  6  1  1
  7  5  1  0
  7  8  2  0
  9 10  1  0
 10 11  1  0
 11 12  1  0
 13 12  1  6
 13 14  1  0
 14  7  1  0
 15 13  1  0
 16 15  2  0
 17 15  1  0
 18 17  1  0
 18 19  1  1
 19 20  1  0
 20 28  1  0
 20 21  2  0
 21 22  1  0
 23 24  2  0
 23 22  1  0
 25 24  1  0
 26 25  2  0
 27 26  1  0
 27 28  2  0
 28 23  1  0
 29 18  1  0
 30 29  2  0
 31 29  1  0
M  END
$$$$
