LMW.pdb
     RDKit          3D

 31 32  0  0  1  0  0  0  0  0999 V2000
   19.2473  -20.1361  -14.9039 C   0  0  0  0  0  0  0  0  0  0  0  0
   20.0759  -21.2080  -15.6098 C   0  0  2  0  0  0  0  0  0  0  0  0
   19.1336  -22.2911  -16.0457 C   0  0  0  0  0  0  0  0  0  0  0  0
   21.1251  -21.6989  -14.6661 C   0  0  0  0  0  0  0  0  0  0  0  0
   22.0213  -20.6281  -14.1028 C   0  0  2  0  0  0  0  0  0  0  0  0
   22.7551  -19.9607  -15.1832 N   0  0  0  0  0  0  0  0  0  0  0  0
   23.0232  -21.1415  -13.1389 C   0  0  0  0  0  0  0  0  0  0  0  0
   22.6092  -21.7508  -12.1237 O   0  0  0  0  0  0  0  0  0  0  0  0
   29.6017  -21.4370  -13.8928 C   0  0  0  0  0  0  0  0  0  0  0  0
   28.4086  -21.8670  -15.1651 S   0  0  0  0  0  0  0  0  0  0  0  0
   26.7496  -21.9308  -14.4374 C   0  0  0  0  0  0  0  0  0  0  0  0
   26.7862  -21.5466  -12.9734 C   0  0  0  0  0  0  0  0  0  0  0  0
   25.3945  -21.4853  -12.3787 C   0  0  2  0  0  0  0  0  0  0  0  0
   24.4373  -20.9590  -13.3399 N   0  0  0  0  0  0  0  0  0  0  0  0
   25.4717  -20.5771  -11.2095 C   0  0  0  0  0  0  0  0  0  0  0  0
   25.1312  -19.3888  -11.3532 O   0  0  0  0  0  0  0  0  0  0  0  0
   25.9196  -21.0458   -9.9601 N   0  0  0  0  0  0  0  0  0  0  0  0
   26.8436  -20.2541   -9.1338 C   0  0  1  0  0  0  0  0  0  0  0  0
   26.3854  -20.4048   -7.7354 C   0  0  0  0  0  0  0  0  0  0  0  0
   27.1527  -19.7180   -6.6975 C   0  0  0  0  0  0  0  0  0  0  0  0
   27.2398  -18.3401   -6.4964 C   0  0  0  0  0  0  0  0  0  0  0  0
   28.0712  -18.1305   -5.4701 N   0  0  0  0  0  0  0  0  0  0  0  0
   28.5339  -19.2961   -4.9863 C   0  0  0  0  0  0  0  0  0  0  0  0
   29.3880  -19.5790   -3.9403 C   0  0  0  0  0  0  0  0  0  0  0  0
   29.6556  -20.9173   -3.6769 C   0  0  0  0  0  0  0  0  0  0  0  0
   29.1018  -21.9271   -4.4171 C   0  0  0  0  0  0  0  0  0  0  0  0
   28.2540  -21.6266   -5.4557 C   0  0  0  0  0  0  0  0  0  0  0  0
   27.9612  -20.3006   -5.7523 C   0  0  0  0  0  0  0  0  0  0  0  0
   28.2317  -20.6208   -9.3392 C   0  0  0  0  0  0  0  0  0  0  0  0
   28.6457  -21.7872   -9.5834 O   0  0  0  0  0  0  0  0  0  0  0  0
   29.2213  -19.6317   -9.2766 O   0  0  0  0  0  0  0  0  0  0  0  0
  2  1  1  1
  2  3  1  0
  4  2  1  0
  5  4  1  0
  5  6  1  6
  7  5  1  0
  7  8  2  0
  9 10  1  0
 10 11  1  0
 11 12  1  0
 13 12  1  6
 13 14  1  0
 14  7  1  0
 15 13  1  0
 16 15  2  0
 17 15  1  0
 18 17  1  0
 18 19  1  1
 19 20  1  0
 20 28  1  0
 20 21  2  0
 21 22  1  0
 23 24  2  0
 23 22  1  0
 25 24  1  0
 26 25  2  0
 27 26  1  0
 27 28  2  0
 28 23  1  0
 29 18  1  0
 30 29  2  0
 31 29  1  0
M  END
$$$$
