LMW.pdb
     RDKit          3D

 31 32  0  0  1  0  0  0  0  0999 V2000
   18.5123  -19.2077  -16.6222 C   0  0  0  0  0  0  0  0  0  0  0  0
   19.1744  -19.3298  -17.9935 C   0  0  2  0  0  0  0  0  0  0  0  0
   18.3250  -20.2467  -18.8235 C   0  0  0  0  0  0  0  0  0  0  0  0
   20.5663  -19.8402  -17.8079 C   0  0  0  0  0  0  0  0  0  0  0  0
   21.4299  -19.0081  -16.8974 C   0  0  2  0  0  0  0  0  0  0  0  0
   21.2383  -17.5818  -17.1804 N   0  0  0  0  0  0  0  0  0  0  0  0
   22.8779  -19.2949  -17.0298 C   0  0  0  0  0  0  0  0  0  0  0  0
   23.2597  -20.4826  -16.9010 O   0  0  0  0  0  0  0  0  0  0  0  0
   30.0609  -17.1176  -19.5000 C   0  0  0  0  0  0  0  0  0  0  0  0
   28.3175  -16.6937  -19.4093 S   0  0  0  0  0  0  0  0  0  0  0  0
   27.4756  -17.8457  -18.2913 C   0  0  0  0  0  0  0  0  0  0  0  0
   25.9910  -17.5544  -18.2325 C   0  0  0  0  0  0  0  0  0  0  0  0
   25.2586  -18.5655  -17.3746 C   0  0  2  0  0  0  0  0  0  0  0  0
   23.8387  -18.2567  -17.2989 N   0  0  0  0  0  0  0  0  0  0  0  0
   25.8554  -18.4850  -16.0200 C   0  0  0  0  0  0  0  0  0  0  0  0
   25.6426  -17.4692  -15.3334 O   0  0  0  0  0  0  0  0  0  0  0  0
   26.6466  -19.5346  -15.5165 N   0  0  0  0  0  0  0  0  0  0  0  0
   27.0886  -19.5530  -14.1138 C   0  0  1  0  0  0  0  0  0  0  0  0
   25.8773  -19.3383  -13.2924 C   0  0  0  0  0  0  0  0  0  0  0  0
   26.0359  -19.3633  -11.8391 C   0  0  0  0  0  0  0  0  0  0  0  0
   27.0165  -18.7076  -11.0941 C   0  0  0  0  0  0  0  0  0  0  0  0
   26.8288  -19.0225   -9.8080 N   0  0  0  0  0  0  0  0  0  0  0  0
   25.7776  -19.8487   -9.6685 C   0  0  0  0  0  0  0  0  0  0  0  0
   25.2024  -20.4182   -8.5512 C   0  0  0  0  0  0  0  0  0  0  0  0
   24.0878  -21.2254   -8.7464 C   0  0  0  0  0  0  0  0  0  0  0  0
   23.5690  -21.4567   -9.9921 C   0  0  0  0  0  0  0  0  0  0  0  0
   24.1555  -20.8818  -11.0936 C   0  0  0  0  0  0  0  0  0  0  0  0
   25.2723  -20.0684  -10.9413 C   0  0  0  0  0  0  0  0  0  0  0  0
   27.8221  -20.7573  -13.7742 C   0  0  0  0  0  0  0  0  0  0  0  0
   28.2921  -21.0234  -12.6342 O   0  0  0  0  0  0  0  0  0  0  0  0
   28.0422  -21.7295  -14.7581 O   0  0  0  0  0  0  0  0  0  0  0  0
  2  1  1  1
  2  3  1  0
  4  2  1  0
  5  4  1  0
  5  6  1  6
  7  5  1  0
  7  8  2  0
  9 10  1  0
 10 11  1  0
 11 12  1  0
 13 12  1  6
 13 14  1  0
 14  7  1  0
 15 13  1  0
 16 15  2  0
 17 15  1  0
 18 17  1  0
 18 19  1  1
 19 20  1  0
 20 28  1  0
 20 21  2  0
 21 22  1  0
 23 24  2  0
 23 22  1  0
 25 24  1  0
 26 25  2  0
 27 26  1  0
 27 28  2  0
 28 23  1  0
 29 18  1  0
 30 29  2  0
 31 29  1  0
M  END
$$$$
