LMW.pdb
     RDKit          3D

 31 32  0  0  1  0  0  0  0  0999 V2000
   28.6061  -17.6790  -16.9771 C   0  0  0  0  0  0  0  0  0  0  0  0
   28.1166  -16.3272  -16.4607 C   0  0  2  0  0  0  0  0  0  0  0  0
   29.3222  -15.5490  -16.0227 C   0  0  0  0  0  0  0  0  0  0  0  0
   27.1455  -16.5636  -15.3501 C   0  0  0  0  0  0  0  0  0  0  0  0
   26.0214  -17.5087  -15.6820 C   0  0  2  0  0  0  0  0  0  0  0  0
   25.0525  -16.8535  -16.5670 N   0  0  0  0  0  0  0  0  0  0  0  0
   25.2799  -17.9878  -14.4916 C   0  0  0  0  0  0  0  0  0  0  0  0
   24.6611  -17.1433  -13.8009 O   0  0  0  0  0  0  0  0  0  0  0  0
   22.5627  -23.7840  -13.7329 C   0  0  0  0  0  0  0  0  0  0  0  0
   21.7929  -22.8464  -12.4079 S   0  0  0  0  0  0  0  0  0  0  0  0
   22.8039  -21.3884  -12.0366 C   0  0  0  0  0  0  0  0  0  0  0  0
   23.5728  -20.9376  -13.2604 C   0  0  0  0  0  0  0  0  0  0  0  0
   24.5320  -19.8121  -12.9322 C   0  0  2  0  0  0  0  0  0  0  0  0
   25.2551  -19.3782  -14.1180 N   0  0  0  0  0  0  0  0  0  0  0  0
   25.4907  -20.3476  -11.9365 C   0  0  0  0  0  0  0  0  0  0  0  0
   26.3795  -21.1280  -12.3233 O   0  0  0  0  0  0  0  0  0  0  0  0
   25.4016  -19.9825  -10.5800 N   0  0  0  0  0  0  0  0  0  0  0  0
   26.1720  -20.6902   -9.5461 C   0  0  1  0  0  0  0  0  0  0  0  0
   26.6117  -19.6624   -8.5774 C   0  0  0  0  0  0  0  0  0  0  0  0
   27.3435  -20.1189   -7.3968 C   0  0  0  0  0  0  0  0  0  0  0  0
   27.6445  -21.4387   -7.0588 C   0  0  0  0  0  0  0  0  0  0  0  0
   28.2891  -21.4217   -5.8871 N   0  0  0  0  0  0  0  0  0  0  0  0
   28.4280  -20.1622   -5.4383 C   0  0  0  0  0  0  0  0  0  0  0  0
   29.0283  -19.6552   -4.3042 C   0  0  0  0  0  0  0  0  0  0  0  0
   29.0213  -18.2751   -4.1391 C   0  0  0  0  0  0  0  0  0  0  0  0
   28.4452  -17.4378   -5.0565 C   0  0  0  0  0  0  0  0  0  0  0  0
   27.8512  -17.9606   -6.1797 C   0  0  0  0  0  0  0  0  0  0  0  0
   27.8362  -19.3357   -6.3818 C   0  0  0  0  0  0  0  0  0  0  0  0
   25.4307  -21.7830   -8.9463 C   0  0  0  0  0  0  0  0  0  0  0  0
   24.1752  -21.8330   -8.8344 O   0  0  0  0  0  0  0  0  0  0  0  0
   26.1243  -22.8919   -8.4454 O   0  0  0  0  0  0  0  0  0  0  0  0
  2  1  1  1
  2  3  1  0
  4  2  1  0
  5  4  1  0
  5  6  1  6
  7  5  1  0
  7  8  2  0
  9 10  1  0
 10 11  1  0
 11 12  1  0
 13 12  1  6
 13 14  1  0
 14  7  1  0
 15 13  1  0
 16 15  2  0
 17 15  1  0
 18 17  1  0
 18 19  1  1
 19 20  1  0
 20 28  1  0
 20 21  2  0
 21 22  1  0
 23 24  2  0
 23 22  1  0
 25 24  1  0
 26 25  2  0
 27 26  1  0
 27 28  2  0
 28 23  1  0
 29 18  1  0
 30 29  2  0
 31 29  1  0
M  END
$$$$
