LMW.pdb
     RDKit          3D

 31 32  0  0  1  0  0  0  0  0999 V2000
   23.2990  -18.0158  -16.3966 C   0  0  0  0  0  0  0  0  0  0  0  0
   23.9819  -19.3786  -16.4979 C   0  0  2  0  0  0  0  0  0  0  0  0
   23.3342  -20.1240  -17.6274 C   0  0  0  0  0  0  0  0  0  0  0  0
   23.8434  -20.0808  -15.1863 C   0  0  0  0  0  0  0  0  0  0  0  0
   24.5142  -19.3941  -14.0263 C   0  0  2  0  0  0  0  0  0  0  0  0
   25.4687  -18.3924  -14.5129 N   0  0  0  0  0  0  0  0  0  0  0  0
   25.2579  -20.3201  -13.1399 C   0  0  0  0  0  0  0  0  0  0  0  0
   24.7284  -21.4213  -12.8572 O   0  0  0  0  0  0  0  0  0  0  0  0
   32.0557  -22.9133  -10.1571 C   0  0  0  0  0  0  0  0  0  0  0  0
   31.2405  -21.7535  -11.2606 S   0  0  0  0  0  0  0  0  0  0  0  0
   29.4524  -21.7982  -10.9661 C   0  0  0  0  0  0  0  0  0  0  0  0
   28.7363  -20.7836  -11.8321 C   0  0  0  0  0  0  0  0  0  0  0  0
   27.2321  -20.8966  -11.6945 C   0  0  2  0  0  0  0  0  0  0  0  0
   26.5533  -19.9880  -12.6060 N   0  0  0  0  0  0  0  0  0  0  0  0
   26.9047  -20.5303  -10.2958 C   0  0  0  0  0  0  0  0  0  0  0  0
   27.4178  -19.5052   -9.8115 O   0  0  0  0  0  0  0  0  0  0  0  0
   26.0308  -21.3227   -9.5279 N   0  0  0  0  0  0  0  0  0  0  0  0
   25.9483  -21.1731   -8.0671 C   0  0  1  0  0  0  0  0  0  0  0  0
   25.9970  -19.7202   -7.7937 C   0  0  0  0  0  0  0  0  0  0  0  0
   27.0895  -19.2289   -6.9553 C   0  0  0  0  0  0  0  0  0  0  0  0
   27.8653  -18.0905   -7.1761 C   0  0  0  0  0  0  0  0  0  0  0  0
   28.7756  -18.0227   -6.1986 N   0  0  0  0  0  0  0  0  0  0  0  0
   28.6385  -19.0544   -5.3480 C   0  0  0  0  0  0  0  0  0  0  0  0
   29.3257  -19.3925   -4.2003 C   0  0  0  0  0  0  0  0  0  0  0  0
   28.9157  -20.5343   -3.5220 C   0  0  0  0  0  0  0  0  0  0  0  0
   27.8729  -21.3045   -3.9624 C   0  0  0  0  0  0  0  0  0  0  0  0
   27.2006  -20.9529   -5.1079 C   0  0  0  0  0  0  0  0  0  0  0  0
   27.5799  -19.8185   -5.8160 C   0  0  0  0  0  0  0  0  0  0  0  0
   24.7903  -21.8383   -7.5013 C   0  0  0  0  0  0  0  0  0  0  0  0
   23.7231  -22.0924   -8.1241 O   0  0  0  0  0  0  0  0  0  0  0  0
   24.8201  -22.2531   -6.1639 O   0  0  0  0  0  0  0  0  0  0  0  0
  2  1  1  1
  2  3  1  0
  4  2  1  0
  5  4  1  0
  5  6  1  6
  7  5  1  0
  7  8  2  0
  9 10  1  0
 10 11  1  0
 11 12  1  0
 13 12  1  1
 13 14  1  0
 14  7  1  0
 15 13  1  0
 16 15  2  0
 17 15  1  0
 18 17  1  0
 18 19  1  6
 19 20  1  0
 20 28  1  0
 20 21  2  0
 21 22  1  0
 23 24  2  0
 23 22  1  0
 25 24  1  0
 26 25  2  0
 27 26  1  0
 27 28  2  0
 28 23  1  0
 29 18  1  0
 30 29  2  0
 31 29  1  0
M  END
$$$$
