LMW.pdb
     RDKit          3D

 31 32  0  0  1  0  0  0  0  0999 V2000
   27.1247  -15.9604  -14.4656 C   0  0  0  0  0  0  0  0  0  0  0  0
   26.0825  -16.9851  -14.9103 C   0  0  2  0  0  0  0  0  0  0  0  0
   24.7291  -16.3802  -14.6793 C   0  0  0  0  0  0  0  0  0  0  0  0
   26.2925  -18.2462  -14.1370 C   0  0  0  0  0  0  0  0  0  0  0  0
   27.6730  -18.8363  -14.2504 C   0  0  2  0  0  0  0  0  0  0  0  0
   27.9468  -19.2230  -15.6386 N   0  0  0  0  0  0  0  0  0  0  0  0
   27.8736  -20.0391  -13.4083 C   0  0  0  0  0  0  0  0  0  0  0  0
   27.2956  -21.1000  -13.7451 O   0  0  0  0  0  0  0  0  0  0  0  0
   32.4253  -20.7998   -8.4661 C   0  0  0  0  0  0  0  0  0  0  0  0
   32.1848  -22.4123   -9.2206 S   0  0  0  0  0  0  0  0  0  0  0  0
   30.5549  -22.4691  -10.0121 C   0  0  0  0  0  0  0  0  0  0  0  0
   30.2595  -21.1722  -10.7353 C   0  0  0  0  0  0  0  0  0  0  0  0
   28.9338  -21.2312  -11.4656 C   0  0  2  0  0  0  0  0  0  0  0  0
   28.7040  -20.0159  -12.2321 N   0  0  0  0  0  0  0  0  0  0  0  0
   27.8833  -21.3682  -10.4287 C   0  0  0  0  0  0  0  0  0  0  0  0
   27.8943  -22.3748   -9.6971 O   0  0  0  0  0  0  0  0  0  0  0  0
   26.8920  -20.3813  -10.2708 N   0  0  0  0  0  0  0  0  0  0  0  0
   25.6356  -20.6671   -9.5617 C   0  0  1  0  0  0  0  0  0  0  0  0
   25.5671  -19.7121   -8.4340 C   0  0  0  0  0  0  0  0  0  0  0  0
   26.8151  -19.4001   -7.7390 C   0  0  0  0  0  0  0  0  0  0  0  0
   27.7976  -18.4988   -8.1500 C   0  0  0  0  0  0  0  0  0  0  0  0
   28.7888  -18.5405   -7.2530 N   0  0  0  0  0  0  0  0  0  0  0  0
   28.5095  -19.4198   -6.2754 C   0  0  0  0  0  0  0  0  0  0  0  0
   29.2109  -19.7857   -5.1450 C   0  0  0  0  0  0  0  0  0  0  0  0
   28.6261  -20.7269   -4.3058 C   0  0  0  0  0  0  0  0  0  0  0  0
   27.4028  -21.2790   -4.5762 C   0  0  0  0  0  0  0  0  0  0  0  0
   26.7189  -20.9032   -5.7071 C   0  0  0  0  0  0  0  0  0  0  0  0
   27.2695  -19.9653   -6.5727 C   0  0  0  0  0  0  0  0  0  0  0  0
   24.4787  -20.6274  -10.4354 C   0  0  0  0  0  0  0  0  0  0  0  0
   24.5028  -20.3159  -11.6576 O   0  0  0  0  0  0  0  0  0  0  0  0
   23.2181  -20.9600   -9.9238 O   0  0  0  0  0  0  0  0  0  0  0  0
  2  1  1  1
  2  3  1  0
  4  2  1  0
  5  4  1  0
  5  6  1  6
  7  5  1  0
  7  8  2  0
  9 10  1  0
 10 11  1  0
 11 12  1  0
 13 12  1  1
 13 14  1  0
 14  7  1  0
 15 13  1  0
 16 15  2  0
 17 15  1  0
 18 17  1  0
 18 19  1  1
 19 20  1  0
 20 28  1  0
 20 21  2  0
 21 22  1  0
 23 24  2  0
 23 22  1  0
 25 24  1  0
 26 25  2  0
 27 26  1  0
 27 28  2  0
 28 23  1  0
 29 18  1  0
 30 29  2  0
 31 29  1  0
M  END
$$$$
