RIY.pdb
     RDKit          3D

 32 32  0  0  1  0  0  0  0  0999 V2000
   27.6507  -17.6679  -21.2052 N   0  0  0  0  0  0  0  0  0  0  0  0
   26.7140  -16.6839  -20.7939 C   0  0  0  0  0  0  0  0  0  0  0  0
   26.1943  -15.9176  -21.6772 N   0  0  0  0  0  0  0  0  0  0  0  0
   26.3997  -16.5984  -19.4080 N   0  0  0  0  0  0  0  0  0  0  0  0
   27.0793  -17.4718  -18.4801 C   0  0  0  0  0  0  0  0  0  0  0  0
   26.4965  -18.8416  -18.5035 C   0  0  0  0  0  0  0  0  0  0  0  0
   26.0145  -19.2921  -17.1177 C   0  0  0  0  0  0  0  0  0  0  0  0
   27.2255  -19.8608  -16.4432 C   0  0  2  0  0  0  0  0  0  0  0  0
   28.0710  -20.4745  -17.4446 N   0  0  0  0  0  0  0  0  0  0  0  0
   26.9216  -20.7660  -15.3042 C   0  0  0  0  0  0  0  0  0  0  0  0
   26.2774  -21.8338  -15.4948 O   0  0  0  0  0  0  0  0  0  0  0  0
   25.4684  -15.2284  -21.4028 C   0  0  0  0  0  0  0  0  0  0  0  0
   30.0006  -20.4362  -10.5631 C   0  0  0  0  0  0  0  0  0  0  0  0
   29.3193  -20.9275  -11.8319 C   0  0  2  0  0  0  0  0  0  0  0  0
   27.8235  -20.8223  -11.6181 C   0  0  0  0  0  0  0  0  0  0  0  0
   27.4781  -21.6507  -10.4231 C   0  0  2  0  0  0  0  0  0  0  0  0
   27.0346  -21.1161  -12.8350 N   0  0  0  0  0  0  0  0  0  0  0  0
   27.3780  -20.3800  -14.0139 C   0  0  0  0  0  0  0  0  0  0  0  0
   25.5775  -20.8674  -12.5058 O   0  0  0  0  0  0  0  0  0  0  0  0
   25.0525  -19.7583  -12.7888 O   0  0  0  0  0  0  0  0  0  0  0  0
   17.9552  -18.2545  -10.9554 C   0  0  0  0  0  0  0  0  0  0  0  0
   19.2533  -18.7096  -11.0747 C   0  0  0  0  0  0  0  0  0  0  0  0
   19.9471  -19.1808   -9.9774 C   0  0  0  0  0  0  0  0  0  0  0  0
   21.2398  -19.6272  -10.1315 C   0  0  0  0  0  0  0  0  0  0  0  0
   21.8367  -19.6043  -11.3669 C   0  0  0  0  0  0  0  0  0  0  0  0
   23.2178  -20.0780  -11.5205 C   0  0  1  0  0  0  0  0  0  0  0  0
   23.3186  -21.5613  -11.7454 N   0  0  0  0  0  0  0  0  0  0  0  0
   24.7617  -21.8456  -11.8825 C   0  0  0  0  0  0  0  0  0  0  0  0
   22.5925  -21.9263  -12.9789 O   0  0  0  0  0  0  0  0  0  0  0  0
   23.3020  -22.1797  -14.0128 C   0  0  0  0  0  0  0  0  0  0  0  0
   21.1416  -19.1317  -12.4692 C   0  0  0  0  0  0  0  0  0  0  0  0
   19.8566  -18.6897  -12.3086 O   0  0  0  0  0  0  0  0  0  0  0  0
  2  1  1  0
  2  3  2  0
  4  2  1  0
  5  4  1  0
  6  5  1  0
  7  6  1  0
  8  9  1  6
  8  7  1  0
 10  8  1  0
 11 10  2  0
 13 12  1  0
 14 13  1  0
 14 16  1  0
 14 15  1  6
 16 18  1  0
 16 17  1  6
 17 10  1  0
 18 27  1  0
 19 18  2  0
 21 22  2  0
 21 20  1  0
 23 22  1  0
 24 23  2  0
 25 24  1  0
 26 25  1  1
 27 26  1  0
 28 26  1  0
 28 32  1  0
 29 28  2  0
 30 24  1  0
 30 31  2  0
 31 21  1  0
M  END
$$$$
