RIY.pdb
     RDKit          3D

 32 32  0  0  1  0  0  0  0  0999 V2000
   29.5573  -26.5947  -16.2865 N   0  0  0  0  0  0  0  0  0  0  0  0
   28.3826  -26.4675  -17.0729 C   0  0  0  0  0  0  0  0  0  0  0  0
   27.5511  -27.4397  -17.1041 N   0  0  0  0  0  0  0  0  0  0  0  0
   28.1891  -25.2552  -17.7940 N   0  0  0  0  0  0  0  0  0  0  0  0
   28.9337  -24.0810  -17.4032 C   0  0  0  0  0  0  0  0  0  0  0  0
   28.6596  -23.7156  -15.9862 C   0  0  0  0  0  0  0  0  0  0  0  0
   28.8525  -22.2155  -15.7250 C   0  0  0  0  0  0  0  0  0  0  0  0
   27.8370  -21.5300  -16.5874 C   0  0  2  0  0  0  0  0  0  0  0  0
   28.5107  -20.9541  -17.7315 N   0  0  0  0  0  0  0  0  0  0  0  0
   26.9808  -20.5539  -15.8642 C   0  0  0  0  0  0  0  0  0  0  0  0
   27.4068  -19.3914  -15.6218 O   0  0  0  0  0  0  0  0  0  0  0  0
   26.7408  -27.4080  -17.7519 C   0  0  0  0  0  0  0  0  0  0  0  0
   24.4550  -19.5099  -17.9506 C   0  0  0  0  0  0  0  0  0  0  0  0
   23.9919  -18.6863  -16.7579 C   0  0  2  0  0  0  0  0  0  0  0  0
   23.6052  -19.6523  -15.6573 C   0  0  0  0  0  0  0  0  0  0  0  0
   22.4769  -19.0389  -14.8929 C   0  0  2  0  0  0  0  0  0  0  0  0
   24.7530  -20.0954  -14.8351 N   0  0  0  0  0  0  0  0  0  0  0  0
   25.6856  -20.9820  -15.4626 C   0  0  0  0  0  0  0  0  0  0  0  0
   24.1960  -20.7631  -13.5952 O   0  0  0  0  0  0  0  0  0  0  0  0
   23.6429  -21.8907  -13.6865 O   0  0  0  0  0  0  0  0  0  0  0  0
   29.7988  -21.7345  -10.0019 C   0  0  0  0  0  0  0  0  0  0  0  0
   28.4622  -21.3888   -9.9812 C   0  0  0  0  0  0  0  0  0  0  0  0
   28.0448  -20.1880   -9.4414 C   0  0  0  0  0  0  0  0  0  0  0  0
   26.7046  -19.8746   -9.4369 C   0  0  0  0  0  0  0  0  0  0  0  0
   25.7882  -20.7489   -9.9647 C   0  0  0  0  0  0  0  0  0  0  0  0
   24.3603  -20.4079   -9.9509 C   0  0  2  0  0  0  0  0  0  0  0  0
   23.6258  -20.8639  -11.1813 N   0  0  0  0  0  0  0  0  0  0  0  0
   24.2712  -20.1652  -12.3115 C   0  0  0  0  0  0  0  0  0  0  0  0
   22.2013  -20.4874  -11.0764 O   0  0  0  0  0  0  0  0  0  0  0  0
   21.8453  -19.4065  -11.6608 C   0  0  0  0  0  0  0  0  0  0  0  0
   26.2056  -21.9545  -10.5070 C   0  0  0  0  0  0  0  0  0  0  0  0
   27.5396  -22.2593  -10.5082 O   0  0  0  0  0  0  0  0  0  0  0  0
  2  1  1  0
  2  3  2  0
  4  2  1  0
  5  4  1  0
  6  5  1  0
  7  6  1  0
  8  9  1  6
  8  7  1  0
 10  8  1  0
 11 10  2  0
 13 12  1  0
 14 13  1  0
 14 16  1  0
 14 15  1  1
 16 18  1  0
 16 17  1  1
 17 10  1  0
 18 27  1  0
 19 18  2  0
 21 22  2  0
 21 20  1  0
 23 22  1  0
 24 23  2  0
 25 24  1  0
 26 25  1  6
 27 26  1  0
 28 26  1  0
 28 32  1  0
 29 28  2  0
 30 24  1  0
 30 31  2  0
 31 21  1  0
M  END
$$$$
