RIY.pdb
     RDKit          3D

 32 32  0  0  1  0  0  0  0  0999 V2000
   27.3185  -28.7143  -17.4600 N   0  0  0  0  0  0  0  0  0  0  0  0
   27.0686  -29.0598  -18.8138 C   0  0  0  0  0  0  0  0  0  0  0  0
   27.8726  -28.6415  -19.7172 N   0  0  0  0  0  0  0  0  0  0  0  0
   25.9258  -29.8595  -19.0994 N   0  0  0  0  0  0  0  0  0  0  0  0
   25.1190  -30.3451  -18.0045 C   0  0  0  0  0  0  0  0  0  0  0  0
   25.7609  -31.5114  -17.3377 C   0  0  0  0  0  0  0  0  0  0  0  0
   24.8402  -32.1663  -16.2989 C   0  0  0  0  0  0  0  0  0  0  0  0
   25.6463  -33.2788  -15.7011 C   0  0  2  0  0  0  0  0  0  0  0  0
   25.7770  -34.3368  -16.6798 N   0  0  0  0  0  0  0  0  0  0  0  0
   25.1435  -33.7599  -14.3878 C   0  0  0  0  0  0  0  0  0  0  0  0
   24.1114  -34.4828  -14.3280 O   0  0  0  0  0  0  0  0  0  0  0  0
   27.6778  -28.8412  -20.7169 C   0  0  0  0  0  0  0  0  0  0  0  0
   27.0841  -33.8765   -8.4787 C   0  0  0  0  0  0  0  0  0  0  0  0
   25.9337  -34.0117   -9.4655 C   0  0  2  0  0  0  0  0  0  0  0  0
   26.4443  -33.5819  -10.8252 C   0  0  0  0  0  0  0  0  0  0  0  0
   26.9696  -32.1892  -10.6915 C   0  0  2  0  0  0  0  0  0  0  0  0
   25.4593  -33.7799  -11.9115 N   0  0  0  0  0  0  0  0  0  0  0  0
   25.8627  -33.3732  -13.2235 C   0  0  0  0  0  0  0  0  0  0  0  0
   24.2003  -33.0303  -11.5286 O   0  0  0  0  0  0  0  0  0  0  0  0
   23.8978  -31.9665  -12.1307 O   0  0  0  0  0  0  0  0  0  0  0  0
   16.2238  -30.5291  -11.4319 C   0  0  0  0  0  0  0  0  0  0  0  0
   17.4780  -31.1050  -11.4737 C   0  0  0  0  0  0  0  0  0  0  0  0
   18.5447  -30.4488  -12.0562 C   0  0  0  0  0  0  0  0  0  0  0  0
   19.7817  -31.0516  -12.0808 C   0  0  0  0  0  0  0  0  0  0  0  0
   19.9552  -32.2968  -11.5308 C   0  0  0  0  0  0  0  0  0  0  0  0
   21.2775  -32.9338  -11.5663 C   0  0  1  0  0  0  0  0  0  0  0  0
   22.0630  -32.7495  -10.2975 N   0  0  0  0  0  0  0  0  0  0  0  0
   23.3296  -33.4812  -10.5041 C   0  0  0  0  0  0  0  0  0  0  0  0
   21.3091  -33.3164   -9.1608 O   0  0  0  0  0  0  0  0  0  0  0  0
   21.4964  -34.5557   -8.9044 C   0  0  0  0  0  0  0  0  0  0  0  0
   18.8856  -32.9566  -10.9458 C   0  0  0  0  0  0  0  0  0  0  0  0
   17.6587  -32.3511  -10.9248 O   0  0  0  0  0  0  0  0  0  0  0  0
  2  1  1  0
  2  3  2  0
  4  2  1  0
  5  4  1  0
  6  5  1  0
  7  6  1  0
  8  9  1  6
  8  7  1  0
 10  8  1  0
 11 10  2  0
 13 12  1  0
 14 13  1  0
 14 16  1  0
 14 15  1  6
 16 18  1  0
 16 17  1  1
 17 10  1  0
 18 27  1  0
 19 18  2  0
 21 22  2  0
 21 20  1  0
 23 22  1  0
 24 23  2  0
 25 24  1  0
 26 25  1  6
 27 26  1  0
 28 26  1  0
 28 32  1  0
 29 28  2  0
 30 24  1  0
 30 31  2  0
 31 21  1  0
M  END
$$$$
