RIY.pdb
     RDKit          3D

 32 32  0  0  1  0  0  0  0  0999 V2000
   28.7613  -17.3689  -19.5548 N   0  0  0  0  0  0  0  0  0  0  0  0
   28.2582  -16.5817  -18.4862 C   0  0  0  0  0  0  0  0  0  0  0  0
   28.4537  -15.3173  -18.5043 N   0  0  0  0  0  0  0  0  0  0  0  0
   27.5575  -17.2455  -17.4395 N   0  0  0  0  0  0  0  0  0  0  0  0
   28.0804  -18.4896  -16.9252 C   0  0  0  0  0  0  0  0  0  0  0  0
   27.5502  -19.6535  -17.6873 C   0  0  0  0  0  0  0  0  0  0  0  0
   26.4518  -20.4002  -16.9181 C   0  0  0  0  0  0  0  0  0  0  0  0
   27.1765  -21.2552  -15.9238 C   0  0  2  0  0  0  0  0  0  0  0  0
   27.7264  -22.4040  -16.6110 N   0  0  0  0  0  0  0  0  0  0  0  0
   26.3695  -21.6222  -14.7309 C   0  0  0  0  0  0  0  0  0  0  0  0
   25.5261  -22.5581  -14.7969 O   0  0  0  0  0  0  0  0  0  0  0  0
   28.1170  -14.7296  -17.7179 C   0  0  0  0  0  0  0  0  0  0  0  0
   28.5976  -20.9095   -9.7011 C   0  0  0  0  0  0  0  0  0  0  0  0
   27.9221  -21.4928  -10.9335 C   0  0  2  0  0  0  0  0  0  0  0  0
   26.5596  -20.8433  -11.0591 C   0  0  0  0  0  0  0  0  0  0  0  0
   25.7897  -21.1641   -9.8190 C   0  0  2  0  0  0  0  0  0  0  0  0
   25.8699  -21.1669  -12.3277 N   0  0  0  0  0  0  0  0  0  0  0  0
   26.5843  -20.8827  -13.5354 C   0  0  0  0  0  0  0  0  0  0  0  0
   24.5588  -20.4091  -12.3408 O   0  0  0  0  0  0  0  0  0  0  0  0
   24.5572  -19.1644  -12.5316 O   0  0  0  0  0  0  0  0  0  0  0  0
   17.6408  -17.9158  -16.3896 C   0  0  0  0  0  0  0  0  0  0  0  0
   18.7560  -18.4972  -15.8196 C   0  0  0  0  0  0  0  0  0  0  0  0
   18.8809  -19.8703  -15.7379 C   0  0  0  0  0  0  0  0  0  0  0  0
   20.0058  -20.4171  -15.1636 C   0  0  0  0  0  0  0  0  0  0  0  0
   20.9972  -19.6041  -14.6744 C   0  0  0  0  0  0  0  0  0  0  0  0
   22.1912  -20.1966  -14.0589 C   0  0  1  0  0  0  0  0  0  0  0  0
   22.0876  -20.3326  -12.5650 N   0  0  0  0  0  0  0  0  0  0  0  0
   23.3089  -21.0500  -12.1454 C   0  0  0  0  0  0  0  0  0  0  0  0
   20.8789  -21.1085  -12.2204 O   0  0  0  0  0  0  0  0  0  0  0  0
   20.9637  -22.3815  -12.3145 C   0  0  0  0  0  0  0  0  0  0  0  0
   20.8732  -18.2259  -14.7557 C   0  0  0  0  0  0  0  0  0  0  0  0
   19.7522  -17.6893  -15.3282 O   0  0  0  0  0  0  0  0  0  0  0  0
  2  1  1  0
  2  3  2  0
  4  2  1  0
  5  4  1  0
  6  5  1  0
  7  6  1  0
  8  9  1  6
  8  7  1  0
 10  8  1  0
 11 10  2  0
 13 12  1  0
 14 13  1  0
 14 16  1  0
 14 15  1  6
 16 18  1  0
 16 17  1  6
 17 10  1  0
 18 27  1  0
 19 18  2  0
 21 22  2  0
 21 20  1  0
 23 22  1  0
 24 23  2  0
 25 24  1  0
 26 25  1  1
 27 26  1  0
 28 26  1  0
 28 32  1  0
 29 28  2  0
 30 24  1  0
 30 31  2  0
 31 21  1  0
M  END
$$$$
