RIY.pdb
     RDKit          3D

 32 32  0  0  1  0  0  0  0  0999 V2000
   19.9308  -23.3366  -14.5074 N   0  0  0  0  0  0  0  0  0  0  0  0
   20.9396  -23.8481  -13.6498 C   0  0  0  0  0  0  0  0  0  0  0  0
   21.4028  -25.0204  -13.8706 N   0  0  0  0  0  0  0  0  0  0  0  0
   21.3867  -23.0242  -12.5782 N   0  0  0  0  0  0  0  0  0  0  0  0
   22.4916  -22.1216  -12.8021 C   0  0  0  0  0  0  0  0  0  0  0  0
   23.7764  -22.7178  -12.3431 C   0  0  0  0  0  0  0  0  0  0  0  0
   24.9558  -21.7481  -12.4993 C   0  0  0  0  0  0  0  0  0  0  0  0
   24.8795  -21.2568  -13.9127 C   0  0  2  0  0  0  0  0  0  0  0  0
   25.6090  -22.1722  -14.7638 N   0  0  0  0  0  0  0  0  0  0  0  0
   25.2948  -19.8409  -14.0904 C   0  0  0  0  0  0  0  0  0  0  0  0
   25.6234  -19.1444  -13.0912 O   0  0  0  0  0  0  0  0  0  0  0  0
   22.1666  -25.3960  -13.2767 C   0  0  0  0  0  0  0  0  0  0  0  0
   27.7318  -16.3316  -18.4856 C   0  0  0  0  0  0  0  0  0  0  0  0
   26.9613  -16.3702  -17.1741 C   0  0  2  0  0  0  0  0  0  0  0  0
   26.5661  -17.8098  -16.9178 C   0  0  0  0  0  0  0  0  0  0  0  0
   25.9553  -18.3415  -18.1738 C   0  0  2  0  0  0  0  0  0  0  0  0
   25.7469  -17.9852  -15.6981 N   0  0  0  0  0  0  0  0  0  0  0  0
   25.3016  -19.3154  -15.4118 C   0  0  0  0  0  0  0  0  0  0  0  0
   24.5407  -17.0782  -15.8236 O   0  0  0  0  0  0  0  0  0  0  0  0
   23.5814  -17.4120  -16.5681 O   0  0  0  0  0  0  0  0  0  0  0  0
   19.4903  -10.0829  -16.6372 C   0  0  0  0  0  0  0  0  0  0  0  0
   20.5101  -10.9581  -16.3201 C   0  0  0  0  0  0  0  0  0  0  0  0
   20.6967  -11.3956  -15.0234 C   0  0  0  0  0  0  0  0  0  0  0  0
   21.7232  -12.2681  -14.7420 C   0  0  0  0  0  0  0  0  0  0  0  0
   22.5567  -12.7010  -15.7424 C   0  0  0  0  0  0  0  0  0  0  0  0
   23.6520  -13.6279  -15.4316 C   0  0  1  0  0  0  0  0  0  0  0  0
   23.2032  -15.0561  -15.2901 N   0  0  0  0  0  0  0  0  0  0  0  0
   24.4400  -15.8472  -15.1268 C   0  0  0  0  0  0  0  0  0  0  0  0
   22.4729  -15.4691  -16.5058 O   0  0  0  0  0  0  0  0  0  0  0  0
   21.2236  -15.7111  -16.3745 C   0  0  0  0  0  0  0  0  0  0  0  0
   22.3706  -12.2629  -17.0444 C   0  0  0  0  0  0  0  0  0  0  0  0
   21.3479  -11.3956  -17.3168 O   0  0  0  0  0  0  0  0  0  0  0  0
  2  1  1  0
  2  3  2  0
  4  2  1  0
  5  4  1  0
  6  5  1  0
  7  6  1  0
  8  9  1  6
  8  7  1  0
 10  8  1  0
 11 10  2  0
 13 12  1  0
 14 13  1  0
 14 16  1  0
 14 15  1  1
 16 18  1  0
 16 17  1  6
 17 10  1  0
 18 27  1  0
 19 18  2  0
 21 22  2  0
 21 20  1  0
 23 22  1  0
 24 23  2  0
 25 24  1  0
 26 25  1  1
 27 26  1  0
 28 26  1  0
 28 32  1  0
 29 28  2  0
 30 24  1  0
 30 31  2  0
 31 21  1  0
M  END
$$$$
