RIY.pdb
     RDKit          3D

 32 32  0  0  1  0  0  0  0  0999 V2000
   12.5308  -23.3605   -2.6878 N   0  0  0  0  0  0  0  0  0  0  0  0
   13.7940  -22.7209   -2.5873 C   0  0  0  0  0  0  0  0  0  0  0  0
   14.0480  -22.0132   -1.5519 N   0  0  0  0  0  0  0  0  0  0  0  0
   14.7204  -22.9001   -3.6535 N   0  0  0  0  0  0  0  0  0  0  0  0
   14.3409  -23.7180   -4.7816 C   0  0  0  0  0  0  0  0  0  0  0  0
   15.1929  -24.9355   -4.8756 C   0  0  0  0  0  0  0  0  0  0  0  0
   16.6709  -24.5939   -5.1088 C   0  0  0  0  0  0  0  0  0  0  0  0
   17.3751  -25.9143   -5.1833 C   0  0  2  0  0  0  0  0  0  0  0  0
   16.9083  -26.6254   -6.3541 N   0  0  0  0  0  0  0  0  0  0  0  0
   17.2900  -26.7229   -3.9391 C   0  0  0  0  0  0  0  0  0  0  0  0
   16.2631  -27.4154   -3.6997 O   0  0  0  0  0  0  0  0  0  0  0  0
   14.9258  -21.4615   -1.5041 C   0  0  0  0  0  0  0  0  0  0  0  0
   21.8275  -29.2042   -2.1102 C   0  0  0  0  0  0  0  0  0  0  0  0
   20.3989  -28.9048   -2.5402 C   0  0  2  0  0  0  0  0  0  0  0  0
   19.7809  -28.0119   -1.4843 C   0  0  0  0  0  0  0  0  0  0  0  0
   19.8228  -28.7508   -0.1860 C   0  0  2  0  0  0  0  0  0  0  0  0
   18.4510  -27.4865   -1.8652 N   0  0  0  0  0  0  0  0  0  0  0  0
   18.3958  -26.6790   -3.0461 C   0  0  0  0  0  0  0  0  0  0  0  0
   17.9247  -26.6834   -0.6941 O   0  0  0  0  0  0  0  0  0  0  0  0
   18.4556  -25.5791   -0.4035 O   0  0  0  0  0  0  0  0  0  0  0  0
   14.2371  -20.4258    1.9931 C   0  0  0  0  0  0  0  0  0  0  0  0
   14.4609  -21.7696    1.7682 C   0  0  0  0  0  0  0  0  0  0  0  0
   15.7437  -22.2763    1.6963 C   0  0  0  0  0  0  0  0  0  0  0  0
   15.9313  -23.6210    1.4710 C   0  0  0  0  0  0  0  0  0  0  0  0
   14.8514  -24.4538    1.3180 C   0  0  0  0  0  0  0  0  0  0  0  0
   15.0616  -25.8860    1.0730 C   0  0  2  0  0  0  0  0  0  0  0  0
   16.4819  -26.3272    1.2944 N   0  0  0  0  0  0  0  0  0  0  0  0
   16.8400  -27.1264    0.1047 C   0  0  0  0  0  0  0  0  0  0  0  0
   16.5610  -27.1472    2.5204 O   0  0  0  0  0  0  0  0  0  0  0  0
   16.3981  -26.5383    3.6337 C   0  0  0  0  0  0  0  0  0  0  0  0
   13.5633  -23.9467    1.3900 C   0  0  0  0  0  0  0  0  0  0  0  0
   13.3844  -22.6088    1.6146 O   0  0  0  0  0  0  0  0  0  0  0  0
  2  1  1  0
  2  3  2  0
  4  2  1  0
  5  4  1  0
  6  5  1  0
  7  6  1  0
  8  9  1  6
  8  7  1  0
 10  8  1  0
 11 10  2  0
 13 12  1  0
 14 13  1  0
 14 16  1  0
 14 15  1  6
 16 18  1  0
 16 17  1  6
 17 10  1  0
 18 27  1  0
 19 18  2  0
 21 22  2  0
 21 20  1  0
 23 22  1  0
 24 23  2  0
 25 24  1  0
 26 25  1  6
 27 26  1  0
 28 26  1  0
 28 32  1  0
 29 28  2  0
 30 24  1  0
 30 31  2  0
 31 21  1  0
M  END
$$$$
