RIY.pdb
     RDKit          3D

 32 32  0  0  1  0  0  0  0  0999 V2000
   23.4418  -22.8529  -18.9404 N   0  0  0  0  0  0  0  0  0  0  0  0
   22.9762  -22.3451  -17.6995 C   0  0  0  0  0  0  0  0  0  0  0  0
   22.1197  -23.0253  -17.0353 N   0  0  0  0  0  0  0  0  0  0  0  0
   23.4894  -21.0937  -17.2547 N   0  0  0  0  0  0  0  0  0  0  0  0
   24.4743  -20.4132  -18.0625 C   0  0  0  0  0  0  0  0  0  0  0  0
   25.6585  -20.0193  -17.2506 C   0  0  0  0  0  0  0  0  0  0  0  0
   26.7682  -21.0790  -17.2891 C   0  0  0  0  0  0  0  0  0  0  0  0
   27.2317  -21.2182  -15.8712 C   0  0  2  0  0  0  0  0  0  0  0  0
   28.3881  -22.0880  -15.8427 N   0  0  0  0  0  0  0  0  0  0  0  0
   26.1685  -21.6325  -14.9189 C   0  0  0  0  0  0  0  0  0  0  0  0
   25.5348  -22.7079  -15.1018 O   0  0  0  0  0  0  0  0  0  0  0  0
   21.6730  -22.6151  -16.1930 C   0  0  0  0  0  0  0  0  0  0  0  0
   25.8124  -21.3812   -8.9269 C   0  0  0  0  0  0  0  0  0  0  0  0
   24.9748  -21.5102  -10.1907 C   0  0  2  0  0  0  0  0  0  0  0  0
   25.8370  -21.0751  -11.3574 C   0  0  0  0  0  0  0  0  0  0  0  0
   26.3467  -19.7030  -11.0562 C   0  0  2  0  0  0  0  0  0  0  0  0
   25.1677  -21.2224  -12.6689 N   0  0  0  0  0  0  0  0  0  0  0  0
   25.9003  -20.7768  -13.8153 C   0  0  0  0  0  0  0  0  0  0  0  0
   23.8557  -20.4693  -12.5993 O   0  0  0  0  0  0  0  0  0  0  0  0
   23.8415  -19.2715  -12.2108 O   0  0  0  0  0  0  0  0  0  0  0  0
   20.6616  -20.5966  -19.1094 C   0  0  0  0  0  0  0  0  0  0  0  0
   20.8568  -20.2308  -17.7924 C   0  0  0  0  0  0  0  0  0  0  0  0
   19.7880  -19.9384  -16.9679 C   0  0  0  0  0  0  0  0  0  0  0  0
   20.0180  -19.5771  -15.6600 C   0  0  0  0  0  0  0  0  0  0  0  0
   21.3006  -19.5070  -15.1772 C   0  0  0  0  0  0  0  0  0  0  0  0
   21.5361  -19.1159  -13.7819 C   0  0  1  0  0  0  0  0  0  0  0  0
   21.3916  -20.2543  -12.8103 N   0  0  0  0  0  0  0  0  0  0  0  0
   22.6190  -21.0627  -12.9594 C   0  0  0  0  0  0  0  0  0  0  0  0
   20.1949  -21.0496  -13.1528 O   0  0  0  0  0  0  0  0  0  0  0  0
   20.3965  -22.2086  -13.6555 C   0  0  0  0  0  0  0  0  0  0  0  0
   22.3743  -19.8003  -16.0035 C   0  0  0  0  0  0  0  0  0  0  0  0
   22.1381  -20.1590  -17.3026 O   0  0  0  0  0  0  0  0  0  0  0  0
  2  1  1  0
  2  3  2  0
  4  2  1  0
  5  4  1  0
  6  5  1  0
  7  6  1  0
  8  9  1  6
  8  7  1  0
 10  8  1  0
 11 10  2  0
 13 12  1  0
 14 13  1  0
 14 16  1  0
 14 15  1  6
 16 18  1  0
 16 17  1  6
 17 10  1  0
 18 27  1  0
 19 18  2  0
 21 22  2  0
 21 20  1  0
 23 22  1  0
 24 23  2  0
 25 24  1  0
 26 25  1  1
 27 26  1  0
 28 26  1  0
 28 32  1  0
 29 28  2  0
 30 24  1  0
 30 31  2  0
 31 21  1  0
M  END
$$$$
