RIY.pdb
     RDKit          3D

 32 32  0  0  1  0  0  0  0  0999 V2000
   25.1089  -17.1863  -19.0944 N   0  0  0  0  0  0  0  0  0  0  0  0
   26.4959  -17.2599  -19.3865 C   0  0  0  0  0  0  0  0  0  0  0  0
   27.0276  -16.3386  -20.0979 N   0  0  0  0  0  0  0  0  0  0  0  0
   27.2300  -18.3650  -18.8700 N   0  0  0  0  0  0  0  0  0  0  0  0
   27.0237  -18.7632  -17.4972 C   0  0  0  0  0  0  0  0  0  0  0  0
   25.5807  -18.9963  -17.2144 C   0  0  0  0  0  0  0  0  0  0  0  0
   25.2836  -20.4645  -16.8801 C   0  0  0  0  0  0  0  0  0  0  0  0
   26.2660  -20.8334  -15.8107 C   0  0  2  0  0  0  0  0  0  0  0  0
   27.3220  -21.6267  -16.4023 N   0  0  0  0  0  0  0  0  0  0  0  0
   25.6565  -21.4741  -14.6162 C   0  0  0  0  0  0  0  0  0  0  0  0
   25.1664  -22.6338  -14.6970 O   0  0  0  0  0  0  0  0  0  0  0  0
   28.0312  -16.3974  -20.3560 C   0  0  0  0  0  0  0  0  0  0  0  0
   25.5884  -20.9752   -8.4902 C   0  0  0  0  0  0  0  0  0  0  0  0
   24.8300  -21.3975   -9.7400 C   0  0  2  0  0  0  0  0  0  0  0  0
   25.5137  -20.7550  -10.9290 C   0  0  0  0  0  0  0  0  0  0  0  0
   25.5017  -19.2763  -10.7130 C   0  0  2  0  0  0  0  0  0  0  0  0
   24.9717  -21.2038  -12.2307 N   0  0  0  0  0  0  0  0  0  0  0  0
   25.6478  -20.7340  -13.4020 C   0  0  0  0  0  0  0  0  0  0  0  0
   23.5208  -20.7747  -12.2938 O   0  0  0  0  0  0  0  0  0  0  0  0
   23.2214  -19.6486  -12.7714 O   0  0  0  0  0  0  0  0  0  0  0  0
   15.8128  -19.6639  -15.3139 C   0  0  0  0  0  0  0  0  0  0  0  0
   17.0642  -20.0396  -14.8672 C   0  0  0  0  0  0  0  0  0  0  0  0
   17.4177  -19.9029  -13.5391 C   0  0  0  0  0  0  0  0  0  0  0  0
   18.6734  -20.2874  -13.1274 C   0  0  0  0  0  0  0  0  0  0  0  0
   19.5694  -20.8029  -14.0299 C   0  0  0  0  0  0  0  0  0  0  0  0
   20.9083  -21.2056  -13.5822 C   0  0  1  0  0  0  0  0  0  0  0  0
   21.0771  -21.1601  -12.0887 N   0  0  0  0  0  0  0  0  0  0  0  0
   22.4638  -21.5995  -11.8316 C   0  0  0  0  0  0  0  0  0  0  0  0
   20.1097  -22.0773  -11.4523 O   0  0  0  0  0  0  0  0  0  0  0  0
   19.1638  -21.5414  -10.7779 C   0  0  0  0  0  0  0  0  0  0  0  0
   19.2160  -20.9407  -15.3632 C   0  0  0  0  0  0  0  0  0  0  0  0
   17.9657  -20.5566  -15.7653 O   0  0  0  0  0  0  0  0  0  0  0  0
  2  1  1  0
  2  3  2  0
  4  2  1  0
  5  4  1  0
  6  5  1  0
  7  6  1  0
  8  9  1  6
  8  7  1  0
 10  8  1  0
 11 10  2  0
 13 12  1  0
 14 13  1  0
 14 16  1  0
 14 15  1  6
 16 18  1  0
 16 17  1  6
 17 10  1  0
 18 27  1  0
 19 18  2  0
 21 22  2  0
 21 20  1  0
 23 22  1  0
 24 23  2  0
 25 24  1  0
 26 25  1  6
 27 26  1  0
 28 26  1  0
 28 32  1  0
 29 28  2  0
 30 24  1  0
 30 31  2  0
 31 21  1  0
M  END
$$$$
