RIY.pdb
     RDKit          3D

 32 32  0  0  1  0  0  0  0  0999 V2000
   22.8879  -26.9838  -19.4680 N   0  0  0  0  0  0  0  0  0  0  0  0
   23.7570  -27.0936  -20.5848 C   0  0  0  0  0  0  0  0  0  0  0  0
   23.2874  -27.5267  -21.6935 N   0  0  0  0  0  0  0  0  0  0  0  0
   25.1185  -26.7146  -20.4119 N   0  0  0  0  0  0  0  0  0  0  0  0
   25.5506  -26.2214  -19.1251 C   0  0  0  0  0  0  0  0  0  0  0  0
   24.8515  -24.9556  -18.7703 C   0  0  0  0  0  0  0  0  0  0  0  0
   25.3014  -24.4047  -17.4102 C   0  0  0  0  0  0  0  0  0  0  0  0
   26.3834  -23.4164  -17.7219 C   0  0  2  0  0  0  0  0  0  0  0  0
   27.3987  -24.0731  -18.5172 N   0  0  0  0  0  0  0  0  0  0  0  0
   26.9369  -22.7209  -16.5308 C   0  0  0  0  0  0  0  0  0  0  0  0
   27.9098  -23.2173  -15.8994 O   0  0  0  0  0  0  0  0  0  0  0  0
   23.9177  -27.6567  -22.5078 C   0  0  0  0  0  0  0  0  0  0  0  0
   27.9894  -17.5108  -16.5290 C   0  0  0  0  0  0  0  0  0  0  0  0
   27.9793  -19.0179  -16.3192 C   0  0  2  0  0  0  0  0  0  0  0  0
   27.0183  -19.3158  -15.1870 C   0  0  0  0  0  0  0  0  0  0  0  0
   27.5058  -18.5876  -13.9765 C   0  0  2  0  0  0  0  0  0  0  0  0
   26.7704  -20.7616  -14.9927 N   0  0  0  0  0  0  0  0  0  0  0  0
   26.3300  -21.4957  -16.1402 C   0  0  0  0  0  0  0  0  0  0  0  0
   25.7408  -20.9045  -13.8914 O   0  0  0  0  0  0  0  0  0  0  0  0
   24.6966  -20.2011  -13.9157 O   0  0  0  0  0  0  0  0  0  0  0  0
   26.0129  -19.2473   -5.5003 C   0  0  0  0  0  0  0  0  0  0  0  0
   26.1947  -19.7374   -6.7783 C   0  0  0  0  0  0  0  0  0  0  0  0
   25.9546  -21.0652   -7.0733 C   0  0  0  0  0  0  0  0  0  0  0  0
   26.1458  -21.5209   -8.3578 C   0  0  0  0  0  0  0  0  0  0  0  0
   26.5726  -20.6626   -9.3398 C   0  0  0  0  0  0  0  0  0  0  0  0
   26.7785  -21.1592  -10.7059 C   0  0  1  0  0  0  0  0  0  0  0  0
   25.4972  -21.3676  -11.4647 N   0  0  0  0  0  0  0  0  0  0  0  0
   25.9018  -21.8124  -12.8139 C   0  0  0  0  0  0  0  0  0  0  0  0
   24.7495  -20.0956  -11.5340 O   0  0  0  0  0  0  0  0  0  0  0  0
   25.3252  -19.1190  -12.1269 C   0  0  0  0  0  0  0  0  0  0  0  0
   26.8140  -19.3297   -9.0451 C   0  0  0  0  0  0  0  0  0  0  0  0
   26.6215  -18.8836   -7.7660 O   0  0  0  0  0  0  0  0  0  0  0  0
  2  1  1  0
  2  3  2  0
  4  2  1  0
  5  4  1  0
  6  5  1  0
  7  6  1  0
  8  9  1  1
  8  7  1  0
 10  8  1  0
 11 10  2  0
 13 12  1  0
 14 13  1  0
 14 16  1  0
 14 15  1  6
 16 18  1  0
 16 17  1  1
 17 10  1  0
 18 27  1  0
 19 18  2  0
 21 22  2  0
 21 20  1  0
 23 22  1  0
 24 23  2  0
 25 24  1  0
 26 25  1  1
 27 26  1  0
 28 26  1  0
 28 32  1  0
 29 28  2  0
 30 24  1  0
 30 31  2  0
 31 21  1  0
M  END
$$$$
