RIY.pdb
     RDKit          3D

 32 32  0  0  1  0  0  0  0  0999 V2000
   29.2883  -17.7266  -16.0564 N   0  0  0  0  0  0  0  0  0  0  0  0
   29.2156  -18.0006  -17.4472 C   0  0  0  0  0  0  0  0  0  0  0  0
   30.1598  -17.5920  -18.2081 N   0  0  0  0  0  0  0  0  0  0  0  0
   28.0854  -18.7205  -17.9283 N   0  0  0  0  0  0  0  0  0  0  0  0
   27.3220  -19.5257  -17.0038 C   0  0  0  0  0  0  0  0  0  0  0  0
   26.8729  -18.7228  -15.8331 C   0  0  0  0  0  0  0  0  0  0  0  0
   25.8965  -19.4973  -14.9373 C   0  0  0  0  0  0  0  0  0  0  0  0
   26.7403  -20.4912  -14.1991 C   0  0  2  0  0  0  0  0  0  0  0  0
   27.2634  -21.4523  -15.1462 N   0  0  0  0  0  0  0  0  0  0  0  0
   26.0615  -21.1270  -13.0398 C   0  0  0  0  0  0  0  0  0  0  0  0
   25.4542  -22.2237  -13.1815 O   0  0  0  0  0  0  0  0  0  0  0  0
   30.0660  -17.6715  -19.2386 C   0  0  0  0  0  0  0  0  0  0  0  0
   27.6495  -19.9194   -7.8591 C   0  0  0  0  0  0  0  0  0  0  0  0
   27.2109  -20.7391   -9.0638 C   0  0  2  0  0  0  0  0  0  0  0  0
   25.7589  -20.4071   -9.3390 C   0  0  0  0  0  0  0  0  0  0  0  0
   24.9508  -20.9302   -8.1958 C   0  0  2  0  0  0  0  0  0  0  0  0
   25.3024  -20.8370  -10.6793 N   0  0  0  0  0  0  0  0  0  0  0  0
   26.1232  -20.4547  -11.7883 C   0  0  0  0  0  0  0  0  0  0  0  0
   23.9073  -20.2850  -10.8854 O   0  0  0  0  0  0  0  0  0  0  0  0
   23.7487  -19.0597  -11.1289 O   0  0  0  0  0  0  0  0  0  0  0  0
   17.8035  -19.3075  -16.5095 C   0  0  0  0  0  0  0  0  0  0  0  0
   18.8242  -19.6476  -15.6440 C   0  0  0  0  0  0  0  0  0  0  0  0
   19.5492  -18.6772  -14.9805 C   0  0  0  0  0  0  0  0  0  0  0  0
   20.5601  -19.0508  -14.1247 C   0  0  0  0  0  0  0  0  0  0  0  0
   20.8471  -20.3787  -13.9314 C   0  0  0  0  0  0  0  0  0  0  0  0
   21.9307  -20.7674  -13.0203 C   0  0  1  0  0  0  0  0  0  0  0  0
   21.5523  -20.6725  -11.5681 N   0  0  0  0  0  0  0  0  0  0  0  0
   22.7496  -21.1010  -10.8164 C   0  0  0  0  0  0  0  0  0  0  0  0
   20.4115  -21.5697  -11.2933 O   0  0  0  0  0  0  0  0  0  0  0  0
   20.6822  -22.8048  -11.0985 C   0  0  0  0  0  0  0  0  0  0  0  0
   20.1203  -21.3539  -14.5967 C   0  0  0  0  0  0  0  0  0  0  0  0
   19.1164  -20.9750  -15.4458 O   0  0  0  0  0  0  0  0  0  0  0  0
  2  1  1  0
  2  3  2  0
  4  2  1  0
  5  4  1  0
  6  5  1  0
  7  6  1  0
  8  9  1  6
  8  7  1  0
 10  8  1  0
 11 10  2  0
 13 12  1  0
 14 13  1  0
 14 16  1  0
 14 15  1  6
 16 18  1  0
 16 17  1  6
 17 10  1  0
 18 27  1  0
 19 18  2  0
 21 22  2  0
 21 20  1  0
 23 22  1  0
 24 23  2  0
 25 24  1  0
 26 25  1  1
 27 26  1  0
 28 26  1  0
 28 32  1  0
 29 28  2  0
 30 24  1  0
 30 31  2  0
 31 21  1  0
M  END
$$$$
