RIY.pdb
     RDKit          3D

 32 32  0  0  1  0  0  0  0  0999 V2000
   10.3622  -23.5337    6.9888 N   0  0  0  0  0  0  0  0  0  0  0  0
   10.1019  -23.4334    5.5971 C   0  0  0  0  0  0  0  0  0  0  0  0
    9.0188  -23.9325    5.1331 N   0  0  0  0  0  0  0  0  0  0  0  0
   11.0682  -22.7784    4.7820 N   0  0  0  0  0  0  0  0  0  0  0  0
   12.4655  -22.8809    5.1321 C   0  0  0  0  0  0  0  0  0  0  0  0
   13.3297  -22.2653    4.0876 C   0  0  0  0  0  0  0  0  0  0  0  0
   14.7992  -22.1836    4.5230 C   0  0  0  0  0  0  0  0  0  0  0  0
   15.5412  -23.0831    3.5821 C   0  0  2  0  0  0  0  0  0  0  0  0
   14.5912  -23.7001    2.6814 N   0  0  0  0  0  0  0  0  0  0  0  0
   16.4314  -24.0668    4.2520 C   0  0  0  0  0  0  0  0  0  0  0  0
   15.9864  -25.1960    4.5960 O   0  0  0  0  0  0  0  0  0  0  0  0
    8.8280  -23.8989    4.1135 C   0  0  0  0  0  0  0  0  0  0  0  0
   21.1526  -25.1609    2.2060 C   0  0  0  0  0  0  0  0  0  0  0  0
   19.7828  -25.1014    2.8660 C   0  0  2  0  0  0  0  0  0  0  0  0
   19.9945  -24.7837    4.3317 C   0  0  0  0  0  0  0  0  0  0  0  0
   20.8983  -25.8318    4.8957 C   0  0  2  0  0  0  0  0  0  0  0  0
   18.7322  -24.5767    5.0756 N   0  0  0  0  0  0  0  0  0  0  0  0
   17.7807  -23.6840    4.4862 C   0  0  0  0  0  0  0  0  0  0  0  0
   19.0936  -24.0701    6.4563 O   0  0  0  0  0  0  0  0  0  0  0  0
   19.7581  -23.0075    6.5789 O   0  0  0  0  0  0  0  0  0  0  0  0
   13.9962  -20.7235    8.8095 C   0  0  0  0  0  0  0  0  0  0  0  0
   15.0033  -21.6318    9.0691 C   0  0  0  0  0  0  0  0  0  0  0  0
   14.8961  -22.9490    8.6679 C   0  0  0  0  0  0  0  0  0  0  0  0
   15.9187  -23.8282    8.9428 C   0  0  0  0  0  0  0  0  0  0  0  0
   17.0378  -23.4000    9.6116 C   0  0  0  0  0  0  0  0  0  0  0  0
   18.1212  -24.3464    9.9047 C   0  0  2  0  0  0  0  0  0  0  0  0
   19.2594  -24.2727    8.9249 N   0  0  0  0  0  0  0  0  0  0  0  0
   18.7095  -24.7504    7.6398 C   0  0  0  0  0  0  0  0  0  0  0  0
   20.3624  -25.1437    9.3797 O   0  0  0  0  0  0  0  0  0  0  0  0
   20.9318  -24.8268   10.4806 C   0  0  0  0  0  0  0  0  0  0  0  0
   17.1468  -22.0782   10.0149 C   0  0  0  0  0  0  0  0  0  0  0  0
   16.1263  -21.2097    9.7379 O   0  0  0  0  0  0  0  0  0  0  0  0
  2  1  1  0
  2  3  2  0
  4  2  1  0
  5  4  1  0
  6  5  1  0
  7  6  1  0
  8  9  1  1
  8  7  1  0
 10  8  1  0
 11 10  2  0
 13 12  1  0
 14 13  1  0
 14 16  1  0
 14 15  1  1
 16 18  1  0
 16 17  1  1
 17 10  1  0
 18 27  1  0
 19 18  2  0
 21 22  2  0
 21 20  1  0
 23 22  1  0
 24 23  2  0
 25 24  1  0
 26 25  1  6
 27 26  1  0
 28 26  1  0
 28 32  1  0
 29 28  2  0
 30 24  1  0
 30 31  2  0
 31 21  1  0
M  END
$$$$
