RIY.pdb
     RDKit          3D

 32 32  0  0  1  0  0  0  0  0999 V2000
   24.8829  -21.9888  -21.7901 N   0  0  0  0  0  0  0  0  0  0  0  0
   24.8189  -23.3939  -21.9801 C   0  0  0  0  0  0  0  0  0  0  0  0
   24.3665  -23.8481  -23.0876 N   0  0  0  0  0  0  0  0  0  0  0  0
   25.2636  -24.2327  -20.9191 N   0  0  0  0  0  0  0  0  0  0  0  0
   25.7520  -23.6254  -19.7033 C   0  0  0  0  0  0  0  0  0  0  0  0
   26.1410  -24.6576  -18.7034 C   0  0  0  0  0  0  0  0  0  0  0  0
   26.5221  -24.0417  -17.3503 C   0  0  0  0  0  0  0  0  0  0  0  0
   27.8029  -23.3046  -17.5977 C   0  0  2  0  0  0  0  0  0  0  0  0
   28.8698  -24.2681  -17.7640 N   0  0  0  0  0  0  0  0  0  0  0  0
   28.1130  -22.2620  -16.5849 C   0  0  0  0  0  0  0  0  0  0  0  0
   28.8113  -22.5459  -15.5733 O   0  0  0  0  0  0  0  0  0  0  0  0
   24.2977  -24.8727  -23.2380 C   0  0  0  0  0  0  0  0  0  0  0  0
   27.9628  -18.5020  -18.6132 C   0  0  0  0  0  0  0  0  0  0  0  0
   28.4422  -18.0826  -17.2313 C   0  0  2  0  0  0  0  0  0  0  0  0
   27.4111  -18.5537  -16.2268 C   0  0  0  0  0  0  0  0  0  0  0  0
   27.3538  -17.5414  -15.1289 C   0  0  2  0  0  0  0  0  0  0  0  0
   27.6192  -19.9499  -15.7831 N   0  0  0  0  0  0  0  0  0  0  0  0
   27.5943  -20.9558  -16.8016 C   0  0  0  0  0  0  0  0  0  0  0  0
   26.5548  -20.2653  -14.7531 O   0  0  0  0  0  0  0  0  0  0  0  0
   25.5379  -19.5287  -14.6583 O   0  0  0  0  0  0  0  0  0  0  0  0
   21.9799  -20.2114   -7.8047 C   0  0  0  0  0  0  0  0  0  0  0  0
   22.8801  -20.2234   -8.8516 C   0  0  0  0  0  0  0  0  0  0  0  0
   22.4778  -19.9347  -10.1409 C   0  0  0  0  0  0  0  0  0  0  0  0
   23.4011  -19.9555  -11.1613 C   0  0  0  0  0  0  0  0  0  0  0  0
   24.7132  -20.2613  -10.9005 C   0  0  0  0  0  0  0  0  0  0  0  0
   25.6899  -20.2857  -11.9963 C   0  0  1  0  0  0  0  0  0  0  0  0
   25.6139  -21.5309  -12.8359 N   0  0  0  0  0  0  0  0  0  0  0  0
   26.6526  -21.3742  -13.8745 C   0  0  0  0  0  0  0  0  0  0  0  0
   24.2731  -21.6361  -13.4466 O   0  0  0  0  0  0  0  0  0  0  0  0
   24.0569  -20.9285  -14.4902 C   0  0  0  0  0  0  0  0  0  0  0  0
   25.1185  -20.5511   -9.6069 C   0  0  0  0  0  0  0  0  0  0  0  0
   24.1950  -20.5283   -8.5974 O   0  0  0  0  0  0  0  0  0  0  0  0
  2  1  1  0
  2  3  2  0
  4  2  1  0
  5  4  1  0
  6  5  1  0
  7  6  1  0
  8  9  1  1
  8  7  1  0
 10  8  1  0
 11 10  2  0
 13 12  1  0
 14 13  1  0
 14 16  1  0
 14 15  1  1
 16 18  1  0
 16 17  1  1
 17 10  1  0
 18 27  1  0
 19 18  2  0
 21 22  2  0
 21 20  1  0
 23 22  1  0
 24 23  2  0
 25 24  1  0
 26 25  1  1
 27 26  1  0
 28 26  1  0
 28 32  1  0
 29 28  2  0
 30 24  1  0
 30 31  2  0
 31 21  1  0
M  END
$$$$
