RIY.pdb
     RDKit          3D

 32 32  0  0  1  0  0  0  0  0999 V2000
   17.1447  -20.9814  -14.1565 N   0  0  0  0  0  0  0  0  0  0  0  0
   17.3195  -20.7182  -12.7727 C   0  0  0  0  0  0  0  0  0  0  0  0
   16.2839  -20.5609  -12.0377 N   0  0  0  0  0  0  0  0  0  0  0  0
   18.6492  -20.6406  -12.2700 N   0  0  0  0  0  0  0  0  0  0  0  0
   19.7537  -20.6881  -13.1994 C   0  0  0  0  0  0  0  0  0  0  0  0
   19.8882  -22.0400  -13.8083 C   0  0  0  0  0  0  0  0  0  0  0  0
   21.2643  -22.6643  -13.5395 C   0  0  0  0  0  0  0  0  0  0  0  0
   22.2551  -21.5795  -13.8333 C   0  0  2  0  0  0  0  0  0  0  0  0
   22.3464  -21.4085  -15.2675 N   0  0  0  0  0  0  0  0  0  0  0  0
   23.5787  -21.7691  -13.1845 C   0  0  0  0  0  0  0  0  0  0  0  0
   23.8024  -22.7939  -12.4835 O   0  0  0  0  0  0  0  0  0  0  0  0
   16.3929  -20.3455  -11.0282 C   0  0  0  0  0  0  0  0  0  0  0  0
   27.1065  -18.5368  -15.3431 C   0  0  0  0  0  0  0  0  0  0  0  0
   27.0535  -19.9682  -14.8299 C   0  0  2  0  0  0  0  0  0  0  0  0
   26.8868  -19.9091  -13.3256 C   0  0  0  0  0  0  0  0  0  0  0  0
   28.2441  -20.0422  -12.7146 C   0  0  2  0  0  0  0  0  0  0  0  0
   25.8708  -20.8533  -12.8101 N   0  0  0  0  0  0  0  0  0  0  0  0
   24.5619  -20.7611  -13.3828 C   0  0  0  0  0  0  0  0  0  0  0  0
   25.7697  -20.6434  -11.3137 O   0  0  0  0  0  0  0  0  0  0  0  0
   24.9616  -19.7941  -10.8541 O   0  0  0  0  0  0  0  0  0  0  0  0
   29.0895  -19.5417   -3.3210 C   0  0  0  0  0  0  0  0  0  0  0  0
   28.7828  -20.0379   -4.5725 C   0  0  0  0  0  0  0  0  0  0  0  0
   29.5452  -19.7091   -5.6762 C   0  0  0  0  0  0  0  0  0  0  0  0
   29.2117  -20.2213   -6.9093 C   0  0  0  0  0  0  0  0  0  0  0  0
   28.1285  -21.0531   -7.0425 C   0  0  0  0  0  0  0  0  0  0  0  0
   27.7776  -21.5907   -8.3629 C   0  0  1  0  0  0  0  0  0  0  0  0
   26.5876  -20.9145   -8.9856 N   0  0  0  0  0  0  0  0  0  0  0  0
   26.5581  -21.3745  -10.3890 C   0  0  0  0  0  0  0  0  0  0  0  0
   26.7583  -19.4488   -8.9175 O   0  0  0  0  0  0  0  0  0  0  0  0
   27.5674  -18.9222   -9.7570 C   0  0  0  0  0  0  0  0  0  0  0  0
   27.3623  -21.3841   -5.9357 C   0  0  0  0  0  0  0  0  0  0  0  0
   27.7000  -20.8713   -4.7129 O   0  0  0  0  0  0  0  0  0  0  0  0
  2  1  1  0
  2  3  2  0
  4  2  1  0
  5  4  1  0
  6  5  1  0
  7  6  1  0
  8  9  1  6
  8  7  1  0
 10  8  1  0
 11 10  2  0
 13 12  1  0
 14 13  1  0
 14 16  1  0
 14 15  1  1
 16 18  1  0
 16 17  1  6
 17 10  1  0
 18 27  1  0
 19 18  2  0
 21 22  2  0
 21 20  1  0
 23 22  1  0
 24 23  2  0
 25 24  1  0
 26 25  1  1
 27 26  1  0
 28 26  1  0
 28 32  1  0
 29 28  2  0
 30 24  1  0
 30 31  2  0
 31 21  1  0
M  END
$$$$
