CCG.pdb
     RDKit          3D

 17 16  0  0  1  0  0  0  0  0999 V2000
   17.3358  -11.5499  -15.1845 N   0  0  0  0  0  0  0  0  0  0  0  0
   17.8101  -10.3970  -15.8830 C   0  0  1  0  0  0  0  0  0  0  0  0
   16.6661   -9.7616  -16.6310 C   0  0  0  0  0  0  0  0  0  0  0  0
   16.1015  -10.7725  -18.0083 S   0  0  0  0  0  0  0  0  0  0  0  0
   18.5038   -9.4286  -14.9960 C   0  0  0  0  0  0  0  0  0  0  0  0
   17.9439   -9.0426  -13.9384 O   0  0  0  0  0  0  0  0  0  0  0  0
   19.7899   -8.8986  -15.2734 N   0  0  0  0  0  0  0  0  0  0  0  0
   20.4123   -7.8668  -14.4934 C   0  0  1  0  0  0  0  0  0  0  0  0
   21.7949   -8.3359  -14.0206 C   0  0  0  0  0  0  0  0  0  0  0  0
   21.6710   -8.7281  -12.2601 S   0  0  0  0  0  0  0  0  0  0  0  0
   20.6218   -6.6145  -15.2447 C   0  0  0  0  0  0  0  0  0  0  0  0
   21.2303   -6.6784  -16.3437 O   0  0  0  0  0  0  0  0  0  0  0  0
   20.1805   -5.3470  -14.8048 N   0  0  0  0  0  0  0  0  0  0  0  0
   20.4214   -4.1200  -15.5358 C   0  0  0  0  0  0  0  0  0  0  0  0
   19.8416   -2.9469  -14.8399 C   0  0  0  0  0  0  0  0  0  0  0  0
   19.0328   -3.1133  -13.7281 O   0  0  0  0  0  0  0  0  0  0  0  0
   20.0648   -1.7785  -15.2345 O   0  0  0  0  0  0  0  0  0  0  0  0
  2  3  1  0
  2  1  1  1
  3  4  1  0
  5  2  1  0
  5  6  2  0
  7  5  1  0
  8 11  1  0
  8  7  1  0
  8  9  1  6
 10  9  1  0
 11 13  1  0
 12 11  2  0
 13 14  1  0
 14 15  1  0
 15 17  2  0
 15 16  1  0
M  END
$$$$
