CCG.pdb
     RDKit          3D

 17 16  0  0  1  0  0  0  0  0999 V2000
   20.9925  -13.6272  -18.2110 N   0  0  0  0  0  0  0  0  0  0  0  0
   21.7410  -12.4183  -18.0686 C   0  0  1  0  0  0  0  0  0  0  0  0
   22.2709  -11.9983  -19.4158 C   0  0  0  0  0  0  0  0  0  0  0  0
   23.8706  -12.7357  -19.7836 S   0  0  0  0  0  0  0  0  0  0  0  0
   20.9685  -11.3343  -17.4098 C   0  0  0  0  0  0  0  0  0  0  0  0
   19.7528  -11.1783  -17.6903 O   0  0  0  0  0  0  0  0  0  0  0  0
   21.5293  -10.4419  -16.4606 N   0  0  0  0  0  0  0  0  0  0  0  0
   20.8018   -9.3643  -15.8525 C   0  0  1  0  0  0  0  0  0  0  0  0
   20.7021   -9.5944  -14.3384 C   0  0  0  0  0  0  0  0  0  0  0  0
   19.6655   -8.2832  -13.6492 S   0  0  0  0  0  0  0  0  0  0  0  0
   21.4424   -8.0488  -16.0416 C   0  0  0  0  0  0  0  0  0  0  0  0
   22.6645   -7.9403  -15.7647 O   0  0  0  0  0  0  0  0  0  0  0  0
   20.7664   -6.9026  -16.5152 N   0  0  0  0  0  0  0  0  0  0  0  0
   21.4091   -5.6186  -16.7053 C   0  0  0  0  0  0  0  0  0  0  0  0
   21.2689   -4.7553  -15.5088 C   0  0  0  0  0  0  0  0  0  0  0  0
   20.8105   -3.4537  -15.6261 O   0  0  0  0  0  0  0  0  0  0  0  0
   21.5590   -5.1751  -14.3640 O   0  0  0  0  0  0  0  0  0  0  0  0
  2  3  1  0
  2  1  1  6
  3  4  1  0
  5  2  1  0
  5  6  2  0
  7  5  1  0
  8 11  1  0
  8  7  1  0
  8  9  1  1
 10  9  1  0
 11 13  1  0
 12 11  2  0
 13 14  1  0
 14 15  1  0
 15 17  2  0
 15 16  1  0
M  END
$$$$
