CCG.pdb
     RDKit          3D

 17 16  0  0  1  0  0  0  0  0999 V2000
   18.5778  -10.8794  -16.4885 N   0  0  0  0  0  0  0  0  0  0  0  0
   19.2350   -9.6659  -16.8591 C   0  0  1  0  0  0  0  0  0  0  0  0
   18.2592   -8.7699  -17.5782 C   0  0  0  0  0  0  0  0  0  0  0  0
   17.7205   -9.4635  -19.1487 S   0  0  0  0  0  0  0  0  0  0  0  0
   19.8775   -8.9817  -15.7080 C   0  0  0  0  0  0  0  0  0  0  0  0
   19.2628   -8.8939  -14.6147 O   0  0  0  0  0  0  0  0  0  0  0  0
   21.1730   -8.4068  -15.7656 N   0  0  0  0  0  0  0  0  0  0  0  0
   21.8117   -7.7674  -14.6504 C   0  0  1  0  0  0  0  0  0  0  0  0
   23.1579   -8.4463  -14.3638 C   0  0  0  0  0  0  0  0  0  0  0  0
   22.8485   -9.8315  -13.2438 S   0  0  0  0  0  0  0  0  0  0  0  0
   22.0968   -6.3386  -14.8829 C   0  0  0  0  0  0  0  0  0  0  0  0
   22.5036   -5.9940  -16.0221 O   0  0  0  0  0  0  0  0  0  0  0  0
   21.9407   -5.3332  -13.9033 N   0  0  0  0  0  0  0  0  0  0  0  0
   22.2888   -3.9444  -14.1224 C   0  0  0  0  0  0  0  0  0  0  0  0
   21.1186   -3.1518  -14.5683 C   0  0  0  0  0  0  0  0  0  0  0  0
   21.2096   -1.7776  -14.7139 O   0  0  0  0  0  0  0  0  0  0  0  0
   20.0202   -3.6983  -14.8248 O   0  0  0  0  0  0  0  0  0  0  0  0
  2  3  1  0
  2  1  1  1
  3  4  1  0
  5  2  1  0
  5  6  2  0
  7  5  1  0
  8 11  1  0
  8  7  1  0
  8  9  1  6
 10  9  1  0
 11 13  1  0
 12 11  2  0
 13 14  1  0
 14 15  1  0
 15 17  2  0
 15 16  1  0
M  END
$$$$
