CCG.pdb
     RDKit          3D

 17 16  0  0  1  0  0  0  0  0999 V2000
   13.2403  -11.2253  -10.2445 N   0  0  0  0  0  0  0  0  0  0  0  0
   14.6596  -11.0637  -10.2793 C   0  0  1  0  0  0  0  0  0  0  0  0
   15.2376  -11.9607  -11.3439 C   0  0  0  0  0  0  0  0  0  0  0  0
   15.1891  -13.6979  -10.8774 S   0  0  0  0  0  0  0  0  0  0  0  0
   15.0762   -9.6489  -10.4546 C   0  0  0  0  0  0  0  0  0  0  0  0
   14.3081   -8.8422  -11.0377 O   0  0  0  0  0  0  0  0  0  0  0  0
   16.3167   -9.1377   -9.9943 N   0  0  0  0  0  0  0  0  0  0  0  0
   16.7694   -7.7987  -10.2446 C   0  0  1  0  0  0  0  0  0  0  0  0
   16.4278   -6.9027   -9.0463 C   0  0  0  0  0  0  0  0  0  0  0  0
   16.8568   -5.2032   -9.4897 S   0  0  0  0  0  0  0  0  0  0  0  0
   18.2281   -7.7044  -10.4442 C   0  0  0  0  0  0  0  0  0  0  0  0
   18.9763   -8.3174   -9.6402 O   0  0  0  0  0  0  0  0  0  0  0  0
   18.8363   -6.9670  -11.4840 N   0  0  0  0  0  0  0  0  0  0  0  0
   20.2577   -7.0007  -11.7607 C   0  0  0  0  0  0  0  0  0  0  0  0
   20.6016   -6.1881  -12.9514 C   0  0  0  0  0  0  0  0  0  0  0  0
   21.9154   -6.0750  -13.3745 O   0  0  0  0  0  0  0  0  0  0  0  0
   19.7196   -5.5839  -13.6056 O   0  0  0  0  0  0  0  0  0  0  0  0
  2  3  1  0
  2  1  1  6
  3  4  1  0
  5  2  1  0
  5  6  2  0
  7  5  1  0
  8 11  1  0
  8  7  1  0
  8  9  1  1
 10  9  1  0
 11 13  1  0
 12 11  2  0
 13 14  1  0
 14 15  1  0
 15 17  2  0
 15 16  1  0
M  END
$$$$
