CCG.pdb
     RDKit          3D

 17 16  0  0  1  0  0  0  0  0999 V2000
   19.3815  -12.9001  -16.0719 N   0  0  0  0  0  0  0  0  0  0  0  0
   20.0214  -11.8635  -16.8189 C   0  0  1  0  0  0  0  0  0  0  0  0
   18.9749  -10.9385  -17.3856 C   0  0  0  0  0  0  0  0  0  0  0  0
   18.0900  -11.6708  -18.7707 S   0  0  0  0  0  0  0  0  0  0  0  0
   21.0461  -11.1317  -16.0313 C   0  0  0  0  0  0  0  0  0  0  0  0
   20.8085  -10.8239  -14.8356 O   0  0  0  0  0  0  0  0  0  0  0  0
   22.3071  -10.7486  -16.5559 N   0  0  0  0  0  0  0  0  0  0  0  0
   23.2780   -9.9877  -15.8219 C   0  0  1  0  0  0  0  0  0  0  0  0
   24.6888  -10.5011  -16.1405 C   0  0  0  0  0  0  0  0  0  0  0  0
   25.8570   -9.5677  -15.1242 S   0  0  0  0  0  0  0  0  0  0  0  0
   23.2635   -8.5501  -16.1533 C   0  0  0  0  0  0  0  0  0  0  0  0
   23.5109   -8.2138  -17.3397 O   0  0  0  0  0  0  0  0  0  0  0  0
   22.9884   -7.5275  -15.2187 N   0  0  0  0  0  0  0  0  0  0  0  0
   22.9660   -6.1199  -15.5592 C   0  0  0  0  0  0  0  0  0  0  0  0
   22.5816   -5.2832  -14.3979 C   0  0  0  0  0  0  0  0  0  0  0  0
   23.4955   -4.4221  -13.8137 O   0  0  0  0  0  0  0  0  0  0  0  0
   21.4263   -5.3302  -13.9142 O   0  0  0  0  0  0  0  0  0  0  0  0
  2  3  1  0
  2  1  1  1
  3  4  1  0
  5  2  1  0
  5  6  2  0
  7  5  1  0
  8 11  1  0
  8  7  1  0
  8  9  1  6
 10  9  1  0
 11 13  1  0
 12 11  2  0
 13 14  1  0
 14 15  1  0
 15 17  2  0
 15 16  1  0
M  END
$$$$
