CCG.pdb
     RDKit          3D

 17 16  0  0  1  0  0  0  0  0999 V2000
   18.0274  -31.5215   -1.4549 N   0  0  0  0  0  0  0  0  0  0  0  0
   18.1028  -30.1422   -1.0890 C   0  0  1  0  0  0  0  0  0  0  0  0
   19.5241  -29.6634   -1.2397 C   0  0  0  0  0  0  0  0  0  0  0  0
   20.5507  -30.8352   -2.1400 S   0  0  0  0  0  0  0  0  0  0  0  0
   17.1444  -29.2917   -1.8399 C   0  0  0  0  0  0  0  0  0  0  0  0
   16.6804  -29.6967   -2.9361 O   0  0  0  0  0  0  0  0  0  0  0  0
   16.7088  -28.0199   -1.3875 N   0  0  0  0  0  0  0  0  0  0  0  0
   15.6661  -27.2628   -2.0200 C   0  0  1  0  0  0  0  0  0  0  0  0
   14.6400  -26.8147   -0.9704 C   0  0  0  0  0  0  0  0  0  0  0  0
   13.6819  -28.2678   -0.4815 S   0  0  0  0  0  0  0  0  0  0  0  0
   16.1552  -26.0405   -2.6858 C   0  0  0  0  0  0  0  0  0  0  0  0
   16.9896  -25.3262   -2.0729 O   0  0  0  0  0  0  0  0  0  0  0  0
   15.7434  -25.6230   -3.9707 N   0  0  0  0  0  0  0  0  0  0  0  0
   16.3013  -24.4740   -4.6536 C   0  0  0  0  0  0  0  0  0  0  0  0
   15.7448  -24.3272   -6.0194 C   0  0  0  0  0  0  0  0  0  0  0  0
   14.9914  -23.2162   -6.3600 O   0  0  0  0  0  0  0  0  0  0  0  0
   15.9386  -25.1980   -6.8997 O   0  0  0  0  0  0  0  0  0  0  0  0
  2  3  1  0
  2  1  1  6
  3  4  1  0
  5  2  1  0
  5  6  2  0
  7  5  1  0
  8 11  1  0
  8  7  1  0
  8  9  1  1
 10  9  1  0
 11 13  1  0
 12 11  2  0
 13 14  1  0
 14 15  1  0
 15 17  2  0
 15 16  1  0
M  END
$$$$
