CCG.pdb
     RDKit          3D

 17 16  0  0  1  0  0  0  0  0999 V2000
   26.2552  -34.1536  -15.9829 N   0  0  0  0  0  0  0  0  0  0  0  0
   26.8578  -33.5874  -14.8175 C   0  0  1  0  0  0  0  0  0  0  0  0
   27.6179  -32.3442  -15.2031 C   0  0  0  0  0  0  0  0  0  0  0  0
   29.3516  -32.6798  -15.5486 S   0  0  0  0  0  0  0  0  0  0  0  0
   25.8811  -33.3296  -13.7288 C   0  0  0  0  0  0  0  0  0  0  0  0
   24.7039  -32.9938  -14.0162 O   0  0  0  0  0  0  0  0  0  0  0  0
   26.2001  -33.4411  -12.3512 N   0  0  0  0  0  0  0  0  0  0  0  0
   25.2499  -33.2405  -11.2941 C   0  0  1  0  0  0  0  0  0  0  0  0
   24.1754  -34.3350  -11.3472 C   0  0  0  0  0  0  0  0  0  0  0  0
   22.9880  -34.0055  -10.0243 S   0  0  0  0  0  0  0  0  0  0  0  0
   25.8531  -33.3016   -9.9490 C   0  0  0  0  0  0  0  0  0  0  0  0
   26.5065  -34.3308   -9.6396 O   0  0  0  0  0  0  0  0  0  0  0  0
   25.7415  -32.2738   -8.9867 N   0  0  0  0  0  0  0  0  0  0  0  0
   26.5351  -32.2242   -7.7761 C   0  0  0  0  0  0  0  0  0  0  0  0
   25.8958  -32.9793   -6.6727 C   0  0  0  0  0  0  0  0  0  0  0  0
   26.5291  -33.1140   -5.4485 O   0  0  0  0  0  0  0  0  0  0  0  0
   24.7712  -33.5141   -6.8143 O   0  0  0  0  0  0  0  0  0  0  0  0
  2  3  1  0
  2  1  1  6
  3  4  1  0
  5  2  1  0
  5  6  2  0
  7  5  1  0
  8 11  1  0
  8  7  1  0
  8  9  1  1
 10  9  1  0
 11 13  1  0
 12 11  2  0
 13 14  1  0
 14 15  1  0
 15 17  2  0
 15 16  1  0
M  END
$$$$
