CCG.pdb
     RDKit          3D

 17 16  0  0  1  0  0  0  0  0999 V2000
   19.5338  -10.7333  -17.0049 N   0  0  0  0  0  0  0  0  0  0  0  0
   20.5700   -9.8002  -16.6924 C   0  0  1  0  0  0  0  0  0  0  0  0
   21.1188   -9.2183  -17.9700 C   0  0  0  0  0  0  0  0  0  0  0  0
   22.2036  -10.3641  -18.8349 S   0  0  0  0  0  0  0  0  0  0  0  0
   20.1317   -8.7465  -15.7420 C   0  0  0  0  0  0  0  0  0  0  0  0
   19.0196   -8.1835  -15.9073 O   0  0  0  0  0  0  0  0  0  0  0  0
   20.9075   -8.3247  -14.6319 N   0  0  0  0  0  0  0  0  0  0  0  0
   20.4886   -7.3118  -13.7052 C   0  0  1  0  0  0  0  0  0  0  0  0
   20.5381   -7.8646  -12.2744 C   0  0  0  0  0  0  0  0  0  0  0  0
   19.1350   -8.9861  -12.0686 S   0  0  0  0  0  0  0  0  0  0  0  0
   21.3457   -6.1112  -13.7273 C   0  0  0  0  0  0  0  0  0  0  0  0
   22.5880   -6.2686  -13.6093 O   0  0  0  0  0  0  0  0  0  0  0  0
   20.8560   -4.7945  -13.8731 N   0  0  0  0  0  0  0  0  0  0  0  0
   21.7129   -3.6346  -14.0090 C   0  0  0  0  0  0  0  0  0  0  0  0
   20.9265   -2.3806  -14.0849 C   0  0  0  0  0  0  0  0  0  0  0  0
   21.5509   -1.1481  -13.9905 O   0  0  0  0  0  0  0  0  0  0  0  0
   19.6825   -2.3990  -14.2358 O   0  0  0  0  0  0  0  0  0  0  0  0
  2  3  1  0
  2  1  1  6
  3  4  1  0
  5  2  1  0
  5  6  2  0
  7  5  1  0
  8 11  1  0
  8  7  1  0
  8  9  1  1
 10  9  1  0
 11 13  1  0
 12 11  2  0
 13 14  1  0
 14 15  1  0
 15 17  2  0
 15 16  1  0
M  END
$$$$
