CCG.pdb
     RDKit          3D

 17 16  0  0  1  0  0  0  0  0999 V2000
   19.8985  -12.2736  -18.7809 N   0  0  0  0  0  0  0  0  0  0  0  0
   20.6284  -11.8972  -17.6115 C   0  0  1  0  0  0  0  0  0  0  0  0
   22.0995  -11.8475  -17.9364 C   0  0  0  0  0  0  0  0  0  0  0  0
   22.8243  -13.4875  -18.0871 S   0  0  0  0  0  0  0  0  0  0  0  0
   20.1455  -10.6267  -17.0127 C   0  0  0  0  0  0  0  0  0  0  0  0
   19.7782   -9.6863  -17.7621 O   0  0  0  0  0  0  0  0  0  0  0  0
   20.0707  -10.4017  -15.6142 N   0  0  0  0  0  0  0  0  0  0  0  0
   19.5543   -9.1981  -15.0269 C   0  0  1  0  0  0  0  0  0  0  0  0
   18.4787   -9.5468  -13.9892 C   0  0  0  0  0  0  0  0  0  0  0  0
   17.1231  -10.3704  -14.8568 S   0  0  0  0  0  0  0  0  0  0  0  0
   20.5813   -8.4049  -14.3250 C   0  0  0  0  0  0  0  0  0  0  0  0
   21.4462   -9.0207  -13.6506 O   0  0  0  0  0  0  0  0  0  0  0  0
   20.6528   -6.9949  -14.3641 N   0  0  0  0  0  0  0  0  0  0  0  0
   21.6812   -6.2288  -13.6908 C   0  0  0  0  0  0  0  0  0  0  0  0
   21.5898   -4.7861  -14.0179 C   0  0  0  0  0  0  0  0  0  0  0  0
   22.3640   -3.8578  -13.3421 O   0  0  0  0  0  0  0  0  0  0  0  0
   20.8146   -4.3673  -14.9092 O   0  0  0  0  0  0  0  0  0  0  0  0
  2  3  1  0
  2  1  1  6
  3  4  1  0
  5  2  1  0
  5  6  2  0
  7  5  1  0
  8 11  1  0
  8  7  1  0
  8  9  1  1
 10  9  1  0
 11 13  1  0
 12 11  2  0
 13 14  1  0
 14 15  1  0
 15 17  2  0
 15 16  1  0
M  END
$$$$
