CCG.pdb
     RDKit          3D

 17 16  0  0  1  0  0  0  0  0999 V2000
   26.0342  -11.4869  -15.2650 N   0  0  0  0  0  0  0  0  0  0  0  0
   26.2982  -10.2580  -15.9447 C   0  0  1  0  0  0  0  0  0  0  0  0
   26.9801  -10.5503  -17.2568 C   0  0  0  0  0  0  0  0  0  0  0  0
   28.5828  -11.3379  -17.0362 S   0  0  0  0  0  0  0  0  0  0  0  0
   25.0831   -9.4223  -16.1208 C   0  0  0  0  0  0  0  0  0  0  0  0
   25.1565   -8.3469  -16.7683 O   0  0  0  0  0  0  0  0  0  0  0  0
   23.8136   -9.7692  -15.5918 N   0  0  0  0  0  0  0  0  0  0  0  0
   22.6132   -9.0243  -15.8461 C   0  0  1  0  0  0  0  0  0  0  0  0
   21.3938   -9.9487  -15.7289 C   0  0  0  0  0  0  0  0  0  0  0  0
   21.6350  -11.3262  -16.8747 S   0  0  0  0  0  0  0  0  0  0  0  0
   22.4013   -7.9177  -14.8936 C   0  0  0  0  0  0  0  0  0  0  0  0
   22.4508   -8.1775  -13.6640 O   0  0  0  0  0  0  0  0  0  0  0  0
   22.1459   -6.5830  -15.2787 N   0  0  0  0  0  0  0  0  0  0  0  0
   21.9577   -5.5017  -14.3336 C   0  0  0  0  0  0  0  0  0  0  0  0
   21.8200   -4.1949  -15.0192 C   0  0  0  0  0  0  0  0  0  0  0  0
   21.5026   -3.0519  -14.3046 O   0  0  0  0  0  0  0  0  0  0  0  0
   21.9856   -4.0871  -16.2568 O   0  0  0  0  0  0  0  0  0  0  0  0
  2  3  1  0
  2  1  1  6
  3  4  1  0
  5  2  1  0
  5  6  2  0
  7  5  1  0
  8 11  1  0
  8  7  1  0
  8  9  1  1
 10  9  1  0
 11 13  1  0
 12 11  2  0
 13 14  1  0
 14 15  1  0
 15 17  2  0
 15 16  1  0
M  END
$$$$
