ETF.pdb
     RDKit          3D

 28 28  0  0  1  0  0  0  0  0999 V2000
   14.0731  -20.8966    2.2959 N   0  0  0  0  0  0  0  0  0  0  0  0
   14.9138  -20.8681    3.4728 C   0  0  1  0  0  0  0  0  0  0  0  0
   16.3536  -20.7851    2.9535 C   0  0  0  0  0  0  0  0  0  0  0  0
   16.7882  -22.1469    2.4366 C   0  0  0  0  0  0  0  0  0  0  0  0
   17.5008  -22.9101    3.4870 C   0  0  0  0  0  0  0  0  0  0  0  0
   17.1002  -23.0024    4.6715 O   0  0  0  0  0  0  0  0  0  0  0  0
   14.5890  -19.7160    4.3255 C   0  0  0  0  0  0  0  0  0  0  0  0
   13.6893  -18.9104    3.9370 O   0  0  0  0  0  0  0  0  0  0  0  0
   18.6756  -23.5596    3.1472 O   0  0  0  0  0  0  0  0  0  0  0  0
   14.3109  -17.9192    8.8315 C   0  0  0  0  0  0  0  0  0  0  0  0
   14.7295  -18.9861    7.8486 C   0  0  1  0  0  0  0  0  0  0  0  0
   13.7547  -19.9930    7.9328 O   0  0  0  0  0  0  0  0  0  0  0  0
   14.8129  -18.4417    6.4337 C   0  0  2  0  0  0  0  0  0  0  0  0
   15.2833  -19.5380    5.5480 N   0  0  0  0  0  0  0  0  0  0  0  0
   15.8743  -17.4102    6.4037 C   0  0  0  0  0  0  0  0  0  0  0  0
   17.0949  -17.7927    6.3090 O   0  0  0  0  0  0  0  0  0  0  0  0
   15.6875  -16.0216    6.4672 N   0  0  0  0  0  0  0  0  0  0  0  0
   16.8378  -15.1045    6.4410 C   0  0  1  0  0  0  0  0  0  0  0  0
   16.6502  -14.1145    5.3187 C   0  0  0  0  0  0  0  0  0  0  0  0
   17.2519  -14.6363    4.0793 C   0  0  0  0  0  0  0  0  0  0  0  0
   18.4381  -14.1205    3.5998 C   0  0  0  0  0  0  0  0  0  0  0  0
   18.9745  -14.6260    2.4450 C   0  0  0  0  0  0  0  0  0  0  0  0
   18.3133  -15.6378    1.7921 C   0  0  0  0  0  0  0  0  0  0  0  0
   17.1267  -16.1716    2.2490 C   0  0  0  0  0  0  0  0  0  0  0  0
   16.5872  -15.6592    3.4160 C   0  0  0  0  0  0  0  0  0  0  0  0
   17.0181  -14.4599    7.7476 C   0  0  0  0  0  0  0  0  0  0  0  0
   18.2331  -14.0749    8.2684 O   0  0  0  0  0  0  0  0  0  0  0  0
   16.0017  -14.2296    8.4731 O   0  0  0  0  0  0  0  0  0  0  0  0
  2  1  1  6
  3  2  1  0
  4  3  1  0
  5  6  2  0
  5  4  1  0
  7  2  1  0
  7  8  2  0
  9  5  1  0
 11 13  1  0
 11 10  1  1
 12 11  1  0
 13 14  1  6
 14  7  1  0
 15 13  1  0
 16 15  2  0
 17 15  1  0
 18 17  1  0
 18 19  1  6
 20 21  2  0
 20 19  1  0
 22 21  1  0
 23 22  2  0
 24 23  1  0
 24 25  2  0
 25 20  1  0
 26 18  1  0
 27 26  1  0
 28 26  2  0
M  END
$$$$
