ETF.pdb
     RDKit          3D

 28 28  0  0  1  0  0  0  0  0999 V2000
   19.4488  -14.6780  -18.6173 N   0  0  0  0  0  0  0  0  0  0  0  0
   18.8712  -13.7759  -17.6450 C   0  0  1  0  0  0  0  0  0  0  0  0
   18.9264  -14.5180  -16.3049 C   0  0  0  0  0  0  0  0  0  0  0  0
   17.7612  -15.4897  -16.2120 C   0  0  0  0  0  0  0  0  0  0  0  0
   16.5149  -14.7879  -15.8276 C   0  0  0  0  0  0  0  0  0  0  0  0
   16.2583  -14.4181  -14.6574 O   0  0  0  0  0  0  0  0  0  0  0  0
   19.6216  -12.5136  -17.5851 C   0  0  0  0  0  0  0  0  0  0  0  0
   20.8494  -12.5242  -17.9038 O   0  0  0  0  0  0  0  0  0  0  0  0
   15.5775  -14.5229  -16.8118 O   0  0  0  0  0  0  0  0  0  0  0  0
   18.9748   -9.6407  -19.6750 C   0  0  0  0  0  0  0  0  0  0  0  0
   18.9276   -9.1489  -18.2484 C   0  0  1  0  0  0  0  0  0  0  0  0
   17.5700   -9.1303  -17.8908 O   0  0  0  0  0  0  0  0  0  0  0  0
   19.7119  -10.0563  -17.3174 C   0  0  2  0  0  0  0  0  0  0  0  0
   18.9588  -11.3294  -17.1768 N   0  0  0  0  0  0  0  0  0  0  0  0
   19.7172   -9.4358  -15.9734 C   0  0  0  0  0  0  0  0  0  0  0  0
   18.7768   -9.7408  -15.1563 O   0  0  0  0  0  0  0  0  0  0  0  0
   20.6648   -8.5272  -15.4798 N   0  0  0  0  0  0  0  0  0  0  0  0
   20.4973   -7.9087  -14.1553 C   0  0  1  0  0  0  0  0  0  0  0  0
   21.8402   -7.8429  -13.4716 C   0  0  0  0  0  0  0  0  0  0  0  0
   22.8000   -7.1078  -14.3134 C   0  0  0  0  0  0  0  0  0  0  0  0
   22.8736   -5.7312  -14.2615 C   0  0  0  0  0  0  0  0  0  0  0  0
   23.7764   -5.0745  -15.0555 C   0  0  0  0  0  0  0  0  0  0  0  0
   24.5881   -5.8081  -15.8863 C   0  0  0  0  0  0  0  0  0  0  0  0
   24.5356   -7.1842  -15.9580 C   0  0  0  0  0  0  0  0  0  0  0  0
   23.6227   -7.8451  -15.1547 C   0  0  0  0  0  0  0  0  0  0  0  0
   19.8509   -6.5959  -14.2729 C   0  0  0  0  0  0  0  0  0  0  0  0
   19.3430   -5.8770  -13.2143 O   0  0  0  0  0  0  0  0  0  0  0  0
   19.7349   -6.0601  -15.4183 O   0  0  0  0  0  0  0  0  0  0  0  0
  2  1  1  6
  3  2  1  0
  4  3  1  0
  5  6  2  0
  5  4  1  0
  7  2  1  0
  7  8  2  0
  9  5  1  0
 11 13  1  0
 11 10  1  6
 12 11  1  0
 13 14  1  1
 14  7  1  0
 15 13  1  0
 16 15  2  0
 17 15  1  0
 18 17  1  0
 18 19  1  6
 20 21  2  0
 20 19  1  0
 22 21  1  0
 23 22  2  0
 24 23  1  0
 24 25  2  0
 25 20  1  0
 26 18  1  0
 27 26  1  0
 28 26  2  0
M  END
$$$$
