ETF.pdb
     RDKit          3D

 28 28  0  0  1  0  0  0  0  0999 V2000
   23.7625  -19.4460  -18.8456 N   0  0  0  0  0  0  0  0  0  0  0  0
   23.4769  -19.3671  -17.4296 C   0  0  1  0  0  0  0  0  0  0  0  0
   22.1275  -20.0684  -17.2378 C   0  0  0  0  0  0  0  0  0  0  0  0
   21.0024  -19.1251  -17.6316 C   0  0  0  0  0  0  0  0  0  0  0  0
   20.7217  -18.1538  -16.5493 C   0  0  0  0  0  0  0  0  0  0  0  0
   21.1051  -16.9602  -16.5701 O   0  0  0  0  0  0  0  0  0  0  0  0
   24.5318  -20.0195  -16.6413 C   0  0  0  0  0  0  0  0  0  0  0  0
   25.0330  -21.0999  -17.0783 O   0  0  0  0  0  0  0  0  0  0  0  0
   19.9957  -18.5828  -15.4509 O   0  0  0  0  0  0  0  0  0  0  0  0
   28.4781  -19.7354  -14.0641 C   0  0  0  0  0  0  0  0  0  0  0  0
   27.2994  -19.1816  -14.8279 C   0  0  1  0  0  0  0  0  0  0  0  0
   27.7184  -19.0787  -16.1639 O   0  0  0  0  0  0  0  0  0  0  0  0
   26.0857  -20.0874  -14.7180 C   0  0  2  0  0  0  0  0  0  0  0  0
   24.9571  -19.4289  -15.4253 N   0  0  0  0  0  0  0  0  0  0  0  0
   25.6916  -20.1507  -13.2924 C   0  0  0  0  0  0  0  0  0  0  0  0
   25.0631  -19.1529  -12.7879 O   0  0  0  0  0  0  0  0  0  0  0  0
   25.9343  -21.2118  -12.4081 N   0  0  0  0  0  0  0  0  0  0  0  0
   25.7344  -21.0465  -10.9598 C   0  0  1  0  0  0  0  0  0  0  0  0
   26.8853  -20.2528  -10.3935 C   0  0  0  0  0  0  0  0  0  0  0  0
   26.6768  -20.0178   -8.9542 C   0  0  0  0  0  0  0  0  0  0  0  0
   26.8261  -21.0432   -8.0433 C   0  0  0  0  0  0  0  0  0  0  0  0
   26.6265  -20.7950   -6.7109 C   0  0  0  0  0  0  0  0  0  0  0  0
   26.2810  -19.5255   -6.3156 C   0  0  0  0  0  0  0  0  0  0  0  0
   26.1251  -18.4827   -7.2043 C   0  0  0  0  0  0  0  0  0  0  0  0
   26.3276  -18.7362   -8.5498 C   0  0  0  0  0  0  0  0  0  0  0  0
   24.4281  -20.4371  -10.6817 C   0  0  0  0  0  0  0  0  0  0  0  0
   23.4225  -21.0391   -9.9594 O   0  0  0  0  0  0  0  0  0  0  0  0
   24.1767  -19.2747  -11.1268 O   0  0  0  0  0  0  0  0  0  0  0  0
  2  1  1  6
  3  2  1  0
  4  3  1  0
  5  6  2  0
  5  4  1  0
  7  2  1  0
  7  8  2  0
  9  5  1  0
 11 13  1  0
 11 10  1  1
 12 11  1  0
 13 14  1  6
 14  7  1  0
 15 13  1  0
 16 15  2  0
 17 15  1  0
 18 17  1  0
 18 19  1  6
 20 21  2  0
 20 19  1  0
 22 21  1  0
 23 22  2  0
 24 23  1  0
 24 25  2  0
 25 20  1  0
 26 18  1  0
 27 26  1  0
 28 26  2  0
M  END
$$$$
