ETF.pdb
     RDKit          3D

 28 28  0  0  1  0  0  0  0  0999 V2000
   30.5077  -13.9904  -19.0019 N   0  0  0  0  0  0  0  0  0  0  0  0
   30.0504  -12.7705  -19.6307 C   0  0  1  0  0  0  0  0  0  0  0  0
   28.6487  -13.0798  -20.1684 C   0  0  0  0  0  0  0  0  0  0  0  0
   28.7587  -13.9683  -21.3968 C   0  0  0  0  0  0  0  0  0  0  0  0
   28.4807  -13.2011  -22.6328 C   0  0  0  0  0  0  0  0  0  0  0  0
   29.3641  -12.6078  -23.2959 O   0  0  0  0  0  0  0  0  0  0  0  0
   30.0176  -11.6606  -18.6679 C   0  0  0  0  0  0  0  0  0  0  0  0
   29.6345  -11.8995  -17.4823 O   0  0  0  0  0  0  0  0  0  0  0  0
   27.1738  -13.1319  -23.0855 O   0  0  0  0  0  0  0  0  0  0  0  0
   32.4410  -10.2754  -16.9648 C   0  0  0  0  0  0  0  0  0  0  0  0
   31.8453   -9.0556  -17.6256 C   0  0  1  0  0  0  0  0  0  0  0  0
   32.6539   -8.7869  -18.7414 O   0  0  0  0  0  0  0  0  0  0  0  0
   30.4086   -9.2966  -18.0539 C   0  0  2  0  0  0  0  0  0  0  0  0
   30.4115  -10.3652  -19.0863 N   0  0  0  0  0  0  0  0  0  0  0  0
   29.9244   -8.0743  -18.7343 C   0  0  0  0  0  0  0  0  0  0  0  0
   29.3681   -8.1951  -19.8836 O   0  0  0  0  0  0  0  0  0  0  0  0
   30.0071   -6.7620  -18.2465 N   0  0  0  0  0  0  0  0  0  0  0  0
   29.5685   -5.6234  -19.0687 C   0  0  1  0  0  0  0  0  0  0  0  0
   28.1140   -5.8065  -19.4238 C   0  0  0  0  0  0  0  0  0  0  0  0
   27.6666   -4.7107  -20.3009 C   0  0  0  0  0  0  0  0  0  0  0  0
   27.0038   -3.6177  -19.7819 C   0  0  0  0  0  0  0  0  0  0  0  0
   26.6001   -2.6134  -20.6216 C   0  0  0  0  0  0  0  0  0  0  0  0
   26.8673   -2.7223  -21.9648 C   0  0  0  0  0  0  0  0  0  0  0  0
   27.5277   -3.8031  -22.5100 C   0  0  0  0  0  0  0  0  0  0  0  0
   27.9345   -4.8162  -21.6593 C   0  0  0  0  0  0  0  0  0  0  0  0
   29.8336   -4.3536  -18.3814 C   0  0  0  0  0  0  0  0  0  0  0  0
   29.6249   -4.1331  -17.0385 O   0  0  0  0  0  0  0  0  0  0  0  0
   30.2857   -3.3698  -19.0449 O   0  0  0  0  0  0  0  0  0  0  0  0
  2  1  1  1
  3  2  1  0
  4  3  1  0
  5  6  2  0
  5  4  1  0
  7  2  1  0
  7  8  2  0
  9  5  1  0
 11 13  1  0
 11 10  1  6
 12 11  1  0
 13 14  1  6
 14  7  1  0
 15 13  1  0
 16 15  2  0
 17 15  1  0
 18 17  1  0
 18 19  1  1
 20 21  2  0
 20 19  1  0
 22 21  1  0
 23 22  2  0
 24 23  1  0
 24 25  2  0
 25 20  1  0
 26 18  1  0
 27 26  1  0
 28 26  2  0
M  END
$$$$
