ETF.pdb
     RDKit          3D

 28 28  0  0  1  0  0  0  0  0999 V2000
   21.3304  -20.5817  -14.1954 N   0  0  0  0  0  0  0  0  0  0  0  0
   21.8135  -20.1918  -12.8888 C   0  0  1  0  0  0  0  0  0  0  0  0
   20.5911  -20.2309  -11.9647 C   0  0  0  0  0  0  0  0  0  0  0  0
   19.3986  -20.7937  -12.7207 C   0  0  0  0  0  0  0  0  0  0  0  0
   18.3086  -19.7951  -12.8108 C   0  0  0  0  0  0  0  0  0  0  0  0
   17.6903  -19.3496  -11.8151 O   0  0  0  0  0  0  0  0  0  0  0  0
   22.8639  -21.1065  -12.4199 C   0  0  0  0  0  0  0  0  0  0  0  0
   22.8824  -22.2905  -12.8752 O   0  0  0  0  0  0  0  0  0  0  0  0
   17.9482  -19.3240  -14.0621 O   0  0  0  0  0  0  0  0  0  0  0  0
   25.0156  -22.4470  -13.5110 C   0  0  0  0  0  0  0  0  0  0  0  0
   25.7803  -21.7192  -12.4316 C   0  0  1  0  0  0  0  0  0  0  0  0
   26.1095  -20.4651  -12.9699 O   0  0  0  0  0  0  0  0  0  0  0  0
   24.9506  -21.5571  -11.1704 C   0  0  2  0  0  0  0  0  0  0  0  0
   23.8193  -20.6450  -11.4805 N   0  0  0  0  0  0  0  0  0  0  0  0
   25.7792  -20.8515  -10.1669 C   0  0  0  0  0  0  0  0  0  0  0  0
   25.2734  -19.8423   -9.5582 O   0  0  0  0  0  0  0  0  0  0  0  0
   27.0926  -21.1750   -9.7962 N   0  0  0  0  0  0  0  0  0  0  0  0
   27.7658  -20.4561   -8.7031 C   0  0  1  0  0  0  0  0  0  0  0  0
   27.0198  -20.7095   -7.4169 C   0  0  0  0  0  0  0  0  0  0  0  0
   27.7421  -20.1015   -6.2860 C   0  0  0  0  0  0  0  0  0  0  0  0
   28.4458  -20.8855   -5.3954 C   0  0  0  0  0  0  0  0  0  0  0  0
   29.1086  -20.2923   -4.3535 C   0  0  0  0  0  0  0  0  0  0  0  0
   29.0543  -18.9258   -4.2228 C   0  0  0  0  0  0  0  0  0  0  0  0
   28.3587  -18.1187   -5.0982 C   0  0  0  0  0  0  0  0  0  0  0  0
   27.6902  -18.7206   -6.1500 C   0  0  0  0  0  0  0  0  0  0  0  0
   29.1820  -20.8352   -8.6267 C   0  0  0  0  0  0  0  0  0  0  0  0
   30.1622  -20.0793   -8.0239 O   0  0  0  0  0  0  0  0  0  0  0  0
   29.5615  -21.9304   -9.1452 O   0  0  0  0  0  0  0  0  0  0  0  0
  2  1  1  6
  3  2  1  0
  4  3  1  0
  5  6  2  0
  5  4  1  0
  7  2  1  0
  7  8  2  0
  9  5  1  0
 11 13  1  0
 11 10  1  6
 12 11  1  0
 13 14  1  6
 14  7  1  0
 15 13  1  0
 16 15  2  0
 17 15  1  0
 18 17  1  0
 18 19  1  1
 20 21  2  0
 20 19  1  0
 22 21  1  0
 23 22  2  0
 24 23  1  0
 24 25  2  0
 25 20  1  0
 26 18  1  0
 27 26  1  0
 28 26  2  0
M  END
$$$$
