ETF.pdb
     RDKit          3D

 28 28  0  0  1  0  0  0  0  0999 V2000
   26.8938  -19.0091  -16.0019 N   0  0  0  0  0  0  0  0  0  0  0  0
   27.3459  -18.5744  -14.6983 C   0  0  1  0  0  0  0  0  0  0  0  0
   27.4761  -17.0498  -14.7904 C   0  0  0  0  0  0  0  0  0  0  0  0
   27.7204  -16.6456  -16.2351 C   0  0  0  0  0  0  0  0  0  0  0  0
   26.4862  -16.1055  -16.8505 C   0  0  0  0  0  0  0  0  0  0  0  0
   26.0025  -16.5309  -17.9262 O   0  0  0  0  0  0  0  0  0  0  0  0
   26.3908  -18.9641  -13.6514 C   0  0  0  0  0  0  0  0  0  0  0  0
   25.2746  -18.3637  -13.5971 O   0  0  0  0  0  0  0  0  0  0  0  0
   25.8259  -15.0730  -16.2059 O   0  0  0  0  0  0  0  0  0  0  0  0
   24.2764  -21.6873  -13.3566 C   0  0  0  0  0  0  0  0  0  0  0  0
   25.1854  -21.7647  -12.1537 C   0  0  1  0  0  0  0  0  0  0  0  0
   26.2477  -22.6040  -12.5254 O   0  0  0  0  0  0  0  0  0  0  0  0
   25.7030  -20.3944  -11.7542 C   0  0  2  0  0  0  0  0  0  0  0  0
   26.7395  -19.9912  -12.7395 N   0  0  0  0  0  0  0  0  0  0  0  0
   26.4047  -20.5319  -10.4581 C   0  0  0  0  0  0  0  0  0  0  0  0
   27.6665  -20.7620  -10.4683 O   0  0  0  0  0  0  0  0  0  0  0  0
   25.8267  -20.4336   -9.1840 N   0  0  0  0  0  0  0  0  0  0  0  0
   26.6235  -20.6871   -7.9733 C   0  0  1  0  0  0  0  0  0  0  0  0
   27.4505  -19.4639   -7.6656 C   0  0  0  0  0  0  0  0  0  0  0  0
   28.1174  -19.6204   -6.3613 C   0  0  0  0  0  0  0  0  0  0  0  0
   29.1159  -20.5564   -6.1876 C   0  0  0  0  0  0  0  0  0  0  0  0
   29.7187  -20.6790   -4.9636 C   0  0  0  0  0  0  0  0  0  0  0  0
   29.3107  -19.8626   -3.9368 C   0  0  0  0  0  0  0  0  0  0  0  0
   28.3158  -18.9190   -4.0828 C   0  0  0  0  0  0  0  0  0  0  0  0
   27.7085  -18.7972   -5.3205 C   0  0  0  0  0  0  0  0  0  0  0  0
   25.7587  -21.0883   -6.8569 C   0  0  0  0  0  0  0  0  0  0  0  0
   26.1984  -21.7204   -5.7155 O   0  0  0  0  0  0  0  0  0  0  0  0
   24.5128  -20.8513   -6.9190 O   0  0  0  0  0  0  0  0  0  0  0  0
  2  1  1  6
  3  2  1  0
  4  3  1  0
  5  6  2  0
  5  4  1  0
  7  2  1  0
  7  8  2  0
  9  5  1  0
 11 13  1  0
 11 10  1  6
 12 11  1  0
 13 14  1  6
 14  7  1  0
 15 13  1  0
 16 15  2  0
 17 15  1  0
 18 17  1  0
 18 19  1  1
 20 21  2  0
 20 19  1  0
 22 21  1  0
 23 22  2  0
 24 23  1  0
 24 25  2  0
 25 20  1  0
 26 18  1  0
 27 26  1  0
 28 26  2  0
M  END
$$$$
