ETF.pdb
     RDKit          3D

 28 28  0  0  1  0  0  0  0  0999 V2000
   23.8090  -21.1106  -15.8165 N   0  0  0  0  0  0  0  0  0  0  0  0
   23.6303  -21.4174  -14.4142 C   0  0  1  0  0  0  0  0  0  0  0  0
   22.8696  -22.7476  -14.3731 C   0  0  0  0  0  0  0  0  0  0  0  0
   21.3928  -22.4983  -14.6331 C   0  0  0  0  0  0  0  0  0  0  0  0
   20.7480  -21.8628  -13.4609 C   0  0  0  0  0  0  0  0  0  0  0  0
   20.3257  -22.5023  -12.4685 O   0  0  0  0  0  0  0  0  0  0  0  0
   24.9256  -21.5244  -13.7281 C   0  0  0  0  0  0  0  0  0  0  0  0
   25.7856  -22.3384  -14.1831 O   0  0  0  0  0  0  0  0  0  0  0  0
   20.6006  -20.4859  -13.4558 O   0  0  0  0  0  0  0  0  0  0  0  0
   27.6396  -19.2940  -13.6466 C   0  0  0  0  0  0  0  0  0  0  0  0
   27.2295  -19.4797  -12.2055 C   0  0  1  0  0  0  0  0  0  0  0  0
   26.3617  -18.4163  -11.9106 O   0  0  0  0  0  0  0  0  0  0  0  0
   26.5336  -20.8117  -11.9889 C   0  0  2  0  0  0  0  0  0  0  0  0
   25.1765  -20.7221  -12.5872 N   0  0  0  0  0  0  0  0  0  0  0  0
   26.3264  -20.9867  -10.5336 C   0  0  0  0  0  0  0  0  0  0  0  0
   25.1260  -20.9747  -10.0821 O   0  0  0  0  0  0  0  0  0  0  0  0
   27.3255  -21.1714   -9.5669 N   0  0  0  0  0  0  0  0  0  0  0  0
   26.9863  -21.2459   -8.1371 C   0  0  1  0  0  0  0  0  0  0  0  0
   28.2402  -21.5342   -7.3500 C   0  0  0  0  0  0  0  0  0  0  0  0
   28.4423  -20.4962   -6.3243 C   0  0  0  0  0  0  0  0  0  0  0  0
   28.1286  -20.7398   -5.0031 C   0  0  0  0  0  0  0  0  0  0  0  0
   28.3278  -19.7559   -4.0710 C   0  0  0  0  0  0  0  0  0  0  0  0
   28.8369  -18.5469   -4.4790 C   0  0  0  0  0  0  0  0  0  0  0  0
   29.1589  -18.2767   -5.7923 C   0  0  0  0  0  0  0  0  0  0  0  0
   28.9568  -19.2726   -6.7319 C   0  0  0  0  0  0  0  0  0  0  0  0
   26.3060  -20.0207   -7.7001 C   0  0  0  0  0  0  0  0  0  0  0  0
   25.3416  -19.9695   -6.7188 O   0  0  0  0  0  0  0  0  0  0  0  0
   26.6043  -18.9145   -8.2476 O   0  0  0  0  0  0  0  0  0  0  0  0
  2  1  1  6
  3  2  1  0
  4  3  1  0
  5  6  2  0
  5  4  1  0
  7  2  1  0
  7  8  2  0
  9  5  1  0
 11 13  1  0
 11 10  1  6
 12 11  1  0
 13 14  1  6
 14  7  1  0
 15 13  1  0
 16 15  2  0
 17 15  1  0
 18 17  1  0
 18 19  1  1
 20 21  2  0
 20 19  1  0
 22 21  1  0
 23 22  2  0
 24 23  1  0
 24 25  2  0
 25 20  1  0
 26 18  1  0
 27 26  1  0
 28 26  2  0
M  END
$$$$
