ETF.pdb
     RDKit          3D

 28 28  0  0  1  0  0  0  0  0999 V2000
   25.6917  -17.5845  -19.9245 N   0  0  0  0  0  0  0  0  0  0  0  0
   25.5906  -18.6090  -18.9082 C   0  0  1  0  0  0  0  0  0  0  0  0
   26.9554  -18.6394  -18.2110 C   0  0  0  0  0  0  0  0  0  0  0  0
   27.9961  -19.2221  -19.1533 C   0  0  0  0  0  0  0  0  0  0  0  0
   27.8715  -20.6957  -19.2349 C   0  0  0  0  0  0  0  0  0  0  0  0
   27.7768  -21.3263  -20.3145 O   0  0  0  0  0  0  0  0  0  0  0  0
   24.5138  -18.3034  -17.9558 C   0  0  0  0  0  0  0  0  0  0  0  0
   24.2743  -17.0877  -17.6834 O   0  0  0  0  0  0  0  0  0  0  0  0
   27.8582  -21.4222  -18.0561 O   0  0  0  0  0  0  0  0  0  0  0  0
   20.9522  -18.6713  -18.2309 C   0  0  0  0  0  0  0  0  0  0  0  0
   21.3754  -19.4945  -17.0381 C   0  0  1  0  0  0  0  0  0  0  0  0
   21.5219  -20.8092  -17.5082 O   0  0  0  0  0  0  0  0  0  0  0  0
   22.6798  -18.9916  -16.4456 C   0  0  2  0  0  0  0  0  0  0  0  0
   23.7786  -19.3655  -17.3732 N   0  0  0  0  0  0  0  0  0  0  0  0
   22.9309  -19.7409  -15.1938 C   0  0  0  0  0  0  0  0  0  0  0  0
   23.7053  -20.7623  -15.2385 O   0  0  0  0  0  0  0  0  0  0  0  0
   22.4024  -19.4480  -13.9281 N   0  0  0  0  0  0  0  0  0  0  0  0
   22.7129  -20.2967  -12.7670 C   0  0  1  0  0  0  0  0  0  0  0  0
   23.3082  -19.4393  -11.6781 C   0  0  0  0  0  0  0  0  0  0  0  0
   23.5353  -20.2467  -10.4671 C   0  0  0  0  0  0  0  0  0  0  0  0
   24.7231  -20.9240  -10.2835 C   0  0  0  0  0  0  0  0  0  0  0  0
   24.9065  -21.6666   -9.1471 C   0  0  0  0  0  0  0  0  0  0  0  0
   23.8976  -21.7172   -8.2160 C   0  0  0  0  0  0  0  0  0  0  0  0
   22.7010  -21.0504   -8.3740 C   0  0  0  0  0  0  0  0  0  0  0  0
   22.5185  -20.3008   -9.5231 C   0  0  0  0  0  0  0  0  0  0  0  0
   21.5209  -21.0324  -12.3278 C   0  0  0  0  0  0  0  0  0  0  0  0
   21.5306  -22.3251  -11.8540 O   0  0  0  0  0  0  0  0  0  0  0  0
   20.3861  -20.4649  -12.3780 O   0  0  0  0  0  0  0  0  0  0  0  0
  2  1  1  6
  3  2  1  0
  4  3  1  0
  5  6  2  0
  5  4  1  0
  7  2  1  0
  7  8  2  0
  9  5  1  0
 11 13  1  0
 11 10  1  6
 12 11  1  0
 13 14  1  6
 14  7  1  0
 15 13  1  0
 16 15  2  0
 17 15  1  0
 18 17  1  0
 18 19  1  1
 20 21  2  0
 20 19  1  0
 22 21  1  0
 23 22  2  0
 24 23  1  0
 24 25  2  0
 25 20  1  0
 26 18  1  0
 27 26  1  0
 28 26  2  0
M  END
$$$$
