ETF.pdb
     RDKit          3D

 28 28  0  0  1  0  0  0  0  0999 V2000
   26.2340  -34.9621  -15.2657 N   0  0  0  0  0  0  0  0  0  0  0  0
   25.2479  -35.3529  -14.2821 C   0  0  1  0  0  0  0  0  0  0  0  0
   25.9214  -36.4285  -13.4225 C   0  0  0  0  0  0  0  0  0  0  0  0
   24.9236  -36.9733  -12.4135 C   0  0  0  0  0  0  0  0  0  0  0  0
   25.4965  -38.1155  -11.6647 C   0  0  0  0  0  0  0  0  0  0  0  0
   25.3548  -39.3129  -12.0085 O   0  0  0  0  0  0  0  0  0  0  0  0
   24.8321  -34.2035  -13.4660 C   0  0  0  0  0  0  0  0  0  0  0  0
   25.7114  -33.3562  -13.1220 O   0  0  0  0  0  0  0  0  0  0  0  0
   26.2303  -37.8516  -10.5204 O   0  0  0  0  0  0  0  0  0  0  0  0
   22.1652  -31.6132  -14.2307 C   0  0  0  0  0  0  0  0  0  0  0  0
   21.8657  -32.2607  -12.9001 C   0  0  1  0  0  0  0  0  0  0  0  0
   20.9017  -33.2479  -13.1590 O   0  0  0  0  0  0  0  0  0  0  0  0
   23.1094  -32.8779  -12.2855 C   0  0  2  0  0  0  0  0  0  0  0  0
   23.4722  -34.0739  -13.0892 N   0  0  0  0  0  0  0  0  0  0  0  0
   22.7508  -33.3839  -10.9413 C   0  0  0  0  0  0  0  0  0  0  0  0
   22.6496  -34.6514  -10.7731 O   0  0  0  0  0  0  0  0  0  0  0  0
   22.5047  -32.6090   -9.7986 N   0  0  0  0  0  0  0  0  0  0  0  0
   22.0820  -33.2386   -8.5377 C   0  0  1  0  0  0  0  0  0  0  0  0
   23.0931  -32.9168   -7.4658 C   0  0  0  0  0  0  0  0  0  0  0  0
   22.7129  -33.5690   -6.2008 C   0  0  0  0  0  0  0  0  0  0  0  0
   23.0321  -34.8902   -5.9648 C   0  0  0  0  0  0  0  0  0  0  0  0
   22.6662  -35.4701   -4.7788 C   0  0  0  0  0  0  0  0  0  0  0  0
   21.9876  -34.7167   -3.8518 C   0  0  0  0  0  0  0  0  0  0  0  0
   21.6560  -33.3947   -4.0617 C   0  0  0  0  0  0  0  0  0  0  0  0
   22.0271  -32.8114   -5.2607 C   0  0  0  0  0  0  0  0  0  0  0  0
   20.7195  -32.8241   -8.1813 C   0  0  0  0  0  0  0  0  0  0  0  0
   19.8447  -33.5767   -7.4304 O   0  0  0  0  0  0  0  0  0  0  0  0
   20.2874  -31.6987   -8.5802 O   0  0  0  0  0  0  0  0  0  0  0  0
  2  1  1  6
  3  2  1  0
  4  3  1  0
  5  6  2  0
  5  4  1  0
  7  2  1  0
  7  8  2  0
  9  5  1  0
 11 13  1  0
 11 10  1  6
 12 11  1  0
 13 14  1  6
 14  7  1  0
 15 13  1  0
 16 15  2  0
 17 15  1  0
 18 17  1  0
 18 19  1  1
 20 21  2  0
 20 19  1  0
 22 21  1  0
 23 22  2  0
 24 23  1  0
 24 25  2  0
 25 20  1  0
 26 18  1  0
 27 26  1  0
 28 26  2  0
M  END
$$$$
