ETF.pdb
     RDKit          3D

 28 28  0  0  1  0  0  0  0  0999 V2000
   20.9672  -14.4282  -21.3603 N   0  0  0  0  0  0  0  0  0  0  0  0
   20.3238  -13.4576  -20.5020 C   0  0  1  0  0  0  0  0  0  0  0  0
   20.2074  -14.1290  -19.1290 C   0  0  0  0  0  0  0  0  0  0  0  0
   19.0527  -15.1175  -19.1414 C   0  0  0  0  0  0  0  0  0  0  0  0
   18.8986  -15.7692  -17.8204 C   0  0  0  0  0  0  0  0  0  0  0  0
   19.2732  -16.9405  -17.5755 O   0  0  0  0  0  0  0  0  0  0  0  0
   21.1110  -12.2190  -20.4231 C   0  0  0  0  0  0  0  0  0  0  0  0
   22.3407  -12.2631  -20.7320 O   0  0  0  0  0  0  0  0  0  0  0  0
   18.3082  -15.0494  -16.7953 O   0  0  0  0  0  0  0  0  0  0  0  0
   21.1041   -9.2154  -22.3411 C   0  0  0  0  0  0  0  0  0  0  0  0
   20.8161   -8.7927  -20.9206 C   0  0  1  0  0  0  0  0  0  0  0  0
   19.4200   -8.6777  -20.8270 O   0  0  0  0  0  0  0  0  0  0  0  0
   21.3359   -9.8080  -19.9183 C   0  0  2  0  0  0  0  0  0  0  0  0
   20.4806  -11.0196  -20.0082 N   0  0  0  0  0  0  0  0  0  0  0  0
   21.1226   -9.2587  -18.5603 C   0  0  0  0  0  0  0  0  0  0  0  0
   20.1088   -9.6668  -17.8890 O   0  0  0  0  0  0  0  0  0  0  0  0
   21.9303   -8.3163  -17.9073 N   0  0  0  0  0  0  0  0  0  0  0  0
   21.5431   -7.7710  -16.5968 C   0  0  1  0  0  0  0  0  0  0  0  0
   22.6942   -7.9383  -15.6365 C   0  0  0  0  0  0  0  0  0  0  0  0
   22.3345   -7.3911  -14.3169 C   0  0  0  0  0  0  0  0  0  0  0  0
   21.8282   -8.2094  -13.3283 C   0  0  0  0  0  0  0  0  0  0  0  0
   21.5031   -7.6727  -12.1105 C   0  0  0  0  0  0  0  0  0  0  0  0
   21.6910   -6.3273  -11.9054 C   0  0  0  0  0  0  0  0  0  0  0  0
   22.1951   -5.4869  -12.8755 C   0  0  0  0  0  0  0  0  0  0  0  0
   22.5228   -6.0318  -14.1049 C   0  0  0  0  0  0  0  0  0  0  0  0
   21.1029   -6.3763  -16.7239 C   0  0  0  0  0  0  0  0  0  0  0  0
   20.1557   -5.7793  -15.9227 O   0  0  0  0  0  0  0  0  0  0  0  0
   21.6112   -5.6436  -17.6280 O   0  0  0  0  0  0  0  0  0  0  0  0
  2  1  1  6
  3  2  1  0
  4  3  1  0
  5  6  2  0
  5  4  1  0
  7  2  1  0
  7  8  2  0
  9  5  1  0
 11 13  1  0
 11 10  1  6
 12 11  1  0
 13 14  1  1
 14  7  1  0
 15 13  1  0
 16 15  2  0
 17 15  1  0
 18 17  1  0
 18 19  1  1
 20 21  2  0
 20 19  1  0
 22 21  1  0
 23 22  2  0
 24 23  1  0
 24 25  2  0
 25 20  1  0
 26 18  1  0
 27 26  1  0
 28 26  2  0
M  END
$$$$
