ETF.pdb
     RDKit          3D

 28 28  0  0  1  0  0  0  0  0999 V2000
   13.7544  -10.5287  -16.7992 N   0  0  0  0  0  0  0  0  0  0  0  0
   14.5549   -9.9534  -15.7404 C   0  0  1  0  0  0  0  0  0  0  0  0
   14.9855  -11.1304  -14.8579 C   0  0  0  0  0  0  0  0  0  0  0  0
   14.9739  -12.4115  -15.6759 C   0  0  0  0  0  0  0  0  0  0  0  0
   15.4236  -13.5643  -14.8621 C   0  0  0  0  0  0  0  0  0  0  0  0
   16.6101  -13.7346  -14.4944 O   0  0  0  0  0  0  0  0  0  0  0  0
   15.7205   -9.2438  -16.2861 C   0  0  0  0  0  0  0  0  0  0  0  0
   16.1013   -9.5223  -17.4637 O   0  0  0  0  0  0  0  0  0  0  0  0
   14.4853  -14.5098  -14.4837 O   0  0  0  0  0  0  0  0  0  0  0  0
   16.0085   -5.4049  -16.3415 C   0  0  0  0  0  0  0  0  0  0  0  0
   17.2428   -6.0162  -15.7232 C   0  0  1  0  0  0  0  0  0  0  0  0
   17.0585   -5.9373  -14.3337 O   0  0  0  0  0  0  0  0  0  0  0  0
   17.4289   -7.4598  -16.1554 C   0  0  2  0  0  0  0  0  0  0  0  0
   16.3812   -8.2761  -15.4892 N   0  0  0  0  0  0  0  0  0  0  0  0
   18.7217   -7.9352  -15.6131 C   0  0  0  0  0  0  0  0  0  0  0  0
   18.7125   -8.6363  -14.5392 O   0  0  0  0  0  0  0  0  0  0  0  0
   19.9912   -7.6988  -16.1603 N   0  0  0  0  0  0  0  0  0  0  0  0
   21.2056   -8.1782  -15.4818 C   0  0  1  0  0  0  0  0  0  0  0  0
   21.8947   -9.1880  -16.3652 C   0  0  0  0  0  0  0  0  0  0  0  0
   23.2004   -9.5546  -15.7898 C   0  0  0  0  0  0  0  0  0  0  0  0
   23.2936  -10.5254  -14.8141 C   0  0  0  0  0  0  0  0  0  0  0  0
   24.5213  -10.8460  -14.2979 C   0  0  0  0  0  0  0  0  0  0  0  0
   25.6323  -10.1887  -14.7679 C   0  0  0  0  0  0  0  0  0  0  0  0
   25.5679   -9.2147  -15.7420 C   0  0  0  0  0  0  0  0  0  0  0  0
   24.3262   -8.8930  -16.2619 C   0  0  0  0  0  0  0  0  0  0  0  0
   22.0740   -7.0530  -15.1145 C   0  0  0  0  0  0  0  0  0  0  0  0
   22.9127   -7.0368  -14.0228 O   0  0  0  0  0  0  0  0  0  0  0  0
   22.0729   -6.0061  -15.8331 O   0  0  0  0  0  0  0  0  0  0  0  0
  2  1  1  6
  3  2  1  0
  4  3  1  0
  5  6  2  0
  5  4  1  0
  7  2  1  0
  7  8  2  0
  9  5  1  0
 11 13  1  0
 11 10  1  6
 12 11  1  0
 13 14  1  1
 14  7  1  0
 15 13  1  0
 16 15  2  0
 17 15  1  0
 18 17  1  0
 18 19  1  6
 20 21  2  0
 20 19  1  0
 22 21  1  0
 23 22  2  0
 24 23  1  0
 24 25  2  0
 25 20  1  0
 26 18  1  0
 27 26  1  0
 28 26  2  0
M  END
$$$$
