ETF.pdb
     RDKit          3D

 28 28  0  0  1  0  0  0  0  0999 V2000
   28.8703  -35.0460   -1.8898 N   0  0  0  0  0  0  0  0  0  0  0  0
   28.3936  -35.2414   -0.5381 C   0  0  1  0  0  0  0  0  0  0  0  0
   29.6488  -35.3205    0.3382 C   0  0  0  0  0  0  0  0  0  0  0  0
   29.8545  -36.7522    0.8057 C   0  0  0  0  0  0  0  0  0  0  0  0
   29.6064  -36.8757    2.2606 C   0  0  0  0  0  0  0  0  0  0  0  0
   29.3794  -35.8981    3.0123 O   0  0  0  0  0  0  0  0  0  0  0  0
   27.5226  -34.1338   -0.1203 C   0  0  0  0  0  0  0  0  0  0  0  0
   27.7321  -32.9821   -0.6091 O   0  0  0  0  0  0  0  0  0  0  0  0
   29.6251  -38.1390    2.8274 O   0  0  0  0  0  0  0  0  0  0  0  0
   23.2347  -32.6990    1.7885 C   0  0  0  0  0  0  0  0  0  0  0  0
   24.1815  -33.7687    1.3000 C   0  0  1  0  0  0  0  0  0  0  0  0
   23.6754  -34.1971    0.0625 O   0  0  0  0  0  0  0  0  0  0  0  0
   25.5946  -33.2358    1.1425 C   0  0  2  0  0  0  0  0  0  0  0  0
   26.4812  -34.3804    0.8086 N   0  0  0  0  0  0  0  0  0  0  0  0
   26.0459  -32.7429    2.4634 C   0  0  0  0  0  0  0  0  0  0  0  0
   26.2522  -33.5984    3.3964 O   0  0  0  0  0  0  0  0  0  0  0  0
   26.2816  -31.4063    2.8169 N   0  0  0  0  0  0  0  0  0  0  0  0
   26.6102  -31.0402    4.2036 C   0  0  1  0  0  0  0  0  0  0  0  0
   27.5157  -29.8339    4.1908 C   0  0  0  0  0  0  0  0  0  0  0  0
   27.7790  -29.3856    5.5692 C   0  0  0  0  0  0  0  0  0  0  0  0
   28.7430  -30.0025    6.3394 C   0  0  0  0  0  0  0  0  0  0  0  0
   28.9665  -29.5636    7.6177 C   0  0  0  0  0  0  0  0  0  0  0  0
   28.2207  -28.5158    8.1008 C   0  0  0  0  0  0  0  0  0  0  0  0
   27.2513  -27.8814    7.3529 C   0  0  0  0  0  0  0  0  0  0  0  0
   27.0278  -28.3267    6.0617 C   0  0  0  0  0  0  0  0  0  0  0  0
   25.3879  -30.8291    4.9887 C   0  0  0  0  0  0  0  0  0  0  0  0
   24.1496  -30.5603    4.4503 O   0  0  0  0  0  0  0  0  0  0  0  0
   25.4442  -30.8903    6.2558 O   0  0  0  0  0  0  0  0  0  0  0  0
  2  1  1  6
  3  2  1  0
  4  3  1  0
  5  6  2  0
  5  4  1  0
  7  2  1  0
  7  8  2  0
  9  5  1  0
 11 13  1  0
 11 10  1  6
 12 11  1  0
 13 14  1  1
 14  7  1  0
 15 13  1  0
 16 15  2  0
 17 15  1  0
 18 17  1  0
 18 19  1  6
 20 21  2  0
 20 19  1  0
 22 21  1  0
 23 22  2  0
 24 23  1  0
 24 25  2  0
 25 20  1  0
 26 18  1  0
 27 26  1  0
 28 26  2  0
M  END
$$$$
