ETF.pdb
     RDKit          3D

 28 28  0  0  1  0  0  0  0  0999 V2000
   21.4951  -15.7424  -19.6670 N   0  0  0  0  0  0  0  0  0  0  0  0
   20.8462  -14.4500  -19.6325 C   0  0  1  0  0  0  0  0  0  0  0  0
   19.8185  -14.5307  -18.4981 C   0  0  0  0  0  0  0  0  0  0  0  0
   18.8368  -15.6567  -18.7790 C   0  0  0  0  0  0  0  0  0  0  0  0
   18.7195  -16.5613  -17.6122 C   0  0  0  0  0  0  0  0  0  0  0  0
   18.1090  -16.2614  -16.5589 O   0  0  0  0  0  0  0  0  0  0  0  0
   21.8205  -13.3764  -19.3917 C   0  0  0  0  0  0  0  0  0  0  0  0
   23.0196  -13.6958  -19.1280 O   0  0  0  0  0  0  0  0  0  0  0  0
   19.3158  -17.8091  -17.6833 O   0  0  0  0  0  0  0  0  0  0  0  0
   22.9332  -10.9372  -21.8280 C   0  0  0  0  0  0  0  0  0  0  0  0
   22.4114  -10.1605  -20.6432 C   0  0  1  0  0  0  0  0  0  0  0  0
   21.0884   -9.8140  -20.9606 O   0  0  0  0  0  0  0  0  0  0  0  0
   22.4556  -10.9858  -19.3695 C   0  0  2  0  0  0  0  0  0  0  0  0
   21.3979  -12.0255  -19.4605 N   0  0  0  0  0  0  0  0  0  0  0  0
   22.0673  -10.1073  -18.2431 C   0  0  0  0  0  0  0  0  0  0  0  0
   20.8525  -10.1410  -17.8332 O   0  0  0  0  0  0  0  0  0  0  0  0
   22.9051   -9.2187  -17.5535 N   0  0  0  0  0  0  0  0  0  0  0  0
   22.3671   -8.3317  -16.5101 C   0  0  1  0  0  0  0  0  0  0  0  0
   23.3887   -8.1940  -15.4090 C   0  0  0  0  0  0  0  0  0  0  0  0
   22.8591   -7.3383  -14.3331 C   0  0  0  0  0  0  0  0  0  0  0  0
   22.2201   -7.8909  -13.2425 C   0  0  0  0  0  0  0  0  0  0  0  0
   21.7384   -7.0704  -12.2569 C   0  0  0  0  0  0  0  0  0  0  0  0
   21.9054   -5.7125  -12.3816 C   0  0  0  0  0  0  0  0  0  0  0  0
   22.5400   -5.1338  -13.4605 C   0  0  0  0  0  0  0  0  0  0  0  0
   23.0257   -5.9651  -14.4547 C   0  0  0  0  0  0  0  0  0  0  0  0
   21.9655   -7.0407  -17.0821 C   0  0  0  0  0  0  0  0  0  0  0  0
   20.8942   -6.2927  -16.6481 O   0  0  0  0  0  0  0  0  0  0  0  0
   22.6318   -6.5538  -18.0472 O   0  0  0  0  0  0  0  0  0  0  0  0
  2  1  1  1
  3  2  1  0
  4  3  1  0
  5  6  2  0
  5  4  1  0
  7  2  1  0
  7  8  2  0
  9  5  1  0
 11 13  1  0
 11 10  1  6
 12 11  1  0
 13 14  1  6
 14  7  1  0
 15 13  1  0
 16 15  2  0
 17 15  1  0
 18 17  1  0
 18 19  1  1
 20 21  2  0
 20 19  1  0
 22 21  1  0
 23 22  2  0
 24 23  1  0
 24 25  2  0
 25 20  1  0
 26 18  1  0
 27 26  1  0
 28 26  2  0
M  END
$$$$
