ETF.pdb
     RDKit          3D

 28 28  0  0  1  0  0  0  0  0999 V2000
   21.3202  -11.3366  -22.0847 N   0  0  0  0  0  0  0  0  0  0  0  0
   21.8579  -11.1926  -20.7495 C   0  0  1  0  0  0  0  0  0  0  0  0
   23.2524  -11.8275  -20.7920 C   0  0  0  0  0  0  0  0  0  0  0  0
   23.1257  -13.3407  -20.7240 C   0  0  0  0  0  0  0  0  0  0  0  0
   23.1588  -13.8130  -19.3207 C   0  0  0  0  0  0  0  0  0  0  0  0
   24.1025  -13.5761  -18.5299 O   0  0  0  0  0  0  0  0  0  0  0  0
   21.9297   -9.7775  -20.3592 C   0  0  0  0  0  0  0  0  0  0  0  0
   22.5363   -8.9688  -21.1256 O   0  0  0  0  0  0  0  0  0  0  0  0
   22.0905  -14.5584  -18.8508 O   0  0  0  0  0  0  0  0  0  0  0  0
   19.4484   -7.2923  -20.3778 C   0  0  0  0  0  0  0  0  0  0  0  0
   19.9175   -7.3879  -18.9459 C   0  0  1  0  0  0  0  0  0  0  0  0
   19.0339   -8.2731  -18.3081 O   0  0  0  0  0  0  0  0  0  0  0  0
   21.3435   -7.9017  -18.8573 C   0  0  2  0  0  0  0  0  0  0  0  0
   21.3244   -9.3586  -19.1483 N   0  0  0  0  0  0  0  0  0  0  0  0
   21.7881   -7.7730  -17.4512 C   0  0  0  0  0  0  0  0  0  0  0  0
   21.5457   -8.7393  -16.6434 O   0  0  0  0  0  0  0  0  0  0  0  0
   22.4660   -6.6815  -16.8891 N   0  0  0  0  0  0  0  0  0  0  0  0
   22.9296   -6.7199  -15.4932 C   0  0  1  0  0  0  0  0  0  0  0  0
   24.4252   -6.9150  -15.4785 C   0  0  0  0  0  0  0  0  0  0  0  0
   25.0725   -5.9228  -16.3542 C   0  0  0  0  0  0  0  0  0  0  0  0
   25.3736   -6.2291  -17.6652 C   0  0  0  0  0  0  0  0  0  0  0  0
   25.9750   -5.2861  -18.4562 C   0  0  0  0  0  0  0  0  0  0  0  0
   26.2637   -4.0546  -17.9200 C   0  0  0  0  0  0  0  0  0  0  0  0
   25.9737   -3.7220  -16.6135 C   0  0  0  0  0  0  0  0  0  0  0  0
   25.3660   -4.6765  -15.8167 C   0  0  0  0  0  0  0  0  0  0  0  0
   22.5033   -5.5151  -14.7708 C   0  0  0  0  0  0  0  0  0  0  0  0
   22.7203   -5.2897  -13.4301 O   0  0  0  0  0  0  0  0  0  0  0  0
   21.8870   -4.5992  -15.3982 O   0  0  0  0  0  0  0  0  0  0  0  0
  2  1  1  6
  3  2  1  0
  4  3  1  0
  5  6  2  0
  5  4  1  0
  7  2  1  0
  7  8  2  0
  9  5  1  0
 11 13  1  0
 11 10  1  6
 12 11  1  0
 13 14  1  1
 14  7  1  0
 15 13  1  0
 16 15  2  0
 17 15  1  0
 18 17  1  0
 18 19  1  6
 20 21  2  0
 20 19  1  0
 22 21  1  0
 23 22  2  0
 24 23  1  0
 24 25  2  0
 25 20  1  0
 26 18  1  0
 27 26  1  0
 28 26  2  0
M  END
$$$$
