MHT.pdb
     RDKit          3D

 26 26  0  0  1  0  0  0  0  0999 V2000
   17.6005  -14.2130  -15.6094 C   0  0  0  0  0  0  0  0  0  0  0  0
   17.7816  -12.4679  -15.1801 S   0  0  0  0  0  0  0  0  0  0  0  0
   16.6152  -11.9728  -13.8789 C   0  0  0  0  0  0  0  0  0  0  0  0
   16.8325  -10.5206  -13.5935 C   0  0  0  0  0  0  0  0  0  0  0  0
   15.9631  -10.0141  -12.4604 C   0  0  2  0  0  0  0  0  0  0  0  0
   14.5732  -10.1739  -12.7447 N   0  0  0  0  0  0  0  0  0  0  0  0
   16.3177   -8.5842  -12.1400 C   0  0  0  0  0  0  0  0  0  0  0  0
   15.7975   -7.6567  -12.8071 O   0  0  0  0  0  0  0  0  0  0  0  0
   17.2306   -8.2786  -11.0958 N   0  0  0  0  0  0  0  0  0  0  0  0
   17.6052   -6.9563  -10.7100 C   0  0  1  0  0  0  0  0  0  0  0  0
   17.2178   -6.5403   -9.3361 C   0  0  0  0  0  0  0  0  0  0  0  0
   15.8079   -6.6915   -8.9842 C   0  0  0  0  0  0  0  0  0  0  0  0
   14.8500   -5.7083   -9.1244 C   0  0  0  0  0  0  0  0  0  0  0  0
   13.6838   -6.2164   -8.6937 N   0  0  0  0  0  0  0  0  0  0  0  0
   13.8724   -7.5002   -8.2816 C   0  0  0  0  0  0  0  0  0  0  0  0
   15.1941   -7.7693   -8.4717 N   0  0  0  0  0  0  0  0  0  0  0  0
   19.0313   -6.6732  -11.0617 C   0  0  0  0  0  0  0  0  0  0  0  0
   19.9898   -7.1622  -10.4214 O   0  0  0  0  0  0  0  0  0  0  0  0
   20.9411   -8.0323  -13.2190 C   0  0  0  0  0  0  0  0  0  0  0  0
   21.0750   -6.6204  -13.7482 C   0  0  1  0  0  0  0  0  0  0  0  0
   20.0958   -6.4369  -14.7441 O   0  0  0  0  0  0  0  0  0  0  0  0
   20.7536   -5.6757  -12.6187 C   0  0  2  0  0  0  0  0  0  0  0  0
   19.3904   -5.8276  -12.1500 N   0  0  0  0  0  0  0  0  0  0  0  0
   21.0503   -4.2777  -13.0017 C   0  0  0  0  0  0  0  0  0  0  0  0
   22.3605   -3.8643  -13.2113 O   0  0  0  0  0  0  0  0  0  0  0  0
   20.1201   -3.4594  -13.1390 O   0  0  0  0  0  0  0  0  0  0  0  0
  2  1  1  0
  3  2  1  0
  4  3  1  0
  4  5  1  0
  5  6  1  6
  7  5  1  0
  7  8  2  0
  9  7  1  0
 10  9  1  0
 11 12  1  0
 10 11  1  1
 12 16  1  0
 13 12  2  0
 13 14  1  0
 14 15  1  0
 16 15  2  0
 17 10  1  0
 18 17  2  0
 20 21  1  0
 20 19  1  1
 22 23  1  6
 22 20  1  0
 23 17  1  0
 24 22  1  0
 25 24  1  0
 26 24  2  0
M  END
$$$$
