MHT.pdb
     RDKit          3D

 26 26  0  0  1  0  0  0  0  0999 V2000
   28.2644  -14.2005  -15.3302 C   0  0  0  0  0  0  0  0  0  0  0  0
   27.1625  -12.7953  -15.6014 S   0  0  0  0  0  0  0  0  0  0  0  0
   25.4508  -13.3307  -15.8876 C   0  0  0  0  0  0  0  0  0  0  0  0
   24.6157  -12.1086  -16.1036 C   0  0  0  0  0  0  0  0  0  0  0  0
   23.1668  -12.4392  -16.3999 C   0  0  2  0  0  0  0  0  0  0  0  0
   23.0422  -13.3516  -17.4909 N   0  0  0  0  0  0  0  0  0  0  0  0
   22.3861  -11.1697  -16.6278 C   0  0  0  0  0  0  0  0  0  0  0  0
   22.2525  -10.7307  -17.7963 O   0  0  0  0  0  0  0  0  0  0  0  0
   21.8038  -10.4694  -15.5382 N   0  0  0  0  0  0  0  0  0  0  0  0
   21.0277   -9.2779  -15.6642 C   0  0  1  0  0  0  0  0  0  0  0  0
   19.5762   -9.4074  -15.3694 C   0  0  0  0  0  0  0  0  0  0  0  0
   18.8749  -10.5078  -16.0265 C   0  0  0  0  0  0  0  0  0  0  0  0
   18.1738  -11.4995  -15.3717 C   0  0  0  0  0  0  0  0  0  0  0  0
   17.6772  -12.3270  -16.3056 N   0  0  0  0  0  0  0  0  0  0  0  0
   18.0434  -11.8889  -17.5416 C   0  0  0  0  0  0  0  0  0  0  0  0
   18.7830  -10.7628  -17.3410 N   0  0  0  0  0  0  0  0  0  0  0  0
   21.6946   -8.1231  -14.9867 C   0  0  0  0  0  0  0  0  0  0  0  0
   22.1377   -8.1960  -13.8179 O   0  0  0  0  0  0  0  0  0  0  0  0
   24.2935   -5.7255  -16.7149 C   0  0  0  0  0  0  0  0  0  0  0  0
   23.2513   -4.8752  -16.0203 C   0  0  1  0  0  0  0  0  0  0  0  0
   22.2961   -4.4906  -16.9815 O   0  0  0  0  0  0  0  0  0  0  0  0
   22.5503   -5.7455  -15.0091 C   0  0  2  0  0  0  0  0  0  0  0  0
   21.8688   -6.8643  -15.6297 N   0  0  0  0  0  0  0  0  0  0  0  0
   21.6350   -4.9424  -14.1687 C   0  0  0  0  0  0  0  0  0  0  0  0
   22.1173   -3.8815  -13.4114 O   0  0  0  0  0  0  0  0  0  0  0  0
   20.4193   -5.2158  -14.1360 O   0  0  0  0  0  0  0  0  0  0  0  0
  2  1  1  0
  3  2  1  0
  4  3  1  0
  4  5  1  0
  5  6  1  6
  7  5  1  0
  7  8  2  0
  9  7  1  0
 10  9  1  0
 11 12  1  0
 10 11  1  1
 12 16  1  0
 13 12  2  0
 13 14  1  0
 14 15  1  0
 16 15  2  0
 17 10  1  0
 18 17  2  0
 20 21  1  0
 20 19  1  6
 22 23  1  6
 22 20  1  0
 23 17  1  0
 24 22  1  0
 25 24  1  0
 26 24  2  0
M  END
$$$$
