MHT.pdb
     RDKit          3D

 26 26  0  0  1  0  0  0  0  0999 V2000
   27.0717  -14.3612  -18.4598 C   0  0  0  0  0  0  0  0  0  0  0  0
   26.5709  -14.3500  -16.7244 S   0  0  0  0  0  0  0  0  0  0  0  0
   24.9023  -13.6649  -16.5124 C   0  0  0  0  0  0  0  0  0  0  0  0
   24.9957  -12.1772  -16.6371 C   0  0  0  0  0  0  0  0  0  0  0  0
   23.6434  -11.4997  -16.5447 C   0  0  2  0  0  0  0  0  0  0  0  0
   22.7180  -12.0286  -17.4943 N   0  0  0  0  0  0  0  0  0  0  0  0
   23.8061  -10.0068  -16.6791 C   0  0  0  0  0  0  0  0  0  0  0  0
   24.6618   -9.4152  -15.9766 O   0  0  0  0  0  0  0  0  0  0  0  0
   23.0039   -9.2676  -17.5886 N   0  0  0  0  0  0  0  0  0  0  0  0
   23.0809   -7.8539  -17.7707 C   0  0  1  0  0  0  0  0  0  0  0  0
   23.3916   -7.3867  -19.1476 C   0  0  0  0  0  0  0  0  0  0  0  0
   24.6191   -7.9034  -19.7480 C   0  0  0  0  0  0  0  0  0  0  0  0
   24.6689   -8.8442  -20.7562 C   0  0  0  0  0  0  0  0  0  0  0  0
   25.9632   -9.0670  -21.0370 N   0  0  0  0  0  0  0  0  0  0  0  0
   26.7423   -8.2920  -20.2333 C   0  0  0  0  0  0  0  0  0  0  0  0
   25.8867   -7.5823  -19.4460 N   0  0  0  0  0  0  0  0  0  0  0  0
   21.9193   -7.1616  -17.1313 C   0  0  0  0  0  0  0  0  0  0  0  0
   20.7598   -7.2255  -17.5995 O   0  0  0  0  0  0  0  0  0  0  0  0
   20.5244   -7.7264  -13.9436 C   0  0  0  0  0  0  0  0  0  0  0  0
   20.7460   -6.2303  -13.8788 C   0  0  1  0  0  0  0  0  0  0  0  0
   21.9472   -6.0007  -13.1799 O   0  0  0  0  0  0  0  0  0  0  0  0
   20.9415   -5.7351  -15.2888 C   0  0  2  0  0  0  0  0  0  0  0  0
   22.0586   -6.3841  -15.9462 N   0  0  0  0  0  0  0  0  0  0  0  0
   21.0690   -4.2613  -15.3156 C   0  0  0  0  0  0  0  0  0  0  0  0
   20.0270   -3.4528  -14.8774 O   0  0  0  0  0  0  0  0  0  0  0  0
   22.1186   -3.7351  -15.7342 O   0  0  0  0  0  0  0  0  0  0  0  0
  2  1  1  0
  3  2  1  0
  4  3  1  0
  4  5  1  0
  5  6  1  6
  7  5  1  0
  7  8  2  0
  9  7  1  0
 10  9  1  0
 11 12  1  0
 10 11  1  6
 12 16  1  0
 13 12  2  0
 13 14  1  0
 14 15  1  0
 16 15  2  0
 17 10  1  0
 18 17  2  0
 20 21  1  0
 20 19  1  6
 22 23  1  1
 22 20  1  0
 23 17  1  0
 24 22  1  0
 25 24  1  0
 26 24  2  0
M  END
$$$$
