MHT.pdb
     RDKit          3D

 26 26  0  0  1  0  0  0  0  0999 V2000
   20.4098  -18.6028  -18.8097 C   0  0  0  0  0  0  0  0  0  0  0  0
   20.9529  -17.1710  -17.8518 S   0  0  0  0  0  0  0  0  0  0  0  0
   20.3532  -15.6155  -18.5723 C   0  0  0  0  0  0  0  0  0  0  0  0
   20.9795  -14.4862  -17.8172 C   0  0  0  0  0  0  0  0  0  0  0  0
   20.5924  -13.1302  -18.3717 C   0  0  2  0  0  0  0  0  0  0  0  0
   21.0763  -12.9419  -19.7016 N   0  0  0  0  0  0  0  0  0  0  0  0
   21.0564  -12.0413  -17.4378 C   0  0  0  0  0  0  0  0  0  0  0  0
   20.7117  -12.0771  -16.2313 O   0  0  0  0  0  0  0  0  0  0  0  0
   21.8754  -10.9808  -17.9084 N   0  0  0  0  0  0  0  0  0  0  0  0
   22.4658   -9.9836  -17.0748 C   0  0  1  0  0  0  0  0  0  0  0  0
   23.9497   -9.8966  -17.1081 C   0  0  0  0  0  0  0  0  0  0  0  0
   24.6803  -11.0458  -16.5790 C   0  0  0  0  0  0  0  0  0  0  0  0
   24.0967  -12.1483  -15.9893 C   0  0  0  0  0  0  0  0  0  0  0  0
   25.0846  -12.9834  -15.6280 N   0  0  0  0  0  0  0  0  0  0  0  0
   26.2855  -12.4421  -15.9722 C   0  0  0  0  0  0  0  0  0  0  0  0
   26.0075  -11.2443  -16.5584 N   0  0  0  0  0  0  0  0  0  0  0  0
   21.7668   -8.6695  -17.2247 C   0  0  0  0  0  0  0  0  0  0  0  0
   21.8472   -7.9823  -18.2682 O   0  0  0  0  0  0  0  0  0  0  0  0
   18.1373   -8.0068  -16.8892 C   0  0  0  0  0  0  0  0  0  0  0  0
   18.7802   -7.0247  -15.9334 C   0  0  1  0  0  0  0  0  0  0  0  0
   18.7546   -7.5945  -14.6454 O   0  0  0  0  0  0  0  0  0  0  0  0
   20.2257   -6.8762  -16.3333 C   0  0  2  0  0  0  0  0  0  0  0  0
   20.9634   -8.1155  -16.1875 N   0  0  0  0  0  0  0  0  0  0  0  0
   20.8648   -5.7660  -15.5931 C   0  0  0  0  0  0  0  0  0  0  0  0
   20.3699   -4.4711  -15.6934 O   0  0  0  0  0  0  0  0  0  0  0  0
   21.8565   -5.9888  -14.8714 O   0  0  0  0  0  0  0  0  0  0  0  0
  2  1  1  0
  3  2  1  0
  4  3  1  0
  4  5  1  0
  5  6  1  6
  7  5  1  0
  7  8  2  0
  9  7  1  0
 10  9  1  0
 11 12  1  0
 10 11  1  6
 12 16  1  0
 13 12  2  0
 13 14  1  0
 14 15  1  0
 16 15  2  0
 17 10  1  0
 18 17  2  0
 20 21  1  0
 20 19  1  6
 22 23  1  1
 22 20  1  0
 23 17  1  0
 24 22  1  0
 25 24  1  0
 26 24  2  0
M  END
$$$$
