MHT.pdb
     RDKit          3D

 26 26  0  0  1  0  0  0  0  0999 V2000
   16.1144  -16.2516  -19.1405 C   0  0  0  0  0  0  0  0  0  0  0  0
   17.2968  -15.8530  -20.4465 S   0  0  0  0  0  0  0  0  0  0  0  0
   18.4328  -14.5291  -19.9413 C   0  0  0  0  0  0  0  0  0  0  0  0
   17.6140  -13.4027  -19.3950 C   0  0  0  0  0  0  0  0  0  0  0  0
   18.4652  -12.2456  -18.9124 C   0  0  2  0  0  0  0  0  0  0  0  0
   19.6640  -12.6949  -18.2808 N   0  0  0  0  0  0  0  0  0  0  0  0
   17.6513  -11.3478  -18.0154 C   0  0  0  0  0  0  0  0  0  0  0  0
   16.5450  -10.9135  -18.4194 O   0  0  0  0  0  0  0  0  0  0  0  0
   18.1226  -10.9907  -16.7242 N   0  0  0  0  0  0  0  0  0  0  0  0
   17.4452  -10.1061  -15.8318 C   0  0  1  0  0  0  0  0  0  0  0  0
   17.0659  -10.6724  -14.5104 C   0  0  0  0  0  0  0  0  0  0  0  0
   16.0420  -11.7145  -14.5193 C   0  0  0  0  0  0  0  0  0  0  0  0
   15.4258  -12.2053  -15.6521 C   0  0  0  0  0  0  0  0  0  0  0  0
   14.5461  -13.1413  -15.2599 N   0  0  0  0  0  0  0  0  0  0  0  0
   14.5845  -13.2610  -13.9043 C   0  0  0  0  0  0  0  0  0  0  0  0
   15.5174  -12.3679  -13.4710 N   0  0  0  0  0  0  0  0  0  0  0  0
   18.1314   -8.7788  -15.7606 C   0  0  0  0  0  0  0  0  0  0  0  0
   19.3196   -8.6574  -15.3850 O   0  0  0  0  0  0  0  0  0  0  0  0
   18.1599   -5.9873  -18.4691 C   0  0  0  0  0  0  0  0  0  0  0  0
   17.6910   -5.3617  -17.1728 C   0  0  1  0  0  0  0  0  0  0  0  0
   16.2827   -5.3394  -17.1876 O   0  0  0  0  0  0  0  0  0  0  0  0
   18.1171   -6.2681  -16.0466 C   0  0  2  0  0  0  0  0  0  0  0  0
   17.4753   -7.5660  -16.1168 N   0  0  0  0  0  0  0  0  0  0  0  0
   17.8983   -5.6172  -14.7361 C   0  0  0  0  0  0  0  0  0  0  0  0
   18.5160   -4.4094  -14.4340 O   0  0  0  0  0  0  0  0  0  0  0  0
   17.1540   -6.1529  -13.8919 O   0  0  0  0  0  0  0  0  0  0  0  0
  2  1  1  0
  3  2  1  0
  4  3  1  0
  4  5  1  0
  5  6  1  1
  7  5  1  0
  7  8  2  0
  9  7  1  0
 10  9  1  0
 11 12  1  0
 10 11  1  1
 12 16  1  0
 13 12  2  0
 13 14  1  0
 14 15  1  0
 16 15  2  0
 17 10  1  0
 18 17  2  0
 20 21  1  0
 20 19  1  6
 22 23  1  1
 22 20  1  0
 23 17  1  0
 24 22  1  0
 25 24  1  0
 26 24  2  0
M  END
$$$$
