MHT.pdb
     RDKit          3D

 26 26  0  0  1  0  0  0  0  0999 V2000
   22.0250  -18.8703  -22.6325 C   0  0  0  0  0  0  0  0  0  0  0  0
   23.6076  -19.6955  -22.9094 S   0  0  0  0  0  0  0  0  0  0  0  0
   24.5355  -19.9031  -21.3620 C   0  0  0  0  0  0  0  0  0  0  0  0
   23.5717  -19.7714  -20.2256 C   0  0  0  0  0  0  0  0  0  0  0  0
   24.2615  -19.7598  -18.8763 C   0  0  2  0  0  0  0  0  0  0  0  0
   25.1700  -20.8518  -18.7345 N   0  0  0  0  0  0  0  0  0  0  0  0
   23.2336  -19.7279  -17.7738 C   0  0  0  0  0  0  0  0  0  0  0  0
   22.8375  -20.8073  -17.2701 O   0  0  0  0  0  0  0  0  0  0  0  0
   22.7118  -18.4940  -17.3026 N   0  0  0  0  0  0  0  0  0  0  0  0
   21.6848  -18.3729  -16.3185 C   0  0  1  0  0  0  0  0  0  0  0  0
   21.7113  -17.1369  -15.4926 C   0  0  0  0  0  0  0  0  0  0  0  0
   20.6951  -17.0308  -14.4483 C   0  0  0  0  0  0  0  0  0  0  0  0
   19.7450  -17.9923  -14.1715 C   0  0  0  0  0  0  0  0  0  0  0  0
   18.9923  -17.5359  -13.1571 N   0  0  0  0  0  0  0  0  0  0  0  0
   19.4377  -16.3063  -12.7785 C   0  0  0  0  0  0  0  0  0  0  0  0
   20.4910  -16.0173  -13.5924 N   0  0  0  0  0  0  0  0  0  0  0  0
   20.3435  -18.7033  -16.8923 C   0  0  0  0  0  0  0  0  0  0  0  0
   19.8937  -18.1378  -17.9149 O   0  0  0  0  0  0  0  0  0  0  0  0
   18.9401  -22.3245  -17.3979 C   0  0  0  0  0  0  0  0  0  0  0  0
   17.8942  -21.5145  -16.6621 C   0  0  1  0  0  0  0  0  0  0  0  0
   18.0328  -21.7779  -15.2852 O   0  0  0  0  0  0  0  0  0  0  0  0
   18.2094  -20.0565  -16.8774 C   0  0  2  0  0  0  0  0  0  0  0  0
   19.4908  -19.6847  -16.3109 N   0  0  0  0  0  0  0  0  0  0  0  0
   17.1147  -19.2011  -16.3686 C   0  0  0  0  0  0  0  0  0  0  0  0
   17.3381  -18.3133  -15.3228 O   0  0  0  0  0  0  0  0  0  0  0  0
   15.9799  -19.2734  -16.8792 O   0  0  0  0  0  0  0  0  0  0  0  0
  2  1  1  0
  3  2  1  0
  4  3  1  0
  4  5  1  0
  5  6  1  1
  7  5  1  0
  7  8  2  0
  9  7  1  0
 10  9  1  0
 11 12  1  0
 10 11  1  6
 12 16  1  0
 13 12  2  0
 13 14  1  0
 14 15  1  0
 16 15  2  0
 17 10  1  0
 18 17  2  0
 20 21  1  0
 20 19  1  6
 22 23  1  1
 22 20  1  0
 23 17  1  0
 24 22  1  0
 25 24  1  0
 26 24  2  0
M  END
$$$$
