MHT.pdb
     RDKit          3D

 26 26  0  0  1  0  0  0  0  0999 V2000
   26.3656  -20.1012   -7.2327 C   0  0  0  0  0  0  0  0  0  0  0  0
   25.6087  -20.3297   -8.8567 S   0  0  0  0  0  0  0  0  0  0  0  0
   26.8380  -20.2284  -10.1898 C   0  0  0  0  0  0  0  0  0  0  0  0
   26.1027  -20.0887  -11.4850 C   0  0  0  0  0  0  0  0  0  0  0  0
   25.2197  -21.2833  -11.7843 C   0  0  2  0  0  0  0  0  0  0  0  0
   25.9866  -22.4557  -12.0585 N   0  0  0  0  0  0  0  0  0  0  0  0
   24.2677  -20.9508  -12.9052 C   0  0  0  0  0  0  0  0  0  0  0  0
   24.6829  -20.9648  -14.0898 O   0  0  0  0  0  0  0  0  0  0  0  0
   22.9126  -20.6233  -12.6344 N   0  0  0  0  0  0  0  0  0  0  0  0
   21.9383  -20.3212  -13.6329 C   0  0  1  0  0  0  0  0  0  0  0  0
   20.5325  -20.6779  -13.3056 C   0  0  0  0  0  0  0  0  0  0  0  0
   20.2075  -22.1023  -13.3003 C   0  0  0  0  0  0  0  0  0  0  0  0
   21.0725  -23.1102  -13.6742 C   0  0  0  0  0  0  0  0  0  0  0  0
   20.4170  -24.2748  -13.5411 N   0  0  0  0  0  0  0  0  0  0  0  0
   19.1543  -24.0366  -13.0913 C   0  0  0  0  0  0  0  0  0  0  0  0
   19.0505  -22.6857  -12.9506 N   0  0  0  0  0  0  0  0  0  0  0  0
   22.1160  -18.9326  -14.1602 C   0  0  0  0  0  0  0  0  0  0  0  0
   21.9307  -17.9172  -13.4515 O   0  0  0  0  0  0  0  0  0  0  0  0
   25.1085  -17.3337  -15.3587 C   0  0  0  0  0  0  0  0  0  0  0  0
   24.1669  -17.1902  -16.5352 C   0  0  1  0  0  0  0  0  0  0  0  0
   24.4114  -18.2603  -17.4181 O   0  0  0  0  0  0  0  0  0  0  0  0
   22.7600  -17.3441  -16.0170 C   0  0  2  0  0  0  0  0  0  0  0  0
   22.5087  -18.6768  -15.5051 N   0  0  0  0  0  0  0  0  0  0  0  0
   21.7738  -16.9573  -17.0498 C   0  0  0  0  0  0  0  0  0  0  0  0
   21.7772  -15.6753  -17.5866 O   0  0  0  0  0  0  0  0  0  0  0  0
   20.9301  -17.7851  -17.4456 O   0  0  0  0  0  0  0  0  0  0  0  0
  2  1  1  0
  3  2  1  0
  4  3  1  0
  4  5  1  0
  5  6  1  6
  7  5  1  0
  7  8  2  0
  9  7  1  0
 10  9  1  0
 11 12  1  0
 10 11  1  1
 12 16  1  0
 13 12  2  0
 13 14  1  0
 14 15  1  0
 16 15  2  0
 17 10  1  0
 18 17  2  0
 20 21  1  0
 20 19  1  1
 22 23  1  6
 22 20  1  0
 23 17  1  0
 24 22  1  0
 25 24  1  0
 26 24  2  0
M  END
$$$$
