MHT.pdb
     RDKit          3D

 26 26  0  0  1  0  0  0  0  0999 V2000
   29.2380  -13.0710  -15.0456 C   0  0  0  0  0  0  0  0  0  0  0  0
   27.9661  -11.9020  -15.5731 S   0  0  0  0  0  0  0  0  0  0  0  0
   26.3922  -12.7372  -15.9250 C   0  0  0  0  0  0  0  0  0  0  0  0
   25.4005  -11.6963  -16.3382 C   0  0  0  0  0  0  0  0  0  0  0  0
   24.0043  -12.2595  -16.5116 C   0  0  2  0  0  0  0  0  0  0  0  0
   23.9580  -13.2621  -17.5268 N   0  0  0  0  0  0  0  0  0  0  0  0
   23.0275  -11.1409  -16.7714 C   0  0  0  0  0  0  0  0  0  0  0  0
   22.8846  -10.7078  -17.9410 O   0  0  0  0  0  0  0  0  0  0  0  0
   22.2716  -10.5754  -15.7104 N   0  0  0  0  0  0  0  0  0  0  0  0
   21.3821   -9.4678  -15.8516 C   0  0  1  0  0  0  0  0  0  0  0  0
   19.9501   -9.7357  -15.5543 C   0  0  0  0  0  0  0  0  0  0  0  0
   19.0345   -8.6059  -15.6948 C   0  0  0  0  0  0  0  0  0  0  0  0
   18.5603   -8.1194  -16.8957 C   0  0  0  0  0  0  0  0  0  0  0  0
   17.7541   -7.0811  -16.6207 N   0  0  0  0  0  0  0  0  0  0  0  0
   17.7011   -6.8916  -15.2735 C   0  0  0  0  0  0  0  0  0  0  0  0
   18.5013   -7.8474  -14.7244 N   0  0  0  0  0  0  0  0  0  0  0  0
   21.9316   -8.2442  -15.1894 C   0  0  0  0  0  0  0  0  0  0  0  0
   22.4412   -8.2719  -14.0461 O   0  0  0  0  0  0  0  0  0  0  0  0
   24.2755   -5.7542  -16.9777 C   0  0  0  0  0  0  0  0  0  0  0  0
   23.1921   -4.9334  -16.3114 C   0  0  1  0  0  0  0  0  0  0  0  0
   22.2089   -4.6478  -17.2788 O   0  0  0  0  0  0  0  0  0  0  0  0
   22.5498   -5.7949  -15.2546 C   0  0  2  0  0  0  0  0  0  0  0  0
   21.9104   -6.9670  -15.8190 N   0  0  0  0  0  0  0  0  0  0  0  0
   21.6130   -5.0025  -14.4279 C   0  0  0  0  0  0  0  0  0  0  0  0
   22.0690   -3.9257  -13.6768 O   0  0  0  0  0  0  0  0  0  0  0  0
   20.4026   -5.2993  -14.4015 O   0  0  0  0  0  0  0  0  0  0  0  0
  2  1  1  0
  3  2  1  0
  4  3  1  0
  4  5  1  0
  5  6  1  6
  7  5  1  0
  7  8  2  0
  9  7  1  0
 10  9  1  0
 11 12  1  0
 10 11  1  1
 12 16  1  0
 13 12  2  0
 13 14  1  0
 14 15  1  0
 16 15  2  0
 17 10  1  0
 18 17  2  0
 20 21  1  0
 20 19  1  6
 22 23  1  6
 22 20  1  0
 23 17  1  0
 24 22  1  0
 25 24  1  0
 26 24  2  0
M  END
$$$$
