MHT.pdb
     RDKit          3D

 26 26  0  0  1  0  0  0  0  0999 V2000
   27.6861  -20.5043   -3.3311 C   0  0  0  0  0  0  0  0  0  0  0  0
   29.1971  -20.2285   -4.2815 S   0  0  0  0  0  0  0  0  0  0  0  0
   28.8739  -19.2747   -5.7929 C   0  0  0  0  0  0  0  0  0  0  0  0
   27.9069  -20.0509   -6.6297 C   0  0  0  0  0  0  0  0  0  0  0  0
   27.4986  -19.3086   -7.8862 C   0  0  2  0  0  0  0  0  0  0  0  0
   26.8200  -18.0890   -7.5861 N   0  0  0  0  0  0  0  0  0  0  0  0
   26.6804  -20.2117   -8.7738 C   0  0  0  0  0  0  0  0  0  0  0  0
   27.1856  -21.2795   -9.1985 O   0  0  0  0  0  0  0  0  0  0  0  0
   25.3501  -19.8670   -9.1321 N   0  0  0  0  0  0  0  0  0  0  0  0
   24.6074  -20.4897  -10.1802 C   0  0  1  0  0  0  0  0  0  0  0  0
   23.1268  -20.4334  -10.0567 C   0  0  0  0  0  0  0  0  0  0  0  0
   22.5511  -21.0357   -8.8565 C   0  0  0  0  0  0  0  0  0  0  0  0
   23.2740  -21.6742   -7.8699 C   0  0  0  0  0  0  0  0  0  0  0  0
   22.4022  -22.0963   -6.9396 N   0  0  0  0  0  0  0  0  0  0  0  0
   21.1396  -21.7434   -7.3070 C   0  0  0  0  0  0  0  0  0  0  0  0
   21.2595  -21.0890   -8.4956 N   0  0  0  0  0  0  0  0  0  0  0  0
   25.1303  -20.0923  -11.5242 C   0  0  0  0  0  0  0  0  0  0  0  0
   25.3840  -18.9025  -11.8202 O   0  0  0  0  0  0  0  0  0  0  0  0
   27.2219  -22.7839  -13.9621 C   0  0  0  0  0  0  0  0  0  0  0  0
   27.3493  -21.2758  -13.9916 C   0  0  1  0  0  0  0  0  0  0  0  0
   27.8166  -20.9059  -15.2680 O   0  0  0  0  0  0  0  0  0  0  0  0
   25.9673  -20.6964  -13.8307 C   0  0  2  0  0  0  0  0  0  0  0  0
   25.3737  -21.0445  -12.5549 N   0  0  0  0  0  0  0  0  0  0  0  0
   25.0993  -21.0840  -14.9645 C   0  0  0  0  0  0  0  0  0  0  0  0
   25.4392  -20.7372  -16.2667 O   0  0  0  0  0  0  0  0  0  0  0  0
   24.0525  -21.7275  -14.7551 O   0  0  0  0  0  0  0  0  0  0  0  0
  2  1  1  0
  3  2  1  0
  4  3  1  0
  4  5  1  0
  5  6  1  1
  7  5  1  0
  7  8  2  0
  9  7  1  0
 10  9  1  0
 11 12  1  0
 10 11  1  6
 12 16  1  0
 13 12  2  0
 13 14  1  0
 14 15  1  0
 16 15  2  0
 17 10  1  0
 18 17  2  0
 20 21  1  0
 20 19  1  6
 22 23  1  1
 22 20  1  0
 23 17  1  0
 24 22  1  0
 25 24  1  0
 26 24  2  0
M  END
$$$$
