MHT.pdb
     RDKit          3D

 26 26  0  0  1  0  0  0  0  0999 V2000
   32.9185  -28.8794  -21.1144 C   0  0  0  0  0  0  0  0  0  0  0  0
   34.1869  -27.9071  -20.2728 S   0  0  0  0  0  0  0  0  0  0  0  0
   33.4572  -26.6947  -19.1343 C   0  0  0  0  0  0  0  0  0  0  0  0
   32.3327  -27.3629  -18.4085 C   0  0  0  0  0  0  0  0  0  0  0  0
   31.1540  -26.4374  -18.1840 C   0  0  2  0  0  0  0  0  0  0  0  0
   31.5106  -25.3057  -17.3901 N   0  0  0  0  0  0  0  0  0  0  0  0
   30.0012  -27.2076  -17.5916 C   0  0  0  0  0  0  0  0  0  0  0  0
   29.9179  -27.3290  -16.3450 O   0  0  0  0  0  0  0  0  0  0  0  0
   29.0138  -27.7943  -18.4270 N   0  0  0  0  0  0  0  0  0  0  0  0
   27.8244  -28.4257  -17.9531 C   0  0  1  0  0  0  0  0  0  0  0  0
   26.5621  -27.6597  -18.1276 C   0  0  0  0  0  0  0  0  0  0  0  0
   26.5228  -26.3266  -17.5310 C   0  0  0  0  0  0  0  0  0  0  0  0
   26.0755  -26.0457  -16.2563 C   0  0  0  0  0  0  0  0  0  0  0  0
   26.1869  -24.7200  -16.0723 N   0  0  0  0  0  0  0  0  0  0  0  0
   26.6943  -24.1463  -17.1979 C   0  0  0  0  0  0  0  0  0  0  0  0
   26.8931  -25.1613  -18.0843 N   0  0  0  0  0  0  0  0  0  0  0  0
   27.7502  -29.8495  -18.4057 C   0  0  0  0  0  0  0  0  0  0  0  0
   28.0593  -30.2011  -19.5669 O   0  0  0  0  0  0  0  0  0  0  0  0
   29.0519  -32.8892  -16.3299 C   0  0  0  0  0  0  0  0  0  0  0  0
   27.6438  -33.2095  -16.7840 C   0  0  1  0  0  0  0  0  0  0  0  0
   26.7664  -32.8939  -15.7281 O   0  0  0  0  0  0  0  0  0  0  0  0
   27.3144  -32.2936  -17.9347 C   0  0  2  0  0  0  0  0  0  0  0  0
   27.3223  -30.8982  -17.5423 N   0  0  0  0  0  0  0  0  0  0  0  0
   26.0324  -32.6801  -18.5641 C   0  0  0  0  0  0  0  0  0  0  0  0
   24.9557  -31.8012  -18.5742 O   0  0  0  0  0  0  0  0  0  0  0  0
   25.9117  -33.8031  -19.0914 O   0  0  0  0  0  0  0  0  0  0  0  0
  2  1  1  0
  3  2  1  0
  4  3  1  0
  4  5  1  0
  5  6  1  1
  7  5  1  0
  7  8  2  0
  9  7  1  0
 10  9  1  0
 11 12  1  0
 10 11  1  6
 12 16  1  0
 13 12  2  0
 13 14  1  0
 14 15  1  0
 16 15  2  0
 17 10  1  0
 18 17  2  0
 20 21  1  0
 20 19  1  1
 22 23  1  1
 22 20  1  0
 23 17  1  0
 24 22  1  0
 25 24  1  0
 26 24  2  0
M  END
$$$$
