MHT.pdb
     RDKit          3D

 26 26  0  0  1  0  0  0  0  0999 V2000
   24.1410  -32.8364  -11.4553 C   0  0  0  0  0  0  0  0  0  0  0  0
   24.4909  -33.0700   -9.6988 S   0  0  0  0  0  0  0  0  0  0  0  0
   26.1448  -32.4626   -9.2579 C   0  0  0  0  0  0  0  0  0  0  0  0
   26.3383  -32.6770   -7.7901 C   0  0  0  0  0  0  0  0  0  0  0  0
   27.3806  -33.7350   -7.4893 C   0  0  2  0  0  0  0  0  0  0  0  0
   26.9763  -35.0250   -7.9481 N   0  0  0  0  0  0  0  0  0  0  0  0
   27.7072  -33.7310   -6.0175 C   0  0  0  0  0  0  0  0  0  0  0  0
   28.0802  -32.6634   -5.4727 O   0  0  0  0  0  0  0  0  0  0  0  0
   27.5975  -34.9182   -5.2457 N   0  0  0  0  0  0  0  0  0  0  0  0
   27.8468  -34.9967   -3.8423 C   0  0  1  0  0  0  0  0  0  0  0  0
   26.6690  -35.2889   -2.9832 C   0  0  0  0  0  0  0  0  0  0  0  0
   25.6061  -34.2867   -2.9743 C   0  0  0  0  0  0  0  0  0  0  0  0
   25.7449  -32.9935   -2.5137 C   0  0  0  0  0  0  0  0  0  0  0  0
   24.5583  -32.3823   -2.6625 N   0  0  0  0  0  0  0  0  0  0  0  0
   23.6642  -33.2527   -3.2070 C   0  0  0  0  0  0  0  0  0  0  0  0
   24.3372  -34.4227   -3.3900 N   0  0  0  0  0  0  0  0  0  0  0  0
   29.0472  -35.8407   -3.5521 C   0  0  0  0  0  0  0  0  0  0  0  0
   29.1051  -37.0529   -3.8602 O   0  0  0  0  0  0  0  0  0  0  0  0
   32.8004  -34.5632   -3.9892 C   0  0  0  0  0  0  0  0  0  0  0  0
   32.6405  -35.2229   -2.6362 C   0  0  1  0  0  0  0  0  0  0  0  0
   32.3990  -34.2105   -1.6870 O   0  0  0  0  0  0  0  0  0  0  0  0
   31.4104  -36.0919   -2.6932 C   0  0  2  0  0  0  0  0  0  0  0  0
   30.2034  -35.3178   -2.9057 N   0  0  0  0  0  0  0  0  0  0  0  0
   31.3117  -36.9435   -1.4873 C   0  0  0  0  0  0  0  0  0  0  0  0
   32.3302  -37.8319   -1.1631 O   0  0  0  0  0  0  0  0  0  0  0  0
   30.3080  -36.8671   -0.7521 O   0  0  0  0  0  0  0  0  0  0  0  0
  2  1  1  0
  3  2  1  0
  4  3  1  0
  4  5  1  0
  5  6  1  1
  7  5  1  0
  7  8  2  0
  9  7  1  0
 10  9  1  0
 11 12  1  0
 10 11  1  1
 12 16  1  0
 13 12  2  0
 13 14  1  0
 14 15  1  0
 16 15  2  0
 17 10  1  0
 18 17  2  0
 20 21  1  0
 20 19  1  6
 22 23  1  1
 22 20  1  0
 23 17  1  0
 24 22  1  0
 25 24  1  0
 26 24  2  0
M  END
$$$$
