MHT.pdb
     RDKit          3D

 26 26  0  0  1  0  0  0  0  0999 V2000
   33.5293  -12.5751  -18.2431 C   0  0  0  0  0  0  0  0  0  0  0  0
   32.7674  -13.7697  -19.3634 S   0  0  0  0  0  0  0  0  0  0  0  0
   31.0980  -14.2313  -18.8170 C   0  0  0  0  0  0  0  0  0  0  0  0
   30.2682  -12.9876  -18.7697 C   0  0  0  0  0  0  0  0  0  0  0  0
   28.8673  -13.2424  -18.2511 C   0  0  2  0  0  0  0  0  0  0  0  0
   28.1973  -14.2529  -19.0047 N   0  0  0  0  0  0  0  0  0  0  0  0
   28.0902  -11.9510  -18.2138 C   0  0  0  0  0  0  0  0  0  0  0  0
   27.3707  -11.6371  -19.1933 O   0  0  0  0  0  0  0  0  0  0  0  0
   28.1647  -11.0906  -17.0863 N   0  0  0  0  0  0  0  0  0  0  0  0
   27.4131   -9.8863  -16.9366 C   0  0  1  0  0  0  0  0  0  0  0  0
   26.7580   -9.6828  -15.6174 C   0  0  0  0  0  0  0  0  0  0  0  0
   25.5623  -10.4803  -15.3553 C   0  0  0  0  0  0  0  0  0  0  0  0
   24.9897  -11.3610  -16.2498 C   0  0  0  0  0  0  0  0  0  0  0  0
   23.9117  -11.8972  -15.6547 N   0  0  0  0  0  0  0  0  0  0  0  0
   23.7809  -11.3811  -14.4017 C   0  0  0  0  0  0  0  0  0  0  0  0
   24.8139  -10.5077  -14.2416 N   0  0  0  0  0  0  0  0  0  0  0  0
   28.1816   -8.7031  -17.4333 C   0  0  0  0  0  0  0  0  0  0  0  0
   29.2604   -8.3376  -16.9134 O   0  0  0  0  0  0  0  0  0  0  0  0
   29.3788   -8.0573  -20.9866 C   0  0  0  0  0  0  0  0  0  0  0  0
   28.5534   -6.8530  -20.5867 C   0  0  1  0  0  0  0  0  0  0  0  0
   27.2389   -7.0560  -21.0507 O   0  0  0  0  0  0  0  0  0  0  0  0
   28.5004   -6.8139  -19.0810 C   0  0  2  0  0  0  0  0  0  0  0  0
   27.7342   -7.9152  -18.5321 N   0  0  0  0  0  0  0  0  0  0  0  0
   27.9989   -5.5054  -18.6063 C   0  0  0  0  0  0  0  0  0  0  0  0
   28.7242   -4.3429  -18.8390 O   0  0  0  0  0  0  0  0  0  0  0  0
   26.9167   -5.4397  -17.9914 O   0  0  0  0  0  0  0  0  0  0  0  0
  2  1  1  0
  3  2  1  0
  4  3  1  0
  4  5  1  0
  5  6  1  6
  7  5  1  0
  7  8  2  0
  9  7  1  0
 10  9  1  0
 11 12  1  0
 10 11  1  1
 12 16  1  0
 13 12  2  0
 13 14  1  0
 14 15  1  0
 16 15  2  0
 17 10  1  0
 18 17  2  0
 20 21  1  0
 20 19  1  1
 22 23  1  6
 22 20  1  0
 23 17  1  0
 24 22  1  0
 25 24  1  0
 26 24  2  0
M  END
$$$$
