MHT.pdb
     RDKit          3D

 26 26  0  0  1  0  0  0  0  0999 V2000
   13.6003   -4.1581   -6.1001 C   0  0  0  0  0  0  0  0  0  0  0  0
   14.8871   -5.0338   -7.0164 S   0  0  0  0  0  0  0  0  0  0  0  0
   14.1804   -6.1900   -8.2257 C   0  0  0  0  0  0  0  0  0  0  0  0
   15.3092   -6.7968   -8.9973 C   0  0  0  0  0  0  0  0  0  0  0  0
   14.8366   -7.8140  -10.0163 C   0  0  2  0  0  0  0  0  0  0  0  0
   14.3240   -8.9917   -9.3932 N   0  0  0  0  0  0  0  0  0  0  0  0
   15.9471   -8.1218  -10.9885 C   0  0  0  0  0  0  0  0  0  0  0  0
   16.7764   -9.0222  -10.7106 O   0  0  0  0  0  0  0  0  0  0  0  0
   16.0631   -7.4057  -12.2094 N   0  0  0  0  0  0  0  0  0  0  0  0
   17.0402   -7.6739  -13.2150 C   0  0  1  0  0  0  0  0  0  0  0  0
   16.5157   -8.0530  -14.5535 C   0  0  0  0  0  0  0  0  0  0  0  0
   15.6469   -9.2266  -14.6029 C   0  0  0  0  0  0  0  0  0  0  0  0
   16.0871  -10.5302  -14.7054 C   0  0  0  0  0  0  0  0  0  0  0  0
   15.0026  -11.3221  -14.7273 N   0  0  0  0  0  0  0  0  0  0  0  0
   13.8798  -10.5570  -14.6413 C   0  0  0  0  0  0  0  0  0  0  0  0
   14.3059   -9.2654  -14.5655 N   0  0  0  0  0  0  0  0  0  0  0  0
   18.0939   -6.6125  -13.2428 C   0  0  0  0  0  0  0  0  0  0  0  0
   17.8453   -5.4137  -12.9805 O   0  0  0  0  0  0  0  0  0  0  0  0
   21.9047   -6.9820  -11.9601 C   0  0  0  0  0  0  0  0  0  0  0  0
   21.8576   -6.4641  -13.3817 C   0  0  1  0  0  0  0  0  0  0  0  0
   22.0032   -7.5650  -14.2483 O   0  0  0  0  0  0  0  0  0  0  0  0
   20.4854   -5.8852  -13.6128 C   0  0  2  0  0  0  0  0  0  0  0  0
   19.4501   -6.8988  -13.5698 N   0  0  0  0  0  0  0  0  0  0  0  0
   20.4461   -5.1128  -14.8741 C   0  0  0  0  0  0  0  0  0  0  0  0
   21.2094   -3.9609  -15.0226 O   0  0  0  0  0  0  0  0  0  0  0  0
   19.7233   -5.4946  -15.8152 O   0  0  0  0  0  0  0  0  0  0  0  0
  2  1  1  0
  3  2  1  0
  4  3  1  0
  4  5  1  0
  5  6  1  1
  7  5  1  0
  7  8  2  0
  9  7  1  0
 10  9  1  0
 11 12  1  0
 10 11  1  6
 12 16  1  0
 13 12  2  0
 13 14  1  0
 14 15  1  0
 16 15  2  0
 17 10  1  0
 18 17  2  0
 20 21  1  0
 20 19  1  1
 22 23  1  6
 22 20  1  0
 23 17  1  0
 24 22  1  0
 25 24  1  0
 26 24  2  0
M  END
$$$$
