EPF.pdb
     RDKit          3D

 28 29  0  0  1  0  0  0  0  0999 V2000
   27.2906  -40.6229   -7.1903 N   0  0  0  0  0  0  0  0  0  0  0  0
   28.2893  -40.1420   -6.2710 C   0  0  1  0  0  0  0  0  0  0  0  0
   29.4426  -39.5669   -7.0748 C   0  0  0  0  0  0  0  0  0  0  0  0
   30.2001  -40.6838   -7.7133 C   0  0  0  0  0  0  0  0  0  0  0  0
   31.3629  -40.1797   -8.5060 C   0  0  0  0  0  0  0  0  0  0  0  0
   32.4682  -40.0239   -7.9496 O   0  0  0  0  0  0  0  0  0  0  0  0
   27.8044  -39.1531   -5.3115 C   0  0  0  0  0  0  0  0  0  0  0  0
   26.6242  -38.7027   -5.4825 O   0  0  0  0  0  0  0  0  0  0  0  0
   31.2336  -39.8838   -9.8442 O   0  0  0  0  0  0  0  0  0  0  0  0
   28.5225  -38.6519   -4.2148 N   0  0  0  0  0  0  0  0  0  0  0  0
   29.8804  -38.8920   -3.8565 C   0  0  0  0  0  0  0  0  0  0  0  0
   29.8013  -39.0988   -2.3371 C   0  0  0  0  0  0  0  0  0  0  0  0
   28.6073  -38.3006   -1.9468 C   0  0  0  0  0  0  0  0  0  0  0  0
   27.9787  -37.7683   -3.1782 C   0  0  1  0  0  0  0  0  0  0  0  0
   28.3488  -36.3989   -3.5259 C   0  0  0  0  0  0  0  0  0  0  0  0
   29.3201  -36.1855   -4.2961 O   0  0  0  0  0  0  0  0  0  0  0  0
   27.6575  -35.2522   -3.0323 N   0  0  0  0  0  0  0  0  0  0  0  0
   27.4110  -34.1109   -3.8967 C   0  0  1  0  0  0  0  0  0  0  0  0
   26.6930  -34.5847   -5.1224 C   0  0  0  0  0  0  0  0  0  0  0  0
   26.4024  -33.5382   -6.1144 C   0  0  0  0  0  0  0  0  0  0  0  0
   25.2276  -32.8198   -6.0776 C   0  0  0  0  0  0  0  0  0  0  0  0
   24.9944  -31.8376   -7.0338 C   0  0  0  0  0  0  0  0  0  0  0  0
   25.9313  -31.5855   -8.0103 C   0  0  0  0  0  0  0  0  0  0  0  0
   27.1174  -32.2957   -8.0649 C   0  0  0  0  0  0  0  0  0  0  0  0
   27.3364  -33.2769   -7.0993 C   0  0  0  0  0  0  0  0  0  0  0  0
   26.6706  -33.0645   -3.1577 C   0  0  0  0  0  0  0  0  0  0  0  0
   27.0750  -31.7416   -3.2233 O   0  0  0  0  0  0  0  0  0  0  0  0
   25.6652  -33.3360   -2.4552 O   0  0  0  0  0  0  0  0  0  0  0  0
  2  1  1  6
  2  3  1  0
  2  7  1  0
  4  3  1  0
  5  6  2  0
  5  4  1  0
  7  8  2  0
  7 10  1  0
  9  5  1  0
 10 14  1  0
 10 11  1  0
 12 11  1  0
 13 14  1  0
 13 12  1  0
 15 16  2  0
 14 15  1  6
 17 15  1  0
 18 26  1  0
 18 17  1  0
 18 19  1  6
 20 19  1  0
 21 20  2  0
 22 21  1  0
 23 24  1  0
 23 22  2  0
 24 25  2  0
 25 20  1  0
 26 27  1  0
 28 26  2  0
M  END
$$$$
