EPF.pdb
     RDKit          3D

 28 29  0  0  1  0  0  0  0  0999 V2000
   26.2990  -20.4506  -15.4461 N   0  0  0  0  0  0  0  0  0  0  0  0
   26.7282  -19.8316  -14.2187 C   0  0  1  0  0  0  0  0  0  0  0  0
   25.6399  -18.8778  -13.7574 C   0  0  0  0  0  0  0  0  0  0  0  0
   25.9102  -17.5195  -14.3150 C   0  0  0  0  0  0  0  0  0  0  0  0
   25.1563  -17.2840  -15.5842 C   0  0  0  0  0  0  0  0  0  0  0  0
   25.7748  -16.9659  -16.6195 O   0  0  0  0  0  0  0  0  0  0  0  0
   27.0586  -20.7704  -13.1494 C   0  0  0  0  0  0  0  0  0  0  0  0
   26.4050  -21.8641  -13.1092 O   0  0  0  0  0  0  0  0  0  0  0  0
   23.7865  -17.4127  -15.6294 O   0  0  0  0  0  0  0  0  0  0  0  0
   28.0337  -20.5767  -12.1588 N   0  0  0  0  0  0  0  0  0  0  0  0
   28.8301  -19.4221  -11.9088 C   0  0  0  0  0  0  0  0  0  0  0  0
   30.2197  -20.0173  -11.6401 C   0  0  0  0  0  0  0  0  0  0  0  0
   29.9121  -21.3705  -11.1024 C   0  0  0  0  0  0  0  0  0  0  0  0
   28.4466  -21.5774  -11.1692 C   0  0  1  0  0  0  0  0  0  0  0  0
   27.7205  -21.3016   -9.9323 C   0  0  0  0  0  0  0  0  0  0  0  0
   28.3378  -21.2519   -8.8375 O   0  0  0  0  0  0  0  0  0  0  0  0
   26.3119  -21.0781   -9.8852 N   0  0  0  0  0  0  0  0  0  0  0  0
   25.6542  -20.7799   -8.6246 C   0  0  1  0  0  0  0  0  0  0  0  0
   26.3147  -19.5843   -8.0109 C   0  0  0  0  0  0  0  0  0  0  0  0
   27.0655  -19.8563   -6.7757 C   0  0  0  0  0  0  0  0  0  0  0  0
   27.0988  -21.1154   -6.2177 C   0  0  0  0  0  0  0  0  0  0  0  0
   27.8230  -21.3290   -5.0502 C   0  0  0  0  0  0  0  0  0  0  0  0
   28.5019  -20.2890   -4.4563 C   0  0  0  0  0  0  0  0  0  0  0  0
   28.4812  -19.0172   -5.0005 C   0  0  0  0  0  0  0  0  0  0  0  0
   27.7507  -18.8192   -6.1711 C   0  0  0  0  0  0  0  0  0  0  0  0
   24.2022  -20.5946   -8.8406 C   0  0  0  0  0  0  0  0  0  0  0  0
   23.3074  -20.8065   -7.8051 O   0  0  0  0  0  0  0  0  0  0  0  0
   23.7379  -20.2446   -9.9541 O   0  0  0  0  0  0  0  0  0  0  0  0
  2  1  1  6
  2  3  1  0
  2  7  1  0
  4  3  1  0
  5  6  2  0
  5  4  1  0
  7  8  2  0
  7 10  1  0
  9  5  1  0
 10 14  1  0
 10 11  1  0
 12 11  1  0
 13 14  1  0
 13 12  1  0
 15 16  2  0
 14 15  1  1
 17 15  1  0
 18 26  1  0
 18 17  1  0
 18 19  1  6
 20 19  1  0
 21 20  2  0
 22 21  1  0
 23 24  1  0
 23 22  2  0
 24 25  2  0
 25 20  1  0
 26 27  1  0
 28 26  2  0
M  END
$$$$
