EPF.pdb
     RDKit          3D

 28 29  0  0  1  0  0  0  0  0999 V2000
   19.3413  -20.4990  -12.9681 N   0  0  0  0  0  0  0  0  0  0  0  0
   20.3417  -20.7056  -13.9832 C   0  0  1  0  0  0  0  0  0  0  0  0
   20.4047  -19.4623  -14.8534 C   0  0  0  0  0  0  0  0  0  0  0  0
   19.6457  -19.7084  -16.1152 C   0  0  0  0  0  0  0  0  0  0  0  0
   18.3747  -18.9224  -16.1568 C   0  0  0  0  0  0  0  0  0  0  0  0
   18.0906  -18.2617  -17.1758 O   0  0  0  0  0  0  0  0  0  0  0  0
   21.6709  -21.0254  -13.4684 C   0  0  0  0  0  0  0  0  0  0  0  0
   22.0023  -20.5147  -12.3485 O   0  0  0  0  0  0  0  0  0  0  0  0
   17.5099  -18.9159  -15.0857 O   0  0  0  0  0  0  0  0  0  0  0  0
   22.6194  -21.8467  -14.0973 N   0  0  0  0  0  0  0  0  0  0  0  0
   22.5644  -22.4379  -15.3924 C   0  0  0  0  0  0  0  0  0  0  0  0
   23.0876  -23.8595  -15.1415 C   0  0  0  0  0  0  0  0  0  0  0  0
   23.9835  -23.6895  -13.9653 C   0  0  0  0  0  0  0  0  0  0  0  0
   23.8870  -22.2850  -13.5039 C   0  0  1  0  0  0  0  0  0  0  0  0
   24.9356  -21.3940  -13.9933 C   0  0  0  0  0  0  0  0  0  0  0  0
   24.8141  -20.8337  -15.1129 O   0  0  0  0  0  0  0  0  0  0  0  0
   26.1262  -21.1096  -13.2597 N   0  0  0  0  0  0  0  0  0  0  0  0
   27.1193  -20.1926  -13.7920 C   0  0  1  0  0  0  0  0  0  0  0  0
   27.5998  -19.3100  -12.6819 C   0  0  0  0  0  0  0  0  0  0  0  0
   27.8666  -20.0011  -11.4112 C   0  0  0  0  0  0  0  0  0  0  0  0
   26.8923  -20.1319  -10.4461 C   0  0  0  0  0  0  0  0  0  0  0  0
   27.1868  -20.7950   -9.2600 C   0  0  0  0  0  0  0  0  0  0  0  0
   28.4436  -21.3169   -9.0520 C   0  0  0  0  0  0  0  0  0  0  0  0
   29.4360  -21.1963  -10.0083 C   0  0  0  0  0  0  0  0  0  0  0  0
   29.1252  -20.5290  -11.1920 C   0  0  0  0  0  0  0  0  0  0  0  0
   28.2097  -20.9487  -14.4465 C   0  0  0  0  0  0  0  0  0  0  0  0
   29.1526  -20.2911  -15.2189 O   0  0  0  0  0  0  0  0  0  0  0  0
   28.3160  -22.1947  -14.3267 O   0  0  0  0  0  0  0  0  0  0  0  0
  2  1  1  1
  2  3  1  0
  2  7  1  0
  4  3  1  0
  5  6  2  0
  5  4  1  0
  7  8  2  0
  7 10  1  0
  9  5  1  0
 10 14  1  0
 10 11  1  0
 12 11  1  0
 13 14  1  0
 13 12  1  0
 15 16  2  0
 14 15  1  6
 17 15  1  0
 18 26  1  0
 18 17  1  0
 18 19  1  1
 20 19  1  0
 21 20  2  0
 22 21  1  0
 23 24  1  0
 23 22  2  0
 24 25  2  0
 25 20  1  0
 26 27  1  0
 28 26  2  0
M  END
$$$$
