EPF.pdb
     RDKit          3D

 28 29  0  0  1  0  0  0  0  0999 V2000
   23.4427  -20.0306  -15.2143 N   0  0  0  0  0  0  0  0  0  0  0  0
   24.5198  -19.4189  -14.4797 C   0  0  1  0  0  0  0  0  0  0  0  0
   24.0174  -18.1109  -13.8936 C   0  0  0  0  0  0  0  0  0  0  0  0
   23.6024  -17.2035  -15.0042 C   0  0  0  0  0  0  0  0  0  0  0  0
   22.1705  -17.4109  -15.3804 C   0  0  0  0  0  0  0  0  0  0  0  0
   21.2762  -17.2265  -14.5309 O   0  0  0  0  0  0  0  0  0  0  0  0
   25.0869  -20.2560  -13.4255 C   0  0  0  0  0  0  0  0  0  0  0  0
   24.2805  -20.9880  -12.7631 O   0  0  0  0  0  0  0  0  0  0  0  0
   21.8217  -17.8033  -16.6530 O   0  0  0  0  0  0  0  0  0  0  0  0
   26.4438  -20.3274  -13.0743 N   0  0  0  0  0  0  0  0  0  0  0  0
   27.5307  -19.5454  -13.5612 C   0  0  0  0  0  0  0  0  0  0  0  0
   28.6382  -20.5891  -13.7650 C   0  0  0  0  0  0  0  0  0  0  0  0
   28.3028  -21.6405  -12.7664 C   0  0  0  0  0  0  0  0  0  0  0  0
   27.0224  -21.2756  -12.1165 C   0  0  1  0  0  0  0  0  0  0  0  0
   27.1473  -20.5877  -10.8342 C   0  0  0  0  0  0  0  0  0  0  0  0
   28.1192  -19.8171  -10.6250 O   0  0  0  0  0  0  0  0  0  0  0  0
   26.2081  -20.7388   -9.7704 N   0  0  0  0  0  0  0  0  0  0  0  0
   26.6647  -20.9066   -8.4016 C   0  0  1  0  0  0  0  0  0  0  0  0
   27.6169  -19.7979   -8.0750 C   0  0  0  0  0  0  0  0  0  0  0  0
   28.0503  -19.7462   -6.6704 C   0  0  0  0  0  0  0  0  0  0  0  0
   28.7766  -20.7708   -6.1044 C   0  0  0  0  0  0  0  0  0  0  0  0
   29.1679  -20.6799   -4.7732 C   0  0  0  0  0  0  0  0  0  0  0  0
   28.8314  -19.5734   -4.0266 C   0  0  0  0  0  0  0  0  0  0  0  0
   28.1026  -18.5337   -4.5759 C   0  0  0  0  0  0  0  0  0  0  0  0
   27.7178  -18.6397   -5.9115 C   0  0  0  0  0  0  0  0  0  0  0  0
   25.5061  -20.9667   -7.4833 C   0  0  0  0  0  0  0  0  0  0  0  0
   24.2228  -20.7580   -7.9602 O   0  0  0  0  0  0  0  0  0  0  0  0
   25.6445  -21.2047   -6.2577 O   0  0  0  0  0  0  0  0  0  0  0  0
  2  1  1  1
  2  3  1  0
  2  7  1  0
  4  3  1  0
  5  6  2  0
  5  4  1  0
  7  8  2  0
  7 10  1  0
  9  5  1  0
 10 14  1  0
 10 11  1  0
 12 11  1  0
 13 14  1  0
 13 12  1  0
 15 16  2  0
 14 15  1  1
 17 15  1  0
 18 26  1  0
 18 17  1  0
 18 19  1  1
 20 19  1  0
 21 20  2  0
 22 21  1  0
 23 24  1  0
 23 22  2  0
 24 25  2  0
 25 20  1  0
 26 27  1  0
 28 26  2  0
M  END
$$$$
