EPF.pdb
     RDKit          3D

 28 29  0  0  1  0  0  0  0  0999 V2000
   27.5688  -22.5286  -18.0689 N   0  0  0  0  0  0  0  0  0  0  0  0
   26.6423  -21.7642  -17.2744 C   0  0  1  0  0  0  0  0  0  0  0  0
   25.2954  -22.4655  -17.3025 C   0  0  0  0  0  0  0  0  0  0  0  0
   24.2673  -21.5305  -17.8480 C   0  0  0  0  0  0  0  0  0  0  0  0
   23.2939  -21.1058  -16.7959 C   0  0  0  0  0  0  0  0  0  0  0  0
   23.2296  -19.9057  -16.4627 O   0  0  0  0  0  0  0  0  0  0  0  0
   27.0650  -21.5450  -15.8934 C   0  0  0  0  0  0  0  0  0  0  0  0
   27.6173  -22.5221  -15.2891 O   0  0  0  0  0  0  0  0  0  0  0  0
   22.4645  -22.0205  -16.1869 O   0  0  0  0  0  0  0  0  0  0  0  0
   26.9175  -20.3521  -15.1690 N   0  0  0  0  0  0  0  0  0  0  0  0
   26.2133  -19.1695  -15.5372 C   0  0  0  0  0  0  0  0  0  0  0  0
   27.1727  -18.0518  -15.1037 C   0  0  0  0  0  0  0  0  0  0  0  0
   27.9255  -18.6675  -13.9771 C   0  0  0  0  0  0  0  0  0  0  0  0
   27.5043  -20.0824  -13.8521 C   0  0  1  0  0  0  0  0  0  0  0  0
   26.4753  -20.3408  -12.8484 C   0  0  0  0  0  0  0  0  0  0  0  0
   25.2597  -20.2139  -13.1456 O   0  0  0  0  0  0  0  0  0  0  0  0
   26.7702  -20.7403  -11.5105 N   0  0  0  0  0  0  0  0  0  0  0  0
   25.7355  -21.3128  -10.6667 C   0  0  1  0  0  0  0  0  0  0  0  0
   26.3836  -21.9304   -9.4663 C   0  0  0  0  0  0  0  0  0  0  0  0
   27.0180  -20.9761   -8.5442 C   0  0  0  0  0  0  0  0  0  0  0  0
   26.2746  -20.0532   -7.8418 C   0  0  0  0  0  0  0  0  0  0  0  0
   26.9148  -19.1709   -6.9788 C   0  0  0  0  0  0  0  0  0  0  0  0
   28.2823  -19.2197   -6.8276 C   0  0  0  0  0  0  0  0  0  0  0  0
   29.0471  -20.1388   -7.5237 C   0  0  0  0  0  0  0  0  0  0  0  0
   28.3905  -21.0164   -8.3849 C   0  0  0  0  0  0  0  0  0  0  0  0
   24.7341  -20.2804  -10.3195 C   0  0  0  0  0  0  0  0  0  0  0  0
   25.0387  -18.9360  -10.4536 O   0  0  0  0  0  0  0  0  0  0  0  0
   23.5905  -20.5830   -9.8969 O   0  0  0  0  0  0  0  0  0  0  0  0
  2  1  1  6
  2  3  1  0
  2  7  1  0
  4  3  1  0
  5  6  2  0
  5  4  1  0
  7  8  2  0
  7 10  1  0
  9  5  1  0
 10 14  1  0
 10 11  1  0
 12 11  1  0
 13 14  1  0
 13 12  1  0
 15 16  2  0
 14 15  1  1
 17 15  1  0
 18 26  1  0
 18 17  1  0
 18 19  1  1
 20 19  1  0
 21 20  2  0
 22 21  1  0
 23 24  1  0
 23 22  2  0
 24 25  2  0
 25 20  1  0
 26 27  1  0
 28 26  2  0
M  END
$$$$
