EPF.pdb
     RDKit          3D

 28 29  0  0  1  0  0  0  0  0999 V2000
   20.9095  -14.0810  -18.0030 N   0  0  0  0  0  0  0  0  0  0  0  0
   20.0705  -12.9423  -17.7326 C   0  0  1  0  0  0  0  0  0  0  0  0
   19.4401  -13.1265  -16.3631 C   0  0  0  0  0  0  0  0  0  0  0  0
   18.4417  -14.2345  -16.4282 C   0  0  0  0  0  0  0  0  0  0  0  0
   17.0582  -13.7486  -16.1373 C   0  0  0  0  0  0  0  0  0  0  0  0
   16.1800  -13.8216  -17.0199 O   0  0  0  0  0  0  0  0  0  0  0  0
   20.7562  -11.6542  -17.7999 C   0  0  0  0  0  0  0  0  0  0  0  0
   22.0289  -11.6652  -17.7282 O   0  0  0  0  0  0  0  0  0  0  0  0
   16.7364  -13.2201  -14.9075 O   0  0  0  0  0  0  0  0  0  0  0  0
   20.1389  -10.4013  -17.9368 N   0  0  0  0  0  0  0  0  0  0  0  0
   18.7482  -10.0968  -17.9926 C   0  0  0  0  0  0  0  0  0  0  0  0
   18.6715   -9.0556  -19.1186 C   0  0  0  0  0  0  0  0  0  0  0  0
   20.0136   -8.4135  -19.0802 C   0  0  0  0  0  0  0  0  0  0  0  0
   20.8412   -9.1213  -18.0757 C   0  0  1  0  0  0  0  0  0  0  0  0
   20.8893   -8.4979  -16.7558 C   0  0  0  0  0  0  0  0  0  0  0  0
   19.9061   -8.5952  -15.9773 O   0  0  0  0  0  0  0  0  0  0  0  0
   22.0153   -7.7628  -16.2782 N   0  0  0  0  0  0  0  0  0  0  0  0
   21.9834   -7.1322  -14.9698 C   0  0  1  0  0  0  0  0  0  0  0  0
   22.8585   -7.9143  -14.0398 C   0  0  0  0  0  0  0  0  0  0  0  0
   24.0603   -8.4936  -14.6592 C   0  0  0  0  0  0  0  0  0  0  0  0
   24.6812   -7.8864  -15.7285 C   0  0  0  0  0  0  0  0  0  0  0  0
   25.8166   -8.4672  -16.2823 C   0  0  0  0  0  0  0  0  0  0  0  0
   26.3163   -9.6411  -15.7651 C   0  0  0  0  0  0  0  0  0  0  0  0
   25.7077  -10.2669  -14.6918 C   0  0  0  0  0  0  0  0  0  0  0  0
   24.5705   -9.6722  -14.1478 C   0  0  0  0  0  0  0  0  0  0  0  0
   22.3782   -5.7106  -15.0813 C   0  0  0  0  0  0  0  0  0  0  0  0
   22.8594   -5.2091  -16.2792 O   0  0  0  0  0  0  0  0  0  0  0  0
   22.2926   -4.9215  -14.1076 O   0  0  0  0  0  0  0  0  0  0  0  0
  2  1  1  1
  2  3  1  0
  2  7  1  0
  4  3  1  0
  5  6  2  0
  5  4  1  0
  7  8  2  0
  7 10  1  0
  9  5  1  0
 10 14  1  0
 10 11  1  0
 12 11  1  0
 13 14  1  0
 13 12  1  0
 15 16  2  0
 14 15  1  1
 17 15  1  0
 18 26  1  0
 18 17  1  0
 18 19  1  1
 20 19  1  0
 21 20  2  0
 22 21  1  0
 23 24  1  0
 23 22  2  0
 24 25  2  0
 25 20  1  0
 26 27  1  0
 28 26  2  0
M  END
$$$$
