EPF.pdb
     RDKit          3D

 28 29  0  0  1  0  0  0  0  0999 V2000
   19.6542  -12.7608  -20.5724 N   0  0  0  0  0  0  0  0  0  0  0  0
   18.9951  -11.5079  -20.3083 C   0  0  1  0  0  0  0  0  0  0  0  0
   18.0376  -11.7063  -19.1461 C   0  0  0  0  0  0  0  0  0  0  0  0
   17.0426  -12.7598  -19.5052 C   0  0  0  0  0  0  0  0  0  0  0  0
   16.0471  -12.9747  -18.4108 C   0  0  0  0  0  0  0  0  0  0  0  0
   15.4267  -12.0003  -17.9407 O   0  0  0  0  0  0  0  0  0  0  0  0
   19.8985  -10.3944  -20.0294 C   0  0  0  0  0  0  0  0  0  0  0  0
   21.1275  -10.6730  -19.8369 O   0  0  0  0  0  0  0  0  0  0  0  0
   15.8032  -14.2343  -17.9118 O   0  0  0  0  0  0  0  0  0  0  0  0
   19.5350   -9.0410  -19.9537 N   0  0  0  0  0  0  0  0  0  0  0  0
   18.2613   -8.4480  -20.1900 C   0  0  0  0  0  0  0  0  0  0  0  0
   18.6137   -7.1951  -21.0047 C   0  0  0  0  0  0  0  0  0  0  0  0
   19.9938   -6.8714  -20.5511 C   0  0  0  0  0  0  0  0  0  0  0  0
   20.4427   -7.9369  -19.6248 C   0  0  1  0  0  0  0  0  0  0  0  0
   20.2793   -7.6385  -18.2044 C   0  0  0  0  0  0  0  0  0  0  0  0
   19.2232   -7.9725  -17.6083 O   0  0  0  0  0  0  0  0  0  0  0  0
   21.2720   -6.9717  -17.4257 N   0  0  0  0  0  0  0  0  0  0  0  0
   21.1200   -6.8480  -15.9863 C   0  0  1  0  0  0  0  0  0  0  0  0
   22.2910   -7.5045  -15.3228 C   0  0  0  0  0  0  0  0  0  0  0  0
   22.2217   -7.5589  -13.8546 C   0  0  0  0  0  0  0  0  0  0  0  0
   22.0845   -8.7553  -13.1856 C   0  0  0  0  0  0  0  0  0  0  0  0
   22.0254   -8.7613  -11.7965 C   0  0  0  0  0  0  0  0  0  0  0  0
   22.1033   -7.5793  -11.0950 C   0  0  0  0  0  0  0  0  0  0  0  0
   22.2412   -6.3673  -11.7476 C   0  0  0  0  0  0  0  0  0  0  0  0
   22.2990   -6.3780  -13.1403 C   0  0  0  0  0  0  0  0  0  0  0  0
   20.9631   -5.4250  -15.6125 C   0  0  0  0  0  0  0  0  0  0  0  0
   20.1052   -5.0602  -14.5883 O   0  0  0  0  0  0  0  0  0  0  0  0
   21.5927   -4.5122  -16.2029 O   0  0  0  0  0  0  0  0  0  0  0  0
  2  1  1  1
  2  3  1  0
  2  7  1  0
  4  3  1  0
  5  6  2  0
  5  4  1  0
  7  8  2  0
  7 10  1  0
  9  5  1  0
 10 14  1  0
 10 11  1  0
 12 11  1  0
 13 14  1  0
 13 12  1  0
 15 16  2  0
 14 15  1  1
 17 15  1  0
 18 26  1  0
 18 17  1  0
 18 19  1  1
 20 19  1  0
 21 20  2  0
 22 21  1  0
 23 24  1  0
 23 22  2  0
 24 25  2  0
 25 20  1  0
 26 27  1  0
 28 26  2  0
M  END
$$$$
