EPF.pdb
     RDKit          3D

 28 29  0  0  1  0  0  0  0  0999 V2000
   24.9889  -19.1536  -16.7315 N   0  0  0  0  0  0  0  0  0  0  0  0
   25.7956  -18.8706  -15.5726 C   0  0  1  0  0  0  0  0  0  0  0  0
   25.0593  -17.8583  -14.7124 C   0  0  0  0  0  0  0  0  0  0  0  0
   25.2221  -16.4988  -15.3075 C   0  0  0  0  0  0  0  0  0  0  0  0
   24.0728  -16.1437  -16.1951 C   0  0  0  0  0  0  0  0  0  0  0  0
   24.2878  -15.5887  -17.2911 O   0  0  0  0  0  0  0  0  0  0  0  0
   26.1466  -20.0442  -14.7768 C   0  0  0  0  0  0  0  0  0  0  0  0
   25.3738  -21.0550  -14.8539 O   0  0  0  0  0  0  0  0  0  0  0  0
   22.7769  -16.4202  -15.8216 O   0  0  0  0  0  0  0  0  0  0  0  0
   27.2612  -20.1601  -13.9319 N   0  0  0  0  0  0  0  0  0  0  0  0
   28.1994  -19.1563  -13.5550 C   0  0  0  0  0  0  0  0  0  0  0  0
   29.5433  -19.8932  -13.6468 C   0  0  0  0  0  0  0  0  0  0  0  0
   29.1725  -21.3109  -13.3868 C   0  0  0  0  0  0  0  0  0  0  0  0
   27.6979  -21.3939  -13.2699 C   0  0  1  0  0  0  0  0  0  0  0  0
   27.1779  -21.3711  -11.9053 C   0  0  0  0  0  0  0  0  0  0  0  0
   27.9502  -21.5754  -10.9337 O   0  0  0  0  0  0  0  0  0  0  0  0
   25.8072  -21.1243  -11.5943 N   0  0  0  0  0  0  0  0  0  0  0  0
   25.4024  -20.8250  -10.2316 C   0  0  1  0  0  0  0  0  0  0  0  0
   26.2138  -19.6691   -9.7338 C   0  0  0  0  0  0  0  0  0  0  0  0
   26.9951  -19.9381   -8.5169 C   0  0  0  0  0  0  0  0  0  0  0  0
   26.7441  -19.2687   -7.3394 C   0  0  0  0  0  0  0  0  0  0  0  0
   27.5054  -19.5557   -6.2119 C   0  0  0  0  0  0  0  0  0  0  0  0
   28.5031  -20.5023   -6.2725 C   0  0  0  0  0  0  0  0  0  0  0  0
   28.7712  -21.1857   -7.4452 C   0  0  0  0  0  0  0  0  0  0  0  0
   27.9993  -20.8867   -8.5667 C   0  0  0  0  0  0  0  0  0  0  0  0
   23.9446  -20.5777  -10.1774 C   0  0  0  0  0  0  0  0  0  0  0  0
   23.2490  -20.7469   -8.9919 O   0  0  0  0  0  0  0  0  0  0  0  0
   23.2972  -20.2118  -11.1898 O   0  0  0  0  0  0  0  0  0  0  0  0
  2  1  1  6
  2  3  1  0
  2  7  1  0
  4  3  1  0
  5  6  2  0
  5  4  1  0
  7  8  2  0
  7 10  1  0
  9  5  1  0
 10 14  1  0
 10 11  1  0
 12 11  1  0
 13 14  1  0
 13 12  1  0
 15 16  2  0
 14 15  1  1
 17 15  1  0
 18 26  1  0
 18 17  1  0
 18 19  1  6
 20 19  1  0
 21 20  2  0
 22 21  1  0
 23 24  1  0
 23 22  2  0
 24 25  2  0
 25 20  1  0
 26 27  1  0
 28 26  2  0
M  END
$$$$
