EPF.pdb
     RDKit          3D

 28 29  0  0  1  0  0  0  0  0999 V2000
   22.7913  -18.8060  -18.0958 N   0  0  0  0  0  0  0  0  0  0  0  0
   23.6237  -18.0913  -17.1629 C   0  0  1  0  0  0  0  0  0  0  0  0
   22.7270  -17.2703  -16.2526 C   0  0  0  0  0  0  0  0  0  0  0  0
   21.9125  -18.1918  -15.4062 C   0  0  0  0  0  0  0  0  0  0  0  0
   20.9838  -17.4399  -14.5079 C   0  0  0  0  0  0  0  0  0  0  0  0
   20.9617  -16.1935  -14.5469 O   0  0  0  0  0  0  0  0  0  0  0  0
   24.5068  -18.9388  -16.3656 C   0  0  0  0  0  0  0  0  0  0  0  0
   24.1045  -20.1199  -16.1046 O   0  0  0  0  0  0  0  0  0  0  0  0
   20.1500  -18.1026  -13.6356 O   0  0  0  0  0  0  0  0  0  0  0  0
   25.7624  -18.5693  -15.8589 N   0  0  0  0  0  0  0  0  0  0  0  0
   26.3405  -17.2698  -15.7764 C   0  0  0  0  0  0  0  0  0  0  0  0
   27.7903  -17.5121  -16.2202 C   0  0  0  0  0  0  0  0  0  0  0  0
   28.0303  -18.9304  -15.8386 C   0  0  0  0  0  0  0  0  0  0  0  0
   26.7634  -19.4946  -15.3177 C   0  0  1  0  0  0  0  0  0  0  0  0
   26.6294  -19.4894  -13.8633 C   0  0  0  0  0  0  0  0  0  0  0  0
   26.5921  -18.3985  -13.2383 O   0  0  0  0  0  0  0  0  0  0  0  0
   26.5354  -20.6798  -13.0819 N   0  0  0  0  0  0  0  0  0  0  0  0
   26.7766  -20.6430  -11.6498 C   0  0  1  0  0  0  0  0  0  0  0  0
   25.6878  -19.8457  -11.0010 C   0  0  0  0  0  0  0  0  0  0  0  0
   25.7150  -19.8404   -9.5304 C   0  0  0  0  0  0  0  0  0  0  0  0
   25.0588  -20.8038   -8.7962 C   0  0  0  0  0  0  0  0  0  0  0  0
   25.1125  -20.7624   -7.4075 C   0  0  0  0  0  0  0  0  0  0  0  0
   25.8167  -19.7652   -6.7711 C   0  0  0  0  0  0  0  0  0  0  0  0
   26.4824  -18.7884   -7.4898 C   0  0  0  0  0  0  0  0  0  0  0  0
   26.4191  -18.8436   -8.8812 C   0  0  0  0  0  0  0  0  0  0  0  0
   26.8851  -22.0193  -11.1174 C   0  0  0  0  0  0  0  0  0  0  0  0
   26.0391  -23.0159  -11.5747 O   0  0  0  0  0  0  0  0  0  0  0  0
   27.7350  -22.3264  -10.2449 O   0  0  0  0  0  0  0  0  0  0  0  0
  2  1  1  6
  2  3  1  0
  2  7  1  0
  4  3  1  0
  5  6  2  0
  5  4  1  0
  7  8  2  0
  7 10  1  0
  9  5  1  0
 10 14  1  0
 10 11  1  0
 12 11  1  0
 13 14  1  0
 13 12  1  0
 15 16  2  0
 14 15  1  1
 17 15  1  0
 18 26  1  0
 18 17  1  0
 18 19  1  1
 20 19  1  0
 21 20  2  0
 22 21  1  0
 23 24  1  0
 23 22  2  0
 24 25  2  0
 25 20  1  0
 26 27  1  0
 28 26  2  0
M  END
$$$$
