EPF.pdb
     RDKit          3D

 28 29  0  0  1  0  0  0  0  0999 V2000
   22.7960   -6.1329  -17.2906 N   0  0  0  0  0  0  0  0  0  0  0  0
   22.5929   -6.9153  -16.0988 C   0  0  1  0  0  0  0  0  0  0  0  0
   21.8936   -6.0455  -15.0684 C   0  0  0  0  0  0  0  0  0  0  0  0
   22.7840   -4.9032  -14.7060 C   0  0  0  0  0  0  0  0  0  0  0  0
   22.1782   -4.0480  -13.6400 C   0  0  0  0  0  0  0  0  0  0  0  0
   21.3387   -3.1789  -13.9487 O   0  0  0  0  0  0  0  0  0  0  0  0
   21.8414   -8.1508  -16.3052 C   0  0  0  0  0  0  0  0  0  0  0  0
   21.2806   -8.3113  -17.4386 O   0  0  0  0  0  0  0  0  0  0  0  0
   22.5327   -4.2045  -12.3190 O   0  0  0  0  0  0  0  0  0  0  0  0
   21.6801   -9.1807  -15.3655 N   0  0  0  0  0  0  0  0  0  0  0  0
   22.1739   -9.2520  -14.0310 C   0  0  0  0  0  0  0  0  0  0  0  0
   22.6752  -10.6997  -13.9292 C   0  0  0  0  0  0  0  0  0  0  0  0
   21.8168  -11.4263  -14.9041 C   0  0  0  0  0  0  0  0  0  0  0  0
   20.9615  -10.4374  -15.6008 C   0  0  1  0  0  0  0  0  0  0  0  0
   19.6145  -10.2847  -15.0572 C   0  0  0  0  0  0  0  0  0  0  0  0
   19.4193   -9.5497  -14.0553 O   0  0  0  0  0  0  0  0  0  0  0  0
   18.4703  -10.9364  -15.6073 N   0  0  0  0  0  0  0  0  0  0  0  0
   17.1385  -10.6281  -15.1157 C   0  0  1  0  0  0  0  0  0  0  0  0
   16.5190   -9.6069  -16.0189 C   0  0  0  0  0  0  0  0  0  0  0  0
   16.2061  -10.0858  -17.3740 C   0  0  0  0  0  0  0  0  0  0  0  0
   17.0732   -9.8842  -18.4253 C   0  0  0  0  0  0  0  0  0  0  0  0
   16.7387  -10.3556  -19.6899 C   0  0  0  0  0  0  0  0  0  0  0  0
   15.5492  -11.0192  -19.8893 C   0  0  0  0  0  0  0  0  0  0  0  0
   14.6647  -11.2319  -18.8470 C   0  0  0  0  0  0  0  0  0  0  0  0
   15.0143  -10.7534  -17.5854 C   0  0  0  0  0  0  0  0  0  0  0  0
   16.3382  -11.8677  -15.0051 C   0  0  0  0  0  0  0  0  0  0  0  0
   16.8404  -13.0699  -15.4748 O   0  0  0  0  0  0  0  0  0  0  0  0
   15.1926  -11.8723  -14.4898 O   0  0  0  0  0  0  0  0  0  0  0  0
  2  1  1  6
  2  3  1  0
  2  7  1  0
  4  3  1  0
  5  6  2  0
  5  4  1  0
  7  8  2  0
  7 10  1  0
  9  5  1  0
 10 14  1  0
 10 11  1  0
 12 11  1  0
 13 14  1  0
 13 12  1  0
 15 16  2  0
 14 15  1  1
 17 15  1  0
 18 26  1  0
 18 17  1  0
 18 19  1  6
 20 19  1  0
 21 20  2  0
 22 21  1  0
 23 24  1  0
 23 22  2  0
 24 25  2  0
 25 20  1  0
 26 27  1  0
 28 26  2  0
M  END
$$$$
