ERC.pdb
     RDKit          3D

 27 26  0  0  1  0  0  0  0  0999 V2000
   20.4641  -31.7969  -10.5861 N   0  0  0  0  0  0  0  0  0  0  0  0
   19.2394  -31.1670  -10.1254 C   0  0  1  0  0  0  0  0  0  0  0  0
   18.4719  -31.9925   -9.1535 C   0  0  0  0  0  0  0  0  0  0  0  0
   19.3546  -32.9150   -8.3440 C   0  0  0  0  0  0  0  0  0  0  0  0
   19.5309  -32.4595   -6.9573 C   0  0  0  0  0  0  0  0  0  0  0  0
   18.5189  -32.3815   -6.1791 O   0  0  0  0  0  0  0  0  0  0  0  0
   19.5496  -29.8238   -9.5451 C   0  0  0  0  0  0  0  0  0  0  0  0
   20.7242  -29.3514   -9.6058 O   0  0  0  0  0  0  0  0  0  0  0  0
   20.7472  -32.0957   -6.4077 O   0  0  0  0  0  0  0  0  0  0  0  0
   21.5531  -25.9462  -12.9486 N   0  0  0  0  0  0  0  0  0  0  0  0
   20.8424  -24.7297  -13.2446 C   0  0  0  0  0  0  0  0  0  0  0  0
   21.4234  -23.6986  -13.7683 N   0  0  0  0  0  0  0  0  0  0  0  0
   19.4722  -24.6562  -12.9582 N   0  0  0  0  0  0  0  0  0  0  0  0
   18.7840  -25.8520  -12.4144 C   0  0  0  0  0  0  0  0  0  0  0  0
   19.1193  -26.0677  -11.0037 C   0  0  0  0  0  0  0  0  0  0  0  0
   18.4834  -27.1596  -10.2970 C   0  0  0  0  0  0  0  0  0  0  0  0
   18.7029  -27.5171   -8.8796 C   0  0  2  0  0  0  0  0  0  0  0  0
   18.5782  -29.0314   -8.9141 N   0  0  0  0  0  0  0  0  0  0  0  0
   17.5484  -27.1027   -8.0194 C   0  0  0  0  0  0  0  0  0  0  0  0
   16.3841  -27.2981   -8.3227 O   0  0  0  0  0  0  0  0  0  0  0  0
   20.7936  -22.8917  -14.0200 N   0  0  0  0  0  0  0  0  0  0  0  0
   17.7802  -26.4397   -6.7682 C   0  0  2  0  0  0  0  0  0  0  0  0
   16.6344  -26.0015   -6.0014 C   0  0  0  0  0  0  0  0  0  0  0  0
   17.0713  -26.0839   -4.5398 S   0  0  0  0  0  0  0  0  0  0  0  0
   18.8154  -25.7166   -4.3119 C   0  0  0  0  0  0  0  0  0  0  0  0
   16.2931  -24.6291   -6.3897 O   0  0  0  0  0  0  0  0  0  0  0  0
   17.0234  -24.0131   -7.2008 O   0  0  0  0  0  0  0  0  0  0  0  0
  2  1  1  1
  3  2  1  0
  4  5  1  0
  4  3  1  0
  5  6  2  0
  7  2  1  0
  7  8  2  0
  9  5  1  0
 10 11  1  0
 11 13  1  0
 11 12  2  0
 13 14  1  0
 14 15  1  0
 17 16  1  6
 16 15  1  0
 17 18  1  0
 18  7  1  0
 19 17  1  0
 20 19  2  0
 21 19  1  0
 22 25  1  0
 22 21  1  0
 22 23  1  6
 24 23  1  0
 25 27  1  0
 26 25  2  0
M  END
$$$$
