ERC.pdb
     RDKit          3D

 27 26  0  0  1  0  0  0  0  0999 V2000
   24.1486  -15.6526  -19.2327 N   0  0  0  0  0  0  0  0  0  0  0  0
   23.4444  -15.8162  -17.9733 C   0  0  1  0  0  0  0  0  0  0  0  0
   22.0019  -15.4571  -18.0441 C   0  0  0  0  0  0  0  0  0  0  0  0
   21.7761  -13.9709  -18.2045 C   0  0  0  0  0  0  0  0  0  0  0  0
   20.7576  -13.4487  -17.2817 C   0  0  0  0  0  0  0  0  0  0  0  0
   20.2188  -14.2269  -16.4214 O   0  0  0  0  0  0  0  0  0  0  0  0
   23.6140  -17.2173  -17.4779 C   0  0  0  0  0  0  0  0  0  0  0  0
   23.7577  -18.1763  -18.2943 O   0  0  0  0  0  0  0  0  0  0  0  0
   20.3200  -12.1364  -17.2694 O   0  0  0  0  0  0  0  0  0  0  0  0
   28.8021  -22.0961  -16.1329 N   0  0  0  0  0  0  0  0  0  0  0  0
   27.5277  -22.6677  -15.7839 C   0  0  0  0  0  0  0  0  0  0  0  0
   27.2074  -23.8838  -16.0902 N   0  0  0  0  0  0  0  0  0  0  0  0
   26.5989  -21.8830  -15.0865 N   0  0  0  0  0  0  0  0  0  0  0  0
   26.9273  -20.4670  -14.7931 C   0  0  0  0  0  0  0  0  0  0  0  0
   25.8285  -19.7966  -14.0915 C   0  0  0  0  0  0  0  0  0  0  0  0
   25.0963  -18.7551  -14.7808 C   0  0  0  0  0  0  0  0  0  0  0  0
   23.9115  -18.9554  -15.6418 C   0  0  2  0  0  0  0  0  0  0  0  0
   23.6213  -17.5395  -16.1120 N   0  0  0  0  0  0  0  0  0  0  0  0
   22.6953  -19.3000  -14.8378 C   0  0  0  0  0  0  0  0  0  0  0  0
   22.1981  -18.5455  -14.0198 O   0  0  0  0  0  0  0  0  0  0  0  0
   26.2651  -24.2127  -15.7510 N   0  0  0  0  0  0  0  0  0  0  0  0
   22.0525  -20.5715  -15.0078 C   0  0  2  0  0  0  0  0  0  0  0  0
   20.9159  -20.8833  -14.1689 C   0  0  0  0  0  0  0  0  0  0  0  0
   19.9496  -21.6529  -15.0678 S   0  0  0  0  0  0  0  0  0  0  0  0
   18.6963  -20.5990  -15.8075 C   0  0  0  0  0  0  0  0  0  0  0  0
   21.3655  -21.6956  -13.0336 O   0  0  0  0  0  0  0  0  0  0  0  0
   22.4526  -22.3149  -13.1048 O   0  0  0  0  0  0  0  0  0  0  0  0
  2  1  1  6
  3  2  1  0
  4  5  1  0
  4  3  1  0
  5  6  2  0
  7  2  1  0
  7  8  2  0
  9  5  1  0
 10 11  1  0
 11 13  1  0
 11 12  2  0
 13 14  1  0
 14 15  1  0
 17 16  1  1
 16 15  1  0
 17 18  1  0
 18  7  1  0
 19 17  1  0
 20 19  2  0
 21 19  1  0
 22 25  1  0
 22 21  1  0
 22 23  1  6
 24 23  1  0
 25 27  1  0
 26 25  2  0
M  END
$$$$
