ERC.pdb
     RDKit          3D

 27 26  0  0  1  0  0  0  0  0999 V2000
   26.9502  -24.8217  -16.7879 N   0  0  0  0  0  0  0  0  0  0  0  0
   27.1103  -23.4456  -16.3524 C   0  0  1  0  0  0  0  0  0  0  0  0
   27.3591  -22.4912  -17.4669 C   0  0  0  0  0  0  0  0  0  0  0  0
   26.2516  -22.4918  -18.4960 C   0  0  0  0  0  0  0  0  0  0  0  0
   26.7066  -22.9432  -19.8192 C   0  0  0  0  0  0  0  0  0  0  0  0
   25.8665  -23.0573  -20.7768 O   0  0  0  0  0  0  0  0  0  0  0  0
   25.9154  -23.0253  -15.5569 C   0  0  0  0  0  0  0  0  0  0  0  0
   24.7766  -23.5313  -15.7887 O   0  0  0  0  0  0  0  0  0  0  0  0
   28.0174  -23.2659  -20.1217 O   0  0  0  0  0  0  0  0  0  0  0  0
   25.2969  -20.4469   -7.3847 N   0  0  0  0  0  0  0  0  0  0  0  0
   24.0574  -20.9027   -7.9578 C   0  0  0  0  0  0  0  0  0  0  0  0
   23.0796  -21.3419   -7.2323 N   0  0  0  0  0  0  0  0  0  0  0  0
   23.8997  -20.8698   -9.3502 N   0  0  0  0  0  0  0  0  0  0  0  0
   25.0072  -20.3519  -10.1893 C   0  0  0  0  0  0  0  0  0  0  0  0
   24.5985  -20.2141  -11.5904 C   0  0  0  0  0  0  0  0  0  0  0  0
   25.3372  -20.9365  -12.6044 C   0  0  0  0  0  0  0  0  0  0  0  0
   24.7501  -21.6566  -13.7542 C   0  0  2  0  0  0  0  0  0  0  0  0
   25.9885  -22.0674  -14.5337 N   0  0  0  0  0  0  0  0  0  0  0  0
   24.0535  -20.7217  -14.6951 C   0  0  0  0  0  0  0  0  0  0  0  0
   24.6311  -19.8515  -15.3234 O   0  0  0  0  0  0  0  0  0  0  0  0
   22.2235  -21.6633   -7.7566 N   0  0  0  0  0  0  0  0  0  0  0  0
   22.6363  -20.8210  -14.8960 C   0  0  2  0  0  0  0  0  0  0  0  0
   21.9862  -19.8150  -15.7072 C   0  0  0  0  0  0  0  0  0  0  0  0
   21.5891  -20.5310  -16.9970 S   0  0  0  0  0  0  0  0  0  0  0  0
   20.4227  -19.5884  -17.9868 C   0  0  0  0  0  0  0  0  0  0  0  0
   20.8155  -19.3015  -14.9884 O   0  0  0  0  0  0  0  0  0  0  0  0
   20.3191  -19.9701  -14.0518 O   0  0  0  0  0  0  0  0  0  0  0  0
  2  1  1  6
  3  2  1  0
  4  5  1  0
  4  3  1  0
  5  6  2  0
  7  2  1  0
  7  8  2  0
  9  5  1  0
 10 11  1  0
 11 13  1  0
 11 12  2  0
 13 14  1  0
 14 15  1  0
 17 16  1  1
 16 15  1  0
 17 18  1  0
 18  7  1  0
 19 17  1  0
 20 19  2  0
 21 19  1  0
 22 25  1  0
 22 21  1  0
 22 23  1  6
 24 23  1  0
 25 27  1  0
 26 25  2  0
M  END
$$$$
