ERC.pdb
     RDKit          3D

 27 26  0  0  1  0  0  0  0  0999 V2000
   26.0147  -21.0434  -10.6373 N   0  0  0  0  0  0  0  0  0  0  0  0
   24.8490  -21.3615  -11.4427 C   0  0  1  0  0  0  0  0  0  0  0  0
   23.5713  -21.3391  -10.6799 C   0  0  0  0  0  0  0  0  0  0  0  0
   23.3193  -20.0128   -9.9996 C   0  0  0  0  0  0  0  0  0  0  0  0
   22.0293  -19.9721   -9.2955 C   0  0  0  0  0  0  0  0  0  0  0  0
   21.9198  -20.5007   -8.1359 O   0  0  0  0  0  0  0  0  0  0  0  0
   24.7776  -20.4362  -12.6157 C   0  0  0  0  0  0  0  0  0  0  0  0
   25.1994  -19.2445  -12.5228 O   0  0  0  0  0  0  0  0  0  0  0  0
   20.8840  -19.3871   -9.8052 O   0  0  0  0  0  0  0  0  0  0  0  0
   28.5230  -21.3407  -17.4406 N   0  0  0  0  0  0  0  0  0  0  0  0
   28.3855  -22.7558  -17.2150 C   0  0  0  0  0  0  0  0  0  0  0  0
   29.3999  -23.5175  -16.9581 N   0  0  0  0  0  0  0  0  0  0  0  0
   27.1093  -23.3326  -17.2734 N   0  0  0  0  0  0  0  0  0  0  0  0
   25.9252  -22.4508  -17.4132 C   0  0  0  0  0  0  0  0  0  0  0  0
   25.7018  -21.6577  -16.2006 C   0  0  0  0  0  0  0  0  0  0  0  0
   24.5739  -20.7510  -16.1608 C   0  0  0  0  0  0  0  0  0  0  0  0
   24.2141  -19.8668  -15.0321 C   0  0  2  0  0  0  0  0  0  0  0  0
   24.2497  -20.8282  -13.8556 N   0  0  0  0  0  0  0  0  0  0  0  0
   22.7747  -19.4554  -15.0888 C   0  0  0  0  0  0  0  0  0  0  0  0
   21.8527  -20.2096  -14.8303 O   0  0  0  0  0  0  0  0  0  0  0  0
   29.1921  -24.5463  -16.8605 N   0  0  0  0  0  0  0  0  0  0  0  0
   22.4194  -18.1162  -15.4616 C   0  0  1  0  0  0  0  0  0  0  0  0
   21.0237  -17.7385  -15.4153 C   0  0  0  0  0  0  0  0  0  0  0  0
   21.0146  -16.2824  -14.9532 S   0  0  0  0  0  0  0  0  0  0  0  0
   19.9106  -15.9989  -13.5641 C   0  0  0  0  0  0  0  0  0  0  0  0
   20.4415  -17.8875  -16.7531 O   0  0  0  0  0  0  0  0  0  0  0  0
   21.1889  -17.8922  -17.7590 O   0  0  0  0  0  0  0  0  0  0  0  0
  2  1  1  1
  3  2  1  0
  4  5  1  0
  4  3  1  0
  5  6  2  0
  7  2  1  0
  7  8  2  0
  9  5  1  0
 10 11  1  0
 11 13  1  0
 11 12  2  0
 13 14  1  0
 14 15  1  0
 17 16  1  6
 16 15  1  0
 17 18  1  0
 18  7  1  0
 19 17  1  0
 20 19  2  0
 21 19  1  0
 22 25  1  0
 22 21  1  0
 22 23  1  6
 24 23  1  0
 25 27  1  0
 26 25  2  0
M  END
$$$$
