ERC.pdb
     RDKit          3D

 27 26  0  0  1  0  0  0  0  0999 V2000
   28.0560  -22.9753  -17.3193 N   0  0  0  0  0  0  0  0  0  0  0  0
   27.2667  -21.7661  -17.1658 C   0  0  1  0  0  0  0  0  0  0  0  0
   26.7404  -21.2289  -18.4501 C   0  0  0  0  0  0  0  0  0  0  0  0
   27.8370  -20.7991  -19.3978 C   0  0  0  0  0  0  0  0  0  0  0  0
   28.3348  -19.4454  -19.1131 C   0  0  0  0  0  0  0  0  0  0  0  0
   27.7259  -18.7086  -18.2632 O   0  0  0  0  0  0  0  0  0  0  0  0
   26.1502  -22.0107  -16.2010 C   0  0  0  0  0  0  0  0  0  0  0  0
   25.5769  -23.1402  -16.1520 O   0  0  0  0  0  0  0  0  0  0  0  0
   29.4486  -18.8851  -19.7125 O   0  0  0  0  0  0  0  0  0  0  0  0
   27.1528  -21.2991   -9.2512 N   0  0  0  0  0  0  0  0  0  0  0  0
   25.8915  -20.7732   -8.7983 C   0  0  0  0  0  0  0  0  0  0  0  0
   25.7139  -20.3452   -7.5898 N   0  0  0  0  0  0  0  0  0  0  0  0
   24.8159  -20.7198   -9.6955 N   0  0  0  0  0  0  0  0  0  0  0  0
   24.8086  -21.6282  -10.8675 C   0  0  0  0  0  0  0  0  0  0  0  0
   25.6694  -21.1236  -11.9416 C   0  0  0  0  0  0  0  0  0  0  0  0
   25.0496  -20.5648  -13.1247 C   0  0  0  0  0  0  0  0  0  0  0  0
   24.5939  -21.3286  -14.3054 C   0  0  2  0  0  0  0  0  0  0  0  0
   25.6858  -21.0239  -15.3178 N   0  0  0  0  0  0  0  0  0  0  0  0
   23.3768  -20.7137  -14.9259 C   0  0  0  0  0  0  0  0  0  0  0  0
   23.3694  -19.6013  -15.4242 O   0  0  0  0  0  0  0  0  0  0  0  0
   24.7265  -20.0788   -7.3345 N   0  0  0  0  0  0  0  0  0  0  0  0
   22.1373  -21.4358  -14.9562 C   0  0  2  0  0  0  0  0  0  0  0  0
   20.9628  -20.7616  -15.4648 C   0  0  0  0  0  0  0  0  0  0  0  0
   20.2502  -21.7942  -16.3365 S   0  0  0  0  0  0  0  0  0  0  0  0
   18.6314  -21.2428  -16.8880 C   0  0  0  0  0  0  0  0  0  0  0  0
   20.1284  -20.3341  -14.3370 O   0  0  0  0  0  0  0  0  0  0  0  0
   20.2289  -20.9190  -13.2332 O   0  0  0  0  0  0  0  0  0  0  0  0
  2  1  1  6
  3  2  1  0
  4  5  1  0
  4  3  1  0
  5  6  2  0
  7  2  1  0
  7  8  2  0
  9  5  1  0
 10 11  1  0
 11 13  1  0
 11 12  2  0
 13 14  1  0
 14 15  1  0
 17 16  1  1
 16 15  1  0
 17 18  1  0
 18  7  1  0
 19 17  1  0
 20 19  2  0
 21 19  1  0
 22 25  1  0
 22 21  1  0
 22 23  1  1
 24 23  1  0
 25 27  1  0
 26 25  2  0
M  END
$$$$
