ERC.pdb
     RDKit          3D

 27 26  0  0  1  0  0  0  0  0999 V2000
   28.8711  -19.2596  -18.1930 N   0  0  0  0  0  0  0  0  0  0  0  0
   27.9923  -20.2799  -17.6495 C   0  0  1  0  0  0  0  0  0  0  0  0
   28.7156  -21.4354  -17.0523 C   0  0  0  0  0  0  0  0  0  0  0  0
   29.5982  -22.1517  -18.0490 C   0  0  0  0  0  0  0  0  0  0  0  0
   30.2785  -23.3187  -17.4687 C   0  0  0  0  0  0  0  0  0  0  0  0
   30.0736  -23.6323  -16.2458 O   0  0  0  0  0  0  0  0  0  0  0  0
   27.0641  -19.6668  -16.6497 C   0  0  0  0  0  0  0  0  0  0  0  0
   27.3511  -18.5632  -16.0962 O   0  0  0  0  0  0  0  0  0  0  0  0
   31.1535  -24.1335  -18.1646 O   0  0  0  0  0  0  0  0  0  0  0  0
   19.0977  -21.4059  -15.7925 N   0  0  0  0  0  0  0  0  0  0  0  0
   18.8985  -20.0718  -15.2895 C   0  0  0  0  0  0  0  0  0  0  0  0
   17.8182  -19.7200  -14.6694 N   0  0  0  0  0  0  0  0  0  0  0  0
   19.9085  -19.1177  -15.4747 N   0  0  0  0  0  0  0  0  0  0  0  0
   21.1314  -19.4981  -16.2222 C   0  0  0  0  0  0  0  0  0  0  0  0
   22.3268  -19.4002  -15.3791 C   0  0  0  0  0  0  0  0  0  0  0  0
   23.6185  -19.6826  -15.9687 C   0  0  0  0  0  0  0  0  0  0  0  0
   24.9218  -19.6025  -15.2758 C   0  0  2  0  0  0  0  0  0  0  0  0
   25.8518  -20.2678  -16.2771 N   0  0  0  0  0  0  0  0  0  0  0  0
   24.9792  -20.5252  -14.0969 C   0  0  0  0  0  0  0  0  0  0  0  0
   24.9984  -21.7397  -14.1982 O   0  0  0  0  0  0  0  0  0  0  0  0
   17.7506  -18.7032  -14.3998 N   0  0  0  0  0  0  0  0  0  0  0  0
   25.0143  -19.9945  -12.7643 C   0  0  2  0  0  0  0  0  0  0  0  0
   24.9321  -20.9195  -11.6551 C   0  0  0  0  0  0  0  0  0  0  0  0
   26.0062  -20.4638  -10.6689 S   0  0  0  0  0  0  0  0  0  0  0  0
   25.8753  -21.2759   -9.0713 C   0  0  0  0  0  0  0  0  0  0  0  0
   23.5900  -20.8475  -11.0682 O   0  0  0  0  0  0  0  0  0  0  0  0
   23.1335  -21.8305  -10.4391 O   0  0  0  0  0  0  0  0  0  0  0  0
  2  1  1  1
  3  2  1  0
  4  5  1  0
  4  3  1  0
  5  6  2  0
  7  2  1  0
  7  8  2  0
  9  5  1  0
 10 11  1  0
 11 13  1  0
 11 12  2  0
 13 14  1  0
 14 15  1  0
 17 16  1  6
 16 15  1  0
 17 18  1  0
 18  7  1  0
 19 17  1  0
 20 19  2  0
 21 19  1  0
 22 25  1  0
 22 21  1  0
 22 23  1  1
 24 23  1  0
 25 27  1  0
 26 25  2  0
M  END
$$$$
