ERC.pdb
     RDKit          3D

 27 26  0  0  1  0  0  0  0  0999 V2000
   19.9532  -16.2643  -17.9561 N   0  0  0  0  0  0  0  0  0  0  0  0
   19.5804  -16.8192  -16.6669 C   0  0  1  0  0  0  0  0  0  0  0  0
   18.1702  -16.5403  -16.2815 C   0  0  0  0  0  0  0  0  0  0  0  0
   17.8142  -15.0748  -16.3854 C   0  0  0  0  0  0  0  0  0  0  0  0
   17.0627  -14.5891  -15.2188 C   0  0  0  0  0  0  0  0  0  0  0  0
   15.8073  -14.3655  -15.3181 O   0  0  0  0  0  0  0  0  0  0  0  0
   19.8480  -18.2907  -16.6539 C   0  0  0  0  0  0  0  0  0  0  0  0
   19.8443  -18.9558  -17.7329 O   0  0  0  0  0  0  0  0  0  0  0  0
   17.6251  -14.3461  -13.9785 O   0  0  0  0  0  0  0  0  0  0  0  0
   27.1303  -20.5533  -14.3965 N   0  0  0  0  0  0  0  0  0  0  0  0
   26.7928  -21.3988  -15.5117 C   0  0  0  0  0  0  0  0  0  0  0  0
   27.6847  -22.0719  -16.1648 N   0  0  0  0  0  0  0  0  0  0  0  0
   25.4516  -21.5002  -15.9063 N   0  0  0  0  0  0  0  0  0  0  0  0
   24.4091  -20.8221  -15.0986 C   0  0  0  0  0  0  0  0  0  0  0  0
   23.0678  -21.0763  -15.6329 C   0  0  0  0  0  0  0  0  0  0  0  0
   21.9430  -20.3749  -15.0509 C   0  0  0  0  0  0  0  0  0  0  0  0
   20.5404  -20.4572  -15.5103 C   0  0  2  0  0  0  0  0  0  0  0  0
   20.1106  -18.9999  -15.4716 N   0  0  0  0  0  0  0  0  0  0  0  0
   19.6582  -21.0969  -14.4822 C   0  0  0  0  0  0  0  0  0  0  0  0
   19.3638  -20.5621  -13.4272 O   0  0  0  0  0  0  0  0  0  0  0  0
   27.3193  -22.7190  -16.9124 N   0  0  0  0  0  0  0  0  0  0  0  0
   19.1115  -22.4037  -14.7106 C   0  0  1  0  0  0  0  0  0  0  0  0
   18.2336  -22.9651  -13.7072 C   0  0  0  0  0  0  0  0  0  0  0  0
   19.0838  -23.0748  -12.4427 S   0  0  0  0  0  0  0  0  0  0  0  0
   20.4332  -24.2496  -12.6097 C   0  0  0  0  0  0  0  0  0  0  0  0
   17.0884  -22.0692  -13.5157 O   0  0  0  0  0  0  0  0  0  0  0  0
   17.0090  -21.0111  -14.1826 O   0  0  0  0  0  0  0  0  0  0  0  0
  2  1  1  6
  3  2  1  0
  4  5  1  0
  4  3  1  0
  5  6  2  0
  7  2  1  0
  7  8  2  0
  9  5  1  0
 10 11  1  0
 11 13  1  0
 11 12  2  0
 13 14  1  0
 14 15  1  0
 17 16  1  1
 16 15  1  0
 17 18  1  0
 18  7  1  0
 19 17  1  0
 20 19  2  0
 21 19  1  0
 22 25  1  0
 22 21  1  0
 22 23  1  6
 24 23  1  0
 25 27  1  0
 26 25  2  0
M  END
$$$$
