ERC.pdb
     RDKit          3D

 27 26  0  0  1  0  0  0  0  0999 V2000
   23.8933  -17.0339  -18.3250 N   0  0  0  0  0  0  0  0  0  0  0  0
   24.4231  -18.3207  -17.9101 C   0  0  1  0  0  0  0  0  0  0  0  0
   25.8920  -18.4544  -18.1085 C   0  0  0  0  0  0  0  0  0  0  0  0
   26.2845  -18.4890  -19.5680 C   0  0  0  0  0  0  0  0  0  0  0  0
   26.1826  -19.8347  -20.1514 C   0  0  0  0  0  0  0  0  0  0  0  0
   26.5492  -20.0340  -21.3604 O   0  0  0  0  0  0  0  0  0  0  0  0
   24.0593  -18.5803  -16.4827 C   0  0  0  0  0  0  0  0  0  0  0  0
   24.2062  -17.6768  -15.6059 O   0  0  0  0  0  0  0  0  0  0  0  0
   25.7048  -20.9416  -19.4729 O   0  0  0  0  0  0  0  0  0  0  0  0
   17.2858  -22.1658  -12.9729 N   0  0  0  0  0  0  0  0  0  0  0  0
   18.2347  -22.7498  -12.0613 C   0  0  0  0  0  0  0  0  0  0  0  0
   17.8694  -23.3764  -10.9894 N   0  0  0  0  0  0  0  0  0  0  0  0
   19.6035  -22.6393  -12.3421 N   0  0  0  0  0  0  0  0  0  0  0  0
   20.0384  -21.8214  -13.5002 C   0  0  0  0  0  0  0  0  0  0  0  0
   21.5001  -21.7617  -13.5951 C   0  0  0  0  0  0  0  0  0  0  0  0
   22.0962  -21.0357  -14.6967 C   0  0  0  0  0  0  0  0  0  0  0  0
   23.1797  -20.0359  -14.5884 C   0  0  2  0  0  0  0  0  0  0  0  0
   23.5481  -19.8122  -16.0459 N   0  0  0  0  0  0  0  0  0  0  0  0
   24.4274  -20.6325  -14.0125 C   0  0  0  0  0  0  0  0  0  0  0  0
   24.8511  -21.7309  -14.3280 O   0  0  0  0  0  0  0  0  0  0  0  0
   18.6434  -23.8159  -10.4247 N   0  0  0  0  0  0  0  0  0  0  0  0
   25.1918  -19.9085  -13.0377 C   0  0  2  0  0  0  0  0  0  0  0  0
   26.3392  -20.5596  -12.4441 C   0  0  0  0  0  0  0  0  0  0  0  0
   27.3465  -19.4415  -12.1808 S   0  0  0  0  0  0  0  0  0  0  0  0
   27.6935  -18.4572  -13.6435 C   0  0  0  0  0  0  0  0  0  0  0  0
   25.9264  -21.2222  -11.2026 O   0  0  0  0  0  0  0  0  0  0  0  0
   24.7504  -21.0908  -10.7897 O   0  0  0  0  0  0  0  0  0  0  0  0
  2  1  1  1
  3  2  1  0
  4  5  1  0
  4  3  1  0
  5  6  2  0
  7  2  1  0
  7  8  2  0
  9  5  1  0
 10 11  1  0
 11 13  1  0
 11 12  2  0
 13 14  1  0
 14 15  1  0
 17 16  1  6
 16 15  1  0
 17 18  1  0
 18  7  1  0
 19 17  1  0
 20 19  2  0
 21 19  1  0
 22 25  1  0
 22 21  1  0
 22 23  1  1
 24 23  1  0
 25 27  1  0
 26 25  2  0
M  END
$$$$
