ERC.pdb
     RDKit          3D

 27 26  0  0  1  0  0  0  0  0999 V2000
   19.1896  -30.9703   -9.1349 N   0  0  0  0  0  0  0  0  0  0  0  0
   17.9748  -30.1905   -8.9768 C   0  0  1  0  0  0  0  0  0  0  0  0
   16.8666  -30.9369   -8.3213 C   0  0  0  0  0  0  0  0  0  0  0  0
   16.2198  -31.9492   -9.2390 C   0  0  0  0  0  0  0  0  0  0  0  0
   15.3306  -31.3286  -10.2318 C   0  0  0  0  0  0  0  0  0  0  0  0
   14.8897  -32.0208  -11.2128 O   0  0  0  0  0  0  0  0  0  0  0  0
   18.2765  -28.9317   -8.2274 C   0  0  0  0  0  0  0  0  0  0  0  0
   19.1019  -28.9367   -7.2654 O   0  0  0  0  0  0  0  0  0  0  0  0
   14.9180  -30.0088  -10.1879 O   0  0  0  0  0  0  0  0  0  0  0  0
   19.6163  -21.9437  -11.8978 N   0  0  0  0  0  0  0  0  0  0  0  0
   19.6576  -23.1567  -12.6721 C   0  0  0  0  0  0  0  0  0  0  0  0
   20.4206  -23.2903  -13.7090 N   0  0  0  0  0  0  0  0  0  0  0  0
   18.8452  -24.2338  -12.2917 N   0  0  0  0  0  0  0  0  0  0  0  0
   18.1042  -24.1604  -11.0093 C   0  0  0  0  0  0  0  0  0  0  0  0
   18.5509  -25.1958  -10.0725 C   0  0  0  0  0  0  0  0  0  0  0  0
   17.8009  -25.3985   -8.8509 C   0  0  0  0  0  0  0  0  0  0  0  0
   18.0796  -26.4257   -7.8250 C   0  0  2  0  0  0  0  0  0  0  0  0
   17.6741  -27.7035   -8.5410 N   0  0  0  0  0  0  0  0  0  0  0  0
   17.1057  -26.3514   -6.6890 C   0  0  0  0  0  0  0  0  0  0  0  0
   15.9064  -26.5224   -6.8237 O   0  0  0  0  0  0  0  0  0  0  0  0
   20.2502  -24.1459  -14.3008 N   0  0  0  0  0  0  0  0  0  0  0  0
   17.5654  -26.0671   -5.3599 C   0  0  2  0  0  0  0  0  0  0  0  0
   16.5982  -26.0706   -4.2841 C   0  0  0  0  0  0  0  0  0  0  0  0
   17.3763  -26.5049   -3.0431 S   0  0  0  0  0  0  0  0  0  0  0  0
   19.0230  -25.7900   -2.9672 C   0  0  0  0  0  0  0  0  0  0  0  0
   16.0434  -24.7215   -4.1328 O   0  0  0  0  0  0  0  0  0  0  0  0
   16.5478  -23.7673   -4.7698 O   0  0  0  0  0  0  0  0  0  0  0  0
  2  1  1  1
  3  2  1  0
  4  5  1  0
  4  3  1  0
  5  6  2  0
  7  2  1  0
  7  8  2  0
  9  5  1  0
 10 11  1  0
 11 13  1  0
 11 12  2  0
 13 14  1  0
 14 15  1  0
 17 16  1  6
 16 15  1  0
 17 18  1  0
 18  7  1  0
 19 17  1  0
 20 19  2  0
 21 19  1  0
 22 25  1  0
 22 21  1  0
 22 23  1  6
 24 23  1  0
 25 27  1  0
 26 25  2  0
M  END
$$$$
