ERC.pdb
     RDKit          3D

 27 26  0  0  1  0  0  0  0  0999 V2000
   15.9985  -20.7539    1.3803 N   0  0  0  0  0  0  0  0  0  0  0  0
   16.1034  -20.9142    2.8198 C   0  0  1  0  0  0  0  0  0  0  0  0
   16.0295  -22.3307    3.2704 C   0  0  0  0  0  0  0  0  0  0  0  0
   14.7055  -22.9813    2.9401 C   0  0  0  0  0  0  0  0  0  0  0  0
   14.6358  -24.3821    3.3811 C   0  0  0  0  0  0  0  0  0  0  0  0
   15.1484  -25.3038    2.6575 O   0  0  0  0  0  0  0  0  0  0  0  0
   17.3624  -20.2717    3.3092 C   0  0  0  0  0  0  0  0  0  0  0  0
   18.3260  -20.0549    2.5148 O   0  0  0  0  0  0  0  0  0  0  0  0
   14.0387  -24.7974    4.5579 O   0  0  0  0  0  0  0  0  0  0  0  0
   16.3743  -12.8451    4.9393 N   0  0  0  0  0  0  0  0  0  0  0  0
   17.3159  -13.0446    3.8687 C   0  0  0  0  0  0  0  0  0  0  0  0
   17.6097  -12.1105    3.0224 N   0  0  0  0  0  0  0  0  0  0  0  0
   17.9395  -14.2929    3.7358 N   0  0  0  0  0  0  0  0  0  0  0  0
   17.6600  -15.3490    4.7386 C   0  0  0  0  0  0  0  0  0  0  0  0
   18.3355  -16.6044    4.3968 C   0  0  0  0  0  0  0  0  0  0  0  0
   18.1861  -17.7383    5.2844 C   0  0  0  0  0  0  0  0  0  0  0  0
   18.7612  -19.0837    5.0735 C   0  0  2  0  0  0  0  0  0  0  0  0
   17.5417  -19.8836    4.6460 N   0  0  0  0  0  0  0  0  0  0  0  0
   19.1506  -19.7281    6.3687 C   0  0  0  0  0  0  0  0  0  0  0  0
   18.3412  -20.1055    7.1982 O   0  0  0  0  0  0  0  0  0  0  0  0
   18.3130  -12.3648    2.2794 N   0  0  0  0  0  0  0  0  0  0  0  0
   20.5348  -19.9297    6.6887 C   0  0  1  0  0  0  0  0  0  0  0  0
   20.8638  -20.5332    7.9616 C   0  0  0  0  0  0  0  0  0  0  0  0
   21.7105  -21.7583    7.6207 S   0  0  0  0  0  0  0  0  0  0  0  0
   20.9350  -22.8236    6.3990 C   0  0  0  0  0  0  0  0  0  0  0  0
   21.6099  -19.5659    8.7730 O   0  0  0  0  0  0  0  0  0  0  0  0
   21.8934  -18.4423    8.2957 O   0  0  0  0  0  0  0  0  0  0  0  0
  2  1  1  6
  3  2  1  0
  4  5  1  0
  4  3  1  0
  5  6  2  0
  7  2  1  0
  7  8  2  0
  9  5  1  0
 10 11  1  0
 11 13  1  0
 11 12  2  0
 13 14  1  0
 14 15  1  0
 17 16  1  1
 16 15  1  0
 17 18  1  0
 18  7  1  0
 19 17  1  0
 20 19  2  0
 21 19  1  0
 22 25  1  0
 22 21  1  0
 22 23  1  1
 24 23  1  0
 25 27  1  0
 26 25  2  0
M  END
$$$$
