ERC.pdb
     RDKit          3D

 27 26  0  0  1  0  0  0  0  0999 V2000
   28.6410  -22.5381  -17.3249 N   0  0  0  0  0  0  0  0  0  0  0  0
   28.1827  -21.2525  -16.8290 C   0  0  1  0  0  0  0  0  0  0  0  0
   27.5918  -20.3820  -17.8816 C   0  0  0  0  0  0  0  0  0  0  0  0
   28.6031  -19.9491  -18.9186 C   0  0  0  0  0  0  0  0  0  0  0  0
   28.0436  -19.0061  -19.8980 C   0  0  0  0  0  0  0  0  0  0  0  0
   28.7641  -18.5985  -20.8730 O   0  0  0  0  0  0  0  0  0  0  0  0
   27.2108  -21.4596  -15.7110 C   0  0  0  0  0  0  0  0  0  0  0  0
   26.4241  -22.4534  -15.7171 O   0  0  0  0  0  0  0  0  0  0  0  0
   26.7545  -18.5068  -19.8472 O   0  0  0  0  0  0  0  0  0  0  0  0
   23.7481  -21.2737   -8.1791 N   0  0  0  0  0  0  0  0  0  0  0  0
   23.0477  -20.8653   -9.3687 C   0  0  0  0  0  0  0  0  0  0  0  0
   21.7609  -20.7303   -9.4023 N   0  0  0  0  0  0  0  0  0  0  0  0
   23.7820  -20.6023  -10.5333 N   0  0  0  0  0  0  0  0  0  0  0  0
   25.2085  -21.0034  -10.5923 C   0  0  0  0  0  0  0  0  0  0  0  0
   26.0517  -19.9119  -11.0891 C   0  0  0  0  0  0  0  0  0  0  0  0
   26.6358  -20.0298  -12.4084 C   0  0  0  0  0  0  0  0  0  0  0  0
   26.0581  -20.7750  -13.5469 C   0  0  2  0  0  0  0  0  0  0  0  0
   27.1181  -20.5829  -14.6191 N   0  0  0  0  0  0  0  0  0  0  0  0
   24.8662  -20.0717  -14.1206 C   0  0  0  0  0  0  0  0  0  0  0  0
   24.9193  -18.9578  -14.6126 O   0  0  0  0  0  0  0  0  0  0  0  0
   21.3474  -20.4759  -10.3379 N   0  0  0  0  0  0  0  0  0  0  0  0
   23.5787  -20.7050  -14.1105 C   0  0  2  0  0  0  0  0  0  0  0  0
   22.4274  -19.9252  -14.5093 C   0  0  0  0  0  0  0  0  0  0  0  0
   21.8800  -20.6210  -15.7544 S   0  0  0  0  0  0  0  0  0  0  0  0
   23.1243  -20.8456  -17.0312 C   0  0  0  0  0  0  0  0  0  0  0  0
   21.4496  -19.9192  -13.4163 O   0  0  0  0  0  0  0  0  0  0  0  0
   21.6890  -20.5579  -12.3650 O   0  0  0  0  0  0  0  0  0  0  0  0
  2  1  1  6
  3  2  1  0
  4  5  1  0
  4  3  1  0
  5  6  2  0
  7  2  1  0
  7  8  2  0
  9  5  1  0
 10 11  1  0
 11 13  1  0
 11 12  2  0
 13 14  1  0
 14 15  1  0
 17 16  1  1
 16 15  1  0
 17 18  1  0
 18  7  1  0
 19 17  1  0
 20 19  2  0
 21 19  1  0
 22 25  1  0
 22 21  1  0
 22 23  1  1
 24 23  1  0
 25 27  1  0
 26 25  2  0
M  END
$$$$
