ERC.pdb
     RDKit          3D

 27 26  0  0  1  0  0  0  0  0999 V2000
   15.2145  -22.2303    9.7529 N   0  0  0  0  0  0  0  0  0  0  0  0
   15.9062  -21.0412   10.2180 C   0  0  1  0  0  0  0  0  0  0  0  0
   16.5833  -21.2189   11.5313 C   0  0  0  0  0  0  0  0  0  0  0  0
   15.6089  -21.3277   12.6820 C   0  0  0  0  0  0  0  0  0  0  0  0
   15.0479  -20.0269   13.0755 C   0  0  0  0  0  0  0  0  0  0  0  0
   14.0436  -19.9795   13.8662 O   0  0  0  0  0  0  0  0  0  0  0  0
   16.8825  -20.5862    9.1801 C   0  0  0  0  0  0  0  0  0  0  0  0
   17.6195  -21.4234    8.5780 O   0  0  0  0  0  0  0  0  0  0  0  0
   15.5367  -18.8071   12.6433 O   0  0  0  0  0  0  0  0  0  0  0  0
   16.8616  -19.6554    1.8184 N   0  0  0  0  0  0  0  0  0  0  0  0
   17.8773  -18.6447    1.9585 C   0  0  0  0  0  0  0  0  0  0  0  0
   18.7343  -18.3904    1.0225 N   0  0  0  0  0  0  0  0  0  0  0  0
   17.9426  -17.9071    3.1486 N   0  0  0  0  0  0  0  0  0  0  0  0
   17.4676  -18.5280    4.4087 C   0  0  0  0  0  0  0  0  0  0  0  0
   17.4470  -17.5591    5.5087 C   0  0  0  0  0  0  0  0  0  0  0  0
   17.1135  -18.0239    6.8386 C   0  0  0  0  0  0  0  0  0  0  0  0
   17.9922  -18.8181    7.7231 C   0  0  2  0  0  0  0  0  0  0  0  0
   17.0334  -19.2368    8.8255 N   0  0  0  0  0  0  0  0  0  0  0  0
   18.9791  -17.9522    8.4447 C   0  0  0  0  0  0  0  0  0  0  0  0
   18.6555  -17.1028    9.2568 O   0  0  0  0  0  0  0  0  0  0  0  0
   19.4359  -17.6322    1.2322 N   0  0  0  0  0  0  0  0  0  0  0  0
   20.3849  -18.0968    8.1970 C   0  0  2  0  0  0  0  0  0  0  0  0
   21.2978  -17.2117    8.8869 C   0  0  0  0  0  0  0  0  0  0  0  0
   22.6953  -17.7168    8.5324 S   0  0  0  0  0  0  0  0  0  0  0  0
   23.9717  -16.4805    8.7990 C   0  0  0  0  0  0  0  0  0  0  0  0
   21.0814  -15.8388    8.4187 O   0  0  0  0  0  0  0  0  0  0  0  0
   21.0875  -14.8936    9.2416 O   0  0  0  0  0  0  0  0  0  0  0  0
  2  1  1  6
  3  2  1  0
  4  5  1  0
  4  3  1  0
  5  6  2  0
  7  2  1  0
  7  8  2  0
  9  5  1  0
 10 11  1  0
 11 13  1  0
 11 12  2  0
 13 14  1  0
 14 15  1  0
 17 16  1  6
 16 15  1  0
 17 18  1  0
 18  7  1  0
 19 17  1  0
 20 19  2  0
 21 19  1  0
 22 25  1  0
 22 21  1  0
 22 23  1  6
 24 23  1  0
 25 27  1  0
 26 25  2  0
M  END
$$$$
