ERC.pdb
     RDKit          3D

 27 26  0  0  1  0  0  0  0  0999 V2000
   25.2173  -18.3096  -17.7283 N   0  0  0  0  0  0  0  0  0  0  0  0
   24.7268  -19.5368  -18.3299 C   0  0  1  0  0  0  0  0  0  0  0  0
   25.7892  -20.3475  -18.9849 C   0  0  0  0  0  0  0  0  0  0  0  0
   27.0151  -20.5167  -18.1166 C   0  0  0  0  0  0  0  0  0  0  0  0
   27.1082  -21.8577  -17.5212 C   0  0  0  0  0  0  0  0  0  0  0  0
   26.2213  -22.7383  -17.7932 O   0  0  0  0  0  0  0  0  0  0  0  0
   24.0034  -20.3488  -17.3030 C   0  0  0  0  0  0  0  0  0  0  0  0
   23.3231  -21.3621  -17.6451 O   0  0  0  0  0  0  0  0  0  0  0  0
   28.1142  -22.2572  -16.6597 O   0  0  0  0  0  0  0  0  0  0  0  0
   26.0594  -20.9139   -8.8751 N   0  0  0  0  0  0  0  0  0  0  0  0
   24.6279  -21.0142   -8.7595 C   0  0  0  0  0  0  0  0  0  0  0  0
   24.0317  -21.1204   -7.6156 N   0  0  0  0  0  0  0  0  0  0  0  0
   23.8489  -20.9952   -9.9246 N   0  0  0  0  0  0  0  0  0  0  0  0
   24.5194  -20.8368  -11.2378 C   0  0  0  0  0  0  0  0  0  0  0  0
   23.5629  -20.9424  -12.3438 C   0  0  0  0  0  0  0  0  0  0  0  0
   24.0169  -20.6469  -13.6863 C   0  0  0  0  0  0  0  0  0  0  0  0
   23.2393  -20.8502  -14.9269 C   0  0  2  0  0  0  0  0  0  0  0  0
   24.0368  -20.0387  -15.9347 N   0  0  0  0  0  0  0  0  0  0  0  0
   21.9251  -20.1327  -14.8799 C   0  0  0  0  0  0  0  0  0  0  0  0
   21.8264  -18.9181  -14.8555 O   0  0  0  0  0  0  0  0  0  0  0  0
   22.9790  -21.1646   -7.6457 N   0  0  0  0  0  0  0  0  0  0  0  0
   20.6967  -20.8740  -14.8611 C   0  0  2  0  0  0  0  0  0  0  0  0
   19.4577  -20.1448  -14.7008 C   0  0  0  0  0  0  0  0  0  0  0  0
   18.7985  -20.1608  -16.0789 S   0  0  0  0  0  0  0  0  0  0  0  0
   17.1527  -19.4398  -16.0729 C   0  0  0  0  0  0  0  0  0  0  0  0
   18.6303  -20.8192  -13.6951 O   0  0  0  0  0  0  0  0  0  0  0  0
   18.8621  -22.0150  -13.4003 O   0  0  0  0  0  0  0  0  0  0  0  0
  2  1  1  1
  3  2  1  0
  4  5  1  0
  4  3  1  0
  5  6  2  0
  7  2  1  0
  7  8  2  0
  9  5  1  0
 10 11  1  0
 11 13  1  0
 11 12  2  0
 13 14  1  0
 14 15  1  0
 17 16  1  1
 16 15  1  0
 17 18  1  0
 18  7  1  0
 19 17  1  0
 20 19  2  0
 21 19  1  0
 22 25  1  0
 22 21  1  0
 22 23  1  1
 24 23  1  0
 25 27  1  0
 26 25  2  0
M  END
$$$$
