ERC.pdb
     RDKit          3D

 27 26  0  0  1  0  0  0  0  0999 V2000
   25.0171  -23.2925  -14.7585 N   0  0  0  0  0  0  0  0  0  0  0  0
   24.6623  -22.0849  -14.0343 C   0  0  1  0  0  0  0  0  0  0  0  0
   25.3940  -20.8741  -14.4965 C   0  0  0  0  0  0  0  0  0  0  0  0
   26.8855  -21.0968  -14.6025 C   0  0  0  0  0  0  0  0  0  0  0  0
   27.3647  -21.0780  -15.9923 C   0  0  0  0  0  0  0  0  0  0  0  0
   28.3140  -21.8573  -16.3492 O   0  0  0  0  0  0  0  0  0  0  0  0
   23.1844  -21.8669  -14.1092 C   0  0  0  0  0  0  0  0  0  0  0  0
   22.5628  -22.0349  -15.2010 O   0  0  0  0  0  0  0  0  0  0  0  0
   26.8526  -20.2554  -16.9798 O   0  0  0  0  0  0  0  0  0  0  0  0
   18.8114  -24.3831   -7.6150 N   0  0  0  0  0  0  0  0  0  0  0  0
   18.3673  -25.0640   -8.8031 C   0  0  0  0  0  0  0  0  0  0  0  0
   17.5725  -26.0845   -8.7598 N   0  0  0  0  0  0  0  0  0  0  0  0
   18.8080  -24.6075  -10.0530 N   0  0  0  0  0  0  0  0  0  0  0  0
   19.4839  -23.2905  -10.1423 C   0  0  0  0  0  0  0  0  0  0  0  0
   19.8596  -22.9739  -11.5235 C   0  0  0  0  0  0  0  0  0  0  0  0
   20.4308  -21.6745  -11.8082 C   0  0  0  0  0  0  0  0  0  0  0  0
   20.9290  -21.2177  -13.1229 C   0  0  2  0  0  0  0  0  0  0  0  0
   22.4224  -21.4714  -12.9989 N   0  0  0  0  0  0  0  0  0  0  0  0
   20.8496  -19.7277  -13.2573 C   0  0  0  0  0  0  0  0  0  0  0  0
   21.2703  -18.9564  -12.4124 O   0  0  0  0  0  0  0  0  0  0  0  0
   17.3011  -26.4985   -9.6904 N   0  0  0  0  0  0  0  0  0  0  0  0
   20.2563  -19.1374  -14.4227 C   0  0  1  0  0  0  0  0  0  0  0  0
   20.1655  -17.6952  -14.4906 C   0  0  0  0  0  0  0  0  0  0  0  0
   20.8104  -17.3123  -15.8215 S   0  0  0  0  0  0  0  0  0  0  0  0
   22.5846  -17.5965  -15.8438 C   0  0  0  0  0  0  0  0  0  0  0  0
   18.7543  -17.2998  -14.4372 O   0  0  0  0  0  0  0  0  0  0  0  0
   17.8624  -18.1462  -14.6796 O   0  0  0  0  0  0  0  0  0  0  0  0
  2  1  1  6
  3  2  1  0
  4  5  1  0
  4  3  1  0
  5  6  2  0
  7  2  1  0
  7  8  2  0
  9  5  1  0
 10 11  1  0
 11 13  1  0
 11 12  2  0
 13 14  1  0
 14 15  1  0
 17 16  1  1
 16 15  1  0
 17 18  1  0
 18  7  1  0
 19 17  1  0
 20 19  2  0
 21 19  1  0
 22 25  1  0
 22 21  1  0
 22 23  1  1
 24 23  1  0
 25 27  1  0
 26 25  2  0
M  END
$$$$
