ERC.pdb
     RDKit          3D

 27 26  0  0  1  0  0  0  0  0999 V2000
   17.4252  -25.0115  -10.9598 N   0  0  0  0  0  0  0  0  0  0  0  0
   17.9052  -25.9519   -9.9628 C   0  0  1  0  0  0  0  0  0  0  0  0
   19.2438  -26.5226  -10.2750 C   0  0  0  0  0  0  0  0  0  0  0  0
   19.2585  -27.3064  -11.5677 C   0  0  0  0  0  0  0  0  0  0  0  0
   19.7897  -26.5289  -12.6968 C   0  0  0  0  0  0  0  0  0  0  0  0
   19.8749  -27.0648  -13.8550 O   0  0  0  0  0  0  0  0  0  0  0  0
   17.9122  -25.3007   -8.6162 C   0  0  0  0  0  0  0  0  0  0  0  0
   17.9713  -24.0389   -8.5111 O   0  0  0  0  0  0  0  0  0  0  0  0
   20.2202  -25.2175  -12.6030 O   0  0  0  0  0  0  0  0  0  0  0  0
   11.6970  -22.7380   -6.5666 N   0  0  0  0  0  0  0  0  0  0  0  0
   12.9272  -22.1764   -7.0601 C   0  0  0  0  0  0  0  0  0  0  0  0
   12.9528  -21.2707   -7.9844 N   0  0  0  0  0  0  0  0  0  0  0  0
   14.1421  -22.6226   -6.5220 N   0  0  0  0  0  0  0  0  0  0  0  0
   14.1290  -23.7172   -5.5217 C   0  0  0  0  0  0  0  0  0  0  0  0
   15.4871  -24.1681   -5.2032 C   0  0  0  0  0  0  0  0  0  0  0  0
   16.2690  -24.8066   -6.2410 C   0  0  0  0  0  0  0  0  0  0  0  0
   17.6369  -25.3452   -6.0858 C   0  0  2  0  0  0  0  0  0  0  0  0
   17.8566  -26.0356   -7.4219 N   0  0  0  0  0  0  0  0  0  0  0  0
   17.6769  -26.4801   -5.1086 C   0  0  0  0  0  0  0  0  0  0  0  0
   17.1624  -27.5644   -5.3212 O   0  0  0  0  0  0  0  0  0  0  0  0
   13.9092  -20.9699   -8.3100 N   0  0  0  0  0  0  0  0  0  0  0  0
   18.3437  -26.3253   -3.8476 C   0  0  2  0  0  0  0  0  0  0  0  0
   18.3337  -27.4396   -2.9250 C   0  0  0  0  0  0  0  0  0  0  0  0
   19.5408  -27.2207   -2.0146 S   0  0  0  0  0  0  0  0  0  0  0  0
   19.8116  -28.5843   -0.8761 C   0  0  0  0  0  0  0  0  0  0  0  0
   17.0757  -27.4277   -2.1713 O   0  0  0  0  0  0  0  0  0  0  0  0
   16.4324  -26.3586   -2.0531 O   0  0  0  0  0  0  0  0  0  0  0  0
  2  1  1  6
  3  2  1  0
  4  5  1  0
  4  3  1  0
  5  6  2  0
  7  2  1  0
  7  8  2  0
  9  5  1  0
 10 11  1  0
 11 13  1  0
 11 12  2  0
 13 14  1  0
 14 15  1  0
 17 16  1  6
 16 15  1  0
 17 18  1  0
 18  7  1  0
 19 17  1  0
 20 19  2  0
 21 19  1  0
 22 25  1  0
 22 21  1  0
 22 23  1  1
 24 23  1  0
 25 27  1  0
 26 25  2  0
M  END
$$$$
