ERC.pdb
     RDKit          3D

 27 26  0  0  1  0  0  0  0  0999 V2000
   29.3953  -23.7347  -16.8769 N   0  0  0  0  0  0  0  0  0  0  0  0
   27.9772  -23.5384  -16.6333 C   0  0  1  0  0  0  0  0  0  0  0  0
   27.2580  -24.7847  -16.2532 C   0  0  0  0  0  0  0  0  0  0  0  0
   26.8068  -25.5884  -17.4514 C   0  0  0  0  0  0  0  0  0  0  0  0
   25.7778  -24.8982  -18.2429 C   0  0  0  0  0  0  0  0  0  0  0  0
   24.6236  -24.6813  -17.7362 O   0  0  0  0  0  0  0  0  0  0  0  0
   27.7850  -22.4819  -15.5921 C   0  0  0  0  0  0  0  0  0  0  0  0
   28.7185  -22.1970  -14.7833 O   0  0  0  0  0  0  0  0  0  0  0  0
   25.9650  -24.4490  -19.5379 O   0  0  0  0  0  0  0  0  0  0  0  0
   25.5183  -18.2461  -18.6204 N   0  0  0  0  0  0  0  0  0  0  0  0
   26.3061  -17.1468  -18.1270 C   0  0  0  0  0  0  0  0  0  0  0  0
   27.2415  -16.5948  -18.8308 N   0  0  0  0  0  0  0  0  0  0  0  0
   26.0529  -16.6531  -16.8398 N   0  0  0  0  0  0  0  0  0  0  0  0
   24.9951  -17.2898  -16.0184 C   0  0  0  0  0  0  0  0  0  0  0  0
   25.5672  -18.1877  -15.0106 C   0  0  0  0  0  0  0  0  0  0  0  0
   25.9634  -19.5211  -15.4120 C   0  0  0  0  0  0  0  0  0  0  0  0
   26.4863  -20.5746  -14.5166 C   0  0  2  0  0  0  0  0  0  0  0  0
   26.5861  -21.7651  -15.4562 N   0  0  0  0  0  0  0  0  0  0  0  0
   25.4573  -21.0155  -13.5211 C   0  0  0  0  0  0  0  0  0  0  0  0
   24.4997  -21.7111  -13.8122 O   0  0  0  0  0  0  0  0  0  0  0  0
   27.8126  -15.8560  -18.3419 N   0  0  0  0  0  0  0  0  0  0  0  0
   25.5662  -20.6213  -12.1457 C   0  0  2  0  0  0  0  0  0  0  0  0
   24.5932  -21.1341  -11.2060 C   0  0  0  0  0  0  0  0  0  0  0  0
   25.0938  -20.7002   -9.8294 S   0  0  0  0  0  0  0  0  0  0  0  0
   26.8687  -20.9043   -9.6369 C   0  0  0  0  0  0  0  0  0  0  0  0
   23.2797  -20.5584  -11.5126 O   0  0  0  0  0  0  0  0  0  0  0  0
   23.1816  -19.6651  -12.3861 O   0  0  0  0  0  0  0  0  0  0  0  0
  2  1  1  1
  3  2  1  0
  4  5  1  0
  4  3  1  0
  5  6  2  0
  7  2  1  0
  7  8  2  0
  9  5  1  0
 10 11  1  0
 11 13  1  0
 11 12  2  0
 13 14  1  0
 14 15  1  0
 17 16  1  6
 16 15  1  0
 17 18  1  0
 18  7  1  0
 19 17  1  0
 20 19  2  0
 21 19  1  0
 22 25  1  0
 22 21  1  0
 22 23  1  6
 24 23  1  0
 25 27  1  0
 26 25  2  0
M  END
$$$$
