ILS.pdb
     RDKit          3D

 23 22  0  0  1  0  0  0  0  0999 V2000
   28.5249  -20.1699   -4.6007 C   0  0  0  0  0  0  0  0  0  0  0  0
   27.2089  -20.3857   -5.2690 C   0  0  0  0  0  0  0  0  0  0  0  0
   27.2059  -19.9983   -6.7411 C   0  0  2  0  0  0  0  0  0  0  0  0
   27.7718  -18.6224   -6.8236 C   0  0  0  0  0  0  0  0  0  0  0  0
   25.8415  -20.1820   -7.3292 C   0  0  2  0  0  0  0  0  0  0  0  0
   25.4802  -21.5822   -7.0077 N   0  0  0  0  0  0  0  0  0  0  0  0
   25.7611  -20.0582   -8.7923 C   0  0  0  0  0  0  0  0  0  0  0  0
   25.6085  -18.9049   -9.3056 O   0  0  0  0  0  0  0  0  0  0  0  0
   28.3722  -19.5393  -12.0336 C   0  0  0  0  0  0  0  0  0  0  0  0
   28.2974  -20.9733  -11.4960 C   0  0  2  0  0  0  0  0  0  0  0  0
   29.4626  -21.7082  -12.1199 C   0  0  0  0  0  0  0  0  0  0  0  0
   26.9736  -21.5154  -11.8639 C   0  0  0  0  0  0  0  0  0  0  0  0
   25.7874  -20.9256  -11.1361 C   0  0  2  0  0  0  0  0  0  0  0  0
   25.8443  -21.1431   -9.7238 N   0  0  0  0  0  0  0  0  0  0  0  0
   24.4863  -21.2208  -11.7710 C   0  0  0  0  0  0  0  0  0  0  0  0
   23.9584  -22.3864  -11.6781 O   0  0  0  0  0  0  0  0  0  0  0  0
   21.0858  -19.2438  -11.7458 O   0  0  0  0  0  0  0  0  0  0  0  0
   21.4852  -19.5033  -13.0501 C   0  0  0  0  0  0  0  0  0  0  0  0
   22.4841  -20.6008  -13.1674 C   0  0  2  0  0  0  0  0  0  0  0  0
   23.7432  -20.2585  -12.5139 N   0  0  0  0  0  0  0  0  0  0  0  0
   22.7646  -20.9364  -14.5973 C   0  0  0  0  0  0  0  0  0  0  0  0
   21.8023  -21.3993  -15.2637 O   0  0  0  0  0  0  0  0  0  0  0  0
   24.0298  -20.7410  -15.1474 O   0  0  0  0  0  0  0  0  0  0  0  0
  1  2  1  0
  2  3  1  0
  3  5  1  0
  3  4  1  1
  5  7  1  0
  5  6  1  6
  7  8  2  0
 10  9  1  6
 10 12  1  0
 11 10  1  0
 13 12  1  6
 14 13  1  0
 14  7  1  0
 15 16  2  0
 15 13  1  0
 17 18  1  0
 19 18  1  6
 19 21  1  0
 19 20  1  0
 20 15  1  0
 21 23  1  0
 22 21  2  0
M  END
$$$$
