ILS.pdb
     RDKit          3D

 23 22  0  0  1  0  0  0  0  0999 V2000
   33.6449  -25.6729  -17.0943 C   0  0  0  0  0  0  0  0  0  0  0  0
   32.3748  -25.8117  -16.3244 C   0  0  0  0  0  0  0  0  0  0  0  0
   31.1731  -25.1878  -17.0200 C   0  0  2  0  0  0  0  0  0  0  0  0
   31.5200  -23.7622  -17.2792 C   0  0  0  0  0  0  0  0  0  0  0  0
   29.9260  -25.4249  -16.2263 C   0  0  2  0  0  0  0  0  0  0  0  0
   29.7722  -26.8981  -16.2011 N   0  0  0  0  0  0  0  0  0  0  0  0
   28.6897  -24.8886  -16.8149 C   0  0  0  0  0  0  0  0  0  0  0  0
   28.2842  -25.3541  -17.9266 O   0  0  0  0  0  0  0  0  0  0  0  0
   24.5860  -25.3354  -16.2489 C   0  0  0  0  0  0  0  0  0  0  0  0
   25.0623  -24.3075  -15.2157 C   0  0  2  0  0  0  0  0  0  0  0  0
   23.8678  -24.0291  -14.3310 C   0  0  0  0  0  0  0  0  0  0  0  0
   25.5530  -23.1286  -15.9578 C   0  0  0  0  0  0  0  0  0  0  0  0
   26.7061  -23.3709  -16.9047 C   0  0  2  0  0  0  0  0  0  0  0  0
   27.8712  -23.8645  -16.2382 N   0  0  0  0  0  0  0  0  0  0  0  0
   26.9412  -22.2677  -17.8588 C   0  0  0  0  0  0  0  0  0  0  0  0
   27.8110  -21.3577  -17.6111 O   0  0  0  0  0  0  0  0  0  0  0  0
   27.3659  -22.7154  -21.7578 O   0  0  0  0  0  0  0  0  0  0  0  0
   26.4917  -21.6748  -21.4735 C   0  0  0  0  0  0  0  0  0  0  0  0
   26.6180  -21.1427  -20.0890 C   0  0  2  0  0  0  0  0  0  0  0  0
   26.2371  -22.1365  -19.0906 N   0  0  0  0  0  0  0  0  0  0  0  0
   25.7773  -19.9219  -19.8918 C   0  0  0  0  0  0  0  0  0  0  0  0
   24.9189  -19.9749  -18.9728 O   0  0  0  0  0  0  0  0  0  0  0  0
   25.9481  -18.7939  -20.6916 O   0  0  0  0  0  0  0  0  0  0  0  0
  1  2  1  0
  2  3  1  0
  3  5  1  0
  3  4  1  1
  5  7  1  0
  5  6  1  6
  7  8  2  0
 10  9  1  6
 10 12  1  0
 11 10  1  0
 13 12  1  1
 14 13  1  0
 14  7  1  0
 15 16  2  0
 15 13  1  0
 17 18  1  0
 19 18  1  6
 19 21  1  0
 19 20  1  0
 20 15  1  0
 21 23  1  0
 22 21  2  0
M  END
$$$$
