ILS.pdb
     RDKit          3D

 23 22  0  0  1  0  0  0  0  0999 V2000
   24.0158  -41.6003   -7.9344 C   0  0  0  0  0  0  0  0  0  0  0  0
   24.2216  -40.3019   -8.6395 C   0  0  0  0  0  0  0  0  0  0  0  0
   24.9903  -39.2794   -7.8146 C   0  0  2  0  0  0  0  0  0  0  0  0
   24.3279  -39.2186   -6.4813 C   0  0  0  0  0  0  0  0  0  0  0  0
   25.0961  -37.9817   -8.5536 C   0  0  2  0  0  0  0  0  0  0  0  0
   25.8849  -38.3037   -9.7654 N   0  0  0  0  0  0  0  0  0  0  0  0
   25.8261  -36.9133   -7.8550 C   0  0  0  0  0  0  0  0  0  0  0  0
   27.0784  -37.0394   -7.6736 O   0  0  0  0  0  0  0  0  0  0  0  0
   26.8729  -32.8629   -8.7772 C   0  0  0  0  0  0  0  0  0  0  0  0
   25.4522  -32.8781   -8.2007 C   0  0  2  0  0  0  0  0  0  0  0  0
   24.9305  -31.4669   -8.3542 C   0  0  0  0  0  0  0  0  0  0  0  0
   25.5476  -33.3385   -6.8005 C   0  0  0  0  0  0  0  0  0  0  0  0
   26.0163  -34.7613   -6.5984 C   0  0  2  0  0  0  0  0  0  0  0  0
   25.2466  -35.7059   -7.3470 N   0  0  0  0  0  0  0  0  0  0  0  0
   26.2582  -35.1185   -5.1853 C   0  0  0  0  0  0  0  0  0  0  0  0
   25.3380  -35.6651   -4.4781 O   0  0  0  0  0  0  0  0  0  0  0  0
   29.8194  -36.5790   -3.5087 O   0  0  0  0  0  0  0  0  0  0  0  0
   29.2075  -35.4966   -2.8906 C   0  0  0  0  0  0  0  0  0  0  0  0
   27.7504  -35.3853   -3.1739 C   0  0  2  0  0  0  0  0  0  0  0  0
   27.4979  -34.8871   -4.5220 N   0  0  0  0  0  0  0  0  0  0  0  0
   27.0690  -34.4822   -2.1961 C   0  0  0  0  0  0  0  0  0  0  0  0
   26.5131  -33.4582   -2.6722 O   0  0  0  0  0  0  0  0  0  0  0  0
   27.0594  -34.7734   -0.8336 O   0  0  0  0  0  0  0  0  0  0  0  0
  1  2  1  0
  2  3  1  0
  3  5  1  0
  3  4  1  1
  5  7  1  0
  5  6  1  6
  7  8  2  0
 10  9  1  1
 10 12  1  0
 11 10  1  0
 13 12  1  1
 14 13  1  0
 14  7  1  0
 15 16  2  0
 15 13  1  0
 17 18  1  0
 19 18  1  1
 19 21  1  0
 19 20  1  0
 20 15  1  0
 21 23  1  0
 22 21  2  0
M  END
$$$$
