ILS.pdb
     RDKit          3D

 23 22  0  0  1  0  0  0  0  0999 V2000
   26.3723  -23.1356  -11.4864 C   0  0  0  0  0  0  0  0  0  0  0  0
   25.4237  -21.9898  -11.5992 C   0  0  0  0  0  0  0  0  0  0  0  0
   25.7224  -21.0691  -12.7741 C   0  0  2  0  0  0  0  0  0  0  0  0
   27.1598  -20.6915  -12.6684 C   0  0  0  0  0  0  0  0  0  0  0  0
   24.7475  -19.9335  -12.8117 C   0  0  2  0  0  0  0  0  0  0  0  0
   23.4158  -20.5816  -12.7808 N   0  0  0  0  0  0  0  0  0  0  0  0
   24.7806  -19.1112  -14.0304 C   0  0  0  0  0  0  0  0  0  0  0  0
   25.7294  -18.2791  -14.1865 O   0  0  0  0  0  0  0  0  0  0  0  0
   25.2632  -20.1677  -18.2041 C   0  0  0  0  0  0  0  0  0  0  0  0
   23.7772  -20.2857  -17.8452 C   0  0  2  0  0  0  0  0  0  0  0  0
   23.1029  -20.8648  -19.0687 C   0  0  0  0  0  0  0  0  0  0  0  0
   23.3029  -18.9368  -17.4748 C   0  0  0  0  0  0  0  0  0  0  0  0
   23.9346  -18.3234  -16.2462 C   0  0  2  0  0  0  0  0  0  0  0  0
   23.8209  -19.1608  -15.0925 N   0  0  0  0  0  0  0  0  0  0  0  0
   23.5835  -16.9037  -16.0361 C   0  0  0  0  0  0  0  0  0  0  0  0
   22.3897  -16.5620  -15.7138 O   0  0  0  0  0  0  0  0  0  0  0  0
   24.9504  -12.2731  -15.3320 O   0  0  0  0  0  0  0  0  0  0  0  0
   25.2791  -13.6041  -15.5518 C   0  0  0  0  0  0  0  0  0  0  0  0
   24.1294  -14.4455  -15.9832 C   0  0  2  0  0  0  0  0  0  0  0  0
   24.5199  -15.8386  -16.1736 N   0  0  0  0  0  0  0  0  0  0  0  0
   23.5273  -13.9407  -17.2555 C   0  0  0  0  0  0  0  0  0  0  0  0
   24.1374  -14.2299  -18.3177 O   0  0  0  0  0  0  0  0  0  0  0  0
   22.3527  -13.1913  -17.2479 O   0  0  0  0  0  0  0  0  0  0  0  0
  1  2  1  0
  2  3  1  0
  3  5  1  0
  3  4  1  1
  5  7  1  0
  5  6  1  6
  7  8  2  0
 10  9  1  6
 10 12  1  0
 11 10  1  0
 13 12  1  6
 14 13  1  0
 14  7  1  0
 15 16  2  0
 15 13  1  0
 17 18  1  0
 19 18  1  6
 19 21  1  0
 19 20  1  0
 20 15  1  0
 21 23  1  0
 22 21  2  0
M  END
$$$$
