ILS.pdb
     RDKit          3D

 23 22  0  0  1  0  0  0  0  0999 V2000
   23.2716  -19.9612  -15.6611 C   0  0  0  0  0  0  0  0  0  0  0  0
   24.3480  -19.8997  -14.6301 C   0  0  0  0  0  0  0  0  0  0  0  0
   23.9320  -20.4768  -13.2844 C   0  0  2  0  0  0  0  0  0  0  0  0
   22.6440  -19.8238  -12.9174 C   0  0  0  0  0  0  0  0  0  0  0  0
   25.0424  -20.3410  -12.2895 C   0  0  2  0  0  0  0  0  0  0  0  0
   26.1640  -21.1139  -12.8718 N   0  0  0  0  0  0  0  0  0  0  0  0
   24.7802  -20.9237  -10.9650 C   0  0  0  0  0  0  0  0  0  0  0  0
   24.6213  -22.1814  -10.8658 O   0  0  0  0  0  0  0  0  0  0  0  0
   27.2467  -21.2342   -7.2101 C   0  0  0  0  0  0  0  0  0  0  0  0
   26.5087  -19.9149   -7.4665 C   0  0  2  0  0  0  0  0  0  0  0  0
   27.0631  -18.9309   -6.4609 C   0  0  0  0  0  0  0  0  0  0  0  0
   25.0632  -20.1804   -7.3190 C   0  0  0  0  0  0  0  0  0  0  0  0
   24.3833  -20.8362   -8.4991 C   0  0  2  0  0  0  0  0  0  0  0  0
   24.6875  -20.1903   -9.7382 N   0  0  0  0  0  0  0  0  0  0  0  0
   22.9546  -21.1394   -8.2762 C   0  0  0  0  0  0  0  0  0  0  0  0
   22.0449  -20.2929   -8.5951 O   0  0  0  0  0  0  0  0  0  0  0  0
   19.4324  -24.4076   -7.5086 O   0  0  0  0  0  0  0  0  0  0  0  0
   20.7693  -24.0868   -7.7035 C   0  0  0  0  0  0  0  0  0  0  0  0
   21.0728  -22.6395   -7.5331 C   0  0  2  0  0  0  0  0  0  0  0  0
   22.4950  -22.3611   -7.7049 N   0  0  0  0  0  0  0  0  0  0  0  0
   20.6491  -22.1451   -6.1870 C   0  0  0  0  0  0  0  0  0  0  0  0
   21.5696  -21.9056   -5.3626 O   0  0  0  0  0  0  0  0  0  0  0  0
   19.3026  -21.9646   -5.8779 O   0  0  0  0  0  0  0  0  0  0  0  0
  1  2  1  0
  2  3  1  0
  3  5  1  0
  3  4  1  1
  5  7  1  0
  5  6  1  6
  7  8  2  0
 10  9  1  1
 10 12  1  0
 11 10  1  0
 13 12  1  1
 14 13  1  0
 14  7  1  0
 15 16  2  0
 15 13  1  0
 17 18  1  0
 19 18  1  1
 19 21  1  0
 19 20  1  0
 20 15  1  0
 21 23  1  0
 22 21  2  0
M  END
$$$$
