ILS.pdb
     RDKit          3D

 23 22  0  0  1  0  0  0  0  0999 V2000
   29.6444  -20.6529  -13.6109 C   0  0  0  0  0  0  0  0  0  0  0  0
   28.3251  -19.9670  -13.4919 C   0  0  0  0  0  0  0  0  0  0  0  0
   27.6647  -19.6862  -14.8344 C   0  0  2  0  0  0  0  0  0  0  0  0
   28.6108  -18.8338  -15.6078 C   0  0  0  0  0  0  0  0  0  0  0  0
   26.2904  -19.1264  -14.6361 C   0  0  2  0  0  0  0  0  0  0  0  0
   26.5047  -17.8584  -13.9008 N   0  0  0  0  0  0  0  0  0  0  0  0
   25.3893  -19.9401  -13.8064 C   0  0  0  0  0  0  0  0  0  0  0  0
   24.8764  -20.9922  -14.3032 O   0  0  0  0  0  0  0  0  0  0  0  0
   26.1701  -21.8625   -9.9932 C   0  0  0  0  0  0  0  0  0  0  0  0
   25.6539  -20.4415   -9.7377 C   0  0  2  0  0  0  0  0  0  0  0  0
   25.7859  -20.2172   -8.2479 C   0  0  0  0  0  0  0  0  0  0  0  0
   24.2656  -20.3782  -10.2380 C   0  0  0  0  0  0  0  0  0  0  0  0
   24.0936  -20.4731  -11.7368 C   0  0  2  0  0  0  0  0  0  0  0  0
   25.0251  -19.6559  -12.4506 N   0  0  0  0  0  0  0  0  0  0  0  0
   22.6898  -20.3755  -12.1870 C   0  0  0  0  0  0  0  0  0  0  0  0
   22.1126  -19.2353  -12.2992 O   0  0  0  0  0  0  0  0  0  0  0  0
   19.1953  -22.1226  -14.9572 O   0  0  0  0  0  0  0  0  0  0  0  0
   20.4497  -22.1885  -14.3655 C   0  0  0  0  0  0  0  0  0  0  0  0
   20.5761  -21.3708  -13.1281 C   0  0  2  0  0  0  0  0  0  0  0  0
   21.8952  -21.5105  -12.5197 N   0  0  0  0  0  0  0  0  0  0  0  0
   19.5417  -21.7452  -12.1153 C   0  0  0  0  0  0  0  0  0  0  0  0
   18.3420  -21.5435  -12.4384 O   0  0  0  0  0  0  0  0  0  0  0  0
   19.9036  -22.2876  -10.8839 O   0  0  0  0  0  0  0  0  0  0  0  0
  1  2  1  0
  2  3  1  0
  3  5  1  0
  3  4  1  1
  5  7  1  0
  5  6  1  1
  7  8  2  0
 10  9  1  1
 10 12  1  0
 11 10  1  0
 13 12  1  1
 14 13  1  0
 14  7  1  0
 15 16  2  0
 15 13  1  0
 17 18  1  0
 19 18  1  6
 19 21  1  0
 19 20  1  0
 20 15  1  0
 21 23  1  0
 22 21  2  0
M  END
$$$$
