ILS.pdb
     RDKit          3D

 23 22  0  0  1  0  0  0  0  0999 V2000
   24.8378  -16.7880  -17.4355 C   0  0  0  0  0  0  0  0  0  0  0  0
   25.5014  -17.9859  -16.8439 C   0  0  0  0  0  0  0  0  0  0  0  0
   26.3922  -17.6594  -15.6535 C   0  0  2  0  0  0  0  0  0  0  0  0
   27.3991  -16.6699  -16.1300 C   0  0  0  0  0  0  0  0  0  0  0  0
   26.9414  -18.9142  -15.0494 C   0  0  2  0  0  0  0  0  0  0  0  0
   27.5099  -19.6635  -16.1938 N   0  0  0  0  0  0  0  0  0  0  0  0
   25.9500  -19.8018  -14.4235 C   0  0  0  0  0  0  0  0  0  0  0  0
   25.6162  -20.8724  -15.0229 O   0  0  0  0  0  0  0  0  0  0  0  0
   26.6561  -21.6836  -10.8339 C   0  0  0  0  0  0  0  0  0  0  0  0
   25.8519  -20.4172  -10.5170 C   0  0  2  0  0  0  0  0  0  0  0  0
   25.8719  -20.2829   -9.0108 C   0  0  0  0  0  0  0  0  0  0  0  0
   24.5023  -20.5948  -11.0904 C   0  0  0  0  0  0  0  0  0  0  0  0
   24.4054  -20.5266  -12.5973 C   0  0  2  0  0  0  0  0  0  0  0  0
   25.3072  -19.5724  -13.1643 N   0  0  0  0  0  0  0  0  0  0  0  0
   23.0200  -20.4705  -13.1076 C   0  0  0  0  0  0  0  0  0  0  0  0
   22.1146  -21.2500  -12.6401 O   0  0  0  0  0  0  0  0  0  0  0  0
   22.0082  -17.8267  -16.1126 O   0  0  0  0  0  0  0  0  0  0  0  0
   20.9237  -18.4064  -15.4679 C   0  0  0  0  0  0  0  0  0  0  0  0
   21.2628  -19.6424  -14.7108 C   0  0  2  0  0  0  0  0  0  0  0  0
   22.5996  -19.5714  -14.1298 N   0  0  0  0  0  0  0  0  0  0  0  0
   21.1843  -20.8568  -15.5799 C   0  0  0  0  0  0  0  0  0  0  0  0
   22.2565  -21.4934  -15.7516 O   0  0  0  0  0  0  0  0  0  0  0  0
   19.9803  -21.2489  -16.1610 O   0  0  0  0  0  0  0  0  0  0  0  0
  1  2  1  0
  2  3  1  0
  3  5  1  0
  3  4  1  6
  5  7  1  0
  5  6  1  6
  7  8  2  0
 10  9  1  1
 10 12  1  0
 11 10  1  0
 13 12  1  1
 14 13  1  0
 14  7  1  0
 15 16  2  0
 15 13  1  0
 17 18  1  0
 19 18  1  6
 19 21  1  0
 19 20  1  0
 20 15  1  0
 21 23  1  0
 22 21  2  0
M  END
$$$$
