ILS.pdb
     RDKit          3D

 23 22  0  0  1  0  0  0  0  0999 V2000
   16.1843  -12.9264  -20.5370 C   0  0  0  0  0  0  0  0  0  0  0  0
   17.3260  -13.0827  -19.5897 C   0  0  0  0  0  0  0  0  0  0  0  0
   17.5678  -11.8543  -18.7239 C   0  0  2  0  0  0  0  0  0  0  0  0
   17.6864  -10.6933  -19.6503 C   0  0  0  0  0  0  0  0  0  0  0  0
   18.7275  -12.0803  -17.8046 C   0  0  2  0  0  0  0  0  0  0  0  0
   18.3196  -13.2284  -16.9620 N   0  0  0  0  0  0  0  0  0  0  0  0
   19.0290  -10.9751  -16.8826 C   0  0  0  0  0  0  0  0  0  0  0  0
   18.1603  -10.6412  -16.0162 O   0  0  0  0  0  0  0  0  0  0  0  0
   21.4530  -10.1487  -13.1910 C   0  0  0  0  0  0  0  0  0  0  0  0
   22.2267  -10.2930  -14.5069 C   0  0  2  0  0  0  0  0  0  0  0  0
   23.6888  -10.3337  -14.1224 C   0  0  0  0  0  0  0  0  0  0  0  0
   21.8587   -9.1482  -15.3646 C   0  0  0  0  0  0  0  0  0  0  0  0
   20.4543   -9.1600  -15.9236 C   0  0  2  0  0  0  0  0  0  0  0  0
   20.2446  -10.2179  -16.8627 N   0  0  0  0  0  0  0  0  0  0  0  0
   19.9653   -7.8313  -16.3458 C   0  0  0  0  0  0  0  0  0  0  0  0
   20.3112   -7.3314  -17.4756 O   0  0  0  0  0  0  0  0  0  0  0  0
   16.8523   -4.1069  -15.7105 O   0  0  0  0  0  0  0  0  0  0  0  0
   17.3430   -5.3475  -15.3258 C   0  0  0  0  0  0  0  0  0  0  0  0
   18.6000   -5.7400  -16.0199 C   0  0  2  0  0  0  0  0  0  0  0  0
   19.0978   -7.0287  -15.5499 N   0  0  0  0  0  0  0  0  0  0  0  0
   19.6734   -4.7163  -15.8310 C   0  0  0  0  0  0  0  0  0  0  0  0
   19.5682   -3.6618  -16.5101 O   0  0  0  0  0  0  0  0  0  0  0  0
   20.7274   -4.9339  -14.9460 O   0  0  0  0  0  0  0  0  0  0  0  0
  1  2  1  0
  2  3  1  0
  3  5  1  0
  3  4  1  6
  5  7  1  0
  5  6  1  1
  7  8  2  0
 10  9  1  1
 10 12  1  0
 11 10  1  0
 13 12  1  6
 14 13  1  0
 14  7  1  0
 15 16  2  0
 15 13  1  0
 17 18  1  0
 19 18  1  1
 19 21  1  0
 19 20  1  0
 20 15  1  0
 21 23  1  0
 22 21  2  0
M  END
$$$$
