ILS.pdb
     RDKit          3D

 23 22  0  0  1  0  0  0  0  0999 V2000
   24.1984  -19.9220  -15.8145 C   0  0  0  0  0  0  0  0  0  0  0  0
   25.2398  -20.0506  -14.7541 C   0  0  0  0  0  0  0  0  0  0  0  0
   24.6911  -20.5423  -13.4221 C   0  0  2  0  0  0  0  0  0  0  0  0
   23.4858  -19.7185  -13.1244 C   0  0  0  0  0  0  0  0  0  0  0  0
   25.7640  -20.5353  -12.3780 C   0  0  2  0  0  0  0  0  0  0  0  0
   26.8127  -21.4348  -12.9122 N   0  0  0  0  0  0  0  0  0  0  0  0
   25.3764  -21.0811  -11.0687 C   0  0  0  0  0  0  0  0  0  0  0  0
   25.0478  -22.3066  -10.9849 O   0  0  0  0  0  0  0  0  0  0  0  0
   27.9876  -20.7041   -7.6908 C   0  0  0  0  0  0  0  0  0  0  0  0
   26.8308  -19.6982   -7.6588 C   0  0  2  0  0  0  0  0  0  0  0  0
   27.1784  -18.7054   -6.5723 C   0  0  0  0  0  0  0  0  0  0  0  0
   25.5896  -20.4588   -7.4084 C   0  0  0  0  0  0  0  0  0  0  0  0
   24.8375  -20.9269   -8.6331 C   0  0  2  0  0  0  0  0  0  0  0  0
   25.3356  -20.3449   -9.8407 N   0  0  0  0  0  0  0  0  0  0  0  0
   23.3682  -20.9074   -8.4790 C   0  0  0  0  0  0  0  0  0  0  0  0
   22.6757  -19.9130   -8.9003 O   0  0  0  0  0  0  0  0  0  0  0  0
   19.1890  -22.8482   -8.8473 O   0  0  0  0  0  0  0  0  0  0  0  0
   20.5757  -22.7885   -8.8878 C   0  0  0  0  0  0  0  0  0  0  0  0
   21.1744  -21.9503   -7.8133 C   0  0  2  0  0  0  0  0  0  0  0  0
   22.6327  -21.9628   -7.8666 N   0  0  0  0  0  0  0  0  0  0  0  0
   20.7427  -22.4072   -6.4565 C   0  0  0  0  0  0  0  0  0  0  0  0
   21.6425  -22.8717   -5.7089 O   0  0  0  0  0  0  0  0  0  0  0  0
   19.4110  -22.3166   -6.0568 O   0  0  0  0  0  0  0  0  0  0  0  0
  1  2  1  0
  2  3  1  0
  3  5  1  0
  3  4  1  1
  5  7  1  0
  5  6  1  6
  7  8  2  0
 10  9  1  1
 10 12  1  0
 11 10  1  0
 13 12  1  1
 14 13  1  0
 14  7  1  0
 15 16  2  0
 15 13  1  0
 17 18  1  0
 19 18  1  6
 19 21  1  0
 19 20  1  0
 20 15  1  0
 21 23  1  0
 22 21  2  0
M  END
$$$$
