ILS.pdb
     RDKit          3D

 23 22  0  0  1  0  0  0  0  0999 V2000
   19.2227  -22.3274  -10.9909 C   0  0  0  0  0  0  0  0  0  0  0  0
   20.2514  -22.2405   -9.9141 C   0  0  0  0  0  0  0  0  0  0  0  0
   21.5153  -21.5075  -10.3411 C   0  0  2  0  0  0  0  0  0  0  0  0
   21.9374  -22.1017  -11.6406 C   0  0  0  0  0  0  0  0  0  0  0  0
   22.5347  -21.5371   -9.2451 C   0  0  2  0  0  0  0  0  0  0  0  0
   21.8693  -20.8792   -8.0966 N   0  0  0  0  0  0  0  0  0  0  0  0
   23.7651  -20.7747   -9.5043 C   0  0  0  0  0  0  0  0  0  0  0  0
   23.6728  -19.5522   -9.8419 O   0  0  0  0  0  0  0  0  0  0  0  0
   26.9427  -18.5996   -7.8297 C   0  0  0  0  0  0  0  0  0  0  0  0
   27.2180  -20.1056   -7.7449 C   0  0  2  0  0  0  0  0  0  0  0  0
   28.4239  -20.2536   -6.8444 C   0  0  0  0  0  0  0  0  0  0  0  0
   27.4283  -20.5954   -9.1224 C   0  0  0  0  0  0  0  0  0  0  0  0
   26.2072  -20.6213  -10.0130 C   0  0  2  0  0  0  0  0  0  0  0  0
   25.0979  -21.2900   -9.4068 N   0  0  0  0  0  0  0  0  0  0  0  0
   26.4921  -21.0055  -11.4110 C   0  0  0  0  0  0  0  0  0  0  0  0
   26.9750  -22.1607  -11.6904 O   0  0  0  0  0  0  0  0  0  0  0  0
   24.8962  -18.9695  -14.7776 O   0  0  0  0  0  0  0  0  0  0  0  0
   25.2462  -20.3125  -14.7354 C   0  0  0  0  0  0  0  0  0  0  0  0
   26.4418  -20.5977  -13.8959 C   0  0  2  0  0  0  0  0  0  0  0  0
   26.2585  -20.1435  -12.5212 N   0  0  0  0  0  0  0  0  0  0  0  0
   27.6697  -19.9505  -14.4523 C   0  0  0  0  0  0  0  0  0  0  0  0
   28.2288  -19.0897  -13.7238 O   0  0  0  0  0  0  0  0  0  0  0  0
   28.1558  -20.2937  -15.7122 O   0  0  0  0  0  0  0  0  0  0  0  0
  1  2  1  0
  2  3  1  0
  3  5  1  0
  3  4  1  6
  5  7  1  0
  5  6  1  1
  7  8  2  0
 10  9  1  6
 10 12  1  0
 11 10  1  0
 13 12  1  1
 14 13  1  0
 14  7  1  0
 15 16  2  0
 15 13  1  0
 17 18  1  0
 19 18  1  6
 19 21  1  0
 19 20  1  0
 20 15  1  0
 21 23  1  0
 22 21  2  0
M  END
$$$$
