ILS.pdb
     RDKit          3D

 23 22  0  0  1  0  0  0  0  0999 V2000
   26.6602  -23.0642  -19.9325 C   0  0  0  0  0  0  0  0  0  0  0  0
   27.1167  -23.0553  -18.5123 C   0  0  0  0  0  0  0  0  0  0  0  0
   25.9764  -22.9456  -17.5098 C   0  0  2  0  0  0  0  0  0  0  0  0
   25.1551  -21.7725  -17.9212 C   0  0  0  0  0  0  0  0  0  0  0  0
   26.5089  -22.9146  -16.1110 C   0  0  2  0  0  0  0  0  0  0  0  0
   27.1421  -24.2404  -15.9215 N   0  0  0  0  0  0  0  0  0  0  0  0
   25.4976  -22.7826  -15.0516 C   0  0  0  0  0  0  0  0  0  0  0  0
   24.6848  -23.7401  -14.8529 O   0  0  0  0  0  0  0  0  0  0  0  0
   25.3652  -22.3848  -10.5472 C   0  0  0  0  0  0  0  0  0  0  0  0
   25.7354  -21.0905  -11.2810 C   0  0  2  0  0  0  0  0  0  0  0  0
   26.1231  -20.1027  -10.2034 C   0  0  0  0  0  0  0  0  0  0  0  0
   24.5619  -20.6836  -12.0803 C   0  0  0  0  0  0  0  0  0  0  0  0
   24.2416  -21.5468  -13.2791 C   0  0  2  0  0  0  0  0  0  0  0  0
   25.3367  -21.6472  -14.1934 N   0  0  0  0  0  0  0  0  0  0  0  0
   22.9284  -21.2593  -13.8921 C   0  0  0  0  0  0  0  0  0  0  0  0
   22.7882  -20.2931  -14.7243 O   0  0  0  0  0  0  0  0  0  0  0  0
   18.2114  -22.4282  -14.5552 O   0  0  0  0  0  0  0  0  0  0  0  0
   19.4590  -22.7345  -14.0283 C   0  0  0  0  0  0  0  0  0  0  0  0
   20.4500  -21.6299  -14.1445 C   0  0  2  0  0  0  0  0  0  0  0  0
   21.7527  -22.0134  -13.6104 N   0  0  0  0  0  0  0  0  0  0  0  0
   19.9859  -20.3996  -13.4325 C   0  0  0  0  0  0  0  0  0  0  0  0
   20.4200  -20.2313  -12.2631 O   0  0  0  0  0  0  0  0  0  0  0  0
   19.1188  -19.4975  -14.0455 O   0  0  0  0  0  0  0  0  0  0  0  0
  1  2  1  0
  2  3  1  0
  3  5  1  0
  3  4  1  6
  5  7  1  0
  5  6  1  1
  7  8  2  0
 10  9  1  1
 10 12  1  0
 11 10  1  0
 13 12  1  1
 14 13  1  0
 14  7  1  0
 15 16  2  0
 15 13  1  0
 17 18  1  0
 19 18  1  1
 19 21  1  0
 19 20  1  0
 20 15  1  0
 21 23  1  0
 22 21  2  0
M  END
$$$$
