RFE.pdb
     RDKit          3D

 32 32  0  0  1  0  0  0  0  0999 V2000
   29.5261  -26.8705  -17.0366 N   0  0  0  0  0  0  0  0  0  0  0  0
   28.1742  -27.2442  -16.7492 C   0  0  0  0  0  0  0  0  0  0  0  0
   27.9196  -28.4797  -16.4687 N   0  0  0  0  0  0  0  0  0  0  0  0
   27.1500  -26.2681  -16.7765 N   0  0  0  0  0  0  0  0  0  0  0  0
   27.3884  -25.0150  -17.4351 C   0  0  0  0  0  0  0  0  0  0  0  0
   27.9320  -24.0251  -16.4282 C   0  0  0  0  0  0  0  0  0  0  0  0
   26.9119  -23.8557  -15.3105 C   0  0  0  0  0  0  0  0  0  0  0  0
   25.8587  -22.9268  -15.8201 C   0  0  2  0  0  0  0  0  0  0  0  0
   26.3935  -21.6551  -16.2608 N   0  0  0  0  0  0  0  0  0  0  0  0
   24.7453  -22.7119  -14.8434 C   0  0  0  0  0  0  0  0  0  0  0  0
   24.2848  -23.7066  -14.2354 O   0  0  0  0  0  0  0  0  0  0  0  0
   26.9494  -28.8026  -16.2801 N   0  0  0  0  0  0  0  0  0  0  0  0
   24.2039  -21.4230  -14.5913 C   0  0  1  0  0  0  0  0  0  0  0  0
   23.1976  -21.0996  -13.6324 C   0  0  0  0  0  0  0  0  0  0  0  0
   23.4911  -19.8561  -12.7894 C   0  0  0  0  0  0  0  0  0  0  0  0
   24.2980  -20.2303  -11.6248 C   0  0  0  0  0  0  0  0  0  0  0  0
   23.6460  -20.3509  -10.4052 C   0  0  0  0  0  0  0  0  0  0  0  0
   24.3578  -20.6841   -9.2740 C   0  0  0  0  0  0  0  0  0  0  0  0
   25.7088  -20.9003   -9.3327 C   0  0  0  0  0  0  0  0  0  0  0  0
   26.3518  -20.7819  -10.5318 C   0  0  0  0  0  0  0  0  0  0  0  0
   25.6386  -20.4432  -11.6891 C   0  0  0  0  0  0  0  0  0  0  0  0
   21.8315  -21.1540  -14.1420 O   0  0  0  0  0  0  0  0  0  0  0  0
   21.5825  -20.5236  -15.2259 N   0  0  0  0  0  0  0  0  0  0  0  0
   20.7552  -21.8371  -13.5523 C   0  0  1  0  0  0  0  0  0  0  0  0
   19.4141  -21.9368  -14.1360 C   0  0  0  0  0  0  0  0  0  0  0  0
   18.7789  -23.2390  -13.8196 C   0  0  0  0  0  0  0  0  0  0  0  0
   17.4272  -23.3544  -14.4617 C   0  0  0  0  0  0  0  0  0  0  0  0
   16.7804  -24.6648  -14.1017 O   0  0  0  0  0  0  0  0  0  0  0  0
   17.3767  -25.4133  -13.3056 C   0  0  0  0  0  0  0  0  0  0  0  0
   18.6462  -20.7549  -13.6997 O   0  0  0  0  0  0  0  0  0  0  0  0
   17.6175  -20.2542  -14.5375 O   0  0  0  0  0  0  0  0  0  0  0  0
   15.5565  -24.9443  -14.6888 O   0  0  0  0  0  0  0  0  0  0  0  0
  2  3  2  0
  2  1  1  0
  4  2  1  0
  5  4  1  0
  6  5  1  0
  7  8  1  0
  7  6  1  0
  8  9  1  1
 10 11  2  0
 10  8  1  0
 12 10  1  0
 13 12  1  0
 13 21  1  0
 13 14  1  1
 15 14  1  0
 16 15  2  0
 17 16  1  0
 18 17  2  0
 18 19  1  0
 19 20  2  0
 20 15  1  0
 21 23  1  0
 22 21  2  0
 23 24  1  0
 24 25  1  1
 24 29  1  0
 26 27  1  0
 26 25  1  0
 27 28  2  0
 29 32  2  0
 29 30  1  0
 31 27  1  0
M  END
$$$$
