RFE.pdb
     RDKit          3D

 32 32  0  0  1  0  0  0  0  0999 V2000
   28.9449  -22.0713  -18.3318 N   0  0  0  0  0  0  0  0  0  0  0  0
   28.7435  -23.0578  -19.3498 C   0  0  0  0  0  0  0  0  0  0  0  0
   29.5590  -24.0583  -19.4125 N   0  0  0  0  0  0  0  0  0  0  0  0
   27.6690  -22.9242  -20.2607 N   0  0  0  0  0  0  0  0  0  0  0  0
   26.3350  -22.7576  -19.7572 C   0  0  0  0  0  0  0  0  0  0  0  0
   26.3090  -21.5757  -18.8129 C   0  0  0  0  0  0  0  0  0  0  0  0
   25.3336  -21.8753  -17.6827 C   0  0  0  0  0  0  0  0  0  0  0  0
   26.0825  -22.6660  -16.6601 C   0  0  2  0  0  0  0  0  0  0  0  0
   26.2169  -24.0636  -17.0152 N   0  0  0  0  0  0  0  0  0  0  0  0
   25.5114  -22.5322  -15.2833 C   0  0  0  0  0  0  0  0  0  0  0  0
   24.4662  -23.1664  -15.0067 O   0  0  0  0  0  0  0  0  0  0  0  0
   29.5133  -24.7452  -20.1917 N   0  0  0  0  0  0  0  0  0  0  0  0
   26.1180  -21.7135  -14.2935 C   0  0  1  0  0  0  0  0  0  0  0  0
   25.6115  -21.4498  -12.9854 C   0  0  0  0  0  0  0  0  0  0  0  0
   26.6786  -21.1156  -11.9401 C   0  0  0  0  0  0  0  0  0  0  0  0
   26.0326  -20.7597  -10.6739 C   0  0  0  0  0  0  0  0  0  0  0  0
   25.5811  -21.7978   -9.8705 C   0  0  0  0  0  0  0  0  0  0  0  0
   24.9515  -21.5210   -8.6770 C   0  0  0  0  0  0  0  0  0  0  0  0
   24.7621  -20.2284   -8.2662 C   0  0  0  0  0  0  0  0  0  0  0  0
   25.2055  -19.2059   -9.0556 C   0  0  0  0  0  0  0  0  0  0  0  0
   25.8470  -19.4750  -10.2717 C   0  0  0  0  0  0  0  0  0  0  0  0
   24.4551  -20.5609  -12.9484 O   0  0  0  0  0  0  0  0  0  0  0  0
   24.6386  -19.3424  -13.2888 N   0  0  0  0  0  0  0  0  0  0  0  0
   23.1496  -20.9172  -12.5720 C   0  0  1  0  0  0  0  0  0  0  0  0
   22.0088  -19.9966  -12.5564 C   0  0  0  0  0  0  0  0  0  0  0  0
   21.5495  -19.6766  -13.9297 C   0  0  0  0  0  0  0  0  0  0  0  0
   20.5147  -20.6574  -14.3989 C   0  0  0  0  0  0  0  0  0  0  0  0
   20.5414  -20.7779  -15.8988 O   0  0  0  0  0  0  0  0  0  0  0  0
   20.7499  -21.9014  -16.3927 C   0  0  0  0  0  0  0  0  0  0  0  0
   20.9739  -20.5800  -11.6813 O   0  0  0  0  0  0  0  0  0  0  0  0
   19.9575  -19.7389  -11.1614 O   0  0  0  0  0  0  0  0  0  0  0  0
   20.3299  -19.6178  -16.6269 O   0  0  0  0  0  0  0  0  0  0  0  0
  2  3  2  0
  2  1  1  0
  4  2  1  0
  5  4  1  0
  6  5  1  0
  7  8  1  0
  7  6  1  0
  8  9  1  6
 10 11  2  0
 10  8  1  0
 12 10  1  0
 13 12  1  0
 13 21  1  0
 13 14  1  1
 15 14  1  0
 16 15  2  0
 17 16  1  0
 18 17  2  0
 18 19  1  0
 19 20  2  0
 20 15  1  0
 21 23  1  0
 22 21  2  0
 23 24  1  0
 24 25  1  1
 24 29  1  0
 26 27  1  0
 26 25  1  0
 27 28  2  0
 29 32  2  0
 29 30  1  0
 31 27  1  0
M  END
$$$$
