RFE.pdb
     RDKit          3D

 32 32  0  0  1  0  0  0  0  0999 V2000
   19.2307  -25.3110   -7.8178 N   0  0  0  0  0  0  0  0  0  0  0  0
   18.1145  -24.5010   -8.2026 C   0  0  0  0  0  0  0  0  0  0  0  0
   18.0738  -24.0349   -9.4073 N   0  0  0  0  0  0  0  0  0  0  0  0
   17.0861  -24.2260   -7.2705 N   0  0  0  0  0  0  0  0  0  0  0  0
   17.1840  -24.7510   -5.9379 C   0  0  0  0  0  0  0  0  0  0  0  0
   16.4629  -26.0797   -5.8779 C   0  0  0  0  0  0  0  0  0  0  0  0
   16.5660  -26.6274   -4.4608 C   0  0  0  0  0  0  0  0  0  0  0  0
   17.7320  -27.5611   -4.4393 C   0  0  2  0  0  0  0  0  0  0  0  0
   17.4965  -28.7752   -5.1928 N   0  0  0  0  0  0  0  0  0  0  0  0
   18.1927  -27.8903   -3.0540 C   0  0  0  0  0  0  0  0  0  0  0  0
   17.6325  -28.8333   -2.4473 O   0  0  0  0  0  0  0  0  0  0  0  0
   17.3184  -23.3886   -9.7118 N   0  0  0  0  0  0  0  0  0  0  0  0
   19.2374  -27.1686   -2.4171 C   0  0  2  0  0  0  0  0  0  0  0  0
   19.5556  -27.1893   -1.0260 C   0  0  0  0  0  0  0  0  0  0  0  0
   20.9170  -26.5865   -0.6706 C   0  0  0  0  0  0  0  0  0  0  0  0
   21.0633  -26.5261    0.7862 C   0  0  0  0  0  0  0  0  0  0  0  0
   21.2208  -27.7266    1.4651 C   0  0  0  0  0  0  0  0  0  0  0  0
   21.3461  -27.7307    2.8368 C   0  0  0  0  0  0  0  0  0  0  0  0
   21.3179  -26.5607    3.5480 C   0  0  0  0  0  0  0  0  0  0  0  0
   21.1629  -25.3786    2.8816 C   0  0  0  0  0  0  0  0  0  0  0  0
   21.0341  -25.3619    1.4866 C   0  0  0  0  0  0  0  0  0  0  0  0
   18.4743  -26.7550   -0.1479 O   0  0  0  0  0  0  0  0  0  0  0  0
   17.8870  -25.6569   -0.4368 N   0  0  0  0  0  0  0  0  0  0  0  0
   18.0127  -27.4319    0.9930 C   0  0  1  0  0  0  0  0  0  0  0  0
   16.9198  -26.9647    1.8511 C   0  0  0  0  0  0  0  0  0  0  0  0
   15.8756  -28.0047    2.0162 C   0  0  0  0  0  0  0  0  0  0  0  0
   14.7934  -27.5449    2.9491 C   0  0  0  0  0  0  0  0  0  0  0  0
   13.6945  -26.8556    2.1860 O   0  0  0  0  0  0  0  0  0  0  0  0
   13.1255  -27.4889    1.2777 C   0  0  0  0  0  0  0  0  0  0  0  0
   17.5146  -26.4837    3.1128 O   0  0  0  0  0  0  0  0  0  0  0  0
   17.0275  -25.2837    3.6904 O   0  0  0  0  0  0  0  0  0  0  0  0
   13.3940  -25.5538    2.5542 O   0  0  0  0  0  0  0  0  0  0  0  0
  2  3  2  0
  2  1  1  0
  4  2  1  0
  5  4  1  0
  6  5  1  0
  7  8  1  0
  7  6  1  0
  8  9  1  1
 10 11  2  0
 10  8  1  0
 12 10  1  0
 13 12  1  0
 13 21  1  0
 13 14  1  6
 15 14  1  0
 16 15  2  0
 17 16  1  0
 18 17  2  0
 18 19  1  0
 19 20  2  0
 20 15  1  0
 21 23  1  0
 22 21  2  0
 23 24  1  0
 24 25  1  1
 24 29  1  0
 26 27  1  0
 26 25  1  0
 27 28  2  0
 29 32  2  0
 29 30  1  0
 31 27  1  0
M  END
$$$$
