RFE.pdb
     RDKit          3D

 32 32  0  0  1  0  0  0  0  0999 V2000
   29.4119  -18.9501  -19.1292 N   0  0  0  0  0  0  0  0  0  0  0  0
   27.9838  -19.0508  -19.1483 C   0  0  0  0  0  0  0  0  0  0  0  0
   27.4209  -19.6897  -20.1204 N   0  0  0  0  0  0  0  0  0  0  0  0
   27.2196  -18.4567  -18.1161 N   0  0  0  0  0  0  0  0  0  0  0  0
   27.8867  -17.9311  -16.9587 C   0  0  0  0  0  0  0  0  0  0  0  0
   28.3217  -19.0808  -16.0765 C   0  0  0  0  0  0  0  0  0  0  0  0
   27.1364  -19.5203  -15.2277 C   0  0  0  0  0  0  0  0  0  0  0  0
   27.6068  -20.6562  -14.3790 C   0  0  2  0  0  0  0  0  0  0  0  0
   28.0319  -21.8023  -15.1556 N   0  0  0  0  0  0  0  0  0  0  0  0
   26.6047  -21.0702  -13.3474 C   0  0  0  0  0  0  0  0  0  0  0  0
   25.9444  -22.1174  -13.5437 O   0  0  0  0  0  0  0  0  0  0  0  0
   26.3885  -19.8033  -20.1668 N   0  0  0  0  0  0  0  0  0  0  0  0
   26.3862  -20.3142  -12.1648 C   0  0  2  0  0  0  0  0  0  0  0  0
   25.3107  -20.4783  -11.2411 C   0  0  0  0  0  0  0  0  0  0  0  0
   25.4894  -19.7413   -9.9114 C   0  0  0  0  0  0  0  0  0  0  0  0
   26.7377  -20.1700   -9.2750 C   0  0  0  0  0  0  0  0  0  0  0  0
   27.6335  -20.8978  -10.0463 C   0  0  0  0  0  0  0  0  0  0  0  0
   28.8155  -21.3408   -9.4948 C   0  0  0  0  0  0  0  0  0  0  0  0
   29.1243  -21.0731   -8.1877 C   0  0  0  0  0  0  0  0  0  0  0  0
   28.2439  -20.3575   -7.4274 C   0  0  0  0  0  0  0  0  0  0  0  0
   27.0385  -19.9018   -7.9772 C   0  0  0  0  0  0  0  0  0  0  0  0
   23.9810  -20.3264  -11.8221 O   0  0  0  0  0  0  0  0  0  0  0  0
   23.8105  -19.3767  -12.6608 N   0  0  0  0  0  0  0  0  0  0  0  0
   22.8614  -21.1288  -11.5470 C   0  0  1  0  0  0  0  0  0  0  0  0
   21.5722  -21.0210  -12.2365 C   0  0  0  0  0  0  0  0  0  0  0  0
   21.4070  -22.0904  -13.2507 C   0  0  0  0  0  0  0  0  0  0  0  0
   21.1783  -21.5127  -14.6170 C   0  0  0  0  0  0  0  0  0  0  0  0
   19.7481  -21.7095  -15.0422 O   0  0  0  0  0  0  0  0  0  0  0  0
   19.1192  -22.6681  -14.5571 C   0  0  0  0  0  0  0  0  0  0  0  0
   20.5155  -20.9796  -11.2076 O   0  0  0  0  0  0  0  0  0  0  0  0
   20.8572  -21.2504   -9.8582 O   0  0  0  0  0  0  0  0  0  0  0  0
   19.2314  -20.8001  -15.9514 O   0  0  0  0  0  0  0  0  0  0  0  0
  2  3  2  0
  2  1  1  0
  4  2  1  0
  5  4  1  0
  6  5  1  0
  7  8  1  0
  7  6  1  0
  8  9  1  6
 10 11  2  0
 10  8  1  0
 12 10  1  0
 13 12  1  0
 13 21  1  0
 13 14  1  6
 15 14  1  0
 16 15  2  0
 17 16  1  0
 18 17  2  0
 18 19  1  0
 19 20  2  0
 20 15  1  0
 21 23  1  0
 22 21  2  0
 23 24  1  0
 24 25  1  1
 24 29  1  0
 26 27  1  0
 26 25  1  0
 27 28  2  0
 29 32  2  0
 29 30  1  0
 31 27  1  0
M  END
$$$$
