RFE.pdb
     RDKit          3D

 32 32  0  0  1  0  0  0  0  0999 V2000
   19.5060  -23.8204   -7.8274 N   0  0  0  0  0  0  0  0  0  0  0  0
   18.3084  -24.1533   -8.5380 C   0  0  0  0  0  0  0  0  0  0  0  0
   17.5862  -25.1352   -8.1087 N   0  0  0  0  0  0  0  0  0  0  0  0
   17.9382  -23.4122   -9.6852 N   0  0  0  0  0  0  0  0  0  0  0  0
   18.7689  -23.4626  -10.8549 C   0  0  0  0  0  0  0  0  0  0  0  0
   18.2571  -22.4601  -11.8660 C   0  0  0  0  0  0  0  0  0  0  0  0
   19.3130  -21.3803  -12.0604 C   0  0  0  0  0  0  0  0  0  0  0  0
   20.3764  -21.9640  -12.9322 C   0  0  2  0  0  0  0  0  0  0  0  0
   20.9803  -23.1526  -12.3666 N   0  0  0  0  0  0  0  0  0  0  0  0
   21.4330  -20.9736  -13.3095 C   0  0  0  0  0  0  0  0  0  0  0  0
   21.0749  -19.8762  -13.7981 O   0  0  0  0  0  0  0  0  0  0  0  0
   16.7117  -25.4166   -8.5956 N   0  0  0  0  0  0  0  0  0  0  0  0
   22.8160  -21.2435  -13.1294 C   0  0  1  0  0  0  0  0  0  0  0  0
   23.9031  -20.4907  -13.6666 C   0  0  0  0  0  0  0  0  0  0  0  0
   25.2248  -20.6437  -12.9098 C   0  0  0  0  0  0  0  0  0  0  0  0
   26.2818  -19.9114  -13.6124 C   0  0  0  0  0  0  0  0  0  0  0  0
   26.3175  -18.5323  -13.4584 C   0  0  0  0  0  0  0  0  0  0  0  0
   27.2794  -17.7914  -14.1090 C   0  0  0  0  0  0  0  0  0  0  0  0
   28.2088  -18.3975  -14.9117 C   0  0  0  0  0  0  0  0  0  0  0  0
   28.1749  -19.7543  -15.0645 C   0  0  0  0  0  0  0  0  0  0  0  0
   27.2012  -20.5183  -14.4081 C   0  0  0  0  0  0  0  0  0  0  0  0
   24.0438  -20.5747  -15.1163 O   0  0  0  0  0  0  0  0  0  0  0  0
   24.1820  -21.7384  -15.6275 N   0  0  0  0  0  0  0  0  0  0  0  0
   24.0422  -19.4925  -16.0118 C   0  0  1  0  0  0  0  0  0  0  0  0
   24.1865  -19.6164  -17.4654 C   0  0  0  0  0  0  0  0  0  0  0  0
   22.8671  -19.6982  -18.1376 C   0  0  0  0  0  0  0  0  0  0  0  0
   22.0033  -18.5228  -17.7837 C   0  0  0  0  0  0  0  0  0  0  0  0
   20.7210  -18.5523  -18.5711 O   0  0  0  0  0  0  0  0  0  0  0  0
   20.5299  -19.5094  -19.3439 C   0  0  0  0  0  0  0  0  0  0  0  0
   25.0450  -18.5087  -17.9268 O   0  0  0  0  0  0  0  0  0  0  0  0
   25.1036  -17.3173  -17.1600 O   0  0  0  0  0  0  0  0  0  0  0  0
   19.8389  -17.5014  -18.3760 O   0  0  0  0  0  0  0  0  0  0  0  0
  2  3  2  0
  2  1  1  0
  4  2  1  0
  5  4  1  0
  6  5  1  0
  7  8  1  0
  7  6  1  0
  8  9  1  1
 10 11  2  0
 10  8  1  0
 12 10  1  0
 13 12  1  0
 13 21  1  0
 13 14  1  1
 15 14  1  0
 16 15  2  0
 17 16  1  0
 18 17  2  0
 18 19  1  0
 19 20  2  0
 20 15  1  0
 21 23  1  0
 22 21  2  0
 23 24  1  0
 24 25  1  6
 24 29  1  0
 26 27  1  0
 26 25  1  0
 27 28  2  0
 29 32  2  0
 29 30  1  0
 31 27  1  0
M  END
$$$$
