RFE.pdb
     RDKit          3D

 32 32  0  0  1  0  0  0  0  0999 V2000
   25.8722  -23.4471  -21.9899 N   0  0  0  0  0  0  0  0  0  0  0  0
   24.9264  -22.4537  -21.5790 C   0  0  0  0  0  0  0  0  0  0  0  0
   23.8525  -22.2937  -22.2799 N   0  0  0  0  0  0  0  0  0  0  0  0
   25.1785  -21.6715  -20.4271 N   0  0  0  0  0  0  0  0  0  0  0  0
   26.2983  -21.9930  -19.5883 C   0  0  0  0  0  0  0  0  0  0  0  0
   26.0164  -23.2930  -18.8673 C   0  0  0  0  0  0  0  0  0  0  0  0
   25.1114  -23.0047  -17.6772 C   0  0  0  0  0  0  0  0  0  0  0  0
   25.9949  -22.8815  -16.4789 C   0  0  2  0  0  0  0  0  0  0  0  0
   26.8271  -24.0480  -16.2692 N   0  0  0  0  0  0  0  0  0  0  0  0
   25.2425  -22.5483  -15.2288 C   0  0  0  0  0  0  0  0  0  0  0  0
   24.4436  -23.3976  -14.7690 O   0  0  0  0  0  0  0  0  0  0  0  0
   23.1309  -21.5948  -22.0117 N   0  0  0  0  0  0  0  0  0  0  0  0
   25.4099  -21.3073  -14.5581 C   0  0  2  0  0  0  0  0  0  0  0  0
   24.6621  -20.8441  -13.4342 C   0  0  0  0  0  0  0  0  0  0  0  0
   25.3662  -19.7783  -12.5907 C   0  0  0  0  0  0  0  0  0  0  0  0
   26.3055  -20.4220  -11.6684 C   0  0  0  0  0  0  0  0  0  0  0  0
   27.5580  -20.7607  -12.1618 C   0  0  0  0  0  0  0  0  0  0  0  0
   28.4751  -21.3829  -11.3438 C   0  0  0  0  0  0  0  0  0  0  0  0
   28.1696  -21.6753  -10.0413 C   0  0  0  0  0  0  0  0  0  0  0  0
   26.9376  -21.3430   -9.5543 C   0  0  0  0  0  0  0  0  0  0  0  0
   25.9965  -20.7102  -10.3768 C   0  0  0  0  0  0  0  0  0  0  0  0
   23.2639  -20.5387  -13.7177 O   0  0  0  0  0  0  0  0  0  0  0  0
   23.0196  -19.7596  -14.7014 N   0  0  0  0  0  0  0  0  0  0  0  0
   22.1515  -21.0217  -13.0088 C   0  0  1  0  0  0  0  0  0  0  0  0
   20.7572  -20.7111  -13.3384 C   0  0  0  0  0  0  0  0  0  0  0  0
   19.8932  -21.9118  -13.2326 C   0  0  0  0  0  0  0  0  0  0  0  0
   18.4563  -21.5727  -13.5035 C   0  0  0  0  0  0  0  0  0  0  0  0
   17.5950  -22.8032  -13.4073 O   0  0  0  0  0  0  0  0  0  0  0  0
   18.1437  -23.8808  -13.1118 C   0  0  0  0  0  0  0  0  0  0  0  0
   20.3392  -19.5754  -12.4944 O   0  0  0  0  0  0  0  0  0  0  0  0
   21.0581  -19.3013  -11.3033 O   0  0  0  0  0  0  0  0  0  0  0  0
   16.2412  -22.6443  -13.6573 O   0  0  0  0  0  0  0  0  0  0  0  0
  2  3  2  0
  2  1  1  0
  4  2  1  0
  5  4  1  0
  6  5  1  0
  7  8  1  0
  7  6  1  0
  8  9  1  1
 10 11  2  0
 10  8  1  0
 12 10  1  0
 13 12  1  0
 13 21  1  0
 13 14  1  6
 15 14  1  0
 16 15  2  0
 17 16  1  0
 18 17  2  0
 18 19  1  0
 19 20  2  0
 20 15  1  0
 21 23  1  0
 22 21  2  0
 23 24  1  0
 24 25  1  1
 24 29  1  0
 26 27  1  0
 26 25  1  0
 27 28  2  0
 29 32  2  0
 29 30  1  0
 31 27  1  0
M  END
$$$$
