RFE.pdb
     RDKit          3D

 32 32  0  0  1  0  0  0  0  0999 V2000
   17.3410  -11.7388  -22.4072 N   0  0  0  0  0  0  0  0  0  0  0  0
   18.2748  -10.6702  -22.2169 C   0  0  0  0  0  0  0  0  0  0  0  0
   18.1638   -9.6128  -22.9514 N   0  0  0  0  0  0  0  0  0  0  0  0
   19.2924  -10.7864  -21.2406 N   0  0  0  0  0  0  0  0  0  0  0  0
   19.4924  -12.0438  -20.5775 C   0  0  0  0  0  0  0  0  0  0  0  0
   20.5924  -11.8893  -19.5501 C   0  0  0  0  0  0  0  0  0  0  0  0
   21.4302  -10.6703  -19.9116 C   0  0  0  0  0  0  0  0  0  0  0  0
   22.5488  -10.6030  -18.9238 C   0  0  2  0  0  0  0  0  0  0  0  0
   23.0254  -11.9100  -18.5213 N   0  0  0  0  0  0  0  0  0  0  0  0
   22.2181   -9.7771  -17.7203 C   0  0  0  0  0  0  0  0  0  0  0  0
   21.5162  -10.2916  -16.8182 O   0  0  0  0  0  0  0  0  0  0  0  0
   18.8177   -8.8111  -22.8474 N   0  0  0  0  0  0  0  0  0  0  0  0
   22.6749   -8.4397  -17.5770 C   0  0  1  0  0  0  0  0  0  0  0  0
   22.4359   -7.5774  -16.4651 C   0  0  0  0  0  0  0  0  0  0  0  0
   23.6988   -7.0604  -15.7716 C   0  0  0  0  0  0  0  0  0  0  0  0
   24.5263   -8.1930  -15.3480 C   0  0  0  0  0  0  0  0  0  0  0  0
   25.6699   -8.4632  -16.0871 C   0  0  0  0  0  0  0  0  0  0  0  0
   26.4762   -9.5260  -15.7441 C   0  0  0  0  0  0  0  0  0  0  0  0
   26.1663  -10.3271  -14.6775 C   0  0  0  0  0  0  0  0  0  0  0  0
   25.0414  -10.0628  -13.9494 C   0  0  0  0  0  0  0  0  0  0  0  0
   24.2134   -8.9848  -14.2888 C   0  0  0  0  0  0  0  0  0  0  0  0
   21.4312   -6.5458  -16.6999 O   0  0  0  0  0  0  0  0  0  0  0  0
   21.5088   -5.8871  -17.7929 N   0  0  0  0  0  0  0  0  0  0  0  0
   20.3790   -6.2036  -15.8347 C   0  0  1  0  0  0  0  0  0  0  0  0
   19.3959   -5.1485  -16.0984 C   0  0  0  0  0  0  0  0  0  0  0  0
   18.0635   -5.4972  -15.5485 C   0  0  0  0  0  0  0  0  0  0  0  0
   17.0733   -4.3939  -15.7830 C   0  0  0  0  0  0  0  0  0  0  0  0
   15.7335   -4.7521  -15.1983 O   0  0  0  0  0  0  0  0  0  0  0  0
   15.6316   -5.8299  -14.5839 C   0  0  0  0  0  0  0  0  0  0  0  0
   19.9558   -3.8786  -15.5975 O   0  0  0  0  0  0  0  0  0  0  0  0
   19.2623   -2.6697  -15.8587 O   0  0  0  0  0  0  0  0  0  0  0  0
   14.7018   -3.8466  -15.3889 O   0  0  0  0  0  0  0  0  0  0  0  0
  2  3  2  0
  2  1  1  0
  4  2  1  0
  5  4  1  0
  6  5  1  0
  7  8  1  0
  7  6  1  0
  8  9  1  1
 10 11  2  0
 10  8  1  0
 12 10  1  0
 13 12  1  0
 13 21  1  0
 13 14  1  1
 15 14  1  0
 16 15  2  0
 17 16  1  0
 18 17  2  0
 18 19  1  0
 19 20  2  0
 20 15  1  0
 21 23  1  0
 22 21  2  0
 23 24  1  0
 24 25  1  1
 24 29  1  0
 26 27  1  0
 26 25  1  0
 27 28  2  0
 29 32  2  0
 29 30  1  0
 31 27  1  0
M  END
$$$$
