RFE.pdb
     RDKit          3D

 32 32  0  0  1  0  0  0  0  0999 V2000
   30.7256  -20.6674  -19.4997 N   0  0  0  0  0  0  0  0  0  0  0  0
   30.4550  -19.9108  -20.6848 C   0  0  0  0  0  0  0  0  0  0  0  0
   31.2529  -20.0339  -21.6938 N   0  0  0  0  0  0  0  0  0  0  0  0
   29.3327  -19.0502  -20.7329 N   0  0  0  0  0  0  0  0  0  0  0  0
   28.2810  -19.2092  -19.7688 C   0  0  0  0  0  0  0  0  0  0  0  0
   27.4943  -20.4585  -20.0998 C   0  0  0  0  0  0  0  0  0  0  0  0
   26.6375  -20.8289  -18.8967 C   0  0  0  0  0  0  0  0  0  0  0  0
   27.5676  -21.3159  -17.8340 C   0  0  2  0  0  0  0  0  0  0  0  0
   28.3000  -22.5024  -18.2257 N   0  0  0  0  0  0  0  0  0  0  0  0
   26.8895  -21.5347  -16.5179 C   0  0  0  0  0  0  0  0  0  0  0  0
   26.1384  -22.5302  -16.3920 O   0  0  0  0  0  0  0  0  0  0  0  0
   31.1657  -19.4222  -22.5300 N   0  0  0  0  0  0  0  0  0  0  0  0
   27.0742  -20.6518  -15.4205 C   0  0  1  0  0  0  0  0  0  0  0  0
   26.4189  -20.7250  -14.1547 C   0  0  0  0  0  0  0  0  0  0  0  0
   27.1405  -19.9994  -13.0163 C   0  0  0  0  0  0  0  0  0  0  0  0
   26.4232  -20.2222  -11.7580 C   0  0  0  0  0  0  0  0  0  0  0  0
   26.8433  -21.2764  -10.9586 C   0  0  0  0  0  0  0  0  0  0  0  0
   26.1948  -21.5422   -9.7728 C   0  0  0  0  0  0  0  0  0  0  0  0
   25.1340  -20.7777   -9.3658 C   0  0  0  0  0  0  0  0  0  0  0  0
   24.7192  -19.7402  -10.1513 C   0  0  0  0  0  0  0  0  0  0  0  0
   25.3708  -19.4604  -11.3596 C   0  0  0  0  0  0  0  0  0  0  0  0
   24.9832  -20.4689  -14.1971 O   0  0  0  0  0  0  0  0  0  0  0  0
   24.5999  -19.3448  -14.6703 N   0  0  0  0  0  0  0  0  0  0  0  0
   23.9736  -21.3446  -13.7648 C   0  0  1  0  0  0  0  0  0  0  0  0
   22.5375  -21.0603  -13.8428 C   0  0  0  0  0  0  0  0  0  0  0  0
   21.7506  -22.2960  -14.0734 C   0  0  0  0  0  0  0  0  0  0  0  0
   20.6025  -22.3963  -13.1118 C   0  0  0  0  0  0  0  0  0  0  0  0
   19.3779  -22.9317  -13.8036 O   0  0  0  0  0  0  0  0  0  0  0  0
   19.5229  -23.8699  -14.6089 C   0  0  0  0  0  0  0  0  0  0  0  0
   22.1626  -20.3089  -12.6296 O   0  0  0  0  0  0  0  0  0  0  0  0
   21.2671  -19.2156  -12.7460 O   0  0  0  0  0  0  0  0  0  0  0  0
   18.1670  -22.3349  -13.4902 O   0  0  0  0  0  0  0  0  0  0  0  0
  2  3  2  0
  2  1  1  0
  4  2  1  0
  5  4  1  0
  6  5  1  0
  7  8  1  0
  7  6  1  0
  8  9  1  6
 10 11  2  0
 10  8  1  0
 12 10  1  0
 13 12  1  0
 13 21  1  0
 13 14  1  1
 15 14  1  0
 16 15  2  0
 17 16  1  0
 18 17  2  0
 18 19  1  0
 19 20  2  0
 20 15  1  0
 21 23  1  0
 22 21  2  0
 23 24  1  0
 24 25  1  1
 24 29  1  0
 26 27  1  0
 26 25  1  0
 27 28  2  0
 29 32  2  0
 29 30  1  0
 31 27  1  0
M  END
$$$$
