RFE.pdb
     RDKit          3D

 32 32  0  0  1  0  0  0  0  0999 V2000
   23.6569  -34.9368  -18.1748 N   0  0  0  0  0  0  0  0  0  0  0  0
   22.7135  -35.7165  -17.4318 C   0  0  0  0  0  0  0  0  0  0  0  0
   22.3168  -36.8434  -17.9246 N   0  0  0  0  0  0  0  0  0  0  0  0
   22.2352  -35.2477  -16.1852 N   0  0  0  0  0  0  0  0  0  0  0  0
   22.1808  -33.8346  -15.9377 C   0  0  0  0  0  0  0  0  0  0  0  0
   23.0830  -33.5044  -14.7688 C   0  0  0  0  0  0  0  0  0  0  0  0
   22.2162  -33.1671  -13.5633 C   0  0  0  0  0  0  0  0  0  0  0  0
   21.9090  -31.7073  -13.6434 C   0  0  2  0  0  0  0  0  0  0  0  0
   22.8875  -30.9663  -14.4120 N   0  0  0  0  0  0  0  0  0  0  0  0
   21.7158  -31.0752  -12.3006 C   0  0  0  0  0  0  0  0  0  0  0  0
   22.6589  -30.4080  -11.8141 O   0  0  0  0  0  0  0  0  0  0  0  0
   21.6112  -37.4293  -17.4348 N   0  0  0  0  0  0  0  0  0  0  0  0
   20.5038  -31.2113  -11.5724 C   0  0  1  0  0  0  0  0  0  0  0  0
   20.2170  -30.6492  -10.2922 C   0  0  0  0  0  0  0  0  0  0  0  0
   19.1898  -29.5144  -10.3057 C   0  0  0  0  0  0  0  0  0  0  0  0
   19.7419  -28.3594  -11.0186 C   0  0  0  0  0  0  0  0  0  0  0  0
   19.4212  -28.2220  -12.3622 C   0  0  0  0  0  0  0  0  0  0  0  0
   19.9258  -27.1642  -13.0859 C   0  0  0  0  0  0  0  0  0  0  0  0
   20.7451  -26.2381  -12.4975 C   0  0  0  0  0  0  0  0  0  0  0  0
   21.0619  -26.3718  -11.1757 C   0  0  0  0  0  0  0  0  0  0  0  0
   20.5550  -27.4437  -10.4294 C   0  0  0  0  0  0  0  0  0  0  0  0
   19.9958  -31.6284   -9.2334 O   0  0  0  0  0  0  0  0  0  0  0  0
   19.3267  -32.6762   -9.5316 N   0  0  0  0  0  0  0  0  0  0  0  0
   20.4503  -31.5306   -7.9080 C   0  0  1  0  0  0  0  0  0  0  0  0
   20.2730  -32.5703   -6.8897 C   0  0  0  0  0  0  0  0  0  0  0  0
   21.3139  -32.4832   -5.8369 C   0  0  0  0  0  0  0  0  0  0  0  0
   21.1797  -33.6029   -4.8464 C   0  0  0  0  0  0  0  0  0  0  0  0
   22.2182  -33.4793   -3.7641 O   0  0  0  0  0  0  0  0  0  0  0  0
   22.1940  -34.3041   -2.8320 C   0  0  0  0  0  0  0  0  0  0  0  0
   18.8864  -32.4802   -6.3937 O   0  0  0  0  0  0  0  0  0  0  0  0
   18.1955  -33.6727   -6.0598 O   0  0  0  0  0  0  0  0  0  0  0  0
   23.1338  -32.4462   -3.8861 O   0  0  0  0  0  0  0  0  0  0  0  0
  2  3  2  0
  2  1  1  0
  4  2  1  0
  5  4  1  0
  6  5  1  0
  7  8  1  0
  7  6  1  0
  8  9  1  1
 10 11  2  0
 10  8  1  0
 12 10  1  0
 13 12  1  0
 13 21  1  0
 13 14  1  1
 15 14  1  0
 16 15  2  0
 17 16  1  0
 18 17  2  0
 18 19  1  0
 19 20  2  0
 20 15  1  0
 21 23  1  0
 22 21  2  0
 23 24  1  0
 24 25  1  1
 24 29  1  0
 26 27  1  0
 26 25  1  0
 27 28  2  0
 29 32  2  0
 29 30  1  0
 31 27  1  0
M  END
$$$$
