RFE.pdb
     RDKit          3D

 32 32  0  0  1  0  0  0  0  0999 V2000
   31.6512  -25.0981  -15.7401 N   0  0  0  0  0  0  0  0  0  0  0  0
   30.7633  -25.1134  -16.8632 C   0  0  0  0  0  0  0  0  0  0  0  0
   30.5222  -26.2409  -17.4467 N   0  0  0  0  0  0  0  0  0  0  0  0
   30.1709  -23.9093  -17.3122 N   0  0  0  0  0  0  0  0  0  0  0  0
   30.5375  -22.6687  -16.6897 C   0  0  0  0  0  0  0  0  0  0  0  0
   29.5474  -22.3588  -15.5885 C   0  0  0  0  0  0  0  0  0  0  0  0
   28.5191  -21.3699  -16.1207 C   0  0  0  0  0  0  0  0  0  0  0  0
   27.2198  -22.1012  -16.2135 C   0  0  2  0  0  0  0  0  0  0  0  0
   27.2504  -23.1862  -17.1723 N   0  0  0  0  0  0  0  0  0  0  0  0
   26.0581  -21.1983  -16.4872 C   0  0  0  0  0  0  0  0  0  0  0  0
   25.7878  -20.3039  -15.6517 O   0  0  0  0  0  0  0  0  0  0  0  0
   29.9025  -26.2972  -18.2797 N   0  0  0  0  0  0  0  0  0  0  0  0
   25.2633  -21.3287  -17.6573 C   0  0  2  0  0  0  0  0  0  0  0  0
   24.1669  -20.4961  -18.0339 C   0  0  0  0  0  0  0  0  0  0  0  0
   24.3552  -19.7467  -19.3553 C   0  0  0  0  0  0  0  0  0  0  0  0
   23.1689  -18.9323  -19.6325 C   0  0  0  0  0  0  0  0  0  0  0  0
   23.0780  -17.6975  -19.0048 C   0  0  0  0  0  0  0  0  0  0  0  0
   21.9770  -16.8972  -19.2159 C   0  0  0  0  0  0  0  0  0  0  0  0
   20.9622  -17.3025  -20.0414 C   0  0  0  0  0  0  0  0  0  0  0  0
   21.0500  -18.5172  -20.6596 C   0  0  0  0  0  0  0  0  0  0  0  0
   22.1648  -19.3400  -20.4524 C   0  0  0  0  0  0  0  0  0  0  0  0
   22.8545  -21.1179  -17.8937 O   0  0  0  0  0  0  0  0  0  0  0  0
   22.6831  -22.2601  -18.4416 N   0  0  0  0  0  0  0  0  0  0  0  0
   21.7525  -20.5786  -17.2098 C   0  0  1  0  0  0  0  0  0  0  0  0
   20.4647  -21.2588  -17.0417 C   0  0  0  0  0  0  0  0  0  0  0  0
   19.7130  -20.7208  -15.8821 C   0  0  0  0  0  0  0  0  0  0  0  0
   18.3674  -21.3737  -15.7566 C   0  0  0  0  0  0  0  0  0  0  0  0
   17.6559  -20.8869  -14.5230 O   0  0  0  0  0  0  0  0  0  0  0  0
   18.3361  -20.6593  -13.5056 C   0  0  0  0  0  0  0  0  0  0  0  0
   19.7471  -21.1845  -18.3288 O   0  0  0  0  0  0  0  0  0  0  0  0
   19.5824  -19.9223  -18.9536 O   0  0  0  0  0  0  0  0  0  0  0  0
   16.2821  -20.7263  -14.6114 O   0  0  0  0  0  0  0  0  0  0  0  0
  2  3  2  0
  2  1  1  0
  4  2  1  0
  5  4  1  0
  6  5  1  0
  7  8  1  0
  7  6  1  0
  8  9  1  6
 10 11  2  0
 10  8  1  0
 12 10  1  0
 13 12  1  0
 13 21  1  0
 13 14  1  6
 15 14  1  0
 16 15  2  0
 17 16  1  0
 18 17  2  0
 18 19  1  0
 19 20  2  0
 20 15  1  0
 21 23  1  0
 22 21  2  0
 23 24  1  0
 24 25  1  6
 24 29  1  0
 26 27  1  0
 26 25  1  0
 27 28  2  0
 29 32  2  0
 29 30  1  0
 31 27  1  0
M  END
$$$$
