RFE.pdb
     RDKit          3D

 32 32  0  0  1  0  0  0  0  0999 V2000
   29.0212  -25.7313  -17.9305 N   0  0  0  0  0  0  0  0  0  0  0  0
   27.9026  -26.6120  -17.7783 C   0  0  0  0  0  0  0  0  0  0  0  0
   28.1218  -27.8366  -17.4286 N   0  0  0  0  0  0  0  0  0  0  0  0
   26.5908  -26.1350  -18.0105 N   0  0  0  0  0  0  0  0  0  0  0  0
   26.3815  -24.7341  -18.2440 C   0  0  0  0  0  0  0  0  0  0  0  0
   27.2153  -23.9411  -17.2615 C   0  0  0  0  0  0  0  0  0  0  0  0
   26.6556  -24.1555  -15.8617 C   0  0  0  0  0  0  0  0  0  0  0  0
   25.8121  -22.9644  -15.5436 C   0  0  2  0  0  0  0  0  0  0  0  0
   26.2880  -21.7511  -16.1752 N   0  0  0  0  0  0  0  0  0  0  0  0
   25.6337  -22.7493  -14.0733 C   0  0  0  0  0  0  0  0  0  0  0  0
   25.2164  -23.7043  -13.3770 O   0  0  0  0  0  0  0  0  0  0  0  0
   27.3451  -28.5231  -17.3475 N   0  0  0  0  0  0  0  0  0  0  0  0
   25.9224  -21.5036  -13.4547 C   0  0  1  0  0  0  0  0  0  0  0  0
   25.7171  -21.1717  -12.0819 C   0  0  0  0  0  0  0  0  0  0  0  0
   26.6776  -20.1171  -11.5266 C   0  0  0  0  0  0  0  0  0  0  0  0
   26.4977  -20.0023  -10.0769 C   0  0  0  0  0  0  0  0  0  0  0  0
   27.2354  -20.8573   -9.2696 C   0  0  0  0  0  0  0  0  0  0  0  0
   27.0939  -20.8046   -7.9005 C   0  0  0  0  0  0  0  0  0  0  0  0
   26.2306  -19.9157   -7.3174 C   0  0  0  0  0  0  0  0  0  0  0  0
   25.5038  -19.0739   -8.1103 C   0  0  0  0  0  0  0  0  0  0  0  0
   25.6391  -19.1184   -9.5040 C   0  0  0  0  0  0  0  0  0  0  0  0
   24.3235  -20.9493  -11.7114 O   0  0  0  0  0  0  0  0  0  0  0  0
   23.5772  -20.3524  -12.5606 N   0  0  0  0  0  0  0  0  0  0  0  0
   23.7179  -21.3304  -10.5027 C   0  0  1  0  0  0  0  0  0  0  0  0
   22.2758  -21.2803  -10.2438 C   0  0  0  0  0  0  0  0  0  0  0  0
   21.9400  -21.8662   -8.9234 C   0  0  0  0  0  0  0  0  0  0  0  0
   20.4588  -21.8461   -8.6810 C   0  0  0  0  0  0  0  0  0  0  0  0
   20.0873  -22.8179   -7.5936 O   0  0  0  0  0  0  0  0  0  0  0  0
   21.0055  -23.4203   -7.0073 C   0  0  0  0  0  0  0  0  0  0  0  0
   21.8354  -19.8842  -10.4280 O   0  0  0  0  0  0  0  0  0  0  0  0
   20.5266  -19.6332  -10.9126 O   0  0  0  0  0  0  0  0  0  0  0  0
   18.7370  -22.9722   -7.3224 O   0  0  0  0  0  0  0  0  0  0  0  0
  2  3  2  0
  2  1  1  0
  4  2  1  0
  5  4  1  0
  6  5  1  0
  7  8  1  0
  7  6  1  0
  8  9  1  1
 10 11  2  0
 10  8  1  0
 12 10  1  0
 13 12  1  0
 13 21  1  0
 13 14  1  1
 15 14  1  0
 16 15  2  0
 17 16  1  0
 18 17  2  0
 18 19  1  0
 19 20  2  0
 20 15  1  0
 21 23  1  0
 22 21  2  0
 23 24  1  0
 24 25  1  1
 24 29  1  0
 26 27  1  0
 26 25  1  0
 27 28  2  0
 29 32  2  0
 29 30  1  0
 31 27  1  0
M  END
$$$$
