MGC.pdb
     RDKit          3D

 19 18  0  0  1  0  0  0  0  0999 V2000
   28.0844  -19.1276   -5.7615 C   0  0  0  0  0  0  0  0  0  0  0  0
   26.7782  -19.0857   -7.0265 S   0  0  0  0  0  0  0  0  0  0  0  0
   27.1144  -20.4268   -8.1933 C   0  0  0  0  0  0  0  0  0  0  0  0
   26.1183  -20.3269   -9.3404 C   0  0  0  0  0  0  0  0  0  0  0  0
   26.3769  -21.5017  -10.2937 C   0  0  2  0  0  0  0  0  0  0  0  0
   27.7677  -21.5819  -10.6193 N   0  0  0  0  0  0  0  0  0  0  0  0
   25.6130  -21.2071  -11.5243 C   0  0  0  0  0  0  0  0  0  0  0  0
   24.3647  -21.1195  -11.4575 O   0  0  0  0  0  0  0  0  0  0  0  0
   26.2469  -21.0236  -12.7612 N   0  0  0  0  0  0  0  0  0  0  0  0
   25.4593  -20.9522  -13.9557 C   0  0  0  0  0  0  0  0  0  0  0  0
   24.9460  -19.5867  -14.1257 C   0  0  0  0  0  0  0  0  0  0  0  0
   24.1122  -19.1321  -13.3173 O   0  0  0  0  0  0  0  0  0  0  0  0
   25.3890  -18.7693  -15.2063 N   0  0  0  0  0  0  0  0  0  0  0  0
   24.7937  -17.4733  -15.3658 C   0  0  1  0  0  0  0  0  0  0  0  0
   25.8116  -16.5570  -16.0283 C   0  0  0  0  0  0  0  0  0  0  0  0
   27.2091  -16.3541  -14.8911 S   0  0  0  0  0  0  0  0  0  0  0  0
   23.5542  -17.5746  -16.1386 C   0  0  0  0  0  0  0  0  0  0  0  0
   22.4976  -16.6826  -16.0021 O   0  0  0  0  0  0  0  0  0  0  0  0
   23.4155  -18.4987  -16.9668 O   0  0  0  0  0  0  0  0  0  0  0  0
  2  1  1  0
  3  2  1  0
  4  3  1  0
  5  4  1  0
  5  6  1  6
  7  5  1  0
  7  8  2  0
  9  7  1  0
 10  9  1  0
 10 11  1  0
 11 13  1  0
 11 12  2  0
 13 14  1  0
 14 15  1  6
 15 16  1  0
 17 14  1  0
 17 18  1  0
 19 17  2  0
M  END
$$$$
