MGC.pdb
     RDKit          3D

 19 18  0  0  1  0  0  0  0  0999 V2000
   14.5865  -13.3228  -20.0179 C   0  0  0  0  0  0  0  0  0  0  0  0
   14.9153  -13.7113  -18.2717 S   0  0  0  0  0  0  0  0  0  0  0  0
   16.7096  -13.6837  -18.0418 C   0  0  0  0  0  0  0  0  0  0  0  0
   17.2245  -12.3084  -18.4434 C   0  0  0  0  0  0  0  0  0  0  0  0
   18.7333  -12.2693  -18.1644 C   0  0  2  0  0  0  0  0  0  0  0  0
   19.0005  -12.6633  -16.8152 N   0  0  0  0  0  0  0  0  0  0  0  0
   19.1471  -10.8617  -18.3433 C   0  0  0  0  0  0  0  0  0  0  0  0
   19.0393  -10.3365  -19.4760 O   0  0  0  0  0  0  0  0  0  0  0  0
   19.6558  -10.1006  -17.2815 N   0  0  0  0  0  0  0  0  0  0  0  0
   19.9045   -8.7023  -17.4693 C   0  0  0  0  0  0  0  0  0  0  0  0
   20.2223   -8.0811  -16.1770 C   0  0  0  0  0  0  0  0  0  0  0  0
   19.9728   -8.6903  -15.1177 O   0  0  0  0  0  0  0  0  0  0  0  0
   20.8144   -6.7860  -16.1153 N   0  0  0  0  0  0  0  0  0  0  0  0
   21.1185   -6.2392  -14.8237 C   0  0  1  0  0  0  0  0  0  0  0  0
   22.1754   -5.1587  -14.9978 C   0  0  0  0  0  0  0  0  0  0  0  0
   22.5792   -4.4981  -13.3584 S   0  0  0  0  0  0  0  0  0  0  0  0
   19.9024   -5.7273  -14.1890 C   0  0  0  0  0  0  0  0  0  0  0  0
   19.5752   -5.9746  -12.8614 O   0  0  0  0  0  0  0  0  0  0  0  0
   19.1045   -5.0321  -14.8518 O   0  0  0  0  0  0  0  0  0  0  0  0
  2  1  1  0
  3  2  1  0
  4  3  1  0
  5  4  1  0
  5  6  1  1
  7  5  1  0
  7  8  2  0
  9  7  1  0
 10  9  1  0
 10 11  1  0
 11 13  1  0
 11 12  2  0
 13 14  1  0
 14 15  1  6
 15 16  1  0
 17 14  1  0
 17 18  1  0
 19 17  2  0
M  END
$$$$
