MGC.pdb
     RDKit          3D

 19 18  0  0  1  0  0  0  0  0999 V2000
   25.5554  -15.7859  -14.5953 C   0  0  0  0  0  0  0  0  0  0  0  0
   27.0661  -16.0906  -15.5612 S   0  0  0  0  0  0  0  0  0  0  0  0
   27.1215  -17.8605  -15.9315 C   0  0  0  0  0  0  0  0  0  0  0  0
   26.1763  -18.5805  -14.9797 C   0  0  0  0  0  0  0  0  0  0  0  0
   27.0061  -19.1129  -13.8032 C   0  0  2  0  0  0  0  0  0  0  0  0
   28.0848  -19.9224  -14.2808 N   0  0  0  0  0  0  0  0  0  0  0  0
   26.0917  -19.9559  -13.0046 C   0  0  0  0  0  0  0  0  0  0  0  0
   25.0035  -19.4713  -12.6156 O   0  0  0  0  0  0  0  0  0  0  0  0
   26.4092  -21.2803  -12.6718 N   0  0  0  0  0  0  0  0  0  0  0  0
   25.5683  -22.0023  -11.7641 C   0  0  0  0  0  0  0  0  0  0  0  0
   25.7843  -21.5111  -10.3969 C   0  0  0  0  0  0  0  0  0  0  0  0
   24.8096  -21.3401   -9.6379 O   0  0  0  0  0  0  0  0  0  0  0  0
   27.0978  -21.2257   -9.9225 N   0  0  0  0  0  0  0  0  0  0  0  0
   27.2598  -20.8793   -8.5393 C   0  0  1  0  0  0  0  0  0  0  0  0
   28.7290  -20.5715   -8.2916 C   0  0  0  0  0  0  0  0  0  0  0  0
   28.9234  -20.1264   -6.5448 S   0  0  0  0  0  0  0  0  0  0  0  0
   26.3917  -19.7526   -8.1921 C   0  0  0  0  0  0  0  0  0  0  0  0
   25.8745  -19.5553   -6.9176 O   0  0  0  0  0  0  0  0  0  0  0  0
   26.0868  -18.9145   -9.0660 O   0  0  0  0  0  0  0  0  0  0  0  0
  2  1  1  0
  3  2  1  0
  4  3  1  0
  5  4  1  0
  5  6  1  6
  7  5  1  0
  7  8  2  0
  9  7  1  0
 10  9  1  0
 10 11  1  0
 11 13  1  0
 11 12  2  0
 13 14  1  0
 14 15  1  6
 15 16  1  0
 17 14  1  0
 17 18  1  0
 19 17  2  0
M  END
$$$$
