MGC.pdb
     RDKit          3D

 19 18  0  0  1  0  0  0  0  0999 V2000
   19.6628  -18.3492  -14.2497 C   0  0  0  0  0  0  0  0  0  0  0  0
   21.3517  -18.8226  -13.7683 S   0  0  0  0  0  0  0  0  0  0  0  0
   22.4294  -18.4872  -15.1821 C   0  0  0  0  0  0  0  0  0  0  0  0
   23.8642  -18.7947  -14.7764 C   0  0  0  0  0  0  0  0  0  0  0  0
   24.0388  -20.3196  -14.7783 C   0  0  2  0  0  0  0  0  0  0  0  0
   23.3117  -20.9054  -13.6943 N   0  0  0  0  0  0  0  0  0  0  0  0
   25.4819  -20.5674  -14.5766 C   0  0  0  0  0  0  0  0  0  0  0  0
   26.2962  -20.1374  -15.4265 O   0  0  0  0  0  0  0  0  0  0  0  0
   25.9622  -21.2693  -13.4621 N   0  0  0  0  0  0  0  0  0  0  0  0
   27.3750  -21.3876  -13.2560 C   0  0  0  0  0  0  0  0  0  0  0  0
   27.7159  -20.9211  -11.9057 C   0  0  0  0  0  0  0  0  0  0  0  0
   28.8083  -21.2411  -11.3961 O   0  0  0  0  0  0  0  0  0  0  0  0
   26.8123  -20.1041  -11.1656 N   0  0  0  0  0  0  0  0  0  0  0  0
   26.6170  -20.3960   -9.7741 C   0  0  1  0  0  0  0  0  0  0  0  0
   26.7008  -19.0920   -8.9949 C   0  0  0  0  0  0  0  0  0  0  0  0
   26.5396  -19.4798   -7.2311 S   0  0  0  0  0  0  0  0  0  0  0  0
   25.3384  -21.0804   -9.5726 C   0  0  0  0  0  0  0  0  0  0  0  0
   25.1489  -22.0730   -8.6189 O   0  0  0  0  0  0  0  0  0  0  0  0
   24.3554  -20.7752  -10.2795 O   0  0  0  0  0  0  0  0  0  0  0  0
  2  1  1  0
  3  2  1  0
  4  3  1  0
  5  4  1  0
  5  6  1  1
  7  5  1  0
  7  8  2  0
  9  7  1  0
 10  9  1  0
 10 11  1  0
 11 13  1  0
 11 12  2  0
 13 14  1  0
 14 15  1  1
 15 16  1  0
 17 14  1  0
 17 18  1  0
 19 17  2  0
M  END
$$$$
