MGC.pdb
     RDKit          3D

 19 18  0  0  1  0  0  0  0  0999 V2000
   11.7682  -12.2858  -14.3665 C   0  0  0  0  0  0  0  0  0  0  0  0
   13.3653  -11.4788  -14.0409 S   0  0  0  0  0  0  0  0  0  0  0  0
   14.5441  -12.1034  -15.2628 C   0  0  0  0  0  0  0  0  0  0  0  0
   15.9124  -11.5094  -14.9581 C   0  0  0  0  0  0  0  0  0  0  0  0
   16.9116  -12.0800  -15.9740 C   0  0  2  0  0  0  0  0  0  0  0  0
   17.4828  -13.2958  -15.4815 N   0  0  0  0  0  0  0  0  0  0  0  0
   17.9810  -11.0688  -16.1098 C   0  0  0  0  0  0  0  0  0  0  0  0
   19.1689  -11.4100  -15.9025 O   0  0  0  0  0  0  0  0  0  0  0  0
   17.7018   -9.7413  -16.4635 N   0  0  0  0  0  0  0  0  0  0  0  0
   18.7818   -8.8266  -16.6858 C   0  0  0  0  0  0  0  0  0  0  0  0
   18.9425   -7.9602  -15.5109 C   0  0  0  0  0  0  0  0  0  0  0  0
   18.0303   -7.8887  -14.6633 O   0  0  0  0  0  0  0  0  0  0  0  0
   20.1312   -7.1961  -15.3241 N   0  0  0  0  0  0  0  0  0  0  0  0
   20.2140   -6.3386  -14.1763 C   0  0  1  0  0  0  0  0  0  0  0  0
   21.6832   -6.1157  -13.8500 C   0  0  0  0  0  0  0  0  0  0  0  0
   22.4183   -7.7220  -13.4422 S   0  0  0  0  0  0  0  0  0  0  0  0
   19.5057   -5.0821  -14.4280 C   0  0  0  0  0  0  0  0  0  0  0  0
   19.0517   -4.2483  -13.4134 O   0  0  0  0  0  0  0  0  0  0  0  0
   19.2868   -4.7202  -15.6028 O   0  0  0  0  0  0  0  0  0  0  0  0
  2  1  1  0
  3  2  1  0
  4  3  1  0
  5  4  1  0
  5  6  1  1
  7  5  1  0
  7  8  2  0
  9  7  1  0
 10  9  1  0
 10 11  1  0
 11 13  1  0
 11 12  2  0
 13 14  1  0
 14 15  1  6
 15 16  1  0
 17 14  1  0
 17 18  1  0
 19 17  2  0
M  END
$$$$
