MGC.pdb
     RDKit          3D

 19 18  0  0  1  0  0  0  0  0999 V2000
   20.8281  -20.3494  -18.1622 C   0  0  0  0  0  0  0  0  0  0  0  0
   21.9400  -19.1125  -18.8983 S   0  0  0  0  0  0  0  0  0  0  0  0
   23.2445  -18.7740  -17.6914 C   0  0  0  0  0  0  0  0  0  0  0  0
   22.8552  -19.4202  -16.3690 C   0  0  0  0  0  0  0  0  0  0  0  0
   23.9240  -19.0515  -15.3308 C   0  0  2  0  0  0  0  0  0  0  0  0
   25.2252  -19.4064  -15.8082 N   0  0  0  0  0  0  0  0  0  0  0  0
   23.6203  -19.8535  -14.1270 C   0  0  0  0  0  0  0  0  0  0  0  0
   22.6582  -20.6559  -14.1590 O   0  0  0  0  0  0  0  0  0  0  0  0
   24.3785  -19.7402  -12.9532 N   0  0  0  0  0  0  0  0  0  0  0  0
   24.1056  -20.6104  -11.8484 C   0  0  0  0  0  0  0  0  0  0  0  0
   25.3644  -20.9700  -11.1827 C   0  0  0  0  0  0  0  0  0  0  0  0
   25.7829  -22.1435  -11.2390 O   0  0  0  0  0  0  0  0  0  0  0  0
   26.1185  -19.9927  -10.4699 N   0  0  0  0  0  0  0  0  0  0  0  0
   26.5029  -20.2848   -9.1184 C   0  0  1  0  0  0  0  0  0  0  0  0
   27.0999  -19.0257   -8.5076 C   0  0  0  0  0  0  0  0  0  0  0  0
   27.7011  -19.4370   -6.8473 S   0  0  0  0  0  0  0  0  0  0  0  0
   25.3531  -20.7778   -8.3578 C   0  0  0  0  0  0  0  0  0  0  0  0
   25.4525  -21.7591   -7.3791 O   0  0  0  0  0  0  0  0  0  0  0  0
   24.2173  -20.3095   -8.5808 O   0  0  0  0  0  0  0  0  0  0  0  0
  2  1  1  0
  3  2  1  0
  4  3  1  0
  5  4  1  0
  5  6  1  6
  7  5  1  0
  7  8  2  0
  9  7  1  0
 10  9  1  0
 10 11  1  0
 11 13  1  0
 11 12  2  0
 13 14  1  0
 14 15  1  1
 15 16  1  0
 17 14  1  0
 17 18  1  0
 19 17  2  0
M  END
$$$$
