MGC.pdb
     RDKit          3D

 19 18  0  0  1  0  0  0  0  0999 V2000
   27.5579  -15.9271  -14.9805 C   0  0  0  0  0  0  0  0  0  0  0  0
   26.6443  -14.5889  -15.8069 S   0  0  0  0  0  0  0  0  0  0  0  0
   25.2062  -15.3351  -16.6119 C   0  0  0  0  0  0  0  0  0  0  0  0
   24.4270  -14.2352  -17.3196 C   0  0  0  0  0  0  0  0  0  0  0  0
   23.9570  -13.2315  -16.2575 C   0  0  2  0  0  0  0  0  0  0  0  0
   23.0649  -13.8640  -15.3350 N   0  0  0  0  0  0  0  0  0  0  0  0
   23.2229  -12.1762  -16.9869 C   0  0  0  0  0  0  0  0  0  0  0  0
   23.8305  -11.4990  -17.8486 O   0  0  0  0  0  0  0  0  0  0  0  0
   21.8679  -11.9138  -16.7405 N   0  0  0  0  0  0  0  0  0  0  0  0
   21.2435  -10.7814  -17.3570 C   0  0  0  0  0  0  0  0  0  0  0  0
   20.4144  -10.0784  -16.3694 C   0  0  0  0  0  0  0  0  0  0  0  0
   19.2803  -10.5146  -16.0884 O   0  0  0  0  0  0  0  0  0  0  0  0
   20.8892   -8.8993  -15.7242 N   0  0  0  0  0  0  0  0  0  0  0  0
   20.0596   -8.2924  -14.7228 C   0  0  1  0  0  0  0  0  0  0  0  0
   19.9849   -9.2323  -13.5288 C   0  0  0  0  0  0  0  0  0  0  0  0
   19.0837   -8.3859  -12.2027 S   0  0  0  0  0  0  0  0  0  0  0  0
   20.5836   -6.9747  -14.3584 C   0  0  0  0  0  0  0  0  0  0  0  0
   19.7726   -5.9103  -13.9840 O   0  0  0  0  0  0  0  0  0  0  0  0
   21.8156   -6.7723  -14.3772 O   0  0  0  0  0  0  0  0  0  0  0  0
  2  1  1  0
  3  2  1  0
  4  3  1  0
  5  4  1  0
  5  6  1  1
  7  5  1  0
  7  8  2  0
  9  7  1  0
 10  9  1  0
 10 11  1  0
 11 13  1  0
 11 12  2  0
 13 14  1  0
 14 15  1  1
 15 16  1  0
 17 14  1  0
 17 18  1  0
 19 17  2  0
M  END
$$$$
