MGC.pdb
     RDKit          3D

 19 18  0  0  1  0  0  0  0  0999 V2000
   27.5673  -14.1862  -14.9594 C   0  0  0  0  0  0  0  0  0  0  0  0
   27.7235  -14.6737  -16.7048 S   0  0  0  0  0  0  0  0  0  0  0  0
   26.1088  -14.4228  -17.4812 C   0  0  0  0  0  0  0  0  0  0  0  0
   25.7581  -12.9439  -17.3940 C   0  0  0  0  0  0  0  0  0  0  0  0
   24.3538  -12.8269  -16.7856 C   0  0  2  0  0  0  0  0  0  0  0  0
   23.3760  -13.3591  -17.6842 N   0  0  0  0  0  0  0  0  0  0  0  0
   24.1035  -11.3812  -16.6068 C   0  0  0  0  0  0  0  0  0  0  0  0
   24.7482  -10.7572  -15.7320 O   0  0  0  0  0  0  0  0  0  0  0  0
   23.1659  -10.6915  -17.3884 N   0  0  0  0  0  0  0  0  0  0  0  0
   22.9179   -9.3036  -17.1345 C   0  0  0  0  0  0  0  0  0  0  0  0
   21.6843   -9.1597  -16.3505 C   0  0  0  0  0  0  0  0  0  0  0  0
   20.6818   -9.8427  -16.6402 O   0  0  0  0  0  0  0  0  0  0  0  0
   21.6157   -8.2465  -15.2582 N   0  0  0  0  0  0  0  0  0  0  0  0
   20.3637   -8.1016  -14.5718 C   0  0  1  0  0  0  0  0  0  0  0  0
   20.5439   -8.5840  -13.1402 C   0  0  0  0  0  0  0  0  0  0  0  0
   18.9649   -8.3753  -12.2739 S   0  0  0  0  0  0  0  0  0  0  0  0
   19.9071   -6.7119  -14.6347 C   0  0  0  0  0  0  0  0  0  0  0  0
   18.5673   -6.3547  -14.7256 O   0  0  0  0  0  0  0  0  0  0  0  0
   20.7427   -5.7845  -14.6069 O   0  0  0  0  0  0  0  0  0  0  0  0
  2  1  1  0
  3  2  1  0
  4  3  1  0
  5  4  1  0
  5  6  1  6
  7  5  1  0
  7  8  2  0
  9  7  1  0
 10  9  1  0
 10 11  1  0
 11 13  1  0
 11 12  2  0
 13 14  1  0
 14 15  1  1
 15 16  1  0
 17 14  1  0
 17 18  1  0
 19 17  2  0
M  END
$$$$
