MGC.pdb
     RDKit          3D

 19 18  0  0  1  0  0  0  0  0999 V2000
   29.5698  -20.7584   -5.8670 C   0  0  0  0  0  0  0  0  0  0  0  0
   28.7705  -19.1684   -5.4914 S   0  0  0  0  0  0  0  0  0  0  0  0
   27.1845  -19.1435   -6.3615 C   0  0  0  0  0  0  0  0  0  0  0  0
   27.3046  -20.0138   -7.6048 C   0  0  0  0  0  0  0  0  0  0  0  0
   25.9648  -19.9575   -8.3517 C   0  0  2  0  0  0  0  0  0  0  0  0
   24.9196  -20.5028   -7.5411 N   0  0  0  0  0  0  0  0  0  0  0  0
   26.1293  -20.8022   -9.5533 C   0  0  0  0  0  0  0  0  0  0  0  0
   25.9475  -22.0382   -9.4559 O   0  0  0  0  0  0  0  0  0  0  0  0
   26.4825  -20.2580  -10.7962 N   0  0  0  0  0  0  0  0  0  0  0  0
   26.3589  -21.0571  -11.9788 C   0  0  0  0  0  0  0  0  0  0  0  0
   25.2505  -20.5527  -12.7998 C   0  0  0  0  0  0  0  0  0  0  0  0
   24.8529  -19.3798  -12.6524 O   0  0  0  0  0  0  0  0  0  0  0  0
   24.6195  -21.3880  -13.7673 N   0  0  0  0  0  0  0  0  0  0  0  0
   23.5706  -20.8256  -14.5692 C   0  0  1  0  0  0  0  0  0  0  0  0
   23.5196  -21.5806  -15.8891 C   0  0  0  0  0  0  0  0  0  0  0  0
   23.2663  -23.3379  -15.5219 S   0  0  0  0  0  0  0  0  0  0  0  0
   22.2961  -20.8800  -13.8504 C   0  0  0  0  0  0  0  0  0  0  0  0
   21.1867  -20.1251  -14.2108 O   0  0  0  0  0  0  0  0  0  0  0  0
   22.1751  -21.6337  -12.8623 O   0  0  0  0  0  0  0  0  0  0  0  0
  2  1  1  0
  3  2  1  0
  4  3  1  0
  5  4  1  0
  5  6  1  1
  7  5  1  0
  7  8  2  0
  9  7  1  0
 10  9  1  0
 10 11  1  0
 11 13  1  0
 11 12  2  0
 13 14  1  0
 14 15  1  6
 15 16  1  0
 17 14  1  0
 17 18  1  0
 19 17  2  0
M  END
$$$$
