MGC.pdb
     RDKit          3D

 19 18  0  0  1  0  0  0  0  0999 V2000
   26.0834  -18.2408  -21.1001 C   0  0  0  0  0  0  0  0  0  0  0  0
   24.8481  -16.9075  -21.0344 S   0  0  0  0  0  0  0  0  0  0  0  0
   25.7416  -15.3386  -21.1481 C   0  0  0  0  0  0  0  0  0  0  0  0
   24.7292  -14.2032  -21.0852 C   0  0  0  0  0  0  0  0  0  0  0  0
   25.4997  -12.8785  -21.1713 C   0  0  2  0  0  0  0  0  0  0  0  0
   26.4849  -12.8073  -20.1363 N   0  0  0  0  0  0  0  0  0  0  0  0
   24.5020  -11.8091  -20.9574 C   0  0  0  0  0  0  0  0  0  0  0  0
   23.5560  -11.6901  -21.7705 O   0  0  0  0  0  0  0  0  0  0  0  0
   24.5863  -10.9266  -19.8712 N   0  0  0  0  0  0  0  0  0  0  0  0
   23.5195  -10.0022  -19.6268 C   0  0  0  0  0  0  0  0  0  0  0  0
   23.2623   -9.9183  -18.1833 C   0  0  0  0  0  0  0  0  0  0  0  0
   22.2109  -10.3952  -17.7116 O   0  0  0  0  0  0  0  0  0  0  0  0
   24.2013   -9.2968  -17.3092 N   0  0  0  0  0  0  0  0  0  0  0  0
   23.9279   -9.3078  -15.9004 C   0  0  1  0  0  0  0  0  0  0  0  0
   25.2518   -9.4007  -15.1565 C   0  0  0  0  0  0  0  0  0  0  0  0
   26.0683  -10.9416  -15.6524 S   0  0  0  0  0  0  0  0  0  0  0  0
   23.1620   -8.1188  -15.5216 C   0  0  0  0  0  0  0  0  0  0  0  0
   22.4163   -8.0349  -14.3522 O   0  0  0  0  0  0  0  0  0  0  0  0
   23.1629   -7.1185  -16.2691 O   0  0  0  0  0  0  0  0  0  0  0  0
  2  1  1  0
  3  2  1  0
  4  3  1  0
  5  4  1  0
  5  6  1  1
  7  5  1  0
  7  8  2  0
  9  7  1  0
 10  9  1  0
 10 11  1  0
 11 13  1  0
 11 12  2  0
 13 14  1  0
 14 15  1  1
 15 16  1  0
 17 14  1  0
 17 18  1  0
 19 17  2  0
M  END
$$$$
