MGC.pdb
     RDKit          3D

 19 18  0  0  1  0  0  0  0  0999 V2000
   23.8033  -19.0432  -16.8764 C   0  0  0  0  0  0  0  0  0  0  0  0
   25.5167  -18.9928  -17.4847 S   0  0  0  0  0  0  0  0  0  0  0  0
   26.4644  -20.2006  -16.5276 C   0  0  0  0  0  0  0  0  0  0  0  0
   26.1621  -19.9875  -15.0508 C   0  0  0  0  0  0  0  0  0  0  0  0
   26.8924  -21.0797  -14.2571 C   0  0  2  0  0  0  0  0  0  0  0  0
   26.3584  -22.3681  -14.5760 N   0  0  0  0  0  0  0  0  0  0  0  0
   26.6326  -20.7931  -12.8306 C   0  0  0  0  0  0  0  0  0  0  0  0
   27.0024  -19.6942  -12.3551 O   0  0  0  0  0  0  0  0  0  0  0  0
   25.9849  -21.7163  -11.9977 N   0  0  0  0  0  0  0  0  0  0  0  0
   25.6239  -21.3344  -10.6649 C   0  0  0  0  0  0  0  0  0  0  0  0
   24.1699  -21.1435  -10.5846 C   0  0  0  0  0  0  0  0  0  0  0  0
   23.6343  -20.9136   -9.4820 O   0  0  0  0  0  0  0  0  0  0  0  0
   23.3580  -21.2175  -11.7539 N   0  0  0  0  0  0  0  0  0  0  0  0
   22.0025  -20.7538  -11.6698 C   0  0  1  0  0  0  0  0  0  0  0  0
   22.0235  -19.2433  -11.4885 C   0  0  0  0  0  0  0  0  0  0  0  0
   20.5622  -18.7726  -10.5240 S   0  0  0  0  0  0  0  0  0  0  0  0
   21.2518  -21.1584  -12.8599 C   0  0  0  0  0  0  0  0  0  0  0  0
   19.9049  -21.4988  -12.8305 O   0  0  0  0  0  0  0  0  0  0  0  0
   21.8272  -21.2079  -13.9669 O   0  0  0  0  0  0  0  0  0  0  0  0
  2  1  1  0
  3  2  1  0
  4  3  1  0
  5  4  1  0
  5  6  1  6
  7  5  1  0
  7  8  2  0
  9  7  1  0
 10  9  1  0
 10 11  1  0
 11 13  1  0
 11 12  2  0
 13 14  1  0
 14 15  1  6
 15 16  1  0
 17 14  1  0
 17 18  1  0
 19 17  2  0
M  END
$$$$
