YEW.pdb
     RDKit          3D

 36 38  0  0  1  0  0  0  0  0999 V2000
    9.4841  -11.4125   19.6167 O   0  0  0  0  0  0  0  0  0  0  0  0
    8.7253  -12.5916   19.5961 C   0  0  0  0  0  0  0  0  0  0  0  0
    8.4399  -13.2052   18.3864 C   0  0  0  0  0  0  0  0  0  0  0  0
    7.6853  -14.3844   18.3221 C   0  0  0  0  0  0  0  0  0  0  0  0
    7.2373  -14.9123   19.5050 C   0  0  0  0  0  0  0  0  0  0  0  0
    6.4440  -16.1527   19.5349 C   0  0  0  0  0  0  0  0  0  0  0  0
    7.3625  -17.3595   19.3798 C   0  0  2  0  0  0  0  0  0  0  0  0
    6.5647  -18.5353   19.2661 N   0  0  0  0  0  0  0  0  0  0  0  0
    8.3880  -17.3680   20.4160 C   0  0  0  0  0  0  0  0  0  0  0  0
    8.0549  -17.7960   21.5612 O   0  0  0  0  0  0  0  0  0  0  0  0
    7.5206  -14.3013   20.7176 C   0  0  0  0  0  0  0  0  0  0  0  0
    8.2682  -13.1334   20.7723 C   0  0  0  0  0  0  0  0  0  0  0  0
    9.7351  -16.9462   20.2857 N   0  0  0  0  0  0  0  0  0  0  0  0
   10.7424  -17.2889   21.2549 C   0  0  1  0  0  0  0  0  0  0  0  0
   12.1317  -17.2322   20.7307 C   0  0  0  0  0  0  0  0  0  0  0  0
   12.2933  -17.7755   19.3314 C   0  0  0  0  0  0  0  0  0  0  0  0
   13.5399  -17.2117   18.7737 C   0  0  0  0  0  0  0  0  0  0  0  0
   14.5925  -17.2716   19.4397 O   0  0  0  0  0  0  0  0  0  0  0  0
   10.6580  -16.3049   22.3908 C   0  0  0  0  0  0  0  0  0  0  0  0
   10.5398  -15.0537   22.1530 O   0  0  0  0  0  0  0  0  0  0  0  0
   13.5448  -16.6273   17.5319 O   0  0  0  0  0  0  0  0  0  0  0  0
   10.6974  -16.6643   23.7468 N   0  0  0  0  0  0  0  0  0  0  0  0
    9.8282  -16.0469   24.7736 C   0  0  1  0  0  0  0  0  0  0  0  0
    8.4246  -16.0262   24.3062 C   0  0  0  0  0  0  0  0  0  0  0  0
    7.4937  -15.4880   25.3014 C   0  0  0  0  0  0  0  0  0  0  0  0
    6.4635  -16.1882   25.9333 C   0  0  0  0  0  0  0  0  0  0  0  0
    5.7867  -15.3950   26.7681 N   0  0  0  0  0  0  0  0  0  0  0  0
    6.3506  -14.1845   26.7004 C   0  0  0  0  0  0  0  0  0  0  0  0
    6.0456  -13.0159   27.3744 C   0  0  0  0  0  0  0  0  0  0  0  0
    6.7454  -11.8479   27.2050 C   0  0  0  0  0  0  0  0  0  0  0  0
    7.7982  -11.8921   26.3049 C   0  0  0  0  0  0  0  0  0  0  0  0
    8.1220  -13.0374   25.6221 C   0  0  0  0  0  0  0  0  0  0  0  0
    7.4074  -14.1988   25.8068 C   0  0  0  0  0  0  0  0  0  0  0  0
   10.0594  -16.6709   26.0698 C   0  0  0  0  0  0  0  0  0  0  0  0
   10.4069  -15.9162   27.2124 O   0  0  0  0  0  0  0  0  0  0  0  0
    9.9749  -17.9111   26.3001 O   0  0  0  0  0  0  0  0  0  0  0  0
  2  1  1  0
  3  2  2  0
  4  3  1  0
  5  4  2  0
  6  5  1  0
  7  8  1  1
  7  6  1  0
  9  7  1  0
 10  9  2  0
 11  5  1  0
 11 12  2  0
 12  2  1  0
 13  9  1  0
 14 13  1  0
 14 15  1  6
 15 16  1  0
 16 17  1  0
 17 18  2  0
 17 21  1  0
 19 20  2  0
 19 14  1  0
 22 19  1  0
 23 22  1  0
 23 24  1  6
 24 25  1  0
 25 26  2  0
 25 33  1  0
 26 27  1  0
 27 28  1  0
 28 29  2  0
 29 30  1  0
 31 30  2  0
 32 31  1  0
 33 32  2  0
 33 28  1  0
 34 35  1  0
 34 23  1  0
 36 34  2  0
M  END
$$$$
