YEW.pdb
     RDKit          3D

 36 38  0  0  1  0  0  0  0  0999 V2000
    7.6167  -12.1743   17.3106 O   0  0  0  0  0  0  0  0  0  0  0  0
    7.6694  -12.9236   18.4948 C   0  0  0  0  0  0  0  0  0  0  0  0
    8.8976  -13.2629   19.0405 C   0  0  0  0  0  0  0  0  0  0  0  0
    8.9939  -14.0103   20.2221 C   0  0  0  0  0  0  0  0  0  0  0  0
    7.8236  -14.3956   20.8224 C   0  0  0  0  0  0  0  0  0  0  0  0
    7.8277  -15.1765   22.0710 C   0  0  0  0  0  0  0  0  0  0  0  0
    8.2190  -16.6205   21.7782 C   0  0  2  0  0  0  0  0  0  0  0  0
    7.0627  -17.3337   21.3467 N   0  0  0  0  0  0  0  0  0  0  0  0
    8.9570  -17.1953   22.8964 C   0  0  0  0  0  0  0  0  0  0  0  0
    8.2887  -17.8085   23.7812 O   0  0  0  0  0  0  0  0  0  0  0  0
    6.5925  -14.0583   20.2795 C   0  0  0  0  0  0  0  0  0  0  0  0
    6.5060  -13.3183   19.1086 C   0  0  0  0  0  0  0  0  0  0  0  0
   10.3577  -17.1457   23.1089 N   0  0  0  0  0  0  0  0  0  0  0  0
   10.9739  -17.6971   24.2868 C   0  0  1  0  0  0  0  0  0  0  0  0
   12.4324  -17.9454   24.1478 C   0  0  0  0  0  0  0  0  0  0  0  0
   13.0632  -18.6379   25.3319 C   0  0  0  0  0  0  0  0  0  0  0  0
   14.4989  -18.8168   25.0329 C   0  0  0  0  0  0  0  0  0  0  0  0
   14.8530  -19.7032   24.2303 O   0  0  0  0  0  0  0  0  0  0  0  0
   10.7980  -16.7157   25.4145 C   0  0  0  0  0  0  0  0  0  0  0  0
   11.2129  -15.5119   25.2926 O   0  0  0  0  0  0  0  0  0  0  0  0
   15.4393  -18.0150   25.6298 O   0  0  0  0  0  0  0  0  0  0  0  0
   10.1876  -17.0268   26.6393 N   0  0  0  0  0  0  0  0  0  0  0  0
   10.4747  -16.2977   27.8951 C   0  0  1  0  0  0  0  0  0  0  0  0
    9.2202  -15.7696   28.4749 C   0  0  0  0  0  0  0  0  0  0  0  0
    8.2234  -15.4118   27.4625 C   0  0  0  0  0  0  0  0  0  0  0  0
    7.3549  -16.2903   26.8108 C   0  0  0  0  0  0  0  0  0  0  0  0
    6.5909  -15.6419   25.9276 N   0  0  0  0  0  0  0  0  0  0  0  0
    6.9374  -14.3517   25.9841 C   0  0  0  0  0  0  0  0  0  0  0  0
    6.4424  -13.2608   25.2929 C   0  0  0  0  0  0  0  0  0  0  0  0
    6.8981  -11.9810   25.4856 C   0  0  0  0  0  0  0  0  0  0  0  0
    7.9029  -11.8261   26.4274 C   0  0  0  0  0  0  0  0  0  0  0  0
    8.4129  -12.8909   27.1267 C   0  0  0  0  0  0  0  0  0  0  0  0
    7.9416  -14.1669   26.9185 C   0  0  0  0  0  0  0  0  0  0  0  0
   11.2890  -17.1206   28.7798 C   0  0  0  0  0  0  0  0  0  0  0  0
   11.5934  -18.4671   28.4797 O   0  0  0  0  0  0  0  0  0  0  0  0
   11.7923  -16.7286   29.8713 O   0  0  0  0  0  0  0  0  0  0  0  0
  2  1  1  0
  3  2  2  0
  4  3  1  0
  5  4  2  0
  6  5  1  0
  7  8  1  1
  7  6  1  0
  9  7  1  0
 10  9  2  0
 11  5  1  0
 11 12  2  0
 12  2  1  0
 13  9  1  0
 14 13  1  0
 14 15  1  6
 15 16  1  0
 16 17  1  0
 17 18  2  0
 17 21  1  0
 19 20  2  0
 19 14  1  0
 22 19  1  0
 23 22  1  0
 23 24  1  1
 24 25  1  0
 25 26  2  0
 25 33  1  0
 26 27  1  0
 27 28  1  0
 28 29  2  0
 29 30  1  0
 31 30  2  0
 32 31  1  0
 33 32  2  0
 33 28  1  0
 34 35  1  0
 34 23  1  0
 36 34  2  0
M  END
$$$$
