YEW.pdb
     RDKit          3D

 36 38  0  0  1  0  0  0  0  0999 V2000
    8.8389  -12.3619   18.9977 O   0  0  0  0  0  0  0  0  0  0  0  0
    8.2848  -13.0544   20.0839 C   0  0  0  0  0  0  0  0  0  0  0  0
    8.9255  -13.0330   21.3129 C   0  0  0  0  0  0  0  0  0  0  0  0
    8.4051  -13.7115   22.4233 C   0  0  0  0  0  0  0  0  0  0  0  0
    7.2333  -14.4007   22.2495 C   0  0  0  0  0  0  0  0  0  0  0  0
    6.6088  -15.1364   23.3620 C   0  0  0  0  0  0  0  0  0  0  0  0
    6.8241  -16.6345   23.1787 C   0  0  2  0  0  0  0  0  0  0  0  0
    5.7313  -17.3336   23.7693 N   0  0  0  0  0  0  0  0  0  0  0  0
    8.1584  -17.0247   23.6179 C   0  0  0  0  0  0  0  0  0  0  0  0
    8.2992  -17.3485   24.8348 O   0  0  0  0  0  0  0  0  0  0  0  0
    6.5891  -14.4249   21.0214 C   0  0  0  0  0  0  0  0  0  0  0  0
    7.1115  -13.7506   19.9267 C   0  0  0  0  0  0  0  0  0  0  0  0
    9.3329  -17.0843   22.8264 N   0  0  0  0  0  0  0  0  0  0  0  0
   10.5826  -17.5744   23.3456 C   0  0  1  0  0  0  0  0  0  0  0  0
   11.6991  -17.5449   22.3655 C   0  0  0  0  0  0  0  0  0  0  0  0
   12.9919  -18.1359   22.8742 C   0  0  0  0  0  0  0  0  0  0  0  0
   13.9341  -18.1962   21.7378 C   0  0  0  0  0  0  0  0  0  0  0  0
   14.3488  -19.3039   21.3424 O   0  0  0  0  0  0  0  0  0  0  0  0
   10.9873  -16.7014   24.5031 C   0  0  0  0  0  0  0  0  0  0  0  0
   11.4389  -15.5229   24.2952 O   0  0  0  0  0  0  0  0  0  0  0  0
   14.3510  -17.0452   21.1176 O   0  0  0  0  0  0  0  0  0  0  0  0
   10.9031  -17.0910   25.8486 N   0  0  0  0  0  0  0  0  0  0  0  0
   11.5557  -16.3468   26.9493 C   0  0  1  0  0  0  0  0  0  0  0  0
   11.0332  -14.9639   27.0080 C   0  0  0  0  0  0  0  0  0  0  0  0
    9.5722  -14.8957   26.9233 C   0  0  0  0  0  0  0  0  0  0  0  0
    8.6739  -15.8895   27.3187 C   0  0  0  0  0  0  0  0  0  0  0  0
    7.4130  -15.5173   27.0828 N   0  0  0  0  0  0  0  0  0  0  0  0
    7.4610  -14.2963   26.5399 C   0  0  0  0  0  0  0  0  0  0  0  0
    6.4402  -13.4582   26.1299 C   0  0  0  0  0  0  0  0  0  0  0  0
    6.6599  -12.2093   25.6058 C   0  0  0  0  0  0  0  0  0  0  0  0
    7.9844  -11.8151   25.5022 C   0  0  0  0  0  0  0  0  0  0  0  0
    9.0167  -12.6267   25.9003 C   0  0  0  0  0  0  0  0  0  0  0  0
    8.7747  -13.8761   26.4239 C   0  0  0  0  0  0  0  0  0  0  0  0
   11.4789  -17.1104   28.1878 C   0  0  0  0  0  0  0  0  0  0  0  0
   11.0241  -18.4476   28.2156 O   0  0  0  0  0  0  0  0  0  0  0  0
   11.8016  -16.6713   29.3286 O   0  0  0  0  0  0  0  0  0  0  0  0
  2  1  1  0
  3  2  2  0
  4  3  1  0
  5  4  2  0
  6  5  1  0
  7  8  1  1
  7  6  1  0
  9  7  1  0
 10  9  2  0
 11  5  1  0
 11 12  2  0
 12  2  1  0
 13  9  1  0
 14 13  1  0
 14 15  1  6
 15 16  1  0
 16 17  1  0
 17 18  2  0
 17 21  1  0
 19 20  2  0
 19 14  1  0
 22 19  1  0
 23 22  1  0
 23 24  1  1
 24 25  1  0
 25 26  2  0
 25 33  1  0
 26 27  1  0
 27 28  1  0
 28 29  2  0
 29 30  1  0
 31 30  2  0
 32 31  1  0
 33 32  2  0
 33 28  1  0
 34 35  1  0
 34 23  1  0
 36 34  2  0
M  END
$$$$
