YEW.pdb
     RDKit          3D

 36 38  0  0  1  0  0  0  0  0999 V2000
    9.5956  -12.1372   19.4975 O   0  0  0  0  0  0  0  0  0  0  0  0
    8.6308  -13.0898   19.8558 C   0  0  0  0  0  0  0  0  0  0  0  0
    8.5821  -13.5639   21.1574 C   0  0  0  0  0  0  0  0  0  0  0  0
    7.6338  -14.5156   21.5563 C   0  0  0  0  0  0  0  0  0  0  0  0
    6.7511  -14.9630   20.6081 C   0  0  0  0  0  0  0  0  0  0  0  0
    5.7154  -15.9566   20.9382 C   0  0  0  0  0  0  0  0  0  0  0  0
    6.2517  -17.3635   20.6994 C   0  0  2  0  0  0  0  0  0  0  0  0
    5.1564  -18.2751   20.6633 N   0  0  0  0  0  0  0  0  0  0  0  0
    7.3258  -17.6754   21.6345 C   0  0  0  0  0  0  0  0  0  0  0  0
    7.0360  -18.3983   22.6339 O   0  0  0  0  0  0  0  0  0  0  0  0
    6.7966  -14.4913   19.3045 C   0  0  0  0  0  0  0  0  0  0  0  0
    7.7393  -13.5491   18.9176 C   0  0  0  0  0  0  0  0  0  0  0  0
    8.6773  -17.2560   21.5509 N   0  0  0  0  0  0  0  0  0  0  0  0
    9.7115  -17.8366   22.3663 C   0  0  1  0  0  0  0  0  0  0  0  0
   10.9331  -18.2211   21.6126 C   0  0  0  0  0  0  0  0  0  0  0  0
   11.4351  -17.1652   20.6574 C   0  0  0  0  0  0  0  0  0  0  0  0
   12.6269  -17.7097   19.9747 C   0  0  0  0  0  0  0  0  0  0  0  0
   12.4940  -18.6441   19.1596 O   0  0  0  0  0  0  0  0  0  0  0  0
   10.1283  -16.8193   23.3945 C   0  0  0  0  0  0  0  0  0  0  0  0
   10.9620  -15.8983   23.0897 O   0  0  0  0  0  0  0  0  0  0  0  0
   13.8723  -17.1931   20.2307 O   0  0  0  0  0  0  0  0  0  0  0  0
    9.6544  -16.7967   24.7152 N   0  0  0  0  0  0  0  0  0  0  0  0
   10.4907  -16.3953   25.8687 C   0  0  1  0  0  0  0  0  0  0  0  0
   10.1077  -15.0422   26.3283 C   0  0  0  0  0  0  0  0  0  0  0  0
    8.7124  -14.7068   26.0330 C   0  0  0  0  0  0  0  0  0  0  0  0
    7.6853  -15.6120   25.7566 C   0  0  0  0  0  0  0  0  0  0  0  0
    6.5386  -14.9742   25.5067 N   0  0  0  0  0  0  0  0  0  0  0  0
    6.7884  -13.6649   25.6137 C   0  0  0  0  0  0  0  0  0  0  0  0
    5.9448  -12.5782   25.4719 C   0  0  0  0  0  0  0  0  0  0  0  0
    6.3588  -11.2806   25.6379 C   0  0  0  0  0  0  0  0  0  0  0  0
    7.6944  -11.1027   25.9618 C   0  0  0  0  0  0  0  0  0  0  0  0
    8.5535  -12.1627   26.1077 C   0  0  0  0  0  0  0  0  0  0  0  0
    8.1179  -13.4568   25.9371 C   0  0  0  0  0  0  0  0  0  0  0  0
   10.4818  -17.4400   26.8844 C   0  0  0  0  0  0  0  0  0  0  0  0
    9.6725  -18.5918   26.7662 O   0  0  0  0  0  0  0  0  0  0  0  0
   11.1749  -17.4258   27.9416 O   0  0  0  0  0  0  0  0  0  0  0  0
  2  1  1  0
  3  2  2  0
  4  3  1  0
  5  4  2  0
  6  5  1  0
  7  8  1  1
  7  6  1  0
  9  7  1  0
 10  9  2  0
 11  5  1  0
 11 12  2  0
 12  2  1  0
 13  9  1  0
 14 13  1  0
 14 15  1  6
 15 16  1  0
 16 17  1  0
 17 18  2  0
 17 21  1  0
 19 20  2  0
 19 14  1  0
 22 19  1  0
 23 22  1  0
 23 24  1  1
 24 25  1  0
 25 26  2  0
 25 33  1  0
 26 27  1  0
 27 28  1  0
 28 29  2  0
 29 30  1  0
 31 30  2  0
 32 31  1  0
 33 32  2  0
 33 28  1  0
 34 35  1  0
 34 23  1  0
 36 34  2  0
M  END
$$$$
