YEW.pdb
     RDKit          3D

 36 38  0  0  1  0  0  0  0  0999 V2000
    8.9200  -11.4825   19.3896 O   0  0  0  0  0  0  0  0  0  0  0  0
    8.3107  -12.5451   20.0725 C   0  0  0  0  0  0  0  0  0  0  0  0
    8.6300  -12.7832   21.4001 C   0  0  0  0  0  0  0  0  0  0  0  0
    8.0438  -13.8341   22.1184 C   0  0  0  0  0  0  0  0  0  0  0  0
    7.1381  -14.6223   21.4574 C   0  0  0  0  0  0  0  0  0  0  0  0
    6.4664  -15.7446   22.1342 C   0  0  0  0  0  0  0  0  0  0  0  0
    7.1597  -17.0548   21.7780 C   0  0  2  0  0  0  0  0  0  0  0  0
    6.1886  -18.0978   21.7484 N   0  0  0  0  0  0  0  0  0  0  0  0
    8.3232  -17.2744   22.6286 C   0  0  0  0  0  0  0  0  0  0  0  0
    8.1313  -17.8530   23.7394 O   0  0  0  0  0  0  0  0  0  0  0  0
    6.8159  -14.3876   20.1289 C   0  0  0  0  0  0  0  0  0  0  0  0
    7.4015  -13.3448   19.4247 C   0  0  0  0  0  0  0  0  0  0  0  0
    9.6642  -16.9094   22.3496 N   0  0  0  0  0  0  0  0  0  0  0  0
   10.7353  -17.1596   23.2778 C   0  0  1  0  0  0  0  0  0  0  0  0
   12.0684  -16.7091   22.8003 C   0  0  0  0  0  0  0  0  0  0  0  0
   13.2073  -17.0251   23.7398 C   0  0  0  0  0  0  0  0  0  0  0  0
   14.4570  -16.5687   23.0974 C   0  0  0  0  0  0  0  0  0  0  0  0
   15.1907  -15.7540   23.6917 O   0  0  0  0  0  0  0  0  0  0  0  0
   10.4435  -16.4075   24.5486 C   0  0  0  0  0  0  0  0  0  0  0  0
   10.1534  -15.1623   24.5090 O   0  0  0  0  0  0  0  0  0  0  0  0
   14.8130  -17.0363   21.8572 O   0  0  0  0  0  0  0  0  0  0  0  0
   10.4620  -16.9865   25.8267 N   0  0  0  0  0  0  0  0  0  0  0  0
   10.3078  -16.2028   27.0729 C   0  0  1  0  0  0  0  0  0  0  0  0
    8.9216  -16.3169   27.5773 C   0  0  0  0  0  0  0  0  0  0  0  0
    7.9621  -15.5168   26.8119 C   0  0  0  0  0  0  0  0  0  0  0  0
    6.8834  -16.0052   26.0711 C   0  0  0  0  0  0  0  0  0  0  0  0
    6.2221  -15.0100   25.4743 N   0  0  0  0  0  0  0  0  0  0  0  0
    6.8427  -13.8734   25.8073 C   0  0  0  0  0  0  0  0  0  0  0  0
    6.5517  -12.5634   25.4728 C   0  0  0  0  0  0  0  0  0  0  0  0
    7.2852  -11.4941   25.9212 C   0  0  0  0  0  0  0  0  0  0  0  0
    8.3589  -11.7927   26.7450 C   0  0  0  0  0  0  0  0  0  0  0  0
    8.6707  -13.0832   27.0921 C   0  0  0  0  0  0  0  0  0  0  0  0
    7.9217  -14.1417   26.6316 C   0  0  0  0  0  0  0  0  0  0  0  0
   11.3608  -16.5488   28.0186 C   0  0  0  0  0  0  0  0  0  0  0  0
   12.2888  -17.5821   27.7602 O   0  0  0  0  0  0  0  0  0  0  0  0
   11.5485  -15.9789   29.1313 O   0  0  0  0  0  0  0  0  0  0  0  0
  2  1  1  0
  3  2  2  0
  4  3  1  0
  5  4  2  0
  6  5  1  0
  7  8  1  1
  7  6  1  0
  9  7  1  0
 10  9  2  0
 11  5  1  0
 11 12  2  0
 12  2  1  0
 13  9  1  0
 14 13  1  0
 14 15  1  6
 15 16  1  0
 16 17  1  0
 17 18  2  0
 17 21  1  0
 19 20  2  0
 19 14  1  0
 22 19  1  0
 23 22  1  0
 23 24  1  1
 24 25  1  0
 25 26  2  0
 25 33  1  0
 26 27  1  0
 27 28  1  0
 28 29  2  0
 29 30  1  0
 31 30  2  0
 32 31  1  0
 33 32  2  0
 33 28  1  0
 34 35  1  0
 34 23  1  0
 36 34  2  0
M  END
$$$$
