YEW.pdb
     RDKit          3D

 36 38  0  0  1  0  0  0  0  0999 V2000
    7.4081  -11.9419   17.3055 O   0  0  0  0  0  0  0  0  0  0  0  0
    7.4736  -12.7445   18.4536 C   0  0  0  0  0  0  0  0  0  0  0  0
    8.4883  -12.5442   19.3764 C   0  0  0  0  0  0  0  0  0  0  0  0
    8.5894  -13.3242   20.5363 C   0  0  0  0  0  0  0  0  0  0  0  0
    7.6434  -14.2974   20.7269 C   0  0  0  0  0  0  0  0  0  0  0  0
    7.6657  -15.1598   21.9205 C   0  0  0  0  0  0  0  0  0  0  0  0
    8.3079  -16.4999   21.5800 C   0  0  2  0  0  0  0  0  0  0  0  0
    7.2884  -17.4115   21.1783 N   0  0  0  0  0  0  0  0  0  0  0  0
    9.1877  -16.9419   22.6552 C   0  0  0  0  0  0  0  0  0  0  0  0
    8.6790  -17.6632   23.5643 O   0  0  0  0  0  0  0  0  0  0  0  0
    6.6265  -14.5012   19.8059 C   0  0  0  0  0  0  0  0  0  0  0  0
    6.5339  -13.7246   18.6594 C   0  0  0  0  0  0  0  0  0  0  0  0
   10.5678  -16.6526   22.8007 N   0  0  0  0  0  0  0  0  0  0  0  0
   11.3503  -17.1785   23.8881 C   0  0  1  0  0  0  0  0  0  0  0  0
   12.8156  -16.9927   23.7253 C   0  0  0  0  0  0  0  0  0  0  0  0
   13.6465  -17.5735   24.8442 C   0  0  0  0  0  0  0  0  0  0  0  0
   15.0428  -17.6554   24.3686 C   0  0  0  0  0  0  0  0  0  0  0  0
   15.2855  -17.5272   23.1521 O   0  0  0  0  0  0  0  0  0  0  0  0
   10.9507  -16.4584   25.1481 C   0  0  0  0  0  0  0  0  0  0  0  0
   11.1098  -15.1930   25.2460 O   0  0  0  0  0  0  0  0  0  0  0  0
   16.0686  -17.8686   25.2551 O   0  0  0  0  0  0  0  0  0  0  0  0
   10.3917  -17.0889   26.2702 N   0  0  0  0  0  0  0  0  0  0  0  0
   10.2936  -16.4413   27.5977 C   0  0  1  0  0  0  0  0  0  0  0  0
    8.8929  -16.4659   28.0734 C   0  0  0  0  0  0  0  0  0  0  0  0
    7.9796  -15.7064   27.2157 C   0  0  0  0  0  0  0  0  0  0  0  0
    7.0051  -16.2397   26.3691 C   0  0  0  0  0  0  0  0  0  0  0  0
    6.3620  -15.2726   25.7093 N   0  0  0  0  0  0  0  0  0  0  0  0
    6.8925  -14.1105   26.1045 C   0  0  0  0  0  0  0  0  0  0  0  0
    6.5764  -12.8134   25.7435 C   0  0  0  0  0  0  0  0  0  0  0  0
    7.2106  -11.7141   26.2648 C   0  0  0  0  0  0  0  0  0  0  0  0
    8.2082  -11.9677   27.1927 C   0  0  0  0  0  0  0  0  0  0  0  0
    8.5428  -13.2444   27.5683 C   0  0  0  0  0  0  0  0  0  0  0  0
    7.8940  -14.3337   27.0334 C   0  0  0  0  0  0  0  0  0  0  0  0
   11.2852  -17.0026   28.5058 C   0  0  0  0  0  0  0  0  0  0  0  0
   11.5469  -16.4340   29.7723 O   0  0  0  0  0  0  0  0  0  0  0  0
   11.9907  -18.0234   28.2639 O   0  0  0  0  0  0  0  0  0  0  0  0
  2  1  1  0
  3  2  2  0
  4  3  1  0
  5  4  2  0
  6  5  1  0
  7  8  1  1
  7  6  1  0
  9  7  1  0
 10  9  2  0
 11  5  1  0
 11 12  2  0
 12  2  1  0
 13  9  1  0
 14 13  1  0
 14 15  1  6
 15 16  1  0
 16 17  1  0
 17 18  2  0
 17 21  1  0
 19 20  2  0
 19 14  1  0
 22 19  1  0
 23 22  1  0
 23 24  1  1
 24 25  1  0
 25 26  2  0
 25 33  1  0
 26 27  1  0
 27 28  1  0
 28 29  2  0
 29 30  1  0
 31 30  2  0
 32 31  1  0
 33 32  2  0
 33 28  1  0
 34 35  1  0
 34 23  1  0
 36 34  2  0
M  END
$$$$
