YEW.pdb
     RDKit          3D

 36 38  0  0  1  0  0  0  0  0999 V2000
    7.6680  -11.6513   16.9774 O   0  0  0  0  0  0  0  0  0  0  0  0
    7.7926  -12.4737   18.1063 C   0  0  0  0  0  0  0  0  0  0  0  0
    6.6725  -13.1034   18.6261 C   0  0  0  0  0  0  0  0  0  0  0  0
    6.7541  -13.9333   19.7525 C   0  0  0  0  0  0  0  0  0  0  0  0
    7.9881  -14.1011   20.3248 C   0  0  0  0  0  0  0  0  0  0  0  0
    8.1705  -14.9610   21.5064 C   0  0  0  0  0  0  0  0  0  0  0  0
    8.6576  -16.3395   21.0743 C   0  0  2  0  0  0  0  0  0  0  0  0
    7.6356  -16.9705   20.3067 N   0  0  0  0  0  0  0  0  0  0  0  0
    9.1706  -17.0896   22.2142 C   0  0  0  0  0  0  0  0  0  0  0  0
    8.3220  -17.6052   23.0014 O   0  0  0  0  0  0  0  0  0  0  0  0
    9.1114  -13.4727   19.8079 C   0  0  0  0  0  0  0  0  0  0  0  0
    9.0218  -12.6520   18.6923 C   0  0  0  0  0  0  0  0  0  0  0  0
   10.5308  -17.3113   22.5464 N   0  0  0  0  0  0  0  0  0  0  0  0
   10.9227  -18.0717   23.7038 C   0  0  1  0  0  0  0  0  0  0  0  0
   12.2018  -18.8098   23.5391 C   0  0  0  0  0  0  0  0  0  0  0  0
   13.0657  -18.3157   22.4037 C   0  0  0  0  0  0  0  0  0  0  0  0
   13.8733  -19.4571   21.9266 C   0  0  0  0  0  0  0  0  0  0  0  0
   13.7226  -19.8706   20.7597 O   0  0  0  0  0  0  0  0  0  0  0  0
   11.1072  -17.1185   24.8540 C   0  0  0  0  0  0  0  0  0  0  0  0
   11.7224  -16.0104   24.6812 O   0  0  0  0  0  0  0  0  0  0  0  0
   14.7852  -20.0597   22.7566 O   0  0  0  0  0  0  0  0  0  0  0  0
   10.6370  -17.3556   26.1548 N   0  0  0  0  0  0  0  0  0  0  0  0
   10.9579  -16.4796   27.3040 C   0  0  1  0  0  0  0  0  0  0  0  0
   10.3667  -15.1385   27.1019 C   0  0  0  0  0  0  0  0  0  0  0  0
    8.9018  -15.1517   27.0802 C   0  0  0  0  0  0  0  0  0  0  0  0
    8.0859  -16.2847   27.0431 C   0  0  0  0  0  0  0  0  0  0  0  0
    6.7947  -15.9445   27.0067 N   0  0  0  0  0  0  0  0  0  0  0  0
    6.7421  -14.6085   27.0200 C   0  0  0  0  0  0  0  0  0  0  0  0
    5.6535  -13.7555   27.0146 C   0  0  0  0  0  0  0  0  0  0  0  0
    5.7713  -12.3890   27.0533 C   0  0  0  0  0  0  0  0  0  0  0  0
    7.0628  -11.8886   27.0985 C   0  0  0  0  0  0  0  0  0  0  0  0
    8.1606  -12.7118   27.1039 C   0  0  0  0  0  0  0  0  0  0  0  0
    8.0206  -14.0802   27.0649 C   0  0  0  0  0  0  0  0  0  0  0  0
   10.6168  -17.1449   28.5545 C   0  0  0  0  0  0  0  0  0  0  0  0
   10.0271  -18.4284   28.5828 O   0  0  0  0  0  0  0  0  0  0  0  0
   10.8074  -16.6600   29.7064 O   0  0  0  0  0  0  0  0  0  0  0  0
  2  1  1  0
  3  2  2  0
  4  3  1  0
  5  4  2  0
  6  5  1  0
  7  8  1  1
  7  6  1  0
  9  7  1  0
 10  9  2  0
 11  5  1  0
 11 12  2  0
 12  2  1  0
 13  9  1  0
 14 13  1  0
 14 15  1  6
 15 16  1  0
 16 17  1  0
 17 18  2  0
 17 21  1  0
 19 20  2  0
 19 14  1  0
 22 19  1  0
 23 22  1  0
 23 24  1  6
 24 25  1  0
 25 26  2  0
 25 33  1  0
 26 27  1  0
 27 28  1  0
 28 29  2  0
 29 30  1  0
 31 30  2  0
 32 31  1  0
 33 32  2  0
 33 28  1  0
 34 35  1  0
 34 23  1  0
 36 34  2  0
M  END
$$$$
