YEW.pdb
     RDKit          3D

 36 38  0  0  1  0  0  0  0  0999 V2000
    9.1068  -11.7451   19.6859 O   0  0  0  0  0  0  0  0  0  0  0  0
    8.3904  -12.8864   20.0739 C   0  0  0  0  0  0  0  0  0  0  0  0
    7.7548  -13.6592   19.1147 C   0  0  0  0  0  0  0  0  0  0  0  0
    7.0289  -14.8070   19.4605 C   0  0  0  0  0  0  0  0  0  0  0  0
    6.9700  -15.1403   20.7886 C   0  0  0  0  0  0  0  0  0  0  0  0
    6.2368  -16.3335   21.2440 C   0  0  0  0  0  0  0  0  0  0  0  0
    7.1012  -17.5755   21.0582 C   0  0  2  0  0  0  0  0  0  0  0  0
    6.2563  -18.7223   21.0057 N   0  0  0  0  0  0  0  0  0  0  0  0
    8.1805  -17.6080   22.0377 C   0  0  0  0  0  0  0  0  0  0  0  0
    7.8809  -17.9401   23.2233 O   0  0  0  0  0  0  0  0  0  0  0  0
    7.6044  -14.3696   21.7517 C   0  0  0  0  0  0  0  0  0  0  0  0
    8.3208  -13.2340   21.4007 C   0  0  0  0  0  0  0  0  0  0  0  0
    9.5469  -17.3065   21.8109 N   0  0  0  0  0  0  0  0  0  0  0  0
   10.5433  -17.4454   22.8402 C   0  0  1  0  0  0  0  0  0  0  0  0
   11.9378  -17.2575   22.3628 C   0  0  0  0  0  0  0  0  0  0  0  0
   12.1767  -17.7068   20.9413 C   0  0  0  0  0  0  0  0  0  0  0  0
   13.2274  -16.8403   20.3687 C   0  0  0  0  0  0  0  0  0  0  0  0
   13.1725  -16.5233   19.1638 O   0  0  0  0  0  0  0  0  0  0  0  0
   10.2891  -16.3944   23.8874 C   0  0  0  0  0  0  0  0  0  0  0  0
    9.5089  -15.4117   23.6390 O   0  0  0  0  0  0  0  0  0  0  0  0
   14.2568  -16.3836   21.1531 O   0  0  0  0  0  0  0  0  0  0  0  0
   10.8607  -16.4072   25.1690 N   0  0  0  0  0  0  0  0  0  0  0  0
   10.0669  -16.2702   26.4109 C   0  0  1  0  0  0  0  0  0  0  0  0
    8.6938  -16.7770   26.1954 C   0  0  0  0  0  0  0  0  0  0  0  0
    7.6990  -15.7092   26.0664 C   0  0  0  0  0  0  0  0  0  0  0  0
    6.3507  -15.8705   25.7393 C   0  0  0  0  0  0  0  0  0  0  0  0
    5.7272  -14.6908   25.6809 N   0  0  0  0  0  0  0  0  0  0  0  0
    6.6374  -13.7532   25.9640 C   0  0  0  0  0  0  0  0  0  0  0  0
    6.5087  -12.3792   26.0556 C   0  0  0  0  0  0  0  0  0  0  0  0
    7.5506  -11.5483   26.3821 C   0  0  0  0  0  0  0  0  0  0  0  0
    8.7695  -12.1628   26.6215 C   0  0  0  0  0  0  0  0  0  0  0  0
    8.9256  -13.5235   26.5367 C   0  0  0  0  0  0  0  0  0  0  0  0
    7.8673  -14.3393   26.2080 C   0  0  0  0  0  0  0  0  0  0  0  0
   10.7902  -16.8470   27.5365 C   0  0  0  0  0  0  0  0  0  0  0  0
   11.9965  -17.5616   27.3639 O   0  0  0  0  0  0  0  0  0  0  0  0
   10.4265  -16.7700   28.7449 O   0  0  0  0  0  0  0  0  0  0  0  0
  2  1  1  0
  3  2  2  0
  4  3  1  0
  5  4  2  0
  6  5  1  0
  7  8  1  1
  7  6  1  0
  9  7  1  0
 10  9  2  0
 11  5  1  0
 11 12  2  0
 12  2  1  0
 13  9  1  0
 14 13  1  0
 14 15  1  6
 15 16  1  0
 16 17  1  0
 17 18  2  0
 17 21  1  0
 19 20  2  0
 19 14  1  0
 22 19  1  0
 23 22  1  0
 23 24  1  6
 24 25  1  0
 25 26  2  0
 25 33  1  0
 26 27  1  0
 27 28  1  0
 28 29  2  0
 29 30  1  0
 31 30  2  0
 32 31  1  0
 33 32  2  0
 33 28  1  0
 34 35  1  0
 34 23  1  0
 36 34  2  0
M  END
$$$$
