YEW.pdb
     RDKit          3D

 36 38  0  0  1  0  0  0  0  0999 V2000
    8.6236  -12.2923   17.7661 O   0  0  0  0  0  0  0  0  0  0  0  0
    8.2184  -13.0342   18.8850 C   0  0  0  0  0  0  0  0  0  0  0  0
    8.3485  -14.4142   18.8796 C   0  0  0  0  0  0  0  0  0  0  0  0
    7.9558  -15.1922   19.9772 C   0  0  0  0  0  0  0  0  0  0  0  0
    7.4360  -14.5360   21.0623 C   0  0  0  0  0  0  0  0  0  0  0  0
    7.0041  -15.2707   22.2634 C   0  0  0  0  0  0  0  0  0  0  0  0
    7.2206  -16.7663   22.0621 C   0  0  2  0  0  0  0  0  0  0  0  0
    5.9764  -17.4401   22.2347 N   0  0  0  0  0  0  0  0  0  0  0  0
    8.3354  -17.2431   22.8716 C   0  0  0  0  0  0  0  0  0  0  0  0
    8.0587  -17.7742   23.9882 O   0  0  0  0  0  0  0  0  0  0  0  0
    7.3040  -13.1552   21.0717 C   0  0  0  0  0  0  0  0  0  0  0  0
    7.6949  -12.3922   19.9804 C   0  0  0  0  0  0  0  0  0  0  0  0
    9.7136  -17.1795   22.5462 N   0  0  0  0  0  0  0  0  0  0  0  0
   10.7340  -17.6703   23.4347 C   0  0  1  0  0  0  0  0  0  0  0  0
   12.0964  -17.6879   22.8417 C   0  0  0  0  0  0  0  0  0  0  0  0
   12.1870  -18.3874   21.5068 C   0  0  0  0  0  0  0  0  0  0  0  0
   13.5675  -18.2215   21.0074 C   0  0  0  0  0  0  0  0  0  0  0  0
   13.7905  -17.4282   20.0714 O   0  0  0  0  0  0  0  0  0  0  0  0
   10.7869  -16.7663   24.6371 C   0  0  0  0  0  0  0  0  0  0  0  0
   11.3876  -15.6389   24.5706 O   0  0  0  0  0  0  0  0  0  0  0  0
   14.6001  -18.9312   21.5674 O   0  0  0  0  0  0  0  0  0  0  0  0
   10.2039  -17.0717   25.8765 N   0  0  0  0  0  0  0  0  0  0  0  0
   10.6767  -16.4988   27.1568 C   0  0  1  0  0  0  0  0  0  0  0  0
   10.0935  -15.1541   27.3585 C   0  0  0  0  0  0  0  0  0  0  0  0
    8.7421  -15.0236   26.8079 C   0  0  0  0  0  0  0  0  0  0  0  0
    7.8458  -16.0660   26.5611 C   0  0  0  0  0  0  0  0  0  0  0  0
    6.7084  -15.6052   26.0337 N   0  0  0  0  0  0  0  0  0  0  0  0
    6.8357  -14.2784   25.9284 C   0  0  0  0  0  0  0  0  0  0  0  0
    5.9445  -13.3275   25.4655 C   0  0  0  0  0  0  0  0  0  0  0  0
    6.2249  -11.9846   25.4434 C   0  0  0  0  0  0  0  0  0  0  0  0
    7.4734  -11.6137   25.9170 C   0  0  0  0  0  0  0  0  0  0  0  0
    8.3772  -12.5361   26.3810 C   0  0  0  0  0  0  0  0  0  0  0  0
    8.0760  -13.8787   26.3949 C   0  0  0  0  0  0  0  0  0  0  0  0
   10.4725  -17.4513   28.2403 C   0  0  0  0  0  0  0  0  0  0  0  0
   10.9992  -17.2380   29.5336 O   0  0  0  0  0  0  0  0  0  0  0  0
    9.8233  -18.5315   28.1399 O   0  0  0  0  0  0  0  0  0  0  0  0
  2  1  1  0
  3  2  2  0
  4  3  1  0
  5  4  2  0
  6  5  1  0
  7  8  1  1
  7  6  1  0
  9  7  1  0
 10  9  2  0
 11  5  1  0
 11 12  2  0
 12  2  1  0
 13  9  1  0
 14 13  1  0
 14 15  1  6
 15 16  1  0
 16 17  1  0
 17 18  2  0
 17 21  1  0
 19 20  2  0
 19 14  1  0
 22 19  1  0
 23 22  1  0
 23 24  1  1
 24 25  1  0
 25 26  2  0
 25 33  1  0
 26 27  1  0
 27 28  1  0
 28 29  2  0
 29 30  1  0
 31 30  2  0
 32 31  1  0
 33 32  2  0
 33 28  1  0
 34 35  1  0
 34 23  1  0
 36 34  2  0
M  END
$$$$
