YEW.pdb
     RDKit          3D

 36 38  0  0  1  0  0  0  0  0999 V2000
    8.9649  -11.7546   19.4745 O   0  0  0  0  0  0  0  0  0  0  0  0
    8.2331  -12.7763   20.0967 C   0  0  0  0  0  0  0  0  0  0  0  0
    8.3156  -12.9435   21.4702 C   0  0  0  0  0  0  0  0  0  0  0  0
    7.6006  -13.9518   22.1306 C   0  0  0  0  0  0  0  0  0  0  0  0
    6.8121  -14.7711   21.3654 C   0  0  0  0  0  0  0  0  0  0  0  0
    6.0191  -15.8525   21.9740 C   0  0  0  0  0  0  0  0  0  0  0  0
    6.6436  -17.2032   21.6424 C   0  0  2  0  0  0  0  0  0  0  0  0
    5.6351  -18.2081   21.7140 N   0  0  0  0  0  0  0  0  0  0  0  0
    7.8439  -17.4296   22.4383 C   0  0  0  0  0  0  0  0  0  0  0  0
    7.7053  -18.0400   23.5400 O   0  0  0  0  0  0  0  0  0  0  0  0
    6.7270  -14.6073   19.9907 C   0  0  0  0  0  0  0  0  0  0  0  0
    7.4388  -13.6064   19.3445 C   0  0  0  0  0  0  0  0  0  0  0  0
    9.1676  -17.0392   22.1145 N   0  0  0  0  0  0  0  0  0  0  0  0
   10.2998  -17.4373   22.9089 C   0  0  1  0  0  0  0  0  0  0  0  0
   11.6137  -17.1650   22.2704 C   0  0  0  0  0  0  0  0  0  0  0  0
   12.8068  -17.5914   23.0915 C   0  0  0  0  0  0  0  0  0  0  0  0
   14.0181  -17.3434   22.2828 C   0  0  0  0  0  0  0  0  0  0  0  0
   15.0808  -17.9276   22.5739 O   0  0  0  0  0  0  0  0  0  0  0  0
   10.2664  -16.6627   24.1991 C   0  0  0  0  0  0  0  0  0  0  0  0
   10.5371  -15.4125   24.2082 O   0  0  0  0  0  0  0  0  0  0  0  0
   13.9787  -16.4792   21.2173 O   0  0  0  0  0  0  0  0  0  0  0  0
    9.9461  -17.2238   25.4449 N   0  0  0  0  0  0  0  0  0  0  0  0
   10.2388  -16.5558   26.7330 C   0  0  1  0  0  0  0  0  0  0  0  0
    8.9911  -16.3747   27.5071 C   0  0  0  0  0  0  0  0  0  0  0  0
    7.9810  -15.5868   26.7960 C   0  0  0  0  0  0  0  0  0  0  0  0
    6.8911  -16.0907   26.0826 C   0  0  0  0  0  0  0  0  0  0  0  0
    6.1792  -15.1026   25.5340 N   0  0  0  0  0  0  0  0  0  0  0  0
    6.7774  -13.9556   25.8720 C   0  0  0  0  0  0  0  0  0  0  0  0
    6.4357  -12.6477   25.5798 C   0  0  0  0  0  0  0  0  0  0  0  0
    7.1530  -11.5671   26.0275 C   0  0  0  0  0  0  0  0  0  0  0  0
    8.2643  -11.8518   26.8050 C   0  0  0  0  0  0  0  0  0  0  0  0
    8.6267  -13.1397   27.1094 C   0  0  0  0  0  0  0  0  0  0  0  0
    7.8932  -14.2098   26.6505 C   0  0  0  0  0  0  0  0  0  0  0  0
   11.3223  -17.2445   27.4221 C   0  0  0  0  0  0  0  0  0  0  0  0
   11.9041  -16.7312   28.6027 O   0  0  0  0  0  0  0  0  0  0  0  0
   11.8369  -18.3372   27.0487 O   0  0  0  0  0  0  0  0  0  0  0  0
  2  1  1  0
  3  2  2  0
  4  3  1  0
  5  4  2  0
  6  5  1  0
  7  8  1  1
  7  6  1  0
  9  7  1  0
 10  9  2  0
 11  5  1  0
 11 12  2  0
 12  2  1  0
 13  9  1  0
 14 13  1  0
 14 15  1  6
 15 16  1  0
 16 17  1  0
 17 18  2  0
 17 21  1  0
 19 20  2  0
 19 14  1  0
 22 19  1  0
 23 22  1  0
 23 24  1  1
 24 25  1  0
 25 26  2  0
 25 33  1  0
 26 27  1  0
 27 28  1  0
 28 29  2  0
 29 30  1  0
 31 30  2  0
 32 31  1  0
 33 32  2  0
 33 28  1  0
 34 35  1  0
 34 23  1  0
 36 34  2  0
M  END
$$$$
