YEW.pdb
     RDKit          3D

 36 38  0  0  1  0  0  0  0  0999 V2000
    7.4046  -11.5379   22.8853 O   0  0  0  0  0  0  0  0  0  0  0  0
    7.5931  -12.6525   22.0555 C   0  0  0  0  0  0  0  0  0  0  0  0
    8.6617  -12.6807   21.1732 C   0  0  0  0  0  0  0  0  0  0  0  0
    8.8856  -13.7753   20.3271 C   0  0  0  0  0  0  0  0  0  0  0  0
    8.0054  -14.8230   20.4041 C   0  0  0  0  0  0  0  0  0  0  0  0
    8.1663  -16.0183   19.5591 C   0  0  0  0  0  0  0  0  0  0  0  0
    7.8385  -17.2706   20.3644 C   0  0  2  0  0  0  0  0  0  0  0  0
    6.4230  -17.4320   20.4112 N   0  0  0  0  0  0  0  0  0  0  0  0
    8.5338  -17.2606   21.6458 C   0  0  0  0  0  0  0  0  0  0  0  0
    7.9279  -17.7590   22.6407 O   0  0  0  0  0  0  0  0  0  0  0  0
    6.9347  -14.7987   21.2856 C   0  0  0  0  0  0  0  0  0  0  0  0
    6.7198  -13.7105   22.1197 C   0  0  0  0  0  0  0  0  0  0  0  0
    9.8298  -16.7498   21.9084 N   0  0  0  0  0  0  0  0  0  0  0  0
   10.7356  -17.3923   22.8239 C   0  0  1  0  0  0  0  0  0  0  0  0
   12.1504  -17.4019   22.3698 C   0  0  0  0  0  0  0  0  0  0  0  0
   12.4527  -18.4139   21.2910 C   0  0  0  0  0  0  0  0  0  0  0  0
   13.8664  -18.8168   21.4389 C   0  0  0  0  0  0  0  0  0  0  0  0
   14.7376  -18.2698   20.7338 O   0  0  0  0  0  0  0  0  0  0  0  0
   10.6955  -16.6447   24.1298 C   0  0  0  0  0  0  0  0  0  0  0  0
   11.2429  -15.4931   24.2308 O   0  0  0  0  0  0  0  0  0  0  0  0
   14.2233  -19.7837   22.3451 O   0  0  0  0  0  0  0  0  0  0  0  0
   10.0778  -17.1278   25.2935 N   0  0  0  0  0  0  0  0  0  0  0  0
   10.3075  -16.5438   26.6342 C   0  0  1  0  0  0  0  0  0  0  0  0
    9.0168  -16.3377   27.3272 C   0  0  0  0  0  0  0  0  0  0  0  0
    7.9685  -15.8123   26.4488 C   0  0  0  0  0  0  0  0  0  0  0  0
    7.1491  -16.5605   25.6003 C   0  0  0  0  0  0  0  0  0  0  0  0
    6.3152  -15.7698   24.9195 N   0  0  0  0  0  0  0  0  0  0  0  0
    6.5672  -14.5138   25.3027 C   0  0  0  0  0  0  0  0  0  0  0  0
    5.9742  -13.3248   24.9189 C   0  0  0  0  0  0  0  0  0  0  0  0
    6.3397  -12.1051   25.4302 C   0  0  0  0  0  0  0  0  0  0  0  0
    7.3562  -12.1178   26.3720 C   0  0  0  0  0  0  0  0  0  0  0  0
    7.9625  -13.2825   26.7702 C   0  0  0  0  0  0  0  0  0  0  0  0
    7.5807  -14.4959   26.2451 C   0  0  0  0  0  0  0  0  0  0  0  0
   11.3029  -17.3231   27.3586 C   0  0  0  0  0  0  0  0  0  0  0  0
   11.7975  -16.9192   28.6187 O   0  0  0  0  0  0  0  0  0  0  0  0
   11.8100  -18.4065   26.9496 O   0  0  0  0  0  0  0  0  0  0  0  0
  2  1  1  0
  3  2  2  0
  4  3  1  0
  5  4  2  0
  6  5  1  0
  7  8  1  1
  7  6  1  0
  9  7  1  0
 10  9  2  0
 11  5  1  0
 11 12  2  0
 12  2  1  0
 13  9  1  0
 14 13  1  0
 14 15  1  6
 15 16  1  0
 16 17  1  0
 17 18  2  0
 17 21  1  0
 19 20  2  0
 19 14  1  0
 22 19  1  0
 23 22  1  0
 23 24  1  1
 24 25  1  0
 25 26  2  0
 25 33  1  0
 26 27  1  0
 27 28  1  0
 28 29  2  0
 29 30  1  0
 31 30  2  0
 32 31  1  0
 33 32  2  0
 33 28  1  0
 34 35  1  0
 34 23  1  0
 36 34  2  0
M  END
$$$$
