YEW.pdb
     RDKit          3D

 36 38  0  0  1  0  0  0  0  0999 V2000
    8.8505  -13.4024   16.6851 O   0  0  0  0  0  0  0  0  0  0  0  0
    8.2216  -13.7973   17.8747 C   0  0  0  0  0  0  0  0  0  0  0  0
    7.8688  -15.1251   18.0588 C   0  0  0  0  0  0  0  0  0  0  0  0
    7.2391  -15.5608   19.2325 C   0  0  0  0  0  0  0  0  0  0  0  0
    6.9834  -14.6217   20.1975 C   0  0  0  0  0  0  0  0  0  0  0  0
    6.3323  -14.9894   21.4663 C   0  0  0  0  0  0  0  0  0  0  0  0
    7.2774  -14.7187   22.6315 C   0  0  2  0  0  0  0  0  0  0  0  0
    7.8157  -13.4060   22.4939 N   0  0  0  0  0  0  0  0  0  0  0  0
    8.2401  -15.8032   22.7818 C   0  0  0  0  0  0  0  0  0  0  0  0
    7.7862  -16.9465   23.0857 O   0  0  0  0  0  0  0  0  0  0  0  0
    7.3346  -13.2920   20.0172 C   0  0  0  0  0  0  0  0  0  0  0  0
    7.9575  -12.8688   18.8515 C   0  0  0  0  0  0  0  0  0  0  0  0
    9.6465  -15.7226   22.6237 N   0  0  0  0  0  0  0  0  0  0  0  0
   10.5292  -16.7658   23.0754 C   0  0  1  0  0  0  0  0  0  0  0  0
   11.7752  -16.8935   22.2758 C   0  0  0  0  0  0  0  0  0  0  0  0
   12.7239  -17.9613   22.7649 C   0  0  0  0  0  0  0  0  0  0  0  0
   13.8797  -17.9884   21.8451 C   0  0  0  0  0  0  0  0  0  0  0  0
   13.9328  -18.8566   20.9513 O   0  0  0  0  0  0  0  0  0  0  0  0
   10.9413  -16.4555   24.4895 C   0  0  0  0  0  0  0  0  0  0  0  0
   12.0029  -15.7797   24.7184 O   0  0  0  0  0  0  0  0  0  0  0  0
   14.8886  -17.0662   21.9679 O   0  0  0  0  0  0  0  0  0  0  0  0
   10.2236  -16.8623   25.6247 N   0  0  0  0  0  0  0  0  0  0  0  0
   10.7660  -16.7761   26.9993 C   0  0  1  0  0  0  0  0  0  0  0  0
   10.2276  -15.5805   27.6845 C   0  0  0  0  0  0  0  0  0  0  0  0
    8.9113  -15.1743   27.1857 C   0  0  0  0  0  0  0  0  0  0  0  0
    7.7949  -15.9993   27.0316 C   0  0  0  0  0  0  0  0  0  0  0  0
    6.7612  -15.3183   26.5297 N   0  0  0  0  0  0  0  0  0  0  0  0
    7.1731  -14.0590   26.3501 C   0  0  0  0  0  0  0  0  0  0  0  0
    6.4910  -12.9530   25.8766 C   0  0  0  0  0  0  0  0  0  0  0  0
    7.0599  -11.7087   25.7727 C   0  0  0  0  0  0  0  0  0  0  0  0
    8.3827  -11.6069   26.1730 C   0  0  0  0  0  0  0  0  0  0  0  0
    9.0834  -12.6879   26.6457 C   0  0  0  0  0  0  0  0  0  0  0  0
    8.4939  -13.9276   26.7423 C   0  0  0  0  0  0  0  0  0  0  0  0
   10.5835  -18.0446   27.6926 C   0  0  0  0  0  0  0  0  0  0  0  0
    9.8156  -19.0947   27.1420 O   0  0  0  0  0  0  0  0  0  0  0  0
   11.0778  -18.3289   28.8210 O   0  0  0  0  0  0  0  0  0  0  0  0
  2  1  1  0
  3  2  2  0
  4  3  1  0
  5  4  2  0
  6  5  1  0
  7  8  1  6
  7  6  1  0
  9  7  1  0
 10  9  2  0
 11  5  1  0
 11 12  2  0
 12  2  1  0
 13  9  1  0
 14 13  1  0
 14 15  1  6
 15 16  1  0
 16 17  1  0
 17 18  2  0
 17 21  1  0
 19 20  2  0
 19 14  1  0
 22 19  1  0
 23 22  1  0
 23 24  1  1
 24 25  1  0
 25 26  2  0
 25 33  1  0
 26 27  1  0
 27 28  1  0
 28 29  2  0
 29 30  1  0
 31 30  2  0
 32 31  1  0
 33 32  2  0
 33 28  1  0
 34 35  1  0
 34 23  1  0
 36 34  2  0
M  END
$$$$
