YEW.pdb
     RDKit          3D

 36 38  0  0  1  0  0  0  0  0999 V2000
    8.0244  -12.5000   17.4035 O   0  0  0  0  0  0  0  0  0  0  0  0
    7.8554  -13.1557   18.6314 C   0  0  0  0  0  0  0  0  0  0  0  0
    7.6086  -12.4169   19.7780 C   0  0  0  0  0  0  0  0  0  0  0  0
    7.4337  -13.0334   21.0243 C   0  0  0  0  0  0  0  0  0  0  0  0
    7.5156  -14.4008   21.0692 C   0  0  0  0  0  0  0  0  0  0  0  0
    7.3374  -15.1347   22.3335 C   0  0  0  0  0  0  0  0  0  0  0  0
    7.4655  -16.6334   22.0856 C   0  0  2  0  0  0  0  0  0  0  0  0
    6.2221  -17.2598   22.3913 N   0  0  0  0  0  0  0  0  0  0  0  0
    8.6451  -17.1710   22.7526 C   0  0  0  0  0  0  0  0  0  0  0  0
    8.4555  -17.9996   23.6923 O   0  0  0  0  0  0  0  0  0  0  0  0
    7.7626  -15.1438   19.9243 C   0  0  0  0  0  0  0  0  0  0  0  0
    7.9351  -14.5253   18.6939 C   0  0  0  0  0  0  0  0  0  0  0  0
    9.9996  -16.8679   22.4647 N   0  0  0  0  0  0  0  0  0  0  0  0
   11.0893  -17.4639   23.1919 C   0  0  1  0  0  0  0  0  0  0  0  0
   12.3932  -17.4098   22.4813 C   0  0  0  0  0  0  0  0  0  0  0  0
   12.5127  -18.3703   21.3225 C   0  0  0  0  0  0  0  0  0  0  0  0
   13.8436  -18.1719   20.7124 C   0  0  0  0  0  0  0  0  0  0  0  0
   13.9645  -17.4000   19.7404 O   0  0  0  0  0  0  0  0  0  0  0  0
   11.2594  -16.7133   24.4855 C   0  0  0  0  0  0  0  0  0  0  0  0
   11.8628  -15.5856   24.5025 O   0  0  0  0  0  0  0  0  0  0  0  0
   14.9417  -18.8283   21.2092 O   0  0  0  0  0  0  0  0  0  0  0  0
   10.7875  -17.1684   25.7263 N   0  0  0  0  0  0  0  0  0  0  0  0
   10.9385  -16.3987   26.9817 C   0  0  1  0  0  0  0  0  0  0  0  0
   10.5024  -15.0000   26.7764 C   0  0  0  0  0  0  0  0  0  0  0  0
    9.0778  -14.8817   26.4552 C   0  0  0  0  0  0  0  0  0  0  0  0
    8.1722  -15.9356   26.3130 C   0  0  0  0  0  0  0  0  0  0  0  0
    6.9567  -15.4832   25.9938 N   0  0  0  0  0  0  0  0  0  0  0  0
    7.0417  -14.1506   25.9235 C   0  0  0  0  0  0  0  0  0  0  0  0
    6.0707  -13.2050   25.6484 C   0  0  0  0  0  0  0  0  0  0  0  0
    6.3198  -11.8558   25.6362 C   0  0  0  0  0  0  0  0  0  0  0  0
    7.6214  -11.4727   25.9184 C   0  0  0  0  0  0  0  0  0  0  0  0
    8.6045  -12.3896   26.1937 C   0  0  0  0  0  0  0  0  0  0  0  0
    8.3335  -13.7387   26.2012 C   0  0  0  0  0  0  0  0  0  0  0  0
   10.3061  -17.1082   28.0860 C   0  0  0  0  0  0  0  0  0  0  0  0
   10.4906  -16.7166   29.4307 O   0  0  0  0  0  0  0  0  0  0  0  0
    9.5505  -18.1140   27.9604 O   0  0  0  0  0  0  0  0  0  0  0  0
  2  1  1  0
  3  2  2  0
  4  3  1  0
  5  4  2  0
  6  5  1  0
  7  8  1  1
  7  6  1  0
  9  7  1  0
 10  9  2  0
 11  5  1  0
 11 12  2  0
 12  2  1  0
 13  9  1  0
 14 13  1  0
 14 15  1  6
 15 16  1  0
 16 17  1  0
 17 18  2  0
 17 21  1  0
 19 20  2  0
 19 14  1  0
 22 19  1  0
 23 22  1  0
 23 24  1  6
 24 25  1  0
 25 26  2  0
 25 33  1  0
 26 27  1  0
 27 28  1  0
 28 29  2  0
 29 30  1  0
 31 30  2  0
 32 31  1  0
 33 32  2  0
 33 28  1  0
 34 35  1  0
 34 23  1  0
 36 34  2  0
M  END
$$$$
