RAY.pdb
     RDKit          3D

 29 29  0  0  1  0  0  0  0  0999 V2000
    7.6874  -14.7888   16.6118 N   0  0  0  0  0  0  0  0  0  0  0  0
    8.0805  -13.4319   16.7343 C   0  0  0  0  0  0  0  0  0  0  0  0
    7.6499  -12.5291   15.8888 N   0  0  0  0  0  0  0  0  0  0  0  0
    8.9515  -13.0805   17.7970 N   0  0  0  0  0  0  0  0  0  0  0  0
    8.7781  -13.6585   19.0949 C   0  0  0  0  0  0  0  0  0  0  0  0
    7.6915  -14.7135   19.1197 C   0  0  0  0  0  0  0  0  0  0  0  0
    7.6027  -15.3837   20.4600 C   0  0  0  0  0  0  0  0  0  0  0  0
    8.6477  -16.4478   20.5774 C   0  0  2  0  0  0  0  0  0  0  0  0
    8.6258  -17.3969   19.4959 N   0  0  0  0  0  0  0  0  0  0  0  0
    8.5203  -17.1238   21.9063 C   0  0  0  0  0  0  0  0  0  0  0  0
    7.7093  -18.0376   22.0944 O   0  0  0  0  0  0  0  0  0  0  0  0
    8.0012  -11.5707   15.9721 C   0  0  0  0  0  0  0  0  0  0  0  0
   10.1935  -18.8431   23.8903 C   0  0  1  0  0  0  0  0  0  0  0  0
    9.6339  -17.4738   24.1450 N   0  0  0  0  0  0  0  0  0  0  0  0
    9.3418  -16.7184   22.9859 C   0  0  0  0  0  0  0  0  0  0  0  0
   10.6040  -16.7406   24.9910 O   0  0  0  0  0  0  0  0  0  0  0  0
   11.7506  -17.2127   25.2161 O   0  0  0  0  0  0  0  0  0  0  0  0
    6.1343  -10.5307   25.2747 C   0  0  0  0  0  0  0  0  0  0  0  0
    6.7272  -11.6839   25.7682 C   0  0  0  0  0  0  0  0  0  0  0  0
    6.8744  -11.9050   27.1232 C   0  0  0  0  0  0  0  0  0  0  0  0
    7.4664  -13.0565   27.6004 C   0  0  0  0  0  0  0  0  0  0  0  0
    7.9422  -14.0463   26.7695 C   0  0  0  0  0  0  0  0  0  0  0  0
    8.5832  -15.2918   27.2620 C   0  0  2  0  0  0  0  0  0  0  0  0
   10.0590  -15.3505   26.9604 N   0  0  0  0  0  0  0  0  0  0  0  0
   10.2277  -15.5024   25.5441 C   0  0  0  0  0  0  0  0  0  0  0  0
   10.6857  -16.4777   27.7185 O   0  0  0  0  0  0  0  0  0  0  0  0
   11.1759  -17.6278   27.1681 C   0  0  0  0  0  0  0  0  0  0  0  0
    7.7932  -13.8217   25.4007 C   0  0  0  0  0  0  0  0  0  0  0  0
    7.2021  -12.6718   24.9292 O   0  0  0  0  0  0  0  0  0  0  0  0
  1  2  1  0
  2  3  2  0
  4  5  1  0
  4  2  1  0
  6  5  1  0
  7  6  1  0
  8  9  1  6
  8  7  1  0
 10  8  1  0
 11 10  2  0
 13 12  1  6
 13 14  1  0
 14 10  1  0
 15 13  1  0
 15 24  1  0
 16 15  2  0
 17 18  1  0
 18 28  2  0
 19 18  1  0
 19 20  2  0
 20 21  1  0
 21 27  2  0
 21 22  1  0
 23 22  1  6
 23 24  1  0
 23 25  1  0
 25 29  2  0
 25 26  1  0
 28 27  1  0
M  END
$$$$
