RAY.pdb
     RDKit          3D

 29 29  0  0  1  0  0  0  0  0999 V2000
    6.8164  -13.9669   15.8243 N   0  0  0  0  0  0  0  0  0  0  0  0
    8.0093  -14.5714   15.3527 C   0  0  0  0  0  0  0  0  0  0  0  0
    8.8445  -13.9063   14.5941 N   0  0  0  0  0  0  0  0  0  0  0  0
    8.2721  -15.9142   15.7256 N   0  0  0  0  0  0  0  0  0  0  0  0
    7.3176  -16.6500   16.4977 C   0  0  0  0  0  0  0  0  0  0  0  0
    7.6062  -16.5935   17.9837 C   0  0  0  0  0  0  0  0  0  0  0  0
    8.4284  -17.7668   18.4319 C   0  0  0  0  0  0  0  0  0  0  0  0
    8.5405  -17.7813   19.9236 C   0  0  2  0  0  0  0  0  0  0  0  0
    7.3036  -18.0926   20.5901 N   0  0  0  0  0  0  0  0  0  0  0  0
    9.1052  -16.4768   20.3913 C   0  0  0  0  0  0  0  0  0  0  0  0
   10.2581  -16.1308   20.1102 O   0  0  0  0  0  0  0  0  0  0  0  0
    9.6638  -14.3941   14.2204 C   0  0  0  0  0  0  0  0  0  0  0  0
    7.6280  -13.3026   21.7113 C   0  0  2  0  0  0  0  0  0  0  0  0
    8.7058  -14.3469   21.6870 N   0  0  0  0  0  0  0  0  0  0  0  0
    8.3121  -15.6056   21.1768 C   0  0  0  0  0  0  0  0  0  0  0  0
    9.2144  -14.5024   23.0695 O   0  0  0  0  0  0  0  0  0  0  0  0
    9.7393  -13.5312   23.6774 O   0  0  0  0  0  0  0  0  0  0  0  0
    5.8733  -10.9682   27.1261 C   0  0  0  0  0  0  0  0  0  0  0  0
    6.4222  -12.2049   26.8190 C   0  0  0  0  0  0  0  0  0  0  0  0
    5.6721  -13.2134   26.2475 C   0  0  0  0  0  0  0  0  0  0  0  0
    6.2309  -14.4390   25.9474 C   0  0  0  0  0  0  0  0  0  0  0  0
    7.5536  -14.7326   26.1943 C   0  0  0  0  0  0  0  0  0  0  0  0
    8.1741  -16.0446   25.8803 C   0  0  2  0  0  0  0  0  0  0  0  0
    9.4473  -15.9153   25.0838 N   0  0  0  0  0  0  0  0  0  0  0  0
    9.1037  -15.7555   23.7004 C   0  0  0  0  0  0  0  0  0  0  0  0
   10.3079  -17.1184   25.3071 O   0  0  0  0  0  0  0  0  0  0  0  0
   10.8787  -17.4756   26.4956 C   0  0  0  0  0  0  0  0  0  0  0  0
    8.3104  -13.7130   26.7718 C   0  0  0  0  0  0  0  0  0  0  0  0
    7.7489  -12.4922   27.0694 O   0  0  0  0  0  0  0  0  0  0  0  0
  1  2  1  0
  2  3  2  0
  4  5  1  0
  4  2  1  0
  6  5  1  0
  7  6  1  0
  8  9  1  1
  8  7  1  0
 10  8  1  0
 11 10  2  0
 13 12  1  6
 13 14  1  0
 14 10  1  0
 15 13  1  0
 15 24  1  0
 16 15  2  0
 17 18  1  0
 18 28  2  0
 19 18  1  0
 19 20  2  0
 20 21  1  0
 21 27  2  0
 21 22  1  0
 23 22  1  1
 23 24  1  0
 23 25  1  0
 25 29  2  0
 25 26  1  0
 28 27  1  0
M  END
$$$$
