RAY.pdb
     RDKit          3D

 29 29  0  0  1  0  0  0  0  0999 V2000
    9.7920  -14.3671   18.6972 N   0  0  0  0  0  0  0  0  0  0  0  0
    8.8566  -13.5492   18.0138 C   0  0  0  0  0  0  0  0  0  0  0  0
    9.2588  -12.6070   17.1979 N   0  0  0  0  0  0  0  0  0  0  0  0
    7.4755  -13.7805   18.2382 N   0  0  0  0  0  0  0  0  0  0  0  0
    7.0511  -14.6826   19.2651 C   0  0  0  0  0  0  0  0  0  0  0  0
    7.3338  -14.1531   20.6558 C   0  0  0  0  0  0  0  0  0  0  0  0
    6.7338  -15.0322   21.7144 C   0  0  0  0  0  0  0  0  0  0  0  0
    7.4010  -16.3712   21.7152 C   0  0  2  0  0  0  0  0  0  0  0  0
    7.1023  -17.1631   20.5511 N   0  0  0  0  0  0  0  0  0  0  0  0
    7.0566  -17.0964   22.9780 C   0  0  0  0  0  0  0  0  0  0  0  0
    5.9639  -17.6544   23.1284 O   0  0  0  0  0  0  0  0  0  0  0  0
    8.5563  -12.0066   16.7565 C   0  0  0  0  0  0  0  0  0  0  0  0
    8.9001  -18.2128   26.0659 C   0  0  1  0  0  0  0  0  0  0  0  0
    7.7371  -17.5774   25.3613 N   0  0  0  0  0  0  0  0  0  0  0  0
    7.9948  -17.1540   24.0369 C   0  0  0  0  0  0  0  0  0  0  0  0
    7.2893  -16.4259   26.1784 O   0  0  0  0  0  0  0  0  0  0  0  0
    6.8216  -16.5985   27.3359 O   0  0  0  0  0  0  0  0  0  0  0  0
   11.8556  -15.7976   30.1296 C   0  0  0  0  0  0  0  0  0  0  0  0
   10.9537  -15.1534   29.2949 C   0  0  0  0  0  0  0  0  0  0  0  0
   11.1079  -15.1460   27.9228 C   0  0  0  0  0  0  0  0  0  0  0  0
   10.2033  -14.5010   27.1043 C   0  0  0  0  0  0  0  0  0  0  0  0
    9.1037  -13.8323   27.5943 C   0  0  0  0  0  0  0  0  0  0  0  0
    8.1193  -13.1312   26.7316 C   0  0  2  0  0  0  0  0  0  0  0  0
    6.9302  -13.9892   26.3822 N   0  0  0  0  0  0  0  0  0  0  0  0
    7.3930  -15.1283   25.6435 C   0  0  0  0  0  0  0  0  0  0  0  0
    5.9390  -13.1858   25.6011 O   0  0  0  0  0  0  0  0  0  0  0  0
    5.5248  -13.4578   24.3281 C   0  0  0  0  0  0  0  0  0  0  0  0
    8.9489  -13.8403   28.9808 C   0  0  0  0  0  0  0  0  0  0  0  0
    9.8536  -14.4850   29.7933 O   0  0  0  0  0  0  0  0  0  0  0  0
  1  2  1  0
  2  3  2  0
  4  5  1  0
  4  2  1  0
  6  5  1  0
  7  6  1  0
  8  9  1  6
  8  7  1  0
 10  8  1  0
 11 10  2  0
 13 12  1  6
 13 14  1  0
 14 10  1  0
 15 13  1  0
 15 24  1  0
 16 15  2  0
 17 18  1  0
 18 28  2  0
 19 18  1  0
 19 20  2  0
 20 21  1  0
 21 27  2  0
 21 22  1  0
 23 22  1  1
 23 24  1  0
 23 25  1  0
 25 29  2  0
 25 26  1  0
 28 27  1  0
M  END
$$$$
