RAY.pdb
     RDKit          3D

 29 29  0  0  1  0  0  0  0  0999 V2000
    6.9875  -15.3831   14.6094 N   0  0  0  0  0  0  0  0  0  0  0  0
    8.2434  -14.7302   14.6953 C   0  0  0  0  0  0  0  0  0  0  0  0
    8.7692  -14.1457   13.6478 N   0  0  0  0  0  0  0  0  0  0  0  0
    8.9125  -14.7275   15.9457 N   0  0  0  0  0  0  0  0  0  0  0  0
    8.2109  -15.0819   17.1418 C   0  0  0  0  0  0  0  0  0  0  0  0
    8.1554  -16.5798   17.3596 C   0  0  0  0  0  0  0  0  0  0  0  0
    9.4108  -17.0912   18.0047 C   0  0  0  0  0  0  0  0  0  0  0  0
    9.1936  -17.2964   19.4705 C   0  0  2  0  0  0  0  0  0  0  0  0
    7.8950  -17.8279   19.7904 N   0  0  0  0  0  0  0  0  0  0  0  0
    9.4580  -16.0143   20.1955 C   0  0  0  0  0  0  0  0  0  0  0  0
   10.5412  -15.4265   20.1001 O   0  0  0  0  0  0  0  0  0  0  0  0
    9.6350  -13.6117   13.7661 C   0  0  0  0  0  0  0  0  0  0  0  0
    7.1713  -13.4665   21.7176 C   0  0  2  0  0  0  0  0  0  0  0  0
    8.4924  -14.1733   21.6283 N   0  0  0  0  0  0  0  0  0  0  0  0
    8.4527  -15.4471   21.0156 C   0  0  0  0  0  0  0  0  0  0  0  0
    9.0331  -14.2936   23.0022 O   0  0  0  0  0  0  0  0  0  0  0  0
    9.4156  -13.2744   23.6371 O   0  0  0  0  0  0  0  0  0  0  0  0
    5.9201  -10.7124   26.7089 C   0  0  0  0  0  0  0  0  0  0  0  0
    6.5294  -11.9426   26.5083 C   0  0  0  0  0  0  0  0  0  0  0  0
    7.7986  -12.2127   26.9800 C   0  0  0  0  0  0  0  0  0  0  0  0
    8.3930  -13.4408   26.7730 C   0  0  0  0  0  0  0  0  0  0  0  0
    7.7690  -14.4626   26.0926 C   0  0  0  0  0  0  0  0  0  0  0  0
    8.3909  -15.7904   25.8579 C   0  0  2  0  0  0  0  0  0  0  0  0
    9.5849  -15.7246   24.9402 N   0  0  0  0  0  0  0  0  0  0  0  0
    9.1153  -15.5679   23.5939 C   0  0  0  0  0  0  0  0  0  0  0  0
   10.4137  -16.9598   25.0992 O   0  0  0  0  0  0  0  0  0  0  0  0
   10.7116  -17.8483   24.1053 C   0  0  0  0  0  0  0  0  0  0  0  0
    6.4868  -14.1886   25.6162 C   0  0  0  0  0  0  0  0  0  0  0  0
    5.8979  -12.9623   25.8251 O   0  0  0  0  0  0  0  0  0  0  0  0
  1  2  1  0
  2  3  2  0
  4  5  1  0
  4  2  1  0
  6  5  1  0
  7  6  1  0
  8  9  1  6
  8  7  1  0
 10  8  1  0
 11 10  2  0
 13 12  1  6
 13 14  1  0
 14 10  1  0
 15 13  1  0
 15 24  1  0
 16 15  2  0
 17 18  1  0
 18 28  2  0
 19 18  1  0
 19 20  2  0
 20 21  1  0
 21 27  2  0
 21 22  1  0
 23 22  1  1
 23 24  1  0
 23 25  1  0
 25 29  2  0
 25 26  1  0
 28 27  1  0
M  END
$$$$
