RAY.pdb
     RDKit          3D

 29 29  0  0  1  0  0  0  0  0999 V2000
    8.7407  -13.2498   17.8031 N   0  0  0  0  0  0  0  0  0  0  0  0
    8.0108  -13.5851   18.9717 C   0  0  0  0  0  0  0  0  0  0  0  0
    7.6749  -12.6647   19.8408 N   0  0  0  0  0  0  0  0  0  0  0  0
    7.6548  -14.9432   19.1720 N   0  0  0  0  0  0  0  0  0  0  0  0
    6.8746  -15.3258   20.3093 C   0  0  0  0  0  0  0  0  0  0  0  0
    6.6523  -16.8224   20.3834 C   0  0  0  0  0  0  0  0  0  0  0  0
    5.7095  -17.1867   21.4933 C   0  0  0  0  0  0  0  0  0  0  0  0
    6.4457  -17.8932   22.5873 C   0  0  2  0  0  0  0  0  0  0  0  0
    6.0626  -19.2719   22.7410 N   0  0  0  0  0  0  0  0  0  0  0  0
    6.2858  -17.1313   23.8653 C   0  0  0  0  0  0  0  0  0  0  0  0
    5.1914  -17.0374   24.4322 O   0  0  0  0  0  0  0  0  0  0  0  0
    7.1040  -12.9350   20.6469 C   0  0  0  0  0  0  0  0  0  0  0  0
    6.8445  -14.6500   25.9808 C   0  0  2  0  0  0  0  0  0  0  0  0
    7.5352  -15.1158   24.7322 N   0  0  0  0  0  0  0  0  0  0  0  0
    7.4065  -16.4960   24.4531 C   0  0  0  0  0  0  0  0  0  0  0  0
    8.9680  -14.7587   24.8496 O   0  0  0  0  0  0  0  0  0  0  0  0
    9.3266  -13.5557   24.9606 O   0  0  0  0  0  0  0  0  0  0  0  0
    8.9611  -15.0093   30.8933 C   0  0  0  0  0  0  0  0  0  0  0  0
    9.6716  -15.3069   29.7394 C   0  0  0  0  0  0  0  0  0  0  0  0
    9.9310  -16.6085   29.3587 C   0  0  0  0  0  0  0  0  0  0  0  0
   10.6394  -16.8902   28.2083 C   0  0  0  0  0  0  0  0  0  0  0  0
   11.1269  -15.9067   27.3767 C   0  0  0  0  0  0  0  0  0  0  0  0
   11.8920  -16.1880   26.1356 C   0  0  2  0  0  0  0  0  0  0  0  0
   11.3296  -15.4831   24.9277 N   0  0  0  0  0  0  0  0  0  0  0  0
    9.9304  -15.7854   24.8356 C   0  0  0  0  0  0  0  0  0  0  0  0
   12.0721  -15.9106   23.7014 O   0  0  0  0  0  0  0  0  0  0  0  0
   13.4081  -15.7308   23.4802 C   0  0  0  0  0  0  0  0  0  0  0  0
   10.8643  -14.5920   27.7624 C   0  0  0  0  0  0  0  0  0  0  0  0
   10.1574  -14.3157   28.9105 O   0  0  0  0  0  0  0  0  0  0  0  0
  1  2  1  0
  2  3  2  0
  4  5  1  0
  4  2  1  0
  6  5  1  0
  7  6  1  0
  8  9  1  1
  8  7  1  0
 10  8  1  0
 11 10  2  0
 13 12  1  6
 13 14  1  0
 14 10  1  0
 15 13  1  0
 15 24  1  0
 16 15  2  0
 17 18  1  0
 18 28  2  0
 19 18  1  0
 19 20  2  0
 20 21  1  0
 21 27  2  0
 21 22  1  0
 23 22  1  1
 23 24  1  0
 23 25  1  0
 25 29  2  0
 25 26  1  0
 28 27  1  0
M  END
$$$$
