RAY.pdb
     RDKit          3D

 29 29  0  0  1  0  0  0  0  0999 V2000
    9.8338  -13.7616   20.0176 N   0  0  0  0  0  0  0  0  0  0  0  0
    8.9497  -13.2039   19.0594 C   0  0  0  0  0  0  0  0  0  0  0  0
    9.4097  -12.6220   17.9800 N   0  0  0  0  0  0  0  0  0  0  0  0
    7.5554  -13.2943   19.3025 N   0  0  0  0  0  0  0  0  0  0  0  0
    7.0658  -13.9925   20.4520 C   0  0  0  0  0  0  0  0  0  0  0  0
    7.2996  -15.4867   20.3664 C   0  0  0  0  0  0  0  0  0  0  0  0
    7.9070  -16.0242   21.6296 C   0  0  0  0  0  0  0  0  0  0  0  0
    8.0620  -17.5093   21.5388 C   0  0  2  0  0  0  0  0  0  0  0  0
    6.8396  -18.1962   21.2148 N   0  0  0  0  0  0  0  0  0  0  0  0
    8.6632  -18.0240   22.8088 C   0  0  0  0  0  0  0  0  0  0  0  0
    8.0333  -18.7660   23.5708 O   0  0  0  0  0  0  0  0  0  0  0  0
    8.7489  -12.1466   17.3586 C   0  0  0  0  0  0  0  0  0  0  0  0
   11.8419  -19.0725   23.9489 C   0  0  1  0  0  0  0  0  0  0  0  0
   10.7151  -18.1362   24.2757 N   0  0  0  0  0  0  0  0  0  0  0  0
    9.9857  -17.6611   23.1613 C   0  0  0  0  0  0  0  0  0  0  0  0
   11.2823  -16.9936   25.0287 O   0  0  0  0  0  0  0  0  0  0  0  0
   12.0910  -16.1971   24.4811 O   0  0  0  0  0  0  0  0  0  0  0  0
    5.2550  -13.5500   27.7357 C   0  0  0  0  0  0  0  0  0  0  0  0
    6.5849  -13.7686   27.4063 C   0  0  0  0  0  0  0  0  0  0  0  0
    6.9493  -14.5312   26.3145 C   0  0  0  0  0  0  0  0  0  0  0  0
    8.2761  -14.7408   25.9985 C   0  0  0  0  0  0  0  0  0  0  0  0
    9.3088  -14.2113   26.7398 C   0  0  0  0  0  0  0  0  0  0  0  0
   10.7425  -14.4254   26.4180 C   0  0  1  0  0  0  0  0  0  0  0  0
   11.3204  -15.6410   27.0967 N   0  0  0  0  0  0  0  0  0  0  0  0
   10.9052  -16.8069   26.3716 C   0  0  0  0  0  0  0  0  0  0  0  0
   10.8717  -15.6849   28.5232 O   0  0  0  0  0  0  0  0  0  0  0  0
   11.2850  -14.8368   29.5110 C   0  0  0  0  0  0  0  0  0  0  0  0
    8.9395  -13.4411   27.8428 C   0  0  0  0  0  0  0  0  0  0  0  0
    7.6149  -13.2347   28.1542 O   0  0  0  0  0  0  0  0  0  0  0  0
  1  2  1  0
  2  3  2  0
  4  5  1  0
  4  2  1  0
  6  5  1  0
  7  6  1  0
  8  9  1  1
  8  7  1  0
 10  8  1  0
 11 10  2  0
 13 12  1  1
 13 14  1  0
 14 10  1  0
 15 13  1  0
 15 24  1  0
 16 15  2  0
 17 18  1  0
 18 28  2  0
 19 18  1  0
 19 20  2  0
 20 21  1  0
 21 27  2  0
 21 22  1  0
 23 22  1  6
 23 24  1  0
 23 25  1  0
 25 29  2  0
 25 26  1  0
 28 27  1  0
M  END
$$$$
