RAY.pdb
     RDKit          3D

 29 29  0  0  1  0  0  0  0  0999 V2000
    8.9582  -11.9788   19.2480 N   0  0  0  0  0  0  0  0  0  0  0  0
    8.2160  -12.9231   18.4941 C   0  0  0  0  0  0  0  0  0  0  0  0
    8.5667  -13.2298   17.2701 N   0  0  0  0  0  0  0  0  0  0  0  0
    7.0854  -13.5255   19.1024 N   0  0  0  0  0  0  0  0  0  0  0  0
    7.0852  -13.8108   20.5050 C   0  0  0  0  0  0  0  0  0  0  0  0
    6.9732  -15.2932   20.7954 C   0  0  0  0  0  0  0  0  0  0  0  0
    6.9176  -15.5645   22.2709 C   0  0  0  0  0  0  0  0  0  0  0  0
    6.7447  -17.0290   22.5221 C   0  0  2  0  0  0  0  0  0  0  0  0
    5.4547  -17.5315   22.1291 N   0  0  0  0  0  0  0  0  0  0  0  0
    7.0358  -17.3235   23.9601 C   0  0  0  0  0  0  0  0  0  0  0  0
    6.1790  -17.1764   24.8389 O   0  0  0  0  0  0  0  0  0  0  0  0
    8.0381  -13.9533   16.7742 C   0  0  0  0  0  0  0  0  0  0  0  0
    9.5394  -19.3476   25.7971 C   0  0  1  0  0  0  0  0  0  0  0  0
    8.7469  -18.0808   25.6552 N   0  0  0  0  0  0  0  0  0  0  0  0
    8.3201  -17.7826   24.3404 C   0  0  0  0  0  0  0  0  0  0  0  0
    9.5753  -16.9698   26.1782 O   0  0  0  0  0  0  0  0  0  0  0  0
   10.4718  -16.4423   25.4666 O   0  0  0  0  0  0  0  0  0  0  0  0
    5.9453  -12.4190   24.3067 C   0  0  0  0  0  0  0  0  0  0  0  0
    6.7764  -12.8820   25.3166 C   0  0  0  0  0  0  0  0  0  0  0  0
    8.1517  -12.8082   25.2195 C   0  0  0  0  0  0  0  0  0  0  0  0
    8.9667  -13.2729   26.2316 C   0  0  0  0  0  0  0  0  0  0  0  0
    8.4697  -13.8323   27.3877 C   0  0  0  0  0  0  0  0  0  0  0  0
    9.3286  -14.3393   28.4877 C   0  0  2  0  0  0  0  0  0  0  0  0
   10.1909  -15.5028   28.0695 N   0  0  0  0  0  0  0  0  0  0  0  0
    9.3480  -16.5071   27.4878 C   0  0  0  0  0  0  0  0  0  0  0  0
   10.9429  -16.0258   29.2524 O   0  0  0  0  0  0  0  0  0  0  0  0
   10.8184  -17.2795   29.7802 C   0  0  0  0  0  0  0  0  0  0  0  0
    7.0800  -13.9065   27.4846 C   0  0  0  0  0  0  0  0  0  0  0  0
    6.2711  -13.4417   26.4727 O   0  0  0  0  0  0  0  0  0  0  0  0
  1  2  1  0
  2  3  2  0
  4  5  1  0
  4  2  1  0
  6  5  1  0
  7  6  1  0
  8  9  1  1
  8  7  1  0
 10  8  1  0
 11 10  2  0
 13 12  1  1
 13 14  1  0
 14 10  1  0
 15 13  1  0
 15 24  1  0
 16 15  2  0
 17 18  1  0
 18 28  2  0
 19 18  1  0
 19 20  2  0
 20 21  1  0
 21 27  2  0
 21 22  1  0
 23 22  1  6
 23 24  1  0
 23 25  1  0
 25 29  2  0
 25 26  1  0
 28 27  1  0
M  END
$$$$
