HLR.pdb
     RDKit          3D

 30 30  0  0  1  0  0  0  0  0999 V2000
   28.1685  -21.4485  -16.9331 N   0  0  0  0  0  0  0  0  0  0  0  0
   27.8290  -20.3484  -16.0280 C   0  0  1  0  0  0  0  0  0  0  0  0
   27.1689  -19.2944  -16.8871 C   0  0  0  0  0  0  0  0  0  0  0  0
   28.1650  -18.5669  -17.7154 C   0  0  0  0  0  0  0  0  0  0  0  0
   28.4322  -18.7259  -19.0487 C   0  0  0  0  0  0  0  0  0  0  0  0
   29.4074  -17.8631  -19.3902 N   0  0  0  0  0  0  0  0  0  0  0  0
   29.7442  -17.1741  -18.2831 C   0  0  0  0  0  0  0  0  0  0  0  0
   28.9971  -17.5967  -17.2730 N   0  0  0  0  0  0  0  0  0  0  0  0
   26.8421  -20.8728  -15.0490 C   0  0  0  0  0  0  0  0  0  0  0  0
   26.0144  -21.7911  -15.3759 O   0  0  0  0  0  0  0  0  0  0  0  0
   25.7186  -21.0349   -8.8549 C   0  0  0  0  0  0  0  0  0  0  0  0
   25.3479  -21.3191  -10.2778 C   0  0  1  0  0  0  0  0  0  0  0  0
   23.9606  -20.7008  -10.4948 C   0  0  0  0  0  0  0  0  0  0  0  0
   26.2547  -20.6782  -11.2968 C   0  0  0  0  0  0  0  0  0  0  0  0
   25.8907  -20.9462  -12.7206 C   0  0  2  0  0  0  0  0  0  0  0  0
   26.7487  -20.4058  -13.7116 N   0  0  0  0  0  0  0  0  0  0  0  0
   24.4618  -20.5511  -12.8978 C   0  0  0  0  0  0  0  0  0  0  0  0
   24.2150  -19.3201  -12.8416 O   0  0  0  0  0  0  0  0  0  0  0  0
   17.3515  -22.9843  -13.0043 N   0  0  0  0  0  0  0  0  0  0  0  0
   16.9274  -22.6996  -14.3239 C   0  0  0  0  0  0  0  0  0  0  0  0
   15.7055  -22.4501  -14.5780 N   0  0  0  0  0  0  0  0  0  0  0  0
   17.8789  -22.6881  -15.4094 N   0  0  0  0  0  0  0  0  0  0  0  0
   19.2559  -22.9759  -15.1669 C   0  0  0  0  0  0  0  0  0  0  0  0
   19.9147  -21.8480  -14.3910 C   0  0  0  0  0  0  0  0  0  0  0  0
   21.3910  -22.0728  -14.2270 C   0  0  0  0  0  0  0  0  0  0  0  0
   22.0968  -20.9727  -13.5102 C   0  0  2  0  0  0  0  0  0  0  0  0
   23.4080  -21.4486  -13.1175 N   0  0  0  0  0  0  0  0  0  0  0  0
   21.3996  -20.4601  -12.3349 C   0  0  0  0  0  0  0  0  0  0  0  0
   20.5415  -19.5355  -12.3549 O   0  0  0  0  0  0  0  0  0  0  0  0
   21.6744  -21.0028  -11.0908 O   0  0  0  0  0  0  0  0  0  0  0  0
  2  1  1  6
  2  9  1  0
  2  3  1  0
  3  4  1  0
  4  5  2  0
  4  8  1  0
  5  6  1  0
  6  7  1  0
  8  7  2  0
  9 10  2  0
 12 11  1  1
 12 14  1  0
 13 12  1  0
 15 14  1  1
 16 15  1  0
 16  9  1  0
 17 27  1  0
 17 15  1  0
 18 17  2  0
 19 20  1  0
 20 22  1  0
 21 20  2  0
 23 22  1  0
 23 24  1  0
 24 25  1  0
 26 25  1  1
 26 27  1  0
 26 28  1  0
 28 30  1  0
 29 28  2  0
M  END
$$$$
