HLR.pdb
     RDKit          3D

 30 30  0  0  1  0  0  0  0  0999 V2000
   22.3426  -23.7993  -14.2899 N   0  0  0  0  0  0  0  0  0  0  0  0
   23.7489  -23.7523  -14.6958 C   0  0  1  0  0  0  0  0  0  0  0  0
   23.7515  -23.9138  -16.1987 C   0  0  0  0  0  0  0  0  0  0  0  0
   23.5773  -25.3358  -16.5923 C   0  0  0  0  0  0  0  0  0  0  0  0
   24.2345  -26.4336  -16.1051 C   0  0  0  0  0  0  0  0  0  0  0  0
   23.7656  -27.5236  -16.7409 N   0  0  0  0  0  0  0  0  0  0  0  0
   22.8270  -27.1105  -17.6139 C   0  0  0  0  0  0  0  0  0  0  0  0
   22.7121  -25.7929  -17.5262 N   0  0  0  0  0  0  0  0  0  0  0  0
   24.2629  -22.4029  -14.3460 C   0  0  0  0  0  0  0  0  0  0  0  0
   23.5047  -21.3746  -14.4014 O   0  0  0  0  0  0  0  0  0  0  0  0
   28.5423  -21.7017  -10.7547 C   0  0  0  0  0  0  0  0  0  0  0  0
   27.2541  -21.5662  -11.5064 C   0  0  1  0  0  0  0  0  0  0  0  0
   26.3286  -20.7144  -10.6279 C   0  0  0  0  0  0  0  0  0  0  0  0
   27.3736  -20.8350  -12.8188 C   0  0  0  0  0  0  0  0  0  0  0  0
   26.1531  -20.8816  -13.6789 C   0  0  2  0  0  0  0  0  0  0  0  0
   25.5998  -22.1620  -13.9333 N   0  0  0  0  0  0  0  0  0  0  0  0
   26.4533  -20.1108  -14.9218 C   0  0  0  0  0  0  0  0  0  0  0  0
   27.1627  -20.6945  -15.7794 O   0  0  0  0  0  0  0  0  0  0  0  0
   19.9345  -16.3894  -17.7491 N   0  0  0  0  0  0  0  0  0  0  0  0
   20.3029  -16.1860  -16.3982 C   0  0  0  0  0  0  0  0  0  0  0  0
   19.4712  -15.7148  -15.5579 N   0  0  0  0  0  0  0  0  0  0  0  0
   21.6357  -16.5108  -15.9487 N   0  0  0  0  0  0  0  0  0  0  0  0
   22.5773  -17.1006  -16.8449 C   0  0  0  0  0  0  0  0  0  0  0  0
   23.9240  -17.2876  -16.1669 C   0  0  0  0  0  0  0  0  0  0  0  0
   24.9418  -17.8754  -17.1026 C   0  0  0  0  0  0  0  0  0  0  0  0
   26.2530  -18.1779  -16.4612 C   0  0  2  0  0  0  0  0  0  0  0  0
   26.0023  -18.8094  -15.1812 N   0  0  0  0  0  0  0  0  0  0  0  0
   27.1210  -17.0210  -16.2645 C   0  0  0  0  0  0  0  0  0  0  0  0
   27.5728  -16.2958  -17.1927 O   0  0  0  0  0  0  0  0  0  0  0  0
   27.4973  -16.6637  -14.9806 O   0  0  0  0  0  0  0  0  0  0  0  0
  2  1  1  6
  2  9  1  0
  2  3  1  0
  3  4  1  0
  4  5  2  0
  4  8  1  0
  5  6  1  0
  6  7  1  0
  8  7  2  0
  9 10  2  0
 12 11  1  1
 12 14  1  0
 13 12  1  0
 15 14  1  6
 16 15  1  0
 16  9  1  0
 17 27  1  0
 17 15  1  0
 18 17  2  0
 19 20  1  0
 20 22  1  0
 21 20  2  0
 23 22  1  0
 23 24  1  0
 24 25  1  0
 26 25  1  1
 26 27  1  0
 26 28  1  0
 28 30  1  0
 29 28  2  0
M  END
$$$$
