HLR.pdb
     RDKit          3D

 30 30  0  0  1  0  0  0  0  0999 V2000
   19.5976  -29.7079   -9.8285 N   0  0  0  0  0  0  0  0  0  0  0  0
   18.2724  -29.1636   -9.5246 C   0  0  1  0  0  0  0  0  0  0  0  0
   17.4622  -30.3217   -8.9890 C   0  0  0  0  0  0  0  0  0  0  0  0
   17.0149  -31.2230  -10.0822 C   0  0  0  0  0  0  0  0  0  0  0  0
   16.1225  -30.9556  -11.0854 C   0  0  0  0  0  0  0  0  0  0  0  0
   16.0116  -32.0535  -11.8564 N   0  0  0  0  0  0  0  0  0  0  0  0
   16.8254  -32.9943  -11.3403 C   0  0  0  0  0  0  0  0  0  0  0  0
   17.4306  -32.4962  -10.2713 N   0  0  0  0  0  0  0  0  0  0  0  0
   18.4485  -28.1500   -8.4526 C   0  0  0  0  0  0  0  0  0  0  0  0
   19.2742  -28.3408   -7.4950 O   0  0  0  0  0  0  0  0  0  0  0  0
   18.3388  -22.6109   -9.4810 C   0  0  0  0  0  0  0  0  0  0  0  0
   18.6299  -23.9974   -8.9955 C   0  0  1  0  0  0  0  0  0  0  0  0
   20.0185  -23.9450   -8.3453 C   0  0  0  0  0  0  0  0  0  0  0  0
   17.6878  -24.4936   -7.9289 C   0  0  0  0  0  0  0  0  0  0  0  0
   17.9404  -25.8914   -7.4664 C   0  0  2  0  0  0  0  0  0  0  0  0
   17.7319  -26.9250   -8.4144 N   0  0  0  0  0  0  0  0  0  0  0  0
   17.1736  -26.0881   -6.2005 C   0  0  0  0  0  0  0  0  0  0  0  0
   15.9755  -26.4456   -6.3269 O   0  0  0  0  0  0  0  0  0  0  0  0
   17.0112  -24.9103    1.6994 N   0  0  0  0  0  0  0  0  0  0  0  0
   16.7810  -26.2848    1.9443 C   0  0  0  0  0  0  0  0  0  0  0  0
   16.1350  -26.6660    2.9725 N   0  0  0  0  0  0  0  0  0  0  0  0
   17.2785  -27.2825    1.0274 N   0  0  0  0  0  0  0  0  0  0  0  0
   17.9999  -26.8943   -0.1417 C   0  0  0  0  0  0  0  0  0  0  0  0
   17.0473  -26.5394   -1.2709 C   0  0  0  0  0  0  0  0  0  0  0  0
   17.7736  -26.3423   -2.5711 C   0  0  0  0  0  0  0  0  0  0  0  0
   16.8762  -26.1151   -3.7395 C   0  0  2  0  0  0  0  0  0  0  0  0
   17.6979  -25.9024   -4.9140 N   0  0  0  0  0  0  0  0  0  0  0  0
   15.9491  -24.9974   -3.5926 C   0  0  0  0  0  0  0  0  0  0  0  0
   16.1202  -23.8516   -4.0922 O   0  0  0  0  0  0  0  0  0  0  0  0
   14.7877  -25.1693   -2.8582 O   0  0  0  0  0  0  0  0  0  0  0  0
  2  1  1  1
  2  9  1  0
  2  3  1  0
  3  4  1  0
  4  5  2  0
  4  8  1  0
  5  6  1  0
  6  7  1  0
  8  7  2  0
  9 10  2  0
 12 11  1  1
 12 14  1  0
 13 12  1  0
 15 14  1  6
 16 15  1  0
 16  9  1  0
 17 27  1  0
 17 15  1  0
 18 17  2  0
 19 20  1  0
 20 22  1  0
 21 20  2  0
 23 22  1  0
 23 24  1  0
 24 25  1  0
 26 25  1  1
 26 27  1  0
 26 28  1  0
 28 30  1  0
 29 28  2  0
M  END
$$$$
