HLR.pdb
     RDKit          3D

 30 30  0  0  1  0  0  0  0  0999 V2000
   16.3168  -11.9162  -14.9994 N   0  0  0  0  0  0  0  0  0  0  0  0
   16.7669  -10.6720  -15.6272 C   0  0  1  0  0  0  0  0  0  0  0  0
   15.6902   -9.6506  -15.3402 C   0  0  0  0  0  0  0  0  0  0  0  0
   14.4550   -9.9309  -16.1169 C   0  0  0  0  0  0  0  0  0  0  0  0
   14.3014   -9.9621  -17.4770 C   0  0  0  0  0  0  0  0  0  0  0  0
   13.0166  -10.2560  -17.7507 N   0  0  0  0  0  0  0  0  0  0  0  0
   12.3766  -10.4066  -16.5753 C   0  0  0  0  0  0  0  0  0  0  0  0
   13.2413  -10.2110  -15.5898 N   0  0  0  0  0  0  0  0  0  0  0  0
   18.0235  -10.2654  -14.9467 C   0  0  0  0  0  0  0  0  0  0  0  0
   18.1331  -10.3276  -13.6741 O   0  0  0  0  0  0  0  0  0  0  0  0
   23.2184   -9.9149  -13.7064 C   0  0  0  0  0  0  0  0  0  0  0  0
   22.8991   -9.2699  -15.0197 C   0  0  1  0  0  0  0  0  0  0  0  0
   24.0540   -9.6220  -15.9663 C   0  0  0  0  0  0  0  0  0  0  0  0
   21.6465   -9.7877  -15.6787 C   0  0  0  0  0  0  0  0  0  0  0  0
   20.3708   -9.3625  -15.0279 C   0  0  2  0  0  0  0  0  0  0  0  0
   19.1669   -9.7913  -15.6419 N   0  0  0  0  0  0  0  0  0  0  0  0
   20.4402   -7.8838  -14.8337 C   0  0  0  0  0  0  0  0  0  0  0  0
   20.3768   -7.1833  -15.8752 O   0  0  0  0  0  0  0  0  0  0  0  0
   15.1509   -4.2891   -9.8500 N   0  0  0  0  0  0  0  0  0  0  0  0
   14.8564   -4.5185  -11.2149 C   0  0  0  0  0  0  0  0  0  0  0  0
   13.6694   -4.3945  -11.6569 N   0  0  0  0  0  0  0  0  0  0  0  0
   15.9031   -4.8996  -12.1330 N   0  0  0  0  0  0  0  0  0  0  0  0
   17.2685   -4.8910  -11.7166 C   0  0  0  0  0  0  0  0  0  0  0  0
   18.1808   -5.3334  -12.8481 C   0  0  0  0  0  0  0  0  0  0  0  0
   19.6158   -5.4079  -12.4098 C   0  0  0  0  0  0  0  0  0  0  0  0
   20.5617   -5.8024  -13.4924 C   0  0  2  0  0  0  0  0  0  0  0  0
   20.5682   -7.2481  -13.5912 N   0  0  0  0  0  0  0  0  0  0  0  0
   21.9300   -5.3265  -13.3149 C   0  0  0  0  0  0  0  0  0  0  0  0
   22.8343   -5.9535  -12.6978 O   0  0  0  0  0  0  0  0  0  0  0  0
   22.2988   -4.1026  -13.8476 O   0  0  0  0  0  0  0  0  0  0  0  0
  2  1  1  1
  2  9  1  0
  2  3  1  0
  3  4  1  0
  4  5  2  0
  4  8  1  0
  5  6  1  0
  6  7  1  0
  8  7  2  0
  9 10  2  0
 12 11  1  1
 12 14  1  0
 13 12  1  0
 15 14  1  6
 16 15  1  0
 16  9  1  0
 17 27  1  0
 17 15  1  0
 18 17  2  0
 19 20  1  0
 20 22  1  0
 21 20  2  0
 23 22  1  0
 23 24  1  0
 24 25  1  0
 26 25  1  1
 26 27  1  0
 26 28  1  0
 28 30  1  0
 29 28  2  0
M  END
$$$$
