HLR.pdb
     RDKit          3D

 30 30  0  0  1  0  0  0  0  0999 V2000
   18.3514  -30.5520   -9.5431 N   0  0  0  0  0  0  0  0  0  0  0  0
   19.3917  -29.6189   -9.9811 C   0  0  1  0  0  0  0  0  0  0  0  0
   19.8201  -30.0905  -11.3519 C   0  0  0  0  0  0  0  0  0  0  0  0
   20.5746  -31.3681  -11.2753 C   0  0  0  0  0  0  0  0  0  0  0  0
   20.1940  -32.6022  -11.7299 C   0  0  0  0  0  0  0  0  0  0  0  0
   21.1799  -33.4766  -11.4546 N   0  0  0  0  0  0  0  0  0  0  0  0
   22.1636  -32.7958  -10.8360 C   0  0  0  0  0  0  0  0  0  0  0  0
   21.8009  -31.5255  -10.7268 N   0  0  0  0  0  0  0  0  0  0  0  0
   18.7602  -28.2792  -10.0978 C   0  0  0  0  0  0  0  0  0  0  0  0
   17.8334  -28.0600  -10.9512 O   0  0  0  0  0  0  0  0  0  0  0  0
   17.6491  -25.1134   -5.6770 C   0  0  0  0  0  0  0  0  0  0  0  0
   17.6954  -25.8517   -6.9793 C   0  0  1  0  0  0  0  0  0  0  0  0
   16.2417  -25.9902   -7.4496 C   0  0  0  0  0  0  0  0  0  0  0  0
   18.4232  -25.1247   -8.0808 C   0  0  0  0  0  0  0  0  0  0  0  0
   18.5437  -25.8824   -9.3626 C   0  0  2  0  0  0  0  0  0  0  0  0
   19.1289  -27.1717   -9.2897 N   0  0  0  0  0  0  0  0  0  0  0  0
   19.2136  -24.9851  -10.3501 C   0  0  0  0  0  0  0  0  0  0  0  0
   20.4425  -24.7875  -10.1763 O   0  0  0  0  0  0  0  0  0  0  0  0
   23.9039  -22.6808  -15.9361 N   0  0  0  0  0  0  0  0  0  0  0  0
   24.0577  -24.0228  -15.5147 C   0  0  0  0  0  0  0  0  0  0  0  0
   25.1431  -24.6533  -15.7250 N   0  0  0  0  0  0  0  0  0  0  0  0
   22.9799  -24.7025  -14.8364 N   0  0  0  0  0  0  0  0  0  0  0  0
   21.7737  -24.0083  -14.5189 C   0  0  0  0  0  0  0  0  0  0  0  0
   20.7805  -24.9350  -13.8384 C   0  0  0  0  0  0  0  0  0  0  0  0
   19.4440  -24.2760  -13.6478 C   0  0  0  0  0  0  0  0  0  0  0  0
   19.3095  -23.5371  -12.3601 C   0  0  2  0  0  0  0  0  0  0  0  0
   18.5696  -24.3670  -11.4306 N   0  0  0  0  0  0  0  0  0  0  0  0
   18.6583  -22.2351  -12.4653 C   0  0  0  0  0  0  0  0  0  0  0  0
   17.5140  -21.9650  -12.0078 O   0  0  0  0  0  0  0  0  0  0  0  0
   19.3130  -21.1973  -13.1072 O   0  0  0  0  0  0  0  0  0  0  0  0
  2  1  1  6
  2  9  1  0
  2  3  1  0
  3  4  1  0
  4  5  2  0
  4  8  1  0
  5  6  1  0
  6  7  1  0
  8  7  2  0
  9 10  2  0
 12 11  1  1
 12 14  1  0
 13 12  1  0
 15 14  1  1
 16 15  1  0
 16  9  1  0
 17 27  1  0
 17 15  1  0
 18 17  2  0
 19 20  1  0
 20 22  1  0
 21 20  2  0
 23 22  1  0
 23 24  1  0
 24 25  1  0
 26 25  1  6
 26 27  1  0
 26 28  1  0
 28 30  1  0
 29 28  2  0
M  END
$$$$
