HLR.pdb
     RDKit          3D

 30 30  0  0  1  0  0  0  0  0999 V2000
   27.9567  -18.0003  -16.0765 N   0  0  0  0  0  0  0  0  0  0  0  0
   27.2893  -17.8999  -14.7769 C   0  0  1  0  0  0  0  0  0  0  0  0
   25.8964  -17.3887  -15.0654 C   0  0  0  0  0  0  0  0  0  0  0  0
   25.9162  -15.9608  -15.4758 C   0  0  0  0  0  0  0  0  0  0  0  0
   27.0037  -15.1491  -15.6564 C   0  0  0  0  0  0  0  0  0  0  0  0
   26.5655  -13.9320  -16.0292 N   0  0  0  0  0  0  0  0  0  0  0  0
   25.2207  -13.9844  -16.0807 C   0  0  0  0  0  0  0  0  0  0  0  0
   24.8275  -15.2056  -15.7474 N   0  0  0  0  0  0  0  0  0  0  0  0
   27.2023  -19.2745  -14.2197 C   0  0  0  0  0  0  0  0  0  0  0  0
   27.0600  -20.2881  -14.9863 O   0  0  0  0  0  0  0  0  0  0  0  0
   29.3558  -20.5176   -9.1390 C   0  0  0  0  0  0  0  0  0  0  0  0
   28.9535  -20.4933  -10.5814 C   0  0  1  0  0  0  0  0  0  0  0  0
   29.9151  -21.4376  -11.3143 C   0  0  0  0  0  0  0  0  0  0  0  0
   27.5667  -21.0191  -10.8492 C   0  0  0  0  0  0  0  0  0  0  0  0
   27.0846  -20.8380  -12.2515 C   0  0  2  0  0  0  0  0  0  0  0  0
   27.2705  -19.5569  -12.8301 N   0  0  0  0  0  0  0  0  0  0  0  0
   25.6684  -21.3080  -12.3008 C   0  0  0  0  0  0  0  0  0  0  0  0
   24.8882  -20.8103  -11.4505 O   0  0  0  0  0  0  0  0  0  0  0  0
   18.7873  -22.7974  -13.0223 N   0  0  0  0  0  0  0  0  0  0  0  0
   18.4786  -21.4180  -13.0874 C   0  0  0  0  0  0  0  0  0  0  0  0
   17.2867  -21.0245  -13.2984 N   0  0  0  0  0  0  0  0  0  0  0  0
   19.5161  -20.4293  -12.9151 N   0  0  0  0  0  0  0  0  0  0  0  0
   20.6708  -20.4393  -13.7544 C   0  0  0  0  0  0  0  0  0  0  0  0
   21.4743  -21.7128  -13.5521 C   0  0  0  0  0  0  0  0  0  0  0  0
   22.9376  -21.4251  -13.3703 C   0  0  0  0  0  0  0  0  0  0  0  0
   23.7778  -22.6431  -13.1892 C   0  0  2  0  0  0  0  0  0  0  0  0
   25.1714  -22.2466  -13.2154 N   0  0  0  0  0  0  0  0  0  0  0  0
   23.5580  -23.6926  -14.1794 C   0  0  0  0  0  0  0  0  0  0  0  0
   22.6117  -24.5262  -14.1448 O   0  0  0  0  0  0  0  0  0  0  0  0
   24.4312  -23.8133  -15.2475 O   0  0  0  0  0  0  0  0  0  0  0  0
  2  1  1  6
  2  9  1  0
  2  3  1  0
  3  4  1  0
  4  5  2  0
  4  8  1  0
  5  6  1  0
  6  7  1  0
  8  7  2  0
  9 10  2  0
 12 11  1  1
 12 14  1  0
 13 12  1  0
 15 14  1  1
 16 15  1  0
 16  9  1  0
 17 27  1  0
 17 15  1  0
 18 17  2  0
 19 20  1  0
 20 22  1  0
 21 20  2  0
 23 22  1  0
 23 24  1  0
 24 25  1  0
 26 25  1  6
 26 27  1  0
 26 28  1  0
 28 30  1  0
 29 28  2  0
M  END
$$$$
