HLR.pdb
     RDKit          3D

 30 30  0  0  1  0  0  0  0  0999 V2000
   21.7426  -20.2568  -15.0265 N   0  0  0  0  0  0  0  0  0  0  0  0
   21.9087  -19.3668  -16.1776 C   0  0  1  0  0  0  0  0  0  0  0  0
   20.5113  -19.0040  -16.6253 C   0  0  0  0  0  0  0  0  0  0  0  0
   19.8856  -20.1070  -17.3996 C   0  0  0  0  0  0  0  0  0  0  0  0
   18.8128  -20.8820  -17.0494 C   0  0  0  0  0  0  0  0  0  0  0  0
   18.5823  -21.7592  -18.0441 N   0  0  0  0  0  0  0  0  0  0  0  0
   19.5003  -21.5336  -19.0034 C   0  0  0  0  0  0  0  0  0  0  0  0
   20.2866  -20.5388  -18.6170 N   0  0  0  0  0  0  0  0  0  0  0  0
   22.6018  -18.1453  -15.6929 C   0  0  0  0  0  0  0  0  0  0  0  0
   22.3977  -17.6968  -14.5129 O   0  0  0  0  0  0  0  0  0  0  0  0
   27.9061  -17.5098  -16.2978 C   0  0  0  0  0  0  0  0  0  0  0  0
   26.4827  -17.4510  -15.8358 C   0  0  1  0  0  0  0  0  0  0  0  0
   26.5294  -17.3109  -14.3087 C   0  0  0  0  0  0  0  0  0  0  0  0
   25.7134  -16.2577  -16.3413 C   0  0  0  0  0  0  0  0  0  0  0  0
   24.2511  -16.2761  -16.0365 C   0  0  2  0  0  0  0  0  0  0  0  0
   23.5198  -17.4055  -16.4838 N   0  0  0  0  0  0  0  0  0  0  0  0
   23.6806  -14.9793  -16.5075 C   0  0  0  0  0  0  0  0  0  0  0  0
   23.2968  -14.9433  -17.7037 O   0  0  0  0  0  0  0  0  0  0  0  0
   21.4510   -7.2654  -12.5592 N   0  0  0  0  0  0  0  0  0  0  0  0
   21.0953   -7.1185  -13.9209 C   0  0  0  0  0  0  0  0  0  0  0  0
   20.5326   -6.0559  -14.3381 N   0  0  0  0  0  0  0  0  0  0  0  0
   21.3657   -8.1774  -14.8639 N   0  0  0  0  0  0  0  0  0  0  0  0
   22.0410   -9.3633  -14.4452 C   0  0  0  0  0  0  0  0  0  0  0  0
   22.2129  -10.3259  -15.6081 C   0  0  0  0  0  0  0  0  0  0  0  0
   22.8390  -11.6200  -15.1720 C   0  0  0  0  0  0  0  0  0  0  0  0
   23.0712  -12.5868  -16.2828 C   0  0  2  0  0  0  0  0  0  0  0  0
   23.5515  -13.8305  -15.7150 N   0  0  0  0  0  0  0  0  0  0  0  0
   24.0077  -12.1321  -17.3058 C   0  0  0  0  0  0  0  0  0  0  0  0
   25.2640  -12.1636  -17.1948 O   0  0  0  0  0  0  0  0  0  0  0  0
   23.5187  -11.6226  -18.4970 O   0  0  0  0  0  0  0  0  0  0  0  0
  2  1  1  1
  2  9  1  0
  2  3  1  0
  3  4  1  0
  4  5  2  0
  4  8  1  0
  5  6  1  0
  6  7  1  0
  8  7  2  0
  9 10  2  0
 12 11  1  6
 12 14  1  0
 13 12  1  0
 15 14  1  6
 16 15  1  0
 16  9  1  0
 17 27  1  0
 17 15  1  0
 18 17  2  0
 19 20  1  0
 20 22  1  0
 21 20  2  0
 23 22  1  0
 23 24  1  0
 24 25  1  0
 26 25  1  1
 26 27  1  0
 26 28  1  0
 28 30  1  0
 29 28  2  0
M  END
$$$$
