HLR.pdb
     RDKit          3D

 30 30  0  0  1  0  0  0  0  0999 V2000
   19.7834  -21.1157  -12.3809 N   0  0  0  0  0  0  0  0  0  0  0  0
   20.8218  -21.8040  -13.1509 C   0  0  1  0  0  0  0  0  0  0  0  0
   20.3036  -21.8802  -14.5688 C   0  0  0  0  0  0  0  0  0  0  0  0
   19.2047  -22.8725  -14.6927 C   0  0  0  0  0  0  0  0  0  0  0  0
   17.9694  -22.6987  -15.2567 C   0  0  0  0  0  0  0  0  0  0  0  0
   17.2911  -23.8570  -15.1543 N   0  0  0  0  0  0  0  0  0  0  0  0
   18.0940  -24.7426  -14.5340 C   0  0  0  0  0  0  0  0  0  0  0  0
   19.2472  -24.1515  -14.2548 N   0  0  0  0  0  0  0  0  0  0  0  0
   22.0353  -20.9474  -13.1168 C   0  0  0  0  0  0  0  0  0  0  0  0
   21.9418  -19.6722  -13.1313 O   0  0  0  0  0  0  0  0  0  0  0  0
   26.3951  -21.6699   -9.8258 C   0  0  0  0  0  0  0  0  0  0  0  0
   25.2912  -21.1806  -10.7117 C   0  0  1  0  0  0  0  0  0  0  0  0
   25.0101  -19.7319  -10.2921 C   0  0  0  0  0  0  0  0  0  0  0  0
   25.6447  -21.1302  -12.1759 C   0  0  0  0  0  0  0  0  0  0  0  0
   24.5378  -20.6871  -13.0759 C   0  0  2  0  0  0  0  0  0  0  0  0
   23.3548  -21.4687  -13.0655 N   0  0  0  0  0  0  0  0  0  0  0  0
   25.1162  -20.5102  -14.4409 C   0  0  0  0  0  0  0  0  0  0  0  0
   25.2698  -21.5571  -15.1190 O   0  0  0  0  0  0  0  0  0  0  0  0
   22.9853  -17.2052  -21.5175 N   0  0  0  0  0  0  0  0  0  0  0  0
   24.3745  -17.3188  -21.7611 C   0  0  0  0  0  0  0  0  0  0  0  0
   24.8353  -17.2789  -22.9468 N   0  0  0  0  0  0  0  0  0  0  0  0
   25.2966  -17.4835  -20.6628 N   0  0  0  0  0  0  0  0  0  0  0  0
   24.8185  -17.5341  -19.3187 C   0  0  0  0  0  0  0  0  0  0  0  0
   25.9743  -17.6380  -18.3380 C   0  0  0  0  0  0  0  0  0  0  0  0
   25.4950  -17.8926  -16.9372 C   0  0  0  0  0  0  0  0  0  0  0  0
   25.9543  -19.1902  -16.3648 C   0  0  2  0  0  0  0  0  0  0  0  0
   25.4879  -19.2779  -14.9956 N   0  0  0  0  0  0  0  0  0  0  0  0
   27.3989  -19.3965  -16.3945 C   0  0  0  0  0  0  0  0  0  0  0  0
   28.0659  -19.6594  -17.4326 O   0  0  0  0  0  0  0  0  0  0  0  0
   28.1231  -19.3058  -15.2176 O   0  0  0  0  0  0  0  0  0  0  0  0
  2  1  1  1
  2  9  1  0
  2  3  1  0
  3  4  1  0
  4  5  2  0
  4  8  1  0
  5  6  1  0
  6  7  1  0
  8  7  2  0
  9 10  2  0
 12 11  1  1
 12 14  1  0
 13 12  1  0
 15 14  1  1
 16 15  1  0
 16  9  1  0
 17 27  1  0
 17 15  1  0
 18 17  2  0
 19 20  1  0
 20 22  1  0
 21 20  2  0
 23 22  1  0
 23 24  1  0
 24 25  1  0
 26 25  1  1
 26 27  1  0
 26 28  1  0
 28 30  1  0
 29 28  2  0
M  END
$$$$
