HLR.pdb
     RDKit          3D

 30 30  0  0  1  0  0  0  0  0999 V2000
   27.3867  -21.8655  -15.1674 N   0  0  0  0  0  0  0  0  0  0  0  0
   26.8497  -20.6643  -14.5243 C   0  0  1  0  0  0  0  0  0  0  0  0
   26.0749  -19.9323  -15.5960 C   0  0  0  0  0  0  0  0  0  0  0  0
   26.9826  -19.3261  -16.6040 C   0  0  0  0  0  0  0  0  0  0  0  0
   27.1729  -19.7055  -17.9056 C   0  0  0  0  0  0  0  0  0  0  0  0
   28.0840  -18.8821  -18.4571 N   0  0  0  0  0  0  0  0  0  0  0  0
   28.4570  -17.9995  -17.5108 C   0  0  0  0  0  0  0  0  0  0  0  0
   27.7949  -18.2653  -16.3936 N   0  0  0  0  0  0  0  0  0  0  0  0
   25.9133  -21.1151  -13.4625 C   0  0  0  0  0  0  0  0  0  0  0  0
   25.3699  -22.2716  -13.5113 O   0  0  0  0  0  0  0  0  0  0  0  0
   26.7224  -21.5327   -9.3829 C   0  0  0  0  0  0  0  0  0  0  0  0
   25.5468  -20.7349   -8.9092 C   0  0  1  0  0  0  0  0  0  0  0  0
   26.1035  -19.6682   -7.9574 C   0  0  0  0  0  0  0  0  0  0  0  0
   24.8237  -19.9859   -9.9989 C   0  0  0  0  0  0  0  0  0  0  0  0
   24.7003  -20.7213  -11.2933 C   0  0  2  0  0  0  0  0  0  0  0  0
   25.5630  -20.3156  -12.3429 N   0  0  0  0  0  0  0  0  0  0  0  0
   23.2576  -20.7097  -11.6774 C   0  0  0  0  0  0  0  0  0  0  0  0
   22.9380  -19.9329  -12.6122 O   0  0  0  0  0  0  0  0  0  0  0  0
   16.8200  -26.0735   -9.4718 N   0  0  0  0  0  0  0  0  0  0  0  0
   17.6230  -26.0372  -10.6363 C   0  0  0  0  0  0  0  0  0  0  0  0
   17.8064  -27.0842  -11.3363 N   0  0  0  0  0  0  0  0  0  0  0  0
   18.2513  -24.8056  -11.0512 N   0  0  0  0  0  0  0  0  0  0  0  0
   17.8890  -23.5676  -10.4399 C   0  0  0  0  0  0  0  0  0  0  0  0
   18.6232  -22.4082  -11.0919 C   0  0  0  0  0  0  0  0  0  0  0  0
   20.0948  -22.4415  -10.7919 C   0  0  0  0  0  0  0  0  0  0  0  0
   20.8759  -21.3636  -11.4631 C   0  0  2  0  0  0  0  0  0  0  0  0
   22.2654  -21.4935  -11.0728 N   0  0  0  0  0  0  0  0  0  0  0  0
   20.4208  -20.0069  -11.1761 C   0  0  0  0  0  0  0  0  0  0  0  0
   20.8591  -19.2853  -10.2386 O   0  0  0  0  0  0  0  0  0  0  0  0
   19.4378  -19.4376  -11.9681 O   0  0  0  0  0  0  0  0  0  0  0  0
  2  1  1  6
  2  9  1  0
  2  3  1  0
  3  4  1  0
  4  5  2  0
  4  8  1  0
  5  6  1  0
  6  7  1  0
  8  7  2  0
  9 10  2  0
 12 11  1  6
 12 14  1  0
 13 12  1  0
 15 14  1  1
 16 15  1  0
 16  9  1  0
 17 27  1  0
 17 15  1  0
 18 17  2  0
 19 20  1  0
 20 22  1  0
 21 20  2  0
 23 22  1  0
 23 24  1  0
 24 25  1  0
 26 25  1  1
 26 27  1  0
 26 28  1  0
 28 30  1  0
 29 28  2  0
M  END
$$$$
