HLR.pdb
     RDKit          3D

 30 30  0  0  1  0  0  0  0  0999 V2000
   14.7116  -20.5970    1.4463 N   0  0  0  0  0  0  0  0  0  0  0  0
   14.4003  -19.2876    2.0235 C   0  0  1  0  0  0  0  0  0  0  0  0
   13.1493  -19.4858    2.8485 C   0  0  0  0  0  0  0  0  0  0  0  0
   11.9488  -19.6379    1.9864 C   0  0  0  0  0  0  0  0  0  0  0  0
   11.0680  -18.6691    1.5866 C   0  0  0  0  0  0  0  0  0  0  0  0
   10.1288  -19.2449    0.8128 N   0  0  0  0  0  0  0  0  0  0  0  0
   10.4208  -20.5571    0.7310 C   0  0  0  0  0  0  0  0  0  0  0  0
   11.5167  -20.7960    1.4374 N   0  0  0  0  0  0  0  0  0  0  0  0
   15.5274  -18.9230    2.9203 C   0  0  0  0  0  0  0  0  0  0  0  0
   16.2615  -19.8233    3.4547 O   0  0  0  0  0  0  0  0  0  0  0  0
   18.8485  -14.4615    2.0694 C   0  0  0  0  0  0  0  0  0  0  0  0
   18.2790  -15.8060    2.4022 C   0  0  1  0  0  0  0  0  0  0  0  0
   19.4685  -16.7718    2.4808 C   0  0  0  0  0  0  0  0  0  0  0  0
   17.5942  -15.8769    3.7429 C   0  0  0  0  0  0  0  0  0  0  0  0
   16.9573  -17.1915    4.0558 C   0  0  2  0  0  0  0  0  0  0  0  0
   15.8647  -17.5817    3.2407 N   0  0  0  0  0  0  0  0  0  0  0  0
   16.6371  -17.1964    5.5141 C   0  0  0  0  0  0  0  0  0  0  0  0
   15.4930  -16.7855    5.8328 O   0  0  0  0  0  0  0  0  0  0  0  0
   19.0266  -22.0121   12.5158 N   0  0  0  0  0  0  0  0  0  0  0  0
   18.1979  -20.9931   13.0421 C   0  0  0  0  0  0  0  0  0  0  0  0
   17.8710  -20.9871   14.2722 N   0  0  0  0  0  0  0  0  0  0  0  0
   17.7064  -19.9384   12.1878 N   0  0  0  0  0  0  0  0  0  0  0  0
   18.0225  -19.9293   10.7957 C   0  0  0  0  0  0  0  0  0  0  0  0
   17.3803  -18.7387   10.1041 C   0  0  0  0  0  0  0  0  0  0  0  0
   17.7095  -18.7015    8.6388 C   0  0  0  0  0  0  0  0  0  0  0  0
   17.1424  -17.5259    7.9187 C   0  0  2  0  0  0  0  0  0  0  0  0
   17.5142  -17.6213    6.5213 N   0  0  0  0  0  0  0  0  0  0  0  0
   17.5596  -16.2279    8.4396 C   0  0  0  0  0  0  0  0  0  0  0  0
   18.3791  -15.4553    7.8711 O   0  0  0  0  0  0  0  0  0  0  0  0
   17.0401  -15.7790    9.6422 O   0  0  0  0  0  0  0  0  0  0  0  0
  2  1  1  1
  2  9  1  0
  2  3  1  0
  3  4  1  0
  4  5  2  0
  4  8  1  0
  5  6  1  0
  6  7  1  0
  8  7  2  0
  9 10  2  0
 12 11  1  1
 12 14  1  0
 13 12  1  0
 15 14  1  6
 16 15  1  0
 16  9  1  0
 17 27  1  0
 17 15  1  0
 18 17  2  0
 19 20  1  0
 20 22  1  0
 21 20  2  0
 23 22  1  0
 23 24  1  0
 24 25  1  0
 26 25  1  1
 26 27  1  0
 26 28  1  0
 28 30  1  0
 29 28  2  0
M  END
$$$$
