HLR.pdb
     RDKit          3D

 30 30  0  0  1  0  0  0  0  0999 V2000
   24.0782   -6.6113  -17.3042 N   0  0  0  0  0  0  0  0  0  0  0  0
   23.8953   -7.6799  -16.3196 C   0  0  1  0  0  0  0  0  0  0  0  0
   22.4019   -7.8185  -16.1319 C   0  0  0  0  0  0  0  0  0  0  0  0
   21.8338   -6.6478  -15.4146 C   0  0  0  0  0  0  0  0  0  0  0  0
   20.8007   -5.8385  -15.8043 C   0  0  0  0  0  0  0  0  0  0  0  0
   20.6163   -4.9018  -14.8552 N   0  0  0  0  0  0  0  0  0  0  0  0
   21.5234   -5.1247  -13.8851 C   0  0  0  0  0  0  0  0  0  0  0  0
   22.2581   -6.1759  -14.2202 N   0  0  0  0  0  0  0  0  0  0  0  0
   24.4328   -8.9280  -16.9202 C   0  0  0  0  0  0  0  0  0  0  0  0
   24.4192   -9.1087  -18.1860 O   0  0  0  0  0  0  0  0  0  0  0  0
   27.9543  -12.9843  -17.5116 C   0  0  0  0  0  0  0  0  0  0  0  0
   26.9797  -13.2348  -16.4024 C   0  0  1  0  0  0  0  0  0  0  0  0
   27.7646  -13.9391  -15.2882 C   0  0  0  0  0  0  0  0  0  0  0  0
   26.4065  -11.9856  -15.7840 C   0  0  0  0  0  0  0  0  0  0  0  0
   25.5323  -11.1795  -16.6882 C   0  0  2  0  0  0  0  0  0  0  0  0
   24.9885   -9.9848  -16.1521 N   0  0  0  0  0  0  0  0  0  0  0  0
   24.4980  -12.1003  -17.2464 C   0  0  0  0  0  0  0  0  0  0  0  0
   23.5404  -12.3869  -16.4846 O   0  0  0  0  0  0  0  0  0  0  0  0
   22.2992  -14.7108  -25.4808 N   0  0  0  0  0  0  0  0  0  0  0  0
   21.4704  -15.4687  -24.6202 C   0  0  0  0  0  0  0  0  0  0  0  0
   20.5855  -16.2539  -25.0896 N   0  0  0  0  0  0  0  0  0  0  0  0
   21.6154  -15.3627  -23.1879 N   0  0  0  0  0  0  0  0  0  0  0  0
   22.5892  -14.4852  -22.6227 C   0  0  0  0  0  0  0  0  0  0  0  0
   22.5141  -14.5007  -21.1053 C   0  0  0  0  0  0  0  0  0  0  0  0
   23.5588  -13.6159  -20.4869 C   0  0  0  0  0  0  0  0  0  0  0  0
   23.4669  -13.5141  -19.0025 C   0  0  2  0  0  0  0  0  0  0  0  0
   24.5316  -12.6490  -18.5356 N   0  0  0  0  0  0  0  0  0  0  0  0
   23.5381  -14.7886  -18.2948 C   0  0  0  0  0  0  0  0  0  0  0  0
   24.6033  -15.4242  -18.0647 O   0  0  0  0  0  0  0  0  0  0  0  0
   22.3726  -15.3733  -17.8283 O   0  0  0  0  0  0  0  0  0  0  0  0
  2  1  1  6
  2  9  1  0
  2  3  1  0
  3  4  1  0
  4  5  2  0
  4  8  1  0
  5  6  1  0
  6  7  1  0
  8  7  2  0
  9 10  2  0
 12 11  1  6
 12 14  1  0
 13 12  1  0
 15 14  1  1
 16 15  1  0
 16  9  1  0
 17 27  1  0
 17 15  1  0
 18 17  2  0
 19 20  1  0
 20 22  1  0
 21 20  2  0
 23 22  1  0
 23 24  1  0
 24 25  1  0
 26 25  1  6
 26 27  1  0
 26 28  1  0
 28 30  1  0
 29 28  2  0
M  END
$$$$
