HLR.pdb
     RDKit          3D

 30 30  0  0  1  0  0  0  0  0999 V2000
   28.4539  -21.3458  -16.6869 N   0  0  0  0  0  0  0  0  0  0  0  0
   28.0193  -20.2655  -15.7987 C   0  0  1  0  0  0  0  0  0  0  0  0
   27.2537  -19.2962  -16.6700 C   0  0  0  0  0  0  0  0  0  0  0  0
   28.1711  -18.4330  -17.4579 C   0  0  0  0  0  0  0  0  0  0  0  0
   29.5389  -18.3947  -17.4158 C   0  0  0  0  0  0  0  0  0  0  0  0
   29.9631  -17.4680  -18.2953 N   0  0  0  0  0  0  0  0  0  0  0  0
   28.8728  -16.9351  -18.8792 C   0  0  0  0  0  0  0  0  0  0  0  0
   27.7921  -17.5149  -18.3760 N   0  0  0  0  0  0  0  0  0  0  0  0
   27.0961  -20.8623  -14.7993 C   0  0  0  0  0  0  0  0  0  0  0  0
   26.4046  -21.9009  -15.0792 O   0  0  0  0  0  0  0  0  0  0  0  0
   25.7463  -20.7603   -8.6459 C   0  0  0  0  0  0  0  0  0  0  0  0
   25.4595  -21.1608  -10.0602 C   0  0  1  0  0  0  0  0  0  0  0  0
   24.0288  -20.6949  -10.3597 C   0  0  0  0  0  0  0  0  0  0  0  0
   26.3392  -20.4936  -11.0861 C   0  0  0  0  0  0  0  0  0  0  0  0
   26.0739  -20.8958  -12.5001 C   0  0  2  0  0  0  0  0  0  0  0  0
   26.9192  -20.3374  -13.4921 N   0  0  0  0  0  0  0  0  0  0  0  0
   24.6225  -20.6667  -12.7644 C   0  0  0  0  0  0  0  0  0  0  0  0
   24.2566  -19.4676  -12.8526 O   0  0  0  0  0  0  0  0  0  0  0  0
   17.5392  -23.3869  -13.1035 N   0  0  0  0  0  0  0  0  0  0  0  0
   17.3127  -23.2934  -14.4971 C   0  0  0  0  0  0  0  0  0  0  0  0
   16.1558  -23.0248  -14.9544 N   0  0  0  0  0  0  0  0  0  0  0  0
   18.3960  -23.5029  -15.4280 N   0  0  0  0  0  0  0  0  0  0  0  0
   19.7250  -23.7191  -14.9539 C   0  0  0  0  0  0  0  0  0  0  0  0
   20.2554  -22.4814  -14.2503 C   0  0  0  0  0  0  0  0  0  0  0  0
   21.7154  -22.6104  -13.9212 C   0  0  0  0  0  0  0  0  0  0  0  0
   22.3180  -21.3772  -13.3394 C   0  0  2  0  0  0  0  0  0  0  0  0
   23.6696  -21.6834  -12.9160 N   0  0  0  0  0  0  0  0  0  0  0  0
   21.5808  -20.8050  -12.2173 C   0  0  0  0  0  0  0  0  0  0  0  0
   21.6844  -21.1876  -11.0196 O   0  0  0  0  0  0  0  0  0  0  0  0
   20.6940  -19.7660  -12.4454 O   0  0  0  0  0  0  0  0  0  0  0  0
  2  1  1  6
  2  9  1  0
  2  3  1  0
  3  4  1  0
  4  5  2  0
  4  8  1  0
  5  6  1  0
  6  7  1  0
  8  7  2  0
  9 10  2  0
 12 11  1  1
 12 14  1  0
 13 12  1  0
 15 14  1  1
 16 15  1  0
 16  9  1  0
 17 27  1  0
 17 15  1  0
 18 17  2  0
 19 20  1  0
 20 22  1  0
 21 20  2  0
 23 22  1  0
 23 24  1  0
 24 25  1  0
 26 25  1  1
 26 27  1  0
 26 28  1  0
 28 30  1  0
 29 28  2  0
M  END
$$$$
