HLR.pdb
     RDKit          3D

 30 30  0  0  1  0  0  0  0  0999 V2000
   27.6938  -21.6445  -15.1764 N   0  0  0  0  0  0  0  0  0  0  0  0
   27.2804  -20.4946  -14.3693 C   0  0  1  0  0  0  0  0  0  0  0  0
   26.5593  -19.5624  -15.3158 C   0  0  0  0  0  0  0  0  0  0  0  0
   27.5134  -18.8280  -16.1865 C   0  0  0  0  0  0  0  0  0  0  0  0
   28.0905  -19.2523  -17.3532 C   0  0  0  0  0  0  0  0  0  0  0  0
   28.8885  -18.2700  -17.8117 N   0  0  0  0  0  0  0  0  0  0  0  0
   28.8098  -17.2452  -16.9414 C   0  0  0  0  0  0  0  0  0  0  0  0
   27.9820  -17.5794  -15.9614 N   0  0  0  0  0  0  0  0  0  0  0  0
   26.3235  -20.9948  -13.3487 C   0  0  0  0  0  0  0  0  0  0  0  0
   25.6171  -22.0387  -13.5639 O   0  0  0  0  0  0  0  0  0  0  0  0
   26.6810  -19.4030   -7.9361 C   0  0  0  0  0  0  0  0  0  0  0  0
   26.4113  -20.3332   -9.0784 C   0  0  1  0  0  0  0  0  0  0  0  0
   26.2200  -21.7265   -8.4653 C   0  0  0  0  0  0  0  0  0  0  0  0
   25.1448  -20.0340   -9.8386 C   0  0  0  0  0  0  0  0  0  0  0  0
   25.0652  -20.6506  -11.1969 C   0  0  2  0  0  0  0  0  0  0  0  0
   26.1291  -20.3671  -12.0902 N   0  0  0  0  0  0  0  0  0  0  0  0
   23.7207  -20.3233  -11.7574 C   0  0  0  0  0  0  0  0  0  0  0  0
   23.6111  -19.2053  -12.3208 O   0  0  0  0  0  0  0  0  0  0  0  0
   22.9146  -22.3696  -17.4094 N   0  0  0  0  0  0  0  0  0  0  0  0
   21.6463  -21.9856  -17.9056 C   0  0  0  0  0  0  0  0  0  0  0  0
   21.5143  -21.5494  -19.0939 N   0  0  0  0  0  0  0  0  0  0  0  0
   20.4751  -22.0822  -17.0672 N   0  0  0  0  0  0  0  0  0  0  0  0
   20.5836  -22.5581  -15.7257 C   0  0  0  0  0  0  0  0  0  0  0  0
   20.9367  -21.4246  -14.7776 C   0  0  0  0  0  0  0  0  0  0  0  0
   21.0631  -21.9037  -13.3594 C   0  0  0  0  0  0  0  0  0  0  0  0
   21.3737  -20.8243  -12.3793 C   0  0  2  0  0  0  0  0  0  0  0  0
   22.6036  -21.1674  -11.6940 N   0  0  0  0  0  0  0  0  0  0  0  0
   20.3280  -20.5721  -11.3928 C   0  0  0  0  0  0  0  0  0  0  0  0
   19.3584  -19.7824  -11.5594 O   0  0  0  0  0  0  0  0  0  0  0  0
   20.3704  -21.2285  -10.1741 O   0  0  0  0  0  0  0  0  0  0  0  0
  2  1  1  6
  2  9  1  0
  2  3  1  0
  3  4  1  0
  4  5  2  0
  4  8  1  0
  5  6  1  0
  6  7  1  0
  8  7  2  0
  9 10  2  0
 12 11  1  1
 12 14  1  0
 13 12  1  0
 15 14  1  1
 16 15  1  0
 16  9  1  0
 17 27  1  0
 17 15  1  0
 18 17  2  0
 19 20  1  0
 20 22  1  0
 21 20  2  0
 23 22  1  0
 23 24  1  0
 24 25  1  0
 26 25  1  6
 26 27  1  0
 26 28  1  0
 28 30  1  0
 29 28  2  0
M  END
$$$$
