TQA.pdb
     RDKit          3D

 22 21  0  0  1  0  0  0  0  0999 V2000
   18.8525  -11.1278  -18.9891 C   0  0  0  0  0  0  0  0  0  0  0  0
   18.4087  -10.0349  -18.0446 C   0  0  1  0  0  0  0  0  0  0  0  0
   17.1448  -10.2965  -17.5351 O   0  0  0  0  0  0  0  0  0  0  0  0
   19.4245   -9.9376  -16.9372 C   0  0  2  0  0  0  0  0  0  0  0  0
   19.6327  -11.2037  -16.2876 N   0  0  0  0  0  0  0  0  0  0  0  0
   19.0621   -8.8813  -15.9510 C   0  0  0  0  0  0  0  0  0  0  0  0
   18.6947   -9.1913  -14.7729 O   0  0  0  0  0  0  0  0  0  0  0  0
   21.9362   -6.3372  -12.5012 N   0  0  0  0  0  0  0  0  0  0  0  0
   22.1256   -5.5731  -13.6744 C   0  0  0  0  0  0  0  0  0  0  0  0
   23.1599   -4.8892  -13.7860 O   0  0  0  0  0  0  0  0  0  0  0  0
   21.0855   -5.6042  -14.7471 C   0  0  0  0  0  0  0  0  0  0  0  0
   19.9572   -6.5361  -14.3847 C   0  0  0  0  0  0  0  0  0  0  0  0
   18.8878   -6.4604  -15.4197 C   0  0  2  0  0  0  0  0  0  0  0  0
   19.1395   -7.5362  -16.3640 N   0  0  0  0  0  0  0  0  0  0  0  0
   18.7910   -5.2026  -16.1616 C   0  0  0  0  0  0  0  0  0  0  0  0
   19.5326   -4.8623  -17.1344 O   0  0  0  0  0  0  0  0  0  0  0  0
   16.3294   -2.2783  -16.0198 C   0  0  0  0  0  0  0  0  0  0  0  0
   17.5466   -3.0235  -16.4848 C   0  0  2  0  0  0  0  0  0  0  0  0
   17.7757   -4.2540  -15.7730 N   0  0  0  0  0  0  0  0  0  0  0  0
   18.7380   -2.1647  -16.4731 C   0  0  0  0  0  0  0  0  0  0  0  0
   19.5286   -2.2276  -15.4755 O   0  0  0  0  0  0  0  0  0  0  0  0
   19.0188   -1.3006  -17.5051 O   0  0  0  0  0  0  0  0  0  0  0  0
  2  4  1  0
  2  1  1  6
  3  2  1  0
  4  5  1  1
  6  4  1  0
  6 14  1  0
  7  6  2  0
  8  9  1  0
  9 11  1  0
 10  9  2  0
 11 12  1  0
 13 12  1  1
 13 14  1  0
 15 13  1  0
 16 15  2  0
 18 19  1  0
 18 17  1  1
 19 15  1  0
 20 18  1  0
 21 20  2  0
 22 20  1  0
M  END
$$$$
