TQA.pdb
     RDKit          3D

 22 21  0  0  1  0  0  0  0  0999 V2000
   23.5122  -10.5255  -15.7640 C   0  0  0  0  0  0  0  0  0  0  0  0
   22.7798  -11.2934  -16.8398 C   0  0  1  0  0  0  0  0  0  0  0  0
   23.4938  -12.4190  -17.2252 O   0  0  0  0  0  0  0  0  0  0  0  0
   21.4272  -11.6746  -16.2988 C   0  0  2  0  0  0  0  0  0  0  0  0
   20.7222  -12.5562  -17.1899 N   0  0  0  0  0  0  0  0  0  0  0  0
   20.6081  -10.4737  -15.9723 C   0  0  0  0  0  0  0  0  0  0  0  0
   19.9332   -9.8830  -16.8749 O   0  0  0  0  0  0  0  0  0  0  0  0
   17.3776   -9.5165  -10.9630 N   0  0  0  0  0  0  0  0  0  0  0  0
   17.4050   -8.2068  -11.4921 C   0  0  0  0  0  0  0  0  0  0  0  0
   16.6747   -7.3370  -10.9821 O   0  0  0  0  0  0  0  0  0  0  0  0
   18.3049   -7.8991  -12.6450 C   0  0  0  0  0  0  0  0  0  0  0  0
   19.0581   -9.1265  -13.0905 C   0  0  0  0  0  0  0  0  0  0  0  0
   19.8964   -8.8008  -14.2787 C   0  0  2  0  0  0  0  0  0  0  0  0
   20.6059  -10.0170  -14.6391 N   0  0  0  0  0  0  0  0  0  0  0  0
   20.8737   -7.7249  -14.1076 C   0  0  0  0  0  0  0  0  0  0  0  0
   21.8569   -7.7437  -13.3045 O   0  0  0  0  0  0  0  0  0  0  0  0
   21.4188   -4.3825  -15.8846 C   0  0  0  0  0  0  0  0  0  0  0  0
   21.6458   -5.4262  -14.8299 C   0  0  2  0  0  0  0  0  0  0  0  0
   20.7280   -6.5330  -14.9076 N   0  0  0  0  0  0  0  0  0  0  0  0
   21.6638   -4.8349  -13.4855 C   0  0  0  0  0  0  0  0  0  0  0  0
   20.6187   -4.9265  -12.7621 O   0  0  0  0  0  0  0  0  0  0  0  0
   22.7732   -4.1894  -12.9924 O   0  0  0  0  0  0  0  0  0  0  0  0
  2  4  1  0
  2  1  1  1
  3  2  1  0
  4  5  1  6
  6  4  1  0
  6 14  1  0
  7  6  2  0
  8  9  1  0
  9 11  1  0
 10  9  2  0
 11 12  1  0
 13 12  1  1
 13 14  1  0
 15 13  1  0
 16 15  2  0
 18 19  1  0
 18 17  1  6
 19 15  1  0
 20 18  1  0
 21 20  2  0
 22 20  1  0
M  END
$$$$
