TQA.pdb
     RDKit          3D

 22 21  0  0  1  0  0  0  0  0999 V2000
   34.0373  -30.6080  -20.7152 C   0  0  0  0  0  0  0  0  0  0  0  0
   34.7580  -30.0280  -19.5203 C   0  0  1  0  0  0  0  0  0  0  0  0
   35.3874  -28.8351  -19.8461 O   0  0  0  0  0  0  0  0  0  0  0  0
   33.7466  -29.8198  -18.4243 C   0  0  2  0  0  0  0  0  0  0  0  0
   34.3235  -29.1697  -17.2786 N   0  0  0  0  0  0  0  0  0  0  0  0
   33.0833  -31.0971  -18.0394 C   0  0  0  0  0  0  0  0  0  0  0  0
   33.6378  -31.8951  -17.2180 O   0  0  0  0  0  0  0  0  0  0  0  0
   28.3533  -32.6981  -15.3605 N   0  0  0  0  0  0  0  0  0  0  0  0
   28.4995  -31.4167  -15.9374 C   0  0  0  0  0  0  0  0  0  0  0  0
   27.5776  -30.5902  -15.8074 O   0  0  0  0  0  0  0  0  0  0  0  0
   29.7504  -31.0865  -16.6855 C   0  0  0  0  0  0  0  0  0  0  0  0
   30.6781  -32.2732  -16.7461 C   0  0  0  0  0  0  0  0  0  0  0  0
   31.0644  -32.5403  -18.1604 C   0  0  2  0  0  0  0  0  0  0  0  0
   31.8292  -31.3899  -18.6119 N   0  0  0  0  0  0  0  0  0  0  0  0
   29.9662  -32.7676  -19.1007 C   0  0  0  0  0  0  0  0  0  0  0  0
   29.4359  -31.8833  -19.8416 O   0  0  0  0  0  0  0  0  0  0  0  0
   27.1392  -33.6258  -19.9931 C   0  0  0  0  0  0  0  0  0  0  0  0
   28.3884  -34.4429  -20.1520 C   0  0  2  0  0  0  0  0  0  0  0  0
   29.4244  -34.1002  -19.2126 N   0  0  0  0  0  0  0  0  0  0  0  0
   28.8813  -34.4052  -21.5351 C   0  0  0  0  0  0  0  0  0  0  0  0
   30.0637  -33.9825  -21.7525 O   0  0  0  0  0  0  0  0  0  0  0  0
   28.1033  -34.8121  -22.5931 O   0  0  0  0  0  0  0  0  0  0  0  0
  2  4  1  0
  2  1  1  6
  3  2  1  0
  4  5  1  1
  6  4  1  0
  6 14  1  0
  7  6  2  0
  8  9  1  0
  9 11  1  0
 10  9  2  0
 11 12  1  0
 13 12  1  1
 13 14  1  0
 15 13  1  0
 16 15  2  0
 18 19  1  0
 18 17  1  6
 19 15  1  0
 20 18  1  0
 21 20  2  0
 22 20  1  0
M  END
$$$$
