TQA.pdb
     RDKit          3D

 22 21  0  0  1  0  0  0  0  0999 V2000
   22.5690  -10.5145  -17.3386 C   0  0  0  0  0  0  0  0  0  0  0  0
   21.4650  -11.1187  -18.1750 C   0  0  1  0  0  0  0  0  0  0  0  0
   21.8861  -12.2893  -18.7894 O   0  0  0  0  0  0  0  0  0  0  0  0
   20.2883  -11.3792  -17.2723 C   0  0  2  0  0  0  0  0  0  0  0  0
   19.2614  -12.1372  -17.9350 N   0  0  0  0  0  0  0  0  0  0  0  0
   19.7409  -10.1150  -16.7050 C   0  0  0  0  0  0  0  0  0  0  0  0
   19.1014   -9.2966  -17.4402 O   0  0  0  0  0  0  0  0  0  0  0  0
   17.3334   -9.7167  -11.3012 N   0  0  0  0  0  0  0  0  0  0  0  0
   16.7155   -9.9104  -12.5569 C   0  0  0  0  0  0  0  0  0  0  0  0
   15.5805  -10.4206  -12.5960 O   0  0  0  0  0  0  0  0  0  0  0  0
   17.4354   -9.5003  -13.8007 C   0  0  0  0  0  0  0  0  0  0  0  0
   18.8019   -8.9493  -13.4824 C   0  0  0  0  0  0  0  0  0  0  0  0
   19.5139   -8.6045  -14.7453 C   0  0  2  0  0  0  0  0  0  0  0  0
   19.9536   -9.8576  -15.3359 N   0  0  0  0  0  0  0  0  0  0  0  0
   20.6720   -7.7190  -14.6160 C   0  0  0  0  0  0  0  0  0  0  0  0
   21.7884   -8.0368  -14.1014 O   0  0  0  0  0  0  0  0  0  0  0  0
   21.4458   -4.2339  -15.9555 C   0  0  0  0  0  0  0  0  0  0  0  0
   21.6566   -5.4350  -15.0803 C   0  0  2  0  0  0  0  0  0  0  0  0
   20.5593   -6.3671  -15.1071 N   0  0  0  0  0  0  0  0  0  0  0  0
   21.9976   -5.0440  -13.7063 C   0  0  0  0  0  0  0  0  0  0  0  0
   21.0709   -5.0065  -12.8322 O   0  0  0  0  0  0  0  0  0  0  0  0
   23.2834   -4.7199  -13.3429 O   0  0  0  0  0  0  0  0  0  0  0  0
  2  4  1  0
  2  1  1  1
  3  2  1  0
  4  5  1  6
  6  4  1  0
  6 14  1  0
  7  6  2  0
  8  9  1  0
  9 11  1  0
 10  9  2  0
 11 12  1  0
 13 12  1  1
 13 14  1  0
 15 13  1  0
 16 15  2  0
 18 19  1  0
 18 17  1  6
 19 15  1  0
 20 18  1  0
 21 20  2  0
 22 20  1  0
M  END
$$$$
