TQA.pdb
     RDKit          3D

 22 21  0  0  1  0  0  0  0  0999 V2000
   16.2650  -11.5436  -18.6802 C   0  0  0  0  0  0  0  0  0  0  0  0
   17.6606  -11.8972  -18.2209 C   0  0  1  0  0  0  0  0  0  0  0  0
   18.5653  -10.9000  -18.5558 O   0  0  0  0  0  0  0  0  0  0  0  0
   17.6195  -12.1066  -16.7303 C   0  0  2  0  0  0  0  0  0  0  0  0
   16.7828  -13.2187  -16.3677 N   0  0  0  0  0  0  0  0  0  0  0  0
   17.2067  -10.8678  -16.0129 C   0  0  0  0  0  0  0  0  0  0  0  0
   16.1736  -10.2202  -16.3769 O   0  0  0  0  0  0  0  0  0  0  0  0
   15.6086  -10.1370  -10.6323 N   0  0  0  0  0  0  0  0  0  0  0  0
   15.8979   -8.7784  -10.8907 C   0  0  0  0  0  0  0  0  0  0  0  0
   15.5707   -7.9231  -10.0473 O   0  0  0  0  0  0  0  0  0  0  0  0
   16.5858   -8.4031  -12.1633 C   0  0  0  0  0  0  0  0  0  0  0  0
   16.9600   -9.6261  -12.9612 C   0  0  0  0  0  0  0  0  0  0  0  0
   17.6612   -9.2183  -14.2113 C   0  0  2  0  0  0  0  0  0  0  0  0
   17.9936  -10.4401  -14.9249 N   0  0  0  0  0  0  0  0  0  0  0  0
   18.8831   -8.4308  -14.0420 C   0  0  0  0  0  0  0  0  0  0  0  0
   18.9423   -7.2568  -13.5622 O   0  0  0  0  0  0  0  0  0  0  0  0
   22.5862   -9.1343  -14.6662 C   0  0  0  0  0  0  0  0  0  0  0  0
   21.3711   -8.2740  -14.4743 C   0  0  2  0  0  0  0  0  0  0  0  0
   20.1378   -9.0167  -14.4474 N   0  0  0  0  0  0  0  0  0  0  0  0
   21.3234   -7.1861  -15.4600 C   0  0  0  0  0  0  0  0  0  0  0  0
   20.5646   -7.3131  -16.4759 O   0  0  0  0  0  0  0  0  0  0  0  0
   22.0723   -6.0424  -15.3139 O   0  0  0  0  0  0  0  0  0  0  0  0
  2  4  1  0
  2  1  1  1
  3  2  1  0
  4  5  1  6
  6  4  1  0
  6 14  1  0
  7  6  2  0
  8  9  1  0
  9 11  1  0
 10  9  2  0
 11 12  1  0
 13 12  1  1
 13 14  1  0
 15 13  1  0
 16 15  2  0
 18 19  1  0
 18 17  1  6
 19 15  1  0
 20 18  1  0
 21 20  2  0
 22 20  1  0
M  END
$$$$
