TQA.pdb
     RDKit          3D

 22 21  0  0  1  0  0  0  0  0999 V2000
   24.5633  -11.1366  -17.5451 C   0  0  0  0  0  0  0  0  0  0  0  0
   23.7801  -11.3303  -16.2673 C   0  0  1  0  0  0  0  0  0  0  0  0
   24.4078  -12.2402  -15.4287 O   0  0  0  0  0  0  0  0  0  0  0  0
   23.6444   -9.9882  -15.5981 C   0  0  2  0  0  0  0  0  0  0  0  0
   23.1200  -10.1047  -14.2641 N   0  0  0  0  0  0  0  0  0  0  0  0
   22.8284   -9.0471  -16.4155 C   0  0  0  0  0  0  0  0  0  0  0  0
   23.1887   -8.7301  -17.5940 O   0  0  0  0  0  0  0  0  0  0  0  0
   16.7718   -8.0663  -15.4408 N   0  0  0  0  0  0  0  0  0  0  0  0
   17.0774   -7.0363  -16.3583 C   0  0  0  0  0  0  0  0  0  0  0  0
   16.1626   -6.2865  -16.7468 O   0  0  0  0  0  0  0  0  0  0  0  0
   18.4835   -6.8728  -16.8375 C   0  0  0  0  0  0  0  0  0  0  0  0
   19.4079   -7.8499  -16.1568 C   0  0  0  0  0  0  0  0  0  0  0  0
   20.8108   -7.6084  -16.5973 C   0  0  2  0  0  0  0  0  0  0  0  0
   21.6518   -8.5233  -15.8435 N   0  0  0  0  0  0  0  0  0  0  0  0
   21.3225   -6.2492  -16.4164 C   0  0  0  0  0  0  0  0  0  0  0  0
   21.7655   -5.7676  -15.3283 O   0  0  0  0  0  0  0  0  0  0  0  0
   22.1820   -3.4286  -18.8175 C   0  0  0  0  0  0  0  0  0  0  0  0
   21.8122   -4.0077  -17.4828 C   0  0  2  0  0  0  0  0  0  0  0  0
   21.3344   -5.3641  -17.5558 N   0  0  0  0  0  0  0  0  0  0  0  0
   20.8672   -3.1415  -16.7659 C   0  0  0  0  0  0  0  0  0  0  0  0
   19.6327   -3.4577  -16.7566 O   0  0  0  0  0  0  0  0  0  0  0  0
   21.2795   -2.0061  -16.1093 O   0  0  0  0  0  0  0  0  0  0  0  0
  2  4  1  0
  2  1  1  6
  3  2  1  0
  4  5  1  1
  6  4  1  0
  6 14  1  0
  7  6  2  0
  8  9  1  0
  9 11  1  0
 10  9  2  0
 11 12  1  0
 13 12  1  1
 13 14  1  0
 15 13  1  0
 16 15  2  0
 18 19  1  0
 18 17  1  6
 19 15  1  0
 20 18  1  0
 21 20  2  0
 22 20  1  0
M  END
$$$$
