TQA.pdb
     RDKit          3D

 22 21  0  0  1  0  0  0  0  0999 V2000
   17.4265  -13.5558  -16.8037 C   0  0  0  0  0  0  0  0  0  0  0  0
   16.6924  -12.3578  -16.2474 C   0  0  1  0  0  0  0  0  0  0  0  0
   15.8090  -12.7331  -15.2454 O   0  0  0  0  0  0  0  0  0  0  0  0
   17.7176  -11.3872  -15.7236 C   0  0  2  0  0  0  0  0  0  0  0  0
   18.4479  -11.9281  -14.6089 N   0  0  0  0  0  0  0  0  0  0  0  0
   17.1043  -10.0743  -15.3774 C   0  0  0  0  0  0  0  0  0  0  0  0
   16.5509   -9.3596  -16.2730 O   0  0  0  0  0  0  0  0  0  0  0  0
   16.1854   -8.1017   -9.4702 N   0  0  0  0  0  0  0  0  0  0  0  0
   15.8831   -6.9484  -10.2283 C   0  0  0  0  0  0  0  0  0  0  0  0
   15.4691   -5.9330   -9.6388 O   0  0  0  0  0  0  0  0  0  0  0  0
   16.0665   -6.9754  -11.7113 C   0  0  0  0  0  0  0  0  0  0  0  0
   16.4898   -8.3432  -12.1828 C   0  0  0  0  0  0  0  0  0  0  0  0
   16.6952   -8.3272  -13.6587 C   0  0  2  0  0  0  0  0  0  0  0  0
   17.1572   -9.6533  -14.0335 N   0  0  0  0  0  0  0  0  0  0  0  0
   17.6473   -7.3405  -14.1703 C   0  0  0  0  0  0  0  0  0  0  0  0
   18.8913   -7.3171  -13.9173 O   0  0  0  0  0  0  0  0  0  0  0  0
   17.5267   -4.8750  -17.0101 C   0  0  0  0  0  0  0  0  0  0  0  0
   18.0204   -5.3370  -15.6699 C   0  0  2  0  0  0  0  0  0  0  0  0
   17.1542   -6.2974  -15.0367 N   0  0  0  0  0  0  0  0  0  0  0  0
   18.3053   -4.2016  -14.7829 C   0  0  0  0  0  0  0  0  0  0  0  0
   17.6140   -4.0654  -13.7210 O   0  0  0  0  0  0  0  0  0  0  0  0
   19.2929   -3.2887  -15.0686 O   0  0  0  0  0  0  0  0  0  0  0  0
  2  4  1  0
  2  1  1  1
  3  2  1  0
  4  5  1  1
  6  4  1  0
  6 14  1  0
  7  6  2  0
  8  9  1  0
  9 11  1  0
 10  9  2  0
 11 12  1  0
 13 12  1  1
 13 14  1  0
 15 13  1  0
 16 15  2  0
 18 19  1  0
 18 17  1  6
 19 15  1  0
 20 18  1  0
 21 20  2  0
 22 20  1  0
M  END
$$$$
