TQA.pdb
     RDKit          3D

 22 21  0  0  1  0  0  0  0  0999 V2000
   15.0496   -5.7626  -15.5717 C   0  0  0  0  0  0  0  0  0  0  0  0
   14.1638   -6.3154  -14.4794 C   0  0  1  0  0  0  0  0  0  0  0  0
   12.8226   -6.1169  -14.7743 O   0  0  0  0  0  0  0  0  0  0  0  0
   14.4697   -7.7824  -14.3315 C   0  0  2  0  0  0  0  0  0  0  0  0
   13.5619   -8.4308  -13.4241 N   0  0  0  0  0  0  0  0  0  0  0  0
   15.8858   -8.0100  -13.9283 C   0  0  0  0  0  0  0  0  0  0  0  0
   16.2609   -7.8045  -12.7298 O   0  0  0  0  0  0  0  0  0  0  0  0
   18.9945  -12.2369  -16.7293 N   0  0  0  0  0  0  0  0  0  0  0  0
   18.2279  -12.3537  -15.5483 C   0  0  0  0  0  0  0  0  0  0  0  0
   17.7807  -13.4712  -15.2300 O   0  0  0  0  0  0  0  0  0  0  0  0
   17.9738  -11.1398  -14.7145 C   0  0  0  0  0  0  0  0  0  0  0  0
   18.6032   -9.9155  -15.3291 C   0  0  0  0  0  0  0  0  0  0  0  0
   18.1831   -8.7000  -14.5762 C   0  0  2  0  0  0  0  0  0  0  0  0
   16.7900   -8.4576  -14.9122 N   0  0  0  0  0  0  0  0  0  0  0  0
   18.9450   -7.4785  -14.8396 C   0  0  0  0  0  0  0  0  0  0  0  0
   18.7355   -6.6718  -15.7974 O   0  0  0  0  0  0  0  0  0  0  0  0
   21.6194   -5.6139  -12.8572 C   0  0  0  0  0  0  0  0  0  0  0  0
   20.7780   -5.9170  -14.0627 C   0  0  2  0  0  0  0  0  0  0  0  0
   20.0298   -7.1421  -13.9497 N   0  0  0  0  0  0  0  0  0  0  0  0
   21.5759   -5.8849  -15.2954 C   0  0  0  0  0  0  0  0  0  0  0  0
   21.8372   -6.9842  -15.8846 O   0  0  0  0  0  0  0  0  0  0  0  0
   22.0443   -4.7057  -15.8250 O   0  0  0  0  0  0  0  0  0  0  0  0
  2  4  1  0
  2  1  1  6
  3  2  1  0
  4  5  1  1
  6  4  1  0
  6 14  1  0
  7  6  2  0
  8  9  1  0
  9 11  1  0
 10  9  2  0
 11 12  1  0
 13 12  1  6
 13 14  1  0
 15 13  1  0
 16 15  2  0
 18 19  1  0
 18 17  1  1
 19 15  1  0
 20 18  1  0
 21 20  2  0
 22 20  1  0
M  END
$$$$
