TQA.pdb
     RDKit          3D

 22 21  0  0  1  0  0  0  0  0999 V2000
   24.9337  -10.7579  -15.5848 C   0  0  0  0  0  0  0  0  0  0  0  0
   24.6828  -11.4169  -16.9214 C   0  0  1  0  0  0  0  0  0  0  0  0
   25.4490  -12.5648  -17.0650 O   0  0  0  0  0  0  0  0  0  0  0  0
   23.2142  -11.7365  -17.0130 C   0  0  2  0  0  0  0  0  0  0  0  0
   22.9056  -12.5095  -18.1858 N   0  0  0  0  0  0  0  0  0  0  0  0
   22.3790  -10.5045  -16.9469 C   0  0  0  0  0  0  0  0  0  0  0  0
   22.1742   -9.8020  -17.9880 O   0  0  0  0  0  0  0  0  0  0  0  0
   17.4889  -10.0834  -13.4907 N   0  0  0  0  0  0  0  0  0  0  0  0
   17.6272  -10.5295  -14.8241 C   0  0  0  0  0  0  0  0  0  0  0  0
   16.7434  -11.2605  -15.3083 O   0  0  0  0  0  0  0  0  0  0  0  0
   18.8247  -10.1152  -15.6166 C   0  0  0  0  0  0  0  0  0  0  0  0
   19.8069   -9.3551  -14.7622 C   0  0  0  0  0  0  0  0  0  0  0  0
   20.9898   -8.9637  -15.5796 C   0  0  2  0  0  0  0  0  0  0  0  0
   21.8270  -10.1455  -15.7009 N   0  0  0  0  0  0  0  0  0  0  0  0
   21.8054   -7.8669  -15.0564 C   0  0  0  0  0  0  0  0  0  0  0  0
   22.5722   -7.9359  -14.0467 O   0  0  0  0  0  0  0  0  0  0  0  0
   22.4982   -4.3162  -16.2952 C   0  0  0  0  0  0  0  0  0  0  0  0
   22.5649   -5.4698  -15.3371 C   0  0  2  0  0  0  0  0  0  0  0  0
   21.7499   -6.5908  -15.7275 N   0  0  0  0  0  0  0  0  0  0  0  0
   22.2711   -5.0430  -13.9628 C   0  0  0  0  0  0  0  0  0  0  0  0
   21.1118   -5.2713  -13.4852 O   0  0  0  0  0  0  0  0  0  0  0  0
   23.2099   -4.4076  -13.1848 O   0  0  0  0  0  0  0  0  0  0  0  0
  2  4  1  0
  2  1  1  1
  3  2  1  0
  4  5  1  6
  6  4  1  0
  6 14  1  0
  7  6  2  0
  8  9  1  0
  9 11  1  0
 10  9  2  0
 11 12  1  0
 13 12  1  1
 13 14  1  0
 15 13  1  0
 16 15  2  0
 18 19  1  0
 18 17  1  6
 19 15  1  0
 20 18  1  0
 21 20  2  0
 22 20  1  0
M  END
$$$$
