TQA.pdb
     RDKit          3D

 22 21  0  0  1  0  0  0  0  0999 V2000
   19.3722  -12.4588  -15.5393 C   0  0  0  0  0  0  0  0  0  0  0  0
   19.2582  -10.9678  -15.3216 C   0  0  1  0  0  0  0  0  0  0  0  0
   19.5757  -10.2677  -16.4768 O   0  0  0  0  0  0  0  0  0  0  0  0
   17.8490  -10.6691  -14.8829 C   0  0  2  0  0  0  0  0  0  0  0  0
   16.8828  -11.0809  -15.8652 N   0  0  0  0  0  0  0  0  0  0  0  0
   17.6768   -9.2320  -14.5299 C   0  0  0  0  0  0  0  0  0  0  0  0
   17.0478   -8.4435  -15.3057 O   0  0  0  0  0  0  0  0  0  0  0  0
   16.5957   -7.1176   -9.0192 N   0  0  0  0  0  0  0  0  0  0  0  0
   15.7224   -7.5600  -10.0379 C   0  0  0  0  0  0  0  0  0  0  0  0
   14.5579   -7.8794   -9.7346 O   0  0  0  0  0  0  0  0  0  0  0  0
   16.2149   -7.6333  -11.4469 C   0  0  0  0  0  0  0  0  0  0  0  0
   17.6903   -7.3339  -11.5244 C   0  0  0  0  0  0  0  0  0  0  0  0
   18.1401   -7.3758  -12.9445 C   0  0  2  0  0  0  0  0  0  0  0  0
   18.2302   -8.7781  -13.3159 N   0  0  0  0  0  0  0  0  0  0  0  0
   19.4217   -6.7330  -13.2381 C   0  0  0  0  0  0  0  0  0  0  0  0
   20.5574   -7.1389  -12.8412 O   0  0  0  0  0  0  0  0  0  0  0  0
   20.4207   -3.7482  -15.4066 C   0  0  0  0  0  0  0  0  0  0  0  0
   20.6223   -4.8149  -14.3700 C   0  0  2  0  0  0  0  0  0  0  0  0
   19.4195   -5.5364  -14.0443 N   0  0  0  0  0  0  0  0  0  0  0  0
   21.2705   -4.2774  -13.1666 C   0  0  0  0  0  0  0  0  0  0  0  0
   20.5715   -4.1205  -12.1126 O   0  0  0  0  0  0  0  0  0  0  0  0
   22.6037   -3.9418  -13.1500 O   0  0  0  0  0  0  0  0  0  0  0  0
  2  4  1  0
  2  1  1  6
  3  2  1  0
  4  5  1  6
  6  4  1  0
  6 14  1  0
  7  6  2  0
  8  9  1  0
  9 11  1  0
 10  9  2  0
 11 12  1  0
 13 12  1  1
 13 14  1  0
 15 13  1  0
 16 15  2  0
 18 19  1  0
 18 17  1  6
 19 15  1  0
 20 18  1  0
 21 20  2  0
 22 20  1  0
M  END
$$$$
