TQA.pdb
     RDKit          3D

 22 21  0  0  1  0  0  0  0  0999 V2000
   24.1505  -11.4009  -15.0097 C   0  0  0  0  0  0  0  0  0  0  0  0
   24.0713  -12.0507  -16.3717 C   0  0  1  0  0  0  0  0  0  0  0  0
   24.6168  -13.3263  -16.3500 O   0  0  0  0  0  0  0  0  0  0  0  0
   22.6232  -12.0928  -16.7824 C   0  0  2  0  0  0  0  0  0  0  0  0
   22.4255  -12.8777  -17.9711 N   0  0  0  0  0  0  0  0  0  0  0  0
   22.0580  -10.7237  -16.9429 C   0  0  0  0  0  0  0  0  0  0  0  0
   22.1705  -10.0998  -18.0462 O   0  0  0  0  0  0  0  0  0  0  0  0
   16.6459   -9.1044  -15.1216 N   0  0  0  0  0  0  0  0  0  0  0  0
   17.1975   -7.8138  -15.2836 C   0  0  0  0  0  0  0  0  0  0  0  0
   16.4527   -6.8229  -15.1679 O   0  0  0  0  0  0  0  0  0  0  0  0
   18.6536   -7.6704  -15.5882 C   0  0  0  0  0  0  0  0  0  0  0  0
   19.3324   -9.0150  -15.6483 C   0  0  0  0  0  0  0  0  0  0  0  0
   20.7801   -8.8365  -15.9536 C   0  0  2  0  0  0  0  0  0  0  0  0
   21.3988  -10.1466  -15.8391 N   0  0  0  0  0  0  0  0  0  0  0  0
   21.5121   -7.8996  -15.1002 C   0  0  0  0  0  0  0  0  0  0  0  0
   21.8667   -8.1185  -13.9008 O   0  0  0  0  0  0  0  0  0  0  0  0
   22.9038   -4.3791  -15.6532 C   0  0  0  0  0  0  0  0  0  0  0  0
   22.4616   -5.5678  -14.8502 C   0  0  2  0  0  0  0  0  0  0  0  0
   21.8716   -6.6131  -15.6455 N   0  0  0  0  0  0  0  0  0  0  0  0
   21.5806   -5.1701  -13.7443 C   0  0  0  0  0  0  0  0  0  0  0  0
   22.0914   -4.5828  -12.7352 O   0  0  0  0  0  0  0  0  0  0  0  0
   20.2279   -5.4144  -13.7715 O   0  0  0  0  0  0  0  0  0  0  0  0
  2  4  1  0
  2  1  1  1
  3  2  1  0
  4  5  1  6
  6  4  1  0
  6 14  1  0
  7  6  2  0
  8  9  1  0
  9 11  1  0
 10  9  2  0
 11 12  1  0
 13 12  1  1
 13 14  1  0
 15 13  1  0
 16 15  2  0
 18 19  1  0
 18 17  1  6
 19 15  1  0
 20 18  1  0
 21 20  2  0
 22 20  1  0
M  END
$$$$
