TQA.pdb
     RDKit          3D

 22 21  0  0  1  0  0  0  0  0999 V2000
   27.5189  -21.0182  -11.6526 C   0  0  0  0  0  0  0  0  0  0  0  0
   26.3178  -21.3912  -10.8148 C   0  0  1  0  0  0  0  0  0  0  0  0
   26.6305  -21.3891   -9.4630 O   0  0  0  0  0  0  0  0  0  0  0  0
   25.2193  -20.4054  -11.1135 C   0  0  2  0  0  0  0  0  0  0  0  0
   24.0968  -20.5692  -10.2296 N   0  0  0  0  0  0  0  0  0  0  0  0
   24.7940  -20.4728  -12.5398 C   0  0  0  0  0  0  0  0  0  0  0  0
   25.6260  -20.2516  -13.4768 O   0  0  0  0  0  0  0  0  0  0  0  0
   19.2051  -22.9941  -16.4501 N   0  0  0  0  0  0  0  0  0  0  0  0
   20.3312  -23.1996  -15.6219 C   0  0  0  0  0  0  0  0  0  0  0  0
   20.3913  -24.2366  -14.9356 O   0  0  0  0  0  0  0  0  0  0  0  0
   21.4167  -22.1729  -15.5901 C   0  0  0  0  0  0  0  0  0  0  0  0
   21.8873  -21.9216  -14.1802 C   0  0  0  0  0  0  0  0  0  0  0  0
   22.9875  -20.9164  -14.1869 C   0  0  2  0  0  0  0  0  0  0  0  0
   23.4481  -20.7877  -12.8145 N   0  0  0  0  0  0  0  0  0  0  0  0
   22.6466  -19.5852  -14.6904 C   0  0  0  0  0  0  0  0  0  0  0  0
   21.9066  -18.7407  -14.0977 O   0  0  0  0  0  0  0  0  0  0  0  0
   24.0008  -17.4640  -17.5333 C   0  0  0  0  0  0  0  0  0  0  0  0
   22.9737  -17.8613  -16.5133 C   0  0  2  0  0  0  0  0  0  0  0  0
   23.1847  -19.1760  -15.9651 N   0  0  0  0  0  0  0  0  0  0  0  0
   21.6103  -17.7089  -17.0379 C   0  0  0  0  0  0  0  0  0  0  0  0
   21.0277  -18.7277  -17.5346 O   0  0  0  0  0  0  0  0  0  0  0  0
   20.9521  -16.5022  -17.0061 O   0  0  0  0  0  0  0  0  0  0  0  0
  2  4  1  0
  2  1  1  6
  3  2  1  0
  4  5  1  1
  6  4  1  0
  6 14  1  0
  7  6  2  0
  8  9  1  0
  9 11  1  0
 10  9  2  0
 11 12  1  0
 13 12  1  1
 13 14  1  0
 15 13  1  0
 16 15  2  0
 18 19  1  0
 18 17  1  6
 19 15  1  0
 20 18  1  0
 21 20  2  0
 22 20  1  0
M  END
$$$$
