TQA.pdb
     RDKit          3D

 22 21  0  0  1  0  0  0  0  0999 V2000
   27.1303  -17.9390  -15.0368 C   0  0  0  0  0  0  0  0  0  0  0  0
   27.5706  -18.7871  -16.2076 C   0  0  1  0  0  0  0  0  0  0  0  0
   28.6887  -18.2454  -16.8254 O   0  0  0  0  0  0  0  0  0  0  0  0
   27.8591  -20.1730  -15.6943 C   0  0  2  0  0  0  0  0  0  0  0  0
   28.4353  -21.0120  -16.7103 N   0  0  0  0  0  0  0  0  0  0  0  0
   26.6457  -20.8030  -15.1023 C   0  0  0  0  0  0  0  0  0  0  0  0
   25.7161  -21.2491  -15.8480 O   0  0  0  0  0  0  0  0  0  0  0  0
   24.6019  -21.1789   -9.2772 N   0  0  0  0  0  0  0  0  0  0  0  0
   25.6469  -20.3252   -9.6960 C   0  0  0  0  0  0  0  0  0  0  0  0
   25.9467  -19.3485   -8.9846 O   0  0  0  0  0  0  0  0  0  0  0  0
   26.3629  -20.6139  -10.9756 C   0  0  0  0  0  0  0  0  0  0  0  0
   25.7716  -21.8130  -11.6720 C   0  0  0  0  0  0  0  0  0  0  0  0
   25.3811  -21.4474  -13.0629 C   0  0  2  0  0  0  0  0  0  0  0  0
   26.5625  -20.8876  -13.6980 N   0  0  0  0  0  0  0  0  0  0  0  0
   24.2823  -20.4902  -13.1977 C   0  0  0  0  0  0  0  0  0  0  0  0
   24.4052  -19.2268  -13.2262 O   0  0  0  0  0  0  0  0  0  0  0  0
   21.9168  -19.6511  -15.0951 C   0  0  0  0  0  0  0  0  0  0  0  0
   21.8208  -20.1778  -13.6927 C   0  0  2  0  0  0  0  0  0  0  0  0
   22.9377  -21.0016  -13.3090 N   0  0  0  0  0  0  0  0  0  0  0  0
   20.5421  -20.8632  -13.4639 C   0  0  0  0  0  0  0  0  0  0  0  0
   20.5571  -22.0975  -13.1468 O   0  0  0  0  0  0  0  0  0  0  0  0
   19.3382  -20.2100  -13.5826 O   0  0  0  0  0  0  0  0  0  0  0  0
  2  4  1  0
  2  1  1  1
  3  2  1  0
  4  5  1  6
  6  4  1  0
  6 14  1  0
  7  6  2  0
  8  9  1  0
  9 11  1  0
 10  9  2  0
 11 12  1  0
 13 12  1  1
 13 14  1  0
 15 13  1  0
 16 15  2  0
 18 19  1  0
 18 17  1  6
 19 15  1  0
 20 18  1  0
 21 20  2  0
 22 20  1  0
M  END
$$$$
