TQA.pdb
     RDKit          3D

 22 21  0  0  1  0  0  0  0  0999 V2000
   34.6483  -11.7996  -20.8257 C   0  0  0  0  0  0  0  0  0  0  0  0
   33.5872  -12.8657  -20.6806 C   0  0  1  0  0  0  0  0  0  0  0  0
   33.9365  -14.0168  -21.3722 O   0  0  0  0  0  0  0  0  0  0  0  0
   33.4153  -13.1527  -19.2124 C   0  0  2  0  0  0  0  0  0  0  0  0
   32.5716  -14.2948  -18.9843 N   0  0  0  0  0  0  0  0  0  0  0  0
   32.9142  -11.9592  -18.4747 C   0  0  0  0  0  0  0  0  0  0  0  0
   31.6659  -11.7317  -18.3790 O   0  0  0  0  0  0  0  0  0  0  0  0
   36.4461   -8.8235  -14.3710 N   0  0  0  0  0  0  0  0  0  0  0  0
   35.3288   -7.9684  -14.5001 C   0  0  0  0  0  0  0  0  0  0  0  0
   35.2658   -6.9499  -13.7869 O   0  0  0  0  0  0  0  0  0  0  0  0
   34.2557   -8.3055  -15.4841 C   0  0  0  0  0  0  0  0  0  0  0  0
   34.5729   -9.5826  -16.2195 C   0  0  0  0  0  0  0  0  0  0  0  0
   33.4318   -9.9528  -17.1037 C   0  0  2  0  0  0  0  0  0  0  0  0
   33.8629  -11.0964  -17.8902 N   0  0  0  0  0  0  0  0  0  0  0  0
   32.9548   -8.9129  -18.0164 C   0  0  0  0  0  0  0  0  0  0  0  0
   33.5987   -8.4522  -19.0090 O   0  0  0  0  0  0  0  0  0  0  0  0
   29.6203   -7.1006  -18.4159 C   0  0  0  0  0  0  0  0  0  0  0  0
   31.0938   -7.3067  -18.6148 C   0  0  2  0  0  0  0  0  0  0  0  0
   31.6463   -8.3491  -17.7892 N   0  0  0  0  0  0  0  0  0  0  0  0
   31.8364   -6.0487  -18.4629 C   0  0  0  0  0  0  0  0  0  0  0  0
   32.3658   -5.7824  -17.3347 O   0  0  0  0  0  0  0  0  0  0  0  0
   31.9732   -5.1578  -19.5012 O   0  0  0  0  0  0  0  0  0  0  0  0
  2  4  1  0
  2  1  1  1
  3  2  1  0
  4  5  1  6
  6  4  1  0
  6 14  1  0
  7  6  2  0
  8  9  1  0
  9 11  1  0
 10  9  2  0
 11 12  1  0
 13 12  1  6
 13 14  1  0
 15 13  1  0
 16 15  2  0
 18 19  1  0
 18 17  1  1
 19 15  1  0
 20 18  1  0
 21 20  2  0
 22 20  1  0
M  END
$$$$
