TQA.pdb
     RDKit          3D

 22 21  0  0  1  0  0  0  0  0999 V2000
   25.1218  -20.1044   -9.4420 C   0  0  0  0  0  0  0  0  0  0  0  0
   26.0354  -20.8244  -10.4066 C   0  0  1  0  0  0  0  0  0  0  0  0
   26.7983  -21.7818   -9.7534 O   0  0  0  0  0  0  0  0  0  0  0  0
   25.1800  -21.4553  -11.4732 C   0  0  2  0  0  0  0  0  0  0  0  0
   25.9250  -22.3861  -12.2773 N   0  0  0  0  0  0  0  0  0  0  0  0
   24.5124  -20.4279  -12.3208 C   0  0  0  0  0  0  0  0  0  0  0  0
   23.6728  -19.6156  -11.8164 O   0  0  0  0  0  0  0  0  0  0  0  0
   26.8396  -18.4043  -17.7239 N   0  0  0  0  0  0  0  0  0  0  0  0
   25.5834  -17.7587  -17.6873 C   0  0  0  0  0  0  0  0  0  0  0  0
   25.2965  -16.9502  -18.5895 O   0  0  0  0  0  0  0  0  0  0  0  0
   24.6348  -18.0606  -16.5726 C   0  0  0  0  0  0  0  0  0  0  0  0
   25.1989  -19.1070  -15.6457 C   0  0  0  0  0  0  0  0  0  0  0  0
   24.2157  -19.4093  -14.5675 C   0  0  2  0  0  0  0  0  0  0  0  0
   24.8398  -20.3861  -13.6908 N   0  0  0  0  0  0  0  0  0  0  0  0
   22.9193  -19.9330  -15.0001 C   0  0  0  0  0  0  0  0  0  0  0  0
   22.7077  -21.1058  -15.4379 O   0  0  0  0  0  0  0  0  0  0  0  0
   19.3680  -18.8322  -14.4548 C   0  0  0  0  0  0  0  0  0  0  0  0
   20.4405  -19.5006  -15.2648 C   0  0  2  0  0  0  0  0  0  0  0  0
   21.7711  -19.0619  -14.9326 N   0  0  0  0  0  0  0  0  0  0  0  0
   20.1777  -19.3811  -16.7049 C   0  0  0  0  0  0  0  0  0  0  0  0
   20.9754  -18.6884  -17.4176 O   0  0  0  0  0  0  0  0  0  0  0  0
   19.0996  -19.9942  -17.2983 O   0  0  0  0  0  0  0  0  0  0  0  0
  2  4  1  0
  2  1  1  1
  3  2  1  0
  4  5  1  6
  6  4  1  0
  6 14  1  0
  7  6  2  0
  8  9  1  0
  9 11  1  0
 10  9  2  0
 11 12  1  0
 13 12  1  6
 13 14  1  0
 15 13  1  0
 16 15  2  0
 18 19  1  0
 18 17  1  1
 19 15  1  0
 20 18  1  0
 21 20  2  0
 22 20  1  0
M  END
$$$$
