TQA.pdb
     RDKit          3D

 22 21  0  0  1  0  0  0  0  0999 V2000
   24.6610  -11.1435  -14.7484 C   0  0  0  0  0  0  0  0  0  0  0  0
   24.5535  -11.9096  -16.0465 C   0  0  1  0  0  0  0  0  0  0  0  0
   25.1984  -13.1350  -15.9592 O   0  0  0  0  0  0  0  0  0  0  0  0
   23.0916  -12.0929  -16.3576 C   0  0  2  0  0  0  0  0  0  0  0  0
   22.8880  -12.9667  -17.4815 N   0  0  0  0  0  0  0  0  0  0  0  0
   22.4058  -10.7862  -16.5623 C   0  0  0  0  0  0  0  0  0  0  0  0
   22.5329  -10.1504  -17.6572 O   0  0  0  0  0  0  0  0  0  0  0  0
   16.9598   -9.5247  -14.1415 N   0  0  0  0  0  0  0  0  0  0  0  0
   17.2942   -8.2700  -14.6983 C   0  0  0  0  0  0  0  0  0  0  0  0
   16.4266   -7.3779  -14.7342 O   0  0  0  0  0  0  0  0  0  0  0  0
   18.6736   -8.0456  -15.2278 C   0  0  0  0  0  0  0  0  0  0  0  0
   19.4782   -9.3203  -15.2089 C   0  0  0  0  0  0  0  0  0  0  0  0
   20.8663   -9.0480  -15.6779 C   0  0  2  0  0  0  0  0  0  0  0  0
   21.6166  -10.2813  -15.5095 N   0  0  0  0  0  0  0  0  0  0  0  0
   21.5822   -7.9702  -14.9940 C   0  0  0  0  0  0  0  0  0  0  0  0
   22.1491   -8.0649  -13.8619 O   0  0  0  0  0  0  0  0  0  0  0  0
   22.4563   -4.3752  -15.9595 C   0  0  0  0  0  0  0  0  0  0  0  0
   22.2981   -5.5438  -15.0306 C   0  0  2  0  0  0  0  0  0  0  0  0
   21.6638   -6.6832  -15.6411 N   0  0  0  0  0  0  0  0  0  0  0  0
   21.6213   -5.1526  -13.7872 C   0  0  0  0  0  0  0  0  0  0  0  0
   20.3956   -5.4652  -13.6326 O   0  0  0  0  0  0  0  0  0  0  0  0
   22.2736   -4.4621  -12.7932 O   0  0  0  0  0  0  0  0  0  0  0  0
  2  4  1  0
  2  1  1  1
  3  2  1  0
  4  5  1  6
  6  4  1  0
  6 14  1  0
  7  6  2  0
  8  9  1  0
  9 11  1  0
 10  9  2  0
 11 12  1  0
 13 12  1  1
 13 14  1  0
 15 13  1  0
 16 15  2  0
 18 19  1  0
 18 17  1  6
 19 15  1  0
 20 18  1  0
 21 20  2  0
 22 20  1  0
M  END
$$$$
