RLL.pdb
     RDKit          3D

 28 27  0  0  1  0  0  0  0  0999 V2000
    7.6742  -15.8652   16.3162 N   0  0  0  0  0  0  0  0  0  0  0  0
    8.1810  -14.5484   16.0594 C   0  0  0  0  0  0  0  0  0  0  0  0
    8.9453  -14.3143   15.0618 N   0  0  0  0  0  0  0  0  0  0  0  0
    7.8240  -13.4777   16.9412 N   0  0  0  0  0  0  0  0  0  0  0  0
    6.9238  -13.6429   18.0338 C   0  0  0  0  0  0  0  0  0  0  0  0
    7.2568  -14.5174   19.1511 C   0  0  0  0  0  0  0  0  0  0  0  0
    8.0477  -14.0803   20.3165 C   0  0  0  0  0  0  0  0  0  0  0  0
    8.2293  -15.0082   21.4423 C   0  0  2  0  0  0  0  0  0  0  0  0
    7.0265  -15.4359   22.0312 N   0  0  0  0  0  0  0  0  0  0  0  0
    9.1095  -14.4361   22.5213 C   0  0  0  0  0  0  0  0  0  0  0  0
   10.3399  -14.2500   22.3726 O   0  0  0  0  0  0  0  0  0  0  0  0
    9.3832  -13.3993   14.8809 C   0  0  0  0  0  0  0  0  0  0  0  0
    5.9977  -13.2256   25.0195 C   0  0  1  0  0  0  0  0  0  0  0  0
    7.0973  -13.0999   26.1168 C   0  0  0  0  0  0  0  0  0  0  0  0
    6.4523  -12.2515   27.1968 C   0  0  0  0  0  0  0  0  0  0  0  0
    8.2807  -12.3992   25.5236 C   0  0  1  0  0  0  0  0  0  0  0  0
    9.2365  -13.2339   24.7459 N   0  0  0  0  0  0  0  0  0  0  0  0
    8.5608  -14.0699   23.8004 C   0  0  0  0  0  0  0  0  0  0  0  0
   10.0097  -14.1042   25.7254 O   0  0  0  0  0  0  0  0  0  0  0  0
   10.6240  -13.4982   26.6333 C   0  0  0  0  0  0  0  0  0  0  0  0
   10.0751  -16.8564   30.2365 C   0  0  1  0  0  0  0  0  0  0  0  0
   10.9792  -16.8496   28.9948 C   0  0  0  0  0  0  0  0  0  0  0  0
   12.2848  -16.2600   29.4484 C   0  0  0  0  0  0  0  0  0  0  0  0
   10.2603  -16.0696   27.9530 C   0  0  2  0  0  0  0  0  0  0  0  0
   10.7113  -16.3208   26.5382 N   0  0  0  0  0  0  0  0  0  0  0  0
   10.0050  -15.5126   25.5779 C   0  0  0  0  0  0  0  0  0  0  0  0
   10.6717  -17.7319   26.1344 O   0  0  0  0  0  0  0  0  0  0  0  0
    9.6034  -18.2408   25.7141 O   0  0  0  0  0  0  0  0  0  0  0  0
  2  1  1  0
  3  2  2  0
  4  2  1  0
  5  4  1  0
  6  5  1  0
  7  6  1  0
  8  7  1  0
  8  9  1  1
 10 11  2  0
 10  8  1  0
 13 12  1  1
 13 15  1  0
 14 13  1  0
 16 15  1  6
 16 18  1  0
 16 17  1  0
 17 10  1  0
 18 19  2  0
 21 20  1  1
 21 22  1  0
 23 21  1  0
 24 23  1  1
 25 24  1  0
 25 18  1  0
 26 28  1  0
 26 24  1  0
 27 26  2  0
M  END
$$$$
