RLL.pdb
     RDKit          3D

 28 27  0  0  1  0  0  0  0  0999 V2000
    8.9096  -13.8927   17.0877 N   0  0  0  0  0  0  0  0  0  0  0  0
    7.9962  -13.0698   17.8262 C   0  0  0  0  0  0  0  0  0  0  0  0
    8.1314  -11.7993   17.8664 N   0  0  0  0  0  0  0  0  0  0  0  0
    6.9144  -13.6870   18.5333 N   0  0  0  0  0  0  0  0  0  0  0  0
    6.7386  -15.1000   18.5979 C   0  0  0  0  0  0  0  0  0  0  0  0
    7.3252  -15.8775   19.6821 C   0  0  0  0  0  0  0  0  0  0  0  0
    8.7741  -16.1152   19.8192 C   0  0  0  0  0  0  0  0  0  0  0  0
    9.2576  -16.9417   20.9348 C   0  0  2  0  0  0  0  0  0  0  0  0
    8.3626  -17.9519   21.3285 N   0  0  0  0  0  0  0  0  0  0  0  0
    9.6103  -16.1207   22.1464 C   0  0  0  0  0  0  0  0  0  0  0  0
   10.6273  -15.3906   22.2050 O   0  0  0  0  0  0  0  0  0  0  0  0
    7.5455  -11.1813   18.4466 C   0  0  0  0  0  0  0  0  0  0  0  0
    7.5419  -12.7599   24.4782 C   0  0  2  0  0  0  0  0  0  0  0  0
    6.8330  -14.1375   24.6471 C   0  0  0  0  0  0  0  0  0  0  0  0
    5.6785  -13.8507   25.5889 C   0  0  0  0  0  0  0  0  0  0  0  0
    7.8021  -15.0962   25.2676 C   0  0  2  0  0  0  0  0  0  0  0  0
    9.0454  -15.3856   24.5024 N   0  0  0  0  0  0  0  0  0  0  0  0
    8.7732  -16.1406   23.3170 C   0  0  0  0  0  0  0  0  0  0  0  0
    9.9802  -16.1802   25.4021 O   0  0  0  0  0  0  0  0  0  0  0  0
   10.7934  -16.9350   24.8206 C   0  0  0  0  0  0  0  0  0  0  0  0
   11.6149  -13.7884   28.2701 C   0  0  1  0  0  0  0  0  0  0  0  0
   10.6017  -14.6569   29.0307 C   0  0  0  0  0  0  0  0  0  0  0  0
   10.5370  -14.0821   30.4176 C   0  0  0  0  0  0  0  0  0  0  0  0
   11.0982  -16.0559   28.9478 C   0  0  1  0  0  0  0  0  0  0  0  0
   10.8319  -16.7547   27.6405 N   0  0  0  0  0  0  0  0  0  0  0  0
    9.8976  -16.0408   26.8089 C   0  0  0  0  0  0  0  0  0  0  0  0
   10.4135  -18.1552   27.7799 O   0  0  0  0  0  0  0  0  0  0  0  0
    9.3295  -18.5451   27.2802 O   0  0  0  0  0  0  0  0  0  0  0  0
  2  1  1  0
  3  2  2  0
  4  2  1  0
  5  4  1  0
  6  5  1  0
  7  6  1  0
  8  7  1  0
  8  9  1  1
 10 11  2  0
 10  8  1  0
 13 12  1  6
 13 15  1  0
 14 13  1  0
 16 15  1  6
 16 18  1  0
 16 17  1  0
 17 10  1  0
 18 19  2  0
 21 20  1  6
 21 22  1  0
 23 21  1  0
 24 23  1  6
 25 24  1  0
 25 18  1  0
 26 28  1  0
 26 24  1  0
 27 26  2  0
M  END
$$$$
