RLL.pdb
     RDKit          3D

 28 27  0  0  1  0  0  0  0  0999 V2000
    7.9292  -18.7623   16.6475 N   0  0  0  0  0  0  0  0  0  0  0  0
    8.9138  -19.8046   16.6135 C   0  0  0  0  0  0  0  0  0  0  0  0
    8.7347  -20.8642   15.9212 N   0  0  0  0  0  0  0  0  0  0  0  0
   10.1185  -19.6532   17.3730 N   0  0  0  0  0  0  0  0  0  0  0  0
   10.2253  -18.7694   18.4861 C   0  0  0  0  0  0  0  0  0  0  0  0
    9.4049  -17.5677   18.5680 C   0  0  0  0  0  0  0  0  0  0  0  0
    9.5089  -16.5867   19.6642 C   0  0  0  0  0  0  0  0  0  0  0  0
    9.1858  -17.0125   21.0338 C   0  0  2  0  0  0  0  0  0  0  0  0
    7.8826  -17.5184   21.1833 N   0  0  0  0  0  0  0  0  0  0  0  0
    9.3859  -15.9104   22.0396 C   0  0  0  0  0  0  0  0  0  0  0  0
   10.4337  -15.2258   22.1040 O   0  0  0  0  0  0  0  0  0  0  0  0
    9.4339  -21.6166   15.8384 C   0  0  0  0  0  0  0  0  0  0  0  0
    7.9126  -12.1479   25.4176 C   0  0  1  0  0  0  0  0  0  0  0  0
    6.7237  -13.0918   25.0646 C   0  0  0  0  0  0  0  0  0  0  0  0
    5.8400  -13.0569   26.2975 C   0  0  0  0  0  0  0  0  0  0  0  0
    7.2646  -14.4694   24.8348 C   0  0  2  0  0  0  0  0  0  0  0  0
    8.4911  -14.5798   23.9990 N   0  0  0  0  0  0  0  0  0  0  0  0
    8.3566  -15.5892   22.9928 C   0  0  0  0  0  0  0  0  0  0  0  0
    9.6558  -14.9315   24.9125 O   0  0  0  0  0  0  0  0  0  0  0  0
   10.5628  -14.0723   25.0031 C   0  0  0  0  0  0  0  0  0  0  0  0
   10.0917  -15.2595   30.2549 C   0  0  1  0  0  0  0  0  0  0  0  0
   11.0287  -15.3218   29.0393 C   0  0  0  0  0  0  0  0  0  0  0  0
   11.9636  -14.1549   29.1892 C   0  0  0  0  0  0  0  0  0  0  0  0
   10.1595  -15.2856   27.8336 C   0  0  2  0  0  0  0  0  0  0  0  0
   10.4836  -16.3100   26.7782 N   0  0  0  0  0  0  0  0  0  0  0  0
    9.6687  -16.1701   25.5990 C   0  0  0  0  0  0  0  0  0  0  0  0
   10.4459  -17.6985   27.2541 O   0  0  0  0  0  0  0  0  0  0  0  0
    9.4226  -18.4031   27.0716 O   0  0  0  0  0  0  0  0  0  0  0  0
  2  1  1  0
  3  2  2  0
  4  2  1  0
  5  4  1  0
  6  5  1  0
  7  6  1  0
  8  7  1  0
  8  9  1  6
 10 11  2  0
 10  8  1  0
 13 12  1  6
 13 15  1  0
 14 13  1  0
 16 15  1  6
 16 18  1  0
 16 17  1  0
 17 10  1  0
 18 19  2  0
 21 20  1  1
 21 22  1  0
 23 21  1  0
 24 23  1  6
 25 24  1  0
 25 18  1  0
 26 28  1  0
 26 24  1  0
 27 26  2  0
M  END
$$$$
