RLL.pdb
     RDKit          3D

 28 27  0  0  1  0  0  0  0  0999 V2000
    7.4654  -20.7807   20.2969 N   0  0  0  0  0  0  0  0  0  0  0  0
    8.3151  -21.2966   19.2632 C   0  0  0  0  0  0  0  0  0  0  0  0
    7.9602  -22.2961   18.5496 N   0  0  0  0  0  0  0  0  0  0  0  0
    9.5863  -20.6793   19.0302 N   0  0  0  0  0  0  0  0  0  0  0  0
    9.9665  -19.4421   19.6271 C   0  0  0  0  0  0  0  0  0  0  0  0
    9.0366  -18.3212   19.6811 C   0  0  0  0  0  0  0  0  0  0  0  0
    9.3980  -16.9911   20.2053 C   0  0  0  0  0  0  0  0  0  0  0  0
    8.3485  -16.1512   20.8007 C   0  0  2  0  0  0  0  0  0  0  0  0
    7.7774  -15.2290   19.9062 N   0  0  0  0  0  0  0  0  0  0  0  0
    8.8328  -15.4003   22.0123 C   0  0  0  0  0  0  0  0  0  0  0  0
    9.8243  -14.6341   21.9904 O   0  0  0  0  0  0  0  0  0  0  0  0
    8.5527  -22.7131   17.8168 C   0  0  0  0  0  0  0  0  0  0  0  0
    7.8477  -12.0312   24.7671 C   0  0  2  0  0  0  0  0  0  0  0  0
    6.8581  -13.2347   24.7951 C   0  0  0  0  0  0  0  0  0  0  0  0
    5.7539  -12.7890   25.7353 C   0  0  0  0  0  0  0  0  0  0  0  0
    7.5780  -14.4274   25.3451 C   0  0  2  0  0  0  0  0  0  0  0  0
    8.6652  -15.0024   24.5071 N   0  0  0  0  0  0  0  0  0  0  0  0
    8.1604  -15.5344   23.2777 C   0  0  0  0  0  0  0  0  0  0  0  0
    9.3353  -16.1148   25.2998 O   0  0  0  0  0  0  0  0  0  0  0  0
    8.6299  -17.1219   25.5384 C   0  0  0  0  0  0  0  0  0  0  0  0
   11.9026  -14.4293   29.5385 C   0  0  1  0  0  0  0  0  0  0  0  0
   10.4156  -14.7287   29.2966 C   0  0  0  0  0  0  0  0  0  0  0  0
   10.1365  -16.0099   30.0307 C   0  0  0  0  0  0  0  0  0  0  0  0
   10.2314  -14.7907   27.8226 C   0  0  1  0  0  0  0  0  0  0  0  0
   10.9700  -15.9057   27.1301 N   0  0  0  0  0  0  0  0  0  0  0  0
   10.6799  -15.9734   25.7211 C   0  0  0  0  0  0  0  0  0  0  0  0
   10.7842  -17.2255   27.7461 O   0  0  0  0  0  0  0  0  0  0  0  0
   11.7548  -17.8183   28.2785 O   0  0  0  0  0  0  0  0  0  0  0  0
  2  1  1  0
  3  2  2  0
  4  2  1  0
  5  4  1  0
  6  5  1  0
  7  6  1  0
  8  7  1  0
  8  9  1  6
 10 11  2  0
 10  8  1  0
 13 12  1  6
 13 15  1  0
 14 13  1  0
 16 15  1  6
 16 18  1  0
 16 17  1  0
 17 10  1  0
 18 19  2  0
 21 20  1  1
 21 22  1  0
 23 21  1  0
 24 23  1  6
 25 24  1  0
 25 18  1  0
 26 28  1  0
 26 24  1  0
 27 26  2  0
M  END
$$$$
