RLL.pdb
     RDKit          3D

 28 27  0  0  1  0  0  0  0  0999 V2000
    9.3786  -14.6171   15.8942 N   0  0  0  0  0  0  0  0  0  0  0  0
    8.3290  -13.6407   15.8493 C   0  0  0  0  0  0  0  0  0  0  0  0
    7.7745  -13.3129   14.7451 N   0  0  0  0  0  0  0  0  0  0  0  0
    7.8982  -13.0211   17.0665 N   0  0  0  0  0  0  0  0  0  0  0  0
    8.0924  -13.6148   18.3477 C   0  0  0  0  0  0  0  0  0  0  0  0
    8.3106  -15.0495   18.4814 C   0  0  0  0  0  0  0  0  0  0  0  0
    9.4339  -15.6328   19.2383 C   0  0  0  0  0  0  0  0  0  0  0  0
    9.1487  -16.3871   20.4676 C   0  0  2  0  0  0  0  0  0  0  0  0
    7.8785  -16.9895   20.4877 N   0  0  0  0  0  0  0  0  0  0  0  0
    9.2937  -15.5429   21.7055 C   0  0  0  0  0  0  0  0  0  0  0  0
   10.2273  -14.7227   21.8681 O   0  0  0  0  0  0  0  0  0  0  0  0
    6.9586  -12.6868   14.6803 C   0  0  0  0  0  0  0  0  0  0  0  0
    5.4149  -13.3452   25.9486 C   0  0  1  0  0  0  0  0  0  0  0  0
    6.9066  -13.4508   25.5102 C   0  0  0  0  0  0  0  0  0  0  0  0
    7.2428  -12.0651   24.9916 C   0  0  0  0  0  0  0  0  0  0  0  0
    7.0080  -14.4689   24.4163 C   0  0  2  0  0  0  0  0  0  0  0  0
    8.3770  -14.8256   23.9540 N   0  0  0  0  0  0  0  0  0  0  0  0
    8.3424  -15.6450   22.7807 C   0  0  0  0  0  0  0  0  0  0  0  0
    9.0730  -15.5817   25.0759 O   0  0  0  0  0  0  0  0  0  0  0  0
    9.5818  -16.6829   24.7640 C   0  0  0  0  0  0  0  0  0  0  0  0
   10.6202  -14.5951   30.9597 C   0  0  1  0  0  0  0  0  0  0  0  0
   11.0039  -15.3195   29.6607 C   0  0  0  0  0  0  0  0  0  0  0  0
   12.4784  -15.0868   29.4884 C   0  0  0  0  0  0  0  0  0  0  0  0
   10.1439  -14.7504   28.5897 C   0  0  2  0  0  0  0  0  0  0  0  0
   10.0204  -15.5956   27.3493 N   0  0  0  0  0  0  0  0  0  0  0  0
    9.1167  -15.0315   26.3801 C   0  0  0  0  0  0  0  0  0  0  0  0
    9.6700  -16.9978   27.6077 O   0  0  0  0  0  0  0  0  0  0  0  0
    8.4665  -17.3417   27.7089 O   0  0  0  0  0  0  0  0  0  0  0  0
  2  1  1  0
  3  2  2  0
  4  2  1  0
  5  4  1  0
  6  5  1  0
  7  6  1  0
  8  7  1  0
  8  9  1  6
 10 11  2  0
 10  8  1  0
 13 12  1  1
 13 15  1  0
 14 13  1  0
 16 15  1  6
 16 18  1  0
 16 17  1  0
 17 10  1  0
 18 19  2  0
 21 20  1  1
 21 22  1  0
 23 21  1  0
 24 23  1  6
 25 24  1  0
 25 18  1  0
 26 28  1  0
 26 24  1  0
 27 26  2  0
M  END
$$$$
