RLL.pdb
     RDKit          3D

 28 27  0  0  1  0  0  0  0  0999 V2000
    9.2456  -12.7859   18.9447 N   0  0  0  0  0  0  0  0  0  0  0  0
    8.7490  -13.6774   17.9370 C   0  0  0  0  0  0  0  0  0  0  0  0
    8.0875  -13.2421   16.9335 N   0  0  0  0  0  0  0  0  0  0  0  0
    8.9986  -15.0822   18.0619 N   0  0  0  0  0  0  0  0  0  0  0  0
    7.9654  -16.0325   18.3083 C   0  0  0  0  0  0  0  0  0  0  0  0
    7.8276  -16.6655   19.6138 C   0  0  0  0  0  0  0  0  0  0  0  0
    8.6919  -17.7667   20.0775 C   0  0  0  0  0  0  0  0  0  0  0  0
    8.8855  -17.9601   21.5219 C   0  0  2  0  0  0  0  0  0  0  0  0
    7.7388  -18.4134   22.1974 N   0  0  0  0  0  0  0  0  0  0  0  0
    9.3786  -16.7135   22.2069 C   0  0  0  0  0  0  0  0  0  0  0  0
   10.4380  -16.1284   21.8814 O   0  0  0  0  0  0  0  0  0  0  0  0
    7.7311  -13.8470   16.1791 C   0  0  0  0  0  0  0  0  0  0  0  0
    7.3771  -12.5192   22.9166 C   0  0  2  0  0  0  0  0  0  0  0  0
    6.7980  -13.7294   23.7095 C   0  0  0  0  0  0  0  0  0  0  0  0
    5.6539  -13.1378   24.5116 C   0  0  0  0  0  0  0  0  0  0  0  0
    7.8674  -14.2578   24.6154 C   0  0  2  0  0  0  0  0  0  0  0  0
    9.0274  -14.9279   23.9672 N   0  0  0  0  0  0  0  0  0  0  0  0
    8.6354  -16.1273   23.2910 C   0  0  0  0  0  0  0  0  0  0  0  0
   10.0419  -15.2683   25.0488 O   0  0  0  0  0  0  0  0  0  0  0  0
   10.9624  -14.4364   25.2209 C   0  0  0  0  0  0  0  0  0  0  0  0
   11.4357  -14.0997   28.2325 C   0  0  2  0  0  0  0  0  0  0  0  0
   10.0998  -14.8560   28.2853 C   0  0  0  0  0  0  0  0  0  0  0  0
    9.4489  -14.4377   29.5735 C   0  0  0  0  0  0  0  0  0  0  0  0
   10.4288  -16.3023   28.1828 C   0  0  2  0  0  0  0  0  0  0  0  0
   10.8735  -16.7640   26.8199 N   0  0  0  0  0  0  0  0  0  0  0  0
    9.9107  -16.4672   25.7909 C   0  0  0  0  0  0  0  0  0  0  0  0
   11.2554  -18.1805   26.7583 O   0  0  0  0  0  0  0  0  0  0  0  0
   12.1055  -18.6428   27.5586 O   0  0  0  0  0  0  0  0  0  0  0  0
  2  1  1  0
  3  2  2  0
  4  2  1  0
  5  4  1  0
  6  5  1  0
  7  6  1  0
  8  7  1  0
  8  9  1  1
 10 11  2  0
 10  8  1  0
 13 12  1  6
 13 15  1  0
 14 13  1  0
 16 15  1  6
 16 18  1  0
 16 17  1  0
 17 10  1  0
 18 19  2  0
 21 20  1  6
 21 22  1  0
 23 21  1  0
 24 23  1  6
 25 24  1  0
 25 18  1  0
 26 28  1  0
 26 24  1  0
 27 26  2  0
M  END
$$$$
