RLL.pdb
     RDKit          3D

 28 27  0  0  1  0  0  0  0  0999 V2000
   10.2768  -20.4947   16.9574 N   0  0  0  0  0  0  0  0  0  0  0  0
    9.4365  -19.6798   16.1287 C   0  0  0  0  0  0  0  0  0  0  0  0
    9.5154  -19.7273   14.8537 N   0  0  0  0  0  0  0  0  0  0  0  0
    8.4938  -18.7950   16.7449 N   0  0  0  0  0  0  0  0  0  0  0  0
    8.2567  -18.7740   18.1502 C   0  0  0  0  0  0  0  0  0  0  0  0
    9.3215  -18.4271   19.0828 C   0  0  0  0  0  0  0  0  0  0  0  0
    9.2444  -17.2875   20.0156 C   0  0  0  0  0  0  0  0  0  0  0  0
    9.0445  -17.5521   21.4479 C   0  0  2  0  0  0  0  0  0  0  0  0
    7.7807  -18.0826   21.7610 N   0  0  0  0  0  0  0  0  0  0  0  0
    9.2687  -16.3276   22.2944 C   0  0  0  0  0  0  0  0  0  0  0  0
   10.3166  -15.6422   22.2410 O   0  0  0  0  0  0  0  0  0  0  0  0
    8.8975  -19.1951   14.2236 C   0  0  0  0  0  0  0  0  0  0  0  0
    5.8004  -13.0929   26.3918 C   0  0  1  0  0  0  0  0  0  0  0  0
    7.1729  -13.1922   25.6602 C   0  0  0  0  0  0  0  0  0  0  0  0
    7.2468  -11.9242   24.8303 C   0  0  0  0  0  0  0  0  0  0  0  0
    7.1546  -14.4048   24.7812 C   0  0  2  0  0  0  0  0  0  0  0  0
    8.4251  -14.7531   24.0889 N   0  0  0  0  0  0  0  0  0  0  0  0
    8.2638  -15.8820   23.2234 C   0  0  0  0  0  0  0  0  0  0  0  0
    9.4680  -15.0760   25.1486 O   0  0  0  0  0  0  0  0  0  0  0  0
   10.4687  -14.3234   25.1827 C   0  0  0  0  0  0  0  0  0  0  0  0
   11.1511  -13.8903   28.3823 C   0  0  2  0  0  0  0  0  0  0  0  0
    9.7655  -14.5450   28.4864 C   0  0  0  0  0  0  0  0  0  0  0  0
    9.1999  -14.0878   29.8014 C   0  0  0  0  0  0  0  0  0  0  0  0
    9.9808  -16.0111   28.3653 C   0  0  2  0  0  0  0  0  0  0  0  0
   10.3011  -16.5000   26.9773 N   0  0  0  0  0  0  0  0  0  0  0  0
    9.2738  -16.1735   26.0222 C   0  0  0  0  0  0  0  0  0  0  0  0
   10.6224  -17.9307   26.9013 O   0  0  0  0  0  0  0  0  0  0  0  0
   11.5291  -18.4154   27.6223 O   0  0  0  0  0  0  0  0  0  0  0  0
  2  1  1  0
  3  2  2  0
  4  2  1  0
  5  4  1  0
  6  5  1  0
  7  6  1  0
  8  7  1  0
  8  9  1  6
 10 11  2  0
 10  8  1  0
 13 12  1  1
 13 15  1  0
 14 13  1  0
 16 15  1  6
 16 18  1  0
 16 17  1  0
 17 10  1  0
 18 19  2  0
 21 20  1  6
 21 22  1  0
 23 21  1  0
 24 23  1  6
 25 24  1  0
 25 18  1  0
 26 28  1  0
 26 24  1  0
 27 26  2  0
M  END
$$$$
