RLL.pdb
     RDKit          3D

 28 27  0  0  1  0  0  0  0  0999 V2000
   11.8503  -18.3799   17.5888 N   0  0  0  0  0  0  0  0  0  0  0  0
   12.8055  -19.0723   18.4044 C   0  0  0  0  0  0  0  0  0  0  0  0
   14.0492  -19.0791   18.1089 N   0  0  0  0  0  0  0  0  0  0  0  0
   12.3534  -19.7709   19.5701 N   0  0  0  0  0  0  0  0  0  0  0  0
   11.0859  -19.5274   20.1748 C   0  0  0  0  0  0  0  0  0  0  0  0
   10.1946  -18.4983   19.6545 C   0  0  0  0  0  0  0  0  0  0  0  0
    8.8814  -18.1857   20.2482 C   0  0  0  0  0  0  0  0  0  0  0  0
    8.7435  -18.1856   21.7119 C   0  0  2  0  0  0  0  0  0  0  0  0
    7.4750  -18.5855   22.1673 N   0  0  0  0  0  0  0  0  0  0  0  0
    9.0655  -16.8460   22.3185 C   0  0  0  0  0  0  0  0  0  0  0  0
   10.1056  -16.2032   22.0431 O   0  0  0  0  0  0  0  0  0  0  0  0
   14.7595  -19.6013   18.6425 C   0  0  0  0  0  0  0  0  0  0  0  0
    6.1581  -12.9509   26.2753 C   0  0  1  0  0  0  0  0  0  0  0  0
    7.4736  -13.2503   25.4951 C   0  0  0  0  0  0  0  0  0  0  0  0
    7.6044  -12.0918   24.5241 C   0  0  0  0  0  0  0  0  0  0  0  0
    7.3050  -14.5451   24.7612 C   0  0  2  0  0  0  0  0  0  0  0  0
    8.4817  -15.0445   23.9990 N   0  0  0  0  0  0  0  0  0  0  0  0
    8.1700  -16.2324   23.2634 C   0  0  0  0  0  0  0  0  0  0  0  0
    9.5954  -15.3442   24.9913 O   0  0  0  0  0  0  0  0  0  0  0  0
   10.7037  -14.8123   24.7514 C   0  0  0  0  0  0  0  0  0  0  0  0
   11.2220  -13.5682   28.1806 C   0  0  2  0  0  0  0  0  0  0  0  0
    9.8593  -14.2676   28.2958 C   0  0  0  0  0  0  0  0  0  0  0  0
    9.1995  -13.6705   29.5067 C   0  0  0  0  0  0  0  0  0  0  0  0
   10.1386  -15.7254   28.3813 C   0  0  2  0  0  0  0  0  0  0  0  0
   10.3963  -16.4075   27.0635 N   0  0  0  0  0  0  0  0  0  0  0  0
    9.3448  -16.1815   26.1057 C   0  0  0  0  0  0  0  0  0  0  0  0
   10.6765  -17.8447   27.1733 O   0  0  0  0  0  0  0  0  0  0  0  0
   11.5677  -18.2584   27.9552 O   0  0  0  0  0  0  0  0  0  0  0  0
  2  1  1  0
  3  2  2  0
  4  2  1  0
  5  4  1  0
  6  5  1  0
  7  6  1  0
  8  7  1  0
  8  9  1  6
 10 11  2  0
 10  8  1  0
 13 12  1  1
 13 15  1  0
 14 13  1  0
 16 15  1  6
 16 18  1  0
 16 17  1  0
 17 10  1  0
 18 19  2  0
 21 20  1  6
 21 22  1  0
 23 21  1  0
 24 23  1  6
 25 24  1  0
 25 18  1  0
 26 28  1  0
 26 24  1  0
 27 26  2  0
M  END
$$$$
