RLL.pdb
     RDKit          3D

 28 27  0  0  1  0  0  0  0  0999 V2000
    8.6964  -12.7080   17.5673 N   0  0  0  0  0  0  0  0  0  0  0  0
    7.8756  -13.8257   17.2014 C   0  0  0  0  0  0  0  0  0  0  0  0
    7.9852  -14.3827   16.0559 N   0  0  0  0  0  0  0  0  0  0  0  0
    6.9138  -14.3233   18.1387 N   0  0  0  0  0  0  0  0  0  0  0  0
    7.2810  -14.9422   19.3690 C   0  0  0  0  0  0  0  0  0  0  0  0
    7.8979  -16.2625   19.3867 C   0  0  0  0  0  0  0  0  0  0  0  0
    9.1022  -16.5855   20.1741 C   0  0  0  0  0  0  0  0  0  0  0  0
    8.9444  -17.0286   21.5670 C   0  0  2  0  0  0  0  0  0  0  0  0
    7.6239  -17.3623   21.9154 N   0  0  0  0  0  0  0  0  0  0  0  0
    9.4537  -16.0121   22.5538 C   0  0  0  0  0  0  0  0  0  0  0  0
   10.5444  -15.4108   22.4142 O   0  0  0  0  0  0  0  0  0  0  0  0
    7.3776  -15.1503   15.7343 C   0  0  0  0  0  0  0  0  0  0  0  0
    7.4464  -12.1729   24.2972 C   0  0  2  0  0  0  0  0  0  0  0  0
    6.8727  -13.5183   24.8354 C   0  0  0  0  0  0  0  0  0  0  0  0
    5.7897  -13.0989   25.8117 C   0  0  0  0  0  0  0  0  0  0  0  0
    7.9709  -14.2534   25.5404 C   0  0  2  0  0  0  0  0  0  0  0  0
    9.1101  -14.7228   24.7056 N   0  0  0  0  0  0  0  0  0  0  0  0
    8.6900  -15.6803   23.7277 C   0  0  0  0  0  0  0  0  0  0  0  0
   10.1393  -15.3615   25.6261 O   0  0  0  0  0  0  0  0  0  0  0  0
   11.3209  -14.9700   25.4858 C   0  0  0  0  0  0  0  0  0  0  0  0
    9.2877  -14.5590   29.7206 C   0  0  1  0  0  0  0  0  0  0  0  0
   10.6475  -15.1811   29.3696 C   0  0  0  0  0  0  0  0  0  0  0  0
   11.2450  -14.2833   28.3232 C   0  0  0  0  0  0  0  0  0  0  0  0
   10.3733  -16.5738   28.9271 C   0  0  2  0  0  0  0  0  0  0  0  0
   10.7102  -16.8681   27.4890 N   0  0  0  0  0  0  0  0  0  0  0  0
    9.7365  -16.3372   26.5702 C   0  0  0  0  0  0  0  0  0  0  0  0
   10.9485  -18.2887   27.2043 O   0  0  0  0  0  0  0  0  0  0  0  0
   10.1643  -18.9255   26.4584 O   0  0  0  0  0  0  0  0  0  0  0  0
  2  1  1  0
  3  2  2  0
  4  2  1  0
  5  4  1  0
  6  5  1  0
  7  6  1  0
  8  7  1  0
  8  9  1  1
 10 11  2  0
 10  8  1  0
 13 12  1  6
 13 15  1  0
 14 13  1  0
 16 15  1  6
 16 18  1  0
 16 17  1  0
 17 10  1  0
 18 19  2  0
 21 20  1  1
 21 22  1  0
 23 21  1  0
 24 23  1  6
 25 24  1  0
 25 18  1  0
 26 28  1  0
 26 24  1  0
 27 26  2  0
M  END
$$$$
