RLL.pdb
     RDKit          3D

 28 27  0  0  1  0  0  0  0  0999 V2000
    8.7974  -20.3466   17.8098 N   0  0  0  0  0  0  0  0  0  0  0  0
    9.7482  -20.1602   16.7524 C   0  0  0  0  0  0  0  0  0  0  0  0
    9.6774  -20.8361   15.6696 N   0  0  0  0  0  0  0  0  0  0  0  0
   10.7974  -19.1994   16.9171 N   0  0  0  0  0  0  0  0  0  0  0  0
   11.0608  -18.5463   18.1563 C   0  0  0  0  0  0  0  0  0  0  0  0
   10.0083  -17.8233   18.8588 C   0  0  0  0  0  0  0  0  0  0  0  0
   10.2475  -17.0125   20.0672 C   0  0  0  0  0  0  0  0  0  0  0  0
    9.4812  -17.3084   21.2864 C   0  0  2  0  0  0  0  0  0  0  0  0
    8.1064  -17.5023   21.0654 N   0  0  0  0  0  0  0  0  0  0  0  0
    9.6477  -16.2467   22.3407 C   0  0  0  0  0  0  0  0  0  0  0  0
   10.7498  -15.7103   22.6025 O   0  0  0  0  0  0  0  0  0  0  0  0
   10.3537  -20.7484   14.8971 C   0  0  0  0  0  0  0  0  0  0  0  0
    5.8404  -12.8346   25.9332 C   0  0  1  0  0  0  0  0  0  0  0  0
    7.3171  -13.2207   25.6182 C   0  0  0  0  0  0  0  0  0  0  0  0
    7.9347  -11.9383   25.0929 C   0  0  0  0  0  0  0  0  0  0  0  0
    7.3142  -14.2830   24.5624 C   0  0  2  0  0  0  0  0  0  0  0  0
    8.6259  -14.9004   24.2258 N   0  0  0  0  0  0  0  0  0  0  0  0
    8.5202  -15.7923   23.1110 C   0  0  0  0  0  0  0  0  0  0  0  0
    9.1119  -15.6720   25.4437 O   0  0  0  0  0  0  0  0  0  0  0  0
    8.2606  -16.3925   26.0140 C   0  0  0  0  0  0  0  0  0  0  0  0
   11.7468  -13.7629   28.3167 C   0  0  1  0  0  0  0  0  0  0  0  0
   10.2735  -14.1862   28.4137 C   0  0  0  0  0  0  0  0  0  0  0  0
    9.7775  -13.6285   29.7179 C   0  0  0  0  0  0  0  0  0  0  0  0
   10.2522  -15.6692   28.3104 C   0  0  2  0  0  0  0  0  0  0  0  0
   10.8798  -16.2345   27.0635 N   0  0  0  0  0  0  0  0  0  0  0  0
   10.4571  -15.5499   25.8691 C   0  0  0  0  0  0  0  0  0  0  0  0
   10.7022  -17.6831   26.9028 O   0  0  0  0  0  0  0  0  0  0  0  0
   11.0762  -18.4713   27.8060 O   0  0  0  0  0  0  0  0  0  0  0  0
  2  1  1  0
  3  2  2  0
  4  2  1  0
  5  4  1  0
  6  5  1  0
  7  6  1  0
  8  7  1  0
  8  9  1  6
 10 11  2  0
 10  8  1  0
 13 12  1  1
 13 15  1  0
 14 13  1  0
 16 15  1  6
 16 18  1  0
 16 17  1  0
 17 10  1  0
 18 19  2  0
 21 20  1  6
 21 22  1  0
 23 21  1  0
 24 23  1  1
 25 24  1  0
 25 18  1  0
 26 28  1  0
 26 24  1  0
 27 26  2  0
M  END
$$$$
