RLL.pdb
     RDKit          3D

 28 27  0  0  1  0  0  0  0  0999 V2000
    7.4079  -17.2911   15.3981 N   0  0  0  0  0  0  0  0  0  0  0  0
    8.2761  -17.8789   16.3766 C   0  0  0  0  0  0  0  0  0  0  0  0
    8.7158  -19.0718   16.2427 N   0  0  0  0  0  0  0  0  0  0  0  0
    8.6537  -17.1127   17.5263 N   0  0  0  0  0  0  0  0  0  0  0  0
    7.7743  -16.8794   18.6234 C   0  0  0  0  0  0  0  0  0  0  0  0
    7.7162  -17.8076   19.7454 C   0  0  0  0  0  0  0  0  0  0  0  0
    8.8811  -18.1375   20.5874 C   0  0  0  0  0  0  0  0  0  0  0  0
    8.7360  -18.1001   22.0499 C   0  0  2  0  0  0  0  0  0  0  0  0
    7.4666  -18.4930   22.5093 N   0  0  0  0  0  0  0  0  0  0  0  0
    9.0499  -16.7440   22.6232 C   0  0  0  0  0  0  0  0  0  0  0  0
   10.1213  -16.1359   22.3930 O   0  0  0  0  0  0  0  0  0  0  0  0
    9.4329  -19.4876   16.8548 C   0  0  0  0  0  0  0  0  0  0  0  0
    5.8292  -12.6376   26.0759 C   0  0  1  0  0  0  0  0  0  0  0  0
    7.2121  -12.9605   25.4340 C   0  0  0  0  0  0  0  0  0  0  0  0
    7.5044  -11.7606   24.5525 C   0  0  0  0  0  0  0  0  0  0  0  0
    7.0741  -14.2051   24.6123 C   0  0  2  0  0  0  0  0  0  0  0  0
    8.3218  -14.7663   24.0264 N   0  0  0  0  0  0  0  0  0  0  0  0
    8.1091  -16.0726   23.4808 C   0  0  0  0  0  0  0  0  0  0  0  0
    9.3679  -14.8449   25.1284 O   0  0  0  0  0  0  0  0  0  0  0  0
   10.0308  -13.8020   25.3330 C   0  0  0  0  0  0  0  0  0  0  0  0
   10.1779  -13.9870   30.2172 C   0  0  1  0  0  0  0  0  0  0  0  0
   10.8402  -14.9893   29.2601 C   0  0  0  0  0  0  0  0  0  0  0  0
   12.2360  -14.4776   29.0411 C   0  0  0  0  0  0  0  0  0  0  0  0
    9.9864  -15.0396   28.0439 C   0  0  2  0  0  0  0  0  0  0  0  0
   10.4023  -16.0521   27.0095 N   0  0  0  0  0  0  0  0  0  0  0  0
    9.5448  -16.0490   25.8525 C   0  0  0  0  0  0  0  0  0  0  0  0
   10.5445  -17.4189   27.5268 O   0  0  0  0  0  0  0  0  0  0  0  0
   11.2921  -17.6499   28.5089 O   0  0  0  0  0  0  0  0  0  0  0  0
  2  1  1  0
  3  2  2  0
  4  2  1  0
  5  4  1  0
  6  5  1  0
  7  6  1  0
  8  7  1  0
  8  9  1  6
 10 11  2  0
 10  8  1  0
 13 12  1  1
 13 15  1  0
 14 13  1  0
 16 15  1  6
 16 18  1  0
 16 17  1  0
 17 10  1  0
 18 19  2  0
 21 20  1  1
 21 22  1  0
 23 21  1  0
 24 23  1  6
 25 24  1  0
 25 18  1  0
 26 28  1  0
 26 24  1  0
 27 26  2  0
M  END
$$$$
