RLL.pdb
     RDKit          3D

 28 27  0  0  1  0  0  0  0  0999 V2000
    9.3501  -21.1987   17.6634 N   0  0  0  0  0  0  0  0  0  0  0  0
   10.5265  -20.4681   17.2906 C   0  0  0  0  0  0  0  0  0  0  0  0
   11.6147  -21.0694   16.9930 N   0  0  0  0  0  0  0  0  0  0  0  0
   10.4786  -19.0371   17.2545 N   0  0  0  0  0  0  0  0  0  0  0  0
    9.7443  -18.2636   18.2001 C   0  0  0  0  0  0  0  0  0  0  0  0
   10.0499  -18.3357   19.6232 C   0  0  0  0  0  0  0  0  0  0  0  0
   10.2465  -17.1464   20.4727 C   0  0  0  0  0  0  0  0  0  0  0  0
    9.0741  -16.5149   21.0958 C   0  0  2  0  0  0  0  0  0  0  0  0
    8.3911  -15.6198   20.2538 N   0  0  0  0  0  0  0  0  0  0  0  0
    9.4202  -15.7961   22.3725 C   0  0  0  0  0  0  0  0  0  0  0  0
   10.5138  -15.2110   22.5526 O   0  0  0  0  0  0  0  0  0  0  0  0
   12.4873  -20.5806   16.7451 C   0  0  0  0  0  0  0  0  0  0  0  0
    8.2909  -12.2195   25.5704 C   0  0  1  0  0  0  0  0  0  0  0  0
    7.1090  -13.0923   25.0505 C   0  0  0  0  0  0  0  0  0  0  0  0
    5.9294  -12.6729   25.9076 C   0  0  0  0  0  0  0  0  0  0  0  0
    7.4482  -14.5332   25.2781 C   0  0  2  0  0  0  0  0  0  0  0  0
    8.7185  -15.0278   24.6807 N   0  0  0  0  0  0  0  0  0  0  0  0
    8.4862  -15.7496   23.4664 C   0  0  0  0  0  0  0  0  0  0  0  0
    9.3907  -15.9453   25.6912 O   0  0  0  0  0  0  0  0  0  0  0  0
    9.3479  -17.1707   25.4353 C   0  0  0  0  0  0  0  0  0  0  0  0
   11.1106  -13.5259   30.2760 C   0  0  1  0  0  0  0  0  0  0  0  0
   11.5878  -14.2929   29.0337 C   0  0  0  0  0  0  0  0  0  0  0  0
   11.1883  -13.4468   27.8578 C   0  0  0  0  0  0  0  0  0  0  0  0
   10.9494  -15.6343   29.0943 C   0  0  2  0  0  0  0  0  0  0  0  0
   10.6852  -16.2799   27.7595 N   0  0  0  0  0  0  0  0  0  0  0  0
   10.0150  -15.3985   26.8387 C   0  0  0  0  0  0  0  0  0  0  0  0
    9.9716  -17.5606   27.8401 O   0  0  0  0  0  0  0  0  0  0  0  0
   10.5401  -18.5737   28.3169 O   0  0  0  0  0  0  0  0  0  0  0  0
  2  1  1  0
  3  2  2  0
  4  2  1  0
  5  4  1  0
  6  5  1  0
  7  6  1  0
  8  7  1  0
  8  9  1  6
 10 11  2  0
 10  8  1  0
 13 12  1  6
 13 15  1  0
 14 13  1  0
 16 15  1  6
 16 18  1  0
 16 17  1  0
 17 10  1  0
 18 19  2  0
 21 20  1  1
 21 22  1  0
 23 21  1  0
 24 23  1  6
 25 24  1  0
 25 18  1  0
 26 28  1  0
 26 24  1  0
 27 26  2  0
M  END
$$$$
