AVW.pdb
     RDKit          3D

 27 28  0  0  1  0  0  0  0  0999 V2000
   17.0955  -21.2219    0.4505 C   0  0  0  0  0  0  0  0  0  0  0  0
   15.6702  -21.4369    0.8502 C   0  0  2  0  0  0  0  0  0  0  0  0
   14.7868  -21.1811   -0.2708 N   0  0  0  0  0  0  0  0  0  0  0  0
   15.2678  -20.7169    2.0626 C   0  0  0  0  0  0  0  0  0  0  0  0
   14.6908  -19.6017    1.9499 O   0  0  0  0  0  0  0  0  0  0  0  0
   13.0314  -21.6323    5.1531 C   0  0  0  0  0  0  0  0  0  0  0  0
   14.4319  -21.2921    5.5443 C   0  0  2  0  0  0  0  0  0  0  0  0
   14.3570  -20.6136    6.9187 C   0  0  0  0  0  0  0  0  0  0  0  0
   15.1506  -20.4040    4.5586 C   0  0  2  0  0  0  0  0  0  0  0  0
   15.4771  -21.1789    3.3938 N   0  0  0  0  0  0  0  0  0  0  0  0
   16.3307  -19.8251    5.2185 C   0  0  0  0  0  0  0  0  0  0  0  0
   17.3952  -20.5001    5.3109 O   0  0  0  0  0  0  0  0  0  0  0  0
   16.3803  -18.5076    5.7911 N   0  0  0  0  0  0  0  0  0  0  0  0
   17.5730  -18.0036    6.4253 C   0  0  1  0  0  0  0  0  0  0  0  0
   18.5751  -17.3829    5.5126 C   0  0  0  0  0  0  0  0  0  0  0  0
   18.5755  -15.9273    5.4182 C   0  0  0  0  0  0  0  0  0  0  0  0
   18.9247  -15.0761    6.4778 C   0  0  0  0  0  0  0  0  0  0  0  0
   18.7864  -13.8340    6.0010 N   0  0  0  0  0  0  0  0  0  0  0  0
   18.3723  -13.8529    4.7082 C   0  0  0  0  0  0  0  0  0  0  0  0
   18.1038  -12.8359    3.8136 C   0  0  0  0  0  0  0  0  0  0  0  0
   17.6993  -13.1351    2.5400 C   0  0  0  0  0  0  0  0  0  0  0  0
   17.5535  -14.4652    2.1308 C   0  0  0  0  0  0  0  0  0  0  0  0
   17.8220  -15.4683    3.0255 C   0  0  0  0  0  0  0  0  0  0  0  0
   18.2292  -15.1797    4.3091 C   0  0  0  0  0  0  0  0  0  0  0  0
   17.1576  -17.0984    7.5200 C   0  0  0  0  0  0  0  0  0  0  0  0
   18.0539  -16.7728    8.5123 O   0  0  0  0  0  0  0  0  0  0  0  0
   15.9949  -16.6325    7.5406 O   0  0  0  0  0  0  0  0  0  0  0  0
  2  1  1  6
  2  3  1  0
  4  5  2  0
  4  2  1  0
  7  6  1  6
  7  9  1  0
  8  7  1  0
  9 10  1  6
 10  4  1  0
 11  9  1  0
 11 13  1  0
 12 11  2  0
 14 13  1  0
 14 25  1  0
 14 15  1  6
 16 15  1  0
 17 16  2  0
 18 17  1  0
 19 18  1  0
 19 24  2  0
 20 19  1  0
 21 20  2  0
 21 22  1  0
 22 23  2  0
 23 24  1  0
 24 16  1  0
 25 26  1  0
 27 25  2  0
M  END
$$$$
