AVW.pdb
     RDKit          3D

 27 28  0  0  1  0  0  0  0  0999 V2000
   31.0906  -21.4622  -13.5779 C   0  0  0  0  0  0  0  0  0  0  0  0
   29.9117  -21.0589  -14.4056 C   0  0  2  0  0  0  0  0  0  0  0  0
   30.3339  -20.2242  -15.5135 N   0  0  0  0  0  0  0  0  0  0  0  0
   28.8102  -20.4672  -13.6398 C   0  0  0  0  0  0  0  0  0  0  0  0
   28.8961  -19.2642  -13.2724 O   0  0  0  0  0  0  0  0  0  0  0  0
   25.4698  -19.7475  -14.6800 C   0  0  0  0  0  0  0  0  0  0  0  0
   25.3144  -20.5165  -13.4093 C   0  0  2  0  0  0  0  0  0  0  0  0
   24.1318  -19.8940  -12.6551 C   0  0  0  0  0  0  0  0  0  0  0  0
   26.5465  -20.5265  -12.5382 C   0  0  2  0  0  0  0  0  0  0  0  0
   27.6181  -21.1504  -13.2635 N   0  0  0  0  0  0  0  0  0  0  0  0
   26.2263  -21.2103  -11.2761 C   0  0  0  0  0  0  0  0  0  0  0  0
   26.3902  -22.4597  -11.1774 O   0  0  0  0  0  0  0  0  0  0  0  0
   25.7220  -20.5563  -10.0995 N   0  0  0  0  0  0  0  0  0  0  0  0
   25.3878  -21.2963   -8.9081 C   0  0  1  0  0  0  0  0  0  0  0  0
   26.5068  -21.5087   -7.9463 C   0  0  0  0  0  0  0  0  0  0  0  0
   27.0747  -20.3222   -7.3157 C   0  0  0  0  0  0  0  0  0  0  0  0
   26.8824  -19.0166   -7.7926 C   0  0  0  0  0  0  0  0  0  0  0  0
   27.5667  -18.2254   -6.9588 N   0  0  0  0  0  0  0  0  0  0  0  0
   28.1761  -18.9534   -5.9884 C   0  0  0  0  0  0  0  0  0  0  0  0
   28.9711  -18.5817   -4.9224 C   0  0  0  0  0  0  0  0  0  0  0  0
   29.4624  -19.5351   -4.0711 C   0  0  0  0  0  0  0  0  0  0  0  0
   29.1677  -20.8887   -4.2681 C   0  0  0  0  0  0  0  0  0  0  0  0
   28.3779  -21.2486   -5.3290 C   0  0  0  0  0  0  0  0  0  0  0  0
   27.8784  -20.2987   -6.1921 C   0  0  0  0  0  0  0  0  0  0  0  0
   24.2126  -20.6476   -8.2850 C   0  0  0  0  0  0  0  0  0  0  0  0
   23.6333  -19.5576   -8.8937 O   0  0  0  0  0  0  0  0  0  0  0  0
   23.7496  -21.0907   -7.2086 O   0  0  0  0  0  0  0  0  0  0  0  0
  2  1  1  1
  2  3  1  0
  4  5  2  0
  4  2  1  0
  7  6  1  6
  7  9  1  0
  8  7  1  0
  9 10  1  6
 10  4  1  0
 11  9  1  0
 11 13  1  0
 12 11  2  0
 14 13  1  0
 14 25  1  0
 14 15  1  1
 16 15  1  0
 17 16  2  0
 18 17  1  0
 19 18  1  0
 19 24  2  0
 20 19  1  0
 21 20  2  0
 21 22  1  0
 22 23  2  0
 23 24  1  0
 24 16  1  0
 25 26  1  0
 27 25  2  0
M  END
$$$$
