AVW.pdb
     RDKit          3D

 27 28  0  0  1  0  0  0  0  0999 V2000
   22.4243  -17.0047  -15.9257 C   0  0  0  0  0  0  0  0  0  0  0  0
   23.4234  -17.4585  -16.9422 C   0  0  2  0  0  0  0  0  0  0  0  0
   22.7584  -17.8152  -18.1803 N   0  0  0  0  0  0  0  0  0  0  0  0
   24.3345  -18.5051  -16.4682 C   0  0  0  0  0  0  0  0  0  0  0  0
   23.9169  -19.6922  -16.3910 O   0  0  0  0  0  0  0  0  0  0  0  0
   27.8582  -19.4829  -17.7061 C   0  0  0  0  0  0  0  0  0  0  0  0
   27.8833  -19.2335  -16.2340 C   0  0  2  0  0  0  0  0  0  0  0  0
   28.8584  -20.2514  -15.6274 C   0  0  0  0  0  0  0  0  0  0  0  0
   26.5339  -19.3364  -15.5665 C   0  0  2  0  0  0  0  0  0  0  0  0
   25.6875  -18.2934  -16.0760 N   0  0  0  0  0  0  0  0  0  0  0  0
   26.7221  -19.2695  -14.1093 C   0  0  0  0  0  0  0  0  0  0  0  0
   26.8157  -18.1464  -13.5372 O   0  0  0  0  0  0  0  0  0  0  0  0
   26.8139  -20.4148  -13.2457 N   0  0  0  0  0  0  0  0  0  0  0  0
   26.9503  -20.2752  -11.8171 C   0  0  1  0  0  0  0  0  0  0  0  0
   25.9376  -19.4043  -11.1552 C   0  0  0  0  0  0  0  0  0  0  0  0
   24.6337  -19.9958  -10.8762 C   0  0  0  0  0  0  0  0  0  0  0  0
   24.2980  -20.6074   -9.6586 C   0  0  0  0  0  0  0  0  0  0  0  0
   23.0369  -21.0289   -9.8043 N   0  0  0  0  0  0  0  0  0  0  0  0
   22.5604  -20.7196  -11.0374 C   0  0  0  0  0  0  0  0  0  0  0  0
   21.3343  -20.9425  -11.6319 C   0  0  0  0  0  0  0  0  0  0  0  0
   21.1072  -20.5126  -12.9121 C   0  0  0  0  0  0  0  0  0  0  0  0
   22.1069  -19.8465  -13.6297 C   0  0  0  0  0  0  0  0  0  0  0  0
   23.3210  -19.6297  -13.0317 C   0  0  0  0  0  0  0  0  0  0  0  0
   23.5612  -20.0579  -11.7449 C   0  0  0  0  0  0  0  0  0  0  0  0
   27.0084  -21.6330  -11.2314 C   0  0  0  0  0  0  0  0  0  0  0  0
   26.7139  -22.7261  -12.0142 O   0  0  0  0  0  0  0  0  0  0  0  0
   27.3242  -21.7836  -10.0286 O   0  0  0  0  0  0  0  0  0  0  0  0
  2  1  1  1
  2  3  1  0
  4  5  2  0
  4  2  1  0
  7  6  1  6
  7  9  1  0
  8  7  1  0
  9 10  1  6
 10  4  1  0
 11  9  1  0
 11 13  1  0
 12 11  2  0
 14 13  1  0
 14 25  1  0
 14 15  1  1
 16 15  1  0
 17 16  2  0
 18 17  1  0
 19 18  1  0
 19 24  2  0
 20 19  1  0
 21 20  2  0
 21 22  1  0
 22 23  2  0
 23 24  1  0
 24 16  1  0
 25 26  1  0
 27 25  2  0
M  END
$$$$
