AVW.pdb
     RDKit          3D

 27 28  0  0  1  0  0  0  0  0999 V2000
   27.9878  -19.2654  -15.8921 C   0  0  0  0  0  0  0  0  0  0  0  0
   28.3537  -20.4824  -15.1029 C   0  0  2  0  0  0  0  0  0  0  0  0
   28.8119  -21.5379  -15.9852 N   0  0  0  0  0  0  0  0  0  0  0  0
   27.3139  -20.9344  -14.1731 C   0  0  0  0  0  0  0  0  0  0  0  0
   26.4345  -21.7401  -14.5819 O   0  0  0  0  0  0  0  0  0  0  0  0
   27.8105  -21.3407  -10.1141 C   0  0  0  0  0  0  0  0  0  0  0  0
   26.5323  -20.6829  -10.5187 C   0  0  2  0  0  0  0  0  0  0  0  0
   25.4477  -21.1916   -9.5597 C   0  0  0  0  0  0  0  0  0  0  0  0
   26.1307  -20.9405  -11.9502 C   0  0  2  0  0  0  0  0  0  0  0  0
   27.2063  -20.5326  -12.8107 N   0  0  0  0  0  0  0  0  0  0  0  0
   24.8711  -20.2314  -12.2217 C   0  0  0  0  0  0  0  0  0  0  0  0
   24.8916  -19.0046  -12.5250 O   0  0  0  0  0  0  0  0  0  0  0  0
   23.5677  -20.8352  -12.1685 N   0  0  0  0  0  0  0  0  0  0  0  0
   22.4588  -20.3073  -12.9238 C   0  0  1  0  0  0  0  0  0  0  0  0
   22.6499  -20.2601  -14.4015 C   0  0  0  0  0  0  0  0  0  0  0  0
   21.5518  -19.7211  -15.1963 C   0  0  0  0  0  0  0  0  0  0  0  0
   21.3680  -18.3529  -15.4478 C   0  0  0  0  0  0  0  0  0  0  0  0
   20.2588  -18.2703  -16.1909 N   0  0  0  0  0  0  0  0  0  0  0  0
   19.7354  -19.5016  -16.4213 C   0  0  0  0  0  0  0  0  0  0  0  0
   18.6216  -19.9097  -17.1281 C   0  0  0  0  0  0  0  0  0  0  0  0
   18.3159  -21.2419  -17.2122 C   0  0  0  0  0  0  0  0  0  0  0  0
   19.1218  -22.2005  -16.5881 C   0  0  0  0  0  0  0  0  0  0  0  0
   20.2253  -21.7863  -15.8884 C   0  0  0  0  0  0  0  0  0  0  0  0
   20.5426  -20.4492  -15.7965 C   0  0  0  0  0  0  0  0  0  0  0  0
   21.2432  -21.0524  -12.5272 C   0  0  0  0  0  0  0  0  0  0  0  0
   20.0601  -20.3752  -12.3377 O   0  0  0  0  0  0  0  0  0  0  0  0
   21.2940  -22.2936  -12.3652 O   0  0  0  0  0  0  0  0  0  0  0  0
  2  1  1  6
  2  3  1  0
  4  5  2  0
  4  2  1  0
  7  6  1  1
  7  9  1  0
  8  7  1  0
  9 10  1  6
 10  4  1  0
 11  9  1  0
 11 13  1  0
 12 11  2  0
 14 13  1  0
 14 25  1  0
 14 15  1  6
 16 15  1  0
 17 16  2  0
 18 17  1  0
 19 18  1  0
 19 24  2  0
 20 19  1  0
 21 20  2  0
 21 22  1  0
 22 23  2  0
 23 24  1  0
 24 16  1  0
 25 26  1  0
 27 25  2  0
M  END
$$$$
