AVW.pdb
     RDKit          3D

 27 28  0  0  1  0  0  0  0  0999 V2000
   27.8848  -23.8107  -17.9380 C   0  0  0  0  0  0  0  0  0  0  0  0
   28.8984  -22.7350  -17.7074 C   0  0  2  0  0  0  0  0  0  0  0  0
   30.2403  -23.2697  -17.8334 N   0  0  0  0  0  0  0  0  0  0  0  0
   28.7052  -21.9793  -16.4658 C   0  0  0  0  0  0  0  0  0  0  0  0
   29.3529  -22.3146  -15.4374 O   0  0  0  0  0  0  0  0  0  0  0  0
   28.5482  -17.9695  -16.1521 C   0  0  0  0  0  0  0  0  0  0  0  0
   27.4261  -18.6694  -15.4584 C   0  0  2  0  0  0  0  0  0  0  0  0
   27.1108  -17.8588  -14.1941 C   0  0  0  0  0  0  0  0  0  0  0  0
   27.7200  -20.1058  -15.1017 C   0  0  2  0  0  0  0  0  0  0  0  0
   27.8259  -20.8689  -16.3143 N   0  0  0  0  0  0  0  0  0  0  0  0
   26.6646  -20.5936  -14.2009 C   0  0  0  0  0  0  0  0  0  0  0  0
   25.5285  -20.8940  -14.6662 O   0  0  0  0  0  0  0  0  0  0  0  0
   26.8181  -20.7636  -12.7819 N   0  0  0  0  0  0  0  0  0  0  0  0
   25.8321  -21.4594  -11.9930 C   0  0  1  0  0  0  0  0  0  0  0  0
   26.3042  -21.9678  -10.6735 C   0  0  0  0  0  0  0  0  0  0  0  0
   26.3699  -21.0081   -9.5769 C   0  0  0  0  0  0  0  0  0  0  0  0
   25.3227  -20.1380   -9.2369 C   0  0  0  0  0  0  0  0  0  0  0  0
   25.7739  -19.4206   -8.2019 N   0  0  0  0  0  0  0  0  0  0  0  0
   27.0388  -19.7866   -7.8714 C   0  0  0  0  0  0  0  0  0  0  0  0
   27.8975  -19.3404   -6.8865 C   0  0  0  0  0  0  0  0  0  0  0  0
   29.1429  -19.8960   -6.7624 C   0  0  0  0  0  0  0  0  0  0  0  0
   29.5592  -20.9158   -7.6254 C   0  0  0  0  0  0  0  0  0  0  0  0
   28.7004  -21.3523   -8.6003 C   0  0  0  0  0  0  0  0  0  0  0  0
   27.4455  -20.8009   -8.7350 C   0  0  0  0  0  0  0  0  0  0  0  0
   24.6433  -20.5856  -11.8779 C   0  0  0  0  0  0  0  0  0  0  0  0
   23.3925  -21.1480  -11.7616 O   0  0  0  0  0  0  0  0  0  0  0  0
   24.7779  -19.3401  -11.8866 O   0  0  0  0  0  0  0  0  0  0  0  0
  2  1  1  1
  2  3  1  0
  4  5  2  0
  4  2  1  0
  7  6  1  1
  7  9  1  0
  8  7  1  0
  9 10  1  6
 10  4  1  0
 11  9  1  0
 11 13  1  0
 12 11  2  0
 14 13  1  0
 14 25  1  0
 14 15  1  1
 16 15  1  0
 17 16  2  0
 18 17  1  0
 19 18  1  0
 19 24  2  0
 20 19  1  0
 21 20  2  0
 21 22  1  0
 22 23  2  0
 23 24  1  0
 24 16  1  0
 25 26  1  0
 27 25  2  0
M  END
$$$$
