AVW.pdb
     RDKit          3D

 27 28  0  0  1  0  0  0  0  0999 V2000
   29.3116  -23.7018  -15.7976 C   0  0  0  0  0  0  0  0  0  0  0  0
   28.4559  -22.7179  -16.5308 C   0  0  2  0  0  0  0  0  0  0  0  0
   29.1604  -22.1983  -17.6866 N   0  0  0  0  0  0  0  0  0  0  0  0
   27.8956  -21.6579  -15.6867 C   0  0  0  0  0  0  0  0  0  0  0  0
   28.5321  -20.5775  -15.5565 O   0  0  0  0  0  0  0  0  0  0  0  0
   24.9038  -19.6873  -16.1771 C   0  0  0  0  0  0  0  0  0  0  0  0
   24.8015  -20.2474  -14.7965 C   0  0  2  0  0  0  0  0  0  0  0  0
   24.1392  -19.1696  -13.9277 C   0  0  0  0  0  0  0  0  0  0  0  0
   26.1228  -20.6648  -14.1993 C   0  0  2  0  0  0  0  0  0  0  0  0
   26.6611  -21.7433  -14.9809 N   0  0  0  0  0  0  0  0  0  0  0  0
   25.9110  -21.0218  -12.7883 C   0  0  0  0  0  0  0  0  0  0  0  0
   25.2010  -22.0246  -12.4919 O   0  0  0  0  0  0  0  0  0  0  0  0
   26.4613  -20.3005  -11.6733 N   0  0  0  0  0  0  0  0  0  0  0  0
   26.2418  -20.7282  -10.3140 C   0  0  1  0  0  0  0  0  0  0  0  0
   27.2393  -20.2445   -9.3173 C   0  0  0  0  0  0  0  0  0  0  0  0
   26.9111  -20.4258   -7.9075 C   0  0  0  0  0  0  0  0  0  0  0  0
   25.7994  -21.1507   -7.4515 C   0  0  0  0  0  0  0  0  0  0  0  0
   25.8420  -21.0714   -6.1169 N   0  0  0  0  0  0  0  0  0  0  0  0
   26.9114  -20.3421   -5.7073 C   0  0  0  0  0  0  0  0  0  0  0  0
   27.3630  -19.9998   -4.4481 C   0  0  0  0  0  0  0  0  0  0  0  0
   28.4973  -19.2450   -4.3107 C   0  0  0  0  0  0  0  0  0  0  0  0
   29.2088  -18.8136   -5.4356 C   0  0  0  0  0  0  0  0  0  0  0  0
   28.7531  -19.1579   -6.6816 C   0  0  0  0  0  0  0  0  0  0  0  0
   27.6134  -19.9163   -6.8324 C   0  0  0  0  0  0  0  0  0  0  0  0
   24.8509  -20.3803   -9.9472 C   0  0  0  0  0  0  0  0  0  0  0  0
   24.0872  -21.2804   -9.2396 O   0  0  0  0  0  0  0  0  0  0  0  0
   24.3736  -19.2711  -10.2807 O   0  0  0  0  0  0  0  0  0  0  0  0
  2  1  1  1
  2  3  1  0
  4  5  2  0
  4  2  1  0
  7  6  1  6
  7  9  1  0
  8  7  1  0
  9 10  1  6
 10  4  1  0
 11  9  1  0
 11 13  1  0
 12 11  2  0
 14 13  1  0
 14 25  1  0
 14 15  1  1
 16 15  1  0
 17 16  2  0
 18 17  1  0
 19 18  1  0
 19 24  2  0
 20 19  1  0
 21 20  2  0
 21 22  1  0
 22 23  2  0
 23 24  1  0
 24 16  1  0
 25 26  1  0
 27 25  2  0
M  END
$$$$
