AVW.pdb
     RDKit          3D

 27 28  0  0  1  0  0  0  0  0999 V2000
   20.6945  -31.3412  -11.6460 C   0  0  0  0  0  0  0  0  0  0  0  0
   21.8952  -32.2209  -11.4972 C   0  0  2  0  0  0  0  0  0  0  0  0
   21.9087  -33.2368  -12.5317 N   0  0  0  0  0  0  0  0  0  0  0  0
   22.0712  -32.7803  -10.1533 C   0  0  0  0  0  0  0  0  0  0  0  0
   21.3447  -33.7450   -9.7911 O   0  0  0  0  0  0  0  0  0  0  0  0
   25.4679  -33.7319   -8.3556 C   0  0  0  0  0  0  0  0  0  0  0  0
   24.6032  -32.8755   -7.4902 C   0  0  2  0  0  0  0  0  0  0  0  0
   24.7750  -33.3812   -6.0515 C   0  0  0  0  0  0  0  0  0  0  0  0
   23.1448  -32.8788   -7.8775 C   0  0  2  0  0  0  0  0  0  0  0  0
   23.0168  -32.3174   -9.1937 N   0  0  0  0  0  0  0  0  0  0  0  0
   22.3840  -32.1418   -6.8571 C   0  0  0  0  0  0  0  0  0  0  0  0
   22.6028  -30.9103   -6.6755 O   0  0  0  0  0  0  0  0  0  0  0  0
   21.3751  -32.7232   -6.0142 N   0  0  0  0  0  0  0  0  0  0  0  0
   20.6837  -31.9453   -5.0164 C   0  0  1  0  0  0  0  0  0  0  0  0
   19.4290  -31.2817   -5.4720 C   0  0  0  0  0  0  0  0  0  0  0  0
   18.6889  -30.5087   -4.4807 C   0  0  0  0  0  0  0  0  0  0  0  0
   19.0371  -29.2079   -4.0859 C   0  0  0  0  0  0  0  0  0  0  0  0
   18.1332  -28.8586   -3.1637 N   0  0  0  0  0  0  0  0  0  0  0  0
   17.2396  -29.8592   -2.9556 C   0  0  0  0  0  0  0  0  0  0  0  0
   16.1454  -29.9556   -2.1189 C   0  0  0  0  0  0  0  0  0  0  0  0
   15.3916  -31.0988   -2.1084 C   0  0  0  0  0  0  0  0  0  0  0  0
   15.7172  -32.1766   -2.9392 C   0  0  0  0  0  0  0  0  0  0  0  0
   16.8052  -32.0723   -3.7663 C   0  0  0  0  0  0  0  0  0  0  0  0
   17.5710  -30.9277   -3.7853 C   0  0  0  0  0  0  0  0  0  0  0  0
   20.4779  -32.8069   -3.8309 C   0  0  0  0  0  0  0  0  0  0  0  0
   20.3884  -32.2370   -2.5813 O   0  0  0  0  0  0  0  0  0  0  0  0
   20.3860  -34.0488   -3.9673 O   0  0  0  0  0  0  0  0  0  0  0  0
  2  1  1  1
  2  3  1  0
  4  5  2  0
  4  2  1  0
  7  6  1  6
  7  9  1  0
  8  7  1  0
  9 10  1  6
 10  4  1  0
 11  9  1  0
 11 13  1  0
 12 11  2  0
 14 13  1  0
 14 25  1  0
 14 15  1  6
 16 15  1  0
 17 16  2  0
 18 17  1  0
 19 18  1  0
 19 24  2  0
 20 19  1  0
 21 20  2  0
 21 22  1  0
 22 23  2  0
 23 24  1  0
 24 16  1  0
 25 26  1  0
 27 25  2  0
M  END
$$$$
