AVW.pdb
     RDKit          3D

 27 28  0  0  1  0  0  0  0  0999 V2000
   22.4268  -16.7649  -15.7030 C   0  0  0  0  0  0  0  0  0  0  0  0
   23.3852  -17.0418  -16.8176 C   0  0  2  0  0  0  0  0  0  0  0  0
   22.6731  -17.1851  -18.0725 N   0  0  0  0  0  0  0  0  0  0  0  0
   24.3061  -18.1533  -16.5602 C   0  0  0  0  0  0  0  0  0  0  0  0
   23.8871  -19.3365  -16.6795 O   0  0  0  0  0  0  0  0  0  0  0  0
   27.6841  -19.1888  -18.0362 C   0  0  0  0  0  0  0  0  0  0  0  0
   27.8114  -19.0111  -16.5589 C   0  0  2  0  0  0  0  0  0  0  0  0
   28.8009  -20.0759  -16.0669 C   0  0  0  0  0  0  0  0  0  0  0  0
   26.5068  -19.1196  -15.8086 C   0  0  2  0  0  0  0  0  0  0  0  0
   25.6706  -18.0109  -16.1764 N   0  0  0  0  0  0  0  0  0  0  0  0
   26.7946  -19.1748  -14.3673 C   0  0  0  0  0  0  0  0  0  0  0  0
   27.1118  -18.1200  -13.7475 O   0  0  0  0  0  0  0  0  0  0  0  0
   26.7463  -20.3708  -13.5714 N   0  0  0  0  0  0  0  0  0  0  0  0
   26.9132  -20.3332  -12.1398 C   0  0  1  0  0  0  0  0  0  0  0  0
   26.0261  -19.3812  -11.4124 C   0  0  0  0  0  0  0  0  0  0  0  0
   24.6454  -19.7968  -11.1913 C   0  0  0  0  0  0  0  0  0  0  0  0
   24.1727  -20.3225   -9.9791 C   0  0  0  0  0  0  0  0  0  0  0  0
   22.8778  -20.5884  -10.1838 N   0  0  0  0  0  0  0  0  0  0  0  0
   22.5087  -20.2619  -11.4488 C   0  0  0  0  0  0  0  0  0  0  0  0
   21.2967  -20.3495  -12.1047 C   0  0  0  0  0  0  0  0  0  0  0  0
   21.1923  -19.9359  -13.4059 C   0  0  0  0  0  0  0  0  0  0  0  0
   22.3037  -19.4226  -14.0836 C   0  0  0  0  0  0  0  0  0  0  0  0
   23.5028  -19.3395  -13.4248 C   0  0  0  0  0  0  0  0  0  0  0  0
   23.6201  -19.7527  -12.1163 C   0  0  0  0  0  0  0  0  0  0  0  0
   26.8035  -21.7193  -11.6330 C   0  0  0  0  0  0  0  0  0  0  0  0
   27.0555  -21.9817  -10.3057 O   0  0  0  0  0  0  0  0  0  0  0  0
   26.4825  -22.6473  -12.4110 O   0  0  0  0  0  0  0  0  0  0  0  0
  2  1  1  1
  2  3  1  0
  4  5  2  0
  4  2  1  0
  7  6  1  6
  7  9  1  0
  8  7  1  0
  9 10  1  1
 10  4  1  0
 11  9  1  0
 11 13  1  0
 12 11  2  0
 14 13  1  0
 14 25  1  0
 14 15  1  1
 16 15  1  0
 17 16  2  0
 18 17  1  0
 19 18  1  0
 19 24  2  0
 20 19  1  0
 21 20  2  0
 21 22  1  0
 22 23  2  0
 23 24  1  0
 24 16  1  0
 25 26  1  0
 27 25  2  0
M  END
$$$$
