AVW.pdb
     RDKit          3D

 27 28  0  0  1  0  0  0  0  0999 V2000
   23.8282  -23.9992  -15.5571 C   0  0  0  0  0  0  0  0  0  0  0  0
   25.2193  -23.5877  -15.9222 C   0  0  2  0  0  0  0  0  0  0  0  0
   25.9321  -24.6964  -16.5264 N   0  0  0  0  0  0  0  0  0  0  0  0
   25.9701  -22.9612  -14.8296 C   0  0  0  0  0  0  0  0  0  0  0  0
   26.5077  -23.6945  -13.9562 O   0  0  0  0  0  0  0  0  0  0  0  0
   28.1980  -19.5144  -15.0419 C   0  0  0  0  0  0  0  0  0  0  0  0
   27.2529  -19.5795  -13.8875 C   0  0  2  0  0  0  0  0  0  0  0  0
   27.9599  -18.9188  -12.6965 C   0  0  0  0  0  0  0  0  0  0  0  0
   26.8122  -20.9770  -13.5275 C   0  0  2  0  0  0  0  0  0  0  0  0
   26.1510  -21.5581  -14.6629 N   0  0  0  0  0  0  0  0  0  0  0  0
   25.9581  -20.9091  -12.3321 C   0  0  0  0  0  0  0  0  0  0  0  0
   24.7456  -20.5701  -12.4427 O   0  0  0  0  0  0  0  0  0  0  0  0
   26.3998  -21.2048  -10.9966 N   0  0  0  0  0  0  0  0  0  0  0  0
   25.4846  -21.2145   -9.8825 C   0  0  1  0  0  0  0  0  0  0  0  0
   26.0896  -21.5170   -8.5541 C   0  0  0  0  0  0  0  0  0  0  0  0
   26.7450  -20.4161   -7.8567 C   0  0  0  0  0  0  0  0  0  0  0  0
   26.4765  -19.0620   -8.1085 C   0  0  0  0  0  0  0  0  0  0  0  0
   27.2798  -18.3778   -7.2863 N   0  0  0  0  0  0  0  0  0  0  0  0
   28.0353  -19.2184   -6.5342 C   0  0  0  0  0  0  0  0  0  0  0  0
   28.9855  -18.9791   -5.5614 C   0  0  0  0  0  0  0  0  0  0  0  0
   29.6065  -20.0292   -4.9395 C   0  0  0  0  0  0  0  0  0  0  0  0
   29.2891  -21.3491   -5.2786 C   0  0  0  0  0  0  0  0  0  0  0  0
   28.3448  -21.5774   -6.2456 C   0  0  0  0  0  0  0  0  0  0  0  0
   27.7138  -20.5293   -6.8782 C   0  0  0  0  0  0  0  0  0  0  0  0
   24.7403  -19.9355   -9.8949 C   0  0  0  0  0  0  0  0  0  0  0  0
   23.4029  -19.9219   -9.5702 O   0  0  0  0  0  0  0  0  0  0  0  0
   25.3274  -18.8717  -10.1999 O   0  0  0  0  0  0  0  0  0  0  0  0
  2  1  1  1
  2  3  1  0
  4  5  2  0
  4  2  1  0
  7  6  1  6
  7  9  1  0
  8  7  1  0
  9 10  1  6
 10  4  1  0
 11  9  1  0
 11 13  1  0
 12 11  2  0
 14 13  1  0
 14 25  1  0
 14 15  1  1
 16 15  1  0
 17 16  2  0
 18 17  1  0
 19 18  1  0
 19 24  2  0
 20 19  1  0
 21 20  2  0
 21 22  1  0
 22 23  2  0
 23 24  1  0
 24 16  1  0
 25 26  1  0
 27 25  2  0
M  END
$$$$
