AVW.pdb
     RDKit          3D

 27 28  0  0  1  0  0  0  0  0999 V2000
   29.7102  -17.9407  -14.6847 C   0  0  0  0  0  0  0  0  0  0  0  0
   28.6175  -18.8602  -15.1301 C   0  0  2  0  0  0  0  0  0  0  0  0
   28.2567  -18.5864  -16.5075 N   0  0  0  0  0  0  0  0  0  0  0  0
   27.4549  -18.8936  -14.2372 C   0  0  0  0  0  0  0  0  0  0  0  0
   26.8656  -17.8146  -13.9579 O   0  0  0  0  0  0  0  0  0  0  0  0
   24.2784  -20.4832  -14.7656 C   0  0  0  0  0  0  0  0  0  0  0  0
   24.6918  -20.9179  -13.3980 C   0  0  2  0  0  0  0  0  0  0  0  0
   23.4290  -20.9026  -12.5262 C   0  0  0  0  0  0  0  0  0  0  0  0
   25.7693  -20.0631  -12.7771 C   0  0  2  0  0  0  0  0  0  0  0  0
   26.9173  -20.0702  -13.6406 N   0  0  0  0  0  0  0  0  0  0  0  0
   26.0565  -20.5727  -11.4276 C   0  0  0  0  0  0  0  0  0  0  0  0
   27.2210  -20.9707  -11.1393 O   0  0  0  0  0  0  0  0  0  0  0  0
   25.0903  -20.6626  -10.3672 N   0  0  0  0  0  0  0  0  0  0  0  0
   25.4684  -21.0506   -9.0310 C   0  0  1  0  0  0  0  0  0  0  0  0
   26.6009  -20.2866   -8.4343 C   0  0  0  0  0  0  0  0  0  0  0  0
   26.9776  -20.6188   -7.0647 C   0  0  0  0  0  0  0  0  0  0  0  0
   26.5273  -21.7617   -6.3864 C   0  0  0  0  0  0  0  0  0  0  0  0
   27.0784  -21.6971   -5.1692 N   0  0  0  0  0  0  0  0  0  0  0  0
   27.8466  -20.5850   -5.0419 C   0  0  0  0  0  0  0  0  0  0  0  0
   28.6026  -20.1051   -3.9909 C   0  0  0  0  0  0  0  0  0  0  0  0
   29.3031  -18.9367   -4.1304 C   0  0  0  0  0  0  0  0  0  0  0  0
   29.2627  -18.2187   -5.3307 C   0  0  0  0  0  0  0  0  0  0  0  0
   28.5095  -18.7025   -6.3687 C   0  0  0  0  0  0  0  0  0  0  0  0
   27.8005  -19.8762   -6.2400 C   0  0  0  0  0  0  0  0  0  0  0  0
   24.2521  -21.0229   -8.1885 C   0  0  0  0  0  0  0  0  0  0  0  0
   24.1887  -21.8038   -7.0570 O   0  0  0  0  0  0  0  0  0  0  0  0
   23.2862  -20.2911   -8.5064 O   0  0  0  0  0  0  0  0  0  0  0  0
  2  1  1  1
  2  3  1  0
  4  5  2  0
  4  2  1  0
  7  6  1  6
  7  9  1  0
  8  7  1  0
  9 10  1  6
 10  4  1  0
 11  9  1  0
 11 13  1  0
 12 11  2  0
 14 13  1  0
 14 25  1  0
 14 15  1  1
 16 15  1  0
 17 16  2  0
 18 17  1  0
 19 18  1  0
 19 24  2  0
 20 19  1  0
 21 20  2  0
 21 22  1  0
 22 23  2  0
 23 24  1  0
 24 16  1  0
 25 26  1  0
 27 25  2  0
M  END
$$$$
