AVW.pdb
     RDKit          3D

 27 28  0  0  1  0  0  0  0  0999 V2000
   27.8024  -18.2329  -14.8798 C   0  0  0  0  0  0  0  0  0  0  0  0
   28.1692  -19.6005  -14.3975 C   0  0  2  0  0  0  0  0  0  0  0  0
   28.8249  -20.3493  -15.4519 N   0  0  0  0  0  0  0  0  0  0  0  0
   27.0630  -20.3408  -13.7823 C   0  0  0  0  0  0  0  0  0  0  0  0
   26.4272  -21.1804  -14.4754 O   0  0  0  0  0  0  0  0  0  0  0  0
   25.5717  -19.7828   -9.6235 C   0  0  0  0  0  0  0  0  0  0  0  0
   25.7431  -21.0559  -10.3852 C   0  0  2  0  0  0  0  0  0  0  0  0
   27.1634  -21.5594  -10.0952 C   0  0  0  0  0  0  0  0  0  0  0  0
   25.5274  -20.9201  -11.8725 C   0  0  2  0  0  0  0  0  0  0  0  0
   26.6310  -20.1912  -12.4332 N   0  0  0  0  0  0  0  0  0  0  0  0
   24.2277  -20.2714  -12.1033 C   0  0  0  0  0  0  0  0  0  0  0  0
   24.1015  -19.0284  -11.9125 O   0  0  0  0  0  0  0  0  0  0  0  0
   23.0419  -20.9548  -12.5427 N   0  0  0  0  0  0  0  0  0  0  0  0
   22.2046  -20.4198  -13.5875 C   0  0  1  0  0  0  0  0  0  0  0  0
   22.8986  -20.0926  -14.8656 C   0  0  0  0  0  0  0  0  0  0  0  0
   22.0895  -19.5099  -15.9304 C   0  0  0  0  0  0  0  0  0  0  0  0
   21.8513  -18.1336  -16.0659 C   0  0  0  0  0  0  0  0  0  0  0  0
   21.0653  -18.0096  -17.1412 N   0  0  0  0  0  0  0  0  0  0  0  0
   20.7958  -19.2223  -17.6887 C   0  0  0  0  0  0  0  0  0  0  0  0
   20.0482  -19.5881  -18.7905 C   0  0  0  0  0  0  0  0  0  0  0  0
   19.9423  -20.9088  -19.1366 C   0  0  0  0  0  0  0  0  0  0  0  0
   20.5853  -21.8981  -18.3845 C   0  0  0  0  0  0  0  0  0  0  0  0
   21.3251  -21.5259  -17.2923 C   0  0  0  0  0  0  0  0  0  0  0  0
   21.4386  -20.2008  -16.9342 C   0  0  0  0  0  0  0  0  0  0  0  0
   21.0652  -21.3454  -13.7752 C   0  0  0  0  0  0  0  0  0  0  0  0
   19.8034  -20.8387  -13.9883 O   0  0  0  0  0  0  0  0  0  0  0  0
   21.2514  -22.5837  -13.7397 O   0  0  0  0  0  0  0  0  0  0  0  0
  2  1  1  6
  2  3  1  0
  4  5  2  0
  4  2  1  0
  7  6  1  1
  7  9  1  0
  8  7  1  0
  9 10  1  1
 10  4  1  0
 11  9  1  0
 11 13  1  0
 12 11  2  0
 14 13  1  0
 14 25  1  0
 14 15  1  6
 16 15  1  0
 17 16  2  0
 18 17  1  0
 19 18  1  0
 19 24  2  0
 20 19  1  0
 21 20  2  0
 21 22  1  0
 22 23  2  0
 23 24  1  0
 24 16  1  0
 25 26  1  0
 27 25  2  0
M  END
$$$$
