AVW.pdb
     RDKit          3D

 27 28  0  0  1  0  0  0  0  0999 V2000
   28.4288  -24.0045  -17.8652 C   0  0  0  0  0  0  0  0  0  0  0  0
   28.9366  -22.5979  -17.8298 C   0  0  2  0  0  0  0  0  0  0  0  0
   30.3164  -22.5475  -18.2726 N   0  0  0  0  0  0  0  0  0  0  0  0
   28.7280  -21.9125  -16.5505 C   0  0  0  0  0  0  0  0  0  0  0  0
   29.5739  -22.0658  -15.6282 O   0  0  0  0  0  0  0  0  0  0  0  0
   28.2972  -18.1570  -16.2128 C   0  0  0  0  0  0  0  0  0  0  0  0
   27.2156  -18.8464  -15.4480 C   0  0  2  0  0  0  0  0  0  0  0  0
   26.9445  -17.9976  -14.1986 C   0  0  0  0  0  0  0  0  0  0  0  0
   27.5437  -20.2665  -15.0574 C   0  0  2  0  0  0  0  0  0  0  0  0
   27.6234  -21.0651  -16.2489 N   0  0  0  0  0  0  0  0  0  0  0  0
   26.5253  -20.7420  -14.1086 C   0  0  0  0  0  0  0  0  0  0  0  0
   25.3471  -20.9645  -14.5083 O   0  0  0  0  0  0  0  0  0  0  0  0
   26.7621  -20.9836  -12.7116 N   0  0  0  0  0  0  0  0  0  0  0  0
   25.7352  -21.5187  -11.8524 C   0  0  1  0  0  0  0  0  0  0  0  0
   26.2018  -22.0318  -10.5328 C   0  0  0  0  0  0  0  0  0  0  0  0
   26.3760  -21.0544   -9.4641 C   0  0  0  0  0  0  0  0  0  0  0  0
   25.4103  -20.0977   -9.1158 C   0  0  0  0  0  0  0  0  0  0  0  0
   25.9480  -19.3932   -8.1138 N   0  0  0  0  0  0  0  0  0  0  0  0
   27.1908  -19.8485   -7.8118 C   0  0  0  0  0  0  0  0  0  0  0  0
   28.1122  -19.4472   -6.8648 C   0  0  0  0  0  0  0  0  0  0  0  0
   29.3144  -20.0950   -6.7635 C   0  0  0  0  0  0  0  0  0  0  0  0
   29.6233  -21.1642   -7.6116 C   0  0  0  0  0  0  0  0  0  0  0  0
   28.7029  -21.5556   -8.5487 C   0  0  0  0  0  0  0  0  0  0  0  0
   27.4906  -20.9116   -8.6603 C   0  0  0  0  0  0  0  0  0  0  0  0
   24.6711  -20.4979  -11.7261 C   0  0  0  0  0  0  0  0  0  0  0  0
   24.9886  -19.1640  -11.8453 O   0  0  0  0  0  0  0  0  0  0  0  0
   23.4880  -20.8494  -11.5117 O   0  0  0  0  0  0  0  0  0  0  0  0
  2  1  1  1
  2  3  1  0
  4  5  2  0
  4  2  1  0
  7  6  1  1
  7  9  1  0
  8  7  1  0
  9 10  1  6
 10  4  1  0
 11  9  1  0
 11 13  1  0
 12 11  2  0
 14 13  1  0
 14 25  1  0
 14 15  1  1
 16 15  1  0
 17 16  2  0
 18 17  1  0
 19 18  1  0
 19 24  2  0
 20 19  1  0
 21 20  2  0
 21 22  1  0
 22 23  2  0
 23 24  1  0
 24 16  1  0
 25 26  1  0
 27 25  2  0
M  END
$$$$
