AVW.pdb
     RDKit          3D

 27 28  0  0  1  0  0  0  0  0999 V2000
   28.5183  -25.0365  -16.3230 C   0  0  0  0  0  0  0  0  0  0  0  0
   29.4118  -23.8442  -16.4555 C   0  0  2  0  0  0  0  0  0  0  0  0
   30.7993  -24.2583  -16.5311 N   0  0  0  0  0  0  0  0  0  0  0  0
   29.1862  -22.8053  -15.4456 C   0  0  0  0  0  0  0  0  0  0  0  0
   29.9028  -22.7931  -14.4083 O   0  0  0  0  0  0  0  0  0  0  0  0
   28.5828  -19.0021  -16.2044 C   0  0  0  0  0  0  0  0  0  0  0  0
   27.6091  -19.4876  -15.1815 C   0  0  2  0  0  0  0  0  0  0  0  0
   27.4706  -18.3732  -14.1357 C   0  0  0  0  0  0  0  0  0  0  0  0
   28.0043  -20.7842  -14.5184 C   0  0  2  0  0  0  0  0  0  0  0  0
   28.2015  -21.7798  -15.5351 N   0  0  0  0  0  0  0  0  0  0  0  0
   26.9665  -21.1505  -13.5427 C   0  0  0  0  0  0  0  0  0  0  0  0
   26.7151  -22.3686  -13.3178 O   0  0  0  0  0  0  0  0  0  0  0  0
   26.1815  -20.2070  -12.7944 N   0  0  0  0  0  0  0  0  0  0  0  0
   25.7715  -20.4726  -11.4379 C   0  0  1  0  0  0  0  0  0  0  0  0
   26.8705  -20.7968  -10.4842 C   0  0  0  0  0  0  0  0  0  0  0  0
   26.5371  -20.8035   -9.0641 C   0  0  0  0  0  0  0  0  0  0  0  0
   25.3593  -21.3587   -8.5411 C   0  0  0  0  0  0  0  0  0  0  0  0
   25.4214  -21.1540   -7.2207 N   0  0  0  0  0  0  0  0  0  0  0  0
   26.5651  -20.5052   -6.8828 C   0  0  0  0  0  0  0  0  0  0  0  0
   27.0610  -20.0909   -5.6625 C   0  0  0  0  0  0  0  0  0  0  0  0
   28.2696  -19.4503   -5.5979 C   0  0  0  0  0  0  0  0  0  0  0  0
   29.0130  -19.2088   -6.7585 C   0  0  0  0  0  0  0  0  0  0  0  0
   28.5129  -19.6234   -7.9654 C   0  0  0  0  0  0  0  0  0  0  0  0
   27.2984  -20.2682   -8.0430 C   0  0  0  0  0  0  0  0  0  0  0  0
   24.9368  -19.3375  -10.9851 C   0  0  0  0  0  0  0  0  0  0  0  0
   23.7103  -19.5802  -10.4098 O   0  0  0  0  0  0  0  0  0  0  0  0
   25.3473  -18.1623  -11.1263 O   0  0  0  0  0  0  0  0  0  0  0  0
  2  1  1  1
  2  3  1  0
  4  5  2  0
  4  2  1  0
  7  6  1  6
  7  9  1  0
  8  7  1  0
  9 10  1  6
 10  4  1  0
 11  9  1  0
 11 13  1  0
 12 11  2  0
 14 13  1  0
 14 25  1  0
 14 15  1  1
 16 15  1  0
 17 16  2  0
 18 17  1  0
 19 18  1  0
 19 24  2  0
 20 19  1  0
 21 20  2  0
 21 22  1  0
 22 23  2  0
 23 24  1  0
 24 16  1  0
 25 26  1  0
 27 25  2  0
M  END
$$$$
