GGG.pdb
     RDKit          3D

 13 12  0  0  0  0  0  0  0  0999 V2000
    0.9674  -20.3065   20.8007 N   0  0  0  0  0  0  0  0  0  0  0  0
    1.5218  -19.1780   21.5195 C   0  0  0  0  0  0  0  0  0  0  0  0
    2.9642  -19.3807   21.7030 C   0  0  0  0  0  0  0  0  0  0  0  0
    3.3743  -20.4329   22.2484 O   0  0  0  0  0  0  0  0  0  0  0  0
    3.9516  -18.4429   21.2946 N   0  0  0  0  0  0  0  0  0  0  0  0
    5.3519  -18.6095   21.5570 C   0  0  0  0  0  0  0  0  0  0  0  0
    5.7901  -18.3155   22.9128 C   0  0  0  0  0  0  0  0  0  0  0  0
    5.5490  -17.1317   23.3410 O   0  0  0  0  0  0  0  0  0  0  0  0
    6.4468  -19.1632   23.8201 N   0  0  0  0  0  0  0  0  0  0  0  0
    6.9280  -18.7176   25.1176 C   0  0  0  0  0  0  0  0  0  0  0  0
    7.8419  -19.7063   25.7231 C   0  0  0  0  0  0  0  0  0  0  0  0
    8.8776  -20.0807   25.1220 O   0  0  0  0  0  0  0  0  0  0  0  0
    7.5723  -20.2412   26.9704 O   0  0  0  0  0  0  0  0  0  0  0  0
  1  2  1  0
  3  2  1  0
  4  3  2  0
  5  3  1  0
  6  5  1  0
  7  9  1  0
  7  6  1  0
  8  7  2  0
 10  9  1  0
 11 13  1  0
 11 10  1  0
 12 11  2  0
M  END
$$$$
