GGG.pdb
     RDKit          3D

 13 12  0  0  0  0  0  0  0  0999 V2000
    2.2309  -21.8347   22.2134 N   0  0  0  0  0  0  0  0  0  0  0  0
    1.4016  -20.6725   21.9702 C   0  0  0  0  0  0  0  0  0  0  0  0
    2.2571  -19.5276   21.6345 C   0  0  0  0  0  0  0  0  0  0  0  0
    1.7286  -18.4344   21.3211 O   0  0  0  0  0  0  0  0  0  0  0  0
    3.6780  -19.5750   21.6406 N   0  0  0  0  0  0  0  0  0  0  0  0
    4.5046  -18.4032   21.6721 C   0  0  0  0  0  0  0  0  0  0  0  0
    5.4518  -18.3154   22.7728 C   0  0  0  0  0  0  0  0  0  0  0  0
    4.9914  -17.8642   23.8806 O   0  0  0  0  0  0  0  0  0  0  0  0
    6.8130  -18.6622   22.7817 N   0  0  0  0  0  0  0  0  0  0  0  0
    7.6290  -18.6450   23.9847 C   0  0  0  0  0  0  0  0  0  0  0  0
    9.0138  -19.0726   23.7038 C   0  0  0  0  0  0  0  0  0  0  0  0
    9.3898  -19.3129   22.5312 O   0  0  0  0  0  0  0  0  0  0  0  0
    9.9272  -19.2171   24.7331 O   0  0  0  0  0  0  0  0  0  0  0  0
  1  2  1  0
  3  2  1  0
  4  3  2  0
  5  3  1  0
  6  5  1  0
  7  9  1  0
  7  6  1  0
  8  7  2  0
 10  9  1  0
 11 13  1  0
 11 10  1  0
 12 11  2  0
M  END
$$$$
