GGG.pdb
     RDKit          3D

 13 12  0  0  0  0  0  0  0  0999 V2000
    8.8802  -14.2043   17.1641 N   0  0  0  0  0  0  0  0  0  0  0  0
    8.6426  -13.2168   18.1965 C   0  0  0  0  0  0  0  0  0  0  0  0
    7.8745  -13.8300   19.2871 C   0  0  0  0  0  0  0  0  0  0  0  0
    7.5441  -15.0370   19.2055 O   0  0  0  0  0  0  0  0  0  0  0  0
    7.4701  -13.1319   20.4578 N   0  0  0  0  0  0  0  0  0  0  0  0
    6.7050  -13.7362   21.5099 C   0  0  0  0  0  0  0  0  0  0  0  0
    7.4647  -14.4296   22.5388 C   0  0  0  0  0  0  0  0  0  0  0  0
    6.7975  -14.8446   23.5515 O   0  0  0  0  0  0  0  0  0  0  0  0
    8.8416  -14.7060   22.5690 N   0  0  0  0  0  0  0  0  0  0  0  0
    9.4621  -15.5395   23.5858 C   0  0  0  0  0  0  0  0  0  0  0  0
   10.8607  -15.8615   23.2401 C   0  0  0  0  0  0  0  0  0  0  0  0
   11.3292  -15.5746   22.1121 O   0  0  0  0  0  0  0  0  0  0  0  0
   11.6850  -16.4887   24.1576 O   0  0  0  0  0  0  0  0  0  0  0  0
  1  2  1  0
  3  2  1  0
  4  3  2  0
  5  3  1  0
  6  5  1  0
  7  9  1  0
  7  6  1  0
  8  7  2  0
 10  9  1  0
 11 13  1  0
 11 10  1  0
 12 11  2  0
M  END
$$$$
