GGG.pdb
     RDKit          3D

 13 12  0  0  0  0  0  0  0  0999 V2000
   -1.2312  -25.4443   29.1530 N   0  0  0  0  0  0  0  0  0  0  0  0
   -2.3864  -25.0556   28.3706 C   0  0  0  0  0  0  0  0  0  0  0  0
   -3.5940  -25.6443   28.9627 C   0  0  0  0  0  0  0  0  0  0  0  0
   -3.5686  -26.0350   30.1540 O   0  0  0  0  0  0  0  0  0  0  0  0
   -4.8196  -25.8054   28.2605 N   0  0  0  0  0  0  0  0  0  0  0  0
   -6.0150  -26.3126   28.8697 C   0  0  0  0  0  0  0  0  0  0  0  0
   -6.9052  -25.3234   29.4576 C   0  0  0  0  0  0  0  0  0  0  0  0
   -7.9618  -25.7782   30.0227 O   0  0  0  0  0  0  0  0  0  0  0  0
   -6.7583  -23.9268   29.4878 N   0  0  0  0  0  0  0  0  0  0  0  0
   -7.6667  -23.0481   30.2063 C   0  0  0  0  0  0  0  0  0  0  0  0
   -7.2842  -21.6310   30.0492 C   0  0  0  0  0  0  0  0  0  0  0  0
   -7.9981  -20.7136   30.5214 O   0  0  0  0  0  0  0  0  0  0  0  0
   -6.1260  -21.2861   29.3754 O   0  0  0  0  0  0  0  0  0  0  0  0
  1  2  1  0
  3  2  1  0
  4  3  2  0
  5  3  1  0
  6  5  1  0
  7  9  1  0
  7  6  1  0
  8  7  2  0
 10  9  1  0
 11 13  1  0
 11 10  1  0
 12 11  2  0
M  END
$$$$
