GGG.pdb
     RDKit          3D

 13 12  0  0  0  0  0  0  0  0999 V2000
   -0.6076  -25.6984   25.8520 N   0  0  0  0  0  0  0  0  0  0  0  0
   -1.9602  -25.6284   25.3392 C   0  0  0  0  0  0  0  0  0  0  0  0
   -2.9086  -25.7889   26.4484 C   0  0  0  0  0  0  0  0  0  0  0  0
   -2.8032  -26.7788   27.2110 O   0  0  0  0  0  0  0  0  0  0  0  0
   -3.9637  -24.8765   26.7234 N   0  0  0  0  0  0  0  0  0  0  0  0
   -4.8133  -24.9794   27.8744 C   0  0  0  0  0  0  0  0  0  0  0  0
   -4.9485  -23.7767   28.6818 C   0  0  0  0  0  0  0  0  0  0  0  0
   -3.8560  -23.2159   29.0486 O   0  0  0  0  0  0  0  0  0  0  0  0
   -6.1260  -23.1451   29.1150 N   0  0  0  0  0  0  0  0  0  0  0  0
   -6.1313  -21.8785   29.8286 C   0  0  0  0  0  0  0  0  0  0  0  0
   -7.5058  -21.3809   30.0349 C   0  0  0  0  0  0  0  0  0  0  0  0
   -8.4934  -22.0041   29.5763 O   0  0  0  0  0  0  0  0  0  0  0  0
   -7.7318  -20.2127   30.7412 O   0  0  0  0  0  0  0  0  0  0  0  0
  1  2  1  0
  3  2  1  0
  4  3  2  0
  5  3  1  0
  6  5  1  0
  7  9  1  0
  7  6  1  0
  8  7  2  0
 10  9  1  0
 11 13  1  0
 11 10  1  0
 12 11  2  0
M  END
$$$$
