GGG.pdb
     RDKit          3D

 13 12  0  0  0  0  0  0  0  0999 V2000
    6.2632  -16.6370   21.7996 N   0  0  0  0  0  0  0  0  0  0  0  0
    6.5825  -15.2433   22.0306 C   0  0  0  0  0  0  0  0  0  0  0  0
    7.1217  -14.6581   20.7969 C   0  0  0  0  0  0  0  0  0  0  0  0
    7.3593  -15.4009   19.8149 O   0  0  0  0  0  0  0  0  0  0  0  0
    7.3996  -13.2731   20.6358 N   0  0  0  0  0  0  0  0  0  0  0  0
    7.9507  -12.7153   19.4347 C   0  0  0  0  0  0  0  0  0  0  0  0
    9.3590  -12.9851   19.1892 C   0  0  0  0  0  0  0  0  0  0  0  0
    9.8899  -12.3651   18.2011 O   0  0  0  0  0  0  0  0  0  0  0  0
   10.2192  -13.8410   19.8969 N   0  0  0  0  0  0  0  0  0  0  0  0
   11.6015  -14.0738   19.5114 C   0  0  0  0  0  0  0  0  0  0  0  0
   12.2990  -14.9282   20.4926 C   0  0  0  0  0  0  0  0  0  0  0  0
   12.7774  -16.0384   20.1567 O   0  0  0  0  0  0  0  0  0  0  0  0
   12.4388  -14.5191   21.8070 O   0  0  0  0  0  0  0  0  0  0  0  0
  1  2  1  0
  3  2  1  0
  4  3  2  0
  5  3  1  0
  6  5  1  0
  7  9  1  0
  7  6  1  0
  8  7  2  0
 10  9  1  0
 11 13  1  0
 11 10  1  0
 12 11  2  0
M  END
$$$$
