GGG.pdb
     RDKit          3D

 13 12  0  0  0  0  0  0  0  0999 V2000
    1.7689  -22.3890   22.9702 N   0  0  0  0  0  0  0  0  0  0  0  0
    1.5808  -20.9857   22.6651 C   0  0  0  0  0  0  0  0  0  0  0  0
    2.8500  -20.4170   22.1948 C   0  0  0  0  0  0  0  0  0  0  0  0
    3.8751  -21.1388   22.1645 O   0  0  0  0  0  0  0  0  0  0  0  0
    2.9997  -19.0714   21.7611 N   0  0  0  0  0  0  0  0  0  0  0  0
    4.2525  -18.5153   21.3384 C   0  0  0  0  0  0  0  0  0  0  0  0
    5.2491  -18.3142   22.3790 C   0  0  0  0  0  0  0  0  0  0  0  0
    5.5292  -17.0969   22.6663 O   0  0  0  0  0  0  0  0  0  0  0  0
    5.9492  -19.2843   23.1152 N   0  0  0  0  0  0  0  0  0  0  0  0
    6.9906  -18.9546   24.0744 C   0  0  0  0  0  0  0  0  0  0  0  0
    7.4721  -20.1568   24.7831 C   0  0  0  0  0  0  0  0  0  0  0  0
    8.4015  -20.8552   24.3113 O   0  0  0  0  0  0  0  0  0  0  0  0
    6.9049  -20.5378   25.9863 O   0  0  0  0  0  0  0  0  0  0  0  0
  1  2  1  0
  3  2  1  0
  4  3  2  0
  5  3  1  0
  6  5  1  0
  7  9  1  0
  7  6  1  0
  8  7  2  0
 10  9  1  0
 11 13  1  0
 11 10  1  0
 12 11  2  0
M  END
$$$$
