GGG.pdb
     RDKit          3D

 13 12  0  0  0  0  0  0  0  0999 V2000
    8.7690  -14.5316   14.9434 N   0  0  0  0  0  0  0  0  0  0  0  0
    7.8101  -14.6649   16.0206 C   0  0  0  0  0  0  0  0  0  0  0  0
    8.3590  -14.0538   17.2374 C   0  0  0  0  0  0  0  0  0  0  0  0
    9.5889  -14.1369   17.4679 O   0  0  0  0  0  0  0  0  0  0  0  0
    7.5723  -13.3574   18.1952 N   0  0  0  0  0  0  0  0  0  0  0  0
    8.1255  -12.7225   19.3564 C   0  0  0  0  0  0  0  0  0  0  0  0
    8.6576  -13.6087   20.3802 C   0  0  0  0  0  0  0  0  0  0  0  0
    7.8195  -14.0337   21.2517 O   0  0  0  0  0  0  0  0  0  0  0  0
    9.9772  -14.0627   20.5405 N   0  0  0  0  0  0  0  0  0  0  0  0
   10.3631  -15.0445   21.5407 C   0  0  0  0  0  0  0  0  0  0  0  0
   11.8217  -15.2726   21.5387 C   0  0  0  0  0  0  0  0  0  0  0  0
   12.3527  -16.0616   22.3571 O   0  0  0  0  0  0  0  0  0  0  0  0
   12.6343  -14.6178   20.6301 O   0  0  0  0  0  0  0  0  0  0  0  0
  1  2  1  0
  3  2  1  0
  4  3  2  0
  5  3  1  0
  6  5  1  0
  7  9  1  0
  7  6  1  0
  8  7  2  0
 10  9  1  0
 11 13  1  0
 11 10  1  0
 12 11  2  0
M  END
$$$$
