GGG.pdb
     RDKit          3D

 13 12  0  0  0  0  0  0  0  0999 V2000
   -6.0018  -27.3208   27.5512 N   0  0  0  0  0  0  0  0  0  0  0  0
   -5.6539  -27.9924   28.7863 C   0  0  0  0  0  0  0  0  0  0  0  0
   -5.9803  -27.1204   29.9214 C   0  0  0  0  0  0  0  0  0  0  0  0
   -7.1283  -27.1667   30.4240 O   0  0  0  0  0  0  0  0  0  0  0  0
   -5.0614  -26.2051   30.5038 N   0  0  0  0  0  0  0  0  0  0  0  0
   -5.3551  -25.4339   31.6770 C   0  0  0  0  0  0  0  0  0  0  0  0
   -5.9436  -24.1225   31.4523 C   0  0  0  0  0  0  0  0  0  0  0  0
   -5.5952  -23.1986   32.2694 O   0  0  0  0  0  0  0  0  0  0  0  0
   -6.8490  -23.7329   30.4515 N   0  0  0  0  0  0  0  0  0  0  0  0
   -7.2609  -22.3539   30.2464 C   0  0  0  0  0  0  0  0  0  0  0  0
   -8.2216  -22.2375   29.1315 C   0  0  0  0  0  0  0  0  0  0  0  0
   -8.4644  -23.2155   28.3841 O   0  0  0  0  0  0  0  0  0  0  0  0
   -8.8753  -21.0424   28.8888 O   0  0  0  0  0  0  0  0  0  0  0  0
  1  2  1  0
  3  2  1  0
  4  3  2  0
  5  3  1  0
  6  5  1  0
  7  9  1  0
  7  6  1  0
  8  7  2  0
 10  9  1  0
 11 13  1  0
 11 10  1  0
 12 11  2  0
M  END
$$$$
