GGG.pdb
     RDKit          3D

 13 12  0  0  0  0  0  0  0  0999 V2000
    1.5219  -20.6750   20.2785 N   0  0  0  0  0  0  0  0  0  0  0  0
    1.8651  -19.5747   21.1555 C   0  0  0  0  0  0  0  0  0  0  0  0
    3.3035  -19.6165   21.4465 C   0  0  0  0  0  0  0  0  0  0  0  0
    3.8906  -20.7236   21.4952 O   0  0  0  0  0  0  0  0  0  0  0  0
    4.0953  -18.4594   21.6824 N   0  0  0  0  0  0  0  0  0  0  0  0
    5.4847  -18.5148   22.0346 C   0  0  0  0  0  0  0  0  0  0  0  0
    5.7826  -18.8372   23.4217 C   0  0  0  0  0  0  0  0  0  0  0  0
    5.6359  -17.8857   24.2677 O   0  0  0  0  0  0  0  0  0  0  0  0
    6.2128  -20.0616   23.9593 N   0  0  0  0  0  0  0  0  0  0  0  0
    6.4977  -20.2521   25.3721 C   0  0  0  0  0  0  0  0  0  0  0  0
    6.9177  -21.6386   25.6559 C   0  0  0  0  0  0  0  0  0  0  0  0
    6.9638  -22.4986   24.7434 O   0  0  0  0  0  0  0  0  0  0  0  0
    7.2700  -22.0177   26.9391 O   0  0  0  0  0  0  0  0  0  0  0  0
  1  2  1  0
  3  2  1  0
  4  3  2  0
  5  3  1  0
  6  5  1  0
  7  9  1  0
  7  6  1  0
  8  7  2  0
 10  9  1  0
 11 13  1  0
 11 10  1  0
 12 11  2  0
M  END
$$$$
