GGG.pdb
     RDKit          3D

 13 12  0  0  0  0  0  0  0  0999 V2000
   -2.7172  -27.0733   29.4444 N   0  0  0  0  0  0  0  0  0  0  0  0
   -3.2906  -27.6816   30.6270 C   0  0  0  0  0  0  0  0  0  0  0  0
   -4.5493  -27.0032   30.9600 C   0  0  0  0  0  0  0  0  0  0  0  0
   -5.4855  -26.9970   30.1257 O   0  0  0  0  0  0  0  0  0  0  0  0
   -4.7847  -26.3368   32.1937 N   0  0  0  0  0  0  0  0  0  0  0  0
   -6.0451  -25.7473   32.5419 C   0  0  0  0  0  0  0  0  0  0  0  0
   -6.2636  -24.3834   32.0852 C   0  0  0  0  0  0  0  0  0  0  0  0
   -6.9437  -23.6277   32.8657 O   0  0  0  0  0  0  0  0  0  0  0  0
   -5.8247  -23.7817   30.8942 N   0  0  0  0  0  0  0  0  0  0  0  0
   -6.0837  -22.3895   30.5656 C   0  0  0  0  0  0  0  0  0  0  0  0
   -7.4962  -22.1765   30.1928 C   0  0  0  0  0  0  0  0  0  0  0  0
   -8.2868  -23.1442   30.0801 O   0  0  0  0  0  0  0  0  0  0  0  0
   -7.9770  -20.9002   29.9596 O   0  0  0  0  0  0  0  0  0  0  0  0
  1  2  1  0
  3  2  1  0
  4  3  2  0
  5  3  1  0
  6  5  1  0
  7  9  1  0
  7  6  1  0
  8  7  2  0
 10  9  1  0
 11 13  1  0
 11 10  1  0
 12 11  2  0
M  END
$$$$
