GGG.pdb
     RDKit          3D

 13 12  0  0  0  0  0  0  0  0999 V2000
    7.1382  -17.2070   24.4902 N   0  0  0  0  0  0  0  0  0  0  0  0
    6.9999  -17.9698   23.2668 C   0  0  0  0  0  0  0  0  0  0  0  0
    5.5885  -18.3242   23.0728 C   0  0  0  0  0  0  0  0  0  0  0  0
    4.8278  -18.3924   24.0675 O   0  0  0  0  0  0  0  0  0  0  0  0
    5.0114  -18.6019   21.8035 N   0  0  0  0  0  0  0  0  0  0  0  0
    3.6214  -18.9047   21.6200 C   0  0  0  0  0  0  0  0  0  0  0  0
    3.2353  -20.2931   21.8194 C   0  0  0  0  0  0  0  0  0  0  0  0
    2.2540  -20.7147   21.1109 O   0  0  0  0  0  0  0  0  0  0  0  0
    3.7998  -21.2385   22.6916 N   0  0  0  0  0  0  0  0  0  0  0  0
    3.4065  -22.6380   22.7080 C   0  0  0  0  0  0  0  0  0  0  0  0
    2.4087  -22.9060   23.7625 C   0  0  0  0  0  0  0  0  0  0  0  0
    1.2035  -23.1036   23.4754 O   0  0  0  0  0  0  0  0  0  0  0  0
    2.7856  -22.9445   25.0933 O   0  0  0  0  0  0  0  0  0  0  0  0
  1  2  1  0
  3  2  1  0
  4  3  2  0
  5  3  1  0
  6  5  1  0
  7  9  1  0
  7  6  1  0
  8  7  2  0
 10  9  1  0
 11 13  1  0
 11 10  1  0
 12 11  2  0
M  END
$$$$
