GGG.pdb
     RDKit          3D

 13 12  0  0  0  0  0  0  0  0999 V2000
    6.1438  -20.5656   23.1038 N   0  0  0  0  0  0  0  0  0  0  0  0
    6.1469  -19.2386   22.5238 C   0  0  0  0  0  0  0  0  0  0  0  0
    5.9355  -18.2451   23.5839 C   0  0  0  0  0  0  0  0  0  0  0  0
    4.9273  -17.5007   23.5387 O   0  0  0  0  0  0  0  0  0  0  0  0
    6.8171  -18.0653   24.6847 N   0  0  0  0  0  0  0  0  0  0  0  0
    6.8505  -16.8717   25.4796 C   0  0  0  0  0  0  0  0  0  0  0  0
    7.9632  -15.9675   25.2330 C   0  0  0  0  0  0  0  0  0  0  0  0
    8.0071  -14.9131   25.9604 O   0  0  0  0  0  0  0  0  0  0  0  0
    9.0024  -16.0984   24.2970 N   0  0  0  0  0  0  0  0  0  0  0  0
   10.1323  -15.1860   24.2321 C   0  0  0  0  0  0  0  0  0  0  0  0
   11.3991  -15.9105   24.0094 C   0  0  0  0  0  0  0  0  0  0  0  0
   12.2958  -15.9275   24.8869 O   0  0  0  0  0  0  0  0  0  0  0  0
   11.6226  -16.5876   22.8236 O   0  0  0  0  0  0  0  0  0  0  0  0
  1  2  1  0
  3  2  1  0
  4  3  2  0
  5  3  1  0
  6  5  1  0
  7  9  1  0
  7  6  1  0
  8  7  2  0
 10  9  1  0
 11 13  1  0
 11 10  1  0
 12 11  2  0
M  END
$$$$
