GGG.pdb
     RDKit          3D

 13 12  0  0  0  0  0  0  0  0999 V2000
    3.5770  -20.0426   20.1335 N   0  0  0  0  0  0  0  0  0  0  0  0
    4.5888  -19.9795   21.1679 C   0  0  0  0  0  0  0  0  0  0  0  0
    4.6186  -18.6259   21.7356 C   0  0  0  0  0  0  0  0  0  0  0  0
    3.6493  -17.8544   21.5410 O   0  0  0  0  0  0  0  0  0  0  0  0
    5.6976  -18.1179   22.5096 N   0  0  0  0  0  0  0  0  0  0  0  0
    5.6720  -16.8340   23.1486 C   0  0  0  0  0  0  0  0  0  0  0  0
    6.8631  -16.4668   23.8990 C   0  0  0  0  0  0  0  0  0  0  0  0
    6.6826  -16.1530   25.1285 O   0  0  0  0  0  0  0  0  0  0  0  0
    8.1932  -16.4106   23.4509 N   0  0  0  0  0  0  0  0  0  0  0  0
    9.2124  -15.5941   24.0896 C   0  0  0  0  0  0  0  0  0  0  0  0
   10.5537  -15.8798   23.5432 C   0  0  0  0  0  0  0  0  0  0  0  0
   10.7605  -15.8770   22.3057 O   0  0  0  0  0  0  0  0  0  0  0  0
   11.6129  -16.1573   24.3892 O   0  0  0  0  0  0  0  0  0  0  0  0
  1  2  1  0
  3  2  1  0
  4  3  2  0
  5  3  1  0
  6  5  1  0
  7  9  1  0
  7  6  1  0
  8  7  2  0
 10  9  1  0
 11 13  1  0
 11 10  1  0
 12 11  2  0
M  END
$$$$
