GGG.pdb
     RDKit          3D

 13 12  0  0  0  0  0  0  0  0999 V2000
    8.2259  -13.3827   17.3981 N   0  0  0  0  0  0  0  0  0  0  0  0
    8.0175  -12.9151   18.7529 C   0  0  0  0  0  0  0  0  0  0  0  0
    7.7376  -14.0627   19.6247 C   0  0  0  0  0  0  0  0  0  0  0  0
    7.8023  -15.2237   19.1551 O   0  0  0  0  0  0  0  0  0  0  0  0
    7.3899  -13.9447   20.9982 N   0  0  0  0  0  0  0  0  0  0  0  0
    7.1722  -15.0742   21.8550 C   0  0  0  0  0  0  0  0  0  0  0  0
    8.3100  -15.5019   22.6545 C   0  0  0  0  0  0  0  0  0  0  0  0
    8.1059  -16.4886   23.4466 O   0  0  0  0  0  0  0  0  0  0  0  0
    9.6111  -14.9727   22.6727 N   0  0  0  0  0  0  0  0  0  0  0  0
   10.8053  -15.7986   22.6009 C   0  0  0  0  0  0  0  0  0  0  0  0
   11.2487  -16.2245   23.9431 C   0  0  0  0  0  0  0  0  0  0  0  0
   12.3791  -16.7408   24.1157 O   0  0  0  0  0  0  0  0  0  0  0  0
   10.4224  -16.0616   25.0409 O   0  0  0  0  0  0  0  0  0  0  0  0
  1  2  1  0
  3  2  1  0
  4  3  2  0
  5  3  1  0
  6  5  1  0
  7  9  1  0
  7  6  1  0
  8  7  2  0
 10  9  1  0
 11 13  1  0
 11 10  1  0
 12 11  2  0
M  END
$$$$
