GGG.pdb
     RDKit          3D

 13 12  0  0  0  0  0  0  0  0999 V2000
    0.3450  -22.8925   22.5229 N   0  0  0  0  0  0  0  0  0  0  0  0
    0.9537  -22.0834   21.4874 C   0  0  0  0  0  0  0  0  0  0  0  0
    1.6798  -20.9679   22.1071 C   0  0  0  0  0  0  0  0  0  0  0  0
    1.7129  -20.8727   23.3571 O   0  0  0  0  0  0  0  0  0  0  0  0
    2.3645  -19.9642   21.3688 N   0  0  0  0  0  0  0  0  0  0  0  0
    3.0934  -18.8934   21.9847 C   0  0  0  0  0  0  0  0  0  0  0  0
    4.4650  -19.1888   22.3695 C   0  0  0  0  0  0  0  0  0  0  0  0
    5.3608  -18.3820   21.9344 O   0  0  0  0  0  0  0  0  0  0  0  0
    4.9400  -20.2484   23.1599 N   0  0  0  0  0  0  0  0  0  0  0  0
    6.3531  -20.4815   23.4093 C   0  0  0  0  0  0  0  0  0  0  0  0
    6.7769  -19.9000   24.6983 C   0  0  0  0  0  0  0  0  0  0  0  0
    6.5849  -18.6866   24.9532 O   0  0  0  0  0  0  0  0  0  0  0  0
    7.3967  -20.6855   25.6540 O   0  0  0  0  0  0  0  0  0  0  0  0
  1  2  1  0
  3  2  1  0
  4  3  2  0
  5  3  1  0
  6  5  1  0
  7  9  1  0
  7  6  1  0
  8  7  2  0
 10  9  1  0
 11 13  1  0
 11 10  1  0
 12 11  2  0
M  END
$$$$
