DTK.pdb
     RDKit          3D

 25 24  0  0  1  0  0  0  0  0999 V2000
    8.1856  -16.9137   20.5157 N   0  0  0  0  0  0  0  0  0  0  0  0
    9.6160  -16.9046   20.7596 C   0  0  1  0  0  0  0  0  0  0  0  0
   10.3712  -16.2904   19.5998 C   0  0  0  0  0  0  0  0  0  0  0  0
   10.1703  -17.1510   18.3968 C   0  0  0  0  0  0  0  0  0  0  0  0
   10.4359  -16.7755   17.2454 O   0  0  0  0  0  0  0  0  0  0  0  0
    9.9350  -16.1412   22.0007 C   0  0  0  0  0  0  0  0  0  0  0  0
   11.0542  -15.6210   22.1977 O   0  0  0  0  0  0  0  0  0  0  0  0
    9.6570  -18.4277   18.6402 O   0  0  0  0  0  0  0  0  0  0  0  0
    7.7328  -13.2461   23.7511 C   0  0  0  0  0  0  0  0  0  0  0  0
    7.8775  -14.4705   24.6300 C   0  0  1  0  0  0  0  0  0  0  0  0
    6.7041  -15.1370   24.8181 O   0  0  0  0  0  0  0  0  0  0  0  0
    9.0599  -15.3197   24.2193 C   0  0  2  0  0  0  0  0  0  0  0  0
    8.9388  -16.0017   22.9852 N   0  0  0  0  0  0  0  0  0  0  0  0
    9.3911  -16.1874   25.3826 C   0  0  0  0  0  0  0  0  0  0  0  0
    8.8647  -17.3287   25.4406 O   0  0  0  0  0  0  0  0  0  0  0  0
   10.2516  -15.8221   26.4250 N   0  0  0  0  0  0  0  0  0  0  0  0
   10.5520  -16.7702   27.5807 C   0  0  1  0  0  0  0  0  0  0  0  0
   11.8787  -17.3492   27.3045 C   0  0  0  0  0  0  0  0  0  0  0  0
   12.3707  -18.4996   28.0469 C   0  0  0  0  0  0  0  0  0  0  0  0
   13.6805  -19.1247   27.8172 C   0  0  0  0  0  0  0  0  0  0  0  0
   13.8792  -20.2920   28.8490 C   0  0  0  0  0  0  0  0  0  0  0  0
   15.1487  -20.9016   28.5072 N   0  0  0  0  0  0  0  0  0  0  0  0
   10.4649  -15.8414   28.7183 C   0  0  0  0  0  0  0  0  0  0  0  0
   10.3659  -14.5825   28.4847 O   0  0  0  0  0  0  0  0  0  0  0  0
   10.4714  -16.1764   30.0387 O   0  0  0  0  0  0  0  0  0  0  0  0
  2  1  1  6
  3  2  1  0
  4  3  1  0
  5  4  2  0
  6  2  1  0
  7  6  2  0
  8  4  1  0
 10  9  1  6
 10 12  1  0
 11 10  1  0
 12 14  1  0
 12 13  1  6
 13  6  1  0
 14 16  1  0
 15 14  2  0
 16 17  1  0
 17 18  1  6
 17 23  1  0
 18 19  1  0
 20 19  1  0
 21 22  1  0
 21 20  1  0
 23 24  2  0
 23 25  1  0
M  END
$$$$
