DTK.pdb
     RDKit          3D

 25 24  0  0  1  0  0  0  0  0999 V2000
    9.2195  -18.3376   17.8954 N   0  0  0  0  0  0  0  0  0  0  0  0
    9.8739  -17.0426   17.9140 C   0  0  1  0  0  0  0  0  0  0  0  0
    9.6171  -16.2746   16.6346 C   0  0  0  0  0  0  0  0  0  0  0  0
    9.1781  -17.2401   15.5842 C   0  0  0  0  0  0  0  0  0  0  0  0
    9.0421  -18.4540   15.7966 O   0  0  0  0  0  0  0  0  0  0  0  0
    9.3985  -16.2274   19.0691 C   0  0  0  0  0  0  0  0  0  0  0  0
    9.7486  -15.0398   19.2396 O   0  0  0  0  0  0  0  0  0  0  0  0
    8.9232  -16.6941   14.3234 O   0  0  0  0  0  0  0  0  0  0  0  0
    5.6174  -15.9246   20.6588 C   0  0  0  0  0  0  0  0  0  0  0  0
    6.6232  -16.5767   21.5838 C   0  0  1  0  0  0  0  0  0  0  0  0
    6.3696  -17.8968   21.8064 O   0  0  0  0  0  0  0  0  0  0  0  0
    8.0451  -16.2343   21.1977 C   0  0  2  0  0  0  0  0  0  0  0  0
    8.5237  -16.8176   20.0004 N   0  0  0  0  0  0  0  0  0  0  0  0
    8.8895  -16.4881   22.3972 C   0  0  0  0  0  0  0  0  0  0  0  0
    9.7912  -17.3616   22.3141 O   0  0  0  0  0  0  0  0  0  0  0  0
    8.7510  -15.8207   23.6202 N   0  0  0  0  0  0  0  0  0  0  0  0
    9.6047  -16.1861   24.8295 C   0  0  1  0  0  0  0  0  0  0  0  0
    9.4766  -15.0658   25.7781 C   0  0  0  0  0  0  0  0  0  0  0  0
   10.1570  -15.0825   27.0639 C   0  0  0  0  0  0  0  0  0  0  0  0
   10.0255  -14.0247   28.0752 C   0  0  0  0  0  0  0  0  0  0  0  0
   10.8988  -14.3995   29.3255 C   0  0  0  0  0  0  0  0  0  0  0  0
   10.6371  -13.3659   30.3069 N   0  0  0  0  0  0  0  0  0  0  0  0
    8.9779  -17.4568   25.2255 C   0  0  0  0  0  0  0  0  0  0  0  0
    7.7151  -17.6074   25.0467 O   0  0  0  0  0  0  0  0  0  0  0  0
    9.6072  -18.5330   25.7745 O   0  0  0  0  0  0  0  0  0  0  0  0
  2  1  1  6
  3  2  1  0
  4  3  1  0
  5  4  2  0
  6  2  1  0
  7  6  2  0
  8  4  1  0
 10  9  1  6
 10 12  1  0
 11 10  1  0
 12 14  1  0
 12 13  1  6
 13  6  1  0
 14 16  1  0
 15 14  2  0
 16 17  1  0
 17 18  1  1
 17 23  1  0
 18 19  1  0
 20 19  1  0
 21 22  1  0
 21 20  1  0
 23 24  2  0
 23 25  1  0
M  END
$$$$
