DTK.pdb
     RDKit          3D

 25 24  0  0  1  0  0  0  0  0999 V2000
   10.1680  -17.1045   17.7832 N   0  0  0  0  0  0  0  0  0  0  0  0
   10.6103  -17.5952   19.0751 C   0  0  1  0  0  0  0  0  0  0  0  0
   12.0946  -17.8948   19.0745 C   0  0  0  0  0  0  0  0  0  0  0  0
   12.3884  -18.8234   17.9434 C   0  0  0  0  0  0  0  0  0  0  0  0
   11.5352  -19.1669   17.1120 O   0  0  0  0  0  0  0  0  0  0  0  0
   10.3205  -16.5982   20.1460 C   0  0  0  0  0  0  0  0  0  0  0  0
   11.2250  -15.9860   20.7534 O   0  0  0  0  0  0  0  0  0  0  0  0
   13.7016  -19.2953   17.8682 O   0  0  0  0  0  0  0  0  0  0  0  0
    6.9453  -14.0210   20.1832 C   0  0  0  0  0  0  0  0  0  0  0  0
    7.0949  -14.9702   21.3533 C   0  0  1  0  0  0  0  0  0  0  0  0
    6.1266  -15.9278   21.3939 O   0  0  0  0  0  0  0  0  0  0  0  0
    8.5174  -15.4641   21.4970 C   0  0  2  0  0  0  0  0  0  0  0  0
    8.9792  -16.3378   20.4841 N   0  0  0  0  0  0  0  0  0  0  0  0
    8.6526  -15.9884   22.8837 C   0  0  0  0  0  0  0  0  0  0  0  0
    8.7890  -17.2296   23.0381 O   0  0  0  0  0  0  0  0  0  0  0  0
    8.6380  -15.1944   24.0368 N   0  0  0  0  0  0  0  0  0  0  0  0
    8.6486  -15.8121   25.4308 C   0  0  1  0  0  0  0  0  0  0  0  0
    9.0648  -14.7408   26.3530 C   0  0  0  0  0  0  0  0  0  0  0  0
    9.3725  -15.0208   27.7472 C   0  0  0  0  0  0  0  0  0  0  0  0
    9.8661  -14.0137   28.6964 C   0  0  0  0  0  0  0  0  0  0  0  0
   10.0526  -14.6843   30.1042 C   0  0  0  0  0  0  0  0  0  0  0  0
   10.4434  -13.6120   30.9973 N   0  0  0  0  0  0  0  0  0  0  0  0
    7.2517  -16.2620   25.5348 C   0  0  0  0  0  0  0  0  0  0  0  0
    6.3370  -15.5874   24.9370 O   0  0  0  0  0  0  0  0  0  0  0  0
    6.8020  -17.3551   26.2120 O   0  0  0  0  0  0  0  0  0  0  0  0
  2  1  1  6
  3  2  1  0
  4  3  1  0
  5  4  2  0
  6  2  1  0
  7  6  2  0
  8  4  1  0
 10  9  1  6
 10 12  1  0
 11 10  1  0
 12 14  1  0
 12 13  1  6
 13  6  1  0
 14 16  1  0
 15 14  2  0
 16 17  1  0
 17 18  1  1
 17 23  1  0
 18 19  1  0
 20 19  1  0
 21 22  1  0
 21 20  1  0
 23 24  2  0
 23 25  1  0
M  END
$$$$
