DTK.pdb
     RDKit          3D

 25 24  0  0  1  0  0  0  0  0999 V2000
   10.0693  -17.5863   18.2416 N   0  0  0  0  0  0  0  0  0  0  0  0
   11.2086  -17.2644   19.0807 C   0  0  1  0  0  0  0  0  0  0  0  0
   12.3103  -16.5962   18.2854 C   0  0  0  0  0  0  0  0  0  0  0  0
   12.8346  -17.5765   17.2893 C   0  0  0  0  0  0  0  0  0  0  0  0
   13.4451  -18.6065   17.6115 O   0  0  0  0  0  0  0  0  0  0  0  0
   10.8039  -16.3608   20.1964 C   0  0  0  0  0  0  0  0  0  0  0  0
   11.6332  -15.6966   20.8544 O   0  0  0  0  0  0  0  0  0  0  0  0
   12.5971  -17.2673   15.9473 O   0  0  0  0  0  0  0  0  0  0  0  0
    7.0342  -14.2949   20.4268 C   0  0  0  0  0  0  0  0  0  0  0  0
    7.3894  -15.2718   21.5277 C   0  0  1  0  0  0  0  0  0  0  0  0
    6.5986  -16.3813   21.5354 O   0  0  0  0  0  0  0  0  0  0  0  0
    8.8794  -15.5234   21.5956 C   0  0  2  0  0  0  0  0  0  0  0  0
    9.4382  -16.2528   20.5192 N   0  0  0  0  0  0  0  0  0  0  0  0
    9.1592  -16.0877   22.9445 C   0  0  0  0  0  0  0  0  0  0  0  0
    9.5617  -17.2774   23.0182 O   0  0  0  0  0  0  0  0  0  0  0  0
    9.0049  -15.3851   24.1457 N   0  0  0  0  0  0  0  0  0  0  0  0
    9.4168  -15.9911   25.4828 C   0  0  1  0  0  0  0  0  0  0  0  0
    9.5387  -14.8651   26.4255 C   0  0  0  0  0  0  0  0  0  0  0  0
    9.9791  -15.0715   27.7967 C   0  0  0  0  0  0  0  0  0  0  0  0
   10.0576  -14.0032   28.8025 C   0  0  0  0  0  0  0  0  0  0  0  0
   10.5450  -14.6160   30.1638 C   0  0  0  0  0  0  0  0  0  0  0  0
   10.6108  -13.5033   31.0900 N   0  0  0  0  0  0  0  0  0  0  0  0
    8.2994  -16.9204   25.7110 C   0  0  0  0  0  0  0  0  0  0  0  0
    7.1735  -16.6888   25.1382 O   0  0  0  0  0  0  0  0  0  0  0  0
    8.3248  -18.0423   26.4833 O   0  0  0  0  0  0  0  0  0  0  0  0
  2  1  1  6
  3  2  1  0
  4  3  1  0
  5  4  2  0
  6  2  1  0
  7  6  2  0
  8  4  1  0
 10  9  1  6
 10 12  1  0
 11 10  1  0
 12 14  1  0
 12 13  1  6
 13  6  1  0
 14 16  1  0
 15 14  2  0
 16 17  1  0
 17 18  1  1
 17 23  1  0
 18 19  1  0
 20 19  1  0
 21 22  1  0
 21 20  1  0
 23 24  2  0
 23 25  1  0
M  END
$$$$
