DTK.pdb
     RDKit          3D

 25 24  0  0  1  0  0  0  0  0999 V2000
   12.6354  -18.9489   20.5978 N   0  0  0  0  0  0  0  0  0  0  0  0
   12.7846  -17.5969   20.0925 C   0  0  1  0  0  0  0  0  0  0  0  0
   13.0866  -17.5911   18.6087 C   0  0  0  0  0  0  0  0  0  0  0  0
   14.5180  -17.9683   18.4166 C   0  0  0  0  0  0  0  0  0  0  0  0
   15.1646  -18.6149   19.2539 O   0  0  0  0  0  0  0  0  0  0  0  0
   11.5455  -16.8029   20.3351 C   0  0  0  0  0  0  0  0  0  0  0  0
   11.3751  -15.6631   19.8513 O   0  0  0  0  0  0  0  0  0  0  0  0
   15.1037  -17.5465   17.2201 O   0  0  0  0  0  0  0  0  0  0  0  0
    7.7014  -17.9818   20.0229 C   0  0  0  0  0  0  0  0  0  0  0  0
    8.0802  -17.6284   21.4456 C   0  0  1  0  0  0  0  0  0  0  0  0
    8.0872  -18.7044   22.2814 O   0  0  0  0  0  0  0  0  0  0  0  0
    9.3073  -16.7454   21.4969 C   0  0  2  0  0  0  0  0  0  0  0  0
   10.5315  -17.3580   21.1381 N   0  0  0  0  0  0  0  0  0  0  0  0
    9.3066  -16.0852   22.8311 C   0  0  0  0  0  0  0  0  0  0  0  0
   10.2167  -16.3900   23.6445 O   0  0  0  0  0  0  0  0  0  0  0  0
    8.3589  -15.1433   23.2494 N   0  0  0  0  0  0  0  0  0  0  0  0
    8.3677  -14.5774   24.6653 C   0  0  1  0  0  0  0  0  0  0  0  0
    7.2966  -13.5665   24.7117 C   0  0  0  0  0  0  0  0  0  0  0  0
    6.9861  -12.8500   25.9393 C   0  0  0  0  0  0  0  0  0  0  0  0
    5.9669  -11.7963   26.0386 C   0  0  0  0  0  0  0  0  0  0  0  0
    5.9431  -11.2432   27.5082 C   0  0  0  0  0  0  0  0  0  0  0  0
    4.8848  -10.2535   27.5344 N   0  0  0  0  0  0  0  0  0  0  0  0
    8.1462  -15.8049   25.4454 C   0  0  0  0  0  0  0  0  0  0  0  0
    8.5783  -15.8581   26.6535 O   0  0  0  0  0  0  0  0  0  0  0  0
    7.5070  -16.9300   25.0196 O   0  0  0  0  0  0  0  0  0  0  0  0
  2  1  1  6
  3  2  1  0
  4  3  1  0
  5  4  2  0
  6  2  1  0
  7  6  2  0
  8  4  1  0
 10  9  1  6
 10 12  1  0
 11 10  1  0
 12 14  1  0
 12 13  1  1
 13  6  1  0
 14 16  1  0
 15 14  2  0
 16 17  1  0
 17 18  1  6
 17 23  1  0
 18 19  1  0
 20 19  1  0
 21 22  1  0
 21 20  1  0
 23 24  2  0
 23 25  1  0
M  END
$$$$
