DTK.pdb
     RDKit          3D

 25 24  0  0  1  0  0  0  0  0999 V2000
   12.6342  -15.6837   17.3861 N   0  0  0  0  0  0  0  0  0  0  0  0
   12.7600  -15.4969   18.8196 C   0  0  1  0  0  0  0  0  0  0  0  0
   13.8185  -14.4665   19.1524 C   0  0  0  0  0  0  0  0  0  0  0  0
   15.1611  -15.0809   18.9328 C   0  0  0  0  0  0  0  0  0  0  0  0
   15.3181  -16.1882   18.3975 O   0  0  0  0  0  0  0  0  0  0  0  0
   11.4617  -15.0622   19.4113 C   0  0  0  0  0  0  0  0  0  0  0  0
   10.9972  -13.9150   19.2374 O   0  0  0  0  0  0  0  0  0  0  0  0
   16.2541  -14.3284   19.3705 O   0  0  0  0  0  0  0  0  0  0  0  0
    8.0932  -17.1572   19.1243 C   0  0  0  0  0  0  0  0  0  0  0  0
    8.4734  -16.9396   20.5737 C   0  0  1  0  0  0  0  0  0  0  0  0
    8.8116  -18.0915   21.2178 O   0  0  0  0  0  0  0  0  0  0  0  0
    9.4393  -15.7865   20.7335 C   0  0  2  0  0  0  0  0  0  0  0  0
   10.7334  -15.9780   20.1937 N   0  0  0  0  0  0  0  0  0  0  0  0
    9.4130  -15.3995   22.1707 C   0  0  0  0  0  0  0  0  0  0  0  0
   10.4117  -15.6851   22.8806 O   0  0  0  0  0  0  0  0  0  0  0  0
    8.3489  -14.7365   22.7942 N   0  0  0  0  0  0  0  0  0  0  0  0
    8.4333  -14.2833   24.2475 C   0  0  1  0  0  0  0  0  0  0  0  0
    7.2838  -13.3879   24.4674 C   0  0  0  0  0  0  0  0  0  0  0  0
    7.0551  -12.7540   25.7568 C   0  0  0  0  0  0  0  0  0  0  0  0
    5.9417  -11.8360   26.0334 C   0  0  0  0  0  0  0  0  0  0  0  0
    6.0376  -11.3484   27.5232 C   0  0  0  0  0  0  0  0  0  0  0  0
    4.8918  -10.4840   27.7242 N   0  0  0  0  0  0  0  0  0  0  0  0
    8.3942  -15.5829   24.9359 C   0  0  0  0  0  0  0  0  0  0  0  0
    7.7283  -16.5450   24.4067 O   0  0  0  0  0  0  0  0  0  0  0  0
    9.0108  -15.8958   26.1097 O   0  0  0  0  0  0  0  0  0  0  0  0
  2  1  1  6
  3  2  1  0
  4  3  1  0
  5  4  2  0
  6  2  1  0
  7  6  2  0
  8  4  1  0
 10  9  1  6
 10 12  1  0
 11 10  1  0
 12 14  1  0
 12 13  1  1
 13  6  1  0
 14 16  1  0
 15 14  2  0
 16 17  1  0
 17 18  1  1
 17 23  1  0
 18 19  1  0
 20 19  1  0
 21 22  1  0
 21 20  1  0
 23 24  2  0
 23 25  1  0
M  END
$$$$
