DTK.pdb
     RDKit          3D

 25 24  0  0  1  0  0  0  0  0999 V2000
   11.9546  -15.8740   17.4359 N   0  0  0  0  0  0  0  0  0  0  0  0
   12.8513  -15.3165   18.4312 C   0  0  1  0  0  0  0  0  0  0  0  0
   13.7379  -14.2423   17.8374 C   0  0  0  0  0  0  0  0  0  0  0  0
   14.8669  -14.9050   17.1201 C   0  0  0  0  0  0  0  0  0  0  0  0
   14.7576  -16.0046   16.5577 O   0  0  0  0  0  0  0  0  0  0  0  0
   12.0814  -14.7322   19.5672 C   0  0  0  0  0  0  0  0  0  0  0  0
   12.6319  -14.1009   20.4949 O   0  0  0  0  0  0  0  0  0  0  0  0
   16.0780  -14.2080   17.1150 O   0  0  0  0  0  0  0  0  0  0  0  0
    8.1224  -13.1705   19.2635 C   0  0  0  0  0  0  0  0  0  0  0  0
    8.3458  -14.3272   20.2146 C   0  0  1  0  0  0  0  0  0  0  0  0
    7.7340  -15.4767   19.8137 O   0  0  0  0  0  0  0  0  0  0  0  0
    9.8004  -14.4570   20.6086 C   0  0  2  0  0  0  0  0  0  0  0  0
   10.6839  -14.8979   19.5948 N   0  0  0  0  0  0  0  0  0  0  0  0
    9.8367  -15.2602   21.8615 C   0  0  0  0  0  0  0  0  0  0  0  0
   10.2804  -16.4358   21.8000 O   0  0  0  0  0  0  0  0  0  0  0  0
    9.4087  -14.7986   23.1121 N   0  0  0  0  0  0  0  0  0  0  0  0
    9.5423  -15.6546   24.3668 C   0  0  1  0  0  0  0  0  0  0  0  0
    9.3948  -14.7363   25.5098 C   0  0  0  0  0  0  0  0  0  0  0  0
    9.6560  -15.1765   26.8716 C   0  0  0  0  0  0  0  0  0  0  0  0
    9.5056  -14.3176   28.0543 C   0  0  0  0  0  0  0  0  0  0  0  0
    9.7864  -15.1680   29.3443 C   0  0  0  0  0  0  0  0  0  0  0  0
    9.7061  -14.2352   30.4505 N   0  0  0  0  0  0  0  0  0  0  0  0
    8.4500  -16.6164   24.1521 C   0  0  0  0  0  0  0  0  0  0  0  0
    8.5419  -17.7857   24.6750 O   0  0  0  0  0  0  0  0  0  0  0  0
    7.3083  -16.3990   23.4414 O   0  0  0  0  0  0  0  0  0  0  0  0
  2  1  1  6
  3  2  1  0
  4  3  1  0
  5  4  2  0
  6  2  1  0
  7  6  2  0
  8  4  1  0
 10  9  1  6
 10 12  1  0
 11 10  1  0
 12 14  1  0
 12 13  1  6
 13  6  1  0
 14 16  1  0
 15 14  2  0
 16 17  1  0
 17 18  1  1
 17 23  1  0
 18 19  1  0
 20 19  1  0
 21 22  1  0
 21 20  1  0
 23 24  2  0
 23 25  1  0
M  END
$$$$
