DTK.pdb
     RDKit          3D

 25 24  0  0  1  0  0  0  0  0999 V2000
   10.3551  -17.3920   16.3779 N   0  0  0  0  0  0  0  0  0  0  0  0
    9.1885  -17.1606   17.2092 C   0  0  1  0  0  0  0  0  0  0  0  0
    8.4617  -18.4533   17.5148 C   0  0  0  0  0  0  0  0  0  0  0  0
    9.4705  -19.5482   17.6219 C   0  0  0  0  0  0  0  0  0  0  0  0
   10.6932  -19.3476   17.5745 O   0  0  0  0  0  0  0  0  0  0  0  0
    9.5766  -16.5106   18.4944 C   0  0  0  0  0  0  0  0  0  0  0  0
   10.7500  -16.5248   18.9244 O   0  0  0  0  0  0  0  0  0  0  0  0
    8.9555  -20.8374   17.7814 O   0  0  0  0  0  0  0  0  0  0  0  0
    7.8971  -12.9045   19.8814 C   0  0  0  0  0  0  0  0  0  0  0  0
    7.7566  -14.1001   20.7998 C   0  0  1  0  0  0  0  0  0  0  0  0
    6.4677  -14.5184   20.9416 O   0  0  0  0  0  0  0  0  0  0  0  0
    8.7681  -15.1775   20.4774 C   0  0  2  0  0  0  0  0  0  0  0  0
    8.5847  -15.8575   19.2499 N   0  0  0  0  0  0  0  0  0  0  0  0
    8.8530  -16.0596   21.6735 C   0  0  0  0  0  0  0  0  0  0  0  0
    8.2361  -17.1558   21.6474 O   0  0  0  0  0  0  0  0  0  0  0  0
    9.5743  -15.7548   22.8342 N   0  0  0  0  0  0  0  0  0  0  0  0
    9.5710  -16.6846   24.0426 C   0  0  1  0  0  0  0  0  0  0  0  0
   10.9643  -16.7471   24.5182 C   0  0  0  0  0  0  0  0  0  0  0  0
   11.3967  -17.7692   25.4591 C   0  0  0  0  0  0  0  0  0  0  0  0
   12.7685  -17.8831   25.9731 C   0  0  0  0  0  0  0  0  0  0  0  0
   12.8173  -19.0194   27.0560 C   0  0  0  0  0  0  0  0  0  0  0  0
   14.1817  -19.0335   27.5441 N   0  0  0  0  0  0  0  0  0  0  0  0
    8.6107  -15.9886   24.9131 C   0  0  0  0  0  0  0  0  0  0  0  0
    8.4157  -14.7311   24.7404 O   0  0  0  0  0  0  0  0  0  0  0  0
    7.8735  -16.5467   25.9136 O   0  0  0  0  0  0  0  0  0  0  0  0
  2  1  1  6
  3  2  1  0
  4  3  1  0
  5  4  2  0
  6  2  1  0
  7  6  2  0
  8  4  1  0
 10  9  1  6
 10 12  1  0
 11 10  1  0
 12 14  1  0
 12 13  1  6
 13  6  1  0
 14 16  1  0
 15 14  2  0
 16 17  1  0
 17 18  1  1
 17 23  1  0
 18 19  1  0
 20 19  1  0
 21 22  1  0
 21 20  1  0
 23 24  2  0
 23 25  1  0
M  END
$$$$
