DTK.pdb
     RDKit          3D

 25 24  0  0  1  0  0  0  0  0999 V2000
    9.6411  -17.5795   18.1743 N   0  0  0  0  0  0  0  0  0  0  0  0
   10.7874  -17.4287   19.0511 C   0  0  1  0  0  0  0  0  0  0  0  0
   11.9953  -16.9113   18.2987 C   0  0  0  0  0  0  0  0  0  0  0  0
   12.7493  -18.0795   17.7556 C   0  0  0  0  0  0  0  0  0  0  0  0
   12.2010  -19.0238   17.1682 O   0  0  0  0  0  0  0  0  0  0  0  0
   10.4776  -16.4904   20.1684 C   0  0  0  0  0  0  0  0  0  0  0  0
   11.3649  -16.0153   20.9094 O   0  0  0  0  0  0  0  0  0  0  0  0
   14.1332  -18.0535   17.9473 O   0  0  0  0  0  0  0  0  0  0  0  0
    7.1156  -13.8012   20.1141 C   0  0  0  0  0  0  0  0  0  0  0  0
    7.2355  -14.7813   21.2620 C   0  0  1  0  0  0  0  0  0  0  0  0
    6.2632  -15.7358   21.2555 O   0  0  0  0  0  0  0  0  0  0  0  0
    8.6527  -15.2845   21.4247 C   0  0  2  0  0  0  0  0  0  0  0  0
    9.1369  -16.1271   20.3960 N   0  0  0  0  0  0  0  0  0  0  0  0
    8.7523  -15.8532   22.7968 C   0  0  0  0  0  0  0  0  0  0  0  0
    8.8145  -17.1039   22.9177 O   0  0  0  0  0  0  0  0  0  0  0  0
    8.7811  -15.0911   23.9710 N   0  0  0  0  0  0  0  0  0  0  0  0
    8.8453  -15.7468   25.3461 C   0  0  1  0  0  0  0  0  0  0  0  0
    9.3046  -14.7030   26.2793 C   0  0  0  0  0  0  0  0  0  0  0  0
    9.5938  -15.0083   27.6720 C   0  0  0  0  0  0  0  0  0  0  0  0
   10.0156  -14.0066   28.6608 C   0  0  0  0  0  0  0  0  0  0  0  0
   10.2818  -14.7218   30.0334 C   0  0  0  0  0  0  0  0  0  0  0  0
   10.6522  -13.6675   30.9561 N   0  0  0  0  0  0  0  0  0  0  0  0
    7.4514  -16.1934   25.4949 C   0  0  0  0  0  0  0  0  0  0  0  0
    6.5336  -15.5942   24.8258 O   0  0  0  0  0  0  0  0  0  0  0  0
    7.0076  -17.2103   26.2852 O   0  0  0  0  0  0  0  0  0  0  0  0
  2  1  1  6
  3  2  1  0
  4  3  1  0
  5  4  2  0
  6  2  1  0
  7  6  2  0
  8  4  1  0
 10  9  1  6
 10 12  1  0
 11 10  1  0
 12 14  1  0
 12 13  1  6
 13  6  1  0
 14 16  1  0
 15 14  2  0
 16 17  1  0
 17 18  1  1
 17 23  1  0
 18 19  1  0
 20 19  1  0
 21 22  1  0
 21 20  1  0
 23 24  2  0
 23 25  1  0
M  END
$$$$
