PFV.pdb
     RDKit          3D

 26 27  0  0  1  0  0  0  0  0999 V2000
   27.6826  -19.4873  -13.1096 N   0  0  0  0  0  0  0  0  0  0  0  0
   28.2190  -19.5597  -14.4628 C   0  0  0  0  0  0  0  0  0  0  0  0
   28.6558  -20.9567  -14.7257 C   0  0  0  0  0  0  0  0  0  0  0  0
   28.4908  -21.6592  -13.4105 C   0  0  0  0  0  0  0  0  0  0  0  0
   27.4466  -20.8331  -12.7025 C   0  0  1  0  0  0  0  0  0  0  0  0
   27.4761  -21.0808  -11.2524 C   0  0  0  0  0  0  0  0  0  0  0  0
   27.0287  -22.1744  -10.7561 O   0  0  0  0  0  0  0  0  0  0  0  0
   27.9828  -20.1697  -10.2904 N   0  0  0  0  0  0  0  0  0  0  0  0
   27.8902  -20.4239   -8.8591 C   0  0  1  0  0  0  0  0  0  0  0  0
   29.0265  -19.7890   -8.1185 C   0  0  0  0  0  0  0  0  0  0  0  0
   28.8262  -19.7931   -6.6569 C   0  0  0  0  0  0  0  0  0  0  0  0
   29.2830  -20.9082   -5.9530 C   0  0  0  0  0  0  0  0  0  0  0  0
   29.1584  -20.9939   -4.5902 C   0  0  0  0  0  0  0  0  0  0  0  0
   28.5645  -19.9382   -3.9344 C   0  0  0  0  0  0  0  0  0  0  0  0
   28.1028  -18.8190   -4.6151 C   0  0  0  0  0  0  0  0  0  0  0  0
   28.2352  -18.7501   -5.9744 C   0  0  0  0  0  0  0  0  0  0  0  0
   26.5789  -20.0507   -8.3182 C   0  0  0  0  0  0  0  0  0  0  0  0
   26.1747  -18.8756   -8.4502 O   0  0  0  0  0  0  0  0  0  0  0  0
   23.4726  -20.3344   -9.4189 C   0  0  0  0  0  0  0  0  0  0  0  0
   23.3375  -20.9968   -8.0778 C   0  0  1  0  0  0  0  0  0  0  0  0
   23.2594  -22.4903   -8.1697 C   0  0  0  0  0  0  0  0  0  0  0  0
   24.4627  -20.6013   -7.1244 C   0  0  2  0  0  0  0  0  0  0  0  0
   25.7493  -20.9803   -7.6475 N   0  0  0  0  0  0  0  0  0  0  0  0
   24.2445  -21.1476   -5.7674 C   0  0  0  0  0  0  0  0  0  0  0  0
   23.1672  -20.8131   -4.9659 O   0  0  0  0  0  0  0  0  0  0  0  0
   25.0775  -21.9658   -5.2985 O   0  0  0  0  0  0  0  0  0  0  0  0
  1  2  1  0
  3  2  1  0
  4  5  1  0
  4  3  1  0
  5  6  1  1
  5  1  1  0
  6  7  2  0
  8  9  1  0
  8  6  1  0
 10 11  1  0
  9 10  1  1
 11 12  2  0
 12 13  1  0
 14 13  2  0
 15 14  1  0
 16 15  2  0
 16 11  1  0
 17  9  1  0
 17 18  2  0
 20 19  1  6
 20 22  1  0
 21 20  1  0
 22 23  1  6
 22 24  1  0
 23 17  1  0
 24 26  2  0
 24 25  1  0
M  END
$$$$
