PFV.pdb
     RDKit          3D

 26 27  0  0  1  0  0  0  0  0999 V2000
   27.7255  -21.5736  -18.2242 N   0  0  0  0  0  0  0  0  0  0  0  0
   28.5763  -21.5883  -19.4075 C   0  0  0  0  0  0  0  0  0  0  0  0
   29.8865  -20.9782  -19.0571 C   0  0  0  0  0  0  0  0  0  0  0  0
   29.7050  -20.4686  -17.6578 C   0  0  0  0  0  0  0  0  0  0  0  0
   28.5882  -21.3253  -17.1168 C   0  0  1  0  0  0  0  0  0  0  0  0
   27.9634  -20.6937  -15.9439 C   0  0  0  0  0  0  0  0  0  0  0  0
   28.6492  -20.4058  -14.9002 O   0  0  0  0  0  0  0  0  0  0  0  0
   26.5899  -20.3513  -15.8503 N   0  0  0  0  0  0  0  0  0  0  0  0
   26.0602  -19.5720  -14.7395 C   0  0  1  0  0  0  0  0  0  0  0  0
   25.2943  -18.3807  -15.2263 C   0  0  0  0  0  0  0  0  0  0  0  0
   26.1462  -17.4084  -15.9372 C   0  0  0  0  0  0  0  0  0  0  0  0
   26.8489  -16.4869  -15.1597 C   0  0  0  0  0  0  0  0  0  0  0  0
   27.6803  -15.5572  -15.7296 C   0  0  0  0  0  0  0  0  0  0  0  0
   27.8003  -15.5620  -17.1017 C   0  0  0  0  0  0  0  0  0  0  0  0
   27.1103  -16.4699  -17.8945 C   0  0  0  0  0  0  0  0  0  0  0  0
   26.2853  -17.3904  -17.3096 C   0  0  0  0  0  0  0  0  0  0  0  0
   25.2910  -20.4000  -13.8045 C   0  0  0  0  0  0  0  0  0  0  0  0
   24.5805  -21.3265  -14.2500 O   0  0  0  0  0  0  0  0  0  0  0  0
   26.7148  -21.6869  -10.3553 C   0  0  0  0  0  0  0  0  0  0  0  0
   25.3118  -21.1843  -10.1692 C   0  0  1  0  0  0  0  0  0  0  0  0
   25.2489  -19.9019   -9.3968 C   0  0  0  0  0  0  0  0  0  0  0  0
   24.5790  -21.0172  -11.4983 C   0  0  2  0  0  0  0  0  0  0  0  0
   25.3250  -20.1855  -12.4062 N   0  0  0  0  0  0  0  0  0  0  0  0
   23.2032  -20.5111  -11.3022 C   0  0  0  0  0  0  0  0  0  0  0  0
   22.1974  -21.2327  -10.6837 O   0  0  0  0  0  0  0  0  0  0  0  0
   22.9128  -19.3589  -11.7160 O   0  0  0  0  0  0  0  0  0  0  0  0
  1  2  1  0
  3  2  1  0
  4  5  1  0
  4  3  1  0
  5  6  1  1
  5  1  1  0
  6  7  2  0
  8  9  1  0
  8  6  1  0
 10 11  1  0
  9 10  1  6
 11 12  2  0
 12 13  1  0
 14 13  2  0
 15 14  1  0
 16 15  2  0
 16 11  1  0
 17  9  1  0
 17 18  2  0
 20 19  1  6
 20 22  1  0
 21 20  1  0
 22 23  1  6
 22 24  1  0
 23 17  1  0
 24 26  2  0
 24 25  1  0
M  END
$$$$
