PFV.pdb
     RDKit          3D

 26 27  0  0  1  0  0  0  0  0999 V2000
   26.2645  -23.3378  -16.5360 N   0  0  0  0  0  0  0  0  0  0  0  0
   27.0912  -24.5250  -16.7132 C   0  0  0  0  0  0  0  0  0  0  0  0
   26.5620  -25.6059  -15.8395 C   0  0  0  0  0  0  0  0  0  0  0  0
   25.4837  -24.9463  -15.0316 C   0  0  0  0  0  0  0  0  0  0  0  0
   25.0722  -23.7759  -15.8888 C   0  0  1  0  0  0  0  0  0  0  0  0
   24.3652  -22.7630  -15.0894 C   0  0  0  0  0  0  0  0  0  0  0  0
   23.2503  -23.0289  -14.5158 O   0  0  0  0  0  0  0  0  0  0  0  0
   24.8261  -21.4380  -14.8792 N   0  0  0  0  0  0  0  0  0  0  0  0
   24.0778  -20.4750  -14.0826 C   0  0  1  0  0  0  0  0  0  0  0  0
   24.9905  -19.6402  -13.2383 C   0  0  0  0  0  0  0  0  0  0  0  0
   25.3279  -20.2857  -11.9555 C   0  0  0  0  0  0  0  0  0  0  0  0
   26.5394  -20.9750  -11.8868 C   0  0  0  0  0  0  0  0  0  0  0  0
   26.9474  -21.5906  -10.7315 C   0  0  0  0  0  0  0  0  0  0  0  0
   26.1185  -21.5065   -9.6346 C   0  0  0  0  0  0  0  0  0  0  0  0
   24.9087  -20.8258   -9.6809 C   0  0  0  0  0  0  0  0  0  0  0  0
   24.5173  -20.2175  -10.8413 C   0  0  0  0  0  0  0  0  0  0  0  0
   23.1681  -19.6702  -14.9048 C   0  0  0  0  0  0  0  0  0  0  0  0
   23.6407  -18.9277  -15.7920 O   0  0  0  0  0  0  0  0  0  0  0  0
   19.3968  -20.9568  -15.9267 C   0  0  0  0  0  0  0  0  0  0  0  0
   20.1845  -19.8657  -16.5934 C   0  0  1  0  0  0  0  0  0  0  0  0
   19.3576  -19.0365  -17.5282 C   0  0  0  0  0  0  0  0  0  0  0  0
   20.8793  -18.9568  -15.5822 C   0  0  2  0  0  0  0  0  0  0  0  0
   21.7646  -19.7047  -14.7281 N   0  0  0  0  0  0  0  0  0  0  0  0
   19.9042  -18.1681  -14.7982 C   0  0  0  0  0  0  0  0  0  0  0  0
   19.1388  -17.1436  -15.3268 O   0  0  0  0  0  0  0  0  0  0  0  0
   19.7488  -18.4306  -13.5775 O   0  0  0  0  0  0  0  0  0  0  0  0
  1  2  1  0
  3  2  1  0
  4  5  1  0
  4  3  1  0
  5  6  1  1
  5  1  1  0
  6  7  2  0
  8  9  1  0
  8  6  1  0
 10 11  1  0
  9 10  1  6
 11 12  2  0
 12 13  1  0
 14 13  2  0
 15 14  1  0
 16 15  2  0
 16 11  1  0
 17  9  1  0
 17 18  2  0
 20 19  1  1
 20 22  1  0
 21 20  1  0
 22 23  1  1
 22 24  1  0
 23 17  1  0
 24 26  2  0
 24 25  1  0
M  END
$$$$
