PFV.pdb
     RDKit          3D

 26 27  0  0  1  0  0  0  0  0999 V2000
   28.0158  -19.5595  -13.8953 N   0  0  0  0  0  0  0  0  0  0  0  0
   28.7337  -19.5972  -15.1631 C   0  0  0  0  0  0  0  0  0  0  0  0
   29.1606  -20.9975  -15.4250 C   0  0  0  0  0  0  0  0  0  0  0  0
   28.7921  -21.7454  -14.1778 C   0  0  0  0  0  0  0  0  0  0  0  0
   27.6846  -20.9111  -13.5853 C   0  0  1  0  0  0  0  0  0  0  0  0
   27.5034  -21.2174  -12.1575 C   0  0  0  0  0  0  0  0  0  0  0  0
   26.8258  -22.2367  -11.7775 O   0  0  0  0  0  0  0  0  0  0  0  0
   28.0388  -20.4456  -11.0945 N   0  0  0  0  0  0  0  0  0  0  0  0
   27.6932  -20.6999   -9.7025 C   0  0  1  0  0  0  0  0  0  0  0  0
   28.7872  -20.2578   -8.7802 C   0  0  0  0  0  0  0  0  0  0  0  0
   28.3678  -20.2428   -7.3659 C   0  0  0  0  0  0  0  0  0  0  0  0
   27.9177  -19.0282   -6.8464 C   0  0  0  0  0  0  0  0  0  0  0  0
   27.4892  -18.9206   -5.5483 C   0  0  0  0  0  0  0  0  0  0  0  0
   27.5174  -20.0560   -4.7691 C   0  0  0  0  0  0  0  0  0  0  0  0
   27.9614  -21.2747   -5.2657 C   0  0  0  0  0  0  0  0  0  0  0  0
   28.3852  -21.3642   -6.5627 C   0  0  0  0  0  0  0  0  0  0  0  0
   26.3870  -20.1347   -9.3483 C   0  0  0  0  0  0  0  0  0  0  0  0
   26.2312  -18.8949   -9.3681 O   0  0  0  0  0  0  0  0  0  0  0  0
   23.3373  -21.7772  -11.0115 C   0  0  0  0  0  0  0  0  0  0  0  0
   23.3480  -20.4153  -10.3786 C   0  0  1  0  0  0  0  0  0  0  0  0
   21.9919  -19.7792  -10.3391 C   0  0  0  0  0  0  0  0  0  0  0  0
   23.9430  -20.4385   -8.9726 C   0  0  2  0  0  0  0  0  0  0  0  0
   25.2891  -20.9489   -8.9823 N   0  0  0  0  0  0  0  0  0  0  0  0
   23.0839  -21.1869   -8.0295 C   0  0  0  0  0  0  0  0  0  0  0  0
   21.7735  -20.8460   -7.7439 O   0  0  0  0  0  0  0  0  0  0  0  0
   23.5562  -22.1953   -7.4436 O   0  0  0  0  0  0  0  0  0  0  0  0
  1  2  1  0
  3  2  1  0
  4  5  1  0
  4  3  1  0
  5  6  1  1
  5  1  1  0
  6  7  2  0
  8  9  1  0
  8  6  1  0
 10 11  1  0
  9 10  1  1
 11 12  2  0
 12 13  1  0
 14 13  2  0
 15 14  1  0
 16 15  2  0
 16 11  1  0
 17  9  1  0
 17 18  2  0
 20 19  1  1
 20 22  1  0
 21 20  1  0
 22 23  1  6
 22 24  1  0
 23 17  1  0
 24 26  2  0
 24 25  1  0
M  END
$$$$
