PFV.pdb
     RDKit          3D

 26 27  0  0  1  0  0  0  0  0999 V2000
   27.9176  -19.9973  -17.7373 N   0  0  0  0  0  0  0  0  0  0  0  0
   28.7984  -19.5279  -18.7994 C   0  0  0  0  0  0  0  0  0  0  0  0
   29.2353  -18.1437  -18.4759 C   0  0  0  0  0  0  0  0  0  0  0  0
   28.4464  -17.7729  -17.2549 C   0  0  0  0  0  0  0  0  0  0  0  0
   28.1080  -19.1075  -16.6399 C   0  0  1  0  0  0  0  0  0  0  0  0
   26.9757  -18.9839  -15.7084 C   0  0  0  0  0  0  0  0  0  0  0  0
   27.0030  -18.1488  -14.7366 O   0  0  0  0  0  0  0  0  0  0  0  0
   25.7825  -19.7472  -15.7861 N   0  0  0  0  0  0  0  0  0  0  0  0
   24.6543  -19.5134  -14.8948 C   0  0  1  0  0  0  0  0  0  0  0  0
   23.3724  -19.3908  -15.6595 C   0  0  0  0  0  0  0  0  0  0  0  0
   23.3393  -18.1982  -16.5272 C   0  0  0  0  0  0  0  0  0  0  0  0
   23.6458  -18.3814  -17.8763 C   0  0  0  0  0  0  0  0  0  0  0  0
   23.6227  -17.3359  -18.7632 C   0  0  0  0  0  0  0  0  0  0  0  0
   23.2854  -16.0920  -18.2772 C   0  0  0  0  0  0  0  0  0  0  0  0
   22.9768  -15.8872  -16.9386 C   0  0  0  0  0  0  0  0  0  0  0  0
   23.0048  -16.9412  -16.0678 C   0  0  0  0  0  0  0  0  0  0  0  0
   24.5844  -20.5119  -13.8228 C   0  0  0  0  0  0  0  0  0  0  0  0
   24.3636  -21.7071  -14.1136 O   0  0  0  0  0  0  0  0  0  0  0  0
   27.1601  -21.0467  -11.0946 C   0  0  0  0  0  0  0  0  0  0  0  0
   25.8182  -21.0144  -10.4209 C   0  0  1  0  0  0  0  0  0  0  0  0
   25.6123  -19.7854   -9.5887 C   0  0  0  0  0  0  0  0  0  0  0  0
   24.6700  -21.1552  -11.4175 C   0  0  2  0  0  0  0  0  0  0  0  0
   24.7592  -20.1679  -12.4615 N   0  0  0  0  0  0  0  0  0  0  0  0
   23.3546  -21.1164  -10.7425 C   0  0  0  0  0  0  0  0  0  0  0  0
   22.3756  -20.1774  -11.0155 O   0  0  0  0  0  0  0  0  0  0  0  0
   23.0937  -21.9805   -9.8659 O   0  0  0  0  0  0  0  0  0  0  0  0
  1  2  1  0
  3  2  1  0
  4  5  1  0
  4  3  1  0
  5  6  1  6
  5  1  1  0
  6  7  2  0
  8  9  1  0
  8  6  1  0
 10 11  1  0
  9 10  1  6
 11 12  2  0
 12 13  1  0
 14 13  2  0
 15 14  1  0
 16 15  2  0
 16 11  1  0
 17  9  1  0
 17 18  2  0
 20 19  1  6
 20 22  1  0
 21 20  1  0
 22 23  1  6
 22 24  1  0
 23 17  1  0
 24 26  2  0
 24 25  1  0
M  END
$$$$
