PFV.pdb
     RDKit          3D

 26 27  0  0  1  0  0  0  0  0999 V2000
   28.3231  -21.5244  -14.3821 N   0  0  0  0  0  0  0  0  0  0  0  0
   28.0295  -20.8907  -15.6613 C   0  0  0  0  0  0  0  0  0  0  0  0
   27.5005  -19.5250  -15.4036 C   0  0  0  0  0  0  0  0  0  0  0  0
   27.3554  -19.4500  -13.9123 C   0  0  0  0  0  0  0  0  0  0  0  0
   28.3398  -20.4780  -13.4141 C   0  0  1  0  0  0  0  0  0  0  0  0
   28.0288  -20.8756  -12.0320 C   0  0  0  0  0  0  0  0  0  0  0  0
   27.2470  -21.8604  -11.7840 O   0  0  0  0  0  0  0  0  0  0  0  0
   28.5419  -20.2345  -10.8752 N   0  0  0  0  0  0  0  0  0  0  0  0
   28.0824  -20.5720   -9.5348 C   0  0  1  0  0  0  0  0  0  0  0  0
   29.0372  -20.0791   -8.4915 C   0  0  0  0  0  0  0  0  0  0  0  0
   28.5067  -20.2206   -7.1223 C   0  0  0  0  0  0  0  0  0  0  0  0
   27.8837  -19.1053   -6.5606 C   0  0  0  0  0  0  0  0  0  0  0  0
   27.3432  -19.1468   -5.3011 C   0  0  0  0  0  0  0  0  0  0  0  0
   27.4354  -20.3312   -4.6040 C   0  0  0  0  0  0  0  0  0  0  0  0
   28.0509  -21.4532   -5.1438 C   0  0  0  0  0  0  0  0  0  0  0  0
   28.5846  -21.3942   -6.4014 C   0  0  0  0  0  0  0  0  0  0  0  0
   26.7038  -20.1307   -9.2988 C   0  0  0  0  0  0  0  0  0  0  0  0
   26.4166  -18.9221   -9.4352 O   0  0  0  0  0  0  0  0  0  0  0  0
   22.0469  -20.7660   -9.9386 C   0  0  0  0  0  0  0  0  0  0  0  0
   23.4972  -21.1459  -10.0260 C   0  0  1  0  0  0  0  0  0  0  0  0
   24.1395  -20.7070  -11.3066 C   0  0  0  0  0  0  0  0  0  0  0  0
   24.3034  -20.6167   -8.8421 C   0  0  2  0  0  0  0  0  0  0  0  0
   25.6800  -21.0308   -8.9195 N   0  0  0  0  0  0  0  0  0  0  0  0
   23.6915  -20.9996   -7.5512 C   0  0  0  0  0  0  0  0  0  0  0  0
   22.4803  -20.5086   -7.0966 O   0  0  0  0  0  0  0  0  0  0  0  0
   24.2941  -21.8188   -6.8103 O   0  0  0  0  0  0  0  0  0  0  0  0
  1  2  1  0
  3  2  1  0
  4  5  1  0
  4  3  1  0
  5  6  1  1
  5  1  1  0
  6  7  2  0
  8  9  1  0
  8  6  1  0
 10 11  1  0
  9 10  1  1
 11 12  2  0
 12 13  1  0
 14 13  2  0
 15 14  1  0
 16 15  2  0
 16 11  1  0
 17  9  1  0
 17 18  2  0
 20 19  1  1
 20 22  1  0
 21 20  1  0
 22 23  1  1
 22 24  1  0
 23 17  1  0
 24 26  2  0
 24 25  1  0
M  END
$$$$
