PFV.pdb
     RDKit          3D

 26 27  0  0  1  0  0  0  0  0999 V2000
   28.2284  -21.6981  -13.9875 N   0  0  0  0  0  0  0  0  0  0  0  0
   28.0703  -21.0358  -15.2761 C   0  0  0  0  0  0  0  0  0  0  0  0
   27.6597  -19.6264  -15.0376 C   0  0  0  0  0  0  0  0  0  0  0  0
   27.4371  -19.5421  -13.5565 C   0  0  0  0  0  0  0  0  0  0  0  0
   28.2890  -20.6607  -13.0115 C   0  0  1  0  0  0  0  0  0  0  0  0
   27.8628  -21.0305  -11.6526 C   0  0  0  0  0  0  0  0  0  0  0  0
   26.8858  -21.8371  -11.4593 O   0  0  0  0  0  0  0  0  0  0  0  0
   28.4657  -20.5509  -10.4615 N   0  0  0  0  0  0  0  0  0  0  0  0
   27.7263  -20.4347   -9.2118 C   0  0  1  0  0  0  0  0  0  0  0  0
   28.4287  -19.5318   -8.2453 C   0  0  0  0  0  0  0  0  0  0  0  0
   28.0517  -19.7952   -6.8436 C   0  0  0  0  0  0  0  0  0  0  0  0
   26.7979  -20.3641   -6.6158 C   0  0  0  0  0  0  0  0  0  0  0  0
   26.3676  -20.6626   -5.3486 C   0  0  0  0  0  0  0  0  0  0  0  0
   27.2173  -20.3814   -4.3016 C   0  0  0  0  0  0  0  0  0  0  0  0
   28.4691  -19.8154   -4.5056 C   0  0  0  0  0  0  0  0  0  0  0  0
   28.8823  -19.5241   -5.7761 C   0  0  0  0  0  0  0  0  0  0  0  0
   26.3277  -20.0530   -9.4341 C   0  0  0  0  0  0  0  0  0  0  0  0
   26.0531  -18.8628   -9.6985 O   0  0  0  0  0  0  0  0  0  0  0  0
   22.0223  -20.9217  -11.2892 C   0  0  0  0  0  0  0  0  0  0  0  0
   23.4841  -21.1468  -11.0283 C   0  0  1  0  0  0  0  0  0  0  0  0
   24.3637  -20.5597  -12.0897 C   0  0  0  0  0  0  0  0  0  0  0  0
   23.9125  -20.6206   -9.6605 C   0  0  2  0  0  0  0  0  0  0  0  0
   25.2708  -20.9908   -9.3593 N   0  0  0  0  0  0  0  0  0  0  0  0
   22.9819  -21.0514   -8.5948 C   0  0  0  0  0  0  0  0  0  0  0  0
   21.6421  -20.7076   -8.5561 O   0  0  0  0  0  0  0  0  0  0  0  0
   23.4171  -21.7734   -7.6606 O   0  0  0  0  0  0  0  0  0  0  0  0
  1  2  1  0
  3  2  1  0
  4  5  1  0
  4  3  1  0
  5  6  1  1
  5  1  1  0
  6  7  2  0
  8  9  1  0
  8  6  1  0
 10 11  1  0
  9 10  1  1
 11 12  2  0
 12 13  1  0
 14 13  2  0
 15 14  1  0
 16 15  2  0
 16 11  1  0
 17  9  1  0
 17 18  2  0
 20 19  1  6
 20 22  1  0
 21 20  1  0
 22 23  1  1
 22 24  1  0
 23 17  1  0
 24 26  2  0
 24 25  1  0
M  END
$$$$
