PFV.pdb
     RDKit          3D

 26 27  0  0  1  0  0  0  0  0999 V2000
   23.3536  -10.8339  -19.8683 N   0  0  0  0  0  0  0  0  0  0  0  0
   23.5472  -11.7133  -21.0144 C   0  0  0  0  0  0  0  0  0  0  0  0
   22.4979  -11.4135  -22.0247 C   0  0  0  0  0  0  0  0  0  0  0  0
   21.5926  -10.4262  -21.3493 C   0  0  0  0  0  0  0  0  0  0  0  0
   22.4807   -9.7954  -20.3065 C   0  0  1  0  0  0  0  0  0  0  0  0
   21.6787   -9.1446  -19.2585 C   0  0  0  0  0  0  0  0  0  0  0  0
   20.8803   -8.1810  -19.5351 O   0  0  0  0  0  0  0  0  0  0  0  0
   21.7053   -9.5023  -17.8860 N   0  0  0  0  0  0  0  0  0  0  0  0
   20.8077   -8.8980  -16.9108 C   0  0  1  0  0  0  0  0  0  0  0  0
   19.9507   -9.9308  -16.2461 C   0  0  0  0  0  0  0  0  0  0  0  0
   18.9328  -10.4948  -17.1529 C   0  0  0  0  0  0  0  0  0  0  0  0
   17.6593   -9.9252  -17.1163 C   0  0  0  0  0  0  0  0  0  0  0  0
   16.6535  -10.3695  -17.9355 C   0  0  0  0  0  0  0  0  0  0  0  0
   16.9419  -11.4018  -18.8006 C   0  0  0  0  0  0  0  0  0  0  0  0
   18.2022  -11.9830  -18.8536 C   0  0  0  0  0  0  0  0  0  0  0  0
   19.1937  -11.5275  -18.0294 C   0  0  0  0  0  0  0  0  0  0  0  0
   21.5266   -8.0522  -15.9522 C   0  0  0  0  0  0  0  0  0  0  0  0
   22.5838   -8.4743  -15.4366 O   0  0  0  0  0  0  0  0  0  0  0  0
   22.4335   -3.6074  -14.0283 C   0  0  0  0  0  0  0  0  0  0  0  0
   21.8356   -4.4976  -15.0798 C   0  0  1  0  0  0  0  0  0  0  0  0
   22.5516   -4.4119  -16.3932 C   0  0  0  0  0  0  0  0  0  0  0  0
   21.7666   -5.9548  -14.6292 C   0  0  2  0  0  0  0  0  0  0  0  0
   21.0624   -6.7661  -15.5876 N   0  0  0  0  0  0  0  0  0  0  0  0
   21.1821   -6.0799  -13.2763 C   0  0  0  0  0  0  0  0  0  0  0  0
   21.9281   -6.0735  -12.1108 O   0  0  0  0  0  0  0  0  0  0  0  0
   19.9351   -6.2001  -13.1598 O   0  0  0  0  0  0  0  0  0  0  0  0
  1  2  1  0
  3  2  1  0
  4  5  1  0
  4  3  1  0
  5  6  1  1
  5  1  1  0
  6  7  2  0
  8  9  1  0
  8  6  1  0
 10 11  1  0
  9 10  1  1
 11 12  2  0
 12 13  1  0
 14 13  2  0
 15 14  1  0
 16 15  2  0
 16 11  1  0
 17  9  1  0
 17 18  2  0
 20 19  1  1
 20 22  1  0
 21 20  1  0
 22 23  1  6
 22 24  1  0
 23 17  1  0
 24 26  2  0
 24 25  1  0
M  END
$$$$
