PFV.pdb
     RDKit          3D

 26 27  0  0  1  0  0  0  0  0999 V2000
   27.3321  -19.3205  -13.4752 N   0  0  0  0  0  0  0  0  0  0  0  0
   27.9819  -19.1956  -14.7737 C   0  0  0  0  0  0  0  0  0  0  0  0
   28.8673  -20.3732  -14.9762 C   0  0  0  0  0  0  0  0  0  0  0  0
   28.8205  -21.1113  -13.6710 C   0  0  0  0  0  0  0  0  0  0  0  0
   27.5069  -20.6766  -13.0715 C   0  0  1  0  0  0  0  0  0  0  0  0
   27.4847  -20.9237  -11.6212 C   0  0  0  0  0  0  0  0  0  0  0  0
   27.1851  -22.0766  -11.1482 O   0  0  0  0  0  0  0  0  0  0  0  0
   27.7809  -19.9489  -10.6340 N   0  0  0  0  0  0  0  0  0  0  0  0
   27.5414  -20.1847   -9.2166 C   0  0  1  0  0  0  0  0  0  0  0  0
   28.5325  -19.4503   -8.3673 C   0  0  0  0  0  0  0  0  0  0  0  0
   28.3354  -19.6916   -6.9254 C   0  0  0  0  0  0  0  0  0  0  0  0
   27.6943  -18.6919   -6.1924 C   0  0  0  0  0  0  0  0  0  0  0  0
   27.4496  -18.8341   -4.8508 C   0  0  0  0  0  0  0  0  0  0  0  0
   27.8591  -20.0020   -4.2461 C   0  0  0  0  0  0  0  0  0  0  0  0
   28.4986  -21.0098   -4.9563 C   0  0  0  0  0  0  0  0  0  0  0  0
   28.7347  -20.8513   -6.2939 C   0  0  0  0  0  0  0  0  0  0  0  0
   26.1516  -19.9056   -8.8401 C   0  0  0  0  0  0  0  0  0  0  0  0
   25.7079  -18.7431   -8.9569 O   0  0  0  0  0  0  0  0  0  0  0  0
   23.3785  -20.1628  -10.4916 C   0  0  0  0  0  0  0  0  0  0  0  0
   23.0299  -20.9931   -9.2897 C   0  0  1  0  0  0  0  0  0  0  0  0
   23.1010  -22.4658   -9.5571 C   0  0  0  0  0  0  0  0  0  0  0  0
   23.8985  -20.6504   -8.0816 C   0  0  2  0  0  0  0  0  0  0  0  0
   25.2893  -20.9126   -8.3457 N   0  0  0  0  0  0  0  0  0  0  0  0
   23.4353  -21.3472   -6.8620 C   0  0  0  0  0  0  0  0  0  0  0  0
   22.1894  -21.1557   -6.2911 O   0  0  0  0  0  0  0  0  0  0  0  0
   24.2065  -22.1656   -6.2975 O   0  0  0  0  0  0  0  0  0  0  0  0
  1  2  1  0
  3  2  1  0
  4  5  1  0
  4  3  1  0
  5  6  1  1
  5  1  1  0
  6  7  2  0
  8  9  1  0
  8  6  1  0
 10 11  1  0
  9 10  1  1
 11 12  2  0
 12 13  1  0
 14 13  2  0
 15 14  1  0
 16 15  2  0
 16 11  1  0
 17  9  1  0
 17 18  2  0
 20 19  1  6
 20 22  1  0
 21 20  1  0
 22 23  1  6
 22 24  1  0
 23 17  1  0
 24 26  2  0
 24 25  1  0
M  END
$$$$
