PFV.pdb
     RDKit          3D

 26 27  0  0  1  0  0  0  0  0999 V2000
   27.8283  -19.5549  -13.5569 N   0  0  0  0  0  0  0  0  0  0  0  0
   28.4834  -19.6429  -14.8559 C   0  0  0  0  0  0  0  0  0  0  0  0
   28.9216  -21.0476  -15.0717 C   0  0  0  0  0  0  0  0  0  0  0  0
   28.6283  -21.7397  -13.7735 C   0  0  0  0  0  0  0  0  0  0  0  0
   27.5368  -20.8947  -13.1666 C   0  0  1  0  0  0  0  0  0  0  0  0
   27.4316  -21.1342  -11.7186 C   0  0  0  0  0  0  0  0  0  0  0  0
   26.9515  -22.2303  -11.2597 O   0  0  0  0  0  0  0  0  0  0  0  0
   27.8348  -20.2120  -10.7189 N   0  0  0  0  0  0  0  0  0  0  0  0
   27.6392  -20.4741   -9.2995 C   0  0  1  0  0  0  0  0  0  0  0  0
   28.7540  -19.8997   -8.4809 C   0  0  0  0  0  0  0  0  0  0  0  0
   28.4879  -19.9655   -7.0313 C   0  0  0  0  0  0  0  0  0  0  0  0
   27.9973  -18.8112   -6.4192 C   0  0  0  0  0  0  0  0  0  0  0  0
   27.7023  -18.7820   -5.0805 C   0  0  0  0  0  0  0  0  0  0  0  0
   27.9068  -19.9348   -4.3550 C   0  0  0  0  0  0  0  0  0  0  0  0
   28.3940  -21.0945   -4.9438 C   0  0  0  0  0  0  0  0  0  0  0  0
   28.6831  -21.1060   -6.2803 C   0  0  0  0  0  0  0  0  0  0  0  0
   26.3147  -20.0446   -8.8386 C   0  0  0  0  0  0  0  0  0  0  0  0
   25.9549  -18.8628   -9.0274 O   0  0  0  0  0  0  0  0  0  0  0  0
   23.7385  -19.6235  -10.2327 C   0  0  0  0  0  0  0  0  0  0  0  0
   23.2213  -20.5838   -9.2003 C   0  0  1  0  0  0  0  0  0  0  0  0
   23.1224  -21.9899   -9.7085 C   0  0  0  0  0  0  0  0  0  0  0  0
   24.0561  -20.5597   -7.9221 C   0  0  2  0  0  0  0  0  0  0  0  0
   25.4235  -20.9268   -8.1831 N   0  0  0  0  0  0  0  0  0  0  0  0
   23.4583  -21.4036   -6.8647 C   0  0  0  0  0  0  0  0  0  0  0  0
   22.1997  -21.1926   -6.3298 O   0  0  0  0  0  0  0  0  0  0  0  0
   24.1192  -22.3746   -6.4135 O   0  0  0  0  0  0  0  0  0  0  0  0
  1  2  1  0
  3  2  1  0
  4  5  1  0
  4  3  1  0
  5  6  1  1
  5  1  1  0
  6  7  2  0
  8  9  1  0
  8  6  1  0
 10 11  1  0
  9 10  1  1
 11 12  2  0
 12 13  1  0
 14 13  2  0
 15 14  1  0
 16 15  2  0
 16 11  1  0
 17  9  1  0
 17 18  2  0
 20 19  1  6
 20 22  1  0
 21 20  1  0
 22 23  1  6
 22 24  1  0
 23 17  1  0
 24 26  2  0
 24 25  1  0
M  END
$$$$
