PFV.pdb
     RDKit          3D

 26 27  0  0  1  0  0  0  0  0999 V2000
   27.6881  -20.5742  -16.1513 N   0  0  0  0  0  0  0  0  0  0  0  0
   29.0764  -20.8982  -16.4541 C   0  0  0  0  0  0  0  0  0  0  0  0
   29.3986  -22.2173  -15.8477 C   0  0  0  0  0  0  0  0  0  0  0  0
   28.1803  -22.5746  -15.0485 C   0  0  0  0  0  0  0  0  0  0  0  0
   27.0811  -21.7893  -15.7185 C   0  0  1  0  0  0  0  0  0  0  0  0
   25.9200  -21.6458  -14.8261 C   0  0  0  0  0  0  0  0  0  0  0  0
   25.2279  -22.6632  -14.4676 O   0  0  0  0  0  0  0  0  0  0  0  0
   25.4635  -20.4138  -14.2910 N   0  0  0  0  0  0  0  0  0  0  0  0
   24.3256  -20.3374  -13.3848 C   0  0  1  0  0  0  0  0  0  0  0  0
   24.5759  -19.3607  -12.2775 C   0  0  0  0  0  0  0  0  0  0  0  0
   25.1318  -20.0000  -11.0698 C   0  0  0  0  0  0  0  0  0  0  0  0
   26.1007  -19.2896  -10.3598 C   0  0  0  0  0  0  0  0  0  0  0  0
   26.6613  -19.7939   -9.2146 C   0  0  0  0  0  0  0  0  0  0  0  0
   26.2352  -21.0312   -8.7849 C   0  0  0  0  0  0  0  0  0  0  0  0
   25.2722  -21.7553   -9.4759 C   0  0  0  0  0  0  0  0  0  0  0  0
   24.7236  -21.2372  -10.6163 C   0  0  0  0  0  0  0  0  0  0  0  0
   23.0707  -20.0793  -14.0988 C   0  0  0  0  0  0  0  0  0  0  0  0
   22.9930  -19.0930  -14.8623 O   0  0  0  0  0  0  0  0  0  0  0  0
   21.3031  -22.2080  -16.5639 C   0  0  0  0  0  0  0  0  0  0  0  0
   20.2974  -21.8721  -15.5003 C   0  0  1  0  0  0  0  0  0  0  0  0
   20.0059  -23.0243  -14.5878 C   0  0  0  0  0  0  0  0  0  0  0  0
   20.7169  -20.6587  -14.6738 C   0  0  2  0  0  0  0  0  0  0  0  0
   21.9367  -20.9131  -13.9528 N   0  0  0  0  0  0  0  0  0  0  0  0
   19.6336  -20.2134  -13.7708 C   0  0  0  0  0  0  0  0  0  0  0  0
   18.4003  -19.7645  -14.2092 O   0  0  0  0  0  0  0  0  0  0  0  0
   19.8276  -20.2377  -12.5278 O   0  0  0  0  0  0  0  0  0  0  0  0
  1  2  1  0
  3  2  1  0
  4  5  1  0
  4  3  1  0
  5  6  1  1
  5  1  1  0
  6  7  2  0
  8  9  1  0
  8  6  1  0
 10 11  1  0
  9 10  1  1
 11 12  2  0
 12 13  1  0
 14 13  2  0
 15 14  1  0
 16 15  2  0
 16 11  1  0
 17  9  1  0
 17 18  2  0
 20 19  1  6
 20 22  1  0
 21 20  1  0
 22 23  1  1
 22 24  1  0
 23 17  1  0
 24 26  2  0
 24 25  1  0
M  END
$$$$
