PFV.pdb
     RDKit          3D

 26 27  0  0  1  0  0  0  0  0999 V2000
   27.9454  -19.5787  -13.5054 N   0  0  0  0  0  0  0  0  0  0  0  0
   28.5946  -19.6841  -14.8060 C   0  0  0  0  0  0  0  0  0  0  0  0
   29.0185  -21.0947  -15.0114 C   0  0  0  0  0  0  0  0  0  0  0  0
   28.7237  -21.7728  -13.7061 C   0  0  0  0  0  0  0  0  0  0  0  0
   27.6426  -20.9122  -13.1024 C   0  0  1  0  0  0  0  0  0  0  0  0
   27.5408  -21.1382  -11.6520 C   0  0  0  0  0  0  0  0  0  0  0  0
   27.0402  -22.2202  -11.1818 O   0  0  0  0  0  0  0  0  0  0  0  0
   27.9692  -20.2170  -10.6619 N   0  0  0  0  0  0  0  0  0  0  0  0
   27.7283  -20.4382   -9.2425 C   0  0  1  0  0  0  0  0  0  0  0  0
   28.7879  -19.7935   -8.4032 C   0  0  0  0  0  0  0  0  0  0  0  0
   28.5329  -19.9352   -6.9571 C   0  0  0  0  0  0  0  0  0  0  0  0
   27.9475  -18.8504   -6.3028 C   0  0  0  0  0  0  0  0  0  0  0  0
   27.6552  -18.8958   -4.9639 C   0  0  0  0  0  0  0  0  0  0  0  0
   27.9597  -20.0528   -4.2815 C   0  0  0  0  0  0  0  0  0  0  0  0
   28.5424  -21.1441   -4.9127 C   0  0  0  0  0  0  0  0  0  0  0  0
   28.8271  -21.0817   -6.2487 C   0  0  0  0  0  0  0  0  0  0  0  0
   26.3716  -20.0451   -8.8474 C   0  0  0  0  0  0  0  0  0  0  0  0
   25.9447  -18.9150   -9.1672 O   0  0  0  0  0  0  0  0  0  0  0  0
   23.4655  -21.8998   -9.9849 C   0  0  0  0  0  0  0  0  0  0  0  0
   23.3864  -20.5834   -9.2663 C   0  0  1  0  0  0  0  0  0  0  0  0
   21.9779  -20.1198   -9.0508 C   0  0  0  0  0  0  0  0  0  0  0  0
   24.1255  -20.6113   -7.9305 C   0  0  2  0  0  0  0  0  0  0  0  0
   25.5230  -20.9058   -8.1117 N   0  0  0  0  0  0  0  0  0  0  0  0
   23.4914  -21.5467   -6.9762 C   0  0  0  0  0  0  0  0  0  0  0  0
   22.1912  -21.4189   -6.5202 O   0  0  0  0  0  0  0  0  0  0  0  0
   24.1590  -22.5214   -6.5433 O   0  0  0  0  0  0  0  0  0  0  0  0
  1  2  1  0
  3  2  1  0
  4  5  1  0
  4  3  1  0
  5  6  1  1
  5  1  1  0
  6  7  2  0
  8  9  1  0
  8  6  1  0
 10 11  1  0
  9 10  1  1
 11 12  2  0
 12 13  1  0
 14 13  2  0
 15 14  1  0
 16 15  2  0
 16 11  1  0
 17  9  1  0
 17 18  2  0
 20 19  1  1
 20 22  1  0
 21 20  1  0
 22 23  1  6
 22 24  1  0
 23 17  1  0
 24 26  2  0
 24 25  1  0
M  END
$$$$
