PFV.pdb
     RDKit          3D

 26 27  0  0  1  0  0  0  0  0999 V2000
   28.3382  -21.0422  -18.0426 N   0  0  0  0  0  0  0  0  0  0  0  0
   29.2274  -20.8675  -19.1840 C   0  0  0  0  0  0  0  0  0  0  0  0
   29.5766  -19.4263  -19.2969 C   0  0  0  0  0  0  0  0  0  0  0  0
   28.7277  -18.7486  -18.2622 C   0  0  0  0  0  0  0  0  0  0  0  0
   28.4423  -19.8482  -17.2706 C   0  0  1  0  0  0  0  0  0  0  0  0
   27.2741  -19.5156  -16.4401 C   0  0  0  0  0  0  0  0  0  0  0  0
   27.2461  -18.4495  -15.7294 O   0  0  0  0  0  0  0  0  0  0  0  0
   26.1028  -20.3101  -16.3435 N   0  0  0  0  0  0  0  0  0  0  0  0
   24.9388  -19.8836  -15.5786 C   0  0  1  0  0  0  0  0  0  0  0  0
   23.7081  -19.8525  -16.4315 C   0  0  0  0  0  0  0  0  0  0  0  0
   23.7070  -18.7294  -17.3881 C   0  0  0  0  0  0  0  0  0  0  0  0
   22.9901  -17.5867  -17.0303 C   0  0  0  0  0  0  0  0  0  0  0  0
   22.9466  -16.4854  -17.8459 C   0  0  0  0  0  0  0  0  0  0  0  0
   23.6369  -16.5432  -19.0364 C   0  0  0  0  0  0  0  0  0  0  0  0
   24.3567  -17.6700  -19.4121 C   0  0  0  0  0  0  0  0  0  0  0  0
   24.3894  -18.7597  -18.5866 C   0  0  0  0  0  0  0  0  0  0  0  0
   24.7643  -20.6748  -14.3561 C   0  0  0  0  0  0  0  0  0  0  0  0
   24.7466  -21.9221  -14.4320 O   0  0  0  0  0  0  0  0  0  0  0  0
   25.0554  -21.2427   -9.5176 C   0  0  0  0  0  0  0  0  0  0  0  0
   25.3825  -20.5459  -10.8071 C   0  0  1  0  0  0  0  0  0  0  0  0
   26.7635  -20.8515  -11.3018 C   0  0  0  0  0  0  0  0  0  0  0  0
   24.3663  -20.8570  -11.9035 C   0  0  2  0  0  0  0  0  0  0  0  0
   24.6142  -20.0721  -13.0847 N   0  0  0  0  0  0  0  0  0  0  0  0
   22.9776  -20.6923  -11.4221 C   0  0  0  0  0  0  0  0  0  0  0  0
   22.0688  -19.8091  -11.9778 O   0  0  0  0  0  0  0  0  0  0  0  0
   22.5826  -21.3882  -10.4511 O   0  0  0  0  0  0  0  0  0  0  0  0
  1  2  1  0
  3  2  1  0
  4  5  1  0
  4  3  1  0
  5  6  1  6
  5  1  1  0
  6  7  2  0
  8  9  1  0
  8  6  1  0
 10 11  1  0
  9 10  1  6
 11 12  2  0
 12 13  1  0
 14 13  2  0
 15 14  1  0
 16 15  2  0
 16 11  1  0
 17  9  1  0
 17 18  2  0
 20 19  1  1
 20 22  1  0
 21 20  1  0
 22 23  1  6
 22 24  1  0
 23 17  1  0
 24 26  2  0
 24 25  1  0
M  END
$$$$
