IIN.pdb
     RDKit          3D

 25 24  0  0  1  0  0  0  0  0999 V2000
   18.3210  -17.3180  -17.5724 C   0  0  0  0  0  0  0  0  0  0  0  0
   19.7170  -17.1865  -18.0365 C   0  0  0  0  0  0  0  0  0  0  0  0
   20.7956  -17.8473  -17.2871 C   0  0  2  0  0  0  0  0  0  0  0  0
   20.7548  -17.5236  -15.7956 C   0  0  0  0  0  0  0  0  0  0  0  0
   22.1781  -17.7110  -17.7412 C   0  0  2  0  0  0  0  0  0  0  0  0
   22.2921  -18.0367  -19.1788 N   0  0  0  0  0  0  0  0  0  0  0  0
   23.2699  -18.3837  -17.0116 C   0  0  0  0  0  0  0  0  0  0  0  0
   23.2969  -19.6491  -16.9789 O   0  0  0  0  0  0  0  0  0  0  0  0
   28.3617  -16.3568  -17.0332 C   0  0  0  0  0  0  0  0  0  0  0  0
   27.1572  -17.2406  -16.9035 C   0  0  0  0  0  0  0  0  0  0  0  0
   26.6136  -17.3275  -15.5029 C   0  0  2  0  0  0  0  0  0  0  0  0
   27.6297  -17.9220  -14.5532 C   0  0  0  0  0  0  0  0  0  0  0  0
   25.3679  -18.1759  -15.5289 C   0  0  2  0  0  0  0  0  0  0  0  0
   24.2930  -17.6707  -16.3424 N   0  0  0  0  0  0  0  0  0  0  0  0
   24.9339  -18.6488  -14.2209 C   0  0  0  0  0  0  0  0  0  0  0  0
   24.1130  -18.0219  -13.5133 O   0  0  0  0  0  0  0  0  0  0  0  0
   22.9607  -23.3350  -13.0711 N   0  0  0  0  0  0  0  0  0  0  0  0
   23.6453  -22.1416  -13.3947 C   0  0  0  0  0  0  0  0  0  0  0  0
   24.2379  -21.9646  -14.5022 O   0  0  0  0  0  0  0  0  0  0  0  0
   23.6604  -21.0595  -12.3812 C   0  0  0  0  0  0  0  0  0  0  0  0
   24.9799  -20.3339  -12.3380 C   0  0  2  0  0  0  0  0  0  0  0  0
   25.4106  -19.8756  -13.6298 N   0  0  0  0  0  0  0  0  0  0  0  0
   26.0002  -21.3380  -11.8767 C   0  0  0  0  0  0  0  0  0  0  0  0
   25.8524  -21.9035  -10.7588 O   0  0  0  0  0  0  0  0  0  0  0  0
   27.1043  -21.6765  -12.6238 O   0  0  0  0  0  0  0  0  0  0  0  0
  2  1  1  0
  2  3  1  0
  3  5  1  0
  3  4  1  1
  5  6  1  6
  7  5  1  0
  7  8  2  0
  9 10  1  0
 10 11  1  0
 11 12  1  1
 13 11  1  0
 13 14  1  1
 14  7  1  0
 15 13  1  0
 16 15  2  0
 17 18  1  0
 18 20  1  0
 18 19  2  0
 21 20  1  6
 21 22  1  0
 22 15  1  0
 23 21  1  0
 23 25  1  0
 24 23  2  0
M  END
$$$$
