IIN.pdb
     RDKit          3D

 25 24  0  0  1  0  0  0  0  0999 V2000
   18.6533  -14.2424  -20.7733 C   0  0  0  0  0  0  0  0  0  0  0  0
   19.8808  -14.3003  -19.9539 C   0  0  0  0  0  0  0  0  0  0  0  0
   20.1433  -13.2442  -18.9654 C   0  0  2  0  0  0  0  0  0  0  0  0
   20.1446  -11.8493  -19.5861 C   0  0  0  0  0  0  0  0  0  0  0  0
   21.3082  -13.3497  -18.0890 C   0  0  2  0  0  0  0  0  0  0  0  0
   21.3872  -14.6954  -17.4819 N   0  0  0  0  0  0  0  0  0  0  0  0
   21.5436  -12.3387  -17.0404 C   0  0  0  0  0  0  0  0  0  0  0  0
   20.8018  -12.3354  -16.0145 O   0  0  0  0  0  0  0  0  0  0  0  0
   26.2104  -11.3703  -14.8888 C   0  0  0  0  0  0  0  0  0  0  0  0
   24.7530  -11.3656  -15.2418 C   0  0  0  0  0  0  0  0  0  0  0  0
   24.2811  -10.0789  -15.8632 C   0  0  2  0  0  0  0  0  0  0  0  0
   24.4192   -8.9193  -14.9020 C   0  0  0  0  0  0  0  0  0  0  0  0
   22.8393  -10.2484  -16.2692 C   0  0  2  0  0  0  0  0  0  0  0  0
   22.5681  -11.3669  -17.1339 N   0  0  0  0  0  0  0  0  0  0  0  0
   22.1829   -9.0172  -16.6886 C   0  0  0  0  0  0  0  0  0  0  0  0
   22.3791   -8.4940  -17.8091 O   0  0  0  0  0  0  0  0  0  0  0  0
   17.2108   -5.7287  -16.4151 N   0  0  0  0  0  0  0  0  0  0  0  0
   18.4800   -6.0083  -16.9706 C   0  0  0  0  0  0  0  0  0  0  0  0
   19.0645   -5.2290  -17.7829 O   0  0  0  0  0  0  0  0  0  0  0  0
   19.1419   -7.2743  -16.5737 C   0  0  0  0  0  0  0  0  0  0  0  0
   20.6065   -7.0855  -16.2754 C   0  0  2  0  0  0  0  0  0  0  0  0
   21.2535   -8.2967  -15.8527 N   0  0  0  0  0  0  0  0  0  0  0  0
   20.6826   -6.1310  -15.1156 C   0  0  0  0  0  0  0  0  0  0  0  0
   20.6920   -6.5848  -13.9386 O   0  0  0  0  0  0  0  0  0  0  0  0
   20.7436   -4.7662  -15.2755 O   0  0  0  0  0  0  0  0  0  0  0  0
  2  1  1  0
  2  3  1  0
  3  5  1  0
  3  4  1  6
  5  6  1  1
  7  5  1  0
  7  8  2  0
  9 10  1  0
 10 11  1  0
 11 12  1  1
 13 11  1  0
 13 14  1  6
 14  7  1  0
 15 13  1  0
 16 15  2  0
 17 18  1  0
 18 20  1  0
 18 19  2  0
 21 20  1  1
 21 22  1  0
 22 15  1  0
 23 21  1  0
 23 25  1  0
 24 23  2  0
M  END
$$$$
