IIN.pdb
     RDKit          3D

 25 24  0  0  1  0  0  0  0  0999 V2000
   19.6122  -16.6389  -17.3265 C   0  0  0  0  0  0  0  0  0  0  0  0
   20.8742  -17.2135  -17.8351 C   0  0  0  0  0  0  0  0  0  0  0  0
   21.6902  -18.0636  -16.9559 C   0  0  2  0  0  0  0  0  0  0  0  0
   22.0055  -17.3922  -15.6215 C   0  0  0  0  0  0  0  0  0  0  0  0
   22.9253  -18.6546  -17.4672 C   0  0  2  0  0  0  0  0  0  0  0  0
   22.6689  -19.4096  -18.7122 N   0  0  0  0  0  0  0  0  0  0  0  0
   23.7813  -19.4688  -16.5832 C   0  0  0  0  0  0  0  0  0  0  0  0
   23.4254  -20.6514  -16.3045 O   0  0  0  0  0  0  0  0  0  0  0  0
   28.9817  -19.8979  -17.3955 C   0  0  0  0  0  0  0  0  0  0  0  0
   27.5566  -19.9324  -16.9304 C   0  0  0  0  0  0  0  0  0  0  0  0
   27.3706  -19.4902  -15.5040 C   0  0  2  0  0  0  0  0  0  0  0  0
   28.2266  -20.3036  -14.5587 C   0  0  0  0  0  0  0  0  0  0  0  0
   25.9140  -19.6410  -15.1463 C   0  0  2  0  0  0  0  0  0  0  0  0
   24.9891  -18.9808  -16.0300 N   0  0  0  0  0  0  0  0  0  0  0  0
   25.6161  -19.4359  -13.7349 C   0  0  0  0  0  0  0  0  0  0  0  0
   25.1742  -18.3533  -13.2873 O   0  0  0  0  0  0  0  0  0  0  0  0
   23.7563  -20.1969   -9.1344 N   0  0  0  0  0  0  0  0  0  0  0  0
   22.9652  -20.5143  -10.2618 C   0  0  0  0  0  0  0  0  0  0  0  0
   21.7131  -20.7060  -10.1943 O   0  0  0  0  0  0  0  0  0  0  0  0
   23.6475  -20.6236  -11.5736 C   0  0  0  0  0  0  0  0  0  0  0  0
   25.1375  -20.4313  -11.4617 C   0  0  2  0  0  0  0  0  0  0  0  0
   25.8037  -20.4584  -12.7344 N   0  0  0  0  0  0  0  0  0  0  0  0
   25.6583  -21.6056  -10.6796 C   0  0  0  0  0  0  0  0  0  0  0  0
   25.9981  -22.6558  -11.2903 O   0  0  0  0  0  0  0  0  0  0  0  0
   25.7851  -21.5926   -9.3101 O   0  0  0  0  0  0  0  0  0  0  0  0
  2  1  1  0
  2  3  1  0
  3  5  1  0
  3  4  1  1
  5  6  1  6
  7  5  1  0
  7  8  2  0
  9 10  1  0
 10 11  1  0
 11 12  1  1
 13 11  1  0
 13 14  1  6
 14  7  1  0
 15 13  1  0
 16 15  2  0
 17 18  1  0
 18 20  1  0
 18 19  2  0
 21 20  1  6
 21 22  1  0
 22 15  1  0
 23 21  1  0
 23 25  1  0
 24 23  2  0
M  END
$$$$
