IIN.pdb
     RDKit          3D

 25 24  0  0  1  0  0  0  0  0999 V2000
   19.6833  -16.6355  -18.6210 C   0  0  0  0  0  0  0  0  0  0  0  0
   19.5723  -15.7503  -17.4439 C   0  0  0  0  0  0  0  0  0  0  0  0
   19.4820  -14.2956  -17.6365 C   0  0  2  0  0  0  0  0  0  0  0  0
   20.6453  -13.7406  -18.4549 C   0  0  0  0  0  0  0  0  0  0  0  0
   19.2887  -13.4250  -16.4786 C   0  0  2  0  0  0  0  0  0  0  0  0
   18.2705  -13.9862  -15.5651 N   0  0  0  0  0  0  0  0  0  0  0  0
   19.0198  -11.9865  -16.6666 C   0  0  0  0  0  0  0  0  0  0  0  0
   19.7363  -11.3299  -17.4781 O   0  0  0  0  0  0  0  0  0  0  0  0
   14.1325  -10.8360  -16.3587 C   0  0  0  0  0  0  0  0  0  0  0  0
   15.3881  -10.1656  -16.8303 C   0  0  0  0  0  0  0  0  0  0  0  0
   16.2164   -9.5747  -15.7216 C   0  0  2  0  0  0  0  0  0  0  0  0
   16.0302   -8.0762  -15.6330 C   0  0  0  0  0  0  0  0  0  0  0  0
   17.6640   -9.9039  -15.9831 C   0  0  2  0  0  0  0  0  0  0  0  0
   17.9903  -11.3059  -15.9740 N   0  0  0  0  0  0  0  0  0  0  0  0
   18.6118   -9.0818  -15.2424 C   0  0  0  0  0  0  0  0  0  0  0  0
   19.5139   -9.5702  -14.5244 O   0  0  0  0  0  0  0  0  0  0  0  0
   21.5724   -5.2977  -13.5766 N   0  0  0  0  0  0  0  0  0  0  0  0
   22.0015   -6.1958  -14.5800 C   0  0  0  0  0  0  0  0  0  0  0  0
   23.2075   -6.2758  -14.9647 O   0  0  0  0  0  0  0  0  0  0  0  0
   20.9812   -7.0758  -15.1989 C   0  0  0  0  0  0  0  0  0  0  0  0
   19.6033   -6.8368  -14.6389 C   0  0  2  0  0  0  0  0  0  0  0  0
   18.5935   -7.6395  -15.2718 N   0  0  0  0  0  0  0  0  0  0  0  0
   19.2653   -5.4033  -14.9436 C   0  0  0  0  0  0  0  0  0  0  0  0
   18.5693   -5.1329  -15.9604 O   0  0  0  0  0  0  0  0  0  0  0  0
   19.6833   -4.3551  -14.1573 O   0  0  0  0  0  0  0  0  0  0  0  0
  2  1  1  0
  2  3  1  0
  3  5  1  0
  3  4  1  1
  5  6  1  6
  7  5  1  0
  7  8  2  0
  9 10  1  0
 10 11  1  0
 11 12  1  6
 13 11  1  0
 13 14  1  1
 14  7  1  0
 15 13  1  0
 16 15  2  0
 17 18  1  0
 18 20  1  0
 18 19  2  0
 21 20  1  6
 21 22  1  0
 22 15  1  0
 23 21  1  0
 23 25  1  0
 24 23  2  0
M  END
$$$$
