IIN.pdb
     RDKit          3D

 25 24  0  0  1  0  0  0  0  0999 V2000
   28.6913  -14.5634  -16.1262 C   0  0  0  0  0  0  0  0  0  0  0  0
   27.3587  -15.0296  -15.6922 C   0  0  0  0  0  0  0  0  0  0  0  0
   26.1801  -14.1855  -15.9367 C   0  0  2  0  0  0  0  0  0  0  0  0
   26.3433  -12.7757  -15.3738 C   0  0  0  0  0  0  0  0  0  0  0  0
   24.8540  -14.6713  -15.5603 C   0  0  2  0  0  0  0  0  0  0  0  0
   24.7251  -16.1165  -15.8446 N   0  0  0  0  0  0  0  0  0  0  0  0
   23.6439  -13.9801  -16.0448 C   0  0  0  0  0  0  0  0  0  0  0  0
   23.3909  -13.9838  -17.2853 O   0  0  0  0  0  0  0  0  0  0  0  0
   19.5837  -15.5837  -15.3584 C   0  0  0  0  0  0  0  0  0  0  0  0
   20.1079  -14.3753  -16.0750 C   0  0  0  0  0  0  0  0  0  0  0  0
   20.2626  -13.1646  -15.1947 C   0  0  2  0  0  0  0  0  0  0  0  0
   19.1395  -12.1757  -15.4151 C   0  0  0  0  0  0  0  0  0  0  0  0
   21.5902  -12.5203  -15.5024 C   0  0  2  0  0  0  0  0  0  0  0  0
   22.7499  -13.3087  -15.1771 N   0  0  0  0  0  0  0  0  0  0  0  0
   21.6965  -11.1295  -15.0817 C   0  0  0  0  0  0  0  0  0  0  0  0
   22.2823  -10.7837  -14.0305 O   0  0  0  0  0  0  0  0  0  0  0  0
   21.4696   -5.9931  -14.9554 N   0  0  0  0  0  0  0  0  0  0  0  0
   22.3747   -6.4794  -15.9258 C   0  0  0  0  0  0  0  0  0  0  0  0
   23.2409   -5.7450  -16.4909 O   0  0  0  0  0  0  0  0  0  0  0  0
   22.2926   -7.9153  -16.2862 C   0  0  0  0  0  0  0  0  0  0  0  0
   21.2918   -8.6610  -15.4425 C   0  0  2  0  0  0  0  0  0  0  0  0
   21.1382  -10.0341  -15.8367 N   0  0  0  0  0  0  0  0  0  0  0  0
   19.9629   -7.9964  -15.6755 C   0  0  0  0  0  0  0  0  0  0  0  0
   19.2306   -8.3901  -16.6242 O   0  0  0  0  0  0  0  0  0  0  0  0
   19.4978   -6.9643  -14.8944 O   0  0  0  0  0  0  0  0  0  0  0  0
  2  1  1  0
  2  3  1  0
  3  5  1  0
  3  4  1  1
  5  6  1  6
  7  5  1  0
  7  8  2  0
  9 10  1  0
 10 11  1  0
 11 12  1  6
 13 11  1  0
 13 14  1  1
 14  7  1  0
 15 13  1  0
 16 15  2  0
 17 18  1  0
 18 20  1  0
 18 19  2  0
 21 20  1  6
 21 22  1  0
 22 15  1  0
 23 21  1  0
 23 25  1  0
 24 23  2  0
M  END
$$$$
