IIN.pdb
     RDKit          3D

 25 24  0  0  1  0  0  0  0  0999 V2000
   15.3438  -13.2971  -18.6728 C   0  0  0  0  0  0  0  0  0  0  0  0
   16.7473  -13.2842  -18.2126 C   0  0  0  0  0  0  0  0  0  0  0  0
   17.2306  -12.1654  -17.3904 C   0  0  2  0  0  0  0  0  0  0  0  0
   17.0804  -10.8172  -18.0910 C   0  0  0  0  0  0  0  0  0  0  0  0
   18.5693  -12.2244  -16.8068 C   0  0  2  0  0  0  0  0  0  0  0  0
   18.7957  -13.5272  -16.1453 N   0  0  0  0  0  0  0  0  0  0  0  0
   19.0391  -11.1480  -15.9138 C   0  0  0  0  0  0  0  0  0  0  0  0
   18.4815  -10.9992  -14.7869 O   0  0  0  0  0  0  0  0  0  0  0  0
   23.8097  -10.6696  -14.2233 C   0  0  0  0  0  0  0  0  0  0  0  0
   22.3493  -10.3903  -14.4171 C   0  0  0  0  0  0  0  0  0  0  0  0
   22.0681   -9.1580  -15.2339 C   0  0  2  0  0  0  0  0  0  0  0  0
   22.4694   -7.9020  -14.4928 C   0  0  0  0  0  0  0  0  0  0  0  0
   20.5950   -9.1253  -15.5522 C   0  0  2  0  0  0  0  0  0  0  0  0
   20.0913  -10.2695  -16.2659 N   0  0  0  0  0  0  0  0  0  0  0  0
   20.1219   -7.8542  -16.0844 C   0  0  0  0  0  0  0  0  0  0  0  0
   20.2143   -7.5518  -17.2959 O   0  0  0  0  0  0  0  0  0  0  0  0
   17.8672   -3.2336  -16.4891 N   0  0  0  0  0  0  0  0  0  0  0  0
   17.0679   -4.3747  -16.7271 C   0  0  0  0  0  0  0  0  0  0  0  0
   15.9245   -4.3146  -17.2728 O   0  0  0  0  0  0  0  0  0  0  0  0
   17.6075   -5.6923  -16.3132 C   0  0  0  0  0  0  0  0  0  0  0  0
   19.0212   -5.5969  -15.8015 C   0  0  2  0  0  0  0  0  0  0  0  0
   19.5084   -6.8375  -15.2649 N   0  0  0  0  0  0  0  0  0  0  0  0
   18.9932   -4.6174  -14.6605 C   0  0  0  0  0  0  0  0  0  0  0  0
   19.0886   -5.0418  -13.4764 O   0  0  0  0  0  0  0  0  0  0  0  0
   18.8668   -3.2603  -14.8453 O   0  0  0  0  0  0  0  0  0  0  0  0
  2  1  1  0
  2  3  1  0
  3  5  1  0
  3  4  1  6
  5  6  1  1
  7  5  1  0
  7  8  2  0
  9 10  1  0
 10 11  1  0
 11 12  1  1
 13 11  1  0
 13 14  1  6
 14  7  1  0
 15 13  1  0
 16 15  2  0
 17 18  1  0
 18 20  1  0
 18 19  2  0
 21 20  1  1
 21 22  1  0
 22 15  1  0
 23 21  1  0
 23 25  1  0
 24 23  2  0
M  END
$$$$
