IIN.pdb
     RDKit          3D

 25 24  0  0  1  0  0  0  0  0999 V2000
   27.8397  -21.4074  -19.8383 C   0  0  0  0  0  0  0  0  0  0  0  0
   28.1134  -21.9911  -18.5094 C   0  0  0  0  0  0  0  0  0  0  0  0
   27.0309  -22.0776  -17.5184 C   0  0  2  0  0  0  0  0  0  0  0  0
   26.3180  -20.7432  -17.3130 C   0  0  0  0  0  0  0  0  0  0  0  0
   27.3020  -22.6522  -16.2021 C   0  0  2  0  0  0  0  0  0  0  0  0
   27.8416  -24.0227  -16.3295 N   0  0  0  0  0  0  0  0  0  0  0  0
   26.2587  -22.6453  -15.1588 C   0  0  0  0  0  0  0  0  0  0  0  0
   25.3127  -23.4837  -15.2323 O   0  0  0  0  0  0  0  0  0  0  0  0
   25.3080  -20.8456   -9.2506 C   0  0  0  0  0  0  0  0  0  0  0  0
   24.8480  -21.2437  -10.6211 C   0  0  0  0  0  0  0  0  0  0  0  0
   25.9377  -21.2244  -11.6588 C   0  0  2  0  0  0  0  0  0  0  0  0
   26.5826  -19.8596  -11.7556 C   0  0  0  0  0  0  0  0  0  0  0  0
   25.3363  -21.6102  -12.9862 C   0  0  2  0  0  0  0  0  0  0  0  0
   26.2700  -21.7359  -14.0746 N   0  0  0  0  0  0  0  0  0  0  0  0
   24.1299  -20.8728  -13.3378 C   0  0  0  0  0  0  0  0  0  0  0  0
   24.1455  -19.6612  -13.6530 O   0  0  0  0  0  0  0  0  0  0  0  0
   19.0485  -21.3599  -16.4600 N   0  0  0  0  0  0  0  0  0  0  0  0
   19.9888  -20.6349  -15.6933 C   0  0  0  0  0  0  0  0  0  0  0  0
   19.8714  -19.3957  -15.4491 O   0  0  0  0  0  0  0  0  0  0  0  0
   21.1581  -21.3735  -15.1590 C   0  0  0  0  0  0  0  0  0  0  0  0
   21.6590  -20.7922  -13.8626 C   0  0  2  0  0  0  0  0  0  0  0  0
   22.8176  -21.4724  -13.3534 N   0  0  0  0  0  0  0  0  0  0  0  0
   20.5623  -20.9990  -12.8543 C   0  0  0  0  0  0  0  0  0  0  0  0
   19.4279  -20.4860  -13.0579 O   0  0  0  0  0  0  0  0  0  0  0  0
   20.7360  -21.7308  -11.7028 O   0  0  0  0  0  0  0  0  0  0  0  0
  2  1  1  0
  2  3  1  0
  3  5  1  0
  3  4  1  1
  5  6  1  6
  7  5  1  0
  7  8  2  0
  9 10  1  0
 10 11  1  0
 11 12  1  6
 13 11  1  0
 13 14  1  6
 14  7  1  0
 15 13  1  0
 16 15  2  0
 17 18  1  0
 18 20  1  0
 18 19  2  0
 21 20  1  6
 21 22  1  0
 22 15  1  0
 23 21  1  0
 23 25  1  0
 24 23  2  0
M  END
$$$$
