IIN.pdb
     RDKit          3D

 25 24  0  0  1  0  0  0  0  0999 V2000
   15.5061  -11.0302  -19.5486 C   0  0  0  0  0  0  0  0  0  0  0  0
   16.6337  -11.7416  -18.9130 C   0  0  0  0  0  0  0  0  0  0  0  0
   17.4424  -11.0555  -17.8947 C   0  0  2  0  0  0  0  0  0  0  0  0
   18.1073   -9.7901  -18.4309 C   0  0  0  0  0  0  0  0  0  0  0  0
   18.4440  -11.8077  -17.1417 C   0  0  2  0  0  0  0  0  0  0  0  0
   17.8534  -13.0335  -16.5632 N   0  0  0  0  0  0  0  0  0  0  0  0
   19.2565  -11.1365  -16.1091 C   0  0  0  0  0  0  0  0  0  0  0  0
   18.7129  -10.8220  -15.0098 O   0  0  0  0  0  0  0  0  0  0  0  0
   23.9040  -12.9421  -14.5142 C   0  0  0  0  0  0  0  0  0  0  0  0
   22.6432  -12.1474  -14.6797 C   0  0  0  0  0  0  0  0  0  0  0  0
   22.8652  -10.7564  -15.2094 C   0  0  2  0  0  0  0  0  0  0  0  0
   23.6929   -9.9277  -14.2524 C   0  0  0  0  0  0  0  0  0  0  0  0
   21.5204  -10.1108  -15.4266 C   0  0  2  0  0  0  0  0  0  0  0  0
   20.6246  -10.8267  -16.2969 N   0  0  0  0  0  0  0  0  0  0  0  0
   21.5759   -8.6806  -15.6990 C   0  0  0  0  0  0  0  0  0  0  0  0
   22.0492   -8.2119  -16.7592 O   0  0  0  0  0  0  0  0  0  0  0  0
   18.7218   -3.4021  -14.8572 N   0  0  0  0  0  0  0  0  0  0  0  0
   19.8332   -4.1712  -15.2707 C   0  0  0  0  0  0  0  0  0  0  0  0
   20.8677   -3.6609  -15.7982 O   0  0  0  0  0  0  0  0  0  0  0  0
   19.7680   -5.6389  -15.0705 C   0  0  0  0  0  0  0  0  0  0  0  0
   21.1330   -6.2763  -15.0586 C   0  0  2  0  0  0  0  0  0  0  0  0
   21.0922   -7.6842  -14.7745 N   0  0  0  0  0  0  0  0  0  0  0  0
   21.8909   -5.6327  -13.9302 C   0  0  0  0  0  0  0  0  0  0  0  0
   21.9390   -6.2074  -12.8082 O   0  0  0  0  0  0  0  0  0  0  0  0
   22.5449   -4.4298  -14.0613 O   0  0  0  0  0  0  0  0  0  0  0  0
  2  1  1  0
  2  3  1  0
  3  5  1  0
  3  4  1  6
  5  6  1  1
  7  5  1  0
  7  8  2  0
  9 10  1  0
 10 11  1  0
 11 12  1  1
 13 11  1  0
 13 14  1  6
 14  7  1  0
 15 13  1  0
 16 15  2  0
 17 18  1  0
 18 20  1  0
 18 19  2  0
 21 20  1  1
 21 22  1  0
 22 15  1  0
 23 21  1  0
 23 25  1  0
 24 23  2  0
M  END
$$$$
