IIN.pdb
     RDKit          3D

 25 24  0  0  1  0  0  0  0  0999 V2000
   17.6413   -9.6973  -22.1135 C   0  0  0  0  0  0  0  0  0  0  0  0
   18.4948  -10.5731  -21.2853 C   0  0  0  0  0  0  0  0  0  0  0  0
   18.9324  -10.1150  -19.9586 C   0  0  2  0  0  0  0  0  0  0  0  0
   19.7041   -8.7990  -20.0194 C   0  0  0  0  0  0  0  0  0  0  0  0
   19.6663  -11.0289  -19.0855 C   0  0  2  0  0  0  0  0  0  0  0  0
   18.9821  -12.3369  -19.0021 N   0  0  0  0  0  0  0  0  0  0  0  0
   20.0557  -10.6067  -17.7265 C   0  0  0  0  0  0  0  0  0  0  0  0
   19.1758  -10.5823  -16.8164 O   0  0  0  0  0  0  0  0  0  0  0  0
   23.7956  -12.9191  -15.1113 C   0  0  0  0  0  0  0  0  0  0  0  0
   22.6783  -12.0062  -15.5197 C   0  0  0  0  0  0  0  0  0  0  0  0
   23.0753  -10.5570  -15.6025 C   0  0  2  0  0  0  0  0  0  0  0  0
   23.4913  -10.0214  -14.2505 C   0  0  0  0  0  0  0  0  0  0  0  0
   21.9025   -9.7730  -16.1336 C   0  0  2  0  0  0  0  0  0  0  0  0
   21.3776  -10.2249  -17.3956 N   0  0  0  0  0  0  0  0  0  0  0  0
   22.0591   -8.3267  -16.0539 C   0  0  0  0  0  0  0  0  0  0  0  0
   22.8271   -7.6870  -16.8079 O   0  0  0  0  0  0  0  0  0  0  0  0
   21.6905   -3.3758  -14.9239 N   0  0  0  0  0  0  0  0  0  0  0  0
   20.3933   -3.8671  -15.1950 C   0  0  0  0  0  0  0  0  0  0  0  0
   19.3919   -3.1094  -15.3743 O   0  0  0  0  0  0  0  0  0  0  0  0
   20.2150   -5.3372  -15.2691 C   0  0  0  0  0  0  0  0  0  0  0  0
   21.5026   -6.0827  -15.0332 C   0  0  2  0  0  0  0  0  0  0  0  0
   21.3457   -7.5092  -15.1029 N   0  0  0  0  0  0  0  0  0  0  0  0
   21.9233   -5.7656  -13.6244 C   0  0  0  0  0  0  0  0  0  0  0  0
   21.7005   -6.6028  -12.7074 O   0  0  0  0  0  0  0  0  0  0  0  0
   22.5486   -4.5902  -13.2793 O   0  0  0  0  0  0  0  0  0  0  0  0
  2  1  1  0
  2  3  1  0
  3  5  1  0
  3  4  1  6
  5  6  1  1
  7  5  1  0
  7  8  2  0
  9 10  1  0
 10 11  1  0
 11 12  1  1
 13 11  1  0
 13 14  1  6
 14  7  1  0
 15 13  1  0
 16 15  2  0
 17 18  1  0
 18 20  1  0
 18 19  2  0
 21 20  1  1
 21 22  1  0
 22 15  1  0
 23 21  1  0
 23 25  1  0
 24 23  2  0
M  END
$$$$
