IIN.pdb
     RDKit          3D

 25 24  0  0  1  0  0  0  0  0999 V2000
   27.3733  -14.2988  -15.1042 C   0  0  0  0  0  0  0  0  0  0  0  0
   26.3817  -15.3430  -15.4328 C   0  0  0  0  0  0  0  0  0  0  0  0
   26.6612  -16.7437  -15.0844 C   0  0  2  0  0  0  0  0  0  0  0  0
   28.0388  -17.2006  -15.5581 C   0  0  0  0  0  0  0  0  0  0  0  0
   25.6948  -17.7818  -15.4378 C   0  0  2  0  0  0  0  0  0  0  0  0
   24.3124  -17.3115  -15.2064 N   0  0  0  0  0  0  0  0  0  0  0  0
   25.8334  -19.1443  -14.8892 C   0  0  0  0  0  0  0  0  0  0  0  0
   26.6018  -19.9647  -15.4719 O   0  0  0  0  0  0  0  0  0  0  0  0
   26.0338  -19.8170   -9.5524 C   0  0  0  0  0  0  0  0  0  0  0  0
   26.1231  -20.0208  -11.0353 C   0  0  0  0  0  0  0  0  0  0  0  0
   25.0106  -20.8603  -11.6028 C   0  0  2  0  0  0  0  0  0  0  0  0
   25.0576  -22.2736  -11.0657 C   0  0  0  0  0  0  0  0  0  0  0  0
   25.1418  -20.8704  -13.1044 C   0  0  2  0  0  0  0  0  0  0  0  0
   25.1394  -19.5757  -13.7337 N   0  0  0  0  0  0  0  0  0  0  0  0
   24.2925  -21.8448  -13.7767 C   0  0  0  0  0  0  0  0  0  0  0  0
   24.2951  -23.0617  -13.4820 O   0  0  0  0  0  0  0  0  0  0  0  0
   19.4122  -22.9228  -13.6405 N   0  0  0  0  0  0  0  0  0  0  0  0
   19.7520  -21.5634  -13.8256 C   0  0  0  0  0  0  0  0  0  0  0  0
   18.8883  -20.6586  -14.0353 O   0  0  0  0  0  0  0  0  0  0  0  0
   21.1880  -21.1984  -13.7686 C   0  0  0  0  0  0  0  0  0  0  0  0
   21.9974  -21.8908  -14.8339 C   0  0  2  0  0  0  0  0  0  0  0  0
   23.3782  -21.4935  -14.8361 N   0  0  0  0  0  0  0  0  0  0  0  0
   21.4230  -21.4533  -16.1533 C   0  0  0  0  0  0  0  0  0  0  0  0
   21.9736  -20.5123  -16.7879 O   0  0  0  0  0  0  0  0  0  0  0  0
   20.3097  -22.0363  -16.7122 O   0  0  0  0  0  0  0  0  0  0  0  0
  2  1  1  0
  2  3  1  0
  3  5  1  0
  3  4  1  6
  5  6  1  1
  7  5  1  0
  7  8  2  0
  9 10  1  0
 10 11  1  0
 11 12  1  1
 13 11  1  0
 13 14  1  6
 14  7  1  0
 15 13  1  0
 16 15  2  0
 17 18  1  0
 18 20  1  0
 18 19  2  0
 21 20  1  1
 21 22  1  0
 22 15  1  0
 23 21  1  0
 23 25  1  0
 24 23  2  0
M  END
$$$$
