IIN.pdb
     RDKit          3D

 25 24  0  0  1  0  0  0  0  0999 V2000
   20.1252  -17.3455  -17.0617 C   0  0  0  0  0  0  0  0  0  0  0  0
   20.8202  -16.2099  -17.7011 C   0  0  0  0  0  0  0  0  0  0  0  0
   21.0351  -14.9702  -16.9406 C   0  0  2  0  0  0  0  0  0  0  0  0
   19.7419  -14.4164  -16.3472 C   0  0  0  0  0  0  0  0  0  0  0  0
   21.7597  -13.8612  -17.5582 C   0  0  2  0  0  0  0  0  0  0  0  0
   22.9290  -14.3564  -18.3156 N   0  0  0  0  0  0  0  0  0  0  0  0
   22.1735  -12.7002  -16.7472 C   0  0  0  0  0  0  0  0  0  0  0  0
   21.3644  -12.2274  -15.8959 O   0  0  0  0  0  0  0  0  0  0  0  0
   27.3834  -12.2425  -15.3658 C   0  0  0  0  0  0  0  0  0  0  0  0
   25.8930  -12.0845  -15.4159 C   0  0  0  0  0  0  0  0  0  0  0  0
   25.4371  -10.8206  -16.0937 C   0  0  2  0  0  0  0  0  0  0  0  0
   25.8156   -9.5966  -15.2896 C   0  0  0  0  0  0  0  0  0  0  0  0
   23.9410  -10.8872  -16.2656 C   0  0  2  0  0  0  0  0  0  0  0  0
   23.4426  -12.0888  -16.8822 N   0  0  0  0  0  0  0  0  0  0  0  0
   23.3410   -9.6700  -16.7961 C   0  0  0  0  0  0  0  0  0  0  0  0
   23.4925   -9.3033  -17.9836 O   0  0  0  0  0  0  0  0  0  0  0  0
   19.6597   -6.2913  -18.6431 N   0  0  0  0  0  0  0  0  0  0  0  0
   19.7896   -6.5222  -17.2548 C   0  0  0  0  0  0  0  0  0  0  0  0
   19.3780   -5.7035  -16.3776 O   0  0  0  0  0  0  0  0  0  0  0  0
   20.4387   -7.7837  -16.8239 C   0  0  0  0  0  0  0  0  0  0  0  0
   21.9075   -7.6043  -16.5413 C   0  0  2  0  0  0  0  0  0  0  0  0
   22.5234   -8.7852  -16.0022 N   0  0  0  0  0  0  0  0  0  0  0  0
   22.0077   -6.5448  -15.4785 C   0  0  0  0  0  0  0  0  0  0  0  0
   21.9801   -6.8812  -14.2630 O   0  0  0  0  0  0  0  0  0  0  0  0
   22.1298   -5.2060  -15.7690 O   0  0  0  0  0  0  0  0  0  0  0  0
  2  1  1  0
  2  3  1  0
  3  5  1  0
  3  4  1  6
  5  6  1  1
  7  5  1  0
  7  8  2  0
  9 10  1  0
 10 11  1  0
 11 12  1  1
 13 11  1  0
 13 14  1  6
 14  7  1  0
 15 13  1  0
 16 15  2  0
 17 18  1  0
 18 20  1  0
 18 19  2  0
 21 20  1  1
 21 22  1  0
 22 15  1  0
 23 21  1  0
 23 25  1  0
 24 23  2  0
M  END
$$$$
