IIN.pdb
     RDKit          3D

 25 24  0  0  1  0  0  0  0  0999 V2000
   13.9941   -9.8345  -18.7013 C   0  0  0  0  0  0  0  0  0  0  0  0
   15.2379  -10.5749  -18.4075 C   0  0  0  0  0  0  0  0  0  0  0  0
   16.1557  -10.0702  -17.3759 C   0  0  2  0  0  0  0  0  0  0  0  0
   16.6473   -8.6554  -17.6719 C   0  0  0  0  0  0  0  0  0  0  0  0
   17.3094  -10.8756  -16.9801 C   0  0  2  0  0  0  0  0  0  0  0  0
   16.8987  -12.2608  -16.6663 N   0  0  0  0  0  0  0  0  0  0  0  0
   18.2223  -10.3979  -15.9240 C   0  0  0  0  0  0  0  0  0  0  0  0
   17.8570  -10.4800  -14.7145 O   0  0  0  0  0  0  0  0  0  0  0  0
   23.7601  -10.2699  -13.6372 C   0  0  0  0  0  0  0  0  0  0  0  0
   22.5509   -9.4770  -14.0344 C   0  0  0  0  0  0  0  0  0  0  0  0
   21.6802  -10.1630  -15.0522 C   0  0  2  0  0  0  0  0  0  0  0  0
   22.4262  -10.3984  -16.3468 C   0  0  0  0  0  0  0  0  0  0  0  0
   20.4692   -9.3002  -15.2997 C   0  0  2  0  0  0  0  0  0  0  0  0
   19.4952   -9.8479  -16.2072 N   0  0  0  0  0  0  0  0  0  0  0  0
   20.7704   -7.8966  -15.5485 C   0  0  0  0  0  0  0  0  0  0  0  0
   21.1684   -7.4768  -16.6589 O   0  0  0  0  0  0  0  0  0  0  0  0
   19.4478   -2.6372  -15.8341 N   0  0  0  0  0  0  0  0  0  0  0  0
   19.8675   -3.1878  -14.6019 C   0  0  0  0  0  0  0  0  0  0  0  0
   20.4236   -2.5001  -13.6927 O   0  0  0  0  0  0  0  0  0  0  0  0
   19.6387   -4.6359  -14.3809 C   0  0  0  0  0  0  0  0  0  0  0  0
   20.8078   -5.4749  -14.8267 C   0  0  2  0  0  0  0  0  0  0  0  0
   20.6367   -6.8725  -14.5410 N   0  0  0  0  0  0  0  0  0  0  0  0
   21.9912   -5.0139  -14.0210 C   0  0  0  0  0  0  0  0  0  0  0  0
   22.2432   -5.5685  -12.9162 O   0  0  0  0  0  0  0  0  0  0  0  0
   22.8264   -4.0021  -14.4339 O   0  0  0  0  0  0  0  0  0  0  0  0
  2  1  1  0
  2  3  1  0
  3  5  1  0
  3  4  1  6
  5  6  1  1
  7  5  1  0
  7  8  2  0
  9 10  1  0
 10 11  1  0
 11 12  1  6
 13 11  1  0
 13 14  1  6
 14  7  1  0
 15 13  1  0
 16 15  2  0
 17 18  1  0
 18 20  1  0
 18 19  2  0
 21 20  1  1
 21 22  1  0
 22 15  1  0
 23 21  1  0
 23 25  1  0
 24 23  2  0
M  END
$$$$
