IIN.pdb
     RDKit          3D

 25 24  0  0  1  0  0  0  0  0999 V2000
   27.5414  -19.9551   -7.3369 C   0  0  0  0  0  0  0  0  0  0  0  0
   27.3717  -20.5545   -8.6761 C   0  0  0  0  0  0  0  0  0  0  0  0
   26.1241  -20.3265   -9.4198 C   0  0  2  0  0  0  0  0  0  0  0  0
   24.8895  -20.7785   -8.6435 C   0  0  0  0  0  0  0  0  0  0  0  0
   26.0009  -20.8187  -10.7905 C   0  0  2  0  0  0  0  0  0  0  0  0
   27.2992  -20.7418  -11.4936 N   0  0  0  0  0  0  0  0  0  0  0  0
   24.9461  -20.2920  -11.6775 C   0  0  0  0  0  0  0  0  0  0  0  0
   24.5826  -19.0861  -11.5490 O   0  0  0  0  0  0  0  0  0  0  0  0
   25.5053  -19.1759  -16.0828 C   0  0  0  0  0  0  0  0  0  0  0  0
   24.6421  -19.2721  -14.8604 C   0  0  0  0  0  0  0  0  0  0  0  0
   23.5938  -20.3489  -14.9383 C   0  0  2  0  0  0  0  0  0  0  0  0
   22.3707  -19.8741  -15.6910 C   0  0  0  0  0  0  0  0  0  0  0  0
   23.2174  -20.7477  -13.5342 C   0  0  2  0  0  0  0  0  0  0  0  0
   24.3194  -21.0822  -12.6704 N   0  0  0  0  0  0  0  0  0  0  0  0
   22.1084  -21.6890  -13.4522 C   0  0  0  0  0  0  0  0  0  0  0  0
   22.2716  -22.9302  -13.4757 O   0  0  0  0  0  0  0  0  0  0  0  0
   16.8705  -22.8935  -11.0565 N   0  0  0  0  0  0  0  0  0  0  0  0
   18.1174  -23.3237  -11.5643 C   0  0  0  0  0  0  0  0  0  0  0  0
   18.3580  -24.5306  -11.8717 O   0  0  0  0  0  0  0  0  0  0  0  0
   19.1793  -22.3037  -11.7384 C   0  0  0  0  0  0  0  0  0  0  0  0
   19.6513  -22.2065  -13.1657 C   0  0  2  0  0  0  0  0  0  0  0  0
   20.7313  -21.2744  -13.3372 N   0  0  0  0  0  0  0  0  0  0  0  0
   18.4917  -21.6704  -13.9594 C   0  0  0  0  0  0  0  0  0  0  0  0
   18.2973  -20.4249  -14.0091 O   0  0  0  0  0  0  0  0  0  0  0  0
   17.6182  -22.4820  -14.6450 O   0  0  0  0  0  0  0  0  0  0  0  0
  2  1  1  0
  2  3  1  0
  3  5  1  0
  3  4  1  1
  5  6  1  6
  7  5  1  0
  7  8  2  0
  9 10  1  0
 10 11  1  0
 11 12  1  1
 13 11  1  0
 13 14  1  6
 14  7  1  0
 15 13  1  0
 16 15  2  0
 17 18  1  0
 18 20  1  0
 18 19  2  0
 21 20  1  1
 21 22  1  0
 22 15  1  0
 23 21  1  0
 23 25  1  0
 24 23  2  0
M  END
$$$$
