IIN.pdb
     RDKit          3D

 25 24  0  0  1  0  0  0  0  0999 V2000
   18.8686  -16.4059  -17.5976 C   0  0  0  0  0  0  0  0  0  0  0  0
   19.9124  -15.4922  -18.1045 C   0  0  0  0  0  0  0  0  0  0  0  0
   20.2163  -14.2576  -17.3662 C   0  0  2  0  0  0  0  0  0  0  0  0
   19.0340  -13.2923  -17.3291 C   0  0  0  0  0  0  0  0  0  0  0  0
   21.4144  -13.4915  -17.7036 C   0  0  2  0  0  0  0  0  0  0  0  0
   22.5727  -14.3892  -17.8991 N   0  0  0  0  0  0  0  0  0  0  0  0
   21.8299  -12.3527  -16.8625 C   0  0  0  0  0  0  0  0  0  0  0  0
   21.0667  -11.9706  -15.9274 O   0  0  0  0  0  0  0  0  0  0  0  0
   27.0287  -11.7839  -15.5593 C   0  0  0  0  0  0  0  0  0  0  0  0
   25.5348  -11.6834  -15.6408 C   0  0  0  0  0  0  0  0  0  0  0  0
   25.0433  -10.4014  -16.2569 C   0  0  2  0  0  0  0  0  0  0  0  0
   25.4217   -9.2040  -15.4137 C   0  0  0  0  0  0  0  0  0  0  0  0
   23.5448  -10.4858  -16.3969 C   0  0  2  0  0  0  0  0  0  0  0  0
   23.0513  -11.6652  -17.0585 N   0  0  0  0  0  0  0  0  0  0  0  0
   22.9124   -9.2555  -16.8542 C   0  0  0  0  0  0  0  0  0  0  0  0
   23.0236   -8.8337  -18.0279 O   0  0  0  0  0  0  0  0  0  0  0  0
   20.1060   -4.9581  -17.1220 N   0  0  0  0  0  0  0  0  0  0  0  0
   19.3360   -6.1430  -17.1475 C   0  0  0  0  0  0  0  0  0  0  0  0
   18.1251   -6.1710  -17.5239 O   0  0  0  0  0  0  0  0  0  0  0  0
   19.9908   -7.3997  -16.7109 C   0  0  0  0  0  0  0  0  0  0  0  0
   21.4659   -7.2204  -16.4629 C   0  0  2  0  0  0  0  0  0  0  0  0
   22.1063   -8.4196  -15.9980 N   0  0  0  0  0  0  0  0  0  0  0  0
   21.5891   -6.2109  -15.3548 C   0  0  0  0  0  0  0  0  0  0  0  0
   21.9263   -6.5944  -14.2012 O   0  0  0  0  0  0  0  0  0  0  0  0
   21.3491   -4.8691  -15.5380 O   0  0  0  0  0  0  0  0  0  0  0  0
  2  1  1  0
  2  3  1  0
  3  5  1  0
  3  4  1  6
  5  6  1  1
  7  5  1  0
  7  8  2  0
  9 10  1  0
 10 11  1  0
 11 12  1  1
 13 11  1  0
 13 14  1  6
 14  7  1  0
 15 13  1  0
 16 15  2  0
 17 18  1  0
 18 20  1  0
 18 19  2  0
 21 20  1  1
 21 22  1  0
 22 15  1  0
 23 21  1  0
 23 25  1  0
 24 23  2  0
M  END
$$$$
