FMG.pdb
     RDKit          3D

 24 24  0  0  1  0  0  0  0  0999 V2000
    6.1459  -18.0576   25.8424 N   0  0  0  0  0  0  0  0  0  0  0  0
    6.5336  -16.6950   25.5275 C   0  0  1  0  0  0  0  0  0  0  0  0
    7.1819  -16.0219   26.7193 C   0  0  0  0  0  0  0  0  0  0  0  0
    7.1815  -14.5598   26.6343 C   0  0  0  0  0  0  0  0  0  0  0  0
    5.9874  -13.8842   26.6072 C   0  0  0  0  0  0  0  0  0  0  0  0
    5.9218  -12.4989   26.5268 C   0  0  0  0  0  0  0  0  0  0  0  0
    7.1476  -11.8306   26.4751 C   0  0  0  0  0  0  0  0  0  0  0  0
    8.3512  -12.4931   26.5014 C   0  0  0  0  0  0  0  0  0  0  0  0
    8.3879  -13.8680   26.5814 C   0  0  0  0  0  0  0  0  0  0  0  0
    7.5369  -16.7306   24.4304 C   0  0  0  0  0  0  0  0  0  0  0  0
    8.4058  -17.6353   24.4714 O   0  0  0  0  0  0  0  0  0  0  0  0
    7.3818  -12.8419   19.0983 C   0  0  0  0  0  0  0  0  0  0  0  0
    7.8344  -12.1216   20.6965 S   0  0  0  0  0  0  0  0  0  0  0  0
    8.1673  -13.4657   21.9220 C   0  0  0  0  0  0  0  0  0  0  0  0
    8.1102  -14.7939   21.2415 C   0  0  0  0  0  0  0  0  0  0  0  0
    8.4394  -15.9296   22.1980 C   0  0  2  0  0  0  0  0  0  0  0  0
    7.5458  -15.8007   23.3660 N   0  0  0  0  0  0  0  0  0  0  0  0
    9.8088  -15.7055   22.7015 C   0  0  0  0  0  0  0  0  0  0  0  0
    9.9586  -15.0431   23.7618 O   0  0  0  0  0  0  0  0  0  0  0  0
   10.9900  -16.1872   22.0820 N   0  0  0  0  0  0  0  0  0  0  0  0
   12.2347  -15.4711   22.2784 C   0  0  0  0  0  0  0  0  0  0  0  0
   13.0862  -16.1439   23.2922 C   0  0  0  0  0  0  0  0  0  0  0  0
   14.2261  -15.7009   23.5618 O   0  0  0  0  0  0  0  0  0  0  0  0
   12.6062  -17.2599   23.9309 O   0  0  0  0  0  0  0  0  0  0  0  0
  2  1  1  1
  2 10  1  0
  3  2  1  0
  4  3  1  0
  4  9  2  0
  5  4  1  0
  6  5  2  0
  6  7  1  0
  7  8  2  0
  8  9  1  0
 10 11  2  0
 12 13  1  0
 13 14  1  0
 14 15  1  0
 16 15  1  6
 16 18  1  0
 17 10  1  0
 17 16  1  0
 18 19  2  0
 20 21  1  0
 20 18  1  0
 21 22  1  0
 22 23  2  0
 22 24  1  0
M  END
$$$$
