FMG.pdb
     RDKit          3D

 24 24  0  0  1  0  0  0  0  0999 V2000
   14.1913  -25.3825   41.3757 N   0  0  0  0  0  0  0  0  0  0  0  0
   14.8286  -24.1261   41.7242 C   0  0  1  0  0  0  0  0  0  0  0  0
   15.6240  -23.5750   40.5592 C   0  0  0  0  0  0  0  0  0  0  0  0
   16.6839  -24.4752   40.0996 C   0  0  0  0  0  0  0  0  0  0  0  0
   16.4698  -25.2655   38.9984 C   0  0  0  0  0  0  0  0  0  0  0  0
   17.4355  -26.1392   38.5147 C   0  0  0  0  0  0  0  0  0  0  0  0
   18.6426  -26.1666   39.2176 C   0  0  0  0  0  0  0  0  0  0  0  0
   18.8718  -25.3814   40.3218 C   0  0  0  0  0  0  0  0  0  0  0  0
   17.8966  -24.5231   40.7807 C   0  0  0  0  0  0  0  0  0  0  0  0
   13.7703  -23.1351   42.0550 C   0  0  0  0  0  0  0  0  0  0  0  0
   12.5860  -23.4379   41.7703 O   0  0  0  0  0  0  0  0  0  0  0  0
    9.5149  -20.7833   47.4696 C   0  0  0  0  0  0  0  0  0  0  0  0
   10.9008  -21.6903   46.7386 S   0  0  0  0  0  0  0  0  0  0  0  0
   11.4548  -20.8512   45.1868 C   0  0  0  0  0  0  0  0  0  0  0  0
   12.5302  -21.6564   44.5345 C   0  0  0  0  0  0  0  0  0  0  0  0
   12.9918  -21.0250   43.2301 C   0  0  2  0  0  0  0  0  0  0  0  0
   14.0460  -21.8905   42.6655 N   0  0  0  0  0  0  0  0  0  0  0  0
   13.6458  -19.7440   43.5621 C   0  0  0  0  0  0  0  0  0  0  0  0
   12.9341  -18.8004   43.9965 O   0  0  0  0  0  0  0  0  0  0  0  0
   15.0343  -19.4850   43.4351 N   0  0  0  0  0  0  0  0  0  0  0  0
   15.5342  -18.1535   43.7140 C   0  0  0  0  0  0  0  0  0  0  0  0
   16.0762  -18.0625   45.0938 C   0  0  0  0  0  0  0  0  0  0  0  0
   15.9005  -18.9959   45.9099 O   0  0  0  0  0  0  0  0  0  0  0  0
   16.7737  -16.9396   45.4631 O   0  0  0  0  0  0  0  0  0  0  0  0
  2  1  1  6
  2 10  1  0
  3  2  1  0
  4  3  1  0
  4  9  2  0
  5  4  1  0
  6  5  2  0
  6  7  1  0
  7  8  2  0
  8  9  1  0
 10 11  2  0
 12 13  1  0
 13 14  1  0
 14 15  1  0
 16 15  1  1
 16 18  1  0
 17 10  1  0
 17 16  1  0
 18 19  2  0
 20 21  1  0
 20 18  1  0
 21 22  1  0
 22 23  2  0
 22 24  1  0
M  END
$$$$
