FMG.pdb
     RDKit          3D

 24 24  0  0  1  0  0  0  0  0999 V2000
   10.1955  -17.0368   21.7575 N   0  0  0  0  0  0  0  0  0  0  0  0
    9.4082  -15.8721   22.1178 C   0  0  1  0  0  0  0  0  0  0  0  0
    8.0923  -15.8487   21.3683 C   0  0  0  0  0  0  0  0  0  0  0  0
    7.8662  -14.6062   20.6267 C   0  0  0  0  0  0  0  0  0  0  0  0
    8.8105  -13.6116   20.6694 C   0  0  0  0  0  0  0  0  0  0  0  0
    8.6532  -12.4112   19.9881 C   0  0  0  0  0  0  0  0  0  0  0  0
    7.4725  -12.2749   19.2537 C   0  0  0  0  0  0  0  0  0  0  0  0
    6.5177  -13.2618   19.2013 C   0  0  0  0  0  0  0  0  0  0  0  0
    6.6988  -14.4432   19.8867 C   0  0  0  0  0  0  0  0  0  0  0  0
    9.0971  -15.9427   23.5703 C   0  0  0  0  0  0  0  0  0  0  0  0
    9.8913  -16.5840   24.3006 O   0  0  0  0  0  0  0  0  0  0  0  0
    6.2462  -11.4992   27.9739 C   0  0  0  0  0  0  0  0  0  0  0  0
    7.5507  -12.1590   26.9058 S   0  0  0  0  0  0  0  0  0  0  0  0
    6.7993  -13.0469   25.4684 C   0  0  0  0  0  0  0  0  0  0  0  0
    6.4888  -14.4563   25.8526 C   0  0  0  0  0  0  0  0  0  0  0  0
    7.6661  -15.3825   25.5896 C   0  0  2  0  0  0  0  0  0  0  0  0
    7.9624  -15.3261   24.1445 N   0  0  0  0  0  0  0  0  0  0  0  0
    7.2178  -16.7619   25.8637 C   0  0  0  0  0  0  0  0  0  0  0  0
    5.9811  -16.9955   25.9028 O   0  0  0  0  0  0  0  0  0  0  0  0
    8.0796  -17.8662   26.0853 N   0  0  0  0  0  0  0  0  0  0  0  0
    7.6092  -18.9823   26.8814 C   0  0  0  0  0  0  0  0  0  0  0  0
    8.6199  -19.3828   27.8932 C   0  0  0  0  0  0  0  0  0  0  0  0
    8.3760  -20.3023   28.7076 O   0  0  0  0  0  0  0  0  0  0  0  0
    9.8271  -18.7304   27.9237 O   0  0  0  0  0  0  0  0  0  0  0  0
  2  1  1  6
  2 10  1  0
  3  2  1  0
  4  3  1  0
  4  9  2  0
  5  4  1  0
  6  5  2  0
  6  7  1  0
  7  8  2  0
  8  9  1  0
 10 11  2  0
 12 13  1  0
 13 14  1  0
 14 15  1  0
 16 15  1  6
 16 18  1  0
 17 10  1  0
 17 16  1  0
 18 19  2  0
 20 21  1  0
 20 18  1  0
 21 22  1  0
 22 23  2  0
 22 24  1  0
M  END
$$$$
