FMG.pdb
     RDKit          3D

 24 24  0  0  1  0  0  0  0  0999 V2000
    5.2562  -15.7593   21.6133 N   0  0  0  0  0  0  0  0  0  0  0  0
    6.5991  -16.2340   21.8920 C   0  0  1  0  0  0  0  0  0  0  0  0
    7.4993  -16.0663   20.6856 C   0  0  0  0  0  0  0  0  0  0  0  0
    7.5937  -14.6820   20.2169 C   0  0  0  0  0  0  0  0  0  0  0  0
    6.6587  -14.2012   19.3351 C   0  0  0  0  0  0  0  0  0  0  0  0
    6.6951  -12.8983   18.8544 C   0  0  0  0  0  0  0  0  0  0  0  0
    7.7435  -12.1026   19.3230 C   0  0  0  0  0  0  0  0  0  0  0  0
    8.6872  -12.5697   20.2059 C   0  0  0  0  0  0  0  0  0  0  0  0
    8.6278  -13.8666   20.6672 C   0  0  0  0  0  0  0  0  0  0  0  0
    7.1696  -15.4172   22.9958 C   0  0  0  0  0  0  0  0  0  0  0  0
    7.2595  -14.1790   22.8113 O   0  0  0  0  0  0  0  0  0  0  0  0
    8.3167  -11.9289   27.3260 C   0  0  0  0  0  0  0  0  0  0  0  0
    6.6445  -12.6221   27.2971 S   0  0  0  0  0  0  0  0  0  0  0  0
    6.5837  -14.0739   26.1534 C   0  0  0  0  0  0  0  0  0  0  0  0
    7.7499  -14.9698   26.4136 C   0  0  0  0  0  0  0  0  0  0  0  0
    8.5217  -15.2717   25.1383 C   0  0  2  0  0  0  0  0  0  0  0  0
    7.6051  -15.9749   24.2194 N   0  0  0  0  0  0  0  0  0  0  0  0
    9.5840  -16.2384   25.4787 C   0  0  0  0  0  0  0  0  0  0  0  0
    9.5109  -16.8502   26.5768 O   0  0  0  0  0  0  0  0  0  0  0  0
   10.6969  -16.5445   24.6546 N   0  0  0  0  0  0  0  0  0  0  0  0
   12.0341  -16.4394   25.2036 C   0  0  0  0  0  0  0  0  0  0  0  0
   13.0624  -16.7013   24.1645 C   0  0  0  0  0  0  0  0  0  0  0  0
   14.2814  -16.6343   24.4436 O   0  0  0  0  0  0  0  0  0  0  0  0
   12.6581  -17.0184   22.8918 O   0  0  0  0  0  0  0  0  0  0  0  0
  2  1  1  6
  2 10  1  0
  3  2  1  0
  4  3  1  0
  4  9  2  0
  5  4  1  0
  6  5  2  0
  6  7  1  0
  7  8  2  0
  8  9  1  0
 10 11  2  0
 12 13  1  0
 13 14  1  0
 14 15  1  0
 16 15  1  1
 16 18  1  0
 17 10  1  0
 17 16  1  0
 18 19  2  0
 20 21  1  0
 20 18  1  0
 21 22  1  0
 22 23  2  0
 22 24  1  0
M  END
$$$$
