FMG.pdb
     RDKit          3D

 24 24  0  0  1  0  0  0  0  0999 V2000
    5.2003  -17.7962   20.7208 N   0  0  0  0  0  0  0  0  0  0  0  0
    4.9014  -17.7568   22.1404 C   0  0  1  0  0  0  0  0  0  0  0  0
    4.5381  -19.1320   22.6608 C   0  0  0  0  0  0  0  0  0  0  0  0
    3.2350  -19.6074   22.1908 C   0  0  0  0  0  0  0  0  0  0  0  0
    2.0906  -19.1529   22.7965 C   0  0  0  0  0  0  0  0  0  0  0  0
    0.8263  -19.5669   22.3964 C   0  0  0  0  0  0  0  0  0  0  0  0
    0.7875  -20.4768   21.3370 C   0  0  0  0  0  0  0  0  0  0  0  0
    1.9246  -20.9409   20.7205 C   0  0  0  0  0  0  0  0  0  0  0  0
    3.1665  -20.5140   21.1371 C   0  0  0  0  0  0  0  0  0  0  0  0
    6.1184  -17.3080   22.8675 C   0  0  0  0  0  0  0  0  0  0  0  0
    7.2275  -17.5045   22.3139 O   0  0  0  0  0  0  0  0  0  0  0  0
    8.4341  -11.5898   27.7879 C   0  0  0  0  0  0  0  0  0  0  0  0
    7.1005  -12.5330   27.0071 S   0  0  0  0  0  0  0  0  0  0  0  0
    7.7936  -14.0281   26.1682 C   0  0  0  0  0  0  0  0  0  0  0  0
    6.6972  -14.7753   25.4827 C   0  0  0  0  0  0  0  0  0  0  0  0
    7.2285  -15.9821   24.7248 C   0  0  2  0  0  0  0  0  0  0  0  0
    6.0705  -16.6812   24.1335 N   0  0  0  0  0  0  0  0  0  0  0  0
    7.8074  -16.9109   25.7153 C   0  0  0  0  0  0  0  0  0  0  0  0
    7.0314  -17.4979   26.5144 O   0  0  0  0  0  0  0  0  0  0  0  0
    9.1889  -17.2061   25.8401 N   0  0  0  0  0  0  0  0  0  0  0  0
    9.5970  -18.3816   26.5834 C   0  0  0  0  0  0  0  0  0  0  0  0
   10.2514  -18.0065   27.8627 C   0  0  0  0  0  0  0  0  0  0  0  0
   10.2995  -16.8092   28.2265 O   0  0  0  0  0  0  0  0  0  0  0  0
   10.8038  -18.9917   28.6426 O   0  0  0  0  0  0  0  0  0  0  0  0
  2  1  1  6
  2 10  1  0
  3  2  1  0
  4  3  1  0
  4  9  2  0
  5  4  1  0
  6  5  2  0
  6  7  1  0
  7  8  2  0
  8  9  1  0
 10 11  2  0
 12 13  1  0
 13 14  1  0
 14 15  1  0
 16 15  1  1
 16 18  1  0
 17 10  1  0
 17 16  1  0
 18 19  2  0
 20 21  1  0
 20 18  1  0
 21 22  1  0
 22 23  2  0
 22 24  1  0
M  END
$$$$
