FMG.pdb
     RDKit          3D

 24 24  0  0  1  0  0  0  0  0999 V2000
    5.5695  -17.6825   23.2517 N   0  0  0  0  0  0  0  0  0  0  0  0
    6.4822  -16.7448   22.6241 C   0  0  1  0  0  0  0  0  0  0  0  0
    5.7280  -15.6754   21.8615 C   0  0  0  0  0  0  0  0  0  0  0  0
    6.6031  -14.7150   21.1856 C   0  0  0  0  0  0  0  0  0  0  0  0
    6.8189  -13.4830   21.7500 C   0  0  0  0  0  0  0  0  0  0  0  0
    7.6374  -12.5299   21.1571 C   0  0  0  0  0  0  0  0  0  0  0  0
    8.2306  -12.9002   19.9477 C   0  0  0  0  0  0  0  0  0  0  0  0
    8.0242  -14.1299   19.3702 C   0  0  0  0  0  0  0  0  0  0  0  0
    7.2074  -15.0572   19.9794 C   0  0  0  0  0  0  0  0  0  0  0  0
    7.2696  -16.0674   23.6882 C   0  0  0  0  0  0  0  0  0  0  0  0
    6.7297  -15.1012   24.2800 O   0  0  0  0  0  0  0  0  0  0  0  0
   10.0992  -14.2879   29.1605 C   0  0  0  0  0  0  0  0  0  0  0  0
    9.3334  -13.4173   27.7700 S   0  0  0  0  0  0  0  0  0  0  0  0
    8.4606  -14.6243   26.6743 C   0  0  0  0  0  0  0  0  0  0  0  0
    9.4371  -15.6225   26.1450 C   0  0  0  0  0  0  0  0  0  0  0  0
    9.5645  -15.5359   24.6320 C   0  0  2  0  0  0  0  0  0  0  0  0
    8.5772  -16.4654   24.0485 N   0  0  0  0  0  0  0  0  0  0  0  0
   10.8931  -16.0644   24.2656 C   0  0  0  0  0  0  0  0  0  0  0  0
   11.4948  -16.8022   25.0897 O   0  0  0  0  0  0  0  0  0  0  0  0
   11.5574  -15.8101   23.0387 N   0  0  0  0  0  0  0  0  0  0  0  0
   13.0044  -15.7296   23.0209 C   0  0  0  0  0  0  0  0  0  0  0  0
   13.6178  -17.0785   23.1210 C   0  0  0  0  0  0  0  0  0  0  0  0
   13.2513  -17.8804   24.0103 O   0  0  0  0  0  0  0  0  0  0  0  0
   14.5934  -17.4351   22.2239 O   0  0  0  0  0  0  0  0  0  0  0  0
  2  1  1  1
  2 10  1  0
  3  2  1  0
  4  3  1  0
  4  9  2  0
  5  4  1  0
  6  5  2  0
  6  7  1  0
  7  8  2  0
  8  9  1  0
 10 11  2  0
 12 13  1  0
 13 14  1  0
 14 15  1  0
 16 15  1  1
 16 18  1  0
 17 10  1  0
 17 16  1  0
 18 19  2  0
 20 21  1  0
 20 18  1  0
 21 22  1  0
 22 23  2  0
 22 24  1  0
M  END
$$$$
