FMG.pdb
     RDKit          3D

 24 24  0  0  1  0  0  0  0  0999 V2000
    8.1097  -17.3133   21.8331 N   0  0  0  0  0  0  0  0  0  0  0  0
    9.4323  -16.7342   21.6871 C   0  0  1  0  0  0  0  0  0  0  0  0
    9.5189  -15.8764   20.4419 C   0  0  0  0  0  0  0  0  0  0  0  0
    8.6255  -14.7162   20.4702 C   0  0  0  0  0  0  0  0  0  0  0  0
    7.2769  -14.8966   20.2929 C   0  0  0  0  0  0  0  0  0  0  0  0
    6.3794  -13.8363   20.3089 C   0  0  0  0  0  0  0  0  0  0  0  0
    6.9322  -12.5702   20.5169 C   0  0  0  0  0  0  0  0  0  0  0  0
    8.2804  -12.3737   20.6960 C   0  0  0  0  0  0  0  0  0  0  0  0
    9.1489  -13.4431   20.6756 C   0  0  0  0  0  0  0  0  0  0  0  0
    9.6955  -15.8555   22.8576 C   0  0  0  0  0  0  0  0  0  0  0  0
   10.8018  -15.2642   22.8989 O   0  0  0  0  0  0  0  0  0  0  0  0
    5.7009  -11.9566   26.0047 C   0  0  0  0  0  0  0  0  0  0  0  0
    7.3103  -11.8855   26.8307 S   0  0  0  0  0  0  0  0  0  0  0  0
    8.0339  -13.5831   26.9484 C   0  0  0  0  0  0  0  0  0  0  0  0
    7.8094  -14.3168   25.6672 C   0  0  0  0  0  0  0  0  0  0  0  0
    9.0924  -14.9487   25.1496 C   0  0  2  0  0  0  0  0  0  0  0  0
    8.7629  -15.6672   23.9028 N   0  0  0  0  0  0  0  0  0  0  0  0
    9.5048  -15.9802   26.1217 C   0  0  0  0  0  0  0  0  0  0  0  0
    9.8529  -15.6143   27.2752 O   0  0  0  0  0  0  0  0  0  0  0  0
    9.5369  -17.3739   25.8613 N   0  0  0  0  0  0  0  0  0  0  0  0
    9.7801  -18.2928   26.9555 C   0  0  0  0  0  0  0  0  0  0  0  0
   11.2247  -18.6171   27.0722 C   0  0  0  0  0  0  0  0  0  0  0  0
   11.6248  -19.4458   27.9216 O   0  0  0  0  0  0  0  0  0  0  0  0
   12.1170  -17.9952   26.2351 O   0  0  0  0  0  0  0  0  0  0  0  0
  2  1  1  1
  2 10  1  0
  3  2  1  0
  4  3  1  0
  4  9  2  0
  5  4  1  0
  6  5  2  0
  6  7  1  0
  7  8  2  0
  8  9  1  0
 10 11  2  0
 12 13  1  0
 13 14  1  0
 14 15  1  0
 16 15  1  1
 16 18  1  0
 17 10  1  0
 17 16  1  0
 18 19  2  0
 20 21  1  0
 20 18  1  0
 21 22  1  0
 22 23  2  0
 22 24  1  0
M  END
$$$$
