FMG.pdb
     RDKit          3D

 24 24  0  0  1  0  0  0  0  0999 V2000
    5.5876  -19.1698   24.1160 N   0  0  0  0  0  0  0  0  0  0  0  0
    6.4887  -18.4711   25.0137 C   0  0  1  0  0  0  0  0  0  0  0  0
    7.6827  -19.3324   25.3692 C   0  0  0  0  0  0  0  0  0  0  0  0
    7.7393  -19.6931   26.7875 C   0  0  0  0  0  0  0  0  0  0  0  0
    8.4903  -18.9337   27.6491 C   0  0  0  0  0  0  0  0  0  0  0  0
    8.5839  -19.2253   29.0041 C   0  0  0  0  0  0  0  0  0  0  0  0
    7.8659  -20.3415   29.4405 C   0  0  0  0  0  0  0  0  0  0  0  0
    7.1097  -21.1115   28.5900 C   0  0  0  0  0  0  0  0  0  0  0  0
    7.0340  -20.8001   27.2501 C   0  0  0  0  0  0  0  0  0  0  0  0
    6.9994  -17.2583   24.3212 C   0  0  0  0  0  0  0  0  0  0  0  0
    7.2179  -17.3459   23.0884 O   0  0  0  0  0  0  0  0  0  0  0  0
    7.3055  -11.3074   27.0201 C   0  0  0  0  0  0  0  0  0  0  0  0
    5.7391  -12.1089   26.5935 S   0  0  0  0  0  0  0  0  0  0  0  0
    6.0487  -13.5294   25.4509 C   0  0  0  0  0  0  0  0  0  0  0  0
    7.5110  -13.6404   25.1690 C   0  0  0  0  0  0  0  0  0  0  0  0
    7.8278  -14.8596   24.3169 C   0  0  2  0  0  0  0  0  0  0  0  0
    7.2424  -16.0364   24.9889 N   0  0  0  0  0  0  0  0  0  0  0  0
    9.2906  -15.0554   24.3455 C   0  0  0  0  0  0  0  0  0  0  0  0
    9.9111  -14.7966   25.4101 O   0  0  0  0  0  0  0  0  0  0  0  0
   10.0679  -15.5242   23.2559 N   0  0  0  0  0  0  0  0  0  0  0  0
   11.5128  -15.5319   23.3689 C   0  0  0  0  0  0  0  0  0  0  0  0
   12.1486  -15.9375   22.0894 C   0  0  0  0  0  0  0  0  0  0  0  0
   11.4469  -16.2329   21.0952 O   0  0  0  0  0  0  0  0  0  0  0  0
   13.5180  -15.9841   22.0112 O   0  0  0  0  0  0  0  0  0  0  0  0
  2  1  1  6
  2 10  1  0
  3  2  1  0
  4  3  1  0
  4  9  2  0
  5  4  1  0
  6  5  2  0
  6  7  1  0
  7  8  2  0
  8  9  1  0
 10 11  2  0
 12 13  1  0
 13 14  1  0
 14 15  1  0
 16 15  1  1
 16 18  1  0
 17 10  1  0
 17 16  1  0
 18 19  2  0
 20 21  1  0
 20 18  1  0
 21 22  1  0
 22 23  2  0
 22 24  1  0
M  END
$$$$
