FMG.pdb
     RDKit          3D

 24 24  0  0  1  0  0  0  0  0999 V2000
    8.0301  -17.3004   21.8145 N   0  0  0  0  0  0  0  0  0  0  0  0
    9.3225  -16.6427   21.7552 C   0  0  1  0  0  0  0  0  0  0  0  0
    9.4437  -15.7870   20.5114 C   0  0  0  0  0  0  0  0  0  0  0  0
    8.4291  -14.7342   20.4273 C   0  0  0  0  0  0  0  0  0  0  0  0
    8.8106  -13.4188   20.5123 C   0  0  0  0  0  0  0  0  0  0  0  0
    7.8956  -12.3761   20.4399 C   0  0  0  0  0  0  0  0  0  0  0  0
    6.5586  -12.7460   20.2747 C   0  0  0  0  0  0  0  0  0  0  0  0
    6.1611  -14.0586   20.1880 C   0  0  0  0  0  0  0  0  0  0  0  0
    7.0895  -15.0738   20.2628 C   0  0  0  0  0  0  0  0  0  0  0  0
    9.4502  -15.7443   22.9333 C   0  0  0  0  0  0  0  0  0  0  0  0
   10.4625  -15.0045   22.9886 O   0  0  0  0  0  0  0  0  0  0  0  0
    6.6808  -11.6449   27.4166 C   0  0  0  0  0  0  0  0  0  0  0  0
    7.2028  -11.8777   25.6988 S   0  0  0  0  0  0  0  0  0  0  0  0
    6.5785  -13.4986   25.0646 C   0  0  0  0  0  0  0  0  0  0  0  0
    7.2794  -14.6171   25.7632 C   0  0  0  0  0  0  0  0  0  0  0  0
    8.6617  -14.8655   25.1795 C   0  0  2  0  0  0  0  0  0  0  0  0
    8.4915  -15.6958   23.9708 N   0  0  0  0  0  0  0  0  0  0  0  0
    9.4108  -15.6936   26.1449 C   0  0  0  0  0  0  0  0  0  0  0  0
    9.8270  -15.1543   27.2038 O   0  0  0  0  0  0  0  0  0  0  0  0
    9.7010  -17.0717   25.9781 N   0  0  0  0  0  0  0  0  0  0  0  0
   10.5792  -17.7296   26.9251 C   0  0  0  0  0  0  0  0  0  0  0  0
    9.9228  -18.9168   27.5296 C   0  0  0  0  0  0  0  0  0  0  0  0
    8.7782  -19.2677   27.1623 O   0  0  0  0  0  0  0  0  0  0  0  0
   10.5888  -19.6256   28.4980 O   0  0  0  0  0  0  0  0  0  0  0  0
  2  1  1  1
  2 10  1  0
  3  2  1  0
  4  3  1  0
  4  9  2  0
  5  4  1  0
  6  5  2  0
  6  7  1  0
  7  8  2  0
  8  9  1  0
 10 11  2  0
 12 13  1  0
 13 14  1  0
 14 15  1  0
 16 15  1  1
 16 18  1  0
 17 10  1  0
 17 16  1  0
 18 19  2  0
 20 21  1  0
 20 18  1  0
 21 22  1  0
 22 23  2  0
 22 24  1  0
M  END
$$$$
