FMG.pdb
     RDKit          3D

 24 24  0  0  1  0  0  0  0  0999 V2000
    9.2774  -15.6485   21.0262 N   0  0  0  0  0  0  0  0  0  0  0  0
    8.9637  -15.0440   22.3078 C   0  0  1  0  0  0  0  0  0  0  0  0
    7.4815  -15.1332   22.6059 C   0  0  0  0  0  0  0  0  0  0  0  0
    7.0933  -14.4490   23.8413 C   0  0  0  0  0  0  0  0  0  0  0  0
    6.5468  -15.1719   24.8717 C   0  0  0  0  0  0  0  0  0  0  0  0
    6.1585  -14.5803   26.0671 C   0  0  0  0  0  0  0  0  0  0  0  0
    6.3578  -13.2006   26.1597 C   0  0  0  0  0  0  0  0  0  0  0  0
    6.9038  -12.4633   25.1367 C   0  0  0  0  0  0  0  0  0  0  0  0
    7.2804  -13.0752   23.9612 C   0  0  0  0  0  0  0  0  0  0  0  0
    9.6823  -15.7932   23.3724 C   0  0  0  0  0  0  0  0  0  0  0  0
   10.3904  -16.7664   23.0165 O   0  0  0  0  0  0  0  0  0  0  0  0
    9.8057  -13.0881   29.2506 C   0  0  0  0  0  0  0  0  0  0  0  0
   10.8413  -14.5183   29.6504 S   0  0  0  0  0  0  0  0  0  0  0  0
   11.2841  -15.4280   28.1027 C   0  0  0  0  0  0  0  0  0  0  0  0
   10.3256  -15.0694   27.0151 C   0  0  0  0  0  0  0  0  0  0  0  0
   10.6551  -15.7885   25.7162 C   0  0  2  0  0  0  0  0  0  0  0  0
    9.5974  -15.4547   24.7421 N   0  0  0  0  0  0  0  0  0  0  0  0
   10.5394  -17.2384   25.9678 C   0  0  0  0  0  0  0  0  0  0  0  0
   11.3769  -17.7845   26.7333 O   0  0  0  0  0  0  0  0  0  0  0  0
    9.5426  -18.0811   25.4133 N   0  0  0  0  0  0  0  0  0  0  0  0
    9.5050  -19.4788   25.7952 C   0  0  0  0  0  0  0  0  0  0  0  0
   10.6623  -20.2198   25.2318 C   0  0  0  0  0  0  0  0  0  0  0  0
   10.9269  -20.1536   24.0096 O   0  0  0  0  0  0  0  0  0  0  0  0
   11.4392  -20.9794   26.0702 O   0  0  0  0  0  0  0  0  0  0  0  0
  2  1  1  6
  2 10  1  0
  3  2  1  0
  4  3  1  0
  4  9  2  0
  5  4  1  0
  6  5  2  0
  6  7  1  0
  7  8  2  0
  8  9  1  0
 10 11  2  0
 12 13  1  0
 13 14  1  0
 14 15  1  0
 16 15  1  1
 16 18  1  0
 17 10  1  0
 17 16  1  0
 18 19  2  0
 20 21  1  0
 20 18  1  0
 21 22  1  0
 22 23  2  0
 22 24  1  0
M  END
$$$$
