FMG.pdb
     RDKit          3D

 24 24  0  0  1  0  0  0  0  0999 V2000
    8.9798  -15.9484   21.0249 N   0  0  0  0  0  0  0  0  0  0  0  0
    8.7557  -15.2298   22.2658 C   0  0  1  0  0  0  0  0  0  0  0  0
    7.2952  -15.2701   22.6646 C   0  0  0  0  0  0  0  0  0  0  0  0
    6.9922  -14.4644   23.8495 C   0  0  0  0  0  0  0  0  0  0  0  0
    6.4521  -15.0675   24.9575 C   0  0  0  0  0  0  0  0  0  0  0  0
    6.1428  -14.3572   26.1106 C   0  0  0  0  0  0  0  0  0  0  0  0
    6.4148  -12.9873   26.0765 C   0  0  0  0  0  0  0  0  0  0  0  0
    6.9554  -12.3692   24.9747 C   0  0  0  0  0  0  0  0  0  0  0  0
    7.2529  -13.0973   23.8435 C   0  0  0  0  0  0  0  0  0  0  0  0
    9.5348  -15.8942   23.3441 C   0  0  0  0  0  0  0  0  0  0  0  0
   10.2146  -16.9011   23.0291 O   0  0  0  0  0  0  0  0  0  0  0  0
    9.9091  -12.9876   29.2113 C   0  0  0  0  0  0  0  0  0  0  0  0
   10.8665  -14.4834   29.5634 S   0  0  0  0  0  0  0  0  0  0  0  0
   11.3386  -15.3164   27.9816 C   0  0  0  0  0  0  0  0  0  0  0  0
   10.2589  -15.1231   26.9681 C   0  0  0  0  0  0  0  0  0  0  0  0
   10.6261  -15.7466   25.6303 C   0  0  2  0  0  0  0  0  0  0  0  0
    9.5361  -15.4409   24.6829 N   0  0  0  0  0  0  0  0  0  0  0  0
   10.6199  -17.2123   25.8050 C   0  0  0  0  0  0  0  0  0  0  0  0
   11.7236  -17.8136   25.8796 O   0  0  0  0  0  0  0  0  0  0  0  0
    9.4533  -18.0127   25.9030 N   0  0  0  0  0  0  0  0  0  0  0  0
    9.5902  -19.4411   26.1072 C   0  0  0  0  0  0  0  0  0  0  0  0
    9.8489  -19.7561   27.5354 C   0  0  0  0  0  0  0  0  0  0  0  0
    9.0005  -19.4763   28.4130 O   0  0  0  0  0  0  0  0  0  0  0  0
   11.0323  -20.3592   27.8810 O   0  0  0  0  0  0  0  0  0  0  0  0
  2  1  1  6
  2 10  1  0
  3  2  1  0
  4  3  1  0
  4  9  2  0
  5  4  1  0
  6  5  2  0
  6  7  1  0
  7  8  2  0
  8  9  1  0
 10 11  2  0
 12 13  1  0
 13 14  1  0
 14 15  1  0
 16 15  1  1
 16 18  1  0
 17 10  1  0
 17 16  1  0
 18 19  2  0
 20 21  1  0
 20 18  1  0
 21 22  1  0
 22 23  2  0
 22 24  1  0
M  END
$$$$
