FMG.pdb
     RDKit          3D

 24 24  0  0  1  0  0  0  0  0999 V2000
    6.1052  -18.0774   25.7973 N   0  0  0  0  0  0  0  0  0  0  0  0
    6.5632  -16.7600   25.3964 C   0  0  1  0  0  0  0  0  0  0  0  0
    7.3463  -16.0921   26.5075 C   0  0  0  0  0  0  0  0  0  0  0  0
    7.2582  -14.6304   26.4853 C   0  0  0  0  0  0  0  0  0  0  0  0
    6.0258  -14.0272   26.4683 C   0  0  0  0  0  0  0  0  0  0  0  0
    5.8773  -12.6462   26.4464 C   0  0  0  0  0  0  0  0  0  0  0  0
    7.0609  -11.9038   26.4427 C   0  0  0  0  0  0  0  0  0  0  0  0
    8.3020  -12.4933   26.4596 C   0  0  0  0  0  0  0  0  0  0  0  0
    8.4211  -13.8657   26.4811 C   0  0  0  0  0  0  0  0  0  0  0  0
    7.4750  -16.9107   24.2314 C   0  0  0  0  0  0  0  0  0  0  0  0
    8.0076  -18.0336   24.0562 O   0  0  0  0  0  0  0  0  0  0  0  0
    8.1521  -11.5981   20.7037 C   0  0  0  0  0  0  0  0  0  0  0  0
    7.1183  -12.8241   19.8635 S   0  0  0  0  0  0  0  0  0  0  0  0
    7.0711  -14.3892   20.8471 C   0  0  0  0  0  0  0  0  0  0  0  0
    8.4491  -14.7391   21.3043 C   0  0  0  0  0  0  0  0  0  0  0  0
    8.4722  -16.0595   22.0587 C   0  0  2  0  0  0  0  0  0  0  0  0
    7.7567  -15.8559   23.3338 N   0  0  0  0  0  0  0  0  0  0  0  0
    9.8759  -16.3441   22.4160 C   0  0  0  0  0  0  0  0  0  0  0  0
   10.5763  -17.0153   21.6133 O   0  0  0  0  0  0  0  0  0  0  0  0
   10.5136  -15.9121   23.6067 N   0  0  0  0  0  0  0  0  0  0  0  0
   11.8809  -16.3181   23.8645 C   0  0  0  0  0  0  0  0  0  0  0  0
   12.8200  -15.6753   22.9103 C   0  0  0  0  0  0  0  0  0  0  0  0
   12.3899  -14.9504   21.9841 O   0  0  0  0  0  0  0  0  0  0  0  0
   14.1681  -15.8867   23.0574 O   0  0  0  0  0  0  0  0  0  0  0  0
  2  1  1  1
  2 10  1  0
  3  2  1  0
  4  3  1  0
  4  9  2  0
  5  4  1  0
  6  5  2  0
  6  7  1  0
  7  8  2  0
  8  9  1  0
 10 11  2  0
 12 13  1  0
 13 14  1  0
 14 15  1  0
 16 15  1  6
 16 18  1  0
 17 10  1  0
 17 16  1  0
 18 19  2  0
 20 21  1  0
 20 18  1  0
 21 22  1  0
 22 23  2  0
 22 24  1  0
M  END
$$$$
