FMG.pdb
     RDKit          3D

 24 24  0  0  1  0  0  0  0  0999 V2000
    6.4992  -17.2989   25.5878 N   0  0  0  0  0  0  0  0  0  0  0  0
    7.0716  -16.1094   24.9847 C   0  0  1  0  0  0  0  0  0  0  0  0
    7.9515  -15.3671   25.9688 C   0  0  0  0  0  0  0  0  0  0  0  0
    7.3974  -14.0779   26.3886 C   0  0  0  0  0  0  0  0  0  0  0  0
    6.3807  -13.5102   25.6628 C   0  0  0  0  0  0  0  0  0  0  0  0
    5.8146  -12.2900   26.0101 C   0  0  0  0  0  0  0  0  0  0  0  0
    6.3429  -11.6720   27.1462 C   0  0  0  0  0  0  0  0  0  0  0  0
    7.3608  -12.2280   27.8831 C   0  0  0  0  0  0  0  0  0  0  0  0
    7.9045  -13.4397   27.5166 C   0  0  0  0  0  0  0  0  0  0  0  0
    7.9267  -16.5241   23.8409 C   0  0  0  0  0  0  0  0  0  0  0  0
    8.3656  -17.6999   23.8443 O   0  0  0  0  0  0  0  0  0  0  0  0
    8.1527  -12.0474   19.3781 C   0  0  0  0  0  0  0  0  0  0  0  0
    6.9634  -13.1003   20.2469 S   0  0  0  0  0  0  0  0  0  0  0  0
    7.4671  -14.8734   20.1010 C   0  0  0  0  0  0  0  0  0  0  0  0
    8.8901  -15.0300   20.5263 C   0  0  0  0  0  0  0  0  0  0  0  0
    9.0410  -16.0947   21.6018 C   0  0  2  0  0  0  0  0  0  0  0  0
    8.2553  -15.6584   22.7730 N   0  0  0  0  0  0  0  0  0  0  0  0
   10.4530  -16.0969   22.0318 C   0  0  0  0  0  0  0  0  0  0  0  0
   10.7913  -15.3513   22.9885 O   0  0  0  0  0  0  0  0  0  0  0  0
   11.4771  -16.8868   21.4501 N   0  0  0  0  0  0  0  0  0  0  0  0
   12.2212  -17.8080   22.2857 C   0  0  0  0  0  0  0  0  0  0  0  0
   13.2005  -18.5866   21.4854 C   0  0  0  0  0  0  0  0  0  0  0  0
   12.8811  -19.6896   20.9859 O   0  0  0  0  0  0  0  0  0  0  0  0
   14.4626  -18.0800   21.3001 O   0  0  0  0  0  0  0  0  0  0  0  0
  2  1  1  1
  2 10  1  0
  3  2  1  0
  4  3  1  0
  4  9  2  0
  5  4  1  0
  6  5  2  0
  6  7  1  0
  7  8  2  0
  8  9  1  0
 10 11  2  0
 12 13  1  0
 13 14  1  0
 14 15  1  0
 16 15  1  6
 16 18  1  0
 17 10  1  0
 17 16  1  0
 18 19  2  0
 20 21  1  0
 20 18  1  0
 21 22  1  0
 22 23  2  0
 22 24  1  0
M  END
$$$$
