AQW.pdb
     RDKit          3D

 29 30  0  0  1  0  0  0  0  0999 V2000
   29.5262  -18.5388  -13.6572 C   0  0  0  0  0  0  0  0  0  0  0  0
   28.3147  -18.8389  -14.4717 C   0  0  2  0  0  0  0  0  0  0  0  0
   27.8709  -17.7530  -15.3079 N   0  0  0  0  0  0  0  0  0  0  0  0
   27.1973  -19.1900  -13.5494 C   0  0  0  0  0  0  0  0  0  0  0  0
   26.2765  -18.3394  -13.4181 O   0  0  0  0  0  0  0  0  0  0  0  0
   24.5912  -24.5040  -13.7041 N   0  0  0  0  0  0  0  0  0  0  0  0
   23.7033  -23.8445  -12.8301 C   0  0  0  0  0  0  0  0  0  0  0  0
   22.6143  -24.3692  -12.5412 O   0  0  0  0  0  0  0  0  0  0  0  0
   24.0791  -22.5380  -12.2690 C   0  0  0  0  0  0  0  0  0  0  0  0
   25.4338  -22.1644  -12.7654 C   0  0  0  0  0  0  0  0  0  0  0  0
   25.9351  -20.8463  -12.2180 C   0  0  2  0  0  0  0  0  0  0  0  0
   27.1717  -20.4365  -12.8448 N   0  0  0  0  0  0  0  0  0  0  0  0
   26.1869  -21.0624  -10.7751 C   0  0  0  0  0  0  0  0  0  0  0  0
   27.1818  -21.7474  -10.4413 O   0  0  0  0  0  0  0  0  0  0  0  0
   25.3142  -20.5012   -9.8048 N   0  0  0  0  0  0  0  0  0  0  0  0
   25.4995  -20.8669   -8.4233 C   0  0  1  0  0  0  0  0  0  0  0  0
   25.4273  -19.6631   -7.5052 C   0  0  0  0  0  0  0  0  0  0  0  0
   26.8111  -19.2038   -7.2604 C   0  0  0  0  0  0  0  0  0  0  0  0
   27.5318  -18.2565   -7.9272 C   0  0  0  0  0  0  0  0  0  0  0  0
   28.7595  -18.1294   -7.4002 N   0  0  0  0  0  0  0  0  0  0  0  0
   28.8595  -18.9923   -6.3804 C   0  0  0  0  0  0  0  0  0  0  0  0
   29.8662  -19.2982   -5.4889 C   0  0  0  0  0  0  0  0  0  0  0  0
   29.7174  -20.2556   -4.4985 C   0  0  0  0  0  0  0  0  0  0  0  0
   28.5241  -20.9354   -4.3884 C   0  0  0  0  0  0  0  0  0  0  0  0
   27.5129  -20.6320   -5.2796 C   0  0  0  0  0  0  0  0  0  0  0  0
   27.6437  -19.6813   -6.2723 C   0  0  0  0  0  0  0  0  0  0  0  0
   24.4277  -21.8483   -8.0732 C   0  0  0  0  0  0  0  0  0  0  0  0
   24.5856  -22.7163   -7.0072 O   0  0  0  0  0  0  0  0  0  0  0  0
   23.3506  -21.9313   -8.7182 O   0  0  0  0  0  0  0  0  0  0  0  0
  2  1  1  1
  2  3  1  0
  4  2  1  0
  5  4  2  0
  7  9  1  0
  7  6  1  0
  8  7  2  0
 11 10  1  6
 10  9  1  0
 11 12  1  0
 12  4  1  0
 13 14  2  0
 13 11  1  0
 15 13  1  0
 16 15  1  0
 16 17  1  1
 18 26  1  0
 18 17  1  0
 19 18  2  0
 20 19  1  0
 20 21  1  0
 21 22  1  0
 21 26  2  0
 22 23  2  0
 23 24  1  0
 25 24  2  0
 26 25  1  0
 27 28  1  0
 27 16  1  0
 29 27  2  0
M  END
$$$$
