AQW.pdb
     RDKit          3D

 29 30  0  0  1  0  0  0  0  0999 V2000
   27.9633  -19.2576  -14.9418 C   0  0  0  0  0  0  0  0  0  0  0  0
   28.4378  -20.4308  -14.1547 C   0  0  2  0  0  0  0  0  0  0  0  0
   28.8770  -21.5483  -14.9507 N   0  0  0  0  0  0  0  0  0  0  0  0
   27.3225  -20.9014  -13.2846 C   0  0  0  0  0  0  0  0  0  0  0  0
   26.4948  -21.7004  -13.7993 O   0  0  0  0  0  0  0  0  0  0  0  0
   26.2652  -19.4591   -7.2599 N   0  0  0  0  0  0  0  0  0  0  0  0
   27.3588  -20.2577   -7.6518 C   0  0  0  0  0  0  0  0  0  0  0  0
   28.2926  -20.4623   -6.8576 O   0  0  0  0  0  0  0  0  0  0  0  0
   27.3803  -20.8409   -9.0018 C   0  0  0  0  0  0  0  0  0  0  0  0
   26.1304  -20.4600   -9.7186 C   0  0  0  0  0  0  0  0  0  0  0  0
   26.0804  -20.9521  -11.1483 C   0  0  2  0  0  0  0  0  0  0  0  0
   27.1976  -20.4654  -11.9263 N   0  0  0  0  0  0  0  0  0  0  0  0
   24.8302  -20.4145  -11.7312 C   0  0  0  0  0  0  0  0  0  0  0  0
   24.7871  -19.1973  -12.0262 O   0  0  0  0  0  0  0  0  0  0  0  0
   23.7155  -21.2688  -11.9448 N   0  0  0  0  0  0  0  0  0  0  0  0
   22.6026  -20.7650  -12.7092 C   0  0  1  0  0  0  0  0  0  0  0  0
   22.6152  -21.2817  -14.1341 C   0  0  0  0  0  0  0  0  0  0  0  0
   21.4772  -20.6608  -14.8449 C   0  0  0  0  0  0  0  0  0  0  0  0
   21.2586  -19.3449  -15.1312 C   0  0  0  0  0  0  0  0  0  0  0  0
   20.1015  -19.1839  -15.7917 N   0  0  0  0  0  0  0  0  0  0  0  0
   19.5462  -20.3931  -15.9471 C   0  0  0  0  0  0  0  0  0  0  0  0
   18.3807  -20.8356  -16.5368 C   0  0  0  0  0  0  0  0  0  0  0  0
   18.0236  -22.1739  -16.5666 C   0  0  0  0  0  0  0  0  0  0  0  0
   18.8546  -23.1090  -15.9893 C   0  0  0  0  0  0  0  0  0  0  0  0
   20.0232  -22.6699  -15.3974 C   0  0  0  0  0  0  0  0  0  0  0  0
   20.3948  -21.3408  -15.3584 C   0  0  0  0  0  0  0  0  0  0  0  0
   21.3514  -21.1968  -12.0145 C   0  0  0  0  0  0  0  0  0  0  0  0
   21.2366  -22.4743  -11.4955 O   0  0  0  0  0  0  0  0  0  0  0  0
   20.3609  -20.4344  -11.8706 O   0  0  0  0  0  0  0  0  0  0  0  0
  2  1  1  6
  2  3  1  0
  4  2  1  0
  5  4  2  0
  7  9  1  0
  7  6  1  0
  8  7  2  0
 11 10  1  1
 10  9  1  0
 11 12  1  0
 12  4  1  0
 13 14  2  0
 13 11  1  0
 15 13  1  0
 16 15  1  0
 16 17  1  6
 18 26  1  0
 18 17  1  0
 19 18  2  0
 20 19  1  0
 20 21  1  0
 21 22  1  0
 21 26  2  0
 22 23  2  0
 23 24  1  0
 25 24  2  0
 26 25  1  0
 27 28  1  0
 27 16  1  0
 29 27  2  0
M  END
$$$$
