AQW.pdb
     RDKit          3D

 29 30  0  0  1  0  0  0  0  0999 V2000
   16.0733  -14.5578  -17.9747 C   0  0  0  0  0  0  0  0  0  0  0  0
   15.9608  -13.1312  -17.5586 C   0  0  2  0  0  0  0  0  0  0  0  0
   15.8693  -12.1944  -18.6492 N   0  0  0  0  0  0  0  0  0  0  0  0
   17.1629  -12.7755  -16.7519 C   0  0  0  0  0  0  0  0  0  0  0  0
   17.3741  -13.4552  -15.7118 O   0  0  0  0  0  0  0  0  0  0  0  0
   21.8167  -10.3916  -19.9521 N   0  0  0  0  0  0  0  0  0  0  0  0
   21.4576   -9.6811  -18.7887 C   0  0  0  0  0  0  0  0  0  0  0  0
   22.2128   -8.8006  -18.3427 O   0  0  0  0  0  0  0  0  0  0  0  0
   20.1881   -9.9928  -18.1148 C   0  0  0  0  0  0  0  0  0  0  0  0
   20.4112  -11.0961  -17.1381 C   0  0  0  0  0  0  0  0  0  0  0  0
   19.1879  -11.4281  -16.3124 C   0  0  2  0  0  0  0  0  0  0  0  0
   18.0374  -11.7103  -17.1411 N   0  0  0  0  0  0  0  0  0  0  0  0
   18.8976  -10.2281  -15.4954 C   0  0  0  0  0  0  0  0  0  0  0  0
   17.9612   -9.4767  -15.8545 O   0  0  0  0  0  0  0  0  0  0  0  0
   19.6696   -9.9481  -14.3362 N   0  0  0  0  0  0  0  0  0  0  0  0
   19.4112   -8.7248  -13.6198 C   0  0  1  0  0  0  0  0  0  0  0  0
   20.3873   -8.5212  -12.4782 C   0  0  0  0  0  0  0  0  0  0  0  0
   19.9694   -7.3081  -11.7436 C   0  0  0  0  0  0  0  0  0  0  0  0
   19.2442   -7.2088  -10.5922 C   0  0  0  0  0  0  0  0  0  0  0  0
   19.0706   -5.9243  -10.2444 N   0  0  0  0  0  0  0  0  0  0  0  0
   19.6802   -5.1644  -11.1639 C   0  0  0  0  0  0  0  0  0  0  0  0
   19.8313   -3.8029  -11.3240 C   0  0  0  0  0  0  0  0  0  0  0  0
   20.5256   -3.2515  -12.3886 C   0  0  0  0  0  0  0  0  0  0  0  0
   21.0916   -4.0826  -13.3304 C   0  0  0  0  0  0  0  0  0  0  0  0
   20.9426   -5.4472  -13.1738 C   0  0  0  0  0  0  0  0  0  0  0  0
   20.2544   -6.0139  -12.1196 C   0  0  0  0  0  0  0  0  0  0  0  0
   19.5212   -7.6013  -14.5996 C   0  0  0  0  0  0  0  0  0  0  0  0
   18.5977   -6.5708  -14.5993 O   0  0  0  0  0  0  0  0  0  0  0  0
   20.4410   -7.5390  -15.4558 O   0  0  0  0  0  0  0  0  0  0  0  0
  2  1  1  6
  2  3  1  0
  4  2  1  0
  5  4  2  0
  7  9  1  0
  7  6  1  0
  8  7  2  0
 11 10  1  6
 10  9  1  0
 11 12  1  0
 12  4  1  0
 13 14  2  0
 13 11  1  0
 15 13  1  0
 16 15  1  0
 16 17  1  1
 18 26  1  0
 18 17  1  0
 19 18  2  0
 20 19  1  0
 20 21  1  0
 21 22  1  0
 21 26  2  0
 22 23  2  0
 23 24  1  0
 25 24  2  0
 26 25  1  0
 27 28  1  0
 27 16  1  0
 29 27  2  0
M  END
$$$$
