AQW.pdb
     RDKit          3D

 29 30  0  0  1  0  0  0  0  0999 V2000
   21.1578  -23.7798  -15.4797 C   0  0  0  0  0  0  0  0  0  0  0  0
   21.3728  -22.6485  -14.5336 C   0  0  2  0  0  0  0  0  0  0  0  0
   21.1173  -21.3448  -15.0906 N   0  0  0  0  0  0  0  0  0  0  0  0
   22.7903  -22.6776  -14.0728 C   0  0  0  0  0  0  0  0  0  0  0  0
   23.1805  -23.7258  -13.4918 O   0  0  0  0  0  0  0  0  0  0  0  0
   27.5471  -22.2174  -16.5610 N   0  0  0  0  0  0  0  0  0  0  0  0
   28.2007  -21.7622  -15.3979 C   0  0  0  0  0  0  0  0  0  0  0  0
   29.4235  -21.9397  -15.2648 O   0  0  0  0  0  0  0  0  0  0  0  0
   27.4231  -21.0802  -14.3523 C   0  0  0  0  0  0  0  0  0  0  0  0
   25.9988  -20.9917  -14.7820 C   0  0  0  0  0  0  0  0  0  0  0  0
   25.0390  -21.6794  -13.8362 C   0  0  2  0  0  0  0  0  0  0  0  0
   23.6681  -21.5654  -14.2807 N   0  0  0  0  0  0  0  0  0  0  0  0
   25.1710  -20.9893  -12.5330 C   0  0  0  0  0  0  0  0  0  0  0  0
   24.6750  -19.8446  -12.4135 O   0  0  0  0  0  0  0  0  0  0  0  0
   25.8456  -21.6210  -11.4542 N   0  0  0  0  0  0  0  0  0  0  0  0
   26.0069  -20.8885  -10.2237 C   0  0  1  0  0  0  0  0  0  0  0  0
   26.7200  -21.7084   -9.1670 C   0  0  0  0  0  0  0  0  0  0  0  0
   26.7783  -20.8949   -7.9338 C   0  0  0  0  0  0  0  0  0  0  0  0
   25.7895  -20.1687   -7.3370 C   0  0  0  0  0  0  0  0  0  0  0  0
   26.2419  -19.5640   -6.2276 N   0  0  0  0  0  0  0  0  0  0  0  0
   27.5341  -19.8863   -6.0827 C   0  0  0  0  0  0  0  0  0  0  0  0
   28.4951  -19.5654   -5.1471 C   0  0  0  0  0  0  0  0  0  0  0  0
   29.7947  -20.0398   -5.2225 C   0  0  0  0  0  0  0  0  0  0  0  0
   30.1545  -20.8642   -6.2661 C   0  0  0  0  0  0  0  0  0  0  0  0
   29.1948  -21.1882   -7.2057 C   0  0  0  0  0  0  0  0  0  0  0  0
   27.8956  -20.7248   -7.1462 C   0  0  0  0  0  0  0  0  0  0  0  0
   26.7917  -19.6555  -10.5372 C   0  0  0  0  0  0  0  0  0  0  0  0
   26.4196  -18.4295  -10.0146 O   0  0  0  0  0  0  0  0  0  0  0  0
   27.8091  -19.6720  -11.2771 O   0  0  0  0  0  0  0  0  0  0  0  0
  2  1  1  6
  2  3  1  0
  4  2  1  0
  5  4  2  0
  7  9  1  0
  7  6  1  0
  8  7  2  0
 11 10  1  6
 10  9  1  0
 11 12  1  0
 12  4  1  0
 13 14  2  0
 13 11  1  0
 15 13  1  0
 16 15  1  0
 16 17  1  1
 18 26  1  0
 18 17  1  0
 19 18  2  0
 20 19  1  0
 20 21  1  0
 21 22  1  0
 21 26  2  0
 22 23  2  0
 23 24  1  0
 25 24  2  0
 26 25  1  0
 27 28  1  0
 27 16  1  0
 29 27  2  0
M  END
$$$$
