AQW.pdb
     RDKit          3D

 29 30  0  0  1  0  0  0  0  0999 V2000
   28.3078  -23.9501  -17.4699 C   0  0  0  0  0  0  0  0  0  0  0  0
   29.4286  -23.1075  -16.9650 C   0  0  2  0  0  0  0  0  0  0  0  0
   30.5334  -23.8485  -16.4122 N   0  0  0  0  0  0  0  0  0  0  0  0
   28.9035  -22.2083  -15.8981 C   0  0  0  0  0  0  0  0  0  0  0  0
   28.9424  -22.6421  -14.7154 O   0  0  0  0  0  0  0  0  0  0  0  0
   27.1075  -16.1874  -16.3807 N   0  0  0  0  0  0  0  0  0  0  0  0
   26.7335  -16.4831  -15.0541 C   0  0  0  0  0  0  0  0  0  0  0  0
   26.2289  -15.5991  -14.3410 O   0  0  0  0  0  0  0  0  0  0  0  0
   26.9466  -17.8403  -14.5290 C   0  0  0  0  0  0  0  0  0  0  0  0
   27.6174  -18.6678  -15.5713 C   0  0  0  0  0  0  0  0  0  0  0  0
   27.9442  -20.0710  -15.1101 C   0  0  2  0  0  0  0  0  0  0  0  0
   28.3789  -20.9112  -16.2034 N   0  0  0  0  0  0  0  0  0  0  0  0
   26.6908  -20.6304  -14.5551 C   0  0  0  0  0  0  0  0  0  0  0  0
   25.8368  -21.0822  -15.3533 O   0  0  0  0  0  0  0  0  0  0  0  0
   26.4755  -20.6479  -13.1511 N   0  0  0  0  0  0  0  0  0  0  0  0
   25.3246  -21.3507  -12.6430 C   0  0  1  0  0  0  0  0  0  0  0  0
   25.6561  -22.1559  -11.4024 C   0  0  0  0  0  0  0  0  0  0  0  0
   26.2061  -21.2220  -10.3969 C   0  0  0  0  0  0  0  0  0  0  0  0
   25.5637  -20.2521   -9.6840 C   0  0  0  0  0  0  0  0  0  0  0  0
   26.4164  -19.6120   -8.8690 N   0  0  0  0  0  0  0  0  0  0  0  0
   27.6298  -20.1544   -9.0372 C   0  0  0  0  0  0  0  0  0  0  0  0
   28.8667  -19.9091   -8.4788 C   0  0  0  0  0  0  0  0  0  0  0  0
   29.9975  -20.6282   -8.8304 C   0  0  0  0  0  0  0  0  0  0  0  0
   29.8973  -21.6290   -9.7720 C   0  0  0  0  0  0  0  0  0  0  0  0
   28.6599  -21.8780  -10.3338 C   0  0  0  0  0  0  0  0  0  0  0  0
   27.5230  -21.1716   -9.9956 C   0  0  0  0  0  0  0  0  0  0  0  0
   24.2788  -20.3291  -12.3312 C   0  0  0  0  0  0  0  0  0  0  0  0
   22.9705  -20.7088  -12.0890 O   0  0  0  0  0  0  0  0  0  0  0  0
   24.5324  -19.0980  -12.2750 O   0  0  0  0  0  0  0  0  0  0  0  0
  2  1  1  1
  2  3  1  0
  4  2  1  0
  5  4  2  0
  7  9  1  0
  7  6  1  0
  8  7  2  0
 11 10  1  6
 10  9  1  0
 11 12  1  0
 12  4  1  0
 13 14  2  0
 13 11  1  0
 15 13  1  0
 16 15  1  0
 16 17  1  1
 18 26  1  0
 18 17  1  0
 19 18  2  0
 20 19  1  0
 20 21  1  0
 21 22  1  0
 21 26  2  0
 22 23  2  0
 23 24  1  0
 25 24  2  0
 26 25  1  0
 27 28  1  0
 27 16  1  0
 29 27  2  0
M  END
$$$$
