AQW.pdb
     RDKit          3D

 29 30  0  0  1  0  0  0  0  0999 V2000
   29.1283  -19.6246  -18.2961 C   0  0  0  0  0  0  0  0  0  0  0  0
   28.7944  -20.7371  -17.3622 C   0  0  2  0  0  0  0  0  0  0  0  0
   27.8152  -21.6670  -17.8638 N   0  0  0  0  0  0  0  0  0  0  0  0
   28.2624  -20.1526  -16.0982 C   0  0  0  0  0  0  0  0  0  0  0  0
   29.0185  -19.3620  -15.4721 O   0  0  0  0  0  0  0  0  0  0  0  0
   22.6962  -18.1890  -15.2101 N   0  0  0  0  0  0  0  0  0  0  0  0
   23.7781  -17.4851  -15.7769 C   0  0  0  0  0  0  0  0  0  0  0  0
   23.5659  -16.4704  -16.4623 O   0  0  0  0  0  0  0  0  0  0  0  0
   25.1500  -17.9631  -15.5484 C   0  0  0  0  0  0  0  0  0  0  0  0
   25.1084  -19.1659  -14.6694 C   0  0  0  0  0  0  0  0  0  0  0  0
   26.4658  -19.7928  -14.4393 C   0  0  2  0  0  0  0  0  0  0  0  0
   26.9525  -20.4747  -15.6175 N   0  0  0  0  0  0  0  0  0  0  0  0
   26.2878  -20.7884  -13.3581 C   0  0  0  0  0  0  0  0  0  0  0  0
   25.7574  -21.8875  -13.6434 O   0  0  0  0  0  0  0  0  0  0  0  0
   26.7122  -20.4915  -12.0353 N   0  0  0  0  0  0  0  0  0  0  0  0
   26.3790  -21.4193  -10.9842 C   0  0  1  0  0  0  0  0  0  0  0  0
   27.4733  -21.5063   -9.9391 C   0  0  0  0  0  0  0  0  0  0  0  0
   27.0074  -20.7746   -8.7419 C   0  0  0  0  0  0  0  0  0  0  0  0
   25.7526  -20.3318   -8.4406 C   0  0  0  0  0  0  0  0  0  0  0  0
   25.7375  -19.7049   -7.2541 N   0  0  0  0  0  0  0  0  0  0  0  0
   26.9832  -19.7286   -6.7619 C   0  0  0  0  0  0  0  0  0  0  0  0
   27.5568  -19.2498   -5.6027 C   0  0  0  0  0  0  0  0  0  0  0  0
   28.9039  -19.4067   -5.3194 C   0  0  0  0  0  0  0  0  0  0  0  0
   29.7128  -20.0637   -6.2207 C   0  0  0  0  0  0  0  0  0  0  0  0
   29.1421  -20.5449   -7.3832 C   0  0  0  0  0  0  0  0  0  0  0  0
   27.8022  -20.3976   -7.6817 C   0  0  0  0  0  0  0  0  0  0  0  0
   25.1050  -20.9485  -10.3598 C   0  0  0  0  0  0  0  0  0  0  0  0
   24.2663  -21.8369   -9.7103 O   0  0  0  0  0  0  0  0  0  0  0  0
   24.7404  -19.7448  -10.3938 O   0  0  0  0  0  0  0  0  0  0  0  0
  2  1  1  6
  2  3  1  0
  4  2  1  0
  5  4  2  0
  7  9  1  0
  7  6  1  0
  8  7  2  0
 11 10  1  6
 10  9  1  0
 11 12  1  0
 12  4  1  0
 13 14  2  0
 13 11  1  0
 15 13  1  0
 16 15  1  0
 16 17  1  1
 18 26  1  0
 18 17  1  0
 19 18  2  0
 20 19  1  0
 20 21  1  0
 21 22  1  0
 21 26  2  0
 22 23  2  0
 23 24  1  0
 25 24  2  0
 26 25  1  0
 27 28  1  0
 27 16  1  0
 29 27  2  0
M  END
$$$$
