AQW.pdb
     RDKit          3D

 29 30  0  0  1  0  0  0  0  0999 V2000
   27.8016  -17.1117  -14.9674 C   0  0  0  0  0  0  0  0  0  0  0  0
   27.1812  -18.4125  -15.3471 C   0  0  2  0  0  0  0  0  0  0  0  0
   26.3024  -18.3473  -16.4867 N   0  0  0  0  0  0  0  0  0  0  0  0
   26.3894  -18.9170  -14.1891 C   0  0  0  0  0  0  0  0  0  0  0  0
   25.7572  -18.0613  -13.5135 O   0  0  0  0  0  0  0  0  0  0  0  0
   23.9721  -24.4947  -13.6165 N   0  0  0  0  0  0  0  0  0  0  0  0
   23.1890  -23.4024  -14.0418 C   0  0  0  0  0  0  0  0  0  0  0  0
   22.0991  -23.6033  -14.6042 O   0  0  0  0  0  0  0  0  0  0  0  0
   23.6744  -22.0331  -13.8132 C   0  0  0  0  0  0  0  0  0  0  0  0
   24.9063  -22.0848  -12.9759 C   0  0  0  0  0  0  0  0  0  0  0  0
   25.5342  -20.7286  -12.7414 C   0  0  2  0  0  0  0  0  0  0  0  0
   26.3492  -20.3101  -13.8597 N   0  0  0  0  0  0  0  0  0  0  0  0
   26.4038  -20.8715  -11.5517 C   0  0  0  0  0  0  0  0  0  0  0  0
   27.4130  -21.6093  -11.6382 O   0  0  0  0  0  0  0  0  0  0  0  0
   26.0894  -20.1836  -10.3492 N   0  0  0  0  0  0  0  0  0  0  0  0
   26.7571  -20.5834   -9.1363 C   0  0  1  0  0  0  0  0  0  0  0  0
   27.4781  -19.4233   -8.4791 C   0  0  0  0  0  0  0  0  0  0  0  0
   28.2295  -19.9602   -7.3246 C   0  0  0  0  0  0  0  0  0  0  0  0
   28.9520  -21.1138   -7.2320 C   0  0  0  0  0  0  0  0  0  0  0  0
   29.4858  -21.2481   -6.0080 N   0  0  0  0  0  0  0  0  0  0  0  0
   29.1199  -20.1835   -5.2819 C   0  0  0  0  0  0  0  0  0  0  0  0
   29.3655  -19.7879   -3.9838 C   0  0  0  0  0  0  0  0  0  0  0  0
   28.8593  -18.6110   -3.4563 C   0  0  0  0  0  0  0  0  0  0  0  0
   28.0797  -17.7954   -4.2469 C   0  0  0  0  0  0  0  0  0  0  0  0
   27.8312  -18.1880   -5.5480 C   0  0  0  0  0  0  0  0  0  0  0  0
   28.3272  -19.3569   -6.0900 C   0  0  0  0  0  0  0  0  0  0  0  0
   25.7173  -21.1341   -8.2144 C   0  0  0  0  0  0  0  0  0  0  0  0
   24.4128  -20.6758   -8.2668 O   0  0  0  0  0  0  0  0  0  0  0  0
   25.9727  -22.0240   -7.3625 O   0  0  0  0  0  0  0  0  0  0  0  0
  2  1  1  1
  2  3  1  0
  4  2  1  0
  5  4  2  0
  7  9  1  0
  7  6  1  0
  8  7  2  0
 11 10  1  6
 10  9  1  0
 11 12  1  0
 12  4  1  0
 13 14  2  0
 13 11  1  0
 15 13  1  0
 16 15  1  0
 16 17  1  1
 18 26  1  0
 18 17  1  0
 19 18  2  0
 20 19  1  0
 20 21  1  0
 21 22  1  0
 21 26  2  0
 22 23  2  0
 23 24  1  0
 25 24  2  0
 26 25  1  0
 27 28  1  0
 27 16  1  0
 29 27  2  0
M  END
$$$$
