AQW.pdb
     RDKit          3D

 29 30  0  0  1  0  0  0  0  0999 V2000
   21.1180  -28.2776  -15.1984 C   0  0  0  0  0  0  0  0  0  0  0  0
   20.7510  -27.1582  -14.2855 C   0  0  2  0  0  0  0  0  0  0  0  0
   19.4358  -26.6128  -14.5048 N   0  0  0  0  0  0  0  0  0  0  0  0
   21.7376  -26.0553  -14.4658 C   0  0  0  0  0  0  0  0  0  0  0  0
   22.9149  -26.3865  -14.7705 O   0  0  0  0  0  0  0  0  0  0  0  0
   22.4497  -21.3290  -17.9469 N   0  0  0  0  0  0  0  0  0  0  0  0
   22.6179  -22.7109  -18.1691 C   0  0  0  0  0  0  0  0  0  0  0  0
   22.9983  -23.1179  -19.2801 O   0  0  0  0  0  0  0  0  0  0  0  0
   22.3397  -23.6571  -17.0781 C   0  0  0  0  0  0  0  0  0  0  0  0
   22.0488  -22.8939  -15.8316 C   0  0  0  0  0  0  0  0  0  0  0  0
   22.3558  -23.6642  -14.5664 C   0  0  2  0  0  0  0  0  0  0  0  0
   21.3647  -24.6826  -14.3002 N   0  0  0  0  0  0  0  0  0  0  0  0
   22.3285  -22.6795  -13.4612 C   0  0  0  0  0  0  0  0  0  0  0  0
   21.3324  -22.6667  -12.7008 O   0  0  0  0  0  0  0  0  0  0  0  0
   23.4113  -21.7780  -13.2795 N   0  0  0  0  0  0  0  0  0  0  0  0
   23.3016  -20.7733  -12.2523 C   0  0  1  0  0  0  0  0  0  0  0  0
   24.5706  -19.9543  -12.1247 C   0  0  0  0  0  0  0  0  0  0  0  0
   25.5639  -20.7782  -11.4035 C   0  0  0  0  0  0  0  0  0  0  0  0
   26.3092  -21.8238  -11.8647 C   0  0  0  0  0  0  0  0  0  0  0  0
   27.0982  -22.3140  -10.8960 N   0  0  0  0  0  0  0  0  0  0  0  0
   26.8801  -21.5956   -9.7865 C   0  0  0  0  0  0  0  0  0  0  0  0
   27.3947  -21.6411   -8.5078 C   0  0  0  0  0  0  0  0  0  0  0  0
   26.9947  -20.7633   -7.5133 C   0  0  0  0  0  0  0  0  0  0  0  0
   26.0480  -19.8038   -7.7983 C   0  0  0  0  0  0  0  0  0  0  0  0
   25.5299  -19.7548   -9.0781 C   0  0  0  0  0  0  0  0  0  0  0  0
   25.9167  -20.6211  -10.0812 C   0  0  0  0  0  0  0  0  0  0  0  0
   22.1508  -19.8898  -12.6124 C   0  0  0  0  0  0  0  0  0  0  0  0
   21.4112  -19.2573  -11.6288 O   0  0  0  0  0  0  0  0  0  0  0  0
   21.8054  -19.6823  -13.8043 O   0  0  0  0  0  0  0  0  0  0  0  0
  2  1  1  6
  2  3  1  0
  4  2  1  0
  5  4  2  0
  7  9  1  0
  7  6  1  0
  8  7  2  0
 11 10  1  6
 10  9  1  0
 11 12  1  0
 12  4  1  0
 13 14  2  0
 13 11  1  0
 15 13  1  0
 16 15  1  0
 16 17  1  6
 18 26  1  0
 18 17  1  0
 19 18  2  0
 20 19  1  0
 20 21  1  0
 21 22  1  0
 21 26  2  0
 22 23  2  0
 23 24  1  0
 25 24  2  0
 26 25  1  0
 27 28  1  0
 27 16  1  0
 29 27  2  0
M  END
$$$$
