AQW.pdb
     RDKit          3D

 29 30  0  0  1  0  0  0  0  0999 V2000
   20.4979  -18.3738  -11.7581 C   0  0  0  0  0  0  0  0  0  0  0  0
   20.3972  -19.6465  -12.5271 C   0  0  2  0  0  0  0  0  0  0  0  0
   19.2265  -20.4329  -12.2334 N   0  0  0  0  0  0  0  0  0  0  0  0
   21.5948  -20.4808  -12.2235 C   0  0  0  0  0  0  0  0  0  0  0  0
   21.5218  -21.2410  -11.2209 O   0  0  0  0  0  0  0  0  0  0  0  0
   28.0035  -21.9652  -14.8879 N   0  0  0  0  0  0  0  0  0  0  0  0
   26.7476  -22.5986  -14.7942 C   0  0  0  0  0  0  0  0  0  0  0  0
   26.3338  -23.2960  -15.7360 O   0  0  0  0  0  0  0  0  0  0  0  0
   25.9399  -22.4249  -13.5775 C   0  0  0  0  0  0  0  0  0  0  0  0
   24.7398  -21.6026  -13.9009 C   0  0  0  0  0  0  0  0  0  0  0  0
   23.8854  -21.2809  -12.6946 C   0  0  2  0  0  0  0  0  0  0  0  0
   22.7739  -20.4210  -13.0340 N   0  0  0  0  0  0  0  0  0  0  0  0
   24.7624  -20.5638  -11.7414 C   0  0  0  0  0  0  0  0  0  0  0  0
   25.0681  -19.3749  -11.9937 O   0  0  0  0  0  0  0  0  0  0  0  0
   25.2379  -21.2197  -10.5745 N   0  0  0  0  0  0  0  0  0  0  0  0
   26.1775  -20.5240   -9.7320 C   0  0  1  0  0  0  0  0  0  0  0  0
   26.1098  -21.0016   -8.2951 C   0  0  0  0  0  0  0  0  0  0  0  0
   26.8998  -20.0601   -7.4733 C   0  0  0  0  0  0  0  0  0  0  0  0
   27.0752  -18.7169   -7.6363 C   0  0  0  0  0  0  0  0  0  0  0  0
   27.8706  -18.2176   -6.6776 N   0  0  0  0  0  0  0  0  0  0  0  0
   28.2271  -19.2278   -5.8731 C   0  0  0  0  0  0  0  0  0  0  0  0
   29.0163  -19.3121   -4.7453 C   0  0  0  0  0  0  0  0  0  0  0  0
   29.2345  -20.5063   -4.0776 C   0  0  0  0  0  0  0  0  0  0  0  0
   28.6472  -21.6609   -4.5468 C   0  0  0  0  0  0  0  0  0  0  0  0
   27.8559  -21.5808   -5.6764 C   0  0  0  0  0  0  0  0  0  0  0  0
   27.6276  -20.3999   -6.3542 C   0  0  0  0  0  0  0  0  0  0  0  0
   27.5425  -20.7638  -10.2920 C   0  0  0  0  0  0  0  0  0  0  0  0
   28.4373  -19.7193  -10.4434 O   0  0  0  0  0  0  0  0  0  0  0  0
   27.9367  -21.9050  -10.6461 O   0  0  0  0  0  0  0  0  0  0  0  0
  2  1  1  1
  2  3  1  0
  4  2  1  0
  5  4  2  0
  7  9  1  0
  7  6  1  0
  8  7  2  0
 11 10  1  6
 10  9  1  0
 11 12  1  0
 12  4  1  0
 13 14  2  0
 13 11  1  0
 15 13  1  0
 16 15  1  0
 16 17  1  1
 18 26  1  0
 18 17  1  0
 19 18  2  0
 20 19  1  0
 20 21  1  0
 21 22  1  0
 21 26  2  0
 22 23  2  0
 23 24  1  0
 25 24  2  0
 26 25  1  0
 27 28  1  0
 27 16  1  0
 29 27  2  0
M  END
$$$$
