AQW.pdb
     RDKit          3D

 29 30  0  0  1  0  0  0  0  0999 V2000
   28.2696  -24.0980  -17.4484 C   0  0  0  0  0  0  0  0  0  0  0  0
   29.0094  -22.8077  -17.5436 C   0  0  2  0  0  0  0  0  0  0  0  0
   30.4422  -22.9420  -17.6091 N   0  0  0  0  0  0  0  0  0  0  0  0
   28.6831  -21.9836  -16.3449 C   0  0  0  0  0  0  0  0  0  0  0  0
   29.1735  -22.3560  -15.2452 O   0  0  0  0  0  0  0  0  0  0  0  0
   26.4034  -16.1581  -16.2524 N   0  0  0  0  0  0  0  0  0  0  0  0
   26.4712  -16.4346  -14.8718 C   0  0  0  0  0  0  0  0  0  0  0  0
   26.1884  -15.5482  -14.0478 O   0  0  0  0  0  0  0  0  0  0  0  0
   26.8776  -17.7748  -14.4226 C   0  0  0  0  0  0  0  0  0  0  0  0
   27.2652  -18.5908  -15.6080 C   0  0  0  0  0  0  0  0  0  0  0  0
   27.6763  -20.0043  -15.2596 C   0  0  2  0  0  0  0  0  0  0  0  0
   27.8505  -20.8223  -16.4389 N   0  0  0  0  0  0  0  0  0  0  0  0
   26.5739  -20.5721  -14.4506 C   0  0  0  0  0  0  0  0  0  0  0  0
   25.5481  -20.9778  -15.0453 O   0  0  0  0  0  0  0  0  0  0  0  0
   26.6901  -20.6486  -13.0369 N   0  0  0  0  0  0  0  0  0  0  0  0
   25.7529  -21.4723  -12.3158 C   0  0  1  0  0  0  0  0  0  0  0  0
   26.3843  -22.1108  -11.0947 C   0  0  0  0  0  0  0  0  0  0  0  0
   26.3986  -21.0981  -10.0176 C   0  0  0  0  0  0  0  0  0  0  0  0
   25.4576  -20.1596   -9.7091 C   0  0  0  0  0  0  0  0  0  0  0  0
   25.8439  -19.4214   -8.6570 N   0  0  0  0  0  0  0  0  0  0  0  0
   27.0440  -19.8668   -8.2619 C   0  0  0  0  0  0  0  0  0  0  0  0
   27.9098  -19.4992   -7.2534 C   0  0  0  0  0  0  0  0  0  0  0  0
   29.1237  -20.1343   -7.0468 C   0  0  0  0  0  0  0  0  0  0  0  0
   29.4926  -21.1738   -7.8723 C   0  0  0  0  0  0  0  0  0  0  0  0
   28.6281  -21.5452   -8.8839 C   0  0  0  0  0  0  0  0  0  0  0  0
   27.4150  -20.9238   -9.1043 C   0  0  0  0  0  0  0  0  0  0  0  0
   24.6106  -20.5982  -11.9090 C   0  0  0  0  0  0  0  0  0  0  0  0
   23.3736  -21.1439  -11.6148 O   0  0  0  0  0  0  0  0  0  0  0  0
   24.7162  -19.3479  -11.8161 O   0  0  0  0  0  0  0  0  0  0  0  0
  2  1  1  1
  2  3  1  0
  4  2  1  0
  5  4  2  0
  7  9  1  0
  7  6  1  0
  8  7  2  0
 11 10  1  6
 10  9  1  0
 11 12  1  0
 12  4  1  0
 13 14  2  0
 13 11  1  0
 15 13  1  0
 16 15  1  0
 16 17  1  1
 18 26  1  0
 18 17  1  0
 19 18  2  0
 20 19  1  0
 20 21  1  0
 21 22  1  0
 21 26  2  0
 22 23  2  0
 23 24  1  0
 25 24  2  0
 26 25  1  0
 27 28  1  0
 27 16  1  0
 29 27  2  0
M  END
$$$$
