AQW.pdb
     RDKit          3D

 29 30  0  0  1  0  0  0  0  0999 V2000
   19.2615  -16.3857  -19.5723 C   0  0  0  0  0  0  0  0  0  0  0  0
   19.5716  -15.6537  -18.3117 C   0  0  2  0  0  0  0  0  0  0  0  0
   18.6784  -15.9388  -17.2180 N   0  0  0  0  0  0  0  0  0  0  0  0
   19.5057  -14.1895  -18.5842 C   0  0  0  0  0  0  0  0  0  0  0  0
   20.3244  -13.7275  -19.4237 O   0  0  0  0  0  0  0  0  0  0  0  0
   14.8152  -10.6569  -19.5665 N   0  0  0  0  0  0  0  0  0  0  0  0
   15.7909   -9.6465  -19.4469 C   0  0  0  0  0  0  0  0  0  0  0  0
   15.5053   -8.4721  -19.7363 O   0  0  0  0  0  0  0  0  0  0  0  0
   17.1404   -9.9972  -18.9791 C   0  0  0  0  0  0  0  0  0  0  0  0
   17.1908  -11.4568  -18.6825 C   0  0  0  0  0  0  0  0  0  0  0  0
   18.5543  -11.9352  -18.2346 C   0  0  2  0  0  0  0  0  0  0  0  0
   18.5556  -13.3468  -17.9224 N   0  0  0  0  0  0  0  0  0  0  0  0
   18.8779  -11.1796  -17.0033 C   0  0  0  0  0  0  0  0  0  0  0  0
   18.1540  -11.3489  -15.9944 O   0  0  0  0  0  0  0  0  0  0  0  0
   19.9841  -10.2887  -16.9807 N   0  0  0  0  0  0  0  0  0  0  0  0
   20.1989   -9.4926  -15.7988 C   0  0  1  0  0  0  0  0  0  0  0  0
   21.6631   -9.1518  -15.6051 C   0  0  0  0  0  0  0  0  0  0  0  0
   21.7538   -8.1881  -14.4876 C   0  0  0  0  0  0  0  0  0  0  0  0
   21.7335   -8.4267  -13.1445 C   0  0  0  0  0  0  0  0  0  0  0  0
   21.8375   -7.2814  -12.4526 N   0  0  0  0  0  0  0  0  0  0  0  0
   21.9274   -6.2765  -13.3340 C   0  0  0  0  0  0  0  0  0  0  0  0
   22.0512   -4.9089  -13.2073 C   0  0  0  0  0  0  0  0  0  0  0  0
   22.1268   -4.0641  -14.3028 C   0  0  0  0  0  0  0  0  0  0  0  0
   22.0775   -4.5966  -15.5725 C   0  0  0  0  0  0  0  0  0  0  0  0
   21.9535   -5.9663  -15.7039 C   0  0  0  0  0  0  0  0  0  0  0  0
   21.8768   -6.8228  -14.6238 C   0  0  0  0  0  0  0  0  0  0  0  0
   19.3934   -8.2425  -15.9496 C   0  0  0  0  0  0  0  0  0  0  0  0
   19.3131   -7.5969  -17.1708 O   0  0  0  0  0  0  0  0  0  0  0  0
   18.7613   -7.7264  -14.9919 O   0  0  0  0  0  0  0  0  0  0  0  0
  2  1  1  6
  2  3  1  0
  4  2  1  0
  5  4  2  0
  7  9  1  0
  7  6  1  0
  8  7  2  0
 11 10  1  1
 10  9  1  0
 11 12  1  0
 12  4  1  0
 13 14  2  0
 13 11  1  0
 15 13  1  0
 16 15  1  0
 16 17  1  6
 18 26  1  0
 18 17  1  0
 19 18  2  0
 20 19  1  0
 20 21  1  0
 21 22  1  0
 21 26  2  0
 22 23  2  0
 23 24  1  0
 25 24  2  0
 26 25  1  0
 27 28  1  0
 27 16  1  0
 29 27  2  0
M  END
$$$$
