AQW.pdb
     RDKit          3D

 29 30  0  0  1  0  0  0  0  0999 V2000
   29.1756  -18.6503  -14.8364 C   0  0  0  0  0  0  0  0  0  0  0  0
   28.6651  -19.1828  -16.1314 C   0  0  2  0  0  0  0  0  0  0  0  0
   28.4013  -18.1786  -17.1300 N   0  0  0  0  0  0  0  0  0  0  0  0
   27.3926  -19.9159  -15.8749 C   0  0  0  0  0  0  0  0  0  0  0  0
   26.3353  -19.2307  -15.8432 O   0  0  0  0  0  0  0  0  0  0  0  0
   26.0452  -25.9769  -16.4389 N   0  0  0  0  0  0  0  0  0  0  0  0
   24.8534  -25.4870  -15.8670 C   0  0  0  0  0  0  0  0  0  0  0  0
   23.8856  -26.2493  -15.7039 O   0  0  0  0  0  0  0  0  0  0  0  0
   24.7709  -24.0735  -15.4693 C   0  0  0  0  0  0  0  0  0  0  0  0
   26.0969  -23.4276  -15.6827 C   0  0  0  0  0  0  0  0  0  0  0  0
   26.1193  -21.9597  -15.3175 C   0  0  2  0  0  0  0  0  0  0  0  0
   27.3728  -21.3336  -15.6736 N   0  0  0  0  0  0  0  0  0  0  0  0
   25.9599  -21.8931  -13.8471 C   0  0  0  0  0  0  0  0  0  0  0  0
   26.6763  -22.6369  -13.1372 O   0  0  0  0  0  0  0  0  0  0  0  0
   25.0147  -21.0036  -13.2696 N   0  0  0  0  0  0  0  0  0  0  0  0
   24.8558  -21.0079  -11.8373 C   0  0  1  0  0  0  0  0  0  0  0  0
   25.5232  -19.8104  -11.1909 C   0  0  0  0  0  0  0  0  0  0  0  0
   26.8222  -20.2616  -10.6479 C   0  0  0  0  0  0  0  0  0  0  0  0
   27.8466  -20.8958  -11.2881 C   0  0  0  0  0  0  0  0  0  0  0  0
   28.8604  -21.1417  -10.4437 N   0  0  0  0  0  0  0  0  0  0  0  0
   28.5134  -20.6715   -9.2383 C   0  0  0  0  0  0  0  0  0  0  0  0
   29.1431  -20.6424   -8.0117 C   0  0  0  0  0  0  0  0  0  0  0  0
   28.5570  -20.0834   -6.8876 C   0  0  0  0  0  0  0  0  0  0  0  0
   27.2980  -19.5322   -6.9842 C   0  0  0  0  0  0  0  0  0  0  0  0
   26.6637  -19.5592   -8.2113 C   0  0  0  0  0  0  0  0  0  0  0  0
   27.2325  -20.1119   -9.3414 C   0  0  0  0  0  0  0  0  0  0  0  0
   23.3888  -20.9986  -11.5505 C   0  0  0  0  0  0  0  0  0  0  0  0
   22.4672  -21.0594  -12.5808 O   0  0  0  0  0  0  0  0  0  0  0  0
   22.9294  -20.9362  -10.3808 O   0  0  0  0  0  0  0  0  0  0  0  0
  2  1  1  1
  2  3  1  0
  4  2  1  0
  5  4  2  0
  7  9  1  0
  7  6  1  0
  8  7  2  0
 11 10  1  1
 10  9  1  0
 11 12  1  0
 12  4  1  0
 13 14  2  0
 13 11  1  0
 15 13  1  0
 16 15  1  0
 16 17  1  1
 18 26  1  0
 18 17  1  0
 19 18  2  0
 20 19  1  0
 20 21  1  0
 21 22  1  0
 21 26  2  0
 22 23  2  0
 23 24  1  0
 25 24  2  0
 26 25  1  0
 27 28  1  0
 27 16  1  0
 29 27  2  0
M  END
$$$$
