AQW.pdb
     RDKit          3D

 29 30  0  0  1  0  0  0  0  0999 V2000
   29.8466  -23.2798  -16.6197 C   0  0  0  0  0  0  0  0  0  0  0  0
   28.6670  -22.4343  -16.9586 C   0  0  2  0  0  0  0  0  0  0  0  0
   28.8753  -21.5286  -18.0593 N   0  0  0  0  0  0  0  0  0  0  0  0
   28.3055  -21.6219  -15.7620 C   0  0  0  0  0  0  0  0  0  0  0  0
   29.2156  -20.9095  -15.2593 O   0  0  0  0  0  0  0  0  0  0  0  0
   23.4441  -19.9735  -16.3160 N   0  0  0  0  0  0  0  0  0  0  0  0
   24.4276  -18.9784  -16.4880 C   0  0  0  0  0  0  0  0  0  0  0  0
   24.3436  -18.1821  -17.4384 O   0  0  0  0  0  0  0  0  0  0  0  0
   25.5455  -18.8953  -15.5359 C   0  0  0  0  0  0  0  0  0  0  0  0
   25.3762  -19.9443  -14.4908 C   0  0  0  0  0  0  0  0  0  0  0  0
   26.6516  -20.6947  -14.1765 C   0  0  2  0  0  0  0  0  0  0  0  0
   26.9847  -21.6499  -15.2093 N   0  0  0  0  0  0  0  0  0  0  0  0
   26.4028  -21.4306  -12.9161 C   0  0  0  0  0  0  0  0  0  0  0  0
   26.2954  -22.6782  -12.9675 O   0  0  0  0  0  0  0  0  0  0  0  0
   26.2911  -20.7271  -11.6871 N   0  0  0  0  0  0  0  0  0  0  0  0
   26.0998  -21.4867  -10.4775 C   0  0  1  0  0  0  0  0  0  0  0  0
   27.3621  -21.5440   -9.6404 C   0  0  0  0  0  0  0  0  0  0  0  0
   27.2465  -20.5141   -8.5860 C   0  0  0  0  0  0  0  0  0  0  0  0
   26.3312  -19.5098   -8.4636 C   0  0  0  0  0  0  0  0  0  0  0  0
   26.5661  -18.7787   -7.3629 N   0  0  0  0  0  0  0  0  0  0  0  0
   27.6391  -19.2948   -6.7490 C   0  0  0  0  0  0  0  0  0  0  0  0
   28.3269  -18.9660   -5.5998 C   0  0  0  0  0  0  0  0  0  0  0  0
   29.4354  -19.6758   -5.1674 C   0  0  0  0  0  0  0  0  0  0  0  0
   29.8785  -20.7530   -5.9033 C   0  0  0  0  0  0  0  0  0  0  0  0
   29.1923  -21.0857   -7.0554 C   0  0  0  0  0  0  0  0  0  0  0  0
   28.0862  -20.3899   -7.5010 C   0  0  0  0  0  0  0  0  0  0  0  0
   24.9989  -20.8311   -9.7076 C   0  0  0  0  0  0  0  0  0  0  0  0
   24.3169  -21.5232   -8.7224 O   0  0  0  0  0  0  0  0  0  0  0  0
   24.6458  -19.6413   -9.9137 O   0  0  0  0  0  0  0  0  0  0  0  0
  2  1  1  1
  2  3  1  0
  4  2  1  0
  5  4  2  0
  7  9  1  0
  7  6  1  0
  8  7  2  0
 11 10  1  6
 10  9  1  0
 11 12  1  0
 12  4  1  0
 13 14  2  0
 13 11  1  0
 15 13  1  0
 16 15  1  0
 16 17  1  1
 18 26  1  0
 18 17  1  0
 19 18  2  0
 20 19  1  0
 20 21  1  0
 21 22  1  0
 21 26  2  0
 22 23  2  0
 23 24  1  0
 25 24  2  0
 26 25  1  0
 27 28  1  0
 27 16  1  0
 29 27  2  0
M  END
$$$$
