QEV.pdb
     RDKit          3D

 26 25  0  0  1  0  0  0  0  0999 V2000
   16.4081  -13.2496  -15.2071 N   0  0  0  0  0  0  0  0  0  0  0  0
   16.6526  -13.2159  -16.5928 C   0  0  0  0  0  0  0  0  0  0  0  0
   16.4837  -14.2425  -17.2769 O   0  0  0  0  0  0  0  0  0  0  0  0
   17.1072  -11.9653  -17.2261 C   0  0  0  0  0  0  0  0  0  0  0  0
   17.1305  -10.8496  -16.2315 C   0  0  0  0  0  0  0  0  0  0  0  0
   18.4657  -10.2465  -15.9805 C   0  0  2  0  0  0  0  0  0  0  0  0
   19.3227  -11.2019  -15.3000 N   0  0  0  0  0  0  0  0  0  0  0  0
   18.4652   -8.9936  -15.2215 C   0  0  0  0  0  0  0  0  0  0  0  0
   18.1624   -8.9931  -14.0081 O   0  0  0  0  0  0  0  0  0  0  0  0
   18.7967   -7.7355  -15.7866 N   0  0  0  0  0  0  0  0  0  0  0  0
   18.9315   -6.5037  -14.9796 C   0  0  1  0  0  0  0  0  0  0  0  0
   20.4012   -6.3745  -14.6620 C   0  0  0  0  0  0  0  0  0  0  0  0
   20.7094   -5.1717  -13.8394 C   0  0  0  0  0  0  0  0  0  0  0  0
   22.1405   -4.9160  -13.5996 C   0  0  0  0  0  0  0  0  0  0  0  0
   22.8185   -5.4071  -12.6722 O   0  0  0  0  0  0  0  0  0  0  0  0
   18.3587   -5.3564  -15.6901 C   0  0  0  0  0  0  0  0  0  0  0  0
   18.7700   -4.9289  -16.7921 O   0  0  0  0  0  0  0  0  0  0  0  0
   22.8517   -4.0533  -14.4583 O   0  0  0  0  0  0  0  0  0  0  0  0
   14.5992   -4.8373  -16.0194 C   0  0  0  0  0  0  0  0  0  0  0  0
   15.1504   -3.4732  -15.6698 C   0  0  1  0  0  0  0  0  0  0  0  0
   14.8186   -3.2122  -14.2035 C   0  0  0  0  0  0  0  0  0  0  0  0
   16.6522   -3.5229  -15.8513 C   0  0  2  0  0  0  0  0  0  0  0  0
   17.2427   -4.6294  -15.1316 N   0  0  0  0  0  0  0  0  0  0  0  0
   17.2367   -2.2566  -15.3516 C   0  0  0  0  0  0  0  0  0  0  0  0
   18.0076   -2.2653  -14.2078 O   0  0  0  0  0  0  0  0  0  0  0  0
   17.0574   -1.1518  -15.9362 O   0  0  0  0  0  0  0  0  0  0  0  0
  2  4  1  0
  2  1  1  0
  3  2  2  0
  5  4  1  0
  6  5  1  0
  6  8  1  0
  6  7  1  1
  8 10  1  0
  9  8  2  0
 10 11  1  0
 11 12  1  6
 11 16  1  0
 12 13  1  0
 13 14  1  0
 14 18  1  0
 14 15  2  0
 16 17  2  0
 20 19  1  1
 20 22  1  0
 21 20  1  0
 22 24  1  0
 22 23  1  1
 23 16  1  0
 24 25  1  0
 26 24  2  0
M  END
$$$$
