QEV.pdb
     RDKit          3D

 26 25  0  0  1  0  0  0  0  0999 V2000
   24.4279  -17.2494  -18.6925 N   0  0  0  0  0  0  0  0  0  0  0  0
   23.2132  -17.9595  -18.6567 C   0  0  0  0  0  0  0  0  0  0  0  0
   22.7552  -18.4571  -19.7022 O   0  0  0  0  0  0  0  0  0  0  0  0
   22.4902  -18.1100  -17.3813 C   0  0  0  0  0  0  0  0  0  0  0  0
   23.2366  -17.4431  -16.2710 C   0  0  0  0  0  0  0  0  0  0  0  0
   22.4581  -16.4501  -15.4853 C   0  0  2  0  0  0  0  0  0  0  0  0
   21.0493  -16.8041  -15.4934 N   0  0  0  0  0  0  0  0  0  0  0  0
   22.5933  -15.0550  -15.9112 C   0  0  0  0  0  0  0  0  0  0  0  0
   23.7267  -14.5387  -16.0241 O   0  0  0  0  0  0  0  0  0  0  0  0
   21.4889  -14.2188  -16.2163 N   0  0  0  0  0  0  0  0  0  0  0  0
   21.6434  -12.8344  -16.7125 C   0  0  1  0  0  0  0  0  0  0  0  0
   20.3099  -12.4562  -17.3094 C   0  0  0  0  0  0  0  0  0  0  0  0
   20.3091  -11.0881  -17.8980 C   0  0  0  0  0  0  0  0  0  0  0  0
   19.0536  -10.6785  -18.5515 C   0  0  0  0  0  0  0  0  0  0  0  0
   18.0039  -11.3549  -18.5916 O   0  0  0  0  0  0  0  0  0  0  0  0
   22.1027  -11.9495  -15.6378 C   0  0  0  0  0  0  0  0  0  0  0  0
   21.6858  -11.9926  -14.4585 O   0  0  0  0  0  0  0  0  0  0  0  0
   18.9764   -9.4293  -19.2001 O   0  0  0  0  0  0  0  0  0  0  0  0
   25.6085  -11.3761  -14.5694 C   0  0  0  0  0  0  0  0  0  0  0  0
   25.0701   -9.9808  -14.7932 C   0  0  1  0  0  0  0  0  0  0  0  0
   25.5921   -9.5048  -16.1457 C   0  0  0  0  0  0  0  0  0  0  0  0
   23.5597  -10.0708  -14.8331 C   0  0  2  0  0  0  0  0  0  0  0  0
   23.1025  -10.9394  -15.8949 N   0  0  0  0  0  0  0  0  0  0  0  0
   23.0051   -8.7141  -15.0483 C   0  0  0  0  0  0  0  0  0  0  0  0
   23.0246   -7.7973  -14.0178 O   0  0  0  0  0  0  0  0  0  0  0  0
   22.5073   -8.3540  -16.1515 O   0  0  0  0  0  0  0  0  0  0  0  0
  2  4  1  0
  2  1  1  0
  3  2  2  0
  5  4  1  0
  6  5  1  0
  6  8  1  0
  6  7  1  6
  8 10  1  0
  9  8  2  0
 10 11  1  0
 11 12  1  1
 11 16  1  0
 12 13  1  0
 13 14  1  0
 14 18  1  0
 14 15  2  0
 16 17  2  0
 20 19  1  6
 20 22  1  0
 21 20  1  0
 22 24  1  0
 22 23  1  6
 23 16  1  0
 24 25  1  0
 26 24  2  0
M  END
$$$$
