QEV.pdb
     RDKit          3D

 26 25  0  0  1  0  0  0  0  0999 V2000
   19.5208  -21.1758  -11.6274 N   0  0  0  0  0  0  0  0  0  0  0  0
   19.0033  -21.0450  -12.9298 C   0  0  0  0  0  0  0  0  0  0  0  0
   17.8350  -21.4018  -13.1711 O   0  0  0  0  0  0  0  0  0  0  0  0
   19.8476  -20.4861  -14.0006 C   0  0  0  0  0  0  0  0  0  0  0  0
   21.1463  -19.9962  -13.4457 C   0  0  0  0  0  0  0  0  0  0  0  0
   22.3653  -20.5488  -14.0923 C   0  0  2  0  0  0  0  0  0  0  0  0
   22.0070  -21.6498  -14.9695 N   0  0  0  0  0  0  0  0  0  0  0  0
   23.4199  -20.9996  -13.1809 C   0  0  0  0  0  0  0  0  0  0  0  0
   23.1867  -21.9004  -12.3454 O   0  0  0  0  0  0  0  0  0  0  0  0
   24.7347  -20.4672  -13.1802 N   0  0  0  0  0  0  0  0  0  0  0  0
   25.8028  -20.9679  -12.2884 C   0  0  1  0  0  0  0  0  0  0  0  0
   27.0699  -20.9497  -13.1079 C   0  0  0  0  0  0  0  0  0  0  0  0
   27.0677  -21.9675  -14.1952 C   0  0  0  0  0  0  0  0  0  0  0  0
   28.2667  -21.9848  -15.0514 C   0  0  0  0  0  0  0  0  0  0  0  0
   29.2069  -21.1638  -14.9976 O   0  0  0  0  0  0  0  0  0  0  0  0
   25.8616  -20.1735  -11.0577 C   0  0  0  0  0  0  0  0  0  0  0  0
   25.7780  -18.9255  -11.0160 O   0  0  0  0  0  0  0  0  0  0  0  0
   28.4152  -22.9896  -16.0290 O   0  0  0  0  0  0  0  0  0  0  0  0
   24.1632  -21.1395   -7.7148 C   0  0  0  0  0  0  0  0  0  0  0  0
   25.5790  -20.7374   -7.3674 C   0  0  1  0  0  0  0  0  0  0  0  0
   26.3605  -22.0192   -7.0942 C   0  0  0  0  0  0  0  0  0  0  0  0
   26.1652  -20.0300   -8.5703 C   0  0  2  0  0  0  0  0  0  0  0  0
   26.0261  -20.8172   -9.7753 N   0  0  0  0  0  0  0  0  0  0  0  0
   27.6039  -19.7781   -8.3231 C   0  0  0  0  0  0  0  0  0  0  0  0
   27.9815  -18.7980   -7.4288 O   0  0  0  0  0  0  0  0  0  0  0  0
   28.5147  -20.4317   -8.9042 O   0  0  0  0  0  0  0  0  0  0  0  0
  2  4  1  0
  2  1  1  0
  3  2  2  0
  5  4  1  0
  6  5  1  0
  6  8  1  0
  6  7  1  1
  8 10  1  0
  9  8  2  0
 10 11  1  0
 11 12  1  6
 11 16  1  0
 12 13  1  0
 13 14  1  0
 14 18  1  0
 14 15  2  0
 16 17  2  0
 20 19  1  6
 20 22  1  0
 21 20  1  0
 22 24  1  0
 22 23  1  6
 23 16  1  0
 24 25  1  0
 26 24  2  0
M  END
$$$$
