QEV.pdb
     RDKit          3D

 26 25  0  0  1  0  0  0  0  0999 V2000
   14.3175  -13.7509  -15.5016 N   0  0  0  0  0  0  0  0  0  0  0  0
   15.5923  -14.2051  -15.1144 C   0  0  0  0  0  0  0  0  0  0  0  0
   15.7270  -14.8429  -14.0535 O   0  0  0  0  0  0  0  0  0  0  0  0
   16.7604  -13.9230  -15.9675 C   0  0  0  0  0  0  0  0  0  0  0  0
   16.3669  -13.0799  -17.1374 C   0  0  0  0  0  0  0  0  0  0  0  0
   17.4663  -12.7426  -18.0792 C   0  0  2  0  0  0  0  0  0  0  0  0
   18.3455  -13.8867  -18.2473 N   0  0  0  0  0  0  0  0  0  0  0  0
   18.2773  -11.5771  -17.7188 C   0  0  0  0  0  0  0  0  0  0  0  0
   19.4834  -11.7181  -17.4197 O   0  0  0  0  0  0  0  0  0  0  0  0
   17.7725  -10.2520  -17.6847 N   0  0  0  0  0  0  0  0  0  0  0  0
   18.6406   -9.0665  -17.5184 C   0  0  1  0  0  0  0  0  0  0  0  0
   17.7527   -7.8671  -17.7432 C   0  0  0  0  0  0  0  0  0  0  0  0
   18.4915   -6.5773  -17.6490 C   0  0  0  0  0  0  0  0  0  0  0  0
   17.6913   -5.3669  -17.9050 C   0  0  0  0  0  0  0  0  0  0  0  0
   16.7818   -5.2665  -18.7557 O   0  0  0  0  0  0  0  0  0  0  0  0
   19.3076   -9.0946  -16.2132 C   0  0  0  0  0  0  0  0  0  0  0  0
   18.7480   -9.4092  -15.1389 O   0  0  0  0  0  0  0  0  0  0  0  0
   17.9311   -4.1970  -17.1559 O   0  0  0  0  0  0  0  0  0  0  0  0
   22.4437  -10.8964  -15.2007 C   0  0  0  0  0  0  0  0  0  0  0  0
   22.6947   -9.4471  -14.8494 C   0  0  1  0  0  0  0  0  0  0  0  0
   23.5478   -8.8512  -15.9654 C   0  0  0  0  0  0  0  0  0  0  0  0
   21.3543   -8.7457  -14.8029 C   0  0  2  0  0  0  0  0  0  0  0  0
   20.7041   -8.7460  -16.0945 N   0  0  0  0  0  0  0  0  0  0  0  0
   21.5624   -7.3446  -14.3689 C   0  0  0  0  0  0  0  0  0  0  0  0
   21.9445   -7.0821  -13.0697 O   0  0  0  0  0  0  0  0  0  0  0  0
   21.4029   -6.3642  -15.1485 O   0  0  0  0  0  0  0  0  0  0  0  0
  2  4  1  0
  2  1  1  0
  3  2  2  0
  5  4  1  0
  6  5  1  0
  6  8  1  0
  6  7  1  1
  8 10  1  0
  9  8  2  0
 10 11  1  0
 11 12  1  1
 11 16  1  0
 12 13  1  0
 13 14  1  0
 14 18  1  0
 14 15  2  0
 16 17  2  0
 20 19  1  6
 20 22  1  0
 21 20  1  0
 22 24  1  0
 22 23  1  6
 23 16  1  0
 24 25  1  0
 26 24  2  0
M  END
$$$$
