QEV.pdb
     RDKit          3D

 26 25  0  0  1  0  0  0  0  0999 V2000
   13.2640  -11.3428  -15.0642 N   0  0  0  0  0  0  0  0  0  0  0  0
   13.9777  -11.4869  -16.2688 C   0  0  0  0  0  0  0  0  0  0  0  0
   13.3821  -11.8406  -17.3034 O   0  0  0  0  0  0  0  0  0  0  0  0
   15.4264  -11.2180  -16.2982 C   0  0  0  0  0  0  0  0  0  0  0  0
   15.8950  -10.7111  -14.9723 C   0  0  0  0  0  0  0  0  0  0  0  0
   17.3498  -10.4211  -14.8782 C   0  0  2  0  0  0  0  0  0  0  0  0
   18.1068  -11.6604  -14.9095 N   0  0  0  0  0  0  0  0  0  0  0  0
   17.7693   -9.6450  -13.7087 C   0  0  0  0  0  0  0  0  0  0  0  0
   17.8701  -10.1965  -12.5908 O   0  0  0  0  0  0  0  0  0  0  0  0
   18.0812   -8.2621  -13.7573 N   0  0  0  0  0  0  0  0  0  0  0  0
   18.4908   -7.4894  -12.5648 C   0  0  1  0  0  0  0  0  0  0  0  0
   19.6700   -6.6529  -12.9974 C   0  0  0  0  0  0  0  0  0  0  0  0
   20.2172   -5.8144  -11.8947 C   0  0  0  0  0  0  0  0  0  0  0  0
   21.3851   -4.9873  -12.2454 C   0  0  0  0  0  0  0  0  0  0  0  0
   22.5794   -5.3370  -12.1356 O   0  0  0  0  0  0  0  0  0  0  0  0
   17.3604   -6.7210  -12.0349 C   0  0  0  0  0  0  0  0  0  0  0  0
   16.6238   -5.9793  -12.7231 O   0  0  0  0  0  0  0  0  0  0  0  0
   21.1951   -3.6851  -12.7510 O   0  0  0  0  0  0  0  0  0  0  0  0
   16.1366   -7.0768   -7.9235 C   0  0  0  0  0  0  0  0  0  0  0  0
   15.1703   -6.7191   -9.0304 C   0  0  1  0  0  0  0  0  0  0  0  0
   14.1146   -5.7955   -8.4298 C   0  0  0  0  0  0  0  0  0  0  0  0
   15.9466   -5.9790  -10.0983 C   0  0  2  0  0  0  0  0  0  0  0  0
   17.0239   -6.7827  -10.6317 N   0  0  0  0  0  0  0  0  0  0  0  0
   16.5136   -4.7441   -9.5083 C   0  0  0  0  0  0  0  0  0  0  0  0
   17.8613   -4.6812   -9.2212 O   0  0  0  0  0  0  0  0  0  0  0  0
   15.8061   -3.7299   -9.2526 O   0  0  0  0  0  0  0  0  0  0  0  0
  2  4  1  0
  2  1  1  0
  3  2  2  0
  5  4  1  0
  6  5  1  0
  6  8  1  0
  6  7  1  1
  8 10  1  0
  9  8  2  0
 10 11  1  0
 11 12  1  6
 11 16  1  0
 12 13  1  0
 13 14  1  0
 14 18  1  0
 14 15  2  0
 16 17  2  0
 20 19  1  1
 20 22  1  0
 21 20  1  0
 22 24  1  0
 22 23  1  1
 23 16  1  0
 24 25  1  0
 26 24  2  0
M  END
$$$$
