QEV.pdb
     RDKit          3D

 26 25  0  0  1  0  0  0  0  0999 V2000
   26.4593  -33.8311   -6.7590 N   0  0  0  0  0  0  0  0  0  0  0  0
   25.4332  -33.7956   -5.7961 C   0  0  0  0  0  0  0  0  0  0  0  0
   25.6857  -33.4239   -4.6349 O   0  0  0  0  0  0  0  0  0  0  0  0
   24.0655  -34.1988   -6.1684 C   0  0  0  0  0  0  0  0  0  0  0  0
   23.1034  -33.0797   -5.9304 C   0  0  0  0  0  0  0  0  0  0  0  0
   21.6891  -33.3681   -6.2851 C   0  0  2  0  0  0  0  0  0  0  0  0
   21.5248  -33.3499   -7.7283 N   0  0  0  0  0  0  0  0  0  0  0  0
   20.6896  -32.4787   -5.6883 C   0  0  0  0  0  0  0  0  0  0  0  0
   20.0802  -31.6501   -6.3996 O   0  0  0  0  0  0  0  0  0  0  0  0
   20.3520  -32.4925   -4.3107 N   0  0  0  0  0  0  0  0  0  0  0  0
   19.2728  -31.6576   -3.7405 C   0  0  1  0  0  0  0  0  0  0  0  0
   18.0698  -32.5607   -3.6191 C   0  0  0  0  0  0  0  0  0  0  0  0
   16.8591  -31.8451   -3.1286 C   0  0  0  0  0  0  0  0  0  0  0  0
   15.6425  -32.6669   -3.0042 C   0  0  0  0  0  0  0  0  0  0  0  0
   14.9096  -33.0236   -3.9511 O   0  0  0  0  0  0  0  0  0  0  0  0
   19.7050  -31.0460   -2.4803 C   0  0  0  0  0  0  0  0  0  0  0  0
   20.2212  -31.6743   -1.5289 O   0  0  0  0  0  0  0  0  0  0  0  0
   15.2259  -33.1142   -1.7339 O   0  0  0  0  0  0  0  0  0  0  0  0
   21.1149  -27.2509   -2.2746 C   0  0  0  0  0  0  0  0  0  0  0  0
   20.1365  -27.5212   -1.1536 C   0  0  1  0  0  0  0  0  0  0  0  0
   18.8003  -26.9063   -1.5598 C   0  0  0  0  0  0  0  0  0  0  0  0
   19.9881  -29.0218   -1.0235 C   0  0  2  0  0  0  0  0  0  0  0  0
   19.5512  -29.6266   -2.2622 N   0  0  0  0  0  0  0  0  0  0  0  0
   18.9915  -29.3142    0.0329 C   0  0  0  0  0  0  0  0  0  0  0  0
   19.3305  -29.1390    1.3585 O   0  0  0  0  0  0  0  0  0  0  0  0
   17.8264  -29.7232   -0.2309 O   0  0  0  0  0  0  0  0  0  0  0  0
  2  4  1  0
  2  1  1  0
  3  2  2  0
  5  4  1  0
  6  5  1  0
  6  8  1  0
  6  7  1  6
  8 10  1  0
  9  8  2  0
 10 11  1  0
 11 12  1  1
 11 16  1  0
 12 13  1  0
 13 14  1  0
 14 18  1  0
 14 15  2  0
 16 17  2  0
 20 19  1  6
 20 22  1  0
 21 20  1  0
 22 24  1  0
 22 23  1  6
 23 16  1  0
 24 25  1  0
 26 24  2  0
M  END
$$$$
