QEV.pdb
     RDKit          3D

 26 25  0  0  1  0  0  0  0  0999 V2000
   26.9357  -17.8047   -6.9744 N   0  0  0  0  0  0  0  0  0  0  0  0
   26.7943  -18.8254   -6.0155 C   0  0  0  0  0  0  0  0  0  0  0  0
   26.1742  -18.6016   -4.9592 O   0  0  0  0  0  0  0  0  0  0  0  0
   27.3813  -20.1534   -6.2676 C   0  0  0  0  0  0  0  0  0  0  0  0
   27.1412  -20.5757   -7.6813 C   0  0  0  0  0  0  0  0  0  0  0  0
   25.7160  -20.6159   -8.1017 C   0  0  2  0  0  0  0  0  0  0  0  0
   24.9834  -21.5678   -7.2848 N   0  0  0  0  0  0  0  0  0  0  0  0
   25.4778  -20.9283   -9.5130 C   0  0  0  0  0  0  0  0  0  0  0  0
   26.0515  -21.9027  -10.0472 O   0  0  0  0  0  0  0  0  0  0  0  0
   24.6101  -20.1764  -10.3458 N   0  0  0  0  0  0  0  0  0  0  0  0
   24.3924  -20.4948  -11.7734 C   0  0  1  0  0  0  0  0  0  0  0  0
   22.9174  -20.2957  -12.0228 C   0  0  0  0  0  0  0  0  0  0  0  0
   22.5317  -20.5567  -13.4375 C   0  0  0  0  0  0  0  0  0  0  0  0
   21.0923  -20.4495  -13.7335 C   0  0  0  0  0  0  0  0  0  0  0  0
   20.3065  -21.4117  -13.8654 O   0  0  0  0  0  0  0  0  0  0  0  0
   25.2689  -19.6824  -12.6225 C   0  0  0  0  0  0  0  0  0  0  0  0
   25.4554  -18.4535  -12.4765 O   0  0  0  0  0  0  0  0  0  0  0  0
   20.5021  -19.1790  -13.8907 O   0  0  0  0  0  0  0  0  0  0  0  0
   28.8767  -19.9010  -13.2054 C   0  0  0  0  0  0  0  0  0  0  0  0
   28.2746  -20.0580  -14.5837 C   0  0  1  0  0  0  0  0  0  0  0  0
   28.2104  -21.5529  -14.8829 C   0  0  0  0  0  0  0  0  0  0  0  0
   26.8738  -19.4861  -14.5423 C   0  0  2  0  0  0  0  0  0  0  0  0
   25.9935  -20.2837  -13.7177 N   0  0  0  0  0  0  0  0  0  0  0  0
   26.3339  -19.4426  -15.9211 C   0  0  0  0  0  0  0  0  0  0  0  0
   25.1847  -20.1418  -16.2266 O   0  0  0  0  0  0  0  0  0  0  0  0
   26.8882  -18.7829  -16.8441 O   0  0  0  0  0  0  0  0  0  0  0  0
  2  4  1  0
  2  1  1  0
  3  2  2  0
  5  4  1  0
  6  5  1  0
  6  8  1  0
  6  7  1  1
  8 10  1  0
  9  8  2  0
 10 11  1  0
 11 12  1  6
 11 16  1  0
 12 13  1  0
 13 14  1  0
 14 18  1  0
 14 15  2  0
 16 17  2  0
 20 19  1  1
 20 22  1  0
 21 20  1  0
 22 24  1  0
 22 23  1  1
 23 16  1  0
 24 25  1  0
 26 24  2  0
M  END
$$$$
