QEV.pdb
     RDKit          3D

 26 25  0  0  1  0  0  0  0  0999 V2000
   19.7695  -14.0831  -20.7588 N   0  0  0  0  0  0  0  0  0  0  0  0
   20.2838  -13.8619  -19.4674 C   0  0  0  0  0  0  0  0  0  0  0  0
   21.4955  -13.6183  -19.3163 O   0  0  0  0  0  0  0  0  0  0  0  0
   19.3846  -13.9198  -18.3012 C   0  0  0  0  0  0  0  0  0  0  0  0
   19.9463  -13.1295  -17.1634 C   0  0  0  0  0  0  0  0  0  0  0  0
   18.9431  -12.4529  -16.3002 C   0  0  2  0  0  0  0  0  0  0  0  0
   17.6186  -12.9877  -16.5641 N   0  0  0  0  0  0  0  0  0  0  0  0
   18.8898  -10.9931  -16.4112 C   0  0  0  0  0  0  0  0  0  0  0  0
   18.9303  -10.4457  -17.5349 O   0  0  0  0  0  0  0  0  0  0  0  0
   18.7912  -10.1258  -15.2932 N   0  0  0  0  0  0  0  0  0  0  0  0
   18.7801   -8.6524  -15.4190 C   0  0  1  0  0  0  0  0  0  0  0  0
   17.4337   -8.2023  -14.9069 C   0  0  0  0  0  0  0  0  0  0  0  0
   17.3113   -6.7198  -14.8335 C   0  0  0  0  0  0  0  0  0  0  0  0
   16.0499   -6.2141  -14.2642 C   0  0  0  0  0  0  0  0  0  0  0  0
   15.0686   -6.9163  -13.9404 O   0  0  0  0  0  0  0  0  0  0  0  0
   19.9259   -8.0662  -14.7170 C   0  0  0  0  0  0  0  0  0  0  0  0
   20.2768   -8.3726  -13.5554 O   0  0  0  0  0  0  0  0  0  0  0  0
   15.8840   -4.8312  -14.0465 O   0  0  0  0  0  0  0  0  0  0  0  0
   23.4308   -7.4254  -16.3646 C   0  0  0  0  0  0  0  0  0  0  0  0
   23.0003   -6.1573  -15.6621 C   0  0  1  0  0  0  0  0  0  0  0  0
   22.4462   -5.2149  -16.7266 C   0  0  0  0  0  0  0  0  0  0  0  0
   21.9042   -6.5219  -14.6841 C   0  0  2  0  0  0  0  0  0  0  0  0
   20.7438   -7.0624  -15.3567 N   0  0  0  0  0  0  0  0  0  0  0  0
   21.5054   -5.3061  -13.9375 C   0  0  0  0  0  0  0  0  0  0  0  0
   22.3936   -4.7232  -13.0578 O   0  0  0  0  0  0  0  0  0  0  0  0
   20.3697   -4.7711  -14.0733 O   0  0  0  0  0  0  0  0  0  0  0  0
  2  4  1  0
  2  1  1  0
  3  2  2  0
  5  4  1  0
  6  5  1  0
  6  8  1  0
  6  7  1  6
  8 10  1  0
  9  8  2  0
 10 11  1  0
 11 12  1  1
 11 16  1  0
 12 13  1  0
 13 14  1  0
 14 18  1  0
 14 15  2  0
 16 17  2  0
 20 19  1  6
 20 22  1  0
 21 20  1  0
 22 24  1  0
 22 23  1  6
 23 16  1  0
 24 25  1  0
 26 24  2  0
M  END
$$$$
