QEV.pdb
     RDKit          3D

 26 25  0  0  1  0  0  0  0  0999 V2000
   15.6106  -13.6987  -15.8984 N   0  0  0  0  0  0  0  0  0  0  0  0
   16.4782  -14.0205  -16.9589 C   0  0  0  0  0  0  0  0  0  0  0  0
   16.2176  -14.9852  -17.7018 O   0  0  0  0  0  0  0  0  0  0  0  0
   17.6905  -13.2134  -17.1840 C   0  0  0  0  0  0  0  0  0  0  0  0
   17.8005  -12.1312  -16.1586 C   0  0  0  0  0  0  0  0  0  0  0  0
   19.0445  -11.3199  -16.2184 C   0  0  2  0  0  0  0  0  0  0  0  0
   20.1893  -12.1377  -15.8567 N   0  0  0  0  0  0  0  0  0  0  0  0
   19.0544  -10.1089  -15.3940 C   0  0  0  0  0  0  0  0  0  0  0  0
   18.9721  -10.1947  -14.1490 O   0  0  0  0  0  0  0  0  0  0  0  0
   19.1551   -8.7988  -15.9281 N   0  0  0  0  0  0  0  0  0  0  0  0
   19.1068   -7.5834  -15.0871 C   0  0  1  0  0  0  0  0  0  0  0  0
   20.5267   -7.0788  -15.0051 C   0  0  0  0  0  0  0  0  0  0  0  0
   20.6443   -5.8118  -14.2309 C   0  0  0  0  0  0  0  0  0  0  0  0
   22.0173   -5.3186  -14.0247 C   0  0  0  0  0  0  0  0  0  0  0  0
   22.7677   -4.8708  -14.9175 O   0  0  0  0  0  0  0  0  0  0  0  0
   18.1474   -6.6176  -15.6311 C   0  0  0  0  0  0  0  0  0  0  0  0
   18.1236   -6.2383  -16.8235 O   0  0  0  0  0  0  0  0  0  0  0  0
   22.5795   -5.3311  -12.7320 O   0  0  0  0  0  0  0  0  0  0  0  0
   13.9995   -4.0440  -15.1796 C   0  0  0  0  0  0  0  0  0  0  0  0
   14.8028   -5.2905  -14.8832 C   0  0  1  0  0  0  0  0  0  0  0  0
   14.2178   -6.4185  -15.7280 C   0  0  0  0  0  0  0  0  0  0  0  0
   16.2328   -5.0278  -15.3041 C   0  0  2  0  0  0  0  0  0  0  0  0
   17.1372   -6.0288  -14.7833 N   0  0  0  0  0  0  0  0  0  0  0  0
   16.6438   -3.6975  -14.7980 C   0  0  0  0  0  0  0  0  0  0  0  0
   16.6488   -2.6142  -15.6518 O   0  0  0  0  0  0  0  0  0  0  0  0
   16.9952   -3.5086  -13.6000 O   0  0  0  0  0  0  0  0  0  0  0  0
  2  4  1  0
  2  1  1  0
  3  2  2  0
  5  4  1  0
  6  5  1  0
  6  8  1  0
  6  7  1  1
  8 10  1  0
  9  8  2  0
 10 11  1  0
 11 12  1  6
 11 16  1  0
 12 13  1  0
 13 14  1  0
 14 18  1  0
 14 15  2  0
 16 17  2  0
 20 19  1  6
 20 22  1  0
 21 20  1  0
 22 24  1  0
 22 23  1  1
 23 16  1  0
 24 25  1  0
 26 24  2  0
M  END
$$$$
