QEV.pdb
     RDKit          3D

 26 25  0  0  1  0  0  0  0  0999 V2000
   17.6301  -13.3819  -18.6707 N   0  0  0  0  0  0  0  0  0  0  0  0
   17.9030  -14.7602  -18.5868 C   0  0  0  0  0  0  0  0  0  0  0  0
   17.1848  -15.5725  -19.1992 O   0  0  0  0  0  0  0  0  0  0  0  0
   19.0375  -15.2340  -17.7743 C   0  0  0  0  0  0  0  0  0  0  0  0
   19.7693  -14.0800  -17.1680 C   0  0  0  0  0  0  0  0  0  0  0  0
   20.6530  -13.3266  -18.0958 C   0  0  2  0  0  0  0  0  0  0  0  0
   21.7300  -14.1829  -18.5618 N   0  0  0  0  0  0  0  0  0  0  0  0
   21.2334  -12.0929  -17.5601 C   0  0  0  0  0  0  0  0  0  0  0  0
   21.3484  -11.9364  -16.3247 O   0  0  0  0  0  0  0  0  0  0  0  0
   21.6912  -11.0251  -18.3739 N   0  0  0  0  0  0  0  0  0  0  0  0
   22.3061   -9.7999  -17.8192 C   0  0  1  0  0  0  0  0  0  0  0  0
   23.2491   -9.2912  -18.8819 C   0  0  0  0  0  0  0  0  0  0  0  0
   23.9145   -8.0149  -18.4990 C   0  0  0  0  0  0  0  0  0  0  0  0
   24.9047   -7.5011  -19.4616 C   0  0  0  0  0  0  0  0  0  0  0  0
   25.4224   -8.1592  -20.3888 O   0  0  0  0  0  0  0  0  0  0  0  0
   21.2728   -8.8427  -17.4128 C   0  0  0  0  0  0  0  0  0  0  0  0
   20.4034   -8.3713  -18.1798 O   0  0  0  0  0  0  0  0  0  0  0  0
   25.3383   -6.1626  -19.3736 O   0  0  0  0  0  0  0  0  0  0  0  0
   18.5166   -9.1186  -15.1790 C   0  0  0  0  0  0  0  0  0  0  0  0
   19.2833   -7.9605  -14.5808 C   0  0  1  0  0  0  0  0  0  0  0  0
   20.1172   -8.5151  -13.4296 C   0  0  0  0  0  0  0  0  0  0  0  0
   20.1982   -7.4106  -15.6539 C   0  0  2  0  0  0  0  0  0  0  0  0
   21.2014   -8.3743  -16.0484 N   0  0  0  0  0  0  0  0  0  0  0  0
   20.8730   -6.1992  -15.1324 C   0  0  0  0  0  0  0  0  0  0  0  0
   20.1543   -5.0326  -14.9733 O   0  0  0  0  0  0  0  0  0  0  0  0
   22.0969   -6.1873  -14.8220 O   0  0  0  0  0  0  0  0  0  0  0  0
  2  4  1  0
  2  1  1  0
  3  2  2  0
  5  4  1  0
  6  5  1  0
  6  8  1  0
  6  7  1  1
  8 10  1  0
  9  8  2  0
 10 11  1  0
 11 12  1  6
 11 16  1  0
 12 13  1  0
 13 14  1  0
 14 18  1  0
 14 15  2  0
 16 17  2  0
 20 19  1  6
 20 22  1  0
 21 20  1  0
 22 24  1  0
 22 23  1  1
 23 16  1  0
 24 25  1  0
 26 24  2  0
M  END
$$$$
