QEV.pdb
     RDKit          3D

 26 25  0  0  1  0  0  0  0  0999 V2000
   18.5963  -14.5683  -15.8601 N   0  0  0  0  0  0  0  0  0  0  0  0
   17.2917  -14.5799  -15.3316 C   0  0  0  0  0  0  0  0  0  0  0  0
   16.8629  -15.6009  -14.7622 O   0  0  0  0  0  0  0  0  0  0  0  0
   16.4408  -13.3831  -15.4553 C   0  0  0  0  0  0  0  0  0  0  0  0
   17.1895  -12.2706  -16.1159 C   0  0  0  0  0  0  0  0  0  0  0  0
   16.4498  -10.9869  -16.2358 C   0  0  2  0  0  0  0  0  0  0  0  0
   15.3742  -11.1213  -17.2029 N   0  0  0  0  0  0  0  0  0  0  0  0
   17.2577   -9.8182  -16.5927 C   0  0  0  0  0  0  0  0  0  0  0  0
   17.8653   -9.7833  -17.6853 O   0  0  0  0  0  0  0  0  0  0  0  0
   17.4040   -8.6822  -15.7561 N   0  0  0  0  0  0  0  0  0  0  0  0
   18.3356   -7.5751  -16.0616 C   0  0  1  0  0  0  0  0  0  0  0  0
   17.4703   -6.3779  -16.3704 C   0  0  0  0  0  0  0  0  0  0  0  0
   16.0439   -6.7412  -16.5980 C   0  0  0  0  0  0  0  0  0  0  0  0
   15.0686   -6.0600  -15.7286 C   0  0  0  0  0  0  0  0  0  0  0  0
   14.2881   -6.6255  -14.9337 O   0  0  0  0  0  0  0  0  0  0  0  0
   19.2795   -7.3760  -14.9577 C   0  0  0  0  0  0  0  0  0  0  0  0
   18.9692   -7.4110  -13.7458 O   0  0  0  0  0  0  0  0  0  0  0  0
   14.9665   -4.6542  -15.7570 O   0  0  0  0  0  0  0  0  0  0  0  0
   22.5053   -9.2965  -14.4959 C   0  0  0  0  0  0  0  0  0  0  0  0
   22.8841   -7.8336  -14.4385 C   0  0  1  0  0  0  0  0  0  0  0  0
   23.4153   -7.4483  -15.8161 C   0  0  0  0  0  0  0  0  0  0  0  0
   21.6284   -7.0441  -14.1376 C   0  0  2  0  0  0  0  0  0  0  0  0
   20.6757   -7.1183  -15.2229 N   0  0  0  0  0  0  0  0  0  0  0  0
   21.9963   -5.6263  -13.9158 C   0  0  0  0  0  0  0  0  0  0  0  0
   22.7257   -5.2772  -12.7983 O   0  0  0  0  0  0  0  0  0  0  0  0
   21.6663   -4.7085  -14.7177 O   0  0  0  0  0  0  0  0  0  0  0  0
  2  4  1  0
  2  1  1  0
  3  2  2  0
  5  4  1  0
  6  5  1  0
  6  8  1  0
  6  7  1  6
  8 10  1  0
  9  8  2  0
 10 11  1  0
 11 12  1  1
 11 16  1  0
 12 13  1  0
 13 14  1  0
 14 18  1  0
 14 15  2  0
 16 17  2  0
 20 19  1  6
 20 22  1  0
 21 20  1  0
 22 24  1  0
 22 23  1  6
 23 16  1  0
 24 25  1  0
 26 24  2  0
M  END
$$$$
