QEV.pdb
     RDKit          3D

 26 25  0  0  1  0  0  0  0  0999 V2000
   14.0885  -12.4156  -13.3613 N   0  0  0  0  0  0  0  0  0  0  0  0
   15.1532  -12.9801  -14.0886 C   0  0  0  0  0  0  0  0  0  0  0  0
   15.2461  -14.2175  -14.1914 O   0  0  0  0  0  0  0  0  0  0  0  0
   16.1521  -12.1027  -14.7244 C   0  0  0  0  0  0  0  0  0  0  0  0
   15.8506  -10.6669  -14.4376 C   0  0  0  0  0  0  0  0  0  0  0  0
   15.7913   -9.7776  -15.6271 C   0  0  2  0  0  0  0  0  0  0  0  0
   15.7109  -10.5737  -16.8395 N   0  0  0  0  0  0  0  0  0  0  0  0
   16.8953   -8.8246  -15.7644 C   0  0  0  0  0  0  0  0  0  0  0  0
   17.9495   -9.1626  -16.3461 O   0  0  0  0  0  0  0  0  0  0  0  0
   16.8504   -7.4971  -15.2666 N   0  0  0  0  0  0  0  0  0  0  0  0
   17.9281   -6.5133  -15.5062 C   0  0  1  0  0  0  0  0  0  0  0  0
   17.2470   -5.1715  -15.6214 C   0  0  0  0  0  0  0  0  0  0  0  0
   18.1898   -4.0755  -15.9794 C   0  0  0  0  0  0  0  0  0  0  0  0
   17.5855   -2.7394  -16.1227 C   0  0  0  0  0  0  0  0  0  0  0  0
   16.3847   -2.4619  -15.9177 O   0  0  0  0  0  0  0  0  0  0  0  0
   18.9429   -6.5928  -14.4513 C   0  0  0  0  0  0  0  0  0  0  0  0
   18.6885   -6.6550  -13.2274 O   0  0  0  0  0  0  0  0  0  0  0  0
   18.3840   -1.6483  -16.5219 O   0  0  0  0  0  0  0  0  0  0  0  0
   21.9554   -9.0038  -14.3393 C   0  0  0  0  0  0  0  0  0  0  0  0
   22.4982   -7.6033  -14.1638 C   0  0  1  0  0  0  0  0  0  0  0  0
   23.0310   -7.1502  -15.5200 C   0  0  0  0  0  0  0  0  0  0  0  0
   21.3484   -6.7127  -13.7447 C   0  0  2  0  0  0  0  0  0  0  0  0
   20.3484   -6.6042  -14.7836 N   0  0  0  0  0  0  0  0  0  0  0  0
   21.8756   -5.3620  -13.4408 C   0  0  0  0  0  0  0  0  0  0  0  0
   22.6828   -5.1767  -12.3377 O   0  0  0  0  0  0  0  0  0  0  0  0
   21.6144   -4.3566  -14.1587 O   0  0  0  0  0  0  0  0  0  0  0  0
  2  4  1  0
  2  1  1  0
  3  2  2  0
  5  4  1  0
  6  5  1  0
  6  8  1  0
  6  7  1  6
  8 10  1  0
  9  8  2  0
 10 11  1  0
 11 12  1  1
 11 16  1  0
 12 13  1  0
 13 14  1  0
 14 18  1  0
 14 15  2  0
 16 17  2  0
 20 19  1  6
 20 22  1  0
 21 20  1  0
 22 24  1  0
 22 23  1  6
 23 16  1  0
 24 25  1  0
 26 24  2  0
M  END
$$$$
