QEV.pdb
     RDKit          3D

 26 25  0  0  1  0  0  0  0  0999 V2000
   38.4573  -12.3090   -7.7657 N   0  0  0  0  0  0  0  0  0  0  0  0
   38.6674  -11.4615   -6.6617 C   0  0  0  0  0  0  0  0  0  0  0  0
   37.8681  -11.4779   -5.7070 O   0  0  0  0  0  0  0  0  0  0  0  0
   39.8325  -10.5594   -6.6422 C   0  0  0  0  0  0  0  0  0  0  0  0
   40.6936  -10.7853   -7.8432 C   0  0  0  0  0  0  0  0  0  0  0  0
   41.7940   -9.8043   -8.0327 C   0  0  2  0  0  0  0  0  0  0  0  0
   42.7203   -9.8742   -6.9159 N   0  0  0  0  0  0  0  0  0  0  0  0
   41.3798   -8.4105   -8.2116 C   0  0  0  0  0  0  0  0  0  0  0  0
   41.3346   -7.6368   -7.2301 O   0  0  0  0  0  0  0  0  0  0  0  0
   41.0138   -7.8570   -9.4652 N   0  0  0  0  0  0  0  0  0  0  0  0
   40.6147   -6.4430   -9.6324 C   0  0  1  0  0  0  0  0  0  0  0  0
   41.0851   -6.0389  -11.0082 C   0  0  0  0  0  0  0  0  0  0  0  0
   40.7859   -4.6145  -11.3244 C   0  0  0  0  0  0  0  0  0  0  0  0
   41.2405   -4.1482  -12.6460 C   0  0  0  0  0  0  0  0  0  0  0  0
   41.7209   -3.0212  -12.8905 O   0  0  0  0  0  0  0  0  0  0  0  0
   39.1744   -6.2839   -9.4099 C   0  0  0  0  0  0  0  0  0  0  0  0
   38.2903   -6.9548   -9.9883 O   0  0  0  0  0  0  0  0  0  0  0  0
   41.1479   -5.0054  -13.7614 O   0  0  0  0  0  0  0  0  0  0  0  0
   37.1159   -6.3528   -6.2391 C   0  0  0  0  0  0  0  0  0  0  0  0
   36.8558   -5.0007   -6.8643 C   0  0  1  0  0  0  0  0  0  0  0  0
   37.7405   -3.9891   -6.1415 C   0  0  0  0  0  0  0  0  0  0  0  0
   37.2593   -5.0813   -8.3208 C   0  0  2  0  0  0  0  0  0  0  0  0
   38.6802   -5.3032   -8.4718 N   0  0  0  0  0  0  0  0  0  0  0  0
   36.8968   -3.8097   -8.9888 C   0  0  0  0  0  0  0  0  0  0  0  0
   35.5678   -3.4943   -9.1810 O   0  0  0  0  0  0  0  0  0  0  0  0
   37.7650   -2.9883   -9.3964 O   0  0  0  0  0  0  0  0  0  0  0  0
  2  4  1  0
  2  1  1  0
  3  2  2  0
  5  4  1  0
  6  5  1  0
  6  8  1  0
  6  7  1  1
  8 10  1  0
  9  8  2  0
 10 11  1  0
 11 12  1  6
 11 16  1  0
 12 13  1  0
 13 14  1  0
 14 18  1  0
 14 15  2  0
 16 17  2  0
 20 19  1  1
 20 22  1  0
 21 20  1  0
 22 24  1  0
 22 23  1  1
 23 16  1  0
 24 25  1  0
 26 24  2  0
M  END
$$$$
