QEV.pdb
     RDKit          3D

 26 25  0  0  1  0  0  0  0  0999 V2000
   13.2252  -10.5718  -16.6710 N   0  0  0  0  0  0  0  0  0  0  0  0
   14.0953  -10.8247  -15.5939 C   0  0  0  0  0  0  0  0  0  0  0  0
   14.0140  -10.1393  -14.5575 O   0  0  0  0  0  0  0  0  0  0  0  0
   15.0978  -11.8997  -15.6992 C   0  0  0  0  0  0  0  0  0  0  0  0
   16.4808  -11.3423  -15.5938 C   0  0  0  0  0  0  0  0  0  0  0  0
   17.2814  -11.3812  -16.8456 C   0  0  2  0  0  0  0  0  0  0  0  0
   17.6226  -12.7542  -17.1751 N   0  0  0  0  0  0  0  0  0  0  0  0
   18.5087  -10.5814  -16.8409 C   0  0  0  0  0  0  0  0  0  0  0  0
   19.5632  -11.0501  -16.3589 O   0  0  0  0  0  0  0  0  0  0  0  0
   18.5879   -9.2654  -17.3642 N   0  0  0  0  0  0  0  0  0  0  0  0
   19.8340   -8.4693  -17.3490 C   0  0  1  0  0  0  0  0  0  0  0  0
   19.6489   -7.3889  -18.3863 C   0  0  0  0  0  0  0  0  0  0  0  0
   20.8418   -6.5071  -18.5193 C   0  0  0  0  0  0  0  0  0  0  0  0
   20.7282   -5.4316  -19.5199 C   0  0  0  0  0  0  0  0  0  0  0  0
   21.5839   -4.5463  -19.7319 O   0  0  0  0  0  0  0  0  0  0  0  0
   20.1137   -7.9748  -15.9976 C   0  0  0  0  0  0  0  0  0  0  0  0
   19.2465   -7.5282  -15.2135 O   0  0  0  0  0  0  0  0  0  0  0  0
   19.5789   -5.3486  -20.3320 O   0  0  0  0  0  0  0  0  0  0  0  0
   22.0938   -9.9750  -13.4330 C   0  0  0  0  0  0  0  0  0  0  0  0
   22.7203   -8.5991  -13.4704 C   0  0  1  0  0  0  0  0  0  0  0  0
   23.9595   -8.6889  -14.3562 C   0  0  0  0  0  0  0  0  0  0  0  0
   21.7166   -7.6527  -14.0931 C   0  0  2  0  0  0  0  0  0  0  0  0
   21.4617   -7.9778  -15.4789 N   0  0  0  0  0  0  0  0  0  0  0  0
   22.2468   -6.2718  -14.0120 C   0  0  0  0  0  0  0  0  0  0  0  0
   22.3902   -5.6669  -12.7807 O   0  0  0  0  0  0  0  0  0  0  0  0
   22.5789   -5.6135  -15.0371 O   0  0  0  0  0  0  0  0  0  0  0  0
  2  4  1  0
  2  1  1  0
  3  2  2  0
  5  4  1  0
  6  5  1  0
  6  8  1  0
  6  7  1  1
  8 10  1  0
  9  8  2  0
 10 11  1  0
 11 12  1  6
 11 16  1  0
 12 13  1  0
 13 14  1  0
 14 18  1  0
 14 15  2  0
 16 17  2  0
 20 19  1  6
 20 22  1  0
 21 20  1  0
 22 24  1  0
 22 23  1  6
 23 16  1  0
 24 25  1  0
 26 24  2  0
M  END
$$$$
