QEV.pdb
     RDKit          3D

 26 25  0  0  1  0  0  0  0  0999 V2000
   29.4120  -17.5907  -18.3301 N   0  0  0  0  0  0  0  0  0  0  0  0
   28.0126  -17.4401  -18.3436 C   0  0  0  0  0  0  0  0  0  0  0  0
   27.4791  -16.5450  -17.6619 O   0  0  0  0  0  0  0  0  0  0  0  0
   27.1868  -18.3430  -19.1649 C   0  0  0  0  0  0  0  0  0  0  0  0
   26.1923  -19.0662  -18.3148 C   0  0  0  0  0  0  0  0  0  0  0  0
   26.7703  -19.9479  -17.2670 C   0  0  2  0  0  0  0  0  0  0  0  0
   27.4942  -21.0454  -17.8846 N   0  0  0  0  0  0  0  0  0  0  0  0
   25.8157  -20.4999  -16.3025 C   0  0  0  0  0  0  0  0  0  0  0  0
   24.9672  -21.3424  -16.6690 O   0  0  0  0  0  0  0  0  0  0  0  0
   25.7857  -20.1330  -14.9327 N   0  0  0  0  0  0  0  0  0  0  0  0
   24.7912  -20.6707  -13.9795 C   0  0  1  0  0  0  0  0  0  0  0  0
   25.4819  -20.7119  -12.6383 C   0  0  0  0  0  0  0  0  0  0  0  0
   24.6078  -21.2438  -11.5560 C   0  0  0  0  0  0  0  0  0  0  0  0
   25.2452  -21.3810  -10.2347 C   0  0  0  0  0  0  0  0  0  0  0  0
   26.4606  -21.5903  -10.0351 O   0  0  0  0  0  0  0  0  0  0  0  0
   23.5637  -19.8696  -14.0082 C   0  0  0  0  0  0  0  0  0  0  0  0
   23.5179  -18.6367  -13.7982 O   0  0  0  0  0  0  0  0  0  0  0  0
   24.4642  -21.2758   -9.0657 O   0  0  0  0  0  0  0  0  0  0  0  0
   21.3753  -19.1486  -16.7075 C   0  0  0  0  0  0  0  0  0  0  0  0
   20.4237  -19.7612  -15.7045 C   0  0  1  0  0  0  0  0  0  0  0  0
   20.2203  -21.2196  -16.1046 C   0  0  0  0  0  0  0  0  0  0  0  0
   21.0825  -19.6935  -14.3435 C   0  0  2  0  0  0  0  0  0  0  0  0
   22.2898  -20.4878  -14.2924 N   0  0  0  0  0  0  0  0  0  0  0  0
   20.1311  -20.1974  -13.3259 C   0  0  0  0  0  0  0  0  0  0  0  0
   18.9916  -19.4746  -13.0397 O   0  0  0  0  0  0  0  0  0  0  0  0
   20.3204  -21.2769  -12.6988 O   0  0  0  0  0  0  0  0  0  0  0  0
  2  4  1  0
  2  1  1  0
  3  2  2  0
  5  4  1  0
  6  5  1  0
  6  8  1  0
  6  7  1  6
  8 10  1  0
  9  8  2  0
 10 11  1  0
 11 12  1  1
 11 16  1  0
 12 13  1  0
 13 14  1  0
 14 18  1  0
 14 15  2  0
 16 17  2  0
 20 19  1  6
 20 22  1  0
 21 20  1  0
 22 24  1  0
 22 23  1  6
 23 16  1  0
 24 25  1  0
 26 24  2  0
M  END
$$$$
