QEV.pdb
     RDKit          3D

 26 25  0  0  1  0  0  0  0  0999 V2000
   18.5535  -17.3427  -17.1319 N   0  0  0  0  0  0  0  0  0  0  0  0
   17.7659  -17.3916  -15.9663 C   0  0  0  0  0  0  0  0  0  0  0  0
   17.1968  -18.4521  -15.6471 O   0  0  0  0  0  0  0  0  0  0  0  0
   17.6194  -16.1868  -15.1304 C   0  0  0  0  0  0  0  0  0  0  0  0
   18.4561  -15.0696  -15.6656 C   0  0  0  0  0  0  0  0  0  0  0  0
   17.7766  -14.1725  -16.6366 C   0  0  2  0  0  0  0  0  0  0  0  0
   17.7084  -14.8109  -17.9396 N   0  0  0  0  0  0  0  0  0  0  0  0
   18.3699  -12.8426  -16.7967 C   0  0  0  0  0  0  0  0  0  0  0  0
   19.4263  -12.6995  -17.4505 O   0  0  0  0  0  0  0  0  0  0  0  0
   17.8094  -11.6632  -16.2427 N   0  0  0  0  0  0  0  0  0  0  0  0
   18.4066  -10.3241  -16.4346 C   0  0  1  0  0  0  0  0  0  0  0  0
   17.2469   -9.3704  -16.5862 C   0  0  0  0  0  0  0  0  0  0  0  0
   17.6825   -7.9694  -16.8425 C   0  0  0  0  0  0  0  0  0  0  0  0
   16.5980   -6.9799  -16.9678 C   0  0  0  0  0  0  0  0  0  0  0  0
   16.7498   -5.7406  -17.0112 O   0  0  0  0  0  0  0  0  0  0  0  0
   19.3190  -10.0035  -15.3328 C   0  0  0  0  0  0  0  0  0  0  0  0
   19.0425  -10.1458  -14.1205 O   0  0  0  0  0  0  0  0  0  0  0  0
   15.2592   -7.4141  -17.0491 O   0  0  0  0  0  0  0  0  0  0  0  0
   22.9662  -11.0771  -14.7835 C   0  0  0  0  0  0  0  0  0  0  0  0
   22.9463   -9.5650  -14.7763 C   0  0  1  0  0  0  0  0  0  0  0  0
   23.3800   -9.0991  -16.1630 C   0  0  0  0  0  0  0  0  0  0  0  0
   21.5224   -9.1243  -14.5131 C   0  0  2  0  0  0  0  0  0  0  0  0
   20.6401   -9.4849  -15.6005 N   0  0  0  0  0  0  0  0  0  0  0  0
   21.5006   -7.6529  -14.3430 C   0  0  0  0  0  0  0  0  0  0  0  0
   22.0373   -7.0893  -13.2041 O   0  0  0  0  0  0  0  0  0  0  0  0
   21.0045   -6.8791  -15.2088 O   0  0  0  0  0  0  0  0  0  0  0  0
  2  4  1  0
  2  1  1  0
  3  2  2  0
  5  4  1  0
  6  5  1  0
  6  8  1  0
  6  7  1  6
  8 10  1  0
  9  8  2  0
 10 11  1  0
 11 12  1  1
 11 16  1  0
 12 13  1  0
 13 14  1  0
 14 18  1  0
 14 15  2  0
 16 17  2  0
 20 19  1  6
 20 22  1  0
 21 20  1  0
 22 24  1  0
 22 23  1  6
 23 16  1  0
 24 25  1  0
 26 24  2  0
M  END
$$$$
