VPM.pdb
     RDKit          3D

 23 23  0  0  1  0  0  0  0  0999 V2000
   18.4241  -21.7107  -13.1423 C   0  0  0  0  0  0  0  0  0  0  0  0
   19.3801  -20.5514  -12.9849 C   0  0  2  0  0  0  0  0  0  0  0  0
   19.2806  -19.6528  -14.1826 C   0  0  0  0  0  0  0  0  0  0  0  0
   20.7815  -21.1067  -12.7962 C   0  0  2  0  0  0  0  0  0  0  0  0
   21.1365  -21.7783  -14.0046 N   0  0  0  0  0  0  0  0  0  0  0  0
   20.8898  -21.9490  -11.6020 C   0  0  0  0  0  0  0  0  0  0  0  0
   20.5524  -23.1874  -11.6890 O   0  0  0  0  0  0  0  0  0  0  0  0
   21.3568  -21.4250  -10.3585 N   0  0  0  0  0  0  0  0  0  0  0  0
   22.0270  -20.1506  -10.2460 C   0  0  0  0  0  0  0  0  0  0  0  0
   22.5703  -20.1004   -8.8249 C   0  0  0  0  0  0  0  0  0  0  0  0
   21.5163  -20.8947   -8.1050 C   0  0  0  0  0  0  0  0  0  0  0  0
   21.2559  -22.0224   -9.0752 C   0  0  1  0  0  0  0  0  0  0  0  0
   19.9397  -22.6596   -8.7777 C   0  0  0  0  0  0  0  0  0  0  0  0
   18.9136  -22.1479   -9.2678 O   0  0  0  0  0  0  0  0  0  0  0  0
   18.0952  -29.1660   -7.0565 C   0  0  0  0  0  0  0  0  0  0  0  0
   17.2425  -28.3005   -8.3815 S   0  0  0  0  0  0  0  0  0  0  0  0
   17.2132  -26.5290   -7.9774 C   0  0  0  0  0  0  0  0  0  0  0  0
   18.5562  -25.8887   -8.1746 C   0  0  0  0  0  0  0  0  0  0  0  0
   18.5439  -24.4768   -7.7157 C   0  0  2  0  0  0  0  0  0  0  0  0
   19.8273  -23.8159   -7.9638 N   0  0  0  0  0  0  0  0  0  0  0  0
   18.1204  -24.2920   -6.3185 C   0  0  0  0  0  0  0  0  0  0  0  0
   16.8339  -24.2666   -5.8369 O   0  0  0  0  0  0  0  0  0  0  0  0
   19.0371  -24.1344   -5.4444 O   0  0  0  0  0  0  0  0  0  0  0  0
  2  1  1  6
  2  3  1  0
  4  2  1  0
  4  5  1  6
  6  8  1  0
  6  4  1  0
  7  6  2  0
  8  9  1  0
 10  9  1  0
 11 10  1  0
 11 12  1  0
 12  8  1  0
 12 13  1  1
 13 20  1  0
 14 13  2  0
 16 15  1  0
 17 16  1  0
 18 17  1  0
 19 18  1  1
 19 20  1  0
 19 21  1  0
 21 22  1  0
 23 21  2  0
M  END
$$$$
