VPM.pdb
     RDKit          3D

 23 23  0  0  1  0  0  0  0  0999 V2000
   17.5283  -13.1560  -17.1311 C   0  0  0  0  0  0  0  0  0  0  0  0
   18.4967  -12.4466  -16.2137 C   0  0  2  0  0  0  0  0  0  0  0  0
   17.9067  -12.3523  -14.8372 C   0  0  0  0  0  0  0  0  0  0  0  0
   18.8040  -11.0807  -16.8035 C   0  0  2  0  0  0  0  0  0  0  0  0
   19.4259  -11.2971  -18.0698 N   0  0  0  0  0  0  0  0  0  0  0  0
   19.5957  -10.2477  -15.8944 C   0  0  0  0  0  0  0  0  0  0  0  0
   19.1526  -10.0418  -14.7043 O   0  0  0  0  0  0  0  0  0  0  0  0
   20.8348   -9.6669  -16.3021 N   0  0  0  0  0  0  0  0  0  0  0  0
   21.4582   -9.9586  -17.5719 C   0  0  0  0  0  0  0  0  0  0  0  0
   22.8500   -9.3472  -17.4920 C   0  0  0  0  0  0  0  0  0  0  0  0
   22.5735   -8.1612  -16.6105 C   0  0  0  0  0  0  0  0  0  0  0  0
   21.6391   -8.7479  -15.5792 C   0  0  1  0  0  0  0  0  0  0  0  0
   20.8877   -7.6579  -14.8906 C   0  0  0  0  0  0  0  0  0  0  0  0
   19.6465   -7.7526  -14.8190 O   0  0  0  0  0  0  0  0  0  0  0  0
   18.0313   -4.3779   -9.0775 C   0  0  0  0  0  0  0  0  0  0  0  0
   18.8601   -5.7130   -9.9509 S   0  0  0  0  0  0  0  0  0  0  0  0
   19.5865   -5.0334  -11.4717 C   0  0  0  0  0  0  0  0  0  0  0  0
   20.2663   -6.0935  -12.2882 C   0  0  0  0  0  0  0  0  0  0  0  0
   20.8215   -5.5238  -13.5417 C   0  0  2  0  0  0  0  0  0  0  0  0
   21.5397   -6.5331  -14.3233 N   0  0  0  0  0  0  0  0  0  0  0  0
   21.6481   -4.3209  -13.3528 C   0  0  0  0  0  0  0  0  0  0  0  0
   21.2383   -3.0116  -13.4253 O   0  0  0  0  0  0  0  0  0  0  0  0
   22.8858   -4.4953  -13.0938 O   0  0  0  0  0  0  0  0  0  0  0  0
  2  1  1  6
  2  3  1  0
  4  2  1  0
  4  5  1  6
  6  8  1  0
  6  4  1  0
  7  6  2  0
  8  9  1  0
 10  9  1  0
 11 10  1  0
 11 12  1  0
 12  8  1  0
 12 13  1  6
 13 20  1  0
 14 13  2  0
 16 15  1  0
 17 16  1  0
 18 17  1  0
 19 18  1  1
 19 20  1  0
 19 21  1  0
 21 22  1  0
 23 21  2  0
M  END
$$$$
