VPM.pdb
     RDKit          3D

 23 23  0  0  1  0  0  0  0  0999 V2000
   28.4470  -18.5357  -17.4040 C   0  0  0  0  0  0  0  0  0  0  0  0
   27.7567  -18.9901  -16.1393 C   0  0  2  0  0  0  0  0  0  0  0  0
   27.8044  -17.8911  -15.1188 C   0  0  0  0  0  0  0  0  0  0  0  0
   28.4348  -20.2591  -15.6515 C   0  0  2  0  0  0  0  0  0  0  0  0
   28.3437  -21.2187  -16.7041 N   0  0  0  0  0  0  0  0  0  0  0  0
   27.8840  -20.7296  -14.3777 C   0  0  0  0  0  0  0  0  0  0  0  0
   26.6697  -21.1538  -14.3510 O   0  0  0  0  0  0  0  0  0  0  0  0
   28.6619  -20.7246  -13.1804 N   0  0  0  0  0  0  0  0  0  0  0  0
   30.0892  -20.5039  -13.1726 C   0  0  0  0  0  0  0  0  0  0  0  0
   30.5439  -20.8303  -11.7571 C   0  0  0  0  0  0  0  0  0  0  0  0
   29.3275  -20.4110  -10.9796 C   0  0  0  0  0  0  0  0  0  0  0  0
   28.2058  -20.9236  -11.8513 C   0  0  1  0  0  0  0  0  0  0  0  0
   26.9323  -20.2245  -11.5101 C   0  0  0  0  0  0  0  0  0  0  0  0
   26.6261  -19.2070  -12.1624 O   0  0  0  0  0  0  0  0  0  0  0  0
   22.8303  -20.3612  -14.4982 C   0  0  0  0  0  0  0  0  0  0  0  0
   21.6326  -20.4360  -13.1595 S   0  0  0  0  0  0  0  0  0  0  0  0
   22.5119  -20.1601  -11.5933 C   0  0  0  0  0  0  0  0  0  0  0  0
   23.9583  -20.5494  -11.6886 C   0  0  0  0  0  0  0  0  0  0  0  0
   24.6620  -20.2960  -10.4061 C   0  0  2  0  0  0  0  0  0  0  0  0
   26.0733  -20.6813  -10.4778 N   0  0  0  0  0  0  0  0  0  0  0  0
   24.0152  -20.8918   -9.2261 C   0  0  0  0  0  0  0  0  0  0  0  0
   22.9457  -20.3914   -8.5237 O   0  0  0  0  0  0  0  0  0  0  0  0
   24.4889  -21.9949   -8.7926 O   0  0  0  0  0  0  0  0  0  0  0  0
  2  1  1  6
  2  3  1  0
  4  2  1  0
  4  5  1  6
  6  8  1  0
  6  4  1  0
  7  6  2  0
  8  9  1  0
 10  9  1  0
 11 10  1  0
 11 12  1  0
 12  8  1  0
 12 13  1  6
 13 20  1  0
 14 13  2  0
 16 15  1  0
 17 16  1  0
 18 17  1  0
 19 18  1  6
 19 20  1  0
 19 21  1  0
 21 22  1  0
 23 21  2  0
M  END
$$$$
