VPM.pdb
     RDKit          3D

 23 23  0  0  1  0  0  0  0  0999 V2000
   26.3485  -16.4748  -14.0581 C   0  0  0  0  0  0  0  0  0  0  0  0
   26.9763  -16.8740  -15.3731 C   0  0  2  0  0  0  0  0  0  0  0  0
   27.1044  -15.6667  -16.2550 C   0  0  0  0  0  0  0  0  0  0  0  0
   26.1212  -17.9598  -16.0036 C   0  0  2  0  0  0  0  0  0  0  0  0
   24.8914  -17.3531  -16.3995 N   0  0  0  0  0  0  0  0  0  0  0  0
   25.9486  -19.1155  -15.1194 C   0  0  0  0  0  0  0  0  0  0  0  0
   24.9895  -19.0972  -14.2621 O   0  0  0  0  0  0  0  0  0  0  0  0
   26.8164  -20.2470  -15.1914 N   0  0  0  0  0  0  0  0  0  0  0  0
   27.7860  -20.4267  -16.2467 C   0  0  0  0  0  0  0  0  0  0  0  0
   28.3026  -21.8496  -16.0870 C   0  0  0  0  0  0  0  0  0  0  0  0
   28.2093  -22.0045  -14.5945 C   0  0  0  0  0  0  0  0  0  0  0  0
   26.8856  -21.3432  -14.2926 C   0  0  1  0  0  0  0  0  0  0  0  0
   26.8133  -20.9792  -12.8472 C   0  0  0  0  0  0  0  0  0  0  0  0
   27.8824  -20.8000  -12.2310 O   0  0  0  0  0  0  0  0  0  0  0  0
   28.8533  -19.8450   -7.4221 C   0  0  0  0  0  0  0  0  0  0  0  0
   27.2855  -18.9886   -7.6233 S   0  0  0  0  0  0  0  0  0  0  0  0
   26.1485  -20.0864   -8.5201 C   0  0  0  0  0  0  0  0  0  0  0  0
   26.3850  -20.0457  -10.0017 C   0  0  0  0  0  0  0  0  0  0  0  0
   25.4647  -20.9693  -10.7119 C   0  0  2  0  0  0  0  0  0  0  0  0
   25.5777  -20.8337  -12.1660 N   0  0  0  0  0  0  0  0  0  0  0  0
   24.0593  -20.8800  -10.2845 C   0  0  0  0  0  0  0  0  0  0  0  0
   22.9686  -20.5962  -11.0702 O   0  0  0  0  0  0  0  0  0  0  0  0
   23.8084  -21.0843   -9.0498 O   0  0  0  0  0  0  0  0  0  0  0  0
  2  1  1  1
  2  3  1  0
  4  2  1  0
  4  5  1  1
  6  8  1  0
  6  4  1  0
  7  6  2  0
  8  9  1  0
 10  9  1  0
 11 10  1  0
 11 12  1  0
 12  8  1  0
 12 13  1  1
 13 20  1  0
 14 13  2  0
 16 15  1  0
 17 16  1  0
 18 17  1  0
 19 18  1  1
 19 20  1  0
 19 21  1  0
 21 22  1  0
 23 21  2  0
M  END
$$$$
