VPM.pdb
     RDKit          3D

 23 23  0  0  1  0  0  0  0  0999 V2000
   22.5577  -22.7066  -15.8912 C   0  0  0  0  0  0  0  0  0  0  0  0
   23.3985  -22.3759  -14.6803 C   0  0  2  0  0  0  0  0  0  0  0  0
   22.9717  -21.0511  -14.1195 C   0  0  0  0  0  0  0  0  0  0  0  0
   24.8602  -22.3822  -15.0944 C   0  0  2  0  0  0  0  0  0  0  0  0
   25.0861  -23.5842  -15.8301 N   0  0  0  0  0  0  0  0  0  0  0  0
   25.7626  -22.2137  -13.9522 C   0  0  0  0  0  0  0  0  0  0  0  0
   25.9012  -23.1912  -13.1274 O   0  0  0  0  0  0  0  0  0  0  0  0
   26.4810  -20.9979  -13.7411 N   0  0  0  0  0  0  0  0  0  0  0  0
   26.5758  -19.9587  -14.7397 C   0  0  0  0  0  0  0  0  0  0  0  0
   27.6189  -18.9827  -14.2138 C   0  0  0  0  0  0  0  0  0  0  0  0
   27.3907  -19.1157  -12.7338 C   0  0  0  0  0  0  0  0  0  0  0  0
   27.1948  -20.6052  -12.5791 C   0  0  1  0  0  0  0  0  0  0  0  0
   26.5079  -20.8995  -11.2874 C   0  0  0  0  0  0  0  0  0  0  0  0
   25.2897  -21.1639  -11.3152 O   0  0  0  0  0  0  0  0  0  0  0  0
   29.2486  -19.5806   -5.5789 C   0  0  0  0  0  0  0  0  0  0  0  0
   27.5793  -19.8570   -4.9716 S   0  0  0  0  0  0  0  0  0  0  0  0
   26.5413  -20.3680   -6.3729 C   0  0  0  0  0  0  0  0  0  0  0  0
   27.3077  -20.3726   -7.6633 C   0  0  0  0  0  0  0  0  0  0  0  0
   26.4936  -20.9501   -8.7624 C   0  0  2  0  0  0  0  0  0  0  0  0
   27.1952  -20.8865  -10.0466 N   0  0  0  0  0  0  0  0  0  0  0  0
   25.1374  -20.3903   -8.8775 C   0  0  0  0  0  0  0  0  0  0  0  0
   23.9786  -20.9048   -8.3483 O   0  0  0  0  0  0  0  0  0  0  0  0
   25.0048  -19.3078   -9.5409 O   0  0  0  0  0  0  0  0  0  0  0  0
  2  1  1  6
  2  3  1  0
  4  2  1  0
  4  5  1  1
  6  8  1  0
  6  4  1  0
  7  6  2  0
  8  9  1  0
 10  9  1  0
 11 10  1  0
 11 12  1  0
 12  8  1  0
 12 13  1  1
 13 20  1  0
 14 13  2  0
 16 15  1  0
 17 16  1  0
 18 17  1  0
 19 18  1  1
 19 20  1  0
 19 21  1  0
 21 22  1  0
 23 21  2  0
M  END
$$$$
