VPM.pdb
     RDKit          3D

 23 23  0  0  1  0  0  0  0  0999 V2000
   16.2523  -29.0983  -11.1642 C   0  0  0  0  0  0  0  0  0  0  0  0
   16.7154  -28.8028   -9.7568 C   0  0  2  0  0  0  0  0  0  0  0  0
   15.6022  -28.1534   -8.9881 C   0  0  0  0  0  0  0  0  0  0  0  0
   17.9522  -27.9238   -9.8328 C   0  0  2  0  0  0  0  0  0  0  0  0
   18.9333  -28.6383  -10.5838 N   0  0  0  0  0  0  0  0  0  0  0  0
   18.4174  -27.5026   -8.5086 C   0  0  0  0  0  0  0  0  0  0  0  0
   18.7720  -28.4062   -7.6642 O   0  0  0  0  0  0  0  0  0  0  0  0
   18.4821  -26.1238   -8.1435 N   0  0  0  0  0  0  0  0  0  0  0  0
   18.3540  -25.0511   -9.1022 C   0  0  0  0  0  0  0  0  0  0  0  0
   18.7322  -23.7840   -8.3483 C   0  0  0  0  0  0  0  0  0  0  0  0
   18.2482  -24.1360   -6.9692 C   0  0  0  0  0  0  0  0  0  0  0  0
   18.6730  -25.5800   -6.8466 C   0  0  1  0  0  0  0  0  0  0  0  0
   17.8991  -26.2507   -5.7612 C   0  0  0  0  0  0  0  0  0  0  0  0
   16.7344  -26.6197   -6.0102 O   0  0  0  0  0  0  0  0  0  0  0  0
   20.8610  -25.5603    0.6645 C   0  0  0  0  0  0  0  0  0  0  0  0
   20.0991  -26.9968   -0.1021 S   0  0  0  0  0  0  0  0  0  0  0  0
   19.2640  -26.4546   -1.6223 C   0  0  0  0  0  0  0  0  0  0  0  0
   18.5492  -27.5864   -2.3010 C   0  0  0  0  0  0  0  0  0  0  0  0
   17.6714  -27.0843   -3.3881 C   0  0  2  0  0  0  0  0  0  0  0  0
   18.4464  -26.4762   -4.4721 N   0  0  0  0  0  0  0  0  0  0  0  0
   16.5989  -26.1817   -2.9399 C   0  0  0  0  0  0  0  0  0  0  0  0
   15.4077  -26.5340   -2.3532 O   0  0  0  0  0  0  0  0  0  0  0  0
   16.7783  -24.9293   -3.1092 O   0  0  0  0  0  0  0  0  0  0  0  0
  2  1  1  6
  2  3  1  0
  4  2  1  0
  4  5  1  1
  6  8  1  0
  6  4  1  0
  7  6  2  0
  8  9  1  0
 10  9  1  0
 11 10  1  0
 11 12  1  0
 12  8  1  0
 12 13  1  1
 13 20  1  0
 14 13  2  0
 16 15  1  0
 17 16  1  0
 18 17  1  0
 19 18  1  1
 19 20  1  0
 19 21  1  0
 21 22  1  0
 23 21  2  0
M  END
$$$$
