VPM.pdb
     RDKit          3D

 23 23  0  0  1  0  0  0  0  0999 V2000
   23.1361  -15.6660  -15.7225 C   0  0  0  0  0  0  0  0  0  0  0  0
   21.9354  -16.2820  -16.4019 C   0  0  2  0  0  0  0  0  0  0  0  0
   22.0085  -17.7768  -16.2916 C   0  0  0  0  0  0  0  0  0  0  0  0
   21.9070  -15.8117  -17.8462 C   0  0  2  0  0  0  0  0  0  0  0  0
   22.9721  -16.4739  -18.5276 N   0  0  0  0  0  0  0  0  0  0  0  0
   21.9565  -14.3513  -17.9566 C   0  0  0  0  0  0  0  0  0  0  0  0
   23.1059  -13.7775  -18.0250 O   0  0  0  0  0  0  0  0  0  0  0  0
   20.7658  -13.5640  -17.9881 N   0  0  0  0  0  0  0  0  0  0  0  0
   19.4544  -14.1323  -18.1963 C   0  0  0  0  0  0  0  0  0  0  0  0
   18.5258  -12.9454  -18.4110 C   0  0  0  0  0  0  0  0  0  0  0  0
   19.1915  -11.9203  -17.5357 C   0  0  0  0  0  0  0  0  0  0  0  0
   20.6535  -12.1581  -17.8301 C   0  0  1  0  0  0  0  0  0  0  0  0
   21.4954  -11.5762  -16.7441 C   0  0  0  0  0  0  0  0  0  0  0  0
   21.8958  -12.3346  -15.8390 O   0  0  0  0  0  0  0  0  0  0  0  0
   26.6262  -12.1647  -14.5226 C   0  0  0  0  0  0  0  0  0  0  0  0
   26.7574  -10.4523  -15.0540 S   0  0  0  0  0  0  0  0  0  0  0  0
   25.1157   -9.6857  -14.9138 C   0  0  0  0  0  0  0  0  0  0  0  0
   24.1651  -10.2076  -15.9514 C   0  0  0  0  0  0  0  0  0  0  0  0
   22.8010   -9.6586  -15.7460 C   0  0  2  0  0  0  0  0  0  0  0  0
   21.8471  -10.2023  -16.7154 N   0  0  0  0  0  0  0  0  0  0  0  0
   22.7327   -8.1890  -15.7107 C   0  0  0  0  0  0  0  0  0  0  0  0
   22.7818   -7.3815  -14.6003 O   0  0  0  0  0  0  0  0  0  0  0  0
   22.6125   -7.5811  -16.8267 O   0  0  0  0  0  0  0  0  0  0  0  0
  2  1  1  6
  2  3  1  0
  4  2  1  0
  4  5  1  6
  6  8  1  0
  6  4  1  0
  7  6  2  0
  8  9  1  0
 10  9  1  0
 11 10  1  0
 11 12  1  0
 12  8  1  0
 12 13  1  1
 13 20  1  0
 14 13  2  0
 16 15  1  0
 17 16  1  0
 18 17  1  0
 19 18  1  6
 19 20  1  0
 19 21  1  0
 21 22  1  0
 23 21  2  0
M  END
$$$$
