VPM.pdb
     RDKit          3D

 23 23  0  0  1  0  0  0  0  0999 V2000
   29.2778  -34.1229   -7.2402 C   0  0  0  0  0  0  0  0  0  0  0  0
   29.5137  -34.7781   -5.8994 C   0  0  2  0  0  0  0  0  0  0  0  0
   29.5973  -33.7248   -4.8339 C   0  0  0  0  0  0  0  0  0  0  0  0
   30.7818  -35.6099   -5.9879 C   0  0  2  0  0  0  0  0  0  0  0  0
   30.6042  -36.5393   -7.0566 N   0  0  0  0  0  0  0  0  0  0  0  0
   31.1231  -36.2414   -4.7104 C   0  0  0  0  0  0  0  0  0  0  0  0
   30.2398  -36.9757   -4.1310 O   0  0  0  0  0  0  0  0  0  0  0  0
   32.4028  -36.0572   -4.1046 N   0  0  0  0  0  0  0  0  0  0  0  0
   33.5174  -35.4500   -4.7939 C   0  0  0  0  0  0  0  0  0  0  0  0
   34.7253  -35.6802   -3.8967 C   0  0  0  0  0  0  0  0  0  0  0  0
   34.0690  -35.6380   -2.5448 C   0  0  0  0  0  0  0  0  0  0  0  0
   32.7971  -36.4147   -2.7890 C   0  0  1  0  0  0  0  0  0  0  0  0
   31.7970  -36.1065   -1.7251 C   0  0  0  0  0  0  0  0  0  0  0  0
   30.6308  -35.8363   -2.0738 O   0  0  0  0  0  0  0  0  0  0  0  0
   26.5384  -37.5171    2.9979 C   0  0  0  0  0  0  0  0  0  0  0  0
   27.6736  -37.8696    1.6492 S   0  0  0  0  0  0  0  0  0  0  0  0
   29.0194  -36.6498    1.7047 C   0  0  0  0  0  0  0  0  0  0  0  0
   30.0230  -36.8751    0.6116 C   0  0  0  0  0  0  0  0  0  0  0  0
   31.1367  -35.8976    0.7035 C   0  0  2  0  0  0  0  0  0  0  0  0
   32.1340  -36.1131   -0.3473 N   0  0  0  0  0  0  0  0  0  0  0  0
   31.7768  -35.8231    2.0266 C   0  0  0  0  0  0  0  0  0  0  0  0
   31.3803  -35.0620    3.0995 O   0  0  0  0  0  0  0  0  0  0  0  0
   32.8181  -36.5369    2.2148 O   0  0  0  0  0  0  0  0  0  0  0  0
  2  1  1  6
  2  3  1  0
  4  2  1  0
  4  5  1  6
  6  8  1  0
  6  4  1  0
  7  6  2  0
  8  9  1  0
 10  9  1  0
 11 10  1  0
 11 12  1  0
 12  8  1  0
 12 13  1  1
 13 20  1  0
 14 13  2  0
 16 15  1  0
 17 16  1  0
 18 17  1  0
 19 18  1  1
 19 20  1  0
 19 21  1  0
 21 22  1  0
 23 21  2  0
M  END
$$$$
