VPM.pdb
     RDKit          3D

 23 23  0  0  1  0  0  0  0  0999 V2000
   22.7731  -20.9498  -13.4127 C   0  0  0  0  0  0  0  0  0  0  0  0
   23.6257  -20.1794  -14.3935 C   0  0  2  0  0  0  0  0  0  0  0  0
   22.7647  -19.6610  -15.5079 C   0  0  0  0  0  0  0  0  0  0  0  0
   24.7276  -21.0966  -14.8959 C   0  0  2  0  0  0  0  0  0  0  0  0
   24.1006  -22.1488  -15.6287 N   0  0  0  0  0  0  0  0  0  0  0  0
   25.5942  -21.5698  -13.8131 C   0  0  0  0  0  0  0  0  0  0  0  0
   25.2353  -22.6102  -13.1470 O   0  0  0  0  0  0  0  0  0  0  0  0
   26.8145  -20.9035  -13.4881 N   0  0  0  0  0  0  0  0  0  0  0  0
   27.4266  -19.9211  -14.3521 C   0  0  0  0  0  0  0  0  0  0  0  0
   28.8057  -19.6627  -13.7617 C   0  0  0  0  0  0  0  0  0  0  0  0
   28.5156  -19.8639  -12.3004 C   0  0  0  0  0  0  0  0  0  0  0  0
   27.6085  -21.0712  -12.3239 C   0  0  1  0  0  0  0  0  0  0  0  0
   26.8431  -21.1611  -11.0460 C   0  0  0  0  0  0  0  0  0  0  0  0
   25.6038  -21.0316  -11.0916 O   0  0  0  0  0  0  0  0  0  0  0  0
   29.3957  -19.0775   -5.4511 C   0  0  0  0  0  0  0  0  0  0  0  0
   28.1647  -20.2074   -4.7879 S   0  0  0  0  0  0  0  0  0  0  0  0
   27.0253  -20.6590   -6.1296 C   0  0  0  0  0  0  0  0  0  0  0  0
   27.7458  -20.8575   -7.4312 C   0  0  0  0  0  0  0  0  0  0  0  0
   26.7926  -21.1855   -8.5211 C   0  0  2  0  0  0  0  0  0  0  0  0
   27.4798  -21.3871   -9.7987 N   0  0  0  0  0  0  0  0  0  0  0  0
   25.6810  -20.2323   -8.6682 C   0  0  0  0  0  0  0  0  0  0  0  0
   24.3737  -20.4154   -8.2874 O   0  0  0  0  0  0  0  0  0  0  0  0
   25.9426  -19.1063   -9.2095 O   0  0  0  0  0  0  0  0  0  0  0  0
  2  1  1  1
  2  3  1  0
  4  2  1  0
  4  5  1  1
  6  8  1  0
  6  4  1  0
  7  6  2  0
  8  9  1  0
 10  9  1  0
 11 10  1  0
 11 12  1  0
 12  8  1  0
 12 13  1  1
 13 20  1  0
 14 13  2  0
 16 15  1  0
 17 16  1  0
 18 17  1  0
 19 18  1  1
 19 20  1  0
 19 21  1  0
 21 22  1  0
 23 21  2  0
M  END
$$$$
