DIT.pdb
     RDKit          3D

 24 23  0  0  1  0  0  0  0  0999 V2000
    7.6916  -15.3743   20.5578 N   0  0  0  0  0  0  0  0  0  0  0  0
    7.0729  -15.9384   21.7309 C   0  0  1  0  0  0  0  0  0  0  0  0
    6.8931  -17.4071   21.5876 C   0  0  0  0  0  0  0  0  0  0  0  0
    6.0999  -17.8207   20.4130 C   0  0  0  0  0  0  0  0  0  0  0  0
    5.0414  -17.2665   20.0812 O   0  0  0  0  0  0  0  0  0  0  0  0
    7.9027  -15.5676   22.9108 C   0  0  0  0  0  0  0  0  0  0  0  0
    9.1566  -15.5695   22.8129 O   0  0  0  0  0  0  0  0  0  0  0  0
    6.5192  -18.8887   19.5967 O   0  0  0  0  0  0  0  0  0  0  0  0
    6.0229  -11.7390   26.1059 C   0  0  0  0  0  0  0  0  0  0  0  0
    6.9085  -12.6713   25.3251 C   0  0  0  0  0  0  0  0  0  0  0  0
    7.4149  -13.8181   26.1767 C   0  0  2  0  0  0  0  0  0  0  0  0
    8.3202  -13.3259   27.2805 C   0  0  0  0  0  0  0  0  0  0  0  0
    8.0695  -14.8861   25.3276 C   0  0  2  0  0  0  0  0  0  0  0  0
    7.3362  -15.2123   24.1452 N   0  0  0  0  0  0  0  0  0  0  0  0
    8.4411  -16.0769   26.1315 C   0  0  0  0  0  0  0  0  0  0  0  0
    7.5872  -16.6995   26.8328 O   0  0  0  0  0  0  0  0  0  0  0  0
   10.2502  -19.0641   24.7408 C   0  0  0  0  0  0  0  0  0  0  0  0
   11.0345  -18.6960   25.9850 C   0  0  1  0  0  0  0  0  0  0  0  0
   12.1786  -18.0426   25.5723 O   0  0  0  0  0  0  0  0  0  0  0  0
   10.1365  -17.8186   26.8252 C   0  0  2  0  0  0  0  0  0  0  0  0
    9.7642  -16.5949   26.1696 N   0  0  0  0  0  0  0  0  0  0  0  0
   10.7465  -17.5862   28.1433 C   0  0  0  0  0  0  0  0  0  0  0  0
   11.0993  -16.4585   28.5643 O   0  0  0  0  0  0  0  0  0  0  0  0
   10.9472  -18.6756   28.9777 O   0  0  0  0  0  0  0  0  0  0  0  0
  2  1  1  6
  2  3  1  0
  3  4  1  0
  4  8  1  0
  5  4  2  0
  6 14  1  0
  6  2  1  0
  7  6  2  0
  9 10  1  0
 11 10  1  0
 11 13  1  0
 11 12  1  1
 13 14  1  6
 15 13  1  0
 15 16  2  0
 18 17  1  6
 19 18  1  0
 20 21  1  6
 20 18  1  0
 21 15  1  0
 22 20  1  0
 23 22  2  0
 24 22  1  0
M  END
$$$$
