DIT.pdb
     RDKit          3D

 24 23  0  0  1  0  0  0  0  0999 V2000
   10.3431  -16.8811   16.3469 N   0  0  0  0  0  0  0  0  0  0  0  0
    9.9775  -17.6327   17.5210 C   0  0  1  0  0  0  0  0  0  0  0  0
   10.7651  -18.8898   17.6188 C   0  0  0  0  0  0  0  0  0  0  0  0
   10.4442  -19.9012   16.5921 C   0  0  0  0  0  0  0  0  0  0  0  0
    9.6776  -19.6827   15.6424 O   0  0  0  0  0  0  0  0  0  0  0  0
   10.1496  -16.7464   18.7055 C   0  0  0  0  0  0  0  0  0  0  0  0
   11.3003  -16.3486   19.0209 O   0  0  0  0  0  0  0  0  0  0  0  0
   11.0076  -21.1906   16.6462 O   0  0  0  0  0  0  0  0  0  0  0  0
    7.0417  -12.5010   19.6243 C   0  0  0  0  0  0  0  0  0  0  0  0
    8.1806  -13.4839   19.6171 C   0  0  0  0  0  0  0  0  0  0  0  0
    8.0941  -14.4602   20.7731 C   0  0  2  0  0  0  0  0  0  0  0  0
    8.1192  -13.7433   22.1019 C   0  0  0  0  0  0  0  0  0  0  0  0
    9.1632  -15.5266   20.6733 C   0  0  2  0  0  0  0  0  0  0  0  0
    9.0665  -16.3314   19.4964 N   0  0  0  0  0  0  0  0  0  0  0  0
    9.2619  -16.3250   21.9203 C   0  0  0  0  0  0  0  0  0  0  0  0
    8.2602  -16.9382   22.3991 O   0  0  0  0  0  0  0  0  0  0  0  0
   11.6975  -19.0249   22.4157 C   0  0  0  0  0  0  0  0  0  0  0  0
   11.8570  -18.2110   23.6849 C   0  0  1  0  0  0  0  0  0  0  0  0
   13.0312  -17.4940   23.5695 O   0  0  0  0  0  0  0  0  0  0  0  0
   10.6413  -17.3204   23.7899 C   0  0  2  0  0  0  0  0  0  0  0  0
   10.4719  -16.4555   22.6545 N   0  0  0  0  0  0  0  0  0  0  0  0
   10.6652  -16.5802   25.0608 C   0  0  0  0  0  0  0  0  0  0  0  0
   10.6584  -17.1252   26.1905 O   0  0  0  0  0  0  0  0  0  0  0  0
   10.6971  -15.1945   25.0157 O   0  0  0  0  0  0  0  0  0  0  0  0
  2  1  1  6
  2  3  1  0
  3  4  1  0
  4  8  1  0
  5  4  2  0
  6 14  1  0
  6  2  1  0
  7  6  2  0
  9 10  1  0
 11 10  1  0
 11 13  1  0
 11 12  1  1
 13 14  1  6
 15 13  1  0
 15 16  2  0
 18 17  1  6
 19 18  1  0
 20 21  1  6
 20 18  1  0
 21 15  1  0
 22 20  1  0
 23 22  2  0
 24 22  1  0
M  END
$$$$
