DIT.pdb
     RDKit          3D

 24 23  0  0  1  0  0  0  0  0999 V2000
    8.1246  -14.5686   20.1224 N   0  0  0  0  0  0  0  0  0  0  0  0
    7.4293  -15.2386   21.1923 C   0  0  1  0  0  0  0  0  0  0  0  0
    7.3578  -16.7036   20.9497 C   0  0  0  0  0  0  0  0  0  0  0  0
    6.6144  -17.0930   19.7350 C   0  0  0  0  0  0  0  0  0  0  0  0
    6.3926  -16.3126   18.7972 O   0  0  0  0  0  0  0  0  0  0  0  0
    8.1128  -14.8947   22.4702 C   0  0  0  0  0  0  0  0  0  0  0  0
    9.3622  -14.7516   22.4867 O   0  0  0  0  0  0  0  0  0  0  0  0
    6.1113  -18.3994   19.5825 O   0  0  0  0  0  0  0  0  0  0  0  0
    5.7234  -11.5661   25.9444 C   0  0  0  0  0  0  0  0  0  0  0  0
    6.7657  -12.3211   25.1655 C   0  0  0  0  0  0  0  0  0  0  0  0
    7.1711  -13.6063   25.8589 C   0  0  2  0  0  0  0  0  0  0  0  0
    7.8532  -13.3288   27.1772 C   0  0  0  0  0  0  0  0  0  0  0  0
    8.0072  -14.4811   24.9503 C   0  0  2  0  0  0  0  0  0  0  0  0
    7.4114  -14.7221   23.6740 N   0  0  0  0  0  0  0  0  0  0  0  0
    8.4460  -15.7231   25.6337 C   0  0  0  0  0  0  0  0  0  0  0  0
    7.6126  -16.5828   26.0520 O   0  0  0  0  0  0  0  0  0  0  0  0
   11.8957  -19.1140   26.2815 C   0  0  0  0  0  0  0  0  0  0  0  0
   11.5752  -17.7451   25.7136 C   0  0  1  0  0  0  0  0  0  0  0  0
   11.4577  -17.8842   24.3450 O   0  0  0  0  0  0  0  0  0  0  0  0
   10.2889  -17.2917   26.3633 C   0  0  2  0  0  0  0  0  0  0  0  0
    9.8147  -16.0304   25.8633 N   0  0  0  0  0  0  0  0  0  0  0  0
   10.4328  -17.2970   27.8272 C   0  0  0  0  0  0  0  0  0  0  0  0
   10.6723  -16.2741   28.5125 O   0  0  0  0  0  0  0  0  0  0  0  0
   10.2967  -18.5031   28.4982 O   0  0  0  0  0  0  0  0  0  0  0  0
  2  1  1  6
  2  3  1  0
  3  4  1  0
  4  8  1  0
  5  4  2  0
  6 14  1  0
  6  2  1  0
  7  6  2  0
  9 10  1  0
 11 10  1  0
 11 13  1  0
 11 12  1  1
 13 14  1  6
 15 13  1  0
 15 16  2  0
 18 17  1  1
 19 18  1  0
 20 21  1  6
 20 18  1  0
 21 15  1  0
 22 20  1  0
 23 22  2  0
 24 22  1  0
M  END
$$$$
