DIT.pdb
     RDKit          3D

 24 23  0  0  1  0  0  0  0  0999 V2000
    8.6454  -17.3307   17.0585 N   0  0  0  0  0  0  0  0  0  0  0  0
    9.6335  -17.9120   17.9320 C   0  0  1  0  0  0  0  0  0  0  0  0
   10.8635  -18.2770   17.1809 C   0  0  0  0  0  0  0  0  0  0  0  0
   10.6651  -19.2904   16.1258 C   0  0  0  0  0  0  0  0  0  0  0  0
    9.5499  -19.7331   15.8128 O   0  0  0  0  0  0  0  0  0  0  0  0
    9.8930  -16.9480   19.0373 C   0  0  0  0  0  0  0  0  0  0  0  0
   11.0774  -16.7063   19.3846 O   0  0  0  0  0  0  0  0  0  0  0  0
   11.7594  -19.8130   15.4099 O   0  0  0  0  0  0  0  0  0  0  0  0
    7.0133  -12.3688   19.7689 C   0  0  0  0  0  0  0  0  0  0  0  0
    8.1137  -13.3945   19.7740 C   0  0  0  0  0  0  0  0  0  0  0  0
    8.0058  -14.3357   20.9570 C   0  0  2  0  0  0  0  0  0  0  0  0
    8.0914  -13.5870   22.2655 C   0  0  0  0  0  0  0  0  0  0  0  0
    9.0220  -15.4533   20.8649 C   0  0  2  0  0  0  0  0  0  0  0  0
    8.8567  -16.2896   19.7180 N   0  0  0  0  0  0  0  0  0  0  0  0
    9.1179  -16.2156   22.1345 C   0  0  0  0  0  0  0  0  0  0  0  0
    8.1338  -16.8709   22.5934 O   0  0  0  0  0  0  0  0  0  0  0  0
   11.9287  -18.4110   25.5153 C   0  0  0  0  0  0  0  0  0  0  0  0
   11.9184  -17.4992   24.3039 C   0  0  1  0  0  0  0  0  0  0  0  0
   12.4440  -18.2138   23.2460 O   0  0  0  0  0  0  0  0  0  0  0  0
   10.4815  -17.0937   24.0732 C   0  0  2  0  0  0  0  0  0  0  0  0
   10.3057  -16.2627   22.9138 N   0  0  0  0  0  0  0  0  0  0  0  0
    9.9269  -16.4829   25.2910 C   0  0  0  0  0  0  0  0  0  0  0  0
    9.5341  -17.1358   26.2872 O   0  0  0  0  0  0  0  0  0  0  0  0
    9.8290  -15.1007   25.3488 O   0  0  0  0  0  0  0  0  0  0  0  0
  2  1  1  6
  2  3  1  0
  3  4  1  0
  4  8  1  0
  5  4  2  0
  6 14  1  0
  6  2  1  0
  7  6  2  0
  9 10  1  0
 11 10  1  0
 11 13  1  0
 11 12  1  1
 13 14  1  6
 15 13  1  0
 15 16  2  0
 18 17  1  1
 19 18  1  0
 20 21  1  6
 20 18  1  0
 21 15  1  0
 22 20  1  0
 23 22  2  0
 24 22  1  0
M  END
$$$$
