DIT.pdb
     RDKit          3D

 24 23  0  0  1  0  0  0  0  0999 V2000
    8.4736  -14.6645   20.3808 N   0  0  0  0  0  0  0  0  0  0  0  0
    7.6445  -15.2404   21.4094 C   0  0  1  0  0  0  0  0  0  0  0  0
    7.3903  -16.6815   21.1476 C   0  0  0  0  0  0  0  0  0  0  0  0
    6.6754  -16.9637   19.8870 C   0  0  0  0  0  0  0  0  0  0  0  0
    6.7001  -16.2017   18.9091 O   0  0  0  0  0  0  0  0  0  0  0  0
    8.3054  -14.9967   22.7217 C   0  0  0  0  0  0  0  0  0  0  0  0
    9.5611  -14.9826   22.7910 O   0  0  0  0  0  0  0  0  0  0  0  0
    5.9147  -18.1388   19.7343 O   0  0  0  0  0  0  0  0  0  0  0  0
    5.9536  -11.6460   26.3452 C   0  0  0  0  0  0  0  0  0  0  0  0
    6.9456  -12.4131   25.5141 C   0  0  0  0  0  0  0  0  0  0  0  0
    7.2754  -13.7602   26.1253 C   0  0  2  0  0  0  0  0  0  0  0  0
    7.8852  -13.6072   27.4982 C   0  0  0  0  0  0  0  0  0  0  0  0
    8.1409  -14.5870   25.1993 C   0  0  2  0  0  0  0  0  0  0  0  0
    7.5754  -14.7801   23.9012 N   0  0  0  0  0  0  0  0  0  0  0  0
    8.5792  -15.8520   25.8394 C   0  0  0  0  0  0  0  0  0  0  0  0
    7.7444  -16.7056   26.2674 O   0  0  0  0  0  0  0  0  0  0  0  0
   12.0563  -19.2531   26.4438 C   0  0  0  0  0  0  0  0  0  0  0  0
   11.7526  -17.8628   25.9207 C   0  0  1  0  0  0  0  0  0  0  0  0
   11.7366  -17.9359   24.5420 O   0  0  0  0  0  0  0  0  0  0  0  0
   10.4147  -17.4611   26.4959 C   0  0  2  0  0  0  0  0  0  0  0  0
    9.9488  -16.1896   26.0143 N   0  0  0  0  0  0  0  0  0  0  0  0
   10.4567  -17.5237   27.9649 C   0  0  0  0  0  0  0  0  0  0  0  0
   10.3345  -18.5827   28.6259 O   0  0  0  0  0  0  0  0  0  0  0  0
   10.6424  -16.3438   28.6696 O   0  0  0  0  0  0  0  0  0  0  0  0
  2  1  1  6
  2  3  1  0
  3  4  1  0
  4  8  1  0
  5  4  2  0
  6 14  1  0
  6  2  1  0
  7  6  2  0
  9 10  1  0
 11 10  1  0
 11 13  1  0
 11 12  1  1
 13 14  1  6
 15 13  1  0
 15 16  2  0
 18 17  1  1
 19 18  1  0
 20 21  1  1
 20 18  1  0
 21 15  1  0
 22 20  1  0
 23 22  2  0
 24 22  1  0
M  END
$$$$
