DIT.pdb
     RDKit          3D

 24 23  0  0  1  0  0  0  0  0999 V2000
    8.2492  -14.7586   20.2947 N   0  0  0  0  0  0  0  0  0  0  0  0
    7.4148  -15.2886   21.3434 C   0  0  1  0  0  0  0  0  0  0  0  0
    7.1175  -16.7272   21.1155 C   0  0  0  0  0  0  0  0  0  0  0  0
    6.3907  -17.0170   19.8634 C   0  0  0  0  0  0  0  0  0  0  0  0
    6.5703  -16.3822   18.8135 O   0  0  0  0  0  0  0  0  0  0  0  0
    8.0956  -15.0356   22.6437 C   0  0  0  0  0  0  0  0  0  0  0  0
    9.3522  -15.0339   22.6963 O   0  0  0  0  0  0  0  0  0  0  0  0
    5.4378  -18.0520   19.8032 O   0  0  0  0  0  0  0  0  0  0  0  0
    5.9692  -11.5118   26.0709 C   0  0  0  0  0  0  0  0  0  0  0  0
    6.9447  -12.3696   25.3121 C   0  0  0  0  0  0  0  0  0  0  0  0
    7.2180  -13.6806   26.0217 C   0  0  2  0  0  0  0  0  0  0  0  0
    7.9206  -13.4571   27.3395 C   0  0  0  0  0  0  0  0  0  0  0  0
    7.9653  -14.6450   25.1264 C   0  0  2  0  0  0  0  0  0  0  0  0
    7.3837  -14.7966   23.8299 N   0  0  0  0  0  0  0  0  0  0  0  0
    8.2232  -15.9389   25.8057 C   0  0  0  0  0  0  0  0  0  0  0  0
    7.2791  -16.6455   26.2725 O   0  0  0  0  0  0  0  0  0  0  0  0
    9.9663  -18.8079   24.3424 C   0  0  0  0  0  0  0  0  0  0  0  0
   10.7047  -18.6084   25.6515 C   0  0  1  0  0  0  0  0  0  0  0  0
   11.9027  -17.9879   25.3583 O   0  0  0  0  0  0  0  0  0  0  0  0
    9.8141  -17.7638   26.5323 C   0  0  2  0  0  0  0  0  0  0  0  0
    9.5310  -16.4686   25.9772 N   0  0  0  0  0  0  0  0  0  0  0  0
   10.3760  -17.6823   27.8893 C   0  0  0  0  0  0  0  0  0  0  0  0
   10.7491  -16.6146   28.4313 O   0  0  0  0  0  0  0  0  0  0  0  0
   10.5044  -18.8537   28.6206 O   0  0  0  0  0  0  0  0  0  0  0  0
  2  1  1  6
  2  3  1  0
  3  4  1  0
  4  8  1  0
  5  4  2  0
  6 14  1  0
  6  2  1  0
  7  6  2  0
  9 10  1  0
 11 10  1  0
 11 13  1  0
 11 12  1  1
 13 14  1  6
 15 13  1  0
 15 16  2  0
 18 17  1  6
 19 18  1  0
 20 21  1  6
 20 18  1  0
 21 15  1  0
 22 20  1  0
 23 22  2  0
 24 22  1  0
M  END
$$$$
