DIT.pdb
     RDKit          3D

 24 23  0  0  1  0  0  0  0  0999 V2000
    8.3951  -15.1394   20.4811 N   0  0  0  0  0  0  0  0  0  0  0  0
    7.7990  -15.8511   21.5834 C   0  0  1  0  0  0  0  0  0  0  0  0
    7.8853  -17.3213   21.3808 C   0  0  0  0  0  0  0  0  0  0  0  0
    7.2460  -17.8131   20.1442 C   0  0  0  0  0  0  0  0  0  0  0  0
    6.1363  -17.4213   19.7534 O   0  0  0  0  0  0  0  0  0  0  0  0
    8.4648  -15.3978   22.8363 C   0  0  0  0  0  0  0  0  0  0  0  0
    9.7164  -15.2777   22.8654 O   0  0  0  0  0  0  0  0  0  0  0  0
    7.8823  -18.7722   19.3331 O   0  0  0  0  0  0  0  0  0  0  0  0
    6.0419  -11.7387   25.9095 C   0  0  0  0  0  0  0  0  0  0  0  0
    7.0790  -12.5835   25.2211 C   0  0  0  0  0  0  0  0  0  0  0  0
    7.4951  -13.7707   26.0662 C   0  0  2  0  0  0  0  0  0  0  0  0
    8.1941  -13.3288   27.3297 C   0  0  0  0  0  0  0  0  0  0  0  0
    8.3203  -14.7539   25.2648 C   0  0  2  0  0  0  0  0  0  0  0  0
    7.7441  -15.0958   24.0026 N   0  0  0  0  0  0  0  0  0  0  0  0
    8.7021  -15.9388   26.0726 C   0  0  0  0  0  0  0  0  0  0  0  0
    7.8301  -16.7070   26.5806 O   0  0  0  0  0  0  0  0  0  0  0  0
   11.9857  -19.4138   27.0398 C   0  0  0  0  0  0  0  0  0  0  0  0
   11.7747  -18.0499   26.4121 C   0  0  1  0  0  0  0  0  0  0  0  0
   11.7470  -18.2264   25.0430 O   0  0  0  0  0  0  0  0  0  0  0  0
   10.4702  -17.5151   26.9546 C   0  0  2  0  0  0  0  0  0  0  0  0
   10.0554  -16.2894   26.3290 N   0  0  0  0  0  0  0  0  0  0  0  0
   10.5405  -17.4019   28.4195 C   0  0  0  0  0  0  0  0  0  0  0  0
   10.6429  -16.3139   29.0351 O   0  0  0  0  0  0  0  0  0  0  0  0
   10.4911  -18.5650   29.1733 O   0  0  0  0  0  0  0  0  0  0  0  0
  2  1  1  6
  2  3  1  0
  3  4  1  0
  4  8  1  0
  5  4  2  0
  6 14  1  0
  6  2  1  0
  7  6  2  0
  9 10  1  0
 11 10  1  0
 11 13  1  0
 11 12  1  1
 13 14  1  6
 15 13  1  0
 15 16  2  0
 18 17  1  1
 19 18  1  0
 20 21  1  6
 20 18  1  0
 21 15  1  0
 22 20  1  0
 23 22  2  0
 24 22  1  0
M  END
$$$$
