DIT.pdb
     RDKit          3D

 24 23  0  0  1  0  0  0  0  0999 V2000
    9.6195  -17.8761   16.8899 N   0  0  0  0  0  0  0  0  0  0  0  0
    8.5618  -17.7424   17.8597 C   0  0  1  0  0  0  0  0  0  0  0  0
    8.0783  -19.0736   18.3115 C   0  0  0  0  0  0  0  0  0  0  0  0
    8.0540  -20.1110   17.2613 C   0  0  0  0  0  0  0  0  0  0  0  0
    8.5190  -19.9360   16.1253 O   0  0  0  0  0  0  0  0  0  0  0  0
    9.0682  -16.8986   18.9777 C   0  0  0  0  0  0  0  0  0  0  0  0
   10.3076  -16.7918   19.1624 O   0  0  0  0  0  0  0  0  0  0  0  0
    7.4879  -21.3766   17.5079 O   0  0  0  0  0  0  0  0  0  0  0  0
    7.0631  -12.0414   20.1238 C   0  0  0  0  0  0  0  0  0  0  0  0
    7.9698  -13.2362   20.0086 C   0  0  0  0  0  0  0  0  0  0  0  0
    7.8206  -14.1768   21.1875 C   0  0  2  0  0  0  0  0  0  0  0  0
    8.1592  -13.4875   22.4877 C   0  0  0  0  0  0  0  0  0  0  0  0
    8.6193  -15.4458   20.9830 C   0  0  2  0  0  0  0  0  0  0  0  0
    8.2081  -16.2089   19.8469 N   0  0  0  0  0  0  0  0  0  0  0  0
    8.7028  -16.2499   22.2274 C   0  0  0  0  0  0  0  0  0  0  0  0
    7.6624  -16.6317   22.8442 O   0  0  0  0  0  0  0  0  0  0  0  0
   10.1888  -19.5504   22.7192 C   0  0  0  0  0  0  0  0  0  0  0  0
   10.9107  -18.7008   23.7466 C   0  0  1  0  0  0  0  0  0  0  0  0
   12.1545  -18.3975   23.2297 O   0  0  0  0  0  0  0  0  0  0  0  0
   10.0615  -17.4722   23.9736 C   0  0  2  0  0  0  0  0  0  0  0  0
    9.9402  -16.6427   22.8061 N   0  0  0  0  0  0  0  0  0  0  0  0
   10.5526  -16.7271   25.1429 C   0  0  0  0  0  0  0  0  0  0  0  0
   10.9893  -15.5523   25.0937 O   0  0  0  0  0  0  0  0  0  0  0  0
   10.5352  -17.3553   26.3792 O   0  0  0  0  0  0  0  0  0  0  0  0
  2  1  1  6
  2  3  1  0
  3  4  1  0
  4  8  1  0
  5  4  2  0
  6 14  1  0
  6  2  1  0
  7  6  2  0
  9 10  1  0
 11 10  1  0
 11 13  1  0
 11 12  1  1
 13 14  1  6
 15 13  1  0
 15 16  2  0
 18 17  1  6
 19 18  1  0
 20 21  1  6
 20 18  1  0
 21 15  1  0
 22 20  1  0
 23 22  2  0
 24 22  1  0
M  END
$$$$
