DIT.pdb
     RDKit          3D

 24 23  0  0  1  0  0  0  0  0999 V2000
    9.3301  -18.2522   17.3049 N   0  0  0  0  0  0  0  0  0  0  0  0
    8.3618  -18.1090   18.3628 C   0  0  1  0  0  0  0  0  0  0  0  0
    7.9810  -19.4325   18.9227 C   0  0  0  0  0  0  0  0  0  0  0  0
    7.2248  -20.3000   17.9978 C   0  0  0  0  0  0  0  0  0  0  0  0
    7.0812  -20.0435   16.7932 O   0  0  0  0  0  0  0  0  0  0  0  0
    8.9320  -17.1885   19.3855 C   0  0  0  0  0  0  0  0  0  0  0  0
   10.1711  -17.1910   19.6007 O   0  0  0  0  0  0  0  0  0  0  0  0
    6.6176  -21.4864   18.4525 O   0  0  0  0  0  0  0  0  0  0  0  0
    6.8297  -12.2113   19.9476 C   0  0  0  0  0  0  0  0  0  0  0  0
    7.7480  -13.4020   19.9017 C   0  0  0  0  0  0  0  0  0  0  0  0
    7.8044  -14.1260   21.2319 C   0  0  2  0  0  0  0  0  0  0  0  0
    8.3022  -13.2187   22.3316 C   0  0  0  0  0  0  0  0  0  0  0  0
    8.6102  -15.4028   21.1293 C   0  0  2  0  0  0  0  0  0  0  0  0
    8.1331  -16.3068   20.1306 N   0  0  0  0  0  0  0  0  0  0  0  0
    8.7976  -16.0431   22.4548 C   0  0  0  0  0  0  0  0  0  0  0  0
    7.8111  -16.4182   23.1583 O   0  0  0  0  0  0  0  0  0  0  0  0
   10.4355  -19.1358   23.1092 C   0  0  0  0  0  0  0  0  0  0  0  0
   11.1683  -18.2203   24.0703 C   0  0  1  0  0  0  0  0  0  0  0  0
   12.3963  -17.9319   23.5089 O   0  0  0  0  0  0  0  0  0  0  0  0
   10.3078  -16.9912   24.2464 C   0  0  2  0  0  0  0  0  0  0  0  0
   10.0807  -16.2771   23.0198 N   0  0  0  0  0  0  0  0  0  0  0  0
   10.8649  -16.1311   25.3017 C   0  0  0  0  0  0  0  0  0  0  0  0
   11.2729  -14.9606   25.1104 O   0  0  0  0  0  0  0  0  0  0  0  0
   10.9474  -16.6384   26.5898 O   0  0  0  0  0  0  0  0  0  0  0  0
  2  1  1  6
  2  3  1  0
  3  4  1  0
  4  8  1  0
  5  4  2  0
  6 14  1  0
  6  2  1  0
  7  6  2  0
  9 10  1  0
 11 10  1  0
 11 13  1  0
 11 12  1  1
 13 14  1  6
 15 13  1  0
 15 16  2  0
 18 17  1  6
 19 18  1  0
 20 21  1  6
 20 18  1  0
 21 15  1  0
 22 20  1  0
 23 22  2  0
 24 22  1  0
M  END
$$$$
