DIT.pdb
     RDKit          3D

 24 23  0  0  1  0  0  0  0  0999 V2000
    8.0856  -14.6174   20.4615 N   0  0  0  0  0  0  0  0  0  0  0  0
    7.3951  -15.2417   21.5618 C   0  0  1  0  0  0  0  0  0  0  0  0
    7.2582  -16.7062   21.3461 C   0  0  0  0  0  0  0  0  0  0  0  0
    6.5993  -17.0853   20.0804 C   0  0  0  0  0  0  0  0  0  0  0  0
    5.9288  -18.1201   19.9492 O   0  0  0  0  0  0  0  0  0  0  0  0
    8.1283  -14.9055   22.8139 C   0  0  0  0  0  0  0  0  0  0  0  0
    9.3810  -14.7956   22.7890 O   0  0  0  0  0  0  0  0  0  0  0  0
    6.7047  -16.2695   18.9375 O   0  0  0  0  0  0  0  0  0  0  0  0
    6.0906  -11.4146   26.3153 C   0  0  0  0  0  0  0  0  0  0  0  0
    7.0772  -12.2425   25.5379 C   0  0  0  0  0  0  0  0  0  0  0  0
    7.3713  -13.5632   26.2206 C   0  0  2  0  0  0  0  0  0  0  0  0
    8.0905  -13.3565   27.5322 C   0  0  0  0  0  0  0  0  0  0  0  0
    8.1141  -14.5055   25.2984 C   0  0  2  0  0  0  0  0  0  0  0  0
    7.4709  -14.7045   24.0379 N   0  0  0  0  0  0  0  0  0  0  0  0
    8.4697  -15.7751   25.9794 C   0  0  0  0  0  0  0  0  0  0  0  0
    7.5812  -16.5775   26.3980 O   0  0  0  0  0  0  0  0  0  0  0  0
   10.4563  -18.3014   24.4019 C   0  0  0  0  0  0  0  0  0  0  0  0
   11.1591  -18.1836   25.7402 C   0  0  1  0  0  0  0  0  0  0  0  0
   12.3243  -17.4728   25.5322 O   0  0  0  0  0  0  0  0  0  0  0  0
   10.2063  -17.4753   26.6743 C   0  0  2  0  0  0  0  0  0  0  0  0
    9.8150  -16.1739   26.2061 N   0  0  0  0  0  0  0  0  0  0  0  0
   10.7660  -17.4377   28.0341 C   0  0  0  0  0  0  0  0  0  0  0  0
   11.0722  -16.3819   28.6380 O   0  0  0  0  0  0  0  0  0  0  0  0
   10.9706  -18.6392   28.6957 O   0  0  0  0  0  0  0  0  0  0  0  0
  2  1  1  6
  2  3  1  0
  3  4  1  0
  4  8  1  0
  5  4  2  0
  6 14  1  0
  6  2  1  0
  7  6  2  0
  9 10  1  0
 11 10  1  0
 11 13  1  0
 11 12  1  1
 13 14  1  6
 15 13  1  0
 15 16  2  0
 18 17  1  6
 19 18  1  0
 20 21  1  6
 20 18  1  0
 21 15  1  0
 22 20  1  0
 23 22  2  0
 24 22  1  0
M  END
$$$$
