DIT.pdb
     RDKit          3D

 24 23  0  0  1  0  0  0  0  0999 V2000
   10.6369  -17.3707   16.7427 N   0  0  0  0  0  0  0  0  0  0  0  0
    9.8250  -17.8112   17.8490 C   0  0  1  0  0  0  0  0  0  0  0  0
   10.1128  -19.2285   18.1933 C   0  0  0  0  0  0  0  0  0  0  0  0
    9.8302  -20.1959   17.1144 C   0  0  0  0  0  0  0  0  0  0  0  0
   10.3835  -21.3027   17.0350 O   0  0  0  0  0  0  0  0  0  0  0  0
   10.0557  -16.8790   18.9875 C   0  0  0  0  0  0  0  0  0  0  0  0
   11.2250  -16.4979   19.2504 O   0  0  0  0  0  0  0  0  0  0  0  0
    8.8971  -19.8986   16.1025 O   0  0  0  0  0  0  0  0  0  0  0  0
    6.9747  -12.5960   19.9360 C   0  0  0  0  0  0  0  0  0  0  0  0
    8.1351  -13.5532   19.9123 C   0  0  0  0  0  0  0  0  0  0  0  0
    8.1049  -14.5097   21.0875 C   0  0  2  0  0  0  0  0  0  0  0  0
    8.2003  -13.7709   22.4010 C   0  0  0  0  0  0  0  0  0  0  0  0
    9.1642  -15.5819   20.9511 C   0  0  2  0  0  0  0  0  0  0  0  0
    9.0082  -16.4020   19.7913 N   0  0  0  0  0  0  0  0  0  0  0  0
    9.3198  -16.3639   22.2027 C   0  0  0  0  0  0  0  0  0  0  0  0
    8.4144  -17.1521   22.6120 O   0  0  0  0  0  0  0  0  0  0  0  0
   12.2623  -18.6534   25.3035 C   0  0  0  0  0  0  0  0  0  0  0  0
   12.1674  -17.6796   24.1453 C   0  0  1  0  0  0  0  0  0  0  0  0
   12.4870  -18.3743   22.9958 O   0  0  0  0  0  0  0  0  0  0  0  0
   10.7513  -17.1535   24.1305 C   0  0  2  0  0  0  0  0  0  0  0  0
   10.4809  -16.2837   23.0186 N   0  0  0  0  0  0  0  0  0  0  0  0
   10.4306  -16.5287   25.4229 C   0  0  0  0  0  0  0  0  0  0  0  0
   10.2466  -15.2981   25.5810 O   0  0  0  0  0  0  0  0  0  0  0  0
   10.3235  -17.3435   26.5400 O   0  0  0  0  0  0  0  0  0  0  0  0
  2  1  1  6
  2  3  1  0
  3  4  1  0
  4  8  1  0
  5  4  2  0
  6 14  1  0
  6  2  1  0
  7  6  2  0
  9 10  1  0
 11 10  1  0
 11 13  1  0
 11 12  1  1
 13 14  1  6
 15 13  1  0
 15 16  2  0
 18 17  1  1
 19 18  1  0
 20 21  1  6
 20 18  1  0
 21 15  1  0
 22 20  1  0
 23 22  2  0
 24 22  1  0
M  END
$$$$
