DIT.pdb
     RDKit          3D

 24 23  0  0  1  0  0  0  0  0999 V2000
    8.2792  -14.8667   20.4314 N   0  0  0  0  0  0  0  0  0  0  0  0
    7.5253  -15.4508   21.5119 C   0  0  1  0  0  0  0  0  0  0  0  0
    7.4109  -16.9241   21.3496 C   0  0  0  0  0  0  0  0  0  0  0  0
    6.7110  -17.3581   20.1242 C   0  0  0  0  0  0  0  0  0  0  0  0
    7.3032  -17.7685   19.1151 O   0  0  0  0  0  0  0  0  0  0  0  0
    8.1769  -15.0568   22.7919 C   0  0  0  0  0  0  0  0  0  0  0  0
    9.4300  -14.9639   22.8475 O   0  0  0  0  0  0  0  0  0  0  0  0
    5.3055  -17.3248   20.0437 O   0  0  0  0  0  0  0  0  0  0  0  0
    5.8312  -11.4417   25.9290 C   0  0  0  0  0  0  0  0  0  0  0  0
    6.8761  -12.2893   25.2561 C   0  0  0  0  0  0  0  0  0  0  0  0
    7.2087  -13.5273   26.0646 C   0  0  2  0  0  0  0  0  0  0  0  0
    7.8994  -13.1700   27.3590 C   0  0  0  0  0  0  0  0  0  0  0  0
    8.0001  -14.5232   25.2449 C   0  0  2  0  0  0  0  0  0  0  0  0
    7.4411  -14.7820   23.9555 N   0  0  0  0  0  0  0  0  0  0  0  0
    8.2931  -15.7586   26.0131 C   0  0  0  0  0  0  0  0  0  0  0  0
    7.3668  -16.5141   26.4372 O   0  0  0  0  0  0  0  0  0  0  0  0
   10.1423  -18.4858   24.7021 C   0  0  0  0  0  0  0  0  0  0  0  0
   10.8668  -18.2737   26.0170 C   0  0  1  0  0  0  0  0  0  0  0  0
   12.0534  -17.6272   25.7337 O   0  0  0  0  0  0  0  0  0  0  0  0
    9.9522  -17.4503   26.8931 C   0  0  2  0  0  0  0  0  0  0  0  0
    9.6166  -16.1747   26.3222 N   0  0  0  0  0  0  0  0  0  0  0  0
   10.5213  -17.3283   28.2441 C   0  0  0  0  0  0  0  0  0  0  0  0
   10.8721  -16.2413   28.7622 O   0  0  0  0  0  0  0  0  0  0  0  0
   10.6831  -18.4815   28.9973 O   0  0  0  0  0  0  0  0  0  0  0  0
  2  1  1  6
  2  3  1  0
  3  4  1  0
  4  8  1  0
  5  4  2  0
  6 14  1  0
  6  2  1  0
  7  6  2  0
  9 10  1  0
 11 10  1  0
 11 13  1  0
 11 12  1  1
 13 14  1  6
 15 13  1  0
 15 16  2  0
 18 17  1  6
 19 18  1  0
 20 21  1  6
 20 18  1  0
 21 15  1  0
 22 20  1  0
 23 22  2  0
 24 22  1  0
M  END
$$$$
