DIT.pdb
     RDKit          3D

 24 23  0  0  1  0  0  0  0  0999 V2000
    8.7393  -14.4667   20.6098 N   0  0  0  0  0  0  0  0  0  0  0  0
    8.5077  -15.6384   21.4164 C   0  0  1  0  0  0  0  0  0  0  0  0
    9.1839  -16.8290   20.8374 C   0  0  0  0  0  0  0  0  0  0  0  0
    8.8146  -17.1305   19.4400 C   0  0  0  0  0  0  0  0  0  0  0  0
    7.6680  -16.9760   18.9940 O   0  0  0  0  0  0  0  0  0  0  0  0
    8.9539  -15.3355   22.8047 C   0  0  0  0  0  0  0  0  0  0  0  0
   10.1570  -15.0377   23.0189 O   0  0  0  0  0  0  0  0  0  0  0  0
    9.7705  -17.6188   18.5285 O   0  0  0  0  0  0  0  0  0  0  0  0
    6.2275  -11.9519   25.6099 C   0  0  0  0  0  0  0  0  0  0  0  0
    7.2894  -12.8591   25.0510 C   0  0  0  0  0  0  0  0  0  0  0  0
    7.5078  -14.0800   25.9221 C   0  0  2  0  0  0  0  0  0  0  0  0
    7.9834  -13.6933   27.3021 C   0  0  0  0  0  0  0  0  0  0  0  0
    8.4304  -15.0753   25.2524 C   0  0  2  0  0  0  0  0  0  0  0  0
    8.0761  -15.3700   23.8998 N   0  0  0  0  0  0  0  0  0  0  0  0
    8.6255  -16.2896   26.0829 C   0  0  0  0  0  0  0  0  0  0  0  0
    7.6445  -16.9857   26.4849 O   0  0  0  0  0  0  0  0  0  0  0  0
   10.8359  -19.0949   25.0696 C   0  0  0  0  0  0  0  0  0  0  0  0
   11.2659  -18.8053   26.4944 C   0  0  1  0  0  0  0  0  0  0  0  0
   12.4540  -18.1048   26.4317 O   0  0  0  0  0  0  0  0  0  0  0  0
   10.1544  -18.0065   27.1335 C   0  0  2  0  0  0  0  0  0  0  0  0
    9.9103  -16.7500   26.4796 N   0  0  0  0  0  0  0  0  0  0  0  0
   10.4083  -17.8497   28.5738 C   0  0  0  0  0  0  0  0  0  0  0  0
   10.5376  -16.7415   29.1470 O   0  0  0  0  0  0  0  0  0  0  0  0
   10.5125  -18.9924   29.3526 O   0  0  0  0  0  0  0  0  0  0  0  0
  2  1  1  6
  2  3  1  0
  3  4  1  0
  4  8  1  0
  5  4  2  0
  6 14  1  0
  6  2  1  0
  7  6  2  0
  9 10  1  0
 11 10  1  0
 11 13  1  0
 11 12  1  1
 13 14  1  6
 15 13  1  0
 15 16  2  0
 18 17  1  6
 19 18  1  0
 20 21  1  6
 20 18  1  0
 21 15  1  0
 22 20  1  0
 23 22  2  0
 24 22  1  0
M  END
$$$$
