DIT.pdb
     RDKit          3D

 24 23  0  0  1  0  0  0  0  0999 V2000
    8.4163  -15.0147   20.3207 N   0  0  0  0  0  0  0  0  0  0  0  0
    7.5103  -15.4345   21.3600 C   0  0  1  0  0  0  0  0  0  0  0  0
    7.1726  -16.8760   21.2256 C   0  0  0  0  0  0  0  0  0  0  0  0
    6.5565  -17.2485   19.9366 C   0  0  0  0  0  0  0  0  0  0  0  0
    6.5170  -16.4864   18.9593 O   0  0  0  0  0  0  0  0  0  0  0  0
    8.1324  -15.1041   22.6723 C   0  0  0  0  0  0  0  0  0  0  0  0
    9.3855  -15.0728   22.7747 O   0  0  0  0  0  0  0  0  0  0  0  0
    5.9718  -18.5165   19.7540 O   0  0  0  0  0  0  0  0  0  0  0  0
    5.9085  -11.4032   25.8399 C   0  0  0  0  0  0  0  0  0  0  0  0
    6.8561  -12.3344   25.1342 C   0  0  0  0  0  0  0  0  0  0  0  0
    7.1175  -13.5928   25.9372 C   0  0  2  0  0  0  0  0  0  0  0  0
    7.7850  -13.2764   27.2542 C   0  0  0  0  0  0  0  0  0  0  0  0
    7.8922  -14.6103   25.1282 C   0  0  2  0  0  0  0  0  0  0  0  0
    7.3681  -14.8232   23.8159 N   0  0  0  0  0  0  0  0  0  0  0  0
    8.1025  -15.8697   25.8845 C   0  0  0  0  0  0  0  0  0  0  0  0
    7.1318  -16.5188   26.3796 O   0  0  0  0  0  0  0  0  0  0  0  0
    9.6361  -18.9332   24.6828 C   0  0  0  0  0  0  0  0  0  0  0  0
   10.4395  -18.6496   25.9369 C   0  0  1  0  0  0  0  0  0  0  0  0
   11.6519  -18.1225   25.5389 O   0  0  0  0  0  0  0  0  0  0  0  0
    9.6297  -17.6806   26.7661 C   0  0  2  0  0  0  0  0  0  0  0  0
    9.3913  -16.4280   26.1029 N   0  0  0  0  0  0  0  0  0  0  0  0
   10.2494  -17.5065   28.0887 C   0  0  0  0  0  0  0  0  0  0  0  0
   10.7150  -16.4199   28.5079 O   0  0  0  0  0  0  0  0  0  0  0  0
   10.3274  -18.6065   28.9296 O   0  0  0  0  0  0  0  0  0  0  0  0
  2  1  1  6
  2  3  1  0
  3  4  1  0
  4  8  1  0
  5  4  2  0
  6 14  1  0
  6  2  1  0
  7  6  2  0
  9 10  1  0
 11 10  1  0
 11 13  1  0
 11 12  1  1
 13 14  1  6
 15 13  1  0
 15 16  2  0
 18 17  1  6
 19 18  1  0
 20 21  1  6
 20 18  1  0
 21 15  1  0
 22 20  1  0
 23 22  2  0
 24 22  1  0
M  END
$$$$
