WRH.pdb
     RDKit          3D

 36 38  0  0  1  0  0  0  0  0999 V2000
    6.6406  -17.6263   24.5596 N   0  0  0  0  0  0  0  0  0  0  0  0
    7.2463  -16.3548   24.2517 C   0  0  1  0  0  0  0  0  0  0  0  0
    8.1079  -15.9502   25.4289 C   0  0  0  0  0  0  0  0  0  0  0  0
    7.2481  -15.0545   26.2806 C   0  0  0  0  0  0  0  0  0  0  0  0
    6.4683  -15.4314   27.3592 C   0  0  0  0  0  0  0  0  0  0  0  0
    5.8746  -14.3229   27.8377 N   0  0  0  0  0  0  0  0  0  0  0  0
    6.2294  -13.2613   27.1291 C   0  0  0  0  0  0  0  0  0  0  0  0
    5.8773  -11.9104   27.2391 C   0  0  0  0  0  0  0  0  0  0  0  0
    6.3951  -10.9823   26.3511 C   0  0  0  0  0  0  0  0  0  0  0  0
    7.2558  -11.4219   25.3685 C   0  0  0  0  0  0  0  0  0  0  0  0
    7.6016  -12.7510   25.2619 C   0  0  0  0  0  0  0  0  0  0  0  0
    7.0916  -13.6951   26.1445 C   0  0  0  0  0  0  0  0  0  0  0  0
    8.0456  -16.4463   23.0015 C   0  0  0  0  0  0  0  0  0  0  0  0
    8.5598  -17.5626   22.7462 O   0  0  0  0  0  0  0  0  0  0  0  0
    6.8910  -15.3033   16.6403 N   0  0  0  0  0  0  0  0  0  0  0  0
    7.8399  -14.3264   16.2498 C   0  0  0  0  0  0  0  0  0  0  0  0
    8.4663  -14.3229   15.1226 N   0  0  0  0  0  0  0  0  0  0  0  0
    8.1134  -13.2745   17.1739 N   0  0  0  0  0  0  0  0  0  0  0  0
    7.4125  -13.1270   18.4419 C   0  0  0  0  0  0  0  0  0  0  0  0
    7.5228  -14.3725   19.2781 C   0  0  0  0  0  0  0  0  0  0  0  0
    8.8674  -14.4314   19.9296 C   0  0  0  0  0  0  0  0  0  0  0  0
    8.9483  -15.5599   20.8887 C   0  0  2  0  0  0  0  0  0  0  0  0
    8.2403  -15.3576   22.1192 N   0  0  0  0  0  0  0  0  0  0  0  0
   10.3735  -15.8880   21.2395 C   0  0  0  0  0  0  0  0  0  0  0  0
   10.9784  -15.0913   21.9911 O   0  0  0  0  0  0  0  0  0  0  0  0
    9.1741  -13.5573   14.9488 N   0  0  0  0  0  0  0  0  0  0  0  0
   11.0557  -17.0310   20.7741 C   0  0  2  0  0  0  0  0  0  0  0  0
   12.4648  -17.2893   21.1371 C   0  0  0  0  0  0  0  0  0  0  0  0
   12.7342  -18.7545   21.0962 C   0  0  0  0  0  0  0  0  0  0  0  0
   12.0576  -19.4721   22.1795 C   0  0  0  0  0  0  0  0  0  0  0  0
   11.8478  -18.9212   23.4616 N   0  0  0  0  0  0  0  0  0  0  0  0
   11.2097  -19.8593   24.1869 C   0  0  0  0  0  0  0  0  0  0  0  0
   11.0075  -20.9575   23.4449 N   0  0  0  0  0  0  0  0  0  0  0  0
   11.5311  -20.6907   22.2386 C   0  0  0  0  0  0  0  0  0  0  0  0
   13.3539  -16.5657   20.2281 O   0  0  0  0  0  0  0  0  0  0  0  0
   13.0313  -15.7371   19.1853 O   0  0  0  0  0  0  0  0  0  0  0  0
  2  1  1  1
  3  2  1  0
  3  4  1  0
  4  5  2  0
  5  6  1  0
  7  6  1  0
  8  7  2  0
  9  8  1  0
 10 11  1  0
 10  9  2  0
 11 12  2  0
 12  4  1  0
 12  7  1  0
 13  2  1  0
 13 14  2  0
 16 15  1  0
 17 16  2  0
 18 16  1  0
 19 20  1  0
 19 18  1  0
 20 21  1  0
 22 21  1  6
 22 23  1  0
 23 13  1  0
 24 22  1  0
 25 24  2  0
 26 24  1  0
 27 26  1  0
 27 34  1  0
 27 28  1  1
 29 28  1  0
 30 29  2  0
 31 30  1  0
 32 31  1  0
 32 33  2  0
 33 29  1  0
 34 35  1  0
 36 34  2  0
M  END
$$$$
