WRH.pdb
     RDKit          3D

 36 38  0  0  1  0  0  0  0  0999 V2000
    6.2463  -17.0012   24.2121 N   0  0  0  0  0  0  0  0  0  0  0  0
    7.4645  -16.2854   23.9254 C   0  0  1  0  0  0  0  0  0  0  0  0
    8.1656  -16.0110   25.2388 C   0  0  0  0  0  0  0  0  0  0  0  0
    7.2624  -15.0782   26.0012 C   0  0  0  0  0  0  0  0  0  0  0  0
    6.1610  -15.4252   26.7627 C   0  0  0  0  0  0  0  0  0  0  0  0
    5.6492  -14.2917   27.2760 N   0  0  0  0  0  0  0  0  0  0  0  0
    6.3585  -13.2423   26.8879 C   0  0  0  0  0  0  0  0  0  0  0  0
    6.2184  -11.8751   27.1561 C   0  0  0  0  0  0  0  0  0  0  0  0
    7.1101  -10.9651   26.6131 C   0  0  0  0  0  0  0  0  0  0  0  0
    8.1262  -11.4387   25.8113 C   0  0  0  0  0  0  0  0  0  0  0  0
    8.2630  -12.7840   25.5489 C   0  0  0  0  0  0  0  0  0  0  0  0
    7.3775  -13.7105   26.0857 C   0  0  0  0  0  0  0  0  0  0  0  0
    8.3275  -17.0713   23.0047 C   0  0  0  0  0  0  0  0  0  0  0  0
    9.2885  -17.6872   23.5271 O   0  0  0  0  0  0  0  0  0  0  0  0
    9.3086  -15.3576   15.8039 N   0  0  0  0  0  0  0  0  0  0  0  0
    8.3446  -14.3495   16.0517 C   0  0  0  0  0  0  0  0  0  0  0  0
    7.6491  -13.7608   15.1392 N   0  0  0  0  0  0  0  0  0  0  0  0
    8.1329  -13.9668   17.4096 N   0  0  0  0  0  0  0  0  0  0  0  0
    8.8032  -14.6098   18.5314 C   0  0  0  0  0  0  0  0  0  0  0  0
    8.5523  -13.8709   19.8173 C   0  0  0  0  0  0  0  0  0  0  0  0
    8.0160  -14.8110   20.8490 C   0  0  0  0  0  0  0  0  0  0  0  0
    8.6643  -16.1413   20.7495 C   0  0  2  0  0  0  0  0  0  0  0  0
    8.1114  -17.1476   21.6086 N   0  0  0  0  0  0  0  0  0  0  0  0
   10.1379  -16.0628   21.0402 C   0  0  0  0  0  0  0  0  0  0  0  0
   10.5012  -15.3040   21.9663 O   0  0  0  0  0  0  0  0  0  0  0  0
    6.9796  -12.9991   15.4374 N   0  0  0  0  0  0  0  0  0  0  0  0
   11.1192  -16.7898   20.3354 C   0  0  1  0  0  0  0  0  0  0  0  0
   12.5570  -16.6453   20.6452 C   0  0  0  0  0  0  0  0  0  0  0  0
   13.2135  -17.9831   20.6213 C   0  0  0  0  0  0  0  0  0  0  0  0
   12.7857  -18.8296   21.7377 C   0  0  0  0  0  0  0  0  0  0  0  0
   13.4964  -19.9732   22.1599 N   0  0  0  0  0  0  0  0  0  0  0  0
   12.8103  -20.4961   23.1939 C   0  0  0  0  0  0  0  0  0  0  0  0
   11.7203  -19.7570   23.4452 N   0  0  0  0  0  0  0  0  0  0  0  0
   11.7352  -18.7589   22.5485 C   0  0  0  0  0  0  0  0  0  0  0  0
   13.1839  -15.7348   19.6870 O   0  0  0  0  0  0  0  0  0  0  0  0
   12.6252  -15.1013   18.6079 O   0  0  0  0  0  0  0  0  0  0  0  0
  2  1  1  1
  3  2  1  0
  3  4  1  0
  4  5  2  0
  5  6  1  0
  7  6  1  0
  8  7  2  0
  9  8  1  0
 10 11  1  0
 10  9  2  0
 11 12  2  0
 12  4  1  0
 12  7  1  0
 13  2  1  0
 13 14  2  0
 16 15  1  0
 17 16  2  0
 18 16  1  0
 19 20  1  0
 19 18  1  0
 20 21  1  0
 22 21  1  1
 22 23  1  0
 23 13  1  0
 24 22  1  0
 25 24  2  0
 26 24  1  0
 27 26  1  0
 27 34  1  0
 27 28  1  1
 29 28  1  0
 30 29  2  0
 31 30  1  0
 32 31  1  0
 32 33  2  0
 33 29  1  0
 34 35  1  0
 36 34  2  0
M  END
$$$$
