WRH.pdb
     RDKit          3D

 36 38  0  0  1  0  0  0  0  0999 V2000
    6.8894  -17.1163   24.0832 N   0  0  0  0  0  0  0  0  0  0  0  0
    8.1580  -16.4361   24.0039 C   0  0  1  0  0  0  0  0  0  0  0  0
    8.5146  -15.9486   25.3920 C   0  0  0  0  0  0  0  0  0  0  0  0
    7.4633  -14.9338   25.7553 C   0  0  0  0  0  0  0  0  0  0  0  0
    6.1256  -15.1773   26.0095 C   0  0  0  0  0  0  0  0  0  0  0  0
    5.5474  -13.9987   26.3040 N   0  0  0  0  0  0  0  0  0  0  0  0
    6.4365  -13.0179   26.2534 C   0  0  0  0  0  0  0  0  0  0  0  0
    6.3147  -11.6406   26.4756 C   0  0  0  0  0  0  0  0  0  0  0  0
    7.4203  -10.8159   26.3518 C   0  0  0  0  0  0  0  0  0  0  0  0
    8.6283  -11.3833   26.0077 C   0  0  0  0  0  0  0  0  0  0  0  0
    8.7466  -12.7382   25.7899 C   0  0  0  0  0  0  0  0  0  0  0  0
    7.6478  -13.5800   25.9101 C   0  0  0  0  0  0  0  0  0  0  0  0
    9.2041  -17.3435   23.4631 C   0  0  0  0  0  0  0  0  0  0  0  0
   10.2383  -17.4842   24.1606 O   0  0  0  0  0  0  0  0  0  0  0  0
    6.9862  -12.6987   17.4296 N   0  0  0  0  0  0  0  0  0  0  0  0
    7.5416  -13.7457   16.6534 C   0  0  0  0  0  0  0  0  0  0  0  0
    7.3999  -13.8662   15.3773 N   0  0  0  0  0  0  0  0  0  0  0  0
    8.3127  -14.7304   17.3398 N   0  0  0  0  0  0  0  0  0  0  0  0
    8.7095  -14.5999   18.7351 C   0  0  0  0  0  0  0  0  0  0  0  0
    9.4478  -15.8206   19.2120 C   0  0  0  0  0  0  0  0  0  0  0  0
    8.8857  -16.2774   20.5202 C   0  0  0  0  0  0  0  0  0  0  0  0
    9.6259  -17.4532   21.0394 C   0  0  2  0  0  0  0  0  0  0  0  0
    9.0798  -18.0309   22.2328 N   0  0  0  0  0  0  0  0  0  0  0  0
   11.0661  -17.1220   21.3192 C   0  0  0  0  0  0  0  0  0  0  0  0
   11.6860  -16.4721   20.4481 O   0  0  0  0  0  0  0  0  0  0  0  0
    7.9621  -14.6120   14.8823 N   0  0  0  0  0  0  0  0  0  0  0  0
   11.7462  -17.4984   22.4956 C   0  0  1  0  0  0  0  0  0  0  0  0
   13.1536  -17.1129   22.7297 C   0  0  0  0  0  0  0  0  0  0  0  0
   13.2652  -15.6280   22.7889 C   0  0  0  0  0  0  0  0  0  0  0  0
   13.6083  -15.0464   21.4889 C   0  0  0  0  0  0  0  0  0  0  0  0
   13.8697  -15.8202   20.3383 N   0  0  0  0  0  0  0  0  0  0  0  0
   14.1528  -14.9555   19.3456 C   0  0  0  0  0  0  0  0  0  0  0  0
   14.0861  -13.6954   19.7986 N   0  0  0  0  0  0  0  0  0  0  0  0
   13.7551  -13.7855   21.0959 C   0  0  0  0  0  0  0  0  0  0  0  0
   13.6390  -17.7264   23.9660 O   0  0  0  0  0  0  0  0  0  0  0  0
   13.0067  -18.6199   24.7905 O   0  0  0  0  0  0  0  0  0  0  0  0
  2  1  1  1
  3  2  1  0
  3  4  1  0
  4  5  2  0
  5  6  1  0
  7  6  1  0
  8  7  2  0
  9  8  1  0
 10 11  1  0
 10  9  2  0
 11 12  2  0
 12  4  1  0
 12  7  1  0
 13  2  1  0
 13 14  2  0
 16 15  1  0
 17 16  2  0
 18 16  1  0
 19 20  1  0
 19 18  1  0
 20 21  1  0
 22 21  1  1
 22 23  1  0
 23 13  1  0
 24 22  1  0
 25 24  2  0
 26 24  1  0
 27 26  1  0
 27 34  1  0
 27 28  1  6
 29 28  1  0
 30 29  2  0
 31 30  1  0
 32 31  1  0
 32 33  2  0
 33 29  1  0
 34 35  1  0
 36 34  2  0
M  END
$$$$
