WRH.pdb
     RDKit          3D

 36 38  0  0  1  0  0  0  0  0999 V2000
    7.1222  -17.9360   25.1228 N   0  0  0  0  0  0  0  0  0  0  0  0
    7.4217  -16.7140   24.4190 C   0  0  1  0  0  0  0  0  0  0  0  0
    8.1857  -15.8075   25.3605 C   0  0  0  0  0  0  0  0  0  0  0  0
    7.1576  -14.9034   25.9872 C   0  0  0  0  0  0  0  0  0  0  0  0
    6.0637  -15.2863   26.7423 C   0  0  0  0  0  0  0  0  0  0  0  0
    5.4154  -14.1675   27.1138 N   0  0  0  0  0  0  0  0  0  0  0  0
    6.0306  -13.0936   26.6413 C   0  0  0  0  0  0  0  0  0  0  0  0
    5.7389  -11.7289   26.7573 C   0  0  0  0  0  0  0  0  0  0  0  0
    6.5566  -10.7892   26.1521 C   0  0  0  0  0  0  0  0  0  0  0  0
    7.6516  -11.2311   25.4413 C   0  0  0  0  0  0  0  0  0  0  0  0
    7.9375  -12.5738   25.3285 C   0  0  0  0  0  0  0  0  0  0  0  0
    7.1279  -13.5298   25.9296 C   0  0  0  0  0  0  0  0  0  0  0  0
    8.2041  -16.9990   23.1875 C   0  0  0  0  0  0  0  0  0  0  0  0
    8.9873  -17.9788   23.2361 O   0  0  0  0  0  0  0  0  0  0  0  0
    7.3623  -13.9583   15.2841 N   0  0  0  0  0  0  0  0  0  0  0  0
    8.2728  -13.4487   16.2425 C   0  0  0  0  0  0  0  0  0  0  0  0
    8.7741  -12.2608   16.2178 N   0  0  0  0  0  0  0  0  0  0  0  0
    8.6543  -14.3170   17.3083 N   0  0  0  0  0  0  0  0  0  0  0  0
    8.7320  -15.7644   17.1665 C   0  0  0  0  0  0  0  0  0  0  0  0
    9.2418  -16.4124   18.4245 C   0  0  0  0  0  0  0  0  0  0  0  0
    8.5295  -15.8493   19.6126 C   0  0  0  0  0  0  0  0  0  0  0  0
    8.8451  -16.6193   20.8403 C   0  0  2  0  0  0  0  0  0  0  0  0
    8.1007  -16.2320   22.0032 N   0  0  0  0  0  0  0  0  0  0  0  0
   10.3049  -16.5292   21.1910 C   0  0  0  0  0  0  0  0  0  0  0  0
   10.6935  -15.4911   21.7714 O   0  0  0  0  0  0  0  0  0  0  0  0
    9.4602  -11.9941   16.9763 N   0  0  0  0  0  0  0  0  0  0  0  0
   11.2467  -17.5391   20.9059 C   0  0  1  0  0  0  0  0  0  0  0  0
   12.5991  -17.2137   20.4065 C   0  0  0  0  0  0  0  0  0  0  0  0
   12.5572  -15.9392   19.6352 C   0  0  0  0  0  0  0  0  0  0  0  0
   13.8490  -15.6202   19.0225 C   0  0  0  0  0  0  0  0  0  0  0  0
   14.9872  -16.4461   19.1392 N   0  0  0  0  0  0  0  0  0  0  0  0
   15.9789  -15.8373   18.4615 C   0  0  0  0  0  0  0  0  0  0  0  0
   15.5371  -14.6883   17.9305 N   0  0  0  0  0  0  0  0  0  0  0  0
   14.2477  -14.5872   18.2878 C   0  0  0  0  0  0  0  0  0  0  0  0
   13.5346  -17.1195   21.5273 O   0  0  0  0  0  0  0  0  0  0  0  0
   13.2866  -17.2428   22.8694 O   0  0  0  0  0  0  0  0  0  0  0  0
  2  1  1  1
  3  2  1  0
  3  4  1  0
  4  5  2  0
  5  6  1  0
  7  6  1  0
  8  7  2  0
  9  8  1  0
 10 11  1  0
 10  9  2  0
 11 12  2  0
 12  4  1  0
 12  7  1  0
 13  2  1  0
 13 14  2  0
 16 15  1  0
 17 16  2  0
 18 16  1  0
 19 20  1  0
 19 18  1  0
 20 21  1  0
 22 21  1  6
 22 23  1  0
 23 13  1  0
 24 22  1  0
 25 24  2  0
 26 24  1  0
 27 26  1  0
 27 34  1  0
 27 28  1  6
 29 28  1  0
 30 29  2  0
 31 30  1  0
 32 31  1  0
 32 33  2  0
 33 29  1  0
 34 35  1  0
 36 34  2  0
M  END
$$$$
