WRH.pdb
     RDKit          3D

 36 38  0  0  1  0  0  0  0  0999 V2000
    6.7380  -17.3928   23.9696 N   0  0  0  0  0  0  0  0  0  0  0  0
    7.7399  -16.3732   23.7825 C   0  0  1  0  0  0  0  0  0  0  0  0
    8.1935  -15.9071   25.1496 C   0  0  0  0  0  0  0  0  0  0  0  0
    7.1318  -14.9557   25.6339 C   0  0  0  0  0  0  0  0  0  0  0  0
    5.9761  -15.2799   26.3215 C   0  0  0  0  0  0  0  0  0  0  0  0
    5.3162  -14.1338   26.5690 N   0  0  0  0  0  0  0  0  0  0  0  0
    5.9821  -13.0977   26.0810 C   0  0  0  0  0  0  0  0  0  0  0  0
    5.7014  -11.7258   26.0875 C   0  0  0  0  0  0  0  0  0  0  0  0
    6.5778  -10.8340   25.4921 C   0  0  0  0  0  0  0  0  0  0  0  0
    7.7195  -11.3302   24.9004 C   0  0  0  0  0  0  0  0  0  0  0  0
    7.9944  -12.6799   24.8952 C   0  0  0  0  0  0  0  0  0  0  0  0
    7.1262  -13.5883   25.4882 C   0  0  0  0  0  0  0  0  0  0  0  0
    8.8783  -16.9000   22.9845 C   0  0  0  0  0  0  0  0  0  0  0  0
    9.0945  -18.1339   23.0646 O   0  0  0  0  0  0  0  0  0  0  0  0
    7.3665  -15.3225   17.1790 N   0  0  0  0  0  0  0  0  0  0  0  0
    7.8360  -13.9939   17.3264 C   0  0  0  0  0  0  0  0  0  0  0  0
    7.1526  -12.9391   17.0377 N   0  0  0  0  0  0  0  0  0  0  0  0
    9.1582  -13.8202   17.8331 N   0  0  0  0  0  0  0  0  0  0  0  0
   10.0230  -14.9336   18.1986 C   0  0  0  0  0  0  0  0  0  0  0  0
    9.9256  -15.2450   19.6670 C   0  0  0  0  0  0  0  0  0  0  0  0
   10.8516  -16.3672   20.0125 C   0  0  0  0  0  0  0  0  0  0  0  0
   10.8010  -16.6757   21.4623 C   0  0  2  0  0  0  0  0  0  0  0  0
    9.6982  -16.0881   22.1659 N   0  0  0  0  0  0  0  0  0  0  0  0
   12.0606  -16.2480   22.1642 C   0  0  0  0  0  0  0  0  0  0  0  0
   12.8827  -15.5709   21.5076 O   0  0  0  0  0  0  0  0  0  0  0  0
    7.5728  -11.9962   17.2650 N   0  0  0  0  0  0  0  0  0  0  0  0
   12.3605  -16.5638   23.5053 C   0  0  2  0  0  0  0  0  0  0  0  0
   13.5271  -17.3995   23.8586 C   0  0  0  0  0  0  0  0  0  0  0  0
   13.0963  -18.8150   24.0365 C   0  0  0  0  0  0  0  0  0  0  0  0
   12.1773  -18.9762   25.1659 C   0  0  0  0  0  0  0  0  0  0  0  0
   11.8446  -17.9280   26.0501 N   0  0  0  0  0  0  0  0  0  0  0  0
   10.9904  -18.4413   26.9557 C   0  0  0  0  0  0  0  0  0  0  0  0
   10.7679  -19.7378   26.6969 N   0  0  0  0  0  0  0  0  0  0  0  0
   11.4993  -20.0291   25.6103 C   0  0  0  0  0  0  0  0  0  0  0  0
   14.5520  -17.2883   22.8206 O   0  0  0  0  0  0  0  0  0  0  0  0
   15.8520  -17.7211   22.8434 O   0  0  0  0  0  0  0  0  0  0  0  0
  2  1  1  1
  3  2  1  0
  3  4  1  0
  4  5  2  0
  5  6  1  0
  7  6  1  0
  8  7  2  0
  9  8  1  0
 10 11  1  0
 10  9  2  0
 11 12  2  0
 12  4  1  0
 12  7  1  0
 13  2  1  0
 13 14  2  0
 16 15  1  0
 17 16  2  0
 18 16  1  0
 19 20  1  0
 19 18  1  0
 20 21  1  0
 22 21  1  6
 22 23  1  0
 23 13  1  0
 24 22  1  0
 25 24  2  0
 26 24  1  0
 27 26  1  0
 27 34  1  0
 27 28  1  1
 29 28  1  0
 30 29  2  0
 31 30  1  0
 32 31  1  0
 32 33  2  0
 33 29  1  0
 34 35  1  0
 36 34  2  0
M  END
$$$$
