WRH.pdb
     RDKit          3D

 36 38  0  0  1  0  0  0  0  0999 V2000
    6.4706  -17.4078   24.0915 N   0  0  0  0  0  0  0  0  0  0  0  0
    7.4967  -16.4583   23.7392 C   0  0  1  0  0  0  0  0  0  0  0  0
    8.1826  -16.0166   25.0144 C   0  0  0  0  0  0  0  0  0  0  0  0
    7.2317  -15.0605   25.6842 C   0  0  0  0  0  0  0  0  0  0  0  0
    5.9872  -15.3575   26.2098 C   0  0  0  0  0  0  0  0  0  0  0  0
    5.4806  -14.2205   26.7205 N   0  0  0  0  0  0  0  0  0  0  0  0
    6.3277  -13.2160   26.5525 C   0  0  0  0  0  0  0  0  0  0  0  0
    6.2480  -11.8637   26.9073 C   0  0  0  0  0  0  0  0  0  0  0  0
    7.2911  -11.0035   26.6073 C   0  0  0  0  0  0  0  0  0  0  0  0
    8.3955  -11.5111   25.9575 C   0  0  0  0  0  0  0  0  0  0  0  0
    8.4726  -12.8416   25.6096 C   0  0  0  0  0  0  0  0  0  0  0  0
    7.4355  -13.7183   25.9033 C   0  0  0  0  0  0  0  0  0  0  0  0
    8.4634  -17.0639   22.7859 C   0  0  0  0  0  0  0  0  0  0  0  0
    8.6120  -18.3085   22.8542 O   0  0  0  0  0  0  0  0  0  0  0  0
    7.8705  -14.3280   15.3391 N   0  0  0  0  0  0  0  0  0  0  0  0
    8.0452  -13.9485   16.6928 C   0  0  0  0  0  0  0  0  0  0  0  0
    7.8452  -12.7602   17.1523 N   0  0  0  0  0  0  0  0  0  0  0  0
    8.4699  -14.9592   17.6056 N   0  0  0  0  0  0  0  0  0  0  0  0
    9.6237  -15.8148   17.3650 C   0  0  0  0  0  0  0  0  0  0  0  0
    9.7802  -16.8433   18.4514 C   0  0  0  0  0  0  0  0  0  0  0  0
   10.3617  -16.2086   19.6741 C   0  0  0  0  0  0  0  0  0  0  0  0
   10.0341  -16.9913   20.8907 C   0  0  2  0  0  0  0  0  0  0  0  0
    9.1963  -16.3134   21.8366 N   0  0  0  0  0  0  0  0  0  0  0  0
   11.2751  -17.4262   21.6207 C   0  0  0  0  0  0  0  0  0  0  0  0
   11.1776  -18.4148   22.3814 O   0  0  0  0  0  0  0  0  0  0  0  0
    8.0352  -12.5843   18.1770 N   0  0  0  0  0  0  0  0  0  0  0  0
   12.5266  -16.7890   21.4947 C   0  0  2  0  0  0  0  0  0  0  0  0
   13.7667  -17.4193   21.9937 C   0  0  0  0  0  0  0  0  0  0  0  0
   13.9583  -18.7426   21.3356 C   0  0  0  0  0  0  0  0  0  0  0  0
   15.1186  -19.4620   21.8666 C   0  0  0  0  0  0  0  0  0  0  0  0
   15.6476  -19.2361   23.1551 N   0  0  0  0  0  0  0  0  0  0  0  0
   16.7018  -20.0627   23.2918 C   0  0  0  0  0  0  0  0  0  0  0  0
   16.8665  -20.7885   22.1766 N   0  0  0  0  0  0  0  0  0  0  0  0
   15.8946  -20.4015   21.3364 C   0  0  0  0  0  0  0  0  0  0  0  0
   14.9079  -16.5383   21.7453 O   0  0  0  0  0  0  0  0  0  0  0  0
   15.9642  -16.2439   22.5672 O   0  0  0  0  0  0  0  0  0  0  0  0
  2  1  1  1
  3  2  1  0
  3  4  1  0
  4  5  2  0
  5  6  1  0
  7  6  1  0
  8  7  2  0
  9  8  1  0
 10 11  1  0
 10  9  2  0
 11 12  2  0
 12  4  1  0
 12  7  1  0
 13  2  1  0
 13 14  2  0
 16 15  1  0
 17 16  2  0
 18 16  1  0
 19 20  1  0
 19 18  1  0
 20 21  1  0
 22 21  1  6
 22 23  1  0
 23 13  1  0
 24 22  1  0
 25 24  2  0
 26 24  1  0
 27 26  1  0
 27 34  1  0
 27 28  1  1
 29 28  1  0
 30 29  2  0
 31 30  1  0
 32 31  1  0
 32 33  2  0
 33 29  1  0
 34 35  1  0
 36 34  2  0
M  END
$$$$
