WRH.pdb
     RDKit          3D

 36 38  0  0  1  0  0  0  0  0999 V2000
    6.5948  -17.8456   25.0940 N   0  0  0  0  0  0  0  0  0  0  0  0
    7.3117  -16.6921   24.6105 C   0  0  1  0  0  0  0  0  0  0  0  0
    7.9425  -16.0010   25.8006 C   0  0  0  0  0  0  0  0  0  0  0  0
    6.9773  -14.9200   26.2088 C   0  0  0  0  0  0  0  0  0  0  0  0
    5.6813  -15.0903   26.6617 C   0  0  0  0  0  0  0  0  0  0  0  0
    5.1793  -13.8698   26.9235 N   0  0  0  0  0  0  0  0  0  0  0  0
    6.0777  -12.9310   26.6652 C   0  0  0  0  0  0  0  0  0  0  0  0
    6.0226  -11.5361   26.7764 C   0  0  0  0  0  0  0  0  0  0  0  0
    7.1214  -10.7672   26.4309 C   0  0  0  0  0  0  0  0  0  0  0  0
    8.2559  -11.4071   25.9801 C   0  0  0  0  0  0  0  0  0  0  0  0
    8.3086  -12.7792   25.8718 C   0  0  0  0  0  0  0  0  0  0  0  0
    7.2156  -13.5657   26.2143 C   0  0  0  0  0  0  0  0  0  0  0  0
    8.3370  -17.0952   23.6122 C   0  0  0  0  0  0  0  0  0  0  0  0
    8.8846  -18.2104   23.7912 O   0  0  0  0  0  0  0  0  0  0  0  0
    7.7729  -12.7788   17.0550 N   0  0  0  0  0  0  0  0  0  0  0  0
    8.4346  -13.9678   16.6606 C   0  0  0  0  0  0  0  0  0  0  0  0
    8.9306  -14.1761   15.4886 N   0  0  0  0  0  0  0  0  0  0  0  0
    8.5587  -15.0014   17.6362 N   0  0  0  0  0  0  0  0  0  0  0  0
    8.0631  -14.8724   18.9996 C   0  0  0  0  0  0  0  0  0  0  0  0
    8.2807  -16.1370   19.7845 C   0  0  0  0  0  0  0  0  0  0  0  0
    9.6975  -16.2056   20.2577 C   0  0  0  0  0  0  0  0  0  0  0  0
    9.7732  -16.7173   21.6478 C   0  0  2  0  0  0  0  0  0  0  0  0
    8.7044  -16.2944   22.5052 N   0  0  0  0  0  0  0  0  0  0  0  0
   11.0641  -16.3260   22.3129 C   0  0  0  0  0  0  0  0  0  0  0  0
   11.6376  -15.2962   21.8932 O   0  0  0  0  0  0  0  0  0  0  0  0
    9.3651  -15.1195   15.2924 N   0  0  0  0  0  0  0  0  0  0  0  0
   11.6547  -17.0469   23.3710 C   0  0  1  0  0  0  0  0  0  0  0  0
   13.0039  -16.7130   23.8733 C   0  0  0  0  0  0  0  0  0  0  0  0
   13.1911  -17.2907   25.2343 C   0  0  0  0  0  0  0  0  0  0  0  0
   12.3147  -16.6640   26.2269 C   0  0  0  0  0  0  0  0  0  0  0  0
   11.7334  -15.3900   26.0533 N   0  0  0  0  0  0  0  0  0  0  0  0
   11.0053  -15.1422   27.1586 C   0  0  0  0  0  0  0  0  0  0  0  0
   11.0930  -16.1744   28.0097 N   0  0  0  0  0  0  0  0  0  0  0  0
   11.8906  -17.0760   27.4170 C   0  0  0  0  0  0  0  0  0  0  0  0
   14.0186  -17.2132   22.9457 O   0  0  0  0  0  0  0  0  0  0  0  0
   13.8487  -17.8594   21.7493 O   0  0  0  0  0  0  0  0  0  0  0  0
  2  1  1  1
  3  2  1  0
  3  4  1  0
  4  5  2  0
  5  6  1  0
  7  6  1  0
  8  7  2  0
  9  8  1  0
 10 11  1  0
 10  9  2  0
 11 12  2  0
 12  4  1  0
 12  7  1  0
 13  2  1  0
 13 14  2  0
 16 15  1  0
 17 16  2  0
 18 16  1  0
 19 20  1  0
 19 18  1  0
 20 21  1  0
 22 21  1  6
 22 23  1  0
 23 13  1  0
 24 22  1  0
 25 24  2  0
 26 24  1  0
 27 26  1  0
 27 34  1  0
 27 28  1  6
 29 28  1  0
 30 29  2  0
 31 30  1  0
 32 31  1  0
 32 33  2  0
 33 29  1  0
 34 35  1  0
 36 34  2  0
M  END
$$$$
