WRH.pdb
     RDKit          3D

 36 38  0  0  1  0  0  0  0  0999 V2000
    7.1574  -17.5942   24.9790 N   0  0  0  0  0  0  0  0  0  0  0  0
    7.7091  -16.5371   24.1687 C   0  0  1  0  0  0  0  0  0  0  0  0
    8.4416  -15.5797   25.0846 C   0  0  0  0  0  0  0  0  0  0  0  0
    7.3859  -14.6792   25.6690 C   0  0  0  0  0  0  0  0  0  0  0  0
    6.2368  -15.0679   26.3340 C   0  0  0  0  0  0  0  0  0  0  0  0
    5.5807  -13.9508   26.6972 N   0  0  0  0  0  0  0  0  0  0  0  0
    6.2427  -12.8727   26.3042 C   0  0  0  0  0  0  0  0  0  0  0  0
    5.9636  -11.5078   26.4453 C   0  0  0  0  0  0  0  0  0  0  0  0
    6.8348  -10.5629   25.9294 C   0  0  0  0  0  0  0  0  0  0  0  0
    7.9698  -11.0000   25.2812 C   0  0  0  0  0  0  0  0  0  0  0  0
    8.2433  -12.3430   25.1436 C   0  0  0  0  0  0  0  0  0  0  0  0
    7.3802  -13.3042   25.6553 C   0  0  0  0  0  0  0  0  0  0  0  0
    8.6158  -17.0940   23.1305 C   0  0  0  0  0  0  0  0  0  0  0  0
    9.2753  -18.1128   23.4513 O   0  0  0  0  0  0  0  0  0  0  0  0
    8.5751  -14.3407   16.0720 N   0  0  0  0  0  0  0  0  0  0  0  0
    8.4975  -13.4681   17.1854 C   0  0  0  0  0  0  0  0  0  0  0  0
    9.0793  -12.3195   17.2580 N   0  0  0  0  0  0  0  0  0  0  0  0
    7.7162  -13.8973   18.2993 N   0  0  0  0  0  0  0  0  0  0  0  0
    7.7583  -15.2548   18.8250 C   0  0  0  0  0  0  0  0  0  0  0  0
    9.1712  -15.7611   18.9243 C   0  0  0  0  0  0  0  0  0  0  0  0
    9.1782  -17.1440   19.4932 C   0  0  0  0  0  0  0  0  0  0  0  0
    9.6540  -17.1424   20.8980 C   0  0  2  0  0  0  0  0  0  0  0  0
    8.7567  -16.5361   21.8380 N   0  0  0  0  0  0  0  0  0  0  0  0
   10.9816  -16.4486   21.0326 C   0  0  0  0  0  0  0  0  0  0  0  0
   11.4408  -15.8840   20.0149 O   0  0  0  0  0  0  0  0  0  0  0  0
    9.0428  -11.8003   18.1779 N   0  0  0  0  0  0  0  0  0  0  0  0
   11.7264  -16.3995   22.2289 C   0  0  2  0  0  0  0  0  0  0  0  0
   12.8282  -17.3490   22.4910 C   0  0  0  0  0  0  0  0  0  0  0  0
   12.3167  -18.7467   22.4134 C   0  0  0  0  0  0  0  0  0  0  0  0
   12.8272  -19.5841   23.5016 C   0  0  0  0  0  0  0  0  0  0  0  0
   13.0431  -19.1061   24.8116 N   0  0  0  0  0  0  0  0  0  0  0  0
   13.5172  -20.1424   25.5291 C   0  0  0  0  0  0  0  0  0  0  0  0
   13.6118  -21.2337   24.7561 N   0  0  0  0  0  0  0  0  0  0  0  0
   13.1876  -20.8626   23.5384 C   0  0  0  0  0  0  0  0  0  0  0  0
   13.9116  -17.1317   21.5322 O   0  0  0  0  0  0  0  0  0  0  0  0
   15.2581  -17.0243   21.7632 O   0  0  0  0  0  0  0  0  0  0  0  0
  2  1  1  1
  3  2  1  0
  3  4  1  0
  4  5  2  0
  5  6  1  0
  7  6  1  0
  8  7  2  0
  9  8  1  0
 10 11  1  0
 10  9  2  0
 11 12  2  0
 12  4  1  0
 12  7  1  0
 13  2  1  0
 13 14  2  0
 16 15  1  0
 17 16  2  0
 18 16  1  0
 19 20  1  0
 19 18  1  0
 20 21  1  0
 22 21  1  6
 22 23  1  0
 23 13  1  0
 24 22  1  0
 25 24  2  0
 26 24  1  0
 27 26  1  0
 27 34  1  0
 27 28  1  1
 29 28  1  0
 30 29  2  0
 31 30  1  0
 32 31  1  0
 32 33  2  0
 33 29  1  0
 34 35  1  0
 36 34  2  0
M  END
$$$$
