WRH.pdb
     RDKit          3D

 36 38  0  0  1  0  0  0  0  0999 V2000
    6.5534  -17.5669   24.7521 N   0  0  0  0  0  0  0  0  0  0  0  0
    7.3697  -16.5994   24.0622 C   0  0  1  0  0  0  0  0  0  0  0  0
    8.3289  -15.9962   25.0662 C   0  0  0  0  0  0  0  0  0  0  0  0
    7.5046  -15.0673   25.9173 C   0  0  0  0  0  0  0  0  0  0  0  0
    6.4875  -15.4188   26.7864 C   0  0  0  0  0  0  0  0  0  0  0  0
    6.0265  -14.2876   27.3503 N   0  0  0  0  0  0  0  0  0  0  0  0
    6.6890  -13.2354   26.8932 C   0  0  0  0  0  0  0  0  0  0  0  0
    6.5719  -11.8688   27.1756 C   0  0  0  0  0  0  0  0  0  0  0  0
    7.4005  -10.9552   26.5458 C   0  0  0  0  0  0  0  0  0  0  0  0
    8.3315  -11.4246   25.6444 C   0  0  0  0  0  0  0  0  0  0  0  0
    8.4458  -12.7691   25.3680 C   0  0  0  0  0  0  0  0  0  0  0  0
    7.6228  -13.6992   25.9910 C   0  0  0  0  0  0  0  0  0  0  0  0
    8.0973  -17.2391   22.9346 C   0  0  0  0  0  0  0  0  0  0  0  0
    8.3666  -18.4586   23.0622 O   0  0  0  0  0  0  0  0  0  0  0  0
    9.9860  -14.1207   17.6240 N   0  0  0  0  0  0  0  0  0  0  0  0
    8.8658  -13.3091   17.9299 C   0  0  0  0  0  0  0  0  0  0  0  0
    8.9121  -12.0323   18.1053 N   0  0  0  0  0  0  0  0  0  0  0  0
    7.6008  -13.9581   18.0475 N   0  0  0  0  0  0  0  0  0  0  0  0
    7.4308  -15.3990   17.9213 C   0  0  0  0  0  0  0  0  0  0  0  0
    7.5749  -16.0870   19.2511 C   0  0  0  0  0  0  0  0  0  0  0  0
    8.9226  -16.7271   19.3504 C   0  0  0  0  0  0  0  0  0  0  0  0
    9.1677  -17.2493   20.7169 C   0  0  2  0  0  0  0  0  0  0  0  0
    8.4832  -16.5466   21.7628 N   0  0  0  0  0  0  0  0  0  0  0  0
   10.6327  -17.2454   21.0572 C   0  0  0  0  0  0  0  0  0  0  0  0
   11.3668  -18.0535   20.4460 O   0  0  0  0  0  0  0  0  0  0  0  0
    8.0118  -11.5285   18.3352 N   0  0  0  0  0  0  0  0  0  0  0  0
   11.2162  -16.3903   22.0145 C   0  0  2  0  0  0  0  0  0  0  0  0
   12.6593  -16.4530   22.3269 C   0  0  0  0  0  0  0  0  0  0  0  0
   13.2825  -15.1192   22.0951 C   0  0  0  0  0  0  0  0  0  0  0  0
   13.6136  -14.9005   20.6850 C   0  0  0  0  0  0  0  0  0  0  0  0
   13.4443  -15.8841   19.6875 N   0  0  0  0  0  0  0  0  0  0  0  0
   13.8549  -15.3353   18.5283 C   0  0  0  0  0  0  0  0  0  0  0  0
   14.2689  -14.0770   18.7348 N   0  0  0  0  0  0  0  0  0  0  0  0
   14.1100  -13.8458   20.0470 C   0  0  0  0  0  0  0  0  0  0  0  0
   12.8510  -16.8897   23.7100 O   0  0  0  0  0  0  0  0  0  0  0  0
   14.0199  -17.1276   24.3844 O   0  0  0  0  0  0  0  0  0  0  0  0
  2  1  1  1
  3  2  1  0
  3  4  1  0
  4  5  2  0
  5  6  1  0
  7  6  1  0
  8  7  2  0
  9  8  1  0
 10 11  1  0
 10  9  2  0
 11 12  2  0
 12  4  1  0
 12  7  1  0
 13  2  1  0
 13 14  2  0
 16 15  1  0
 17 16  2  0
 18 16  1  0
 19 20  1  0
 19 18  1  0
 20 21  1  0
 22 21  1  6
 22 23  1  0
 23 13  1  0
 24 22  1  0
 25 24  2  0
 26 24  1  0
 27 26  1  0
 27 34  1  0
 27 28  1  6
 29 28  1  0
 30 29  2  0
 31 30  1  0
 32 31  1  0
 32 33  2  0
 33 29  1  0
 34 35  1  0
 36 34  2  0
M  END
$$$$
