WRH.pdb
     RDKit          3D

 36 38  0  0  1  0  0  0  0  0999 V2000
    6.4410  -18.1312   24.9046 N   0  0  0  0  0  0  0  0  0  0  0  0
    7.0383  -16.9252   24.3876 C   0  0  1  0  0  0  0  0  0  0  0  0
    7.9905  -16.3889   25.4353 C   0  0  0  0  0  0  0  0  0  0  0  0
    7.2362  -15.3083   26.1634 C   0  0  0  0  0  0  0  0  0  0  0  0
    6.1615  -15.4761   27.0181 C   0  0  0  0  0  0  0  0  0  0  0  0
    5.7979  -14.2574   27.4570 N   0  0  0  0  0  0  0  0  0  0  0  0
    6.5767  -13.3220   26.9339 C   0  0  0  0  0  0  0  0  0  0  0  0
    6.5879  -11.9300   27.0856 C   0  0  0  0  0  0  0  0  0  0  0  0
    7.5236  -11.1644   26.4101 C   0  0  0  0  0  0  0  0  0  0  0  0
    8.4315  -11.8047   25.5945 C   0  0  0  0  0  0  0  0  0  0  0  0
    8.4196  -13.1741   25.4467 C   0  0  0  0  0  0  0  0  0  0  0  0
    7.4881  -13.9572   26.1172 C   0  0  0  0  0  0  0  0  0  0  0  0
    7.7408  -17.1982   23.1062 C   0  0  0  0  0  0  0  0  0  0  0  0
    8.3571  -18.2889   23.0270 O   0  0  0  0  0  0  0  0  0  0  0  0
   10.1718  -17.3125   14.4075 N   0  0  0  0  0  0  0  0  0  0  0  0
    9.4969  -17.0839   15.6320 C   0  0  0  0  0  0  0  0  0  0  0  0
    8.9309  -18.0019   16.3391 N   0  0  0  0  0  0  0  0  0  0  0  0
    9.4473  -15.7408   16.1105 N   0  0  0  0  0  0  0  0  0  0  0  0
    8.6846  -15.3423   17.2855 C   0  0  0  0  0  0  0  0  0  0  0  0
    9.0407  -16.1820   18.4816 C   0  0  0  0  0  0  0  0  0  0  0  0
    8.2165  -15.7678   19.6585 C   0  0  0  0  0  0  0  0  0  0  0  0
    8.5113  -16.6119   20.8419 C   0  0  2  0  0  0  0  0  0  0  0  0
    7.7390  -16.3036   22.0102 N   0  0  0  0  0  0  0  0  0  0  0  0
    9.9624  -16.5353   21.2297 C   0  0  0  0  0  0  0  0  0  0  0  0
   10.3446  -15.5027   21.8242 O   0  0  0  0  0  0  0  0  0  0  0  0
    8.4118  -17.7088   17.2119 N   0  0  0  0  0  0  0  0  0  0  0  0
   10.9030  -17.5516   20.9642 C   0  0  2  0  0  0  0  0  0  0  0  0
   12.3113  -17.4312   21.3959 C   0  0  0  0  0  0  0  0  0  0  0  0
   12.6821  -18.6054   22.2354 C   0  0  0  0  0  0  0  0  0  0  0  0
   12.2030  -18.4738   23.6135 C   0  0  0  0  0  0  0  0  0  0  0  0
   11.5751  -17.3110   24.1082 N   0  0  0  0  0  0  0  0  0  0  0  0
   11.2814  -17.5490   25.4007 C   0  0  0  0  0  0  0  0  0  0  0  0
   11.6835  -18.7806   25.7458 N   0  0  0  0  0  0  0  0  0  0  0  0
   12.2356  -19.3119   24.6443 C   0  0  0  0  0  0  0  0  0  0  0  0
   13.1834  -17.3247   20.2261 O   0  0  0  0  0  0  0  0  0  0  0  0
   14.4231  -16.7494   20.1251 O   0  0  0  0  0  0  0  0  0  0  0  0
  2  1  1  1
  3  2  1  0
  3  4  1  0
  4  5  2  0
  5  6  1  0
  7  6  1  0
  8  7  2  0
  9  8  1  0
 10 11  1  0
 10  9  2  0
 11 12  2  0
 12  4  1  0
 12  7  1  0
 13  2  1  0
 13 14  2  0
 16 15  1  0
 17 16  2  0
 18 16  1  0
 19 20  1  0
 19 18  1  0
 20 21  1  0
 22 21  1  6
 22 23  1  0
 23 13  1  0
 24 22  1  0
 25 24  2  0
 26 24  1  0
 27 26  1  0
 27 34  1  0
 27 28  1  1
 29 28  1  0
 30 29  2  0
 31 30  1  0
 32 31  1  0
 32 33  2  0
 33 29  1  0
 34 35  1  0
 36 34  2  0
M  END
$$$$
