WRH.pdb
     RDKit          3D

 36 38  0  0  1  0  0  0  0  0999 V2000
    5.9801  -17.7575   24.2567 N   0  0  0  0  0  0  0  0  0  0  0  0
    6.7704  -16.5563   24.1515 C   0  0  1  0  0  0  0  0  0  0  0  0
    7.3789  -16.2766   25.5092 C   0  0  0  0  0  0  0  0  0  0  0  0
    6.6476  -15.0764   26.0493 C   0  0  0  0  0  0  0  0  0  0  0  0
    5.4119  -15.0662   26.6710 C   0  0  0  0  0  0  0  0  0  0  0  0
    5.1360  -13.7924   27.0047 N   0  0  0  0  0  0  0  0  0  0  0  0
    6.1221  -12.9893   26.6336 C   0  0  0  0  0  0  0  0  0  0  0  0
    6.2904  -11.6048   26.7590 C   0  0  0  0  0  0  0  0  0  0  0  0
    7.4362  -10.9969   26.2736 C   0  0  0  0  0  0  0  0  0  0  0  0
    8.3933  -11.7845   25.6711 C   0  0  0  0  0  0  0  0  0  0  0  0
    8.2265  -13.1463   25.5489 C   0  0  0  0  0  0  0  0  0  0  0  0
    7.0834  -13.7724   26.0305 C   0  0  0  0  0  0  0  0  0  0  0  0
    7.8194  -16.7110   23.1094 C   0  0  0  0  0  0  0  0  0  0  0  0
    8.0614  -17.8824   22.7283 O   0  0  0  0  0  0  0  0  0  0  0  0
    7.0505  -12.9872   15.7664 N   0  0  0  0  0  0  0  0  0  0  0  0
    8.0019  -14.0253   15.6105 C   0  0  0  0  0  0  0  0  0  0  0  0
    8.3868  -14.5020   14.4758 N   0  0  0  0  0  0  0  0  0  0  0  0
    8.5712  -14.5742   16.7979 N   0  0  0  0  0  0  0  0  0  0  0  0
    8.6747  -13.8328   18.0471 C   0  0  0  0  0  0  0  0  0  0  0  0
    9.4885  -14.5838   19.0651 C   0  0  0  0  0  0  0  0  0  0  0  0
    8.8652  -14.4468   20.4174 C   0  0  0  0  0  0  0  0  0  0  0  0
    8.9981  -15.7012   21.1976 C   0  0  2  0  0  0  0  0  0  0  0  0
    8.5297  -15.6226   22.5506 N   0  0  0  0  0  0  0  0  0  0  0  0
   10.4241  -16.1771   21.2430 C   0  0  0  0  0  0  0  0  0  0  0  0
   11.0111  -16.3385   20.1499 O   0  0  0  0  0  0  0  0  0  0  0  0
    9.1245  -15.2590   14.4783 N   0  0  0  0  0  0  0  0  0  0  0  0
   11.1266  -16.4464   22.4355 C   0  0  2  0  0  0  0  0  0  0  0  0
   12.5089  -16.9689   22.4153 C   0  0  0  0  0  0  0  0  0  0  0  0
   12.5565  -18.2350   21.6306 C   0  0  0  0  0  0  0  0  0  0  0  0
   13.8881  -18.8454   21.6450 C   0  0  0  0  0  0  0  0  0  0  0  0
   14.9844  -18.2974   22.3443 N   0  0  0  0  0  0  0  0  0  0  0  0
   16.0316  -19.1153   22.1257 C   0  0  0  0  0  0  0  0  0  0  0  0
   15.6634  -20.1356   21.3377 N   0  0  0  0  0  0  0  0  0  0  0  0
   14.3637  -19.9426   21.0656 C   0  0  0  0  0  0  0  0  0  0  0  0
   13.4121  -15.9661   21.8505 O   0  0  0  0  0  0  0  0  0  0  0  0
   14.7733  -16.0189   21.7016 O   0  0  0  0  0  0  0  0  0  0  0  0
  2  1  1  1
  3  2  1  0
  3  4  1  0
  4  5  2  0
  5  6  1  0
  7  6  1  0
  8  7  2  0
  9  8  1  0
 10 11  1  0
 10  9  2  0
 11 12  2  0
 12  4  1  0
 12  7  1  0
 13  2  1  0
 13 14  2  0
 16 15  1  0
 17 16  2  0
 18 16  1  0
 19 20  1  0
 19 18  1  0
 20 21  1  0
 22 21  1  1
 22 23  1  0
 23 13  1  0
 24 22  1  0
 25 24  2  0
 26 24  1  0
 27 26  1  0
 27 34  1  0
 27 28  1  1
 29 28  1  0
 30 29  2  0
 31 30  1  0
 32 31  1  0
 32 33  2  0
 33 29  1  0
 34 35  1  0
 36 34  2  0
M  END
$$$$
