WRH.pdb
     RDKit          3D

 36 38  0  0  1  0  0  0  0  0999 V2000
    7.6839  -17.3573   26.1365 N   0  0  0  0  0  0  0  0  0  0  0  0
    8.0031  -16.3820   25.1238 C   0  0  1  0  0  0  0  0  0  0  0  0
    9.1363  -15.5229   25.6430 C   0  0  0  0  0  0  0  0  0  0  0  0
    8.5189  -14.5924   26.6529 C   0  0  0  0  0  0  0  0  0  0  0  0
    8.7571  -14.5679   28.0153 C   0  0  0  0  0  0  0  0  0  0  0  0
    8.0105  -13.5793   28.5401 N   0  0  0  0  0  0  0  0  0  0  0  0
    7.3105  -12.9713   27.5939 C   0  0  0  0  0  0  0  0  0  0  0  0
    6.4048  -11.9047   27.6481 C   0  0  0  0  0  0  0  0  0  0  0  0
    5.7931  -11.4525   26.4908 C   0  0  0  0  0  0  0  0  0  0  0  0
    6.0981  -12.0753   25.2997 C   0  0  0  0  0  0  0  0  0  0  0  0
    6.9896  -13.1240   25.2479 C   0  0  0  0  0  0  0  0  0  0  0  0
    7.6124  -13.5900   26.3993 C   0  0  0  0  0  0  0  0  0  0  0  0
    8.3722  -17.0537   23.8499 C   0  0  0  0  0  0  0  0  0  0  0  0
    8.8277  -18.2197   23.9434 O   0  0  0  0  0  0  0  0  0  0  0  0
    8.5630  -13.8988   16.7690 N   0  0  0  0  0  0  0  0  0  0  0  0
    8.4419  -12.9331   17.7985 C   0  0  0  0  0  0  0  0  0  0  0  0
    9.0448  -11.7932   17.8083 N   0  0  0  0  0  0  0  0  0  0  0  0
    7.5883  -13.2513   18.8964 N   0  0  0  0  0  0  0  0  0  0  0  0
    7.2690  -14.6178   19.2861 C   0  0  0  0  0  0  0  0  0  0  0  0
    8.5057  -15.3807   19.6749 C   0  0  0  0  0  0  0  0  0  0  0  0
    8.1331  -16.7515   20.1420 C   0  0  0  0  0  0  0  0  0  0  0  0
    8.8008  -17.0796   21.4251 C   0  0  2  0  0  0  0  0  0  0  0  0
    8.2328  -16.4466   22.5797 N   0  0  0  0  0  0  0  0  0  0  0  0
   10.2630  -16.7290   21.3944 C   0  0  0  0  0  0  0  0  0  0  0  0
   10.6782  -15.9200   22.2539 O   0  0  0  0  0  0  0  0  0  0  0  0
    8.9938  -11.2107   18.6889 N   0  0  0  0  0  0  0  0  0  0  0  0
   11.1798  -17.2571   20.4623 C   0  0  1  0  0  0  0  0  0  0  0  0
   12.4879  -17.7973   20.8882 C   0  0  0  0  0  0  0  0  0  0  0  0
   12.2839  -18.8564   21.9167 C   0  0  0  0  0  0  0  0  0  0  0  0
   12.7147  -18.4247   23.2486 C   0  0  0  0  0  0  0  0  0  0  0  0
   13.0306  -17.0864   23.5652 N   0  0  0  0  0  0  0  0  0  0  0  0
   13.3881  -17.0691   24.8634 C   0  0  0  0  0  0  0  0  0  0  0  0
   13.3170  -18.3052   25.3778 N   0  0  0  0  0  0  0  0  0  0  0  0
   12.9074  -19.0996   24.3770 C   0  0  0  0  0  0  0  0  0  0  0  0
   13.2111  -18.3218   19.7296 O   0  0  0  0  0  0  0  0  0  0  0  0
   12.7864  -18.4462   18.4327 O   0  0  0  0  0  0  0  0  0  0  0  0
  2  1  1  1
  3  2  1  0
  3  4  1  0
  4  5  2  0
  5  6  1  0
  7  6  1  0
  8  7  2  0
  9  8  1  0
 10 11  1  0
 10  9  2  0
 11 12  2  0
 12  4  1  0
 12  7  1  0
 13  2  1  0
 13 14  2  0
 16 15  1  0
 17 16  2  0
 18 16  1  0
 19 20  1  0
 19 18  1  0
 20 21  1  0
 22 21  1  6
 22 23  1  0
 23 13  1  0
 24 22  1  0
 25 24  2  0
 26 24  1  0
 27 26  1  0
 27 34  1  0
 27 28  1  6
 29 28  1  0
 30 29  2  0
 31 30  1  0
 32 31  1  0
 32 33  2  0
 33 29  1  0
 34 35  1  0
 36 34  2  0
M  END
$$$$
