WRH.pdb
     RDKit          3D

 36 38  0  0  1  0  0  0  0  0999 V2000
    8.6651  -15.6616   23.4916 N   0  0  0  0  0  0  0  0  0  0  0  0
    8.9841  -15.8288   24.8875 C   0  0  1  0  0  0  0  0  0  0  0  0
    7.6837  -15.9571   25.6521 C   0  0  0  0  0  0  0  0  0  0  0  0
    6.9133  -14.6946   25.3699 C   0  0  0  0  0  0  0  0  0  0  0  0
    5.7592  -14.5758   24.6168 C   0  0  0  0  0  0  0  0  0  0  0  0
    5.3985  -13.2797   24.6286 N   0  0  0  0  0  0  0  0  0  0  0  0
    6.2533  -12.5645   25.3447 C   0  0  0  0  0  0  0  0  0  0  0  0
    6.3002  -11.1970   25.6423 C   0  0  0  0  0  0  0  0  0  0  0  0
    7.3235  -10.6907   26.4262 C   0  0  0  0  0  0  0  0  0  0  0  0
    8.2820  -11.5613   26.8985 C   0  0  0  0  0  0  0  0  0  0  0  0
    8.2341  -12.9063   26.6054 C   0  0  0  0  0  0  0  0  0  0  0  0
    7.2145  -13.4309   25.8207 C   0  0  0  0  0  0  0  0  0  0  0  0
    9.8492  -17.0214   25.0863 C   0  0  0  0  0  0  0  0  0  0  0  0
    9.7260  -17.6264   26.1792 O   0  0  0  0  0  0  0  0  0  0  0  0
   15.1279  -21.4144   19.8737 N   0  0  0  0  0  0  0  0  0  0  0  0
   13.7584  -21.0516   19.8807 C   0  0  0  0  0  0  0  0  0  0  0  0
   13.0096  -20.9969   18.8322 N   0  0  0  0  0  0  0  0  0  0  0  0
   13.1742  -20.7281   21.1414 N   0  0  0  0  0  0  0  0  0  0  0  0
   13.8749  -20.8891   22.4080 C   0  0  0  0  0  0  0  0  0  0  0  0
   13.0229  -20.4478   23.5664 C   0  0  0  0  0  0  0  0  0  0  0  0
   12.3299  -19.1661   23.2301 C   0  0  0  0  0  0  0  0  0  0  0  0
   11.5431  -18.6647   24.3832 C   0  0  2  0  0  0  0  0  0  0  0  0
   10.7742  -17.4832   24.1205 N   0  0  0  0  0  0  0  0  0  0  0  0
   12.4213  -18.3745   25.5691 C   0  0  0  0  0  0  0  0  0  0  0  0
   13.3077  -17.5027   25.4282 O   0  0  0  0  0  0  0  0  0  0  0  0
   12.0260  -20.6257   18.9419 N   0  0  0  0  0  0  0  0  0  0  0  0
   12.3004  -19.0225   26.8156 C   0  0  1  0  0  0  0  0  0  0  0  0
   13.2400  -18.7469   27.9226 C   0  0  0  0  0  0  0  0  0  0  0  0
   12.4791  -18.5252   29.1846 C   0  0  0  0  0  0  0  0  0  0  0  0
   11.6212  -17.3400   29.1128 C   0  0  0  0  0  0  0  0  0  0  0  0
   11.9973  -16.1496   28.4548 N   0  0  0  0  0  0  0  0  0  0  0  0
   10.9737  -15.2867   28.5996 C   0  0  0  0  0  0  0  0  0  0  0  0
    9.9853  -15.8573   29.3031 N   0  0  0  0  0  0  0  0  0  0  0  0
   10.4080  -17.0963   29.5973 C   0  0  0  0  0  0  0  0  0  0  0  0
   14.1818  -19.8574   28.0645 O   0  0  0  0  0  0  0  0  0  0  0  0
   14.2524  -21.0242   27.3493 O   0  0  0  0  0  0  0  0  0  0  0  0
  2  1  1  6
  3  2  1  0
  3  4  1  0
  4  5  2  0
  5  6  1  0
  7  6  1  0
  8  7  2  0
  9  8  1  0
 10 11  1  0
 10  9  2  0
 11 12  2  0
 12  4  1  0
 12  7  1  0
 13  2  1  0
 13 14  2  0
 16 15  1  0
 17 16  2  0
 18 16  1  0
 19 20  1  0
 19 18  1  0
 20 21  1  0
 22 21  1  6
 22 23  1  0
 23 13  1  0
 24 22  1  0
 25 24  2  0
 26 24  1  0
 27 26  1  0
 27 34  1  0
 27 28  1  6
 29 28  1  0
 30 29  2  0
 31 30  1  0
 32 31  1  0
 32 33  2  0
 33 29  1  0
 34 35  1  0
 36 34  2  0
M  END
$$$$
