WRH.pdb
     RDKit          3D

 36 38  0  0  1  0  0  0  0  0999 V2000
    8.6227  -18.1869   26.2370 N   0  0  0  0  0  0  0  0  0  0  0  0
    8.3406  -17.0757   25.3629 C   0  0  1  0  0  0  0  0  0  0  0  0
    8.7008  -15.8011   26.0960 C   0  0  0  0  0  0  0  0  0  0  0  0
    7.4282  -15.0010   26.1814 C   0  0  0  0  0  0  0  0  0  0  0  0
    6.1349  -15.4911   26.1571 C   0  0  0  0  0  0  0  0  0  0  0  0
    5.3010  -14.4411   26.2681 N   0  0  0  0  0  0  0  0  0  0  0  0
    5.9849  -13.3105   26.3623 C   0  0  0  0  0  0  0  0  0  0  0  0
    5.5679  -11.9798   26.4905 C   0  0  0  0  0  0  0  0  0  0  0  0
    6.5040  -10.9621   26.5663 C   0  0  0  0  0  0  0  0  0  0  0  0
    7.8408  -11.2932   26.5124 C   0  0  0  0  0  0  0  0  0  0  0  0
    8.2495  -12.6026   26.3869 C   0  0  0  0  0  0  0  0  0  0  0  0
    7.3238  -13.6359   26.3097 C   0  0  0  0  0  0  0  0  0  0  0  0
    9.1026  -17.2039   24.0928 C   0  0  0  0  0  0  0  0  0  0  0  0
    9.8148  -18.2301   23.9684 O   0  0  0  0  0  0  0  0  0  0  0  0
    9.2251  -13.7412   16.0745 N   0  0  0  0  0  0  0  0  0  0  0  0
    8.3103  -13.4936   17.1276 C   0  0  0  0  0  0  0  0  0  0  0  0
    7.7498  -12.3555   17.3588 N   0  0  0  0  0  0  0  0  0  0  0  0
    7.9904  -14.5871   17.9863 N   0  0  0  0  0  0  0  0  0  0  0  0
    8.9802  -15.5474   18.4543 C   0  0  0  0  0  0  0  0  0  0  0  0
    8.3637  -16.5684   19.3709 C   0  0  0  0  0  0  0  0  0  0  0  0
    8.2346  -16.0036   20.7494 C   0  0  0  0  0  0  0  0  0  0  0  0
    9.1687  -16.6689   21.6900 C   0  0  2  0  0  0  0  0  0  0  0  0
    9.0549  -16.2438   23.0548 N   0  0  0  0  0  0  0  0  0  0  0  0
   10.6020  -16.4755   21.2774 C   0  0  0  0  0  0  0  0  0  0  0  0
   10.9214  -16.8367   20.1228 O   0  0  0  0  0  0  0  0  0  0  0  0
    7.1112  -12.2763   18.1974 N   0  0  0  0  0  0  0  0  0  0  0  0
   11.5922  -15.9150   22.1102 C   0  0  2  0  0  0  0  0  0  0  0  0
   12.9891  -15.7624   21.6525 C   0  0  0  0  0  0  0  0  0  0  0  0
   13.5517  -17.0969   21.3010 C   0  0  0  0  0  0  0  0  0  0  0  0
   13.7411  -17.9457   22.4798 C   0  0  0  0  0  0  0  0  0  0  0  0
   13.0389  -17.7599   23.6896 N   0  0  0  0  0  0  0  0  0  0  0  0
   13.4724  -18.7103   24.5394 C   0  0  0  0  0  0  0  0  0  0  0  0
   14.3971  -19.4759   23.9423 N   0  0  0  0  0  0  0  0  0  0  0  0
   14.5358  -18.9877   22.7002 C   0  0  0  0  0  0  0  0  0  0  0  0
   13.0418  -14.8517   20.5087 O   0  0  0  0  0  0  0  0  0  0  0  0
   14.1312  -14.4307   19.7919 O   0  0  0  0  0  0  0  0  0  0  0  0
  2  1  1  1
  3  2  1  0
  3  4  1  0
  4  5  2  0
  5  6  1  0
  7  6  1  0
  8  7  2  0
  9  8  1  0
 10 11  1  0
 10  9  2  0
 11 12  2  0
 12  4  1  0
 12  7  1  0
 13  2  1  0
 13 14  2  0
 16 15  1  0
 17 16  2  0
 18 16  1  0
 19 20  1  0
 19 18  1  0
 20 21  1  0
 22 21  1  6
 22 23  1  0
 23 13  1  0
 24 22  1  0
 25 24  2  0
 26 24  1  0
 27 26  1  0
 27 34  1  0
 27 28  1  1
 29 28  1  0
 30 29  2  0
 31 30  1  0
 32 31  1  0
 32 33  2  0
 33 29  1  0
 34 35  1  0
 36 34  2  0
M  END
$$$$
