YTA.pdb
     RDKit          3D

 25 25  0  0  1  0  0  0  0  0999 V2000
    9.2227  -20.0237   30.4616 O   0  0  0  0  0  0  0  0  0  0  0  0
    8.7578  -19.8073   29.1589 C   0  0  0  0  0  0  0  0  0  0  0  0
    7.6122  -20.4405   28.7228 C   0  0  0  0  0  0  0  0  0  0  0  0
    7.1553  -20.2250   27.4360 C   0  0  0  0  0  0  0  0  0  0  0  0
    7.8033  -19.3881   26.5442 C   0  0  0  0  0  0  0  0  0  0  0  0
    7.2761  -19.1920   25.1883 C   0  0  0  0  0  0  0  0  0  0  0  0
    7.3810  -20.4079   24.3054 C   0  0  2  0  0  0  0  0  0  0  0  0
    7.9982  -21.5241   24.9526 N   0  0  0  0  0  0  0  0  0  0  0  0
    8.0588  -19.9931   23.0607 C   0  0  0  0  0  0  0  0  0  0  0  0
    9.1954  -20.4775   22.8253 O   0  0  0  0  0  0  0  0  0  0  0  0
    8.9474  -18.7587   26.9872 C   0  0  0  0  0  0  0  0  0  0  0  0
    9.4022  -18.9745   28.2714 C   0  0  0  0  0  0  0  0  0  0  0  0
    8.2539  -17.8705   18.6332 C   0  0  0  0  0  0  0  0  0  0  0  0
    7.4005  -18.1624   19.8472 C   0  0  1  0  0  0  0  0  0  0  0  0
    6.4528  -19.1452   19.5682 O   0  0  0  0  0  0  0  0  0  0  0  0
    8.2896  -18.6988   20.9728 C   0  0  2  0  0  0  0  0  0  0  0  0
    7.5169  -19.0862   22.1118 N   0  0  0  0  0  0  0  0  0  0  0  0
    9.3587  -17.7189   21.3147 C   0  0  0  0  0  0  0  0  0  0  0  0
   10.2117  -17.3977   20.4487 O   0  0  0  0  0  0  0  0  0  0  0  0
    9.8225  -15.0424   23.7367 C   0  0  0  0  0  0  0  0  0  0  0  0
   10.5068  -16.1283   22.8951 C   0  0  2  0  0  0  0  0  0  0  0  0
    9.4762  -17.1079   22.5935 N   0  0  0  0  0  0  0  0  0  0  0  0
   11.6650  -16.6964   23.5822 C   0  0  0  0  0  0  0  0  0  0  0  0
   12.8749  -16.0495   23.7817 O   0  0  0  0  0  0  0  0  0  0  0  0
   11.5644  -17.8662   24.0316 O   0  0  0  0  0  0  0  0  0  0  0  0
  2  1  1  0
  3  2  2  0
  4  3  1  0
  5 11  1  0
  5  4  2  0
  6  5  1  0
  7  6  1  0
  7  8  1  1
  9  7  1  0
  9 10  2  0
 11 12  2  0
 12  2  1  0
 14 13  1  6
 14 15  1  0
 16 17  1  1
 16 14  1  0
 17  9  1  0
 18 16  1  0
 19 18  2  0
 21 20  1  1
 21 22  1  0
 22 18  1  0
 23 24  1  0
 23 21  1  0
 25 23  2  0
M  END
$$$$
