YTA.pdb
     RDKit          3D

 25 25  0  0  1  0  0  0  0  0999 V2000
    5.5307  -10.5007   28.5667 O   0  0  0  0  0  0  0  0  0  0  0  0
    6.1108  -11.4473   27.7137 C   0  0  0  0  0  0  0  0  0  0  0  0
    7.1657  -12.2183   28.1568 C   0  0  0  0  0  0  0  0  0  0  0  0
    7.7365  -13.1521   27.3124 C   0  0  0  0  0  0  0  0  0  0  0  0
    7.2934  -13.3570   26.0174 C   0  0  0  0  0  0  0  0  0  0  0  0
    7.9333  -14.3629   25.1608 C   0  0  0  0  0  0  0  0  0  0  0  0
    7.0176  -15.4803   24.7343 C   0  0  2  0  0  0  0  0  0  0  0  0
    6.5397  -16.2676   25.8287 N   0  0  0  0  0  0  0  0  0  0  0  0
    7.7273  -16.2641   23.7034 C   0  0  0  0  0  0  0  0  0  0  0  0
    8.1213  -17.4172   24.0148 O   0  0  0  0  0  0  0  0  0  0  0  0
    6.2387  -12.5829   25.5817 C   0  0  0  0  0  0  0  0  0  0  0  0
    5.6700  -11.6514   26.4252 C   0  0  0  0  0  0  0  0  0  0  0  0
    6.7667  -15.8454   19.9445 C   0  0  0  0  0  0  0  0  0  0  0  0
    8.2141  -16.2809   19.9938 C   0  0  1  0  0  0  0  0  0  0  0  0
    9.0643  -15.2323   19.6479 O   0  0  0  0  0  0  0  0  0  0  0  0
    8.5684  -16.6965   21.4246 C   0  0  2  0  0  0  0  0  0  0  0  0
    7.9953  -15.8067   22.3860 N   0  0  0  0  0  0  0  0  0  0  0  0
   10.0432  -16.8368   21.5845 C   0  0  0  0  0  0  0  0  0  0  0  0
   10.6832  -15.9840   22.2506 O   0  0  0  0  0  0  0  0  0  0  0  0
   12.7910  -16.6148   20.8447 C   0  0  0  0  0  0  0  0  0  0  0  0
   12.2331  -18.0086   21.1636 C   0  0  2  0  0  0  0  0  0  0  0  0
   10.7909  -17.9044   21.0156 N   0  0  0  0  0  0  0  0  0  0  0  0
   12.6496  -18.4691   22.4867 C   0  0  0  0  0  0  0  0  0  0  0  0
   13.9163  -18.9285   22.8130 O   0  0  0  0  0  0  0  0  0  0  0  0
   11.7960  -18.4505   23.4095 O   0  0  0  0  0  0  0  0  0  0  0  0
  2  1  1  0
  3  2  2  0
  4  3  1  0
  5 11  1  0
  5  4  2  0
  6  5  1  0
  7  6  1  0
  7  8  1  1
  9  7  1  0
  9 10  2  0
 11 12  2  0
 12  2  1  0
 14 13  1  1
 14 15  1  0
 16 17  1  1
 16 14  1  0
 17  9  1  0
 18 16  1  0
 19 18  2  0
 21 20  1  1
 21 22  1  0
 22 18  1  0
 23 24  1  0
 23 21  1  0
 25 23  2  0
M  END
$$$$
