YTA.pdb
     RDKit          3D

 25 25  0  0  1  0  0  0  0  0999 V2000
   16.7741  -17.4488   10.2350 O   0  0  0  0  0  0  0  0  0  0  0  0
   15.8958  -17.0789   11.2606 C   0  0  0  0  0  0  0  0  0  0  0  0
   15.3286  -18.0468   12.0637 C   0  0  0  0  0  0  0  0  0  0  0  0
   14.4617  -17.6788   13.0756 C   0  0  0  0  0  0  0  0  0  0  0  0
   14.1272  -16.3599   13.3291 C   0  0  0  0  0  0  0  0  0  0  0  0
   13.2022  -16.0214   14.4175 C   0  0  0  0  0  0  0  0  0  0  0  0
   11.7518  -16.2628   14.0899 C   0  0  2  0  0  0  0  0  0  0  0  0
   11.2909  -15.4993   12.9717 N   0  0  0  0  0  0  0  0  0  0  0  0
   10.9759  -16.0352   15.3255 C   0  0  0  0  0  0  0  0  0  0  0  0
   10.5209  -14.8798   15.5250 O   0  0  0  0  0  0  0  0  0  0  0  0
   14.6982  -15.3981   12.5226 C   0  0  0  0  0  0  0  0  0  0  0  0
   15.5630  -15.7667   11.5131 C   0  0  0  0  0  0  0  0  0  0  0  0
    7.8804  -17.5537   16.1559 C   0  0  0  0  0  0  0  0  0  0  0  0
    8.6431  -17.6627   17.4573 C   0  0  1  0  0  0  0  0  0  0  0  0
    9.1267  -18.9559   17.6471 O   0  0  0  0  0  0  0  0  0  0  0  0
    9.8563  -16.7290   17.4118 C   0  0  2  0  0  0  0  0  0  0  0  0
   10.7079  -17.0296   16.3033 N   0  0  0  0  0  0  0  0  0  0  0  0
   10.5843  -16.7446   18.7117 C   0  0  0  0  0  0  0  0  0  0  0  0
   11.6629  -17.3823   18.8160 O   0  0  0  0  0  0  0  0  0  0  0  0
   10.0456  -15.2200   22.1024 C   0  0  0  0  0  0  0  0  0  0  0  0
   10.8289  -16.1243   21.1410 C   0  0  2  0  0  0  0  0  0  0  0  0
   10.1226  -16.0642   19.8721 N   0  0  0  0  0  0  0  0  0  0  0  0
   10.9667  -17.4816   21.6654 C   0  0  0  0  0  0  0  0  0  0  0  0
   11.9574  -17.9068   22.5371 O   0  0  0  0  0  0  0  0  0  0  0  0
   10.1227  -18.3393   21.3014 O   0  0  0  0  0  0  0  0  0  0  0  0
  2  1  1  0
  3  2  2  0
  4  3  1  0
  5 11  1  0
  5  4  2  0
  6  5  1  0
  7  6  1  0
  7  8  1  6
  9  7  1  0
  9 10  2  0
 11 12  2  0
 12  2  1  0
 14 13  1  6
 14 15  1  0
 16 17  1  6
 16 14  1  0
 17  9  1  0
 18 16  1  0
 19 18  2  0
 21 20  1  1
 21 22  1  0
 22 18  1  0
 23 24  1  0
 23 21  1  0
 25 23  2  0
M  END
$$$$
