YTA.pdb
     RDKit          3D

 25 25  0  0  1  0  0  0  0  0999 V2000
    7.5769  -11.2793   18.3726 O   0  0  0  0  0  0  0  0  0  0  0  0
    7.8577  -12.4282   19.1218 C   0  0  0  0  0  0  0  0  0  0  0  0
    6.8409  -13.3006   19.4514 C   0  0  0  0  0  0  0  0  0  0  0  0
    7.1210  -14.4343   20.1913 C   0  0  0  0  0  0  0  0  0  0  0  0
    8.3974  -14.7447   20.6271 C   0  0  0  0  0  0  0  0  0  0  0  0
    8.6424  -15.9625   21.4094 C   0  0  0  0  0  0  0  0  0  0  0  0
    8.8665  -17.1958   20.5741 C   0  0  2  0  0  0  0  0  0  0  0  0
    7.7209  -17.5730   19.8054 N   0  0  0  0  0  0  0  0  0  0  0  0
    9.3529  -18.2585   21.4768 C   0  0  0  0  0  0  0  0  0  0  0  0
    8.5120  -18.8183   22.2262 O   0  0  0  0  0  0  0  0  0  0  0  0
    9.4084  -13.8682   20.2938 C   0  0  0  0  0  0  0  0  0  0  0  0
    9.1276  -12.7374   19.5555 C   0  0  0  0  0  0  0  0  0  0  0  0
   13.2493  -20.1296   21.2633 C   0  0  0  0  0  0  0  0  0  0  0  0
   11.9368  -20.8067   21.5889 C   0  0  1  0  0  0  0  0  0  0  0  0
   12.1354  -21.9138   22.4117 O   0  0  0  0  0  0  0  0  0  0  0  0
   11.0404  -19.8295   22.3552 C   0  0  2  0  0  0  0  0  0  0  0  0
   10.7027  -18.6921   21.5573 N   0  0  0  0  0  0  0  0  0  0  0  0
   11.6618  -19.4507   23.6554 C   0  0  0  0  0  0  0  0  0  0  0  0
   12.4792  -18.4966   23.7025 O   0  0  0  0  0  0  0  0  0  0  0  0
   11.1538  -20.1102   27.2538 C   0  0  0  0  0  0  0  0  0  0  0  0
   12.1304  -19.8622   26.0961 C   0  0  2  0  0  0  0  0  0  0  0  0
   11.3792  -20.1189   24.8785 N   0  0  0  0  0  0  0  0  0  0  0  0
   13.3351  -20.6808   26.2189 C   0  0  0  0  0  0  0  0  0  0  0  0
   13.6643  -21.7497   25.3997 O   0  0  0  0  0  0  0  0  0  0  0  0
   14.1435  -20.3995   27.1396 O   0  0  0  0  0  0  0  0  0  0  0  0
  2  1  1  0
  3  2  2  0
  4  3  1  0
  5 11  1  0
  5  4  2  0
  6  5  1  0
  7  6  1  0
  7  8  1  1
  9  7  1  0
  9 10  2  0
 11 12  2  0
 12  2  1  0
 14 13  1  1
 14 15  1  0
 16 17  1  6
 16 14  1  0
 17  9  1  0
 18 16  1  0
 19 18  2  0
 21 20  1  1
 21 22  1  0
 22 18  1  0
 23 24  1  0
 23 21  1  0
 25 23  2  0
M  END
$$$$
