YTA.pdb
     RDKit          3D

 25 25  0  0  1  0  0  0  0  0999 V2000
   18.1848  -17.7412   12.5115 O   0  0  0  0  0  0  0  0  0  0  0  0
   17.1708  -17.4217   13.4224 C   0  0  0  0  0  0  0  0  0  0  0  0
   16.6502  -18.4002   14.2441 C   0  0  0  0  0  0  0  0  0  0  0  0
   15.6490  -18.0820   15.1426 C   0  0  0  0  0  0  0  0  0  0  0  0
   15.1317  -16.8039   15.2620 C   0  0  0  0  0  0  0  0  0  0  0  0
   14.0692  -16.5174   16.2335 C   0  0  0  0  0  0  0  0  0  0  0  0
   12.6895  -16.9035   15.7682 C   0  0  2  0  0  0  0  0  0  0  0  0
   12.2792  -16.2137   14.5843 N   0  0  0  0  0  0  0  0  0  0  0  0
   11.7711  -16.7221   16.9103 C   0  0  0  0  0  0  0  0  0  0  0  0
   11.0649  -15.6816   16.9323 O   0  0  0  0  0  0  0  0  0  0  0  0
   15.6570  -15.8312   14.4377 C   0  0  0  0  0  0  0  0  0  0  0  0
   16.6560  -16.1500   13.5415 C   0  0  0  0  0  0  0  0  0  0  0  0
    8.8939  -18.6360   17.9030 C   0  0  0  0  0  0  0  0  0  0  0  0
    9.6782  -18.4980   19.1887 C   0  0  1  0  0  0  0  0  0  0  0  0
   10.3898  -19.6631   19.4685 O   0  0  0  0  0  0  0  0  0  0  0  0
   10.7018  -17.3688   19.0377 C   0  0  2  0  0  0  0  0  0  0  0  0
   11.6300  -17.6401   17.9844 N   0  0  0  0  0  0  0  0  0  0  0  0
   11.3772  -17.0904   20.3363 C   0  0  0  0  0  0  0  0  0  0  0  0
   12.5591  -17.4772   20.5211 O   0  0  0  0  0  0  0  0  0  0  0  0
   10.4561  -15.2931   23.5029 C   0  0  0  0  0  0  0  0  0  0  0  0
   11.4265  -16.1408   22.6690 C   0  0  2  0  0  0  0  0  0  0  0  0
   10.7511  -16.3952   21.4074 N   0  0  0  0  0  0  0  0  0  0  0  0
   11.8226  -17.3595   23.3721 C   0  0  0  0  0  0  0  0  0  0  0  0
   12.8629  -17.4564   24.2834 O   0  0  0  0  0  0  0  0  0  0  0  0
   11.1725  -18.4095   23.1370 O   0  0  0  0  0  0  0  0  0  0  0  0
  2  1  1  0
  3  2  2  0
  4  3  1  0
  5 11  1  0
  5  4  2  0
  6  5  1  0
  7  6  1  0
  7  8  1  6
  9  7  1  0
  9 10  2  0
 11 12  2  0
 12  2  1  0
 14 13  1  6
 14 15  1  0
 16 17  1  6
 16 14  1  0
 17  9  1  0
 18 16  1  0
 19 18  2  0
 21 20  1  1
 21 22  1  0
 22 18  1  0
 23 24  1  0
 23 21  1  0
 25 23  2  0
M  END
$$$$
