YTA.pdb
     RDKit          3D

 25 25  0  0  1  0  0  0  0  0999 V2000
    8.7977  -12.7682   16.5547 O   0  0  0  0  0  0  0  0  0  0  0  0
    8.4321  -13.2049   17.8336 C   0  0  0  0  0  0  0  0  0  0  0  0
    7.2040  -12.8547   18.3557 C   0  0  0  0  0  0  0  0  0  0  0  0
    6.8455  -13.2873   19.6188 C   0  0  0  0  0  0  0  0  0  0  0  0
    7.6744  -14.0708   20.4026 C   0  0  0  0  0  0  0  0  0  0  0  0
    7.2459  -14.5054   21.7377 C   0  0  0  0  0  0  0  0  0  0  0  0
    7.1834  -16.0008   21.9075 C   0  0  2  0  0  0  0  0  0  0  0  0
    6.1098  -16.6070   21.1826 N   0  0  0  0  0  0  0  0  0  0  0  0
    7.1541  -16.2800   23.3574 C   0  0  0  0  0  0  0  0  0  0  0  0
    6.0736  -16.0796   23.9690 O   0  0  0  0  0  0  0  0  0  0  0  0
    8.9002  -14.4170   19.8741 C   0  0  0  0  0  0  0  0  0  0  0  0
    9.2566  -13.9847   18.6137 C   0  0  0  0  0  0  0  0  0  0  0  0
    6.7653  -18.9039   25.4170 C   0  0  0  0  0  0  0  0  0  0  0  0
    8.0375  -18.3156   25.9851 C   0  0  1  0  0  0  0  0  0  0  0  0
    9.1582  -18.9947   25.5111 O   0  0  0  0  0  0  0  0  0  0  0  0
    8.1670  -16.8585   25.5315 C   0  0  2  0  0  0  0  0  0  0  0  0
    8.2602  -16.7589   24.1082 N   0  0  0  0  0  0  0  0  0  0  0  0
    9.3014  -16.1874   26.2264 C   0  0  0  0  0  0  0  0  0  0  0  0
   10.4720  -16.3269   25.7894 O   0  0  0  0  0  0  0  0  0  0  0  0
    9.8765  -13.4679   28.6089 C   0  0  0  0  0  0  0  0  0  0  0  0
   10.2669  -14.8798   28.1509 C   0  0  2  0  0  0  0  0  0  0  0  0
    9.1371  -15.3768   27.3833 N   0  0  0  0  0  0  0  0  0  0  0  0
   10.6239  -15.7362   29.2802 C   0  0  0  0  0  0  0  0  0  0  0  0
    9.9328  -16.8715   29.6745 O   0  0  0  0  0  0  0  0  0  0  0  0
   11.6385  -15.4250   29.9541 O   0  0  0  0  0  0  0  0  0  0  0  0
  2  1  1  0
  3  2  2  0
  4  3  1  0
  5 11  1  0
  5  4  2  0
  6  5  1  0
  7  6  1  0
  7  8  1  6
  9  7  1  0
  9 10  2  0
 11 12  2  0
 12  2  1  0
 14 13  1  6
 14 15  1  0
 16 17  1  6
 16 14  1  0
 17  9  1  0
 18 16  1  0
 19 18  2  0
 21 20  1  1
 21 22  1  0
 22 18  1  0
 23 24  1  0
 23 21  1  0
 25 23  2  0
M  END
$$$$
