YTA.pdb
     RDKit          3D

 25 25  0  0  1  0  0  0  0  0999 V2000
    6.4277  -10.4285   28.3817 O   0  0  0  0  0  0  0  0  0  0  0  0
    6.7917  -11.5591   27.6407 C   0  0  0  0  0  0  0  0  0  0  0  0
    8.0068  -12.1709   27.8703 C   0  0  0  0  0  0  0  0  0  0  0  0
    8.3637  -13.2871   27.1371 C   0  0  0  0  0  0  0  0  0  0  0  0
    7.5457  -13.8336   26.1635 C   0  0  0  0  0  0  0  0  0  0  0  0
    7.9709  -15.0215   25.4133 C   0  0  0  0  0  0  0  0  0  0  0  0
    6.8421  -15.7686   24.7523 C   0  0  2  0  0  0  0  0  0  0  0  0
    6.2014  -16.7073   25.6207 N   0  0  0  0  0  0  0  0  0  0  0  0
    7.3764  -16.3721   23.5150 C   0  0  0  0  0  0  0  0  0  0  0  0
    7.4990  -17.6233   23.4812 O   0  0  0  0  0  0  0  0  0  0  0  0
    6.3328  -13.2169   25.9397 C   0  0  0  0  0  0  0  0  0  0  0  0
    5.9779  -12.1031   26.6720 C   0  0  0  0  0  0  0  0  0  0  0  0
    6.5967  -15.0360   19.9043 C   0  0  0  0  0  0  0  0  0  0  0  0
    8.0276  -15.5250   19.9301 C   0  0  1  0  0  0  0  0  0  0  0  0
    8.9217  -14.4561   19.9415 O   0  0  0  0  0  0  0  0  0  0  0  0
    8.2649  -16.3260   21.2137 C   0  0  2  0  0  0  0  0  0  0  0  0
    7.7607  -15.6384   22.3615 N   0  0  0  0  0  0  0  0  0  0  0  0
    9.7034  -16.6891   21.3519 C   0  0  0  0  0  0  0  0  0  0  0  0
   10.4657  -15.9683   22.0448 O   0  0  0  0  0  0  0  0  0  0  0  0
   11.8591  -19.5464   20.2191 C   0  0  0  0  0  0  0  0  0  0  0  0
   11.6782  -18.1913   20.9167 C   0  0  2  0  0  0  0  0  0  0  0  0
   10.2822  -17.8310   20.7326 N   0  0  0  0  0  0  0  0  0  0  0  0
   12.6095  -17.1889   20.4027 C   0  0  0  0  0  0  0  0  0  0  0  0
   13.9094  -17.0010   20.8466 O   0  0  0  0  0  0  0  0  0  0  0  0
   12.2071  -16.4315   19.4836 O   0  0  0  0  0  0  0  0  0  0  0  0
  2  1  1  0
  3  2  2  0
  4  3  1  0
  5 11  1  0
  5  4  2  0
  6  5  1  0
  7  6  1  0
  7  8  1  1
  9  7  1  0
  9 10  2  0
 11 12  2  0
 12  2  1  0
 14 13  1  1
 14 15  1  0
 16 17  1  1
 16 14  1  0
 17  9  1  0
 18 16  1  0
 19 18  2  0
 21 20  1  6
 21 22  1  0
 22 18  1  0
 23 24  1  0
 23 21  1  0
 25 23  2  0
M  END
$$$$
