YTA.pdb
     RDKit          3D

 25 25  0  0  1  0  0  0  0  0999 V2000
    5.2505  -10.1945   27.1894 O   0  0  0  0  0  0  0  0  0  0  0  0
    5.9494  -11.3132   26.7202 C   0  0  0  0  0  0  0  0  0  0  0  0
    6.6476  -11.2404   25.5324 C   0  0  0  0  0  0  0  0  0  0  0  0
    7.3368  -12.3465   25.0715 C   0  0  0  0  0  0  0  0  0  0  0  0
    7.3624  -13.5489   25.7564 C   0  0  0  0  0  0  0  0  0  0  0  0
    8.1110  -14.6941   25.2245 C   0  0  0  0  0  0  0  0  0  0  0  0
    7.2602  -15.6998   24.4939 C   0  0  2  0  0  0  0  0  0  0  0  0
    6.3873  -16.4339   25.3569 N   0  0  0  0  0  0  0  0  0  0  0  0
    8.1677  -16.5531   23.7007 C   0  0  0  0  0  0  0  0  0  0  0  0
    8.5658  -17.6258   24.2229 O   0  0  0  0  0  0  0  0  0  0  0  0
    6.6625  -13.6140   26.9428 C   0  0  0  0  0  0  0  0  0  0  0  0
    5.9751  -12.5096   27.4016 C   0  0  0  0  0  0  0  0  0  0  0  0
    8.2012  -16.6748   19.6420 C   0  0  0  0  0  0  0  0  0  0  0  0
    9.5931  -16.8169   20.2163 C   0  0  1  0  0  0  0  0  0  0  0  0
   10.3026  -15.6222   20.1103 O   0  0  0  0  0  0  0  0  0  0  0  0
    9.4927  -17.1518   21.7074 C   0  0  2  0  0  0  0  0  0  0  0  0
    8.6215  -16.2469   22.3905 N   0  0  0  0  0  0  0  0  0  0  0  0
   10.8463  -17.2180   22.3266 C   0  0  0  0  0  0  0  0  0  0  0  0
   11.4687  -16.1560   22.5826 O   0  0  0  0  0  0  0  0  0  0  0  0
   13.0277  -19.8731   23.7909 C   0  0  0  0  0  0  0  0  0  0  0  0
   12.8593  -18.4875   23.1525 C   0  0  2  0  0  0  0  0  0  0  0  0
   11.4944  -18.4405   22.6551 N   0  0  0  0  0  0  0  0  0  0  0  0
   13.8631  -18.2419   22.1188 C   0  0  0  0  0  0  0  0  0  0  0  0
   15.1514  -17.7830   22.3461 O   0  0  0  0  0  0  0  0  0  0  0  0
   13.5401  -18.4619   20.9240 O   0  0  0  0  0  0  0  0  0  0  0  0
  2  1  1  0
  3  2  2  0
  4  3  1  0
  5 11  1  0
  5  4  2  0
  6  5  1  0
  7  6  1  0
  7  8  1  1
  9  7  1  0
  9 10  2  0
 11 12  2  0
 12  2  1  0
 14 13  1  1
 14 15  1  0
 16 17  1  1
 16 14  1  0
 17  9  1  0
 18 16  1  0
 19 18  2  0
 21 20  1  6
 21 22  1  0
 22 18  1  0
 23 24  1  0
 23 21  1  0
 25 23  2  0
M  END
$$$$
