YTA.pdb
     RDKit          3D

 25 25  0  0  1  0  0  0  0  0999 V2000
    5.2879  -10.1020   27.4018 O   0  0  0  0  0  0  0  0  0  0  0  0
    5.9713  -11.2194   26.9076 C   0  0  0  0  0  0  0  0  0  0  0  0
    6.4458  -11.2186   25.6120 C   0  0  0  0  0  0  0  0  0  0  0  0
    7.1203  -12.3233   25.1266 C   0  0  0  0  0  0  0  0  0  0  0  0
    7.3484  -13.4541   25.8912 C   0  0  0  0  0  0  0  0  0  0  0  0
    8.0717  -14.6010   25.3287 C   0  0  0  0  0  0  0  0  0  0  0  0
    7.1921  -15.5921   24.6124 C   0  0  2  0  0  0  0  0  0  0  0  0
    6.2802  -16.2693   25.4817 N   0  0  0  0  0  0  0  0  0  0  0  0
    8.0760  -16.5001   23.8541 C   0  0  0  0  0  0  0  0  0  0  0  0
    8.3561  -17.6108   24.3734 O   0  0  0  0  0  0  0  0  0  0  0  0
    6.8714  -13.4475   27.1850 C   0  0  0  0  0  0  0  0  0  0  0  0
    6.1985  -12.3446   27.6682 C   0  0  0  0  0  0  0  0  0  0  0  0
    8.1640  -16.7307   19.8486 C   0  0  0  0  0  0  0  0  0  0  0  0
    9.5551  -16.8929   20.4192 C   0  0  1  0  0  0  0  0  0  0  0  0
   10.2982  -15.7240   20.2662 O   0  0  0  0  0  0  0  0  0  0  0  0
    9.4557  -17.1713   21.9219 C   0  0  2  0  0  0  0  0  0  0  0  0
    8.6309  -16.2066   22.5804 N   0  0  0  0  0  0  0  0  0  0  0  0
   10.8114  -17.2744   22.5313 C   0  0  0  0  0  0  0  0  0  0  0  0
   11.4692  -16.2303   22.7718 O   0  0  0  0  0  0  0  0  0  0  0  0
   12.9917  -20.0548   23.7929 C   0  0  0  0  0  0  0  0  0  0  0  0
   12.7924  -18.5999   23.3468 C   0  0  2  0  0  0  0  0  0  0  0  0
   11.4230  -18.5136   22.8672 N   0  0  0  0  0  0  0  0  0  0  0  0
   13.7833  -18.1983   22.3503 C   0  0  0  0  0  0  0  0  0  0  0  0
   13.5530  -18.0975   20.9869 O   0  0  0  0  0  0  0  0  0  0  0  0
   14.9410  -17.9202   22.7538 O   0  0  0  0  0  0  0  0  0  0  0  0
  2  1  1  0
  3  2  2  0
  4  3  1  0
  5 11  1  0
  5  4  2  0
  6  5  1  0
  7  6  1  0
  7  8  1  1
  9  7  1  0
  9 10  2  0
 11 12  2  0
 12  2  1  0
 14 13  1  1
 14 15  1  0
 16 17  1  1
 16 14  1  0
 17  9  1  0
 18 16  1  0
 19 18  2  0
 21 20  1  6
 21 22  1  0
 22 18  1  0
 23 24  1  0
 23 21  1  0
 25 23  2  0
M  END
$$$$
