YTA.pdb
     RDKit          3D

 25 25  0  0  1  0  0  0  0  0999 V2000
    5.7696  -10.3052   28.3429 O   0  0  0  0  0  0  0  0  0  0  0  0
    6.3136  -11.4157   27.6866 C   0  0  0  0  0  0  0  0  0  0  0  0
    7.6010  -11.8216   27.9721 C   0  0  0  0  0  0  0  0  0  0  0  0
    8.1358  -12.9184   27.3225 C   0  0  0  0  0  0  0  0  0  0  0  0
    7.4294  -13.6454   26.3801 C   0  0  0  0  0  0  0  0  0  0  0  0
    8.0427  -14.8039   25.7193 C   0  0  0  0  0  0  0  0  0  0  0  0
    7.0713  -15.6572   24.9465 C   0  0  2  0  0  0  0  0  0  0  0  0
    6.3141  -16.5431   25.7758 N   0  0  0  0  0  0  0  0  0  0  0  0
    7.8339  -16.3435   23.8843 C   0  0  0  0  0  0  0  0  0  0  0  0
    8.1475  -17.5465   24.0749 O   0  0  0  0  0  0  0  0  0  0  0  0
    6.1434  -13.2340   26.1001 C   0  0  0  0  0  0  0  0  0  0  0  0
    5.6110  -12.1393   26.7490 C   0  0  0  0  0  0  0  0  0  0  0  0
    7.5946  -15.1909   20.0975 C   0  0  0  0  0  0  0  0  0  0  0  0
    8.9470  -15.8296   20.3220 C   0  0  1  0  0  0  0  0  0  0  0  0
    9.9595  -14.8721   20.3181 O   0  0  0  0  0  0  0  0  0  0  0  0
    8.9664  -16.5017   21.6980 C   0  0  2  0  0  0  0  0  0  0  0  0
    8.2371  -15.7401   22.6638 N   0  0  0  0  0  0  0  0  0  0  0  0
   10.3646  -16.7822   22.1298 C   0  0  0  0  0  0  0  0  0  0  0  0
   11.0291  -15.8889   22.7137 O   0  0  0  0  0  0  0  0  0  0  0  0
   12.6644  -19.7490   21.9997 C   0  0  0  0  0  0  0  0  0  0  0  0
   12.3840  -18.2755   22.3249 C   0  0  2  0  0  0  0  0  0  0  0  0
   11.0104  -18.0313   21.9170 N   0  0  0  0  0  0  0  0  0  0  0  0
   13.3482  -17.3857   21.6808 C   0  0  0  0  0  0  0  0  0  0  0  0
   13.1821  -16.7869   20.4415 O   0  0  0  0  0  0  0  0  0  0  0  0
   14.4176  -17.1381   22.2936 O   0  0  0  0  0  0  0  0  0  0  0  0
  2  1  1  0
  3  2  2  0
  4  3  1  0
  5 11  1  0
  5  4  2  0
  6  5  1  0
  7  6  1  0
  7  8  1  1
  9  7  1  0
  9 10  2  0
 11 12  2  0
 12  2  1  0
 14 13  1  1
 14 15  1  0
 16 17  1  1
 16 14  1  0
 17  9  1  0
 18 16  1  0
 19 18  2  0
 21 20  1  6
 21 22  1  0
 22 18  1  0
 23 24  1  0
 23 21  1  0
 25 23  2  0
M  END
$$$$
