YTA.pdb
     RDKit          3D

 25 25  0  0  1  0  0  0  0  0999 V2000
    8.3687  -12.4183   16.8341 O   0  0  0  0  0  0  0  0  0  0  0  0
    8.1212  -12.9435   18.1080 C   0  0  0  0  0  0  0  0  0  0  0  0
    9.1763  -13.2962   18.9240 C   0  0  0  0  0  0  0  0  0  0  0  0
    8.9290  -13.8146   20.1815 C   0  0  0  0  0  0  0  0  0  0  0  0
    7.6490  -14.0014   20.6734 C   0  0  0  0  0  0  0  0  0  0  0  0
    7.4400  -14.5545   22.0170 C   0  0  0  0  0  0  0  0  0  0  0  0
    7.4177  -16.0599   22.0661 C   0  0  2  0  0  0  0  0  0  0  0  0
    6.1957  -16.6227   21.5805 N   0  0  0  0  0  0  0  0  0  0  0  0
    7.7496  -16.4619   23.4478 C   0  0  0  0  0  0  0  0  0  0  0  0
    6.8318  -16.4140   24.3064 O   0  0  0  0  0  0  0  0  0  0  0  0
    6.5996  -13.6464   19.8522 C   0  0  0  0  0  0  0  0  0  0  0  0
    6.8476  -13.1293   18.5977 C   0  0  0  0  0  0  0  0  0  0  0  0
   10.1882  -18.8884   26.8463 C   0  0  0  0  0  0  0  0  0  0  0  0
   10.0200  -18.5568   25.3804 C   0  0  1  0  0  0  0  0  0  0  0  0
    9.2750  -19.5372   24.7278 O   0  0  0  0  0  0  0  0  0  0  0  0
    9.2502  -17.2398   25.2452 C   0  0  2  0  0  0  0  0  0  0  0  0
    9.0319  -16.8986   23.8739 N   0  0  0  0  0  0  0  0  0  0  0  0
    9.9281  -16.1510   26.0035 C   0  0  0  0  0  0  0  0  0  0  0  0
   11.0689  -15.7594   25.6486 O   0  0  0  0  0  0  0  0  0  0  0  0
    9.2257  -13.3483   28.1352 C   0  0  0  0  0  0  0  0  0  0  0  0
   10.1006  -14.5999   27.9809 C   0  0  2  0  0  0  0  0  0  0  0  0
    9.3487  -15.5102   27.1331 N   0  0  0  0  0  0  0  0  0  0  0  0
   10.4579  -15.1741   29.2766 C   0  0  0  0  0  0  0  0  0  0  0  0
   10.0743  -16.4264   29.7311 O   0  0  0  0  0  0  0  0  0  0  0  0
   11.1706  -14.4828   30.0477 O   0  0  0  0  0  0  0  0  0  0  0  0
  2  1  1  0
  3  2  2  0
  4  3  1  0
  5 11  1  0
  5  4  2  0
  6  5  1  0
  7  6  1  0
  7  8  1  1
  9  7  1  0
  9 10  2  0
 11 12  2  0
 12  2  1  0
 14 13  1  1
 14 15  1  0
 16 17  1  6
 16 14  1  0
 17  9  1  0
 18 16  1  0
 19 18  2  0
 21 20  1  1
 21 22  1  0
 22 18  1  0
 23 24  1  0
 23 21  1  0
 25 23  2  0
M  END
$$$$
