YTA.pdb
     RDKit          3D

 25 25  0  0  1  0  0  0  0  0999 V2000
    5.7537  -10.3578   28.0873 O   0  0  0  0  0  0  0  0  0  0  0  0
    6.3466  -11.3736   27.3279 C   0  0  0  0  0  0  0  0  0  0  0  0
    7.5273  -11.9490   27.7503 C   0  0  0  0  0  0  0  0  0  0  0  0
    8.1104  -12.9519   26.9985 C   0  0  0  0  0  0  0  0  0  0  0  0
    7.5576  -13.4177   25.8184 C   0  0  0  0  0  0  0  0  0  0  0  0
    8.2161  -14.4863   25.0574 C   0  0  0  0  0  0  0  0  0  0  0  0
    7.2812  -15.5645   24.5753 C   0  0  2  0  0  0  0  0  0  0  0  0
    6.6258  -16.2607   25.6390 N   0  0  0  0  0  0  0  0  0  0  0  0
    8.0501  -16.4454   23.6733 C   0  0  0  0  0  0  0  0  0  0  0  0
    8.2795  -17.6201   24.0599 O   0  0  0  0  0  0  0  0  0  0  0  0
    6.3775  -12.8379   25.4027 C   0  0  0  0  0  0  0  0  0  0  0  0
    5.7966  -11.8373   26.1537 C   0  0  0  0  0  0  0  0  0  0  0  0
    7.5567  -16.3730   19.8091 C   0  0  0  0  0  0  0  0  0  0  0  0
    9.0119  -16.6842   20.0794 C   0  0  1  0  0  0  0  0  0  0  0  0
    9.8181  -15.5796   19.8110 O   0  0  0  0  0  0  0  0  0  0  0  0
    9.1892  -17.0231   21.5623 C   0  0  2  0  0  0  0  0  0  0  0  0
    8.5479  -16.0587   22.4009 N   0  0  0  0  0  0  0  0  0  0  0  0
   10.6306  -17.2006   21.8953 C   0  0  0  0  0  0  0  0  0  0  0  0
   11.3015  -16.2209   22.3085 O   0  0  0  0  0  0  0  0  0  0  0  0
   13.0489  -20.0750   21.8812 C   0  0  0  0  0  0  0  0  0  0  0  0
   12.7260  -18.5872   22.0757 C   0  0  2  0  0  0  0  0  0  0  0  0
   11.3120  -18.4428   21.7721 N   0  0  0  0  0  0  0  0  0  0  0  0
   13.5860  -17.7348   21.2572 C   0  0  0  0  0  0  0  0  0  0  0  0
   14.8126  -17.2216   21.6498 O   0  0  0  0  0  0  0  0  0  0  0  0
   13.1886  -17.4380   20.1020 O   0  0  0  0  0  0  0  0  0  0  0  0
  2  1  1  0
  3  2  2  0
  4  3  1  0
  5 11  1  0
  5  4  2  0
  6  5  1  0
  7  6  1  0
  7  8  1  1
  9  7  1  0
  9 10  2  0
 11 12  2  0
 12  2  1  0
 14 13  1  1
 14 15  1  0
 16 17  1  1
 16 14  1  0
 17  9  1  0
 18 16  1  0
 19 18  2  0
 21 20  1  6
 21 22  1  0
 22 18  1  0
 23 24  1  0
 23 21  1  0
 25 23  2  0
M  END
$$$$
