YVR.pdb
     RDKit          3D

 31 31  0  0  1  0  0  0  0  0999 V2000
   35.4861  -23.7386  -13.7699 O   0  0  0  0  0  0  0  0  0  0  0  0
   34.3303  -23.5855  -13.0103 C   0  0  0  0  0  0  0  0  0  0  0  0
   34.4380  -23.6033  -11.6436 C   0  0  0  0  0  0  0  0  0  0  0  0
   33.3148  -23.4546  -10.8447 C   0  0  0  0  0  0  0  0  0  0  0  0
   32.0575  -23.2846  -11.3883 C   0  0  0  0  0  0  0  0  0  0  0  0
   30.9269  -23.1360  -10.4685 C   0  0  0  0  0  0  0  0  0  0  0  0
   30.4113  -21.7206  -10.3739 C   0  0  2  0  0  0  0  0  0  0  0  0
   31.4466  -20.7764  -10.1030 N   0  0  0  0  0  0  0  0  0  0  0  0
   29.2510  -21.6639   -9.4813 C   0  0  0  0  0  0  0  0  0  0  0  0
   28.3495  -22.5609   -9.5876 O   0  0  0  0  0  0  0  0  0  0  0  0
   31.9511  -23.2671  -12.7629 C   0  0  0  0  0  0  0  0  0  0  0  0
   33.0805  -23.4166  -13.5455 C   0  0  0  0  0  0  0  0  0  0  0  0
   29.1240  -20.1236   -5.6893 C   0  0  0  0  0  0  0  0  0  0  0  0
   27.9102  -19.7655   -6.5064 C   0  0  2  0  0  0  0  0  0  0  0  0
   26.6419  -19.7201   -5.7185 C   0  0  0  0  0  0  0  0  0  0  0  0
   27.8015  -20.6460   -7.7507 C   0  0  2  0  0  0  0  0  0  0  0  0
   29.0327  -20.6776   -8.4848 N   0  0  0  0  0  0  0  0  0  0  0  0
   26.6645  -20.1135   -8.5202 C   0  0  0  0  0  0  0  0  0  0  0  0
   26.6483  -18.8671   -8.7162 O   0  0  0  0  0  0  0  0  0  0  0  0
   22.9330  -21.5610  -16.1828 N   0  0  0  0  0  0  0  0  0  0  0  0
   24.1395  -22.0519  -15.6199 C   0  0  0  0  0  0  0  0  0  0  0  0
   25.0086  -22.7433  -16.3166 N   0  0  0  0  0  0  0  0  0  0  0  0
   24.4822  -21.8179  -14.2380 N   0  0  0  0  0  0  0  0  0  0  0  0
   23.4713  -21.6114  -13.2389 C   0  0  0  0  0  0  0  0  0  0  0  0
   23.7865  -20.4204  -12.3318 C   0  0  0  0  0  0  0  0  0  0  0  0
   24.8354  -20.8880  -11.3579 C   0  0  0  0  0  0  0  0  0  0  0  0
   24.6030  -20.3859   -9.9741 C   0  0  2  0  0  0  0  0  0  0  0  0
   25.6145  -20.8783   -9.0441 N   0  0  0  0  0  0  0  0  0  0  0  0
   23.2669  -20.6322   -9.4220 C   0  0  0  0  0  0  0  0  0  0  0  0
   22.1190  -19.9248   -9.7191 O   0  0  0  0  0  0  0  0  0  0  0  0
   23.1216  -21.5789   -8.5880 O   0  0  0  0  0  0  0  0  0  0  0  0
  2 12  2  0
  2  1  1  0
  3  2  1  0
  4  5  1  0
  4  3  2  0
  5 11  2  0
  6  5  1  0
  7  6  1  0
  7  8  1  1
  9 10  2  0
  9  7  1  0
 11 12  1  0
 14 13  1  1
 14 16  1  0
 15 14  1  0
 16 18  1  0
 16 17  1  6
 17  9  1  0
 18 19  2  0
 21 20  1  0
 21 23  1  0
 22 21  2  0
 23 24  1  0
 24 25  1  0
 26 25  1  0
 27 26  1  6
 28 27  1  0
 28 18  1  0
 29 27  1  0
 30 29  1  0
 31 29  2  0
M  END
$$$$
