YVR.pdb
     RDKit          3D

 31 31  0  0  1  0  0  0  0  0999 V2000
   26.3846  -15.0267  -17.6947 O   0  0  0  0  0  0  0  0  0  0  0  0
   26.8865  -15.9858  -16.8204 C   0  0  0  0  0  0  0  0  0  0  0  0
   26.5840  -15.8788  -15.4874 C   0  0  0  0  0  0  0  0  0  0  0  0
   27.0609  -16.8103  -14.5780 C   0  0  0  0  0  0  0  0  0  0  0  0
   27.8506  -17.8704  -14.9749 C   0  0  0  0  0  0  0  0  0  0  0  0
   28.3106  -18.8060  -13.9456 C   0  0  0  0  0  0  0  0  0  0  0  0
   28.0344  -20.2515  -14.2808 C   0  0  2  0  0  0  0  0  0  0  0  0
   28.0930  -20.5105  -15.6831 N   0  0  0  0  0  0  0  0  0  0  0  0
   26.8176  -20.7041  -13.6021 C   0  0  0  0  0  0  0  0  0  0  0  0
   25.8525  -21.1538  -14.3057 O   0  0  0  0  0  0  0  0  0  0  0  0
   28.1539  -17.9764  -16.3158 C   0  0  0  0  0  0  0  0  0  0  0  0
   27.6706  -17.0396  -17.2098 C   0  0  0  0  0  0  0  0  0  0  0  0
   25.0967  -19.5691   -9.7383 C   0  0  0  0  0  0  0  0  0  0  0  0
   25.3469  -21.0042  -10.1219 C   0  0  2  0  0  0  0  0  0  0  0  0
   26.5314  -21.6137   -9.4463 C   0  0  0  0  0  0  0  0  0  0  0  0
   25.3809  -21.1731  -11.6403 C   0  0  2  0  0  0  0  0  0  0  0  0
   26.6090  -20.6873  -12.1986 N   0  0  0  0  0  0  0  0  0  0  0  0
   24.1834  -20.4821  -12.1473 C   0  0  0  0  0  0  0  0  0  0  0  0
   24.1628  -19.2260  -12.0293 O   0  0  0  0  0  0  0  0  0  0  0  0
   24.1757  -21.7259  -18.0746 N   0  0  0  0  0  0  0  0  0  0  0  0
   22.8325  -22.0696  -17.7724 C   0  0  0  0  0  0  0  0  0  0  0  0
   22.3274  -23.2449  -18.0595 N   0  0  0  0  0  0  0  0  0  0  0  0
   21.9378  -21.1391  -17.1279 N   0  0  0  0  0  0  0  0  0  0  0  0
   22.3469  -19.7978  -16.8171 C   0  0  0  0  0  0  0  0  0  0  0  0
   22.6321  -19.6089  -15.3258 C   0  0  0  0  0  0  0  0  0  0  0  0
   21.6226  -20.4462  -14.5861 C   0  0  0  0  0  0  0  0  0  0  0  0
   21.8368  -20.4395  -13.1112 C   0  0  2  0  0  0  0  0  0  0  0  0
   23.0812  -21.1078  -12.7434 N   0  0  0  0  0  0  0  0  0  0  0  0
   20.7352  -20.9738  -12.3041 C   0  0  0  0  0  0  0  0  0  0  0  0
   20.7980  -22.0637  -11.4588 O   0  0  0  0  0  0  0  0  0  0  0  0
   19.6036  -20.4008  -12.3692 O   0  0  0  0  0  0  0  0  0  0  0  0
  2 12  2  0
  2  1  1  0
  3  2  1  0
  4  5  1  0
  4  3  2  0
  5 11  2  0
  6  5  1  0
  7  6  1  0
  7  8  1  6
  9 10  2  0
  9  7  1  0
 11 12  1  0
 14 13  1  6
 14 16  1  0
 15 14  1  0
 16 18  1  0
 16 17  1  6
 17  9  1  0
 18 19  2  0
 21 20  1  0
 21 23  1  0
 22 21  2  0
 23 24  1  0
 24 25  1  0
 26 25  1  0
 27 26  1  6
 28 27  1  0
 28 18  1  0
 29 27  1  0
 30 29  1  0
 31 29  2  0
M  END
$$$$
