YVR.pdb
     RDKit          3D

 31 31  0  0  1  0  0  0  0  0999 V2000
   19.8460  -23.8198   -7.0968 O   0  0  0  0  0  0  0  0  0  0  0  0
   20.6884  -22.9673   -7.8037 C   0  0  0  0  0  0  0  0  0  0  0  0
   20.9054  -23.2165   -9.1344 C   0  0  0  0  0  0  0  0  0  0  0  0
   21.7365  -22.3951   -9.8804 C   0  0  0  0  0  0  0  0  0  0  0  0
   22.3713  -21.3058   -9.3185 C   0  0  0  0  0  0  0  0  0  0  0  0
   23.2322  -20.4932  -10.1816 C   0  0  0  0  0  0  0  0  0  0  0  0
   24.6724  -20.9447  -10.1900 C   0  0  2  0  0  0  0  0  0  0  0  0
   25.2624  -20.9209   -8.8907 N   0  0  0  0  0  0  0  0  0  0  0  0
   25.4164  -20.2416  -11.2379 C   0  0  0  0  0  0  0  0  0  0  0  0
   25.7358  -19.0203  -11.0509 O   0  0  0  0  0  0  0  0  0  0  0  0
   22.1519  -21.0567   -7.9802 C   0  0  0  0  0  0  0  0  0  0  0  0
   21.3205  -21.8851   -7.2503 C   0  0  0  0  0  0  0  0  0  0  0  0
   27.5740  -21.8496  -14.6142 C   0  0  0  0  0  0  0  0  0  0  0  0
   27.6741  -20.4597  -14.0420 C   0  0  2  0  0  0  0  0  0  0  0  0
   28.7657  -20.2966  -13.0355 C   0  0  0  0  0  0  0  0  0  0  0  0
   26.3193  -19.9740  -13.5283 C   0  0  2  0  0  0  0  0  0  0  0  0
   25.8241  -20.8089  -12.4730 N   0  0  0  0  0  0  0  0  0  0  0  0
   25.4390  -19.9219  -14.7075 C   0  0  0  0  0  0  0  0  0  0  0  0
   24.3145  -20.4839  -14.5991 O   0  0  0  0  0  0  0  0  0  0  0  0
   19.1208  -16.9657  -16.4540 N   0  0  0  0  0  0  0  0  0  0  0  0
   19.7437  -16.2627  -17.5177 C   0  0  0  0  0  0  0  0  0  0  0  0
   19.0648  -15.5312  -18.3679 N   0  0  0  0  0  0  0  0  0  0  0  0
   21.1703  -16.3129  -17.7275 N   0  0  0  0  0  0  0  0  0  0  0  0
   22.0250  -17.1030  -16.8862 C   0  0  0  0  0  0  0  0  0  0  0  0
   23.3841  -16.4401  -16.6535 C   0  0  0  0  0  0  0  0  0  0  0  0
   24.2058  -17.4149  -15.8523 C   0  0  0  0  0  0  0  0  0  0  0  0
   24.8409  -18.4655  -16.6973 C   0  0  2  0  0  0  0  0  0  0  0  0
   25.7532  -19.3021  -15.9236 N   0  0  0  0  0  0  0  0  0  0  0  0
   25.5188  -17.9881  -17.9068 C   0  0  0  0  0  0  0  0  0  0  0  0
   25.0181  -18.0312  -19.1928 O   0  0  0  0  0  0  0  0  0  0  0  0
   26.6784  -17.4830  -17.7915 O   0  0  0  0  0  0  0  0  0  0  0  0
  2 12  2  0
  2  1  1  0
  3  2  1  0
  4  5  1  0
  4  3  2  0
  5 11  2  0
  6  5  1  0
  7  6  1  0
  7  8  1  1
  9 10  2  0
  9  7  1  0
 11 12  1  0
 14 13  1  1
 14 16  1  0
 15 14  1  0
 16 18  1  0
 16 17  1  1
 17  9  1  0
 18 19  2  0
 21 20  1  0
 21 23  1  0
 22 21  2  0
 23 24  1  0
 24 25  1  0
 26 25  1  0
 27 26  1  1
 28 27  1  0
 28 18  1  0
 29 27  1  0
 30 29  1  0
 31 29  2  0
M  END
$$$$
