YVR.pdb
     RDKit          3D

 31 31  0  0  1  0  0  0  0  0999 V2000
   22.5704  -16.0894  -20.5175 O   0  0  0  0  0  0  0  0  0  0  0  0
   22.3244  -17.0108  -19.5042 C   0  0  0  0  0  0  0  0  0  0  0  0
   22.6566  -18.3237  -19.7184 C   0  0  0  0  0  0  0  0  0  0  0  0
   22.4306  -19.2782  -18.7387 C   0  0  0  0  0  0  0  0  0  0  0  0
   21.8684  -18.9476  -17.5223 C   0  0  0  0  0  0  0  0  0  0  0  0
   21.6651  -20.0210  -16.5462 C   0  0  0  0  0  0  0  0  0  0  0  0
   22.7973  -20.1562  -15.5573 C   0  0  2  0  0  0  0  0  0  0  0  0
   23.9310  -20.8248  -16.1092 N   0  0  0  0  0  0  0  0  0  0  0  0
   22.2991  -20.6934  -14.2887 C   0  0  0  0  0  0  0  0  0  0  0  0
   22.4415  -21.9391  -14.0506 O   0  0  0  0  0  0  0  0  0  0  0  0
   21.5349  -17.6268  -17.3087 C   0  0  0  0  0  0  0  0  0  0  0  0
   21.7666  -16.6872  -18.2955 C   0  0  0  0  0  0  0  0  0  0  0  0
   20.7747  -20.1688   -9.6122 C   0  0  0  0  0  0  0  0  0  0  0  0
   21.0644  -19.5105  -10.9357 C   0  0  2  0  0  0  0  0  0  0  0  0
   20.0705  -18.4643  -11.3218 C   0  0  0  0  0  0  0  0  0  0  0  0
   21.2850  -20.5498  -12.0341 C   0  0  2  0  0  0  0  0  0  0  0  0
   21.6561  -19.9360  -13.2756 N   0  0  0  0  0  0  0  0  0  0  0  0
   20.0370  -21.3282  -12.1057 C   0  0  0  0  0  0  0  0  0  0  0  0
   19.0972  -20.8289  -12.7836 O   0  0  0  0  0  0  0  0  0  0  0  0
   17.6147  -29.0911   -8.3206 N   0  0  0  0  0  0  0  0  0  0  0  0
   16.4753  -28.6745   -9.0566 C   0  0  0  0  0  0  0  0  0  0  0  0
   15.4103  -29.4279   -9.1872 N   0  0  0  0  0  0  0  0  0  0  0  0
   16.4221  -27.3889   -9.7095 N   0  0  0  0  0  0  0  0  0  0  0  0
   17.5642  -26.5187   -9.7468 C   0  0  0  0  0  0  0  0  0  0  0  0
   17.3329  -25.2954  -10.6361 C   0  0  0  0  0  0  0  0  0  0  0  0
   18.6209  -24.5153  -10.6368 C   0  0  0  0  0  0  0  0  0  0  0  0
   18.5487  -23.2829  -11.4717 C   0  0  2  0  0  0  0  0  0  0  0  0
   19.8197  -22.5654  -11.4860 N   0  0  0  0  0  0  0  0  0  0  0  0
   17.4634  -22.3528  -11.1439 C   0  0  0  0  0  0  0  0  0  0  0  0
   16.2398  -22.2716  -11.7784 O   0  0  0  0  0  0  0  0  0  0  0  0
   17.6373  -21.5312  -10.1911 O   0  0  0  0  0  0  0  0  0  0  0  0
  2 12  2  0
  2  1  1  0
  3  2  1  0
  4  5  1  0
  4  3  2  0
  5 11  2  0
  6  5  1  0
  7  6  1  0
  7  8  1  6
  9 10  2  0
  9  7  1  0
 11 12  1  0
 14 13  1  1
 14 16  1  0
 15 14  1  0
 16 18  1  0
 16 17  1  6
 17  9  1  0
 18 19  2  0
 21 20  1  0
 21 23  1  0
 22 21  2  0
 23 24  1  0
 24 25  1  0
 26 25  1  0
 27 26  1  1
 28 27  1  0
 28 18  1  0
 29 27  1  0
 30 29  1  0
 31 29  2  0
M  END
$$$$
