YVR.pdb
     RDKit          3D

 31 31  0  0  1  0  0  0  0  0999 V2000
   19.6642  -23.5387   -7.6041 O   0  0  0  0  0  0  0  0  0  0  0  0
   20.6321  -22.7624   -8.2339 C   0  0  0  0  0  0  0  0  0  0  0  0
   20.5106  -22.5290   -9.5794 C   0  0  0  0  0  0  0  0  0  0  0  0
   21.4501  -21.7615  -10.2507 C   0  0  0  0  0  0  0  0  0  0  0  0
   22.5328  -21.2084   -9.5975 C   0  0  0  0  0  0  0  0  0  0  0  0
   23.4762  -20.4120  -10.3863 C   0  0  0  0  0  0  0  0  0  0  0  0
   24.9066  -20.8775  -10.2616 C   0  0  2  0  0  0  0  0  0  0  0  0
   25.4084  -20.7579   -8.9309 N   0  0  0  0  0  0  0  0  0  0  0  0
   25.7300  -20.2663  -11.3078 C   0  0  0  0  0  0  0  0  0  0  0  0
   26.2274  -19.1094  -11.1011 O   0  0  0  0  0  0  0  0  0  0  0  0
   22.6534  -21.4443   -8.2443 C   0  0  0  0  0  0  0  0  0  0  0  0
   21.7084  -22.2115   -7.5896 C   0  0  0  0  0  0  0  0  0  0  0  0
   28.5670  -20.4095  -15.3240 C   0  0  0  0  0  0  0  0  0  0  0  0
   27.6565  -21.1434  -14.3745 C   0  0  2  0  0  0  0  0  0  0  0  0
   26.7965  -22.1717  -15.0334 C   0  0  0  0  0  0  0  0  0  0  0  0
   26.8561  -20.1689  -13.5112 C   0  0  2  0  0  0  0  0  0  0  0  0
   26.0323  -20.8583  -12.5615 N   0  0  0  0  0  0  0  0  0  0  0  0
   26.0998  -19.3271  -14.4533 C   0  0  0  0  0  0  0  0  0  0  0  0
   25.0343  -19.8167  -14.9193 O   0  0  0  0  0  0  0  0  0  0  0  0
   23.7610  -12.0535  -18.0189 N   0  0  0  0  0  0  0  0  0  0  0  0
   22.9205  -13.1926  -18.1170 C   0  0  0  0  0  0  0  0  0  0  0  0
   21.9052  -13.2464  -18.9446 N   0  0  0  0  0  0  0  0  0  0  0  0
   23.1353  -14.3661  -17.3054 N   0  0  0  0  0  0  0  0  0  0  0  0
   24.1114  -14.3813  -16.2518 C   0  0  0  0  0  0  0  0  0  0  0  0
   25.4680  -14.9068  -16.7251 C   0  0  0  0  0  0  0  0  0  0  0  0
   26.0100  -15.7617  -15.6103 C   0  0  0  0  0  0  0  0  0  0  0  0
   25.7178  -17.2109  -15.8000 C   0  0  2  0  0  0  0  0  0  0  0  0
   26.4704  -18.0403  -14.8639 N   0  0  0  0  0  0  0  0  0  0  0  0
   25.8940  -17.7243  -17.1622 C   0  0  0  0  0  0  0  0  0  0  0  0
   24.9011  -17.8826  -18.1085 O   0  0  0  0  0  0  0  0  0  0  0  0
   27.0594  -18.0648  -17.5349 O   0  0  0  0  0  0  0  0  0  0  0  0
  2 12  2  0
  2  1  1  0
  3  2  1  0
  4  5  1  0
  4  3  2  0
  5 11  2  0
  6  5  1  0
  7  6  1  0
  7  8  1  1
  9 10  2  0
  9  7  1  0
 11 12  1  0
 14 13  1  6
 14 16  1  0
 15 14  1  0
 16 18  1  0
 16 17  1  1
 17  9  1  0
 18 19  2  0
 21 20  1  0
 21 23  1  0
 22 21  2  0
 23 24  1  0
 24 25  1  0
 26 25  1  0
 27 26  1  6
 28 27  1  0
 28 18  1  0
 29 27  1  0
 30 29  1  0
 31 29  2  0
M  END
$$$$
