YVR.pdb
     RDKit          3D

 31 31  0  0  1  0  0  0  0  0999 V2000
   28.3772  -12.5945  -17.4644 O   0  0  0  0  0  0  0  0  0  0  0  0
   27.8572  -13.8381  -17.1193 C   0  0  0  0  0  0  0  0  0  0  0  0
   27.5916  -14.0931  -15.7986 C   0  0  0  0  0  0  0  0  0  0  0  0
   27.0729  -15.3175  -15.4061 C   0  0  0  0  0  0  0  0  0  0  0  0
   26.8066  -16.3169  -16.3200 C   0  0  0  0  0  0  0  0  0  0  0  0
   26.2600  -17.5793  -15.8160 C   0  0  0  0  0  0  0  0  0  0  0  0
   27.3169  -18.5373  -15.3226 C   0  0  2  0  0  0  0  0  0  0  0  0
   28.2441  -18.9046  -16.3436 N   0  0  0  0  0  0  0  0  0  0  0  0
   26.6938  -19.6496  -14.6011 C   0  0  0  0  0  0  0  0  0  0  0  0
   26.2035  -20.6189  -15.2710 O   0  0  0  0  0  0  0  0  0  0  0  0
   27.0744  -16.0588  -17.6478 C   0  0  0  0  0  0  0  0  0  0  0  0
   27.5914  -14.8330  -18.0229 C   0  0  0  0  0  0  0  0  0  0  0  0
   25.6828  -22.2026  -10.4761 C   0  0  0  0  0  0  0  0  0  0  0  0
   26.1122  -20.8868  -11.0706 C   0  0  2  0  0  0  0  0  0  0  0  0
   25.4876  -19.6960  -10.4202 C   0  0  0  0  0  0  0  0  0  0  0  0
   25.9459  -20.8855  -12.5897 C   0  0  2  0  0  0  0  0  0  0  0  0
   26.5826  -19.7496  -13.1900 N   0  0  0  0  0  0  0  0  0  0  0  0
   24.4953  -20.9516  -12.8340 C   0  0  0  0  0  0  0  0  0  0  0  0
   23.9040  -19.8540  -13.0287 O   0  0  0  0  0  0  0  0  0  0  0  0
   18.8042  -27.8411  -13.6196 N   0  0  0  0  0  0  0  0  0  0  0  0
   17.9741  -26.6929  -13.5403 C   0  0  0  0  0  0  0  0  0  0  0  0
   16.6731  -26.7560  -13.6894 N   0  0  0  0  0  0  0  0  0  0  0  0
   18.5172  -25.3799  -13.2900 N   0  0  0  0  0  0  0  0  0  0  0  0
   19.9338  -25.1565  -13.2108 C   0  0  0  0  0  0  0  0  0  0  0  0
   20.2853  -23.6681  -13.1690 C   0  0  0  0  0  0  0  0  0  0  0  0
   21.7810  -23.5842  -13.0168 C   0  0  0  0  0  0  0  0  0  0  0  0
   22.2844  -22.1814  -13.0269 C   0  0  2  0  0  0  0  0  0  0  0  0
   23.7341  -22.1269  -12.8667 N   0  0  0  0  0  0  0  0  0  0  0  0
   21.6499  -21.2690  -12.0702 C   0  0  0  0  0  0  0  0  0  0  0  0
   20.7319  -20.2823  -12.3703 O   0  0  0  0  0  0  0  0  0  0  0  0
   21.9554  -21.3718  -10.8417 O   0  0  0  0  0  0  0  0  0  0  0  0
  2 12  2  0
  2  1  1  0
  3  2  1  0
  4  5  1  0
  4  3  2  0
  5 11  2  0
  6  5  1  0
  7  6  1  0
  7  8  1  6
  9 10  2  0
  9  7  1  0
 11 12  1  0
 14 13  1  1
 14 16  1  0
 15 14  1  0
 16 18  1  0
 16 17  1  1
 17  9  1  0
 18 19  2  0
 21 20  1  0
 21 23  1  0
 22 21  2  0
 23 24  1  0
 24 25  1  0
 26 25  1  0
 27 26  1  1
 28 27  1  0
 28 18  1  0
 29 27  1  0
 30 29  1  0
 31 29  2  0
M  END
$$$$
