YVR.pdb
     RDKit          3D

 31 31  0  0  1  0  0  0  0  0999 V2000
   24.6942  -18.5042  -20.3978 O   0  0  0  0  0  0  0  0  0  0  0  0
   24.1990  -19.0900  -19.2369 C   0  0  0  0  0  0  0  0  0  0  0  0
   24.5646  -20.3791  -18.9468 C   0  0  0  0  0  0  0  0  0  0  0  0
   24.0969  -21.0052  -17.8016 C   0  0  0  0  0  0  0  0  0  0  0  0
   23.2536  -20.3618  -16.9183 C   0  0  0  0  0  0  0  0  0  0  0  0
   22.8079  -21.1004  -15.7341 C   0  0  0  0  0  0  0  0  0  0  0  0
   23.5495  -20.7215  -14.4753 C   0  0  2  0  0  0  0  0  0  0  0  0
   24.9429  -21.0213  -14.5481 N   0  0  0  0  0  0  0  0  0  0  0  0
   22.8486  -21.2430  -13.2994 C   0  0  0  0  0  0  0  0  0  0  0  0
   23.2308  -22.3525  -12.7980 O   0  0  0  0  0  0  0  0  0  0  0  0
   22.8868  -19.0655  -17.2118 C   0  0  0  0  0  0  0  0  0  0  0  0
   23.3618  -18.4554  -18.3575 C   0  0  0  0  0  0  0  0  0  0  0  0
   19.7070  -19.1964  -11.0910 C   0  0  0  0  0  0  0  0  0  0  0  0
   20.7367  -20.1099  -10.4794 C   0  0  2  0  0  0  0  0  0  0  0  0
   21.8871  -19.3920   -9.8529 C   0  0  0  0  0  0  0  0  0  0  0  0
   21.1803  -21.1855  -11.4701 C   0  0  2  0  0  0  0  0  0  0  0  0
   21.7558  -20.6111  -12.6511 N   0  0  0  0  0  0  0  0  0  0  0  0
   19.9865  -22.0074  -11.7303 C   0  0  0  0  0  0  0  0  0  0  0  0
   19.4146  -21.8381  -12.8423 O   0  0  0  0  0  0  0  0  0  0  0  0
   16.9420  -27.8263   -6.1773 N   0  0  0  0  0  0  0  0  0  0  0  0
   17.8549  -26.7487   -6.0395 C   0  0  0  0  0  0  0  0  0  0  0  0
   18.7185  -26.6822   -5.0553 N   0  0  0  0  0  0  0  0  0  0  0  0
   17.8857  -25.6553   -6.9804 N   0  0  0  0  0  0  0  0  0  0  0  0
   16.9162  -25.5449   -8.0343 C   0  0  0  0  0  0  0  0  0  0  0  0
   17.1605  -24.3231   -8.9221 C   0  0  0  0  0  0  0  0  0  0  0  0
   18.0422  -24.7831  -10.0527 C   0  0  0  0  0  0  0  0  0  0  0  0
   18.2405  -23.7347  -11.0933 C   0  0  2  0  0  0  0  0  0  0  0  0
   19.4470  -22.9510  -10.8469 N   0  0  0  0  0  0  0  0  0  0  0  0
   17.1057  -22.8327  -11.3146 C   0  0  0  0  0  0  0  0  0  0  0  0
   16.0435  -23.0533  -12.1687 O   0  0  0  0  0  0  0  0  0  0  0  0
   17.0700  -21.7363  -10.6746 O   0  0  0  0  0  0  0  0  0  0  0  0
  2 12  2  0
  2  1  1  0
  3  2  1  0
  4  5  1  0
  4  3  2  0
  5 11  2  0
  6  5  1  0
  7  6  1  0
  7  8  1  6
  9 10  2  0
  9  7  1  0
 11 12  1  0
 14 13  1  6
 14 16  1  0
 15 14  1  0
 16 18  1  0
 16 17  1  6
 17  9  1  0
 18 19  2  0
 21 20  1  0
 21 23  1  0
 22 21  2  0
 23 24  1  0
 24 25  1  0
 26 25  1  0
 27 26  1  1
 28 27  1  0
 28 18  1  0
 29 27  1  0
 30 29  1  0
 31 29  2  0
M  END
$$$$
