YVR.pdb
     RDKit          3D

 31 31  0  0  1  0  0  0  0  0999 V2000
   27.2136  -14.3437  -20.6563 O   0  0  0  0  0  0  0  0  0  0  0  0
   26.9853  -15.3285  -19.7002 C   0  0  0  0  0  0  0  0  0  0  0  0
   27.7972  -15.3698  -18.5962 C   0  0  0  0  0  0  0  0  0  0  0  0
   27.6086  -16.3326  -17.6165 C   0  0  0  0  0  0  0  0  0  0  0  0
   26.6068  -17.2771  -17.7135 C   0  0  0  0  0  0  0  0  0  0  0  0
   26.4812  -18.2572  -16.6318 C   0  0  0  0  0  0  0  0  0  0  0  0
   27.6061  -19.2629  -16.5987 C   0  0  2  0  0  0  0  0  0  0  0  0
   27.7066  -20.0139  -17.8081 N   0  0  0  0  0  0  0  0  0  0  0  0
   27.5433  -20.0512  -15.3655 C   0  0  0  0  0  0  0  0  0  0  0  0
   26.5819  -20.8762  -15.2118 O   0  0  0  0  0  0  0  0  0  0  0  0
   25.7913  -17.2340  -18.8245 C   0  0  0  0  0  0  0  0  0  0  0  0
   25.9923  -16.2679  -19.7923 C   0  0  0  0  0  0  0  0  0  0  0  0
   29.2150  -21.4002  -10.8798 C   0  0  0  0  0  0  0  0  0  0  0  0
   29.4413  -20.5942  -12.1321 C   0  0  2  0  0  0  0  0  0  0  0  0
   29.8440  -19.1787  -11.8764 C   0  0  0  0  0  0  0  0  0  0  0  0
   28.2522  -20.7073  -13.0852 C   0  0  2  0  0  0  0  0  0  0  0  0
   28.4771  -19.9787  -14.2995 N   0  0  0  0  0  0  0  0  0  0  0  0
   27.0815  -20.2431  -12.3221 C   0  0  0  0  0  0  0  0  0  0  0  0
   26.8786  -18.9979  -12.2993 O   0  0  0  0  0  0  0  0  0  0  0  0
   19.5200  -19.3734  -13.9355 N   0  0  0  0  0  0  0  0  0  0  0  0
   19.2160  -20.2476  -12.8599 C   0  0  0  0  0  0  0  0  0  0  0  0
   18.0059  -20.7055  -12.6484 N   0  0  0  0  0  0  0  0  0  0  0  0
   20.2278  -20.6861  -11.9294 N   0  0  0  0  0  0  0  0  0  0  0  0
   21.5896  -20.2426  -12.0378 C   0  0  0  0  0  0  0  0  0  0  0  0
   22.4742  -20.8071  -10.9244 C   0  0  0  0  0  0  0  0  0  0  0  0
   23.7543  -21.2553  -11.5786 C   0  0  0  0  0  0  0  0  0  0  0  0
   24.9619  -20.6200  -10.9792 C   0  0  2  0  0  0  0  0  0  0  0  0
   26.1882  -21.0707  -11.6299 N   0  0  0  0  0  0  0  0  0  0  0  0
   25.0991  -20.7554   -9.5255 C   0  0  0  0  0  0  0  0  0  0  0  0
   24.6201  -19.8750   -8.5759 O   0  0  0  0  0  0  0  0  0  0  0  0
   25.7131  -21.7683   -9.0671 O   0  0  0  0  0  0  0  0  0  0  0  0
  2 12  2  0
  2  1  1  0
  3  2  1  0
  4  5  1  0
  4  3  2  0
  5 11  2  0
  6  5  1  0
  7  6  1  0
  7  8  1  6
  9 10  2  0
  9  7  1  0
 11 12  1  0
 14 13  1  1
 14 16  1  0
 15 14  1  0
 16 18  1  0
 16 17  1  6
 17  9  1  0
 18 19  2  0
 21 20  1  0
 21 23  1  0
 22 21  2  0
 23 24  1  0
 24 25  1  0
 26 25  1  0
 27 26  1  6
 28 27  1  0
 28 18  1  0
 29 27  1  0
 30 29  1  0
 31 29  2  0
M  END
$$$$
