YVR.pdb
     RDKit          3D

 31 31  0  0  1  0  0  0  0  0999 V2000
   28.8803  -13.3482  -17.5152 O   0  0  0  0  0  0  0  0  0  0  0  0
   28.3095  -14.5422  -17.0854 C   0  0  0  0  0  0  0  0  0  0  0  0
   27.8879  -14.6352  -15.7841 C   0  0  0  0  0  0  0  0  0  0  0  0
   27.3130  -15.8043  -15.3099 C   0  0  0  0  0  0  0  0  0  0  0  0
   27.1445  -16.9085  -16.1207 C   0  0  0  0  0  0  0  0  0  0  0  0
   26.5284  -18.1018  -15.5351 C   0  0  0  0  0  0  0  0  0  0  0  0
   27.5267  -19.0564  -14.9267 C   0  0  2  0  0  0  0  0  0  0  0  0
   28.4598  -19.5578  -15.8832 N   0  0  0  0  0  0  0  0  0  0  0  0
   26.8347  -20.0680  -14.1244 C   0  0  0  0  0  0  0  0  0  0  0  0
   26.2894  -21.0567  -14.7192 O   0  0  0  0  0  0  0  0  0  0  0  0
   27.5692  -16.8132  -17.4291 C   0  0  0  0  0  0  0  0  0  0  0  0
   28.1404  -15.6406  -17.8866 C   0  0  0  0  0  0  0  0  0  0  0  0
   25.0605  -21.8531   -9.8354 C   0  0  0  0  0  0  0  0  0  0  0  0
   25.9301  -20.8350  -10.5256 C   0  0  2  0  0  0  0  0  0  0  0  0
   25.7247  -19.4365  -10.0425 C   0  0  0  0  0  0  0  0  0  0  0  0
   25.8247  -20.9567  -12.0453 C   0  0  2  0  0  0  0  0  0  0  0  0
   26.7120  -20.0481  -12.7109 N   0  0  0  0  0  0  0  0  0  0  0  0
   24.4038  -20.7424  -12.3668 C   0  0  0  0  0  0  0  0  0  0  0  0
   24.0781  -19.5834  -12.7449 O   0  0  0  0  0  0  0  0  0  0  0  0
   18.4805  -24.9634  -13.3330 N   0  0  0  0  0  0  0  0  0  0  0  0
   17.9747  -24.5174  -14.5815 C   0  0  0  0  0  0  0  0  0  0  0  0
   16.6916  -24.4901  -14.8495 N   0  0  0  0  0  0  0  0  0  0  0  0
   18.8490  -24.0656  -15.6366 N   0  0  0  0  0  0  0  0  0  0  0  0
   20.2222  -23.7311  -15.3814 C   0  0  0  0  0  0  0  0  0  0  0  0
   20.3636  -22.5836  -14.3794 C   0  0  0  0  0  0  0  0  0  0  0  0
   21.7565  -22.6754  -13.8151 C   0  0  0  0  0  0  0  0  0  0  0  0
   22.0589  -21.5858  -12.8442 C   0  0  2  0  0  0  0  0  0  0  0  0
   23.4012  -21.7171  -12.2861 N   0  0  0  0  0  0  0  0  0  0  0  0
   21.0899  -21.4127  -11.7572 C   0  0  0  0  0  0  0  0  0  0  0  0
   19.8715  -20.7694  -11.8460 O   0  0  0  0  0  0  0  0  0  0  0  0
   21.3715  -21.8883  -10.6137 O   0  0  0  0  0  0  0  0  0  0  0  0
  2 12  2  0
  2  1  1  0
  3  2  1  0
  4  5  1  0
  4  3  2  0
  5 11  2  0
  6  5  1  0
  7  6  1  0
  7  8  1  6
  9 10  2  0
  9  7  1  0
 11 12  1  0
 14 13  1  1
 14 16  1  0
 15 14  1  0
 16 18  1  0
 16 17  1  6
 17  9  1  0
 18 19  2  0
 21 20  1  0
 21 23  1  0
 22 21  2  0
 23 24  1  0
 24 25  1  0
 26 25  1  0
 27 26  1  1
 28 27  1  0
 28 18  1  0
 29 27  1  0
 30 29  1  0
 31 29  2  0
M  END
$$$$
