FMC.pdb
     RDKit          3D

 26 26  0  0  1  0  0  0  0  0999 V2000
    6.3041  -17.8564   25.6942 N   0  0  0  0  0  0  0  0  0  0  0  0
    6.7614  -16.5940   25.1585 C   0  0  1  0  0  0  0  0  0  0  0  0
    7.6537  -15.9062   26.1448 C   0  0  0  0  0  0  0  0  0  0  0  0
    7.1380  -14.5308   26.3466 C   0  0  0  0  0  0  0  0  0  0  0  0
    7.7918  -13.7264   27.2551 C   0  0  0  0  0  0  0  0  0  0  0  0
    7.3893  -12.4289   27.5152 C   0  0  0  0  0  0  0  0  0  0  0  0
    6.2960  -11.9213   26.8427 C   0  0  0  0  0  0  0  0  0  0  0  0
    5.6176  -12.7053   25.9232 C   0  0  0  0  0  0  0  0  0  0  0  0
    6.0496  -14.0051   25.6865 C   0  0  0  0  0  0  0  0  0  0  0  0
    7.3786  -16.8216   23.8458 C   0  0  0  0  0  0  0  0  0  0  0  0
    7.7849  -17.9963   23.5809 O   0  0  0  0  0  0  0  0  0  0  0  0
    8.5566  -11.3033   20.1191 C   0  0  0  0  0  0  0  0  0  0  0  0
    8.6814  -13.0838   19.8754 S   0  0  0  0  0  0  0  0  0  0  0  0
    7.3693  -13.9236   20.7813 C   0  0  0  0  0  0  0  0  0  0  0  0
    7.2936  -15.3946   20.5837 C   0  0  0  0  0  0  0  0  0  0  0  0
    8.1064  -16.1888   21.5121 C   0  0  2  0  0  0  0  0  0  0  0  0
    7.5600  -15.8598   22.8583 N   0  0  0  0  0  0  0  0  0  0  0  0
    9.5271  -16.0139   21.6263 C   0  0  0  0  0  0  0  0  0  0  0  0
   10.2735  -16.0263   20.6213 O   0  0  0  0  0  0  0  0  0  0  0  0
   10.2099  -15.8129   22.8775 N   0  0  0  0  0  0  0  0  0  0  0  0
   11.6427  -15.7091   22.9909 C   0  0  1  0  0  0  0  0  0  0  0  0
   11.9681  -15.2482   24.3952 C   0  0  0  0  0  0  0  0  0  0  0  0
   11.2758  -16.4501   25.5643 S   0  0  0  0  0  0  0  0  0  0  0  0
   12.3176  -16.9877   22.6668 C   0  0  0  0  0  0  0  0  0  0  0  0
   13.7018  -17.0068   22.5704 O   0  0  0  0  0  0  0  0  0  0  0  0
   11.5974  -18.0040   22.4928 O   0  0  0  0  0  0  0  0  0  0  0  0
  2  1  1  1
  3  2  1  0
  3  4  1  0
  4  5  2  0
  5  6  1  0
  7  6  2  0
  8  7  1  0
  9  4  1  0
  9  8  2  0
 10  2  1  0
 10 11  2  0
 12 13  1  0
 14 15  1  0
 14 13  1  0
 16 15  1  6
 16 18  1  0
 16 17  1  0
 17 10  1  0
 18 20  1  0
 19 18  2  0
 20 21  1  0
 21 24  1  0
 21 22  1  1
 23 22  1  0
 24 26  2  0
 24 25  1  0
M  END
$$$$
