FMC.pdb
     RDKit          3D

 26 26  0  0  1  0  0  0  0  0999 V2000
    5.6925  -18.0812   25.3192 N   0  0  0  0  0  0  0  0  0  0  0  0
    6.3131  -16.7785   25.2318 C   0  0  1  0  0  0  0  0  0  0  0  0
    7.0693  -16.4802   26.4893 C   0  0  0  0  0  0  0  0  0  0  0  0
    7.4319  -15.0427   26.4749 C   0  0  0  0  0  0  0  0  0  0  0  0
    6.4083  -14.1212   26.5317 C   0  0  0  0  0  0  0  0  0  0  0  0
    6.6417  -12.7579   26.5237 C   0  0  0  0  0  0  0  0  0  0  0  0
    7.9433  -12.3035   26.4566 C   0  0  0  0  0  0  0  0  0  0  0  0
    8.9941  -13.2050   26.3984 C   0  0  0  0  0  0  0  0  0  0  0  0
    8.7231  -14.5683   26.4084 C   0  0  0  0  0  0  0  0  0  0  0  0
    7.1263  -16.7120   24.0110 C   0  0  0  0  0  0  0  0  0  0  0  0
    7.8119  -17.7367   23.7026 O   0  0  0  0  0  0  0  0  0  0  0  0
    7.6136  -11.6142   20.0334 C   0  0  0  0  0  0  0  0  0  0  0  0
    8.3808  -12.9410   19.0869 S   0  0  0  0  0  0  0  0  0  0  0  0
    7.7457  -14.5361   19.6347 C   0  0  0  0  0  0  0  0  0  0  0  0
    7.3115  -14.6002   21.0546 C   0  0  0  0  0  0  0  0  0  0  0  0
    7.9054  -15.6903   21.8372 C   0  0  2  0  0  0  0  0  0  0  0  0
    7.2145  -15.6198   23.1550 N   0  0  0  0  0  0  0  0  0  0  0  0
    9.3071  -15.7344   22.1457 C   0  0  0  0  0  0  0  0  0  0  0  0
   10.1664  -15.9688   21.2660 O   0  0  0  0  0  0  0  0  0  0  0  0
    9.8428  -15.5185   23.4642 N   0  0  0  0  0  0  0  0  0  0  0  0
   11.2547  -15.4779   23.7494 C   0  0  1  0  0  0  0  0  0  0  0  0
   11.4293  -15.0166   25.1802 C   0  0  0  0  0  0  0  0  0  0  0  0
   10.7729  -16.3030   26.2779 S   0  0  0  0  0  0  0  0  0  0  0  0
   11.9043  -16.7890   23.5163 C   0  0  0  0  0  0  0  0  0  0  0  0
   13.2834  -16.8823   23.6382 O   0  0  0  0  0  0  0  0  0  0  0  0
   11.1682  -17.7638   23.2163 O   0  0  0  0  0  0  0  0  0  0  0  0
  2  1  1  1
  3  2  1  0
  3  4  1  0
  4  5  2  0
  5  6  1  0
  7  6  2  0
  8  7  1  0
  9  4  1  0
  9  8  2  0
 10  2  1  0
 10 11  2  0
 12 13  1  0
 14 15  1  0
 14 13  1  0
 16 15  1  6
 16 18  1  0
 16 17  1  0
 17 10  1  0
 18 20  1  0
 19 18  2  0
 20 21  1  0
 21 24  1  0
 21 22  1  1
 23 22  1  0
 24 26  2  0
 24 25  1  0
M  END
$$$$
