FMC.pdb
     RDKit          3D

 26 26  0  0  1  0  0  0  0  0999 V2000
    5.7331  -17.9754   25.0518 N   0  0  0  0  0  0  0  0  0  0  0  0
    6.2080  -16.6103   25.0790 C   0  0  1  0  0  0  0  0  0  0  0  0
    6.5443  -16.2074   26.4814 C   0  0  0  0  0  0  0  0  0  0  0  0
    6.8170  -14.7501   26.4857 C   0  0  0  0  0  0  0  0  0  0  0  0
    5.7409  -13.8948   26.3836 C   0  0  0  0  0  0  0  0  0  0  0  0
    5.8895  -12.5196   26.3783 C   0  0  0  0  0  0  0  0  0  0  0  0
    7.1578  -11.9845   26.4786 C   0  0  0  0  0  0  0  0  0  0  0  0
    8.2599  -12.8182   26.5826 C   0  0  0  0  0  0  0  0  0  0  0  0
    8.0738  -14.1956   26.5847 C   0  0  0  0  0  0  0  0  0  0  0  0
    7.3184  -16.4662   24.1292 C   0  0  0  0  0  0  0  0  0  0  0  0
    8.1366  -17.4333   24.0275 O   0  0  0  0  0  0  0  0  0  0  0  0
    8.2175  -11.9455   19.2899 C   0  0  0  0  0  0  0  0  0  0  0  0
    6.8256  -13.0859   19.3746 S   0  0  0  0  0  0  0  0  0  0  0  0
    7.2041  -14.4380   20.5043 C   0  0  0  0  0  0  0  0  0  0  0  0
    8.3221  -14.1887   21.4512 C   0  0  0  0  0  0  0  0  0  0  0  0
    8.6604  -15.3186   22.3242 C   0  0  2  0  0  0  0  0  0  0  0  0
    7.5572  -15.3579   23.3244 N   0  0  0  0  0  0  0  0  0  0  0  0
    9.8719  -15.3538   23.0943 C   0  0  0  0  0  0  0  0  0  0  0  0
    9.9440  -14.8319   24.2300 O   0  0  0  0  0  0  0  0  0  0  0  0
   11.0883  -15.9775   22.6431 N   0  0  0  0  0  0  0  0  0  0  0  0
   12.2707  -16.0911   23.4588 C   0  0  1  0  0  0  0  0  0  0  0  0
   11.9813  -17.0819   24.5657 C   0  0  0  0  0  0  0  0  0  0  0  0
   11.1709  -16.1964   25.9257 S   0  0  0  0  0  0  0  0  0  0  0  0
   13.4549  -16.4925   22.6640 C   0  0  0  0  0  0  0  0  0  0  0  0
   14.6857  -16.5836   23.2983 O   0  0  0  0  0  0  0  0  0  0  0  0
   13.2868  -16.7338   21.4411 O   0  0  0  0  0  0  0  0  0  0  0  0
  2  1  1  1
  3  2  1  0
  3  4  1  0
  4  5  2  0
  5  6  1  0
  7  6  2  0
  8  7  1  0
  9  4  1  0
  9  8  2  0
 10  2  1  0
 10 11  2  0
 12 13  1  0
 14 15  1  0
 14 13  1  0
 16 15  1  1
 16 18  1  0
 16 17  1  0
 17 10  1  0
 18 20  1  0
 19 18  2  0
 20 21  1  0
 21 24  1  0
 21 22  1  1
 23 22  1  0
 24 26  2  0
 24 25  1  0
M  END
$$$$
