FMC.pdb
     RDKit          3D

 26 26  0  0  1  0  0  0  0  0999 V2000
    9.2703  -17.8114   20.6830 N   0  0  0  0  0  0  0  0  0  0  0  0
    8.8887  -16.5417   21.2593 C   0  0  1  0  0  0  0  0  0  0  0  0
    7.4995  -16.1778   20.8355 C   0  0  0  0  0  0  0  0  0  0  0  0
    7.4896  -14.7360   20.4899 C   0  0  0  0  0  0  0  0  0  0  0  0
    7.1879  -13.8375   21.4907 C   0  0  0  0  0  0  0  0  0  0  0  0
    7.1524  -12.4724   21.2704 C   0  0  0  0  0  0  0  0  0  0  0  0
    7.4284  -11.9925   20.0061 C   0  0  0  0  0  0  0  0  0  0  0  0
    7.7352  -12.8705   18.9788 C   0  0  0  0  0  0  0  0  0  0  0  0
    7.7618  -14.2363   19.2357 C   0  0  0  0  0  0  0  0  0  0  0  0
    9.0791  -16.5951   22.7142 C   0  0  0  0  0  0  0  0  0  0  0  0
    9.9192  -17.4334   23.1687 O   0  0  0  0  0  0  0  0  0  0  0  0
    6.3924  -11.9163   26.1348 C   0  0  0  0  0  0  0  0  0  0  0  0
    7.6851  -12.3304   27.3190 S   0  0  0  0  0  0  0  0  0  0  0  0
    8.5546  -13.8169   26.7881 C   0  0  0  0  0  0  0  0  0  0  0  0
    8.2645  -14.2692   25.4024 C   0  0  0  0  0  0  0  0  0  0  0  0
    9.0172  -15.4502   24.9640 C   0  0  2  0  0  0  0  0  0  0  0  0
    8.4176  -15.8044   23.6472 N   0  0  0  0  0  0  0  0  0  0  0  0
    9.0281  -16.6728   25.7171 C   0  0  0  0  0  0  0  0  0  0  0  0
    7.9797  -17.3237   25.9283 O   0  0  0  0  0  0  0  0  0  0  0  0
   10.2172  -17.2508   26.2862 N   0  0  0  0  0  0  0  0  0  0  0  0
   10.2217  -18.4876   27.0257 C   0  0  1  0  0  0  0  0  0  0  0  0
   11.4304  -19.2877   26.5906 C   0  0  0  0  0  0  0  0  0  0  0  0
   12.9216  -18.4022   27.1225 S   0  0  0  0  0  0  0  0  0  0  0  0
   10.2185  -18.2573   28.4893 C   0  0  0  0  0  0  0  0  0  0  0  0
   10.1436  -19.3527   29.3378 O   0  0  0  0  0  0  0  0  0  0  0  0
   10.2845  -17.0692   28.8968 O   0  0  0  0  0  0  0  0  0  0  0  0
  2  1  1  6
  3  2  1  0
  3  4  1  0
  4  5  2  0
  5  6  1  0
  7  6  2  0
  8  7  1  0
  9  4  1  0
  9  8  2  0
 10  2  1  0
 10 11  2  0
 12 13  1  0
 14 15  1  0
 14 13  1  0
 16 15  1  1
 16 18  1  0
 16 17  1  0
 17 10  1  0
 18 20  1  0
 19 18  2  0
 20 21  1  0
 21 24  1  0
 21 22  1  1
 23 22  1  0
 24 26  2  0
 24 25  1  0
M  END
$$$$
