FMC.pdb
     RDKit          3D

 26 26  0  0  1  0  0  0  0  0999 V2000
    6.0114  -18.2693   25.4873 N   0  0  0  0  0  0  0  0  0  0  0  0
    6.5630  -16.9394   25.3583 C   0  0  1  0  0  0  0  0  0  0  0  0
    7.2795  -16.5523   26.6148 C   0  0  0  0  0  0  0  0  0  0  0  0
    7.3093  -15.0717   26.6868 C   0  0  0  0  0  0  0  0  0  0  0  0
    8.5334  -14.4476   26.5777 C   0  0  0  0  0  0  0  0  0  0  0  0
    8.6677  -13.0720   26.6325 C   0  0  0  0  0  0  0  0  0  0  0  0
    7.5383  -12.2969   26.8021 C   0  0  0  0  0  0  0  0  0  0  0  0
    6.2932  -12.8947   26.9149 C   0  0  0  0  0  0  0  0  0  0  0  0
    6.1950  -14.2800   26.8555 C   0  0  0  0  0  0  0  0  0  0  0  0
    7.3932  -16.8761   24.1488 C   0  0  0  0  0  0  0  0  0  0  0  0
    7.9181  -17.9576   23.7366 O   0  0  0  0  0  0  0  0  0  0  0  0
    7.8253  -11.4429   20.2937 C   0  0  0  0  0  0  0  0  0  0  0  0
    7.5255  -12.8402   19.1971 S   0  0  0  0  0  0  0  0  0  0  0  0
    8.0953  -14.3647   19.9709 C   0  0  0  0  0  0  0  0  0  0  0  0
    7.7206  -14.5382   21.3986 C   0  0  0  0  0  0  0  0  0  0  0  0
    8.1925  -15.7821   22.0180 C   0  0  2  0  0  0  0  0  0  0  0  0
    7.6590  -15.7300   23.4078 N   0  0  0  0  0  0  0  0  0  0  0  0
    9.5893  -16.0839   22.1590 C   0  0  0  0  0  0  0  0  0  0  0  0
   10.2901  -16.4244   21.1790 O   0  0  0  0  0  0  0  0  0  0  0  0
   10.2977  -16.0247   23.4107 N   0  0  0  0  0  0  0  0  0  0  0  0
   11.6329  -16.5359   23.5908 C   0  0  1  0  0  0  0  0  0  0  0  0
   12.4498  -15.4723   24.2921 C   0  0  0  0  0  0  0  0  0  0  0  0
   12.8410  -14.1701   23.0914 S   0  0  0  0  0  0  0  0  0  0  0  0
   11.6400  -17.8126   24.3426 C   0  0  0  0  0  0  0  0  0  0  0  0
   12.8549  -18.4363   24.5887 O   0  0  0  0  0  0  0  0  0  0  0  0
   10.5345  -18.2745   24.7256 O   0  0  0  0  0  0  0  0  0  0  0  0
  2  1  1  1
  3  2  1  0
  3  4  1  0
  4  5  2  0
  5  6  1  0
  7  6  2  0
  8  7  1  0
  9  4  1  0
  9  8  2  0
 10  2  1  0
 10 11  2  0
 12 13  1  0
 14 15  1  0
 14 13  1  0
 16 15  1  1
 16 18  1  0
 16 17  1  0
 17 10  1  0
 18 20  1  0
 19 18  2  0
 20 21  1  0
 21 24  1  0
 21 22  1  1
 23 22  1  0
 24 26  2  0
 24 25  1  0
M  END
$$$$
