FMC.pdb
     RDKit          3D

 26 26  0  0  1  0  0  0  0  0999 V2000
    6.9913  -16.7306   24.2877 N   0  0  0  0  0  0  0  0  0  0  0  0
    7.6706  -15.8730   23.3429 C   0  0  1  0  0  0  0  0  0  0  0  0
    6.8322  -14.6698   23.0406 C   0  0  0  0  0  0  0  0  0  0  0  0
    6.9061  -13.7562   24.2060 C   0  0  0  0  0  0  0  0  0  0  0  0
    6.2217  -14.1144   25.3476 C   0  0  0  0  0  0  0  0  0  0  0  0
    6.2273  -13.3310   26.4874 C   0  0  0  0  0  0  0  0  0  0  0  0
    6.9421  -12.1502   26.4829 C   0  0  0  0  0  0  0  0  0  0  0  0
    7.6405  -11.7627   25.3504 C   0  0  0  0  0  0  0  0  0  0  0  0
    7.6130  -12.5744   24.2224 C   0  0  0  0  0  0  0  0  0  0  0  0
    9.0112  -15.5590   23.8530 C   0  0  0  0  0  0  0  0  0  0  0  0
    9.7070  -14.7169   23.2034 O   0  0  0  0  0  0  0  0  0  0  0  0
   11.3104  -14.8769   30.0134 C   0  0  0  0  0  0  0  0  0  0  0  0
    9.8263  -14.2255   29.2273 S   0  0  0  0  0  0  0  0  0  0  0  0
    9.9452  -14.4079   27.4384 C   0  0  0  0  0  0  0  0  0  0  0  0
   10.7307  -15.5768   26.9638 C   0  0  0  0  0  0  0  0  0  0  0  0
   10.9145  -15.6528   25.5098 C   0  0  2  0  0  0  0  0  0  0  0  0
    9.5928  -16.1045   24.9920 N   0  0  0  0  0  0  0  0  0  0  0  0
   11.8782  -16.5293   24.9058 C   0  0  0  0  0  0  0  0  0  0  0  0
   11.6659  -17.7574   24.7873 O   0  0  0  0  0  0  0  0  0  0  0  0
   13.1486  -16.0884   24.3922 N   0  0  0  0  0  0  0  0  0  0  0  0
   14.1487  -16.9867   23.8732 C   0  0  1  0  0  0  0  0  0  0  0  0
   15.0984  -16.1817   23.0127 C   0  0  0  0  0  0  0  0  0  0  0  0
   15.8230  -14.8710   24.0362 S   0  0  0  0  0  0  0  0  0  0  0  0
   14.8660  -17.7010   24.9551 C   0  0  0  0  0  0  0  0  0  0  0  0
   15.7331  -18.7299   24.6159 O   0  0  0  0  0  0  0  0  0  0  0  0
   14.6530  -17.3375   26.1403 O   0  0  0  0  0  0  0  0  0  0  0  0
  2  1  1  1
  3  2  1  0
  3  4  1  0
  4  5  2  0
  5  6  1  0
  7  6  2  0
  8  7  1  0
  9  4  1  0
  9  8  2  0
 10  2  1  0
 10 11  2  0
 12 13  1  0
 14 15  1  0
 14 13  1  0
 16 15  1  1
 16 18  1  0
 16 17  1  0
 17 10  1  0
 18 20  1  0
 19 18  2  0
 20 21  1  0
 21 24  1  0
 21 22  1  1
 23 22  1  0
 24 26  2  0
 24 25  1  0
M  END
$$$$
