FMC.pdb
     RDKit          3D

 26 26  0  0  1  0  0  0  0  0999 V2000
    5.9058  -18.0350   25.5991 N   0  0  0  0  0  0  0  0  0  0  0  0
    6.3507  -16.6635   25.4947 C   0  0  1  0  0  0  0  0  0  0  0  0
    6.8459  -16.1778   26.8217 C   0  0  0  0  0  0  0  0  0  0  0  0
    6.9959  -14.7049   26.7428 C   0  0  0  0  0  0  0  0  0  0  0  0
    5.8501  -13.9477   26.6254 C   0  0  0  0  0  0  0  0  0  0  0  0
    5.8832  -12.5673   26.5446 C   0  0  0  0  0  0  0  0  0  0  0  0
    7.1043  -11.9251   26.5825 C   0  0  0  0  0  0  0  0  0  0  0  0
    8.2742  -12.6585   26.6999 C   0  0  0  0  0  0  0  0  0  0  0  0
    8.2040  -14.0445   26.7788 C   0  0  0  0  0  0  0  0  0  0  0  0
    7.3341  -16.5560   24.4098 C   0  0  0  0  0  0  0  0  0  0  0  0
    8.2393  -17.4457   24.3440 O   0  0  0  0  0  0  0  0  0  0  0  0
    7.7225  -11.5835   20.0351 C   0  0  0  0  0  0  0  0  0  0  0  0
    8.0712  -13.0507   19.0499 S   0  0  0  0  0  0  0  0  0  0  0  0
    8.5833  -14.4059   20.1218 C   0  0  0  0  0  0  0  0  0  0  0  0
    7.8915  -14.4815   21.4349 C   0  0  0  0  0  0  0  0  0  0  0  0
    8.3315  -15.5768   22.3068 C   0  0  2  0  0  0  0  0  0  0  0  0
    7.3646  -15.5603   23.4398 N   0  0  0  0  0  0  0  0  0  0  0  0
    9.6310  -15.5931   22.9173 C   0  0  0  0  0  0  0  0  0  0  0  0
   10.0143  -14.6702   23.6715 O   0  0  0  0  0  0  0  0  0  0  0  0
   10.5922  -16.6471   22.7238 N   0  0  0  0  0  0  0  0  0  0  0  0
   11.9869  -16.5201   23.0630 C   0  0  1  0  0  0  0  0  0  0  0  0
   12.3869  -17.7422   23.8610 C   0  0  0  0  0  0  0  0  0  0  0  0
   11.4951  -17.7087   25.4402 S   0  0  0  0  0  0  0  0  0  0  0  0
   12.8359  -16.3527   21.8603 C   0  0  0  0  0  0  0  0  0  0  0  0
   14.1716  -16.0154   22.0270 O   0  0  0  0  0  0  0  0  0  0  0  0
   12.3007  -16.5257   20.7352 O   0  0  0  0  0  0  0  0  0  0  0  0
  2  1  1  1
  3  2  1  0
  3  4  1  0
  4  5  2  0
  5  6  1  0
  7  6  2  0
  8  7  1  0
  9  4  1  0
  9  8  2  0
 10  2  1  0
 10 11  2  0
 12 13  1  0
 14 15  1  0
 14 13  1  0
 16 15  1  6
 16 18  1  0
 16 17  1  0
 17 10  1  0
 18 20  1  0
 19 18  2  0
 20 21  1  0
 21 24  1  0
 21 22  1  6
 23 22  1  0
 24 26  2  0
 24 25  1  0
M  END
$$$$
