FMC.pdb
     RDKit          3D

 26 26  0  0  1  0  0  0  0  0999 V2000
    7.8664  -17.8382   22.2622 N   0  0  0  0  0  0  0  0  0  0  0  0
    8.1204  -16.4955   21.7908 C   0  0  1  0  0  0  0  0  0  0  0  0
    6.8751  -15.9102   21.2003 C   0  0  0  0  0  0  0  0  0  0  0  0
    7.2271  -14.6047   20.5920 C   0  0  0  0  0  0  0  0  0  0  0  0
    7.7668  -14.6116   19.3236 C   0  0  0  0  0  0  0  0  0  0  0  0
    8.1284  -13.4478   18.6695 C   0  0  0  0  0  0  0  0  0  0  0  0
    7.9430  -12.2379   19.3074 C   0  0  0  0  0  0  0  0  0  0  0  0
    7.4027  -12.1979   20.5828 C   0  0  0  0  0  0  0  0  0  0  0  0
    7.0505  -13.3870   21.2106 C   0  0  0  0  0  0  0  0  0  0  0  0
    8.6990  -15.7018   22.8822 C   0  0  0  0  0  0  0  0  0  0  0  0
    9.8519  -15.1994   22.6990 O   0  0  0  0  0  0  0  0  0  0  0  0
    5.7315  -11.6491   27.0432 C   0  0  0  0  0  0  0  0  0  0  0  0
    6.8299  -12.5781   28.1273 S   0  0  0  0  0  0  0  0  0  0  0  0
    8.1562  -13.3285   27.1652 C   0  0  0  0  0  0  0  0  0  0  0  0
    7.7348  -14.0059   25.9113 C   0  0  0  0  0  0  0  0  0  0  0  0
    8.7967  -14.7421   25.2158 C   0  0  2  0  0  0  0  0  0  0  0  0
    8.0943  -15.4484   24.1083 N   0  0  0  0  0  0  0  0  0  0  0  0
    9.5830  -15.7499   25.8700 C   0  0  0  0  0  0  0  0  0  0  0  0
   10.1584  -15.5296   26.9599 O   0  0  0  0  0  0  0  0  0  0  0  0
    9.7787  -17.0764   25.3464 N   0  0  0  0  0  0  0  0  0  0  0  0
   10.5991  -18.0701   25.9913 C   0  0  1  0  0  0  0  0  0  0  0  0
    9.7235  -19.2621   26.3123 C   0  0  0  0  0  0  0  0  0  0  0  0
   10.7652  -20.5533   27.0459 S   0  0  0  0  0  0  0  0  0  0  0  0
   11.7602  -18.4562   25.1558 C   0  0  0  0  0  0  0  0  0  0  0  0
   11.5520  -18.7436   23.8143 O   0  0  0  0  0  0  0  0  0  0  0  0
   12.8896  -18.5054   25.7072 O   0  0  0  0  0  0  0  0  0  0  0  0
  2  1  1  1
  3  2  1  0
  3  4  1  0
  4  5  2  0
  5  6  1  0
  7  6  2  0
  8  7  1  0
  9  4  1  0
  9  8  2  0
 10  2  1  0
 10 11  2  0
 12 13  1  0
 14 15  1  0
 14 13  1  0
 16 15  1  1
 16 18  1  0
 16 17  1  0
 17 10  1  0
 18 20  1  0
 19 18  2  0
 20 21  1  0
 21 24  1  0
 21 22  1  6
 23 22  1  0
 24 26  2  0
 24 25  1  0
M  END
$$$$
