FMC.pdb
     RDKit          3D

 26 26  0  0  1  0  0  0  0  0999 V2000
   10.2221  -17.6329   21.0787 N   0  0  0  0  0  0  0  0  0  0  0  0
    9.6605  -16.4375   21.6661 C   0  0  1  0  0  0  0  0  0  0  0  0
    8.2186  -16.3022   21.2855 C   0  0  0  0  0  0  0  0  0  0  0  0
    7.9518  -14.8709   21.0054 C   0  0  0  0  0  0  0  0  0  0  0  0
    7.4793  -14.0911   22.0391 C   0  0  0  0  0  0  0  0  0  0  0  0
    7.1997  -12.7459   21.8802 C   0  0  0  0  0  0  0  0  0  0  0  0
    7.4001  -12.1634   20.6451 C   0  0  0  0  0  0  0  0  0  0  0  0
    7.8743  -12.9208   19.5859 C   0  0  0  0  0  0  0  0  0  0  0  0
    8.1449  -14.2702   19.7812 C   0  0  0  0  0  0  0  0  0  0  0  0
    9.9013  -16.4520   23.1145 C   0  0  0  0  0  0  0  0  0  0  0  0
   10.7301  -17.3031   23.5659 O   0  0  0  0  0  0  0  0  0  0  0  0
    6.9415  -12.2860   27.3211 C   0  0  0  0  0  0  0  0  0  0  0  0
    8.6450  -12.3331   27.9050 S   0  0  0  0  0  0  0  0  0  0  0  0
    9.4627  -13.8212   27.3014 C   0  0  0  0  0  0  0  0  0  0  0  0
    9.1808  -14.1790   25.8867 C   0  0  0  0  0  0  0  0  0  0  0  0
    9.8701  -15.3799   25.4004 C   0  0  2  0  0  0  0  0  0  0  0  0
    9.2992  -15.6115   24.0442 N   0  0  0  0  0  0  0  0  0  0  0  0
    9.7712  -16.6439   26.0746 C   0  0  0  0  0  0  0  0  0  0  0  0
    8.6993  -17.2901   26.1053 O   0  0  0  0  0  0  0  0  0  0  0  0
   10.8692  -17.2715   26.7620 N   0  0  0  0  0  0  0  0  0  0  0  0
   10.7211  -18.4406   27.5912 C   0  0  1  0  0  0  0  0  0  0  0  0
   11.7814  -19.4404   27.1830 C   0  0  0  0  0  0  0  0  0  0  0  0
   11.4640  -19.9396   25.4682 S   0  0  0  0  0  0  0  0  0  0  0  0
   10.8089  -18.1111   29.0331 C   0  0  0  0  0  0  0  0  0  0  0  0
   10.6173  -19.1235   29.9626 O   0  0  0  0  0  0  0  0  0  0  0  0
   11.0552  -16.9188   29.3489 O   0  0  0  0  0  0  0  0  0  0  0  0
  2  1  1  1
  3  2  1  0
  3  4  1  0
  4  5  2  0
  5  6  1  0
  7  6  2  0
  8  7  1  0
  9  4  1  0
  9  8  2  0
 10  2  1  0
 10 11  2  0
 12 13  1  0
 14 15  1  0
 14 13  1  0
 16 15  1  1
 16 18  1  0
 16 17  1  0
 17 10  1  0
 18 20  1  0
 19 18  2  0
 20 21  1  0
 21 24  1  0
 21 22  1  6
 23 22  1  0
 24 26  2  0
 24 25  1  0
M  END
$$$$
