FMC.pdb
     RDKit          3D

 26 26  0  0  1  0  0  0  0  0999 V2000
    7.4625  -17.7763   17.7680 N   0  0  0  0  0  0  0  0  0  0  0  0
    7.8821  -16.7223   18.6640 C   0  0  1  0  0  0  0  0  0  0  0  0
    6.7604  -15.7558   18.8871 C   0  0  0  0  0  0  0  0  0  0  0  0
    7.2454  -14.6958   19.8033 C   0  0  0  0  0  0  0  0  0  0  0  0
    7.9842  -13.6663   19.2610 C   0  0  0  0  0  0  0  0  0  0  0  0
    8.4819  -12.6303   20.0306 C   0  0  0  0  0  0  0  0  0  0  0  0
    8.2309  -12.6263   21.3878 C   0  0  0  0  0  0  0  0  0  0  0  0
    7.4912  -13.6472   21.9629 C   0  0  0  0  0  0  0  0  0  0  0  0
    7.0064  -14.6727   21.1595 C   0  0  0  0  0  0  0  0  0  0  0  0
    8.4156  -17.3189   19.8950 C   0  0  0  0  0  0  0  0  0  0  0  0
    7.7164  -18.2116   20.4688 O   0  0  0  0  0  0  0  0  0  0  0  0
   13.3743  -19.9793   19.0342 C   0  0  0  0  0  0  0  0  0  0  0  0
   13.7165  -18.2832   19.5352 S   0  0  0  0  0  0  0  0  0  0  0  0
   12.2262  -17.5268   20.2092 C   0  0  0  0  0  0  0  0  0  0  0  0
   11.3960  -18.4051   21.0741 C   0  0  0  0  0  0  0  0  0  0  0  0
   10.1937  -17.7729   21.6295 C   0  0  2  0  0  0  0  0  0  0  0  0
    9.6270  -16.9924   20.4945 N   0  0  0  0  0  0  0  0  0  0  0  0
   10.2529  -16.8529   22.7304 C   0  0  0  0  0  0  0  0  0  0  0  0
   10.7607  -15.7150   22.6092 O   0  0  0  0  0  0  0  0  0  0  0  0
    9.7460  -17.1460   24.0454 N   0  0  0  0  0  0  0  0  0  0  0  0
    9.9694  -16.2973   25.1884 C   0  0  1  0  0  0  0  0  0  0  0  0
    8.6204  -15.9219   25.7624 C   0  0  0  0  0  0  0  0  0  0  0  0
    7.6386  -15.1450   24.4498 S   0  0  0  0  0  0  0  0  0  0  0  0
   10.8307  -16.9497   26.2022 C   0  0  0  0  0  0  0  0  0  0  0  0
   11.2259  -16.2185   27.3134 O   0  0  0  0  0  0  0  0  0  0  0  0
   11.1656  -18.1461   26.0057 O   0  0  0  0  0  0  0  0  0  0  0  0
  2  1  1  6
  3  2  1  0
  3  4  1  0
  4  5  2  0
  5  6  1  0
  7  6  2  0
  8  7  1  0
  9  4  1  0
  9  8  2  0
 10  2  1  0
 10 11  2  0
 12 13  1  0
 14 15  1  0
 14 13  1  0
 16 15  1  6
 16 18  1  0
 16 17  1  0
 17 10  1  0
 18 20  1  0
 19 18  2  0
 20 21  1  0
 21 24  1  0
 21 22  1  1
 23 22  1  0
 24 26  2  0
 24 25  1  0
M  END
$$$$
