FMC.pdb
     RDKit          3D

 26 26  0  0  1  0  0  0  0  0999 V2000
   10.5764  -17.2901   20.8421 N   0  0  0  0  0  0  0  0  0  0  0  0
    9.8916  -16.3472   21.6976 C   0  0  1  0  0  0  0  0  0  0  0  0
    8.4235  -16.3529   21.4029 C   0  0  0  0  0  0  0  0  0  0  0  0
    7.9260  -14.9620   21.5306 C   0  0  0  0  0  0  0  0  0  0  0  0
    8.0638  -14.1279   20.4420 C   0  0  0  0  0  0  0  0  0  0  0  0
    7.6322  -12.8138   20.4602 C   0  0  0  0  0  0  0  0  0  0  0  0
    7.0435  -12.3200   21.6068 C   0  0  0  0  0  0  0  0  0  0  0  0
    6.8908  -13.1339   22.7179 C   0  0  0  0  0  0  0  0  0  0  0  0
    7.3360  -14.4496   22.6646 C   0  0  0  0  0  0  0  0  0  0  0  0
   10.2250  -16.6355   23.0982 C   0  0  0  0  0  0  0  0  0  0  0  0
   10.9942  -17.6200   23.3307 O   0  0  0  0  0  0  0  0  0  0  0  0
    9.2928  -12.2768   28.1680 C   0  0  0  0  0  0  0  0  0  0  0  0
   10.4837  -13.5608   28.5899 S   0  0  0  0  0  0  0  0  0  0  0  0
   10.0036  -15.1217   27.8279 C   0  0  0  0  0  0  0  0  0  0  0  0
    9.7055  -15.0602   26.3732 C   0  0  0  0  0  0  0  0  0  0  0  0
   10.3542  -16.0967   25.5618 C   0  0  2  0  0  0  0  0  0  0  0  0
    9.7711  -15.9224   24.2021 N   0  0  0  0  0  0  0  0  0  0  0  0
   10.2177  -17.4954   25.8566 C   0  0  0  0  0  0  0  0  0  0  0  0
    9.1252  -18.0918   25.7213 O   0  0  0  0  0  0  0  0  0  0  0  0
   11.2985  -18.3231   26.3242 N   0  0  0  0  0  0  0  0  0  0  0  0
   11.1122  -19.6604   26.8277 C   0  0  1  0  0  0  0  0  0  0  0  0
   12.2990  -20.4929   26.3929 C   0  0  0  0  0  0  0  0  0  0  0  0
   12.5209  -20.2789   24.6053 S   0  0  0  0  0  0  0  0  0  0  0  0
   10.9434  -19.6791   28.2996 C   0  0  0  0  0  0  0  0  0  0  0  0
   10.6848  -20.8894   28.9271 O   0  0  0  0  0  0  0  0  0  0  0  0
   11.0435  -18.5872   28.9159 O   0  0  0  0  0  0  0  0  0  0  0  0
  2  1  1  6
  3  2  1  0
  3  4  1  0
  4  5  2  0
  5  6  1  0
  7  6  2  0
  8  7  1  0
  9  4  1  0
  9  8  2  0
 10  2  1  0
 10 11  2  0
 12 13  1  0
 14 15  1  0
 14 13  1  0
 16 15  1  1
 16 18  1  0
 16 17  1  0
 17 10  1  0
 18 20  1  0
 19 18  2  0
 20 21  1  0
 21 24  1  0
 21 22  1  1
 23 22  1  0
 24 26  2  0
 24 25  1  0
M  END
$$$$
