HWQ.pdb
     RDKit          3D

 34 36  0  0  1  0  0  0  0  0999 V2000
   17.8330   -9.7602  -17.4575 N   0  0  0  0  0  0  0  0  0  0  0  0
   18.0120   -8.4852  -16.8078 C   0  0  1  0  0  0  0  0  0  0  0  0
   16.9543   -7.5160  -17.2311 C   0  0  0  0  0  0  0  0  0  0  0  0
   17.1743   -7.1713  -18.6595 C   0  0  0  0  0  0  0  0  0  0  0  0
   16.3531   -7.5237  -19.7239 C   0  0  0  0  0  0  0  0  0  0  0  0
   16.8607   -7.0416  -20.8691 N   0  0  0  0  0  0  0  0  0  0  0  0
   17.9883   -6.3900  -20.5522 C   0  0  0  0  0  0  0  0  0  0  0  0
   18.1896   -6.4611  -19.2165 N   0  0  0  0  0  0  0  0  0  0  0  0
   18.1152   -8.6175  -15.3340 C   0  0  0  0  0  0  0  0  0  0  0  0
   17.3003   -9.3843  -14.7550 O   0  0  0  0  0  0  0  0  0  0  0  0
   19.0983   -7.9032  -14.6089 N   0  0  0  0  0  0  0  0  0  0  0  0
   19.1489   -8.0211  -13.1813 C   0  0  1  0  0  0  0  0  0  0  0  0
   20.5876   -8.2299  -12.8026 C   0  0  0  0  0  0  0  0  0  0  0  0
   20.8086   -8.3579  -11.3521 C   0  0  0  0  0  0  0  0  0  0  0  0
   20.3452   -9.4329  -10.5748 C   0  0  0  0  0  0  0  0  0  0  0  0
   20.7320   -9.2745   -9.3038 N   0  0  0  0  0  0  0  0  0  0  0  0
   21.4473   -8.1181   -9.1947 C   0  0  0  0  0  0  0  0  0  0  0  0
   22.0476   -7.5169   -8.1153 C   0  0  0  0  0  0  0  0  0  0  0  0
   22.7133   -6.3311   -8.2607 C   0  0  0  0  0  0  0  0  0  0  0  0
   22.7691   -5.7549   -9.5040 C   0  0  0  0  0  0  0  0  0  0  0  0
   22.1653   -6.3637  -10.5802 C   0  0  0  0  0  0  0  0  0  0  0  0
   21.4854   -7.5612  -10.4728 C   0  0  0  0  0  0  0  0  0  0  0  0
   18.4181   -7.0125  -12.4285 C   0  0  0  0  0  0  0  0  0  0  0  0
   18.6316   -5.7953  -12.7580 O   0  0  0  0  0  0  0  0  0  0  0  0
   12.6784   -7.1928   -9.7010 N   0  0  0  0  0  0  0  0  0  0  0  0
   13.7852   -7.7066   -9.0005 C   0  0  0  0  0  0  0  0  0  0  0  0
   13.5503   -8.5341   -8.0528 O   0  0  0  0  0  0  0  0  0  0  0  0
   15.1851   -7.3567   -9.2964 C   0  0  0  0  0  0  0  0  0  0  0  0
   15.4370   -6.4833  -10.4528 C   0  0  0  0  0  0  0  0  0  0  0  0
   16.8580   -6.0845  -10.7163 C   0  0  2  0  0  0  0  0  0  0  0  0
   17.5165   -7.2579  -11.3902 N   0  0  0  0  0  0  0  0  0  0  0  0
   17.6484   -5.7358   -9.5364 C   0  0  0  0  0  0  0  0  0  0  0  0
   18.5485   -6.4596   -9.0573 O   0  0  0  0  0  0  0  0  0  0  0  0
   17.4225   -4.5219   -8.8608 O   0  0  0  0  0  0  0  0  0  0  0  0
  2  1  1  6
  2  9  1  0
  2  3  1  0
  3  4  1  0
  4  8  1  0
  5  6  1  0
  5  4  2  0
  6  7  1  0
  7  8  2  0
  9 10  2  0
 11 12  1  0
 11  9  1  0
 13 14  1  0
 12 13  1  1
 14 15  2  0
 16 15  1  0
 17 16  1  0
 18 17  2  0
 19 18  1  0
 20 19  2  0
 20 21  1  0
 21 22  2  0
 22 17  1  0
 22 14  1  0
 23 24  2  0
 23 12  1  0
 25 26  1  0
 26 28  1  0
 26 27  2  0
 28 29  1  0
 30 29  1  1
 30 32  1  0
 30 31  1  0
 31 23  1  0
 32 34  1  0
 33 32  2  0
M  END
$$$$
