HWQ.pdb
     RDKit          3D

 34 36  0  0  1  0  0  0  0  0999 V2000
   27.6299  -21.1648  -17.4831 N   0  0  0  0  0  0  0  0  0  0  0  0
   27.6310  -22.4026  -16.7431 C   0  0  1  0  0  0  0  0  0  0  0  0
   28.9997  -23.0049  -16.7103 C   0  0  0  0  0  0  0  0  0  0  0  0
   29.4828  -23.1556  -18.1073 C   0  0  0  0  0  0  0  0  0  0  0  0
   29.0156  -24.0717  -19.0421 C   0  0  0  0  0  0  0  0  0  0  0  0
   29.6809  -23.9215  -20.1981 N   0  0  0  0  0  0  0  0  0  0  0  0
   30.5613  -22.9276  -20.0151 C   0  0  0  0  0  0  0  0  0  0  0  0
   30.4515  -22.4550  -18.7525 N   0  0  0  0  0  0  0  0  0  0  0  0
   27.0374  -22.2480  -15.3926 C   0  0  0  0  0  0  0  0  0  0  0  0
   26.9747  -23.2699  -14.6585 O   0  0  0  0  0  0  0  0  0  0  0  0
   26.5594  -20.9917  -14.9501 N   0  0  0  0  0  0  0  0  0  0  0  0
   25.8627  -20.9003  -13.7008 C   0  0  1  0  0  0  0  0  0  0  0  0
   26.4839  -19.7729  -12.9262 C   0  0  0  0  0  0  0  0  0  0  0  0
   26.6627  -20.0629  -11.4933 C   0  0  0  0  0  0  0  0  0  0  0  0
   25.6375  -19.9754  -10.5364 C   0  0  0  0  0  0  0  0  0  0  0  0
   26.1065  -20.3298   -9.3344 N   0  0  0  0  0  0  0  0  0  0  0  0
   27.4260  -20.6563   -9.4477 C   0  0  0  0  0  0  0  0  0  0  0  0
   28.3448  -21.0718   -8.5148 C   0  0  0  0  0  0  0  0  0  0  0  0
   29.6363  -21.3350   -8.8796 C   0  0  0  0  0  0  0  0  0  0  0  0
   29.9954  -21.1757  -10.1937 C   0  0  0  0  0  0  0  0  0  0  0  0
   29.0690  -20.7594  -11.1220 C   0  0  0  0  0  0  0  0  0  0  0  0
   27.7561  -20.4852  -10.7919 C   0  0  0  0  0  0  0  0  0  0  0  0
   24.4094  -20.9152  -13.7747 C   0  0  0  0  0  0  0  0  0  0  0  0
   23.8872  -20.3085  -14.7721 O   0  0  0  0  0  0  0  0  0  0  0  0
   19.9998  -24.4002  -10.5316 N   0  0  0  0  0  0  0  0  0  0  0  0
   19.2988  -23.4302  -11.2715 C   0  0  0  0  0  0  0  0  0  0  0  0
   18.0230  -23.4197  -11.1696 O   0  0  0  0  0  0  0  0  0  0  0  0
   19.9420  -22.4309  -12.1419 C   0  0  0  0  0  0  0  0  0  0  0  0
   21.4114  -22.3646  -12.1292 C   0  0  0  0  0  0  0  0  0  0  0  0
   22.0640  -21.4014  -13.0748 C   0  0  2  0  0  0  0  0  0  0  0  0
   23.5483  -21.5269  -12.8606 N   0  0  0  0  0  0  0  0  0  0  0  0
   21.6973  -19.9964  -12.9028 C   0  0  0  0  0  0  0  0  0  0  0  0
   22.1557  -19.2576  -12.0042 O   0  0  0  0  0  0  0  0  0  0  0  0
   20.7755  -19.3887  -13.7759 O   0  0  0  0  0  0  0  0  0  0  0  0
  2  1  1  1
  2  9  1  0
  2  3  1  0
  3  4  1  0
  4  8  1  0
  5  6  1  0
  5  4  2  0
  6  7  1  0
  7  8  2  0
  9 10  2  0
 11 12  1  0
 11  9  1  0
 13 14  1  0
 12 13  1  6
 14 15  2  0
 16 15  1  0
 17 16  1  0
 18 17  2  0
 19 18  1  0
 20 19  2  0
 20 21  1  0
 21 22  2  0
 22 17  1  0
 22 14  1  0
 23 24  2  0
 23 12  1  0
 25 26  1  0
 26 28  1  0
 26 27  2  0
 28 29  1  0
 30 29  1  1
 30 32  1  0
 30 31  1  0
 31 23  1  0
 32 34  1  0
 33 32  2  0
M  END
$$$$
