HWQ.pdb
     RDKit          3D

 34 36  0  0  1  0  0  0  0  0999 V2000
   27.2524  -24.7549  -16.7171 N   0  0  0  0  0  0  0  0  0  0  0  0
   27.0539  -23.3330  -16.5803 C   0  0  1  0  0  0  0  0  0  0  0  0
   26.3827  -22.7677  -17.7916 C   0  0  0  0  0  0  0  0  0  0  0  0
   27.3482  -22.7915  -18.9207 C   0  0  0  0  0  0  0  0  0  0  0  0
   28.3529  -21.8616  -19.1602 C   0  0  0  0  0  0  0  0  0  0  0  0
   29.0315  -22.2001  -20.2676 N   0  0  0  0  0  0  0  0  0  0  0  0
   28.4769  -23.3270  -20.7357 C   0  0  0  0  0  0  0  0  0  0  0  0
   27.4560  -23.6958  -19.9287 N   0  0  0  0  0  0  0  0  0  0  0  0
   26.3552  -22.9840  -15.3193 C   0  0  0  0  0  0  0  0  0  0  0  0
   25.2802  -23.5866  -15.0577 O   0  0  0  0  0  0  0  0  0  0  0  0
   26.8841  -22.0058  -14.4440 N   0  0  0  0  0  0  0  0  0  0  0  0
   26.2198  -21.7339  -13.2033 C   0  0  1  0  0  0  0  0  0  0  0  0
   27.1557  -20.9056  -12.3696 C   0  0  0  0  0  0  0  0  0  0  0  0
   26.6775  -20.6675  -10.9971 C   0  0  0  0  0  0  0  0  0  0  0  0
   25.3557  -20.3197  -10.6709 C   0  0  0  0  0  0  0  0  0  0  0  0
   25.2309  -20.2033   -9.3439 N   0  0  0  0  0  0  0  0  0  0  0  0
   26.4346  -20.4624   -8.7569 C   0  0  0  0  0  0  0  0  0  0  0  0
   26.8232  -20.4673   -7.4393 C   0  0  0  0  0  0  0  0  0  0  0  0
   28.1151  -20.7564   -7.0961 C   0  0  0  0  0  0  0  0  0  0  0  0
   29.0137  -21.0406   -8.0924 C   0  0  0  0  0  0  0  0  0  0  0  0
   28.6164  -21.0338   -9.4098 C   0  0  0  0  0  0  0  0  0  0  0  0
   27.3212  -20.7479   -9.7950 C   0  0  0  0  0  0  0  0  0  0  0  0
   24.8463  -21.2627  -13.3014 C   0  0  0  0  0  0  0  0  0  0  0  0
   24.6653  -20.1782  -13.9546 O   0  0  0  0  0  0  0  0  0  0  0  0
   19.6642  -24.7497  -14.0497 N   0  0  0  0  0  0  0  0  0  0  0  0
   19.2828  -23.7037  -13.1895 C   0  0  0  0  0  0  0  0  0  0  0  0
   18.1185  -23.7695  -12.6619 O   0  0  0  0  0  0  0  0  0  0  0  0
   20.1399  -22.5524  -12.8582 C   0  0  0  0  0  0  0  0  0  0  0  0
   21.5025  -22.5385  -13.4119 C   0  0  0  0  0  0  0  0  0  0  0  0
   22.3611  -21.3510  -13.0949 C   0  0  2  0  0  0  0  0  0  0  0  0
   23.7246  -21.8857  -12.7493 N   0  0  0  0  0  0  0  0  0  0  0  0
   21.9051  -20.5167  -11.9839 C   0  0  0  0  0  0  0  0  0  0  0  0
   22.3879  -20.5599  -10.8313 O   0  0  0  0  0  0  0  0  0  0  0  0
   20.8612  -19.5910  -12.1698 O   0  0  0  0  0  0  0  0  0  0  0  0
  2  1  1  6
  2  9  1  0
  2  3  1  0
  3  4  1  0
  4  8  1  0
  5  6  1  0
  5  4  2  0
  6  7  1  0
  7  8  2  0
  9 10  2  0
 11 12  1  0
 11  9  1  0
 13 14  1  0
 12 13  1  6
 14 15  2  0
 16 15  1  0
 17 16  1  0
 18 17  2  0
 19 18  1  0
 20 19  2  0
 20 21  1  0
 21 22  2  0
 22 17  1  0
 22 14  1  0
 23 24  2  0
 23 12  1  0
 25 26  1  0
 26 28  1  0
 26 27  2  0
 28 29  1  0
 30 29  1  1
 30 32  1  0
 30 31  1  0
 31 23  1  0
 32 34  1  0
 33 32  2  0
M  END
$$$$
