HWQ.pdb
     RDKit          3D

 34 36  0  0  1  0  0  0  0  0999 V2000
   27.6504  -21.1995  -15.2382 N   0  0  0  0  0  0  0  0  0  0  0  0
   27.6727  -20.2756  -14.1311 C   0  0  1  0  0  0  0  0  0  0  0  0
   27.1263  -18.9432  -14.5353 C   0  0  0  0  0  0  0  0  0  0  0  0
   27.9942  -18.3811  -15.6023 C   0  0  0  0  0  0  0  0  0  0  0  0
   29.3638  -18.1621  -15.5149 C   0  0  0  0  0  0  0  0  0  0  0  0
   29.8163  -17.6449  -16.6677 N   0  0  0  0  0  0  0  0  0  0  0  0
   28.7603  -17.5312  -17.4854 C   0  0  0  0  0  0  0  0  0  0  0  0
   27.6502  -17.9739  -16.8519 N   0  0  0  0  0  0  0  0  0  0  0  0
   27.0075  -20.8293  -12.9265 C   0  0  0  0  0  0  0  0  0  0  0  0
   25.8882  -21.3871  -13.0782 O   0  0  0  0  0  0  0  0  0  0  0  0
   27.6155  -20.7306  -11.6525 N   0  0  0  0  0  0  0  0  0  0  0  0
   26.8757  -21.1091  -10.4846 C   0  0  1  0  0  0  0  0  0  0  0  0
   27.8442  -21.1458   -9.3367 C   0  0  0  0  0  0  0  0  0  0  0  0
   27.2243  -20.8838   -8.0266 C   0  0  0  0  0  0  0  0  0  0  0  0
   25.8984  -21.2153   -7.7003 C   0  0  0  0  0  0  0  0  0  0  0  0
   25.6453  -20.8786   -6.4303 N   0  0  0  0  0  0  0  0  0  0  0  0
   26.7654  -20.3254   -5.8826 C   0  0  0  0  0  0  0  0  0  0  0  0
   27.0126  -19.8216   -4.6287 C   0  0  0  0  0  0  0  0  0  0  0  0
   28.2391  -19.3031   -4.3166 C   0  0  0  0  0  0  0  0  0  0  0  0
   29.2158  -19.2959   -5.2794 C   0  0  0  0  0  0  0  0  0  0  0  0
   28.9601  -19.8025   -6.5329 C   0  0  0  0  0  0  0  0  0  0  0  0
   27.7353  -20.3351   -6.8847 C   0  0  0  0  0  0  0  0  0  0  0  0
   25.6263  -20.3979  -10.2588 C   0  0  0  0  0  0  0  0  0  0  0  0
   25.7089  -19.1253  -10.1626 O   0  0  0  0  0  0  0  0  0  0  0  0
   22.5531  -19.5370  -14.6810 N   0  0  0  0  0  0  0  0  0  0  0  0
   22.3723  -20.7809  -14.0485 C   0  0  0  0  0  0  0  0  0  0  0  0
   22.0865  -21.7834  -14.7911 O   0  0  0  0  0  0  0  0  0  0  0  0
   22.4991  -20.9957  -12.5968 C   0  0  0  0  0  0  0  0  0  0  0  0
   22.9943  -19.8736  -11.7849 C   0  0  0  0  0  0  0  0  0  0  0  0
   23.1485  -20.1065  -10.3119 C   0  0  2  0  0  0  0  0  0  0  0  0
   24.3620  -20.9796  -10.1389 N   0  0  0  0  0  0  0  0  0  0  0  0
   22.0200  -20.7610   -9.6514 C   0  0  0  0  0  0  0  0  0  0  0  0
   20.8785  -20.2599   -9.5541 O   0  0  0  0  0  0  0  0  0  0  0  0
   22.1742  -22.0349   -9.0729 O   0  0  0  0  0  0  0  0  0  0  0  0
  2  1  1  6
  2  9  1  0
  2  3  1  0
  3  4  1  0
  4  8  1  0
  5  6  1  0
  5  4  2  0
  6  7  1  0
  7  8  2  0
  9 10  2  0
 11 12  1  0
 11  9  1  0
 13 14  1  0
 12 13  1  1
 14 15  2  0
 16 15  1  0
 17 16  1  0
 18 17  2  0
 19 18  1  0
 20 19  2  0
 20 21  1  0
 21 22  2  0
 22 17  1  0
 22 14  1  0
 23 24  2  0
 23 12  1  0
 25 26  1  0
 26 28  1  0
 26 27  2  0
 28 29  1  0
 30 29  1  6
 30 32  1  0
 30 31  1  0
 31 23  1  0
 32 34  1  0
 33 32  2  0
M  END
$$$$
