HWQ.pdb
     RDKit          3D

 34 36  0  0  1  0  0  0  0  0999 V2000
   28.2195  -21.4911  -15.6719 N   0  0  0  0  0  0  0  0  0  0  0  0
   28.0116  -20.4224  -14.7262 C   0  0  1  0  0  0  0  0  0  0  0  0
   27.3940  -19.2330  -15.3904 C   0  0  0  0  0  0  0  0  0  0  0  0
   28.3331  -18.7301  -16.4262 C   0  0  0  0  0  0  0  0  0  0  0  0
   28.1360  -18.7715  -17.8013 C   0  0  0  0  0  0  0  0  0  0  0  0
   29.1905  -18.2276  -18.4286 N   0  0  0  0  0  0  0  0  0  0  0  0
   30.0533  -17.8417  -17.4782 C   0  0  0  0  0  0  0  0  0  0  0  0
   29.5457  -18.1405  -16.2606 N   0  0  0  0  0  0  0  0  0  0  0  0
   27.2563  -20.8714  -13.5312 C   0  0  0  0  0  0  0  0  0  0  0  0
   26.2079  -21.5444  -13.7182 O   0  0  0  0  0  0  0  0  0  0  0  0
   27.7040  -20.5506  -12.2276 N   0  0  0  0  0  0  0  0  0  0  0  0
   26.8806  -20.8700  -11.0986 C   0  0  1  0  0  0  0  0  0  0  0  0
   27.7300  -20.7122   -9.8695 C   0  0  0  0  0  0  0  0  0  0  0  0
   26.9677  -20.7539   -8.6100 C   0  0  0  0  0  0  0  0  0  0  0  0
   25.7470  -21.4307   -8.4483 C   0  0  0  0  0  0  0  0  0  0  0  0
   25.3228  -21.3070   -7.1853 N   0  0  0  0  0  0  0  0  0  0  0  0
   26.2235  -20.5623   -6.4819 C   0  0  0  0  0  0  0  0  0  0  0  0
   26.2413  -20.1544   -5.1703 C   0  0  0  0  0  0  0  0  0  0  0  0
   27.2711  -19.3915   -4.6928 C   0  0  0  0  0  0  0  0  0  0  0  0
   28.2840  -19.0419   -5.5488 C   0  0  0  0  0  0  0  0  0  0  0  0
   28.2588  -19.4547   -6.8612 C   0  0  0  0  0  0  0  0  0  0  0  0
   27.2371  -20.2264   -7.3791 C   0  0  0  0  0  0  0  0  0  0  0  0
   25.5670  -20.2447  -11.0659 C   0  0  0  0  0  0  0  0  0  0  0  0
   25.5477  -18.9663  -11.0981 O   0  0  0  0  0  0  0  0  0  0  0  0
   22.9355  -21.5374  -15.1657 N   0  0  0  0  0  0  0  0  0  0  0  0
   23.2365  -20.1889  -14.9000 C   0  0  0  0  0  0  0  0  0  0  0  0
   23.7069  -19.4893  -15.8630 O   0  0  0  0  0  0  0  0  0  0  0  0
   23.0365  -19.5399  -13.5928 C   0  0  0  0  0  0  0  0  0  0  0  0
   22.5280  -20.3723  -12.4919 C   0  0  0  0  0  0  0  0  0  0  0  0
   23.0758  -20.1089  -11.1215 C   0  0  2  0  0  0  0  0  0  0  0  0
   24.3421  -20.9133  -11.0023 N   0  0  0  0  0  0  0  0  0  0  0  0
   22.2006  -20.4716  -10.0076 C   0  0  0  0  0  0  0  0  0  0  0  0
   22.4409  -21.3954   -9.1999 O   0  0  0  0  0  0  0  0  0  0  0  0
   21.0012  -19.7691   -9.7860 O   0  0  0  0  0  0  0  0  0  0  0  0
  2  1  1  6
  2  9  1  0
  2  3  1  0
  3  4  1  0
  4  8  1  0
  5  6  1  0
  5  4  2  0
  6  7  1  0
  7  8  2  0
  9 10  2  0
 11 12  1  0
 11  9  1  0
 13 14  1  0
 12 13  1  1
 14 15  2  0
 16 15  1  0
 17 16  1  0
 18 17  2  0
 19 18  1  0
 20 19  2  0
 20 21  1  0
 21 22  2  0
 22 17  1  0
 22 14  1  0
 23 24  2  0
 23 12  1  0
 25 26  1  0
 26 28  1  0
 26 27  2  0
 28 29  1  0
 30 29  1  6
 30 32  1  0
 30 31  1  0
 31 23  1  0
 32 34  1  0
 33 32  2  0
M  END
$$$$
