HWQ.pdb
     RDKit          3D

 34 36  0  0  1  0  0  0  0  0999 V2000
   29.4445  -22.9309  -17.2133 N   0  0  0  0  0  0  0  0  0  0  0  0
   28.3219  -22.0264  -17.2511 C   0  0  1  0  0  0  0  0  0  0  0  0
   27.6577  -22.0540  -18.5909 C   0  0  0  0  0  0  0  0  0  0  0  0
   28.6021  -21.5039  -19.5975 C   0  0  0  0  0  0  0  0  0  0  0  0
   28.8951  -20.1604  -19.7987 C   0  0  0  0  0  0  0  0  0  0  0  0
   29.7911  -20.0337  -20.7900 N   0  0  0  0  0  0  0  0  0  0  0  0
   30.0726  -21.2710  -21.2218 C   0  0  0  0  0  0  0  0  0  0  0  0
   29.3587  -22.1708  -20.5075 N   0  0  0  0  0  0  0  0  0  0  0  0
   27.3750  -22.2623  -16.1340 C   0  0  0  0  0  0  0  0  0  0  0  0
   27.0069  -23.4474  -15.9170 O   0  0  0  0  0  0  0  0  0  0  0  0
   26.9048  -21.1874  -15.3427 N   0  0  0  0  0  0  0  0  0  0  0  0
   26.0172  -21.4503  -14.2484 C   0  0  1  0  0  0  0  0  0  0  0  0
   26.1355  -20.2975  -13.2925 C   0  0  0  0  0  0  0  0  0  0  0  0
   25.3884  -20.4861  -12.0373 C   0  0  0  0  0  0  0  0  0  0  0  0
   25.9527  -20.9821  -10.8498 C   0  0  0  0  0  0  0  0  0  0  0  0
   25.0280  -21.0065   -9.8830 N   0  0  0  0  0  0  0  0  0  0  0  0
   23.8472  -20.5399  -10.3816 C   0  0  0  0  0  0  0  0  0  0  0  0
   22.6140  -20.3757   -9.7991 C   0  0  0  0  0  0  0  0  0  0  0  0
   21.5618  -19.8873  -10.5236 C   0  0  0  0  0  0  0  0  0  0  0  0
   21.7623  -19.5657  -11.8417 C   0  0  0  0  0  0  0  0  0  0  0  0
   23.0007  -19.7331  -12.4177 C   0  0  0  0  0  0  0  0  0  0  0  0
   24.0867  -20.2221  -11.7183 C   0  0  0  0  0  0  0  0  0  0  0  0
   24.6681  -21.8654  -14.6027 C   0  0  0  0  0  0  0  0  0  0  0  0
   24.1521  -21.2988  -15.6266 O   0  0  0  0  0  0  0  0  0  0  0  0
   22.0699  -27.5710  -14.4268 N   0  0  0  0  0  0  0  0  0  0  0  0
   21.0382  -26.7085  -14.8408 C   0  0  0  0  0  0  0  0  0  0  0  0
   19.9195  -27.2402  -15.1634 O   0  0  0  0  0  0  0  0  0  0  0  0
   21.1670  -25.2430  -14.9165 C   0  0  0  0  0  0  0  0  0  0  0  0
   22.4496  -24.6519  -14.5053 C   0  0  0  0  0  0  0  0  0  0  0  0
   22.5363  -23.1557  -14.4685 C   0  0  2  0  0  0  0  0  0  0  0  0
   23.8992  -22.8166  -13.9279 N   0  0  0  0  0  0  0  0  0  0  0  0
   21.5380  -22.4824  -13.6388 C   0  0  0  0  0  0  0  0  0  0  0  0
   21.3814  -21.2425  -13.5988 O   0  0  0  0  0  0  0  0  0  0  0  0
   20.6746  -23.2295  -12.8157 O   0  0  0  0  0  0  0  0  0  0  0  0
  2  1  1  6
  2  9  1  0
  2  3  1  0
  3  4  1  0
  4  8  1  0
  5  6  1  0
  5  4  2  0
  6  7  1  0
  7  8  2  0
  9 10  2  0
 11 12  1  0
 11  9  1  0
 13 14  1  0
 12 13  1  6
 14 15  2  0
 16 15  1  0
 17 16  1  0
 18 17  2  0
 19 18  1  0
 20 19  2  0
 20 21  1  0
 21 22  2  0
 22 17  1  0
 22 14  1  0
 23 24  2  0
 23 12  1  0
 25 26  1  0
 26 28  1  0
 26 27  2  0
 28 29  1  0
 30 29  1  1
 30 32  1  0
 30 31  1  0
 31 23  1  0
 32 34  1  0
 33 32  2  0
M  END
$$$$
