HWQ.pdb
     RDKit          3D

 34 36  0  0  1  0  0  0  0  0999 V2000
   27.0265  -20.3060  -15.6515 N   0  0  0  0  0  0  0  0  0  0  0  0
   26.8640  -21.7035  -15.3349 C   0  0  1  0  0  0  0  0  0  0  0  0
   28.1824  -22.4099  -15.3396 C   0  0  0  0  0  0  0  0  0  0  0  0
   28.6789  -22.4735  -16.7386 C   0  0  0  0  0  0  0  0  0  0  0  0
   27.9786  -22.0883  -17.8755 C   0  0  0  0  0  0  0  0  0  0  0  0
   28.7373  -22.2842  -18.9653 N   0  0  0  0  0  0  0  0  0  0  0  0
   29.9057  -22.7863  -18.5420 C   0  0  0  0  0  0  0  0  0  0  0  0
   29.8832  -22.9059  -17.1949 N   0  0  0  0  0  0  0  0  0  0  0  0
   26.1058  -21.9080  -14.0766 C   0  0  0  0  0  0  0  0  0  0  0  0
   25.9248  -23.0919  -13.6861 O   0  0  0  0  0  0  0  0  0  0  0  0
   25.6051  -20.8053  -13.3444 N   0  0  0  0  0  0  0  0  0  0  0  0
   24.8207  -21.0358  -12.1670 C   0  0  1  0  0  0  0  0  0  0  0  0
   25.3763  -20.1567  -11.0829 C   0  0  0  0  0  0  0  0  0  0  0  0
   26.6063  -20.6800  -10.4643 C   0  0  0  0  0  0  0  0  0  0  0  0
   27.5480  -21.4795  -11.1339 C   0  0  0  0  0  0  0  0  0  0  0  0
   28.5654  -21.7665  -10.3137 N   0  0  0  0  0  0  0  0  0  0  0  0
   28.3408  -21.1830   -9.1013 C   0  0  0  0  0  0  0  0  0  0  0  0
   29.0745  -21.1843   -7.9400 C   0  0  0  0  0  0  0  0  0  0  0  0
   28.6259  -20.5184   -6.8328 C   0  0  0  0  0  0  0  0  0  0  0  0
   27.4302  -19.8506   -6.9051 C   0  0  0  0  0  0  0  0  0  0  0  0
   26.7014  -19.8540   -8.0723 C   0  0  0  0  0  0  0  0  0  0  0  0
   27.1221  -20.5137   -9.2104 C   0  0  0  0  0  0  0  0  0  0  0  0
   23.3765  -21.0149  -12.3448 C   0  0  0  0  0  0  0  0  0  0  0  0
   22.9171  -20.1266  -13.1420 O   0  0  0  0  0  0  0  0  0  0  0  0
   18.7422  -24.8858   -9.9023 N   0  0  0  0  0  0  0  0  0  0  0  0
   18.1157  -23.9662  -10.7635 C   0  0  0  0  0  0  0  0  0  0  0  0
   16.8463  -24.0576  -10.9004 O   0  0  0  0  0  0  0  0  0  0  0  0
   18.8276  -22.9100  -11.5034 C   0  0  0  0  0  0  0  0  0  0  0  0
   20.2874  -22.8324  -11.3401 C   0  0  0  0  0  0  0  0  0  0  0  0
   21.0038  -21.7392  -12.0744 C   0  0  2  0  0  0  0  0  0  0  0  0
   22.4619  -21.8706  -11.7262 N   0  0  0  0  0  0  0  0  0  0  0  0
   20.5811  -20.3765  -11.7538 C   0  0  0  0  0  0  0  0  0  0  0  0
   20.9572  -19.7463  -10.7415 O   0  0  0  0  0  0  0  0  0  0  0  0
   19.6972  -19.6861  -12.6042 O   0  0  0  0  0  0  0  0  0  0  0  0
  2  1  1  1
  2  9  1  0
  2  3  1  0
  3  4  1  0
  4  8  1  0
  5  6  1  0
  5  4  2  0
  6  7  1  0
  7  8  2  0
  9 10  2  0
 11 12  1  0
 11  9  1  0
 13 14  1  0
 12 13  1  1
 14 15  2  0
 16 15  1  0
 17 16  1  0
 18 17  2  0
 19 18  1  0
 20 19  2  0
 20 21  1  0
 21 22  2  0
 22 17  1  0
 22 14  1  0
 23 24  2  0
 23 12  1  0
 25 26  1  0
 26 28  1  0
 26 27  2  0
 28 29  1  0
 30 29  1  1
 30 32  1  0
 30 31  1  0
 31 23  1  0
 32 34  1  0
 33 32  2  0
M  END
$$$$
