HWQ.pdb
     RDKit          3D

 34 36  0  0  1  0  0  0  0  0999 V2000
   14.8925  -22.0809    0.4191 N   0  0  0  0  0  0  0  0  0  0  0  0
   14.5182  -21.2784    1.5573 C   0  0  1  0  0  0  0  0  0  0  0  0
   13.4720  -21.9660    2.3758 C   0  0  0  0  0  0  0  0  0  0  0  0
   12.2126  -22.0135    1.5888 C   0  0  0  0  0  0  0  0  0  0  0  0
   11.1677  -21.0998    1.6576 C   0  0  0  0  0  0  0  0  0  0  0  0
   10.1942  -21.4570    0.8055 N   0  0  0  0  0  0  0  0  0  0  0  0
   10.6010  -22.5799    0.1971 C   0  0  0  0  0  0  0  0  0  0  0  0
   11.8223  -22.9276    0.6627 N   0  0  0  0  0  0  0  0  0  0  0  0
   15.6942  -20.8610    2.3590 C   0  0  0  0  0  0  0  0  0  0  0  0
   16.5764  -21.7270    2.6019 O   0  0  0  0  0  0  0  0  0  0  0  0
   15.8148  -19.5328    2.8322 N   0  0  0  0  0  0  0  0  0  0  0  0
   17.0123  -19.1291    3.5087 C   0  0  1  0  0  0  0  0  0  0  0  0
   17.4388  -17.8171    2.9139 C   0  0  0  0  0  0  0  0  0  0  0  0
   18.5141  -17.9382    1.9148 C   0  0  0  0  0  0  0  0  0  0  0  0
   18.7309  -19.0784    1.1228 C   0  0  0  0  0  0  0  0  0  0  0  0
   19.7604  -18.8672    0.2946 N   0  0  0  0  0  0  0  0  0  0  0  0
   20.2513  -17.6117    0.5024 C   0  0  0  0  0  0  0  0  0  0  0  0
   21.2918  -16.9322   -0.0829 C   0  0  0  0  0  0  0  0  0  0  0  0
   21.6005  -15.6593    0.3107 C   0  0  0  0  0  0  0  0  0  0  0  0
   20.8516  -15.0758    1.3005 C   0  0  0  0  0  0  0  0  0  0  0  0
   19.8109  -15.7632    1.8817 C   0  0  0  0  0  0  0  0  0  0  0  0
   19.4686  -17.0487    1.5102 C   0  0  0  0  0  0  0  0  0  0  0  0
   16.9847  -19.2060    4.9617 C   0  0  0  0  0  0  0  0  0  0  0  0
   15.8349  -19.1036    5.5121 O   0  0  0  0  0  0  0  0  0  0  0  0
   20.8731  -22.2859    8.9690 N   0  0  0  0  0  0  0  0  0  0  0  0
   19.8613  -21.7020    9.7533 C   0  0  0  0  0  0  0  0  0  0  0  0
   19.8119  -22.0288   10.9899 O   0  0  0  0  0  0  0  0  0  0  0  0
   18.8702  -20.7403    9.2409 C   0  0  0  0  0  0  0  0  0  0  0  0
   18.9129  -20.4208    7.8057 C   0  0  0  0  0  0  0  0  0  0  0  0
   17.8681  -19.4835    7.2790 C   0  0  2  0  0  0  0  0  0  0  0  0
   18.0927  -19.3789    5.7946 N   0  0  0  0  0  0  0  0  0  0  0  0
   17.8877  -18.1324    7.8379 C   0  0  0  0  0  0  0  0  0  0  0  0
   18.4758  -17.1640    7.3089 O   0  0  0  0  0  0  0  0  0  0  0  0
   17.2189  -17.8505    9.0439 O   0  0  0  0  0  0  0  0  0  0  0  0
  2  1  1  6
  2  9  1  0
  2  3  1  0
  3  4  1  0
  4  8  1  0
  5  6  1  0
  5  4  2  0
  6  7  1  0
  7  8  2  0
  9 10  2  0
 11 12  1  0
 11  9  1  0
 13 14  1  0
 12 13  1  1
 14 15  2  0
 16 15  1  0
 17 16  1  0
 18 17  2  0
 19 18  1  0
 20 19  2  0
 20 21  1  0
 21 22  2  0
 22 17  1  0
 22 14  1  0
 23 24  2  0
 23 12  1  0
 25 26  1  0
 26 28  1  0
 26 27  2  0
 28 29  1  0
 30 29  1  1
 30 32  1  0
 30 31  1  0
 31 23  1  0
 32 34  1  0
 33 32  2  0
M  END
$$$$
