HWQ.pdb
     RDKit          3D

 34 36  0  0  1  0  0  0  0  0999 V2000
   12.9471  -14.1009    6.4036 N   0  0  0  0  0  0  0  0  0  0  0  0
   14.1434  -14.1660    7.2063 C   0  0  1  0  0  0  0  0  0  0  0  0
   13.8265  -13.9714    8.6551 C   0  0  0  0  0  0  0  0  0  0  0  0
   13.3096  -12.5913    8.8441 C   0  0  0  0  0  0  0  0  0  0  0  0
   14.0694  -11.4280    8.8739 C   0  0  0  0  0  0  0  0  0  0  0  0
   13.2695  -10.3669    9.0620 N   0  0  0  0  0  0  0  0  0  0  0  0
   12.0164  -10.8341    9.1522 C   0  0  0  0  0  0  0  0  0  0  0  0
   12.0270  -12.1803    9.0218 N   0  0  0  0  0  0  0  0  0  0  0  0
   14.9240  -15.4005    6.9484 C   0  0  0  0  0  0  0  0  0  0  0  0
   14.3272  -16.5051    7.0530 O   0  0  0  0  0  0  0  0  0  0  0  0
   16.2932  -15.3326    6.5971 N   0  0  0  0  0  0  0  0  0  0  0  0
   17.0085  -16.5394    6.3029 C   0  0  1  0  0  0  0  0  0  0  0  0
   17.5325  -16.4154    4.9004 C   0  0  0  0  0  0  0  0  0  0  0  0
   16.6122  -16.9324    3.8733 C   0  0  0  0  0  0  0  0  0  0  0  0
   15.5356  -16.2041    3.3396 C   0  0  0  0  0  0  0  0  0  0  0  0
   14.9104  -16.9339    2.4086 N   0  0  0  0  0  0  0  0  0  0  0  0
   15.5336  -18.1420    2.2944 C   0  0  0  0  0  0  0  0  0  0  0  0
   15.2746  -19.2284    1.4946 C   0  0  0  0  0  0  0  0  0  0  0  0
   16.0533  -20.3501    1.5712 C   0  0  0  0  0  0  0  0  0  0  0  0
   17.0963  -20.3685    2.4616 C   0  0  0  0  0  0  0  0  0  0  0  0
   17.3492  -19.2760    3.2590 C   0  0  0  0  0  0  0  0  0  0  0  0
   16.5861  -18.1259    3.2093 C   0  0  0  0  0  0  0  0  0  0  0  0
   17.9553  -16.9861    7.3137 C   0  0  0  0  0  0  0  0  0  0  0  0
   18.7467  -16.0964    7.7803 O   0  0  0  0  0  0  0  0  0  0  0  0
   19.7936  -22.8796   10.9893 N   0  0  0  0  0  0  0  0  0  0  0  0
   19.2571  -21.6042   11.2448 C   0  0  0  0  0  0  0  0  0  0  0  0
   18.3650  -21.5124   12.1581 O   0  0  0  0  0  0  0  0  0  0  0  0
   19.6638  -20.3794   10.5347 C   0  0  0  0  0  0  0  0  0  0  0  0
   18.7562  -19.8614    9.4996 C   0  0  0  0  0  0  0  0  0  0  0  0
   19.1377  -18.5740    8.8328 C   0  0  2  0  0  0  0  0  0  0  0  0
   18.0719  -18.2866    7.8100 N   0  0  0  0  0  0  0  0  0  0  0  0
   20.4324  -18.5707    8.1531 C   0  0  0  0  0  0  0  0  0  0  0  0
   20.6095  -18.9697    6.9813 O   0  0  0  0  0  0  0  0  0  0  0  0
   21.5826  -18.0995    8.8136 O   0  0  0  0  0  0  0  0  0  0  0  0
  2  1  1  6
  2  9  1  0
  2  3  1  0
  3  4  1  0
  4  8  1  0
  5  6  1  0
  5  4  2  0
  6  7  1  0
  7  8  2  0
  9 10  2  0
 11 12  1  0
 11  9  1  0
 13 14  1  0
 12 13  1  6
 14 15  2  0
 16 15  1  0
 17 16  1  0
 18 17  2  0
 19 18  1  0
 20 19  2  0
 20 21  1  0
 21 22  2  0
 22 17  1  0
 22 14  1  0
 23 24  2  0
 23 12  1  0
 25 26  1  0
 26 28  1  0
 26 27  2  0
 28 29  1  0
 30 29  1  6
 30 32  1  0
 30 31  1  0
 31 23  1  0
 32 34  1  0
 33 32  2  0
M  END
$$$$
