HWQ.pdb
     RDKit          3D

 34 36  0  0  1  0  0  0  0  0999 V2000
   25.4428  -20.9233  -14.4271 N   0  0  0  0  0  0  0  0  0  0  0  0
   24.8017  -20.0096  -13.5139 C   0  0  1  0  0  0  0  0  0  0  0  0
   23.4480  -19.6158  -14.0136 C   0  0  0  0  0  0  0  0  0  0  0  0
   23.6120  -18.8931  -15.3014 C   0  0  0  0  0  0  0  0  0  0  0  0
   23.3405  -19.4001  -16.5665 C   0  0  0  0  0  0  0  0  0  0  0  0
   23.6037  -18.4684  -17.4961 N   0  0  0  0  0  0  0  0  0  0  0  0
   24.0371  -17.3797  -16.8454 C   0  0  0  0  0  0  0  0  0  0  0  0
   24.0468  -17.6239  -15.5151 N   0  0  0  0  0  0  0  0  0  0  0  0
   24.7735  -20.5327  -12.1262 C   0  0  0  0  0  0  0  0  0  0  0  0
   24.0224  -21.5147  -11.8842 O   0  0  0  0  0  0  0  0  0  0  0  0
   25.5663  -19.9434  -11.1129 N   0  0  0  0  0  0  0  0  0  0  0  0
   25.4331  -20.3944   -9.7589 C   0  0  1  0  0  0  0  0  0  0  0  0
   26.5402  -19.7586   -8.9670 C   0  0  0  0  0  0  0  0  0  0  0  0
   26.5579  -20.1511   -7.5476 C   0  0  0  0  0  0  0  0  0  0  0  0
   25.6561  -21.0600   -6.9687 C   0  0  0  0  0  0  0  0  0  0  0  0
   25.9505  -21.2302   -5.6746 N   0  0  0  0  0  0  0  0  0  0  0  0
   27.0301  -20.4597   -5.3564 C   0  0  0  0  0  0  0  0  0  0  0  0
   27.7045  -20.2809   -4.1731 C   0  0  0  0  0  0  0  0  0  0  0  0
   28.7737  -19.4310   -4.1031 C   0  0  0  0  0  0  0  0  0  0  0  0
   29.1584  -18.7614   -5.2366 C   0  0  0  0  0  0  0  0  0  0  0  0
   28.4776  -18.9462   -6.4180 C   0  0  0  0  0  0  0  0  0  0  0  0
   27.3947  -19.7963   -6.5278 C   0  0  0  0  0  0  0  0  0  0  0  0
   24.0974  -20.3181   -9.1863 C   0  0  0  0  0  0  0  0  0  0  0  0
   23.4944  -19.1964   -9.3040 O   0  0  0  0  0  0  0  0  0  0  0  0
   19.3072  -23.0859  -11.0342 N   0  0  0  0  0  0  0  0  0  0  0  0
   18.8214  -22.2919   -9.9790 C   0  0  0  0  0  0  0  0  0  0  0  0
   17.5516  -22.1947   -9.8511 O   0  0  0  0  0  0  0  0  0  0  0  0
   19.6807  -21.5793   -9.0180 C   0  0  0  0  0  0  0  0  0  0  0  0
   21.1363  -21.7298   -9.1669 C   0  0  0  0  0  0  0  0  0  0  0  0
   22.0019  -21.1288   -8.1005 C   0  0  2  0  0  0  0  0  0  0  0  0
   23.4277  -21.3517   -8.5272 N   0  0  0  0  0  0  0  0  0  0  0  0
   21.8364  -21.6872   -6.7592 C   0  0  0  0  0  0  0  0  0  0  0  0
   22.3485  -22.7631   -6.3802 O   0  0  0  0  0  0  0  0  0  0  0  0
   21.0629  -21.0115   -5.7967 O   0  0  0  0  0  0  0  0  0  0  0  0
  2  1  1  6
  2  9  1  0
  2  3  1  0
  3  4  1  0
  4  8  1  0
  5  6  1  0
  5  4  2  0
  6  7  1  0
  7  8  2  0
  9 10  2  0
 11 12  1  0
 11  9  1  0
 13 14  1  0
 12 13  1  1
 14 15  2  0
 16 15  1  0
 17 16  1  0
 18 17  2  0
 19 18  1  0
 20 19  2  0
 20 21  1  0
 21 22  2  0
 22 17  1  0
 22 14  1  0
 23 24  2  0
 23 12  1  0
 25 26  1  0
 26 28  1  0
 26 27  2  0
 28 29  1  0
 30 29  1  6
 30 32  1  0
 30 31  1  0
 31 23  1  0
 32 34  1  0
 33 32  2  0
M  END
$$$$
