HWQ.pdb
     RDKit          3D

 34 36  0  0  1  0  0  0  0  0999 V2000
   25.4095  -21.2358  -14.8315 N   0  0  0  0  0  0  0  0  0  0  0  0
   25.0101  -20.2314  -13.8768 C   0  0  1  0  0  0  0  0  0  0  0  0
   23.7216  -19.5896  -14.2831 C   0  0  0  0  0  0  0  0  0  0  0  0
   23.9339  -18.8779  -15.5700 C   0  0  0  0  0  0  0  0  0  0  0  0
   25.1459  -18.7262  -16.2329 C   0  0  0  0  0  0  0  0  0  0  0  0
   24.9612  -18.0287  -17.3646 N   0  0  0  0  0  0  0  0  0  0  0  0
   23.6553  -17.7347  -17.4329 C   0  0  0  0  0  0  0  0  0  0  0  0
   23.0217  -18.2435  -16.3516 N   0  0  0  0  0  0  0  0  0  0  0  0
   24.9791  -20.7577  -12.4904 C   0  0  0  0  0  0  0  0  0  0  0  0
   24.4133  -21.8663  -12.2959 O   0  0  0  0  0  0  0  0  0  0  0  0
   25.5674  -20.0334  -11.4265 N   0  0  0  0  0  0  0  0  0  0  0  0
   25.3559  -20.4640  -10.0758 C   0  0  1  0  0  0  0  0  0  0  0  0
   26.4987  -19.9357   -9.2561 C   0  0  0  0  0  0  0  0  0  0  0  0
   26.3961  -20.2489   -7.8206 C   0  0  0  0  0  0  0  0  0  0  0  0
   25.3917  -21.0548   -7.2583 C   0  0  0  0  0  0  0  0  0  0  0  0
   25.5896  -21.1741   -5.9404 N   0  0  0  0  0  0  0  0  0  0  0  0
   26.7037  -20.4694   -5.5899 C   0  0  0  0  0  0  0  0  0  0  0  0
   27.3138  -20.2757   -4.3745 C   0  0  0  0  0  0  0  0  0  0  0  0
   28.4393  -19.5050   -4.2760 C   0  0  0  0  0  0  0  0  0  0  0  0
   28.9457  -18.9298   -5.4135 C   0  0  0  0  0  0  0  0  0  0  0  0
   28.3286  -19.1289   -6.6271 C   0  0  0  0  0  0  0  0  0  0  0  0
   27.1919  -19.9011   -6.7662 C   0  0  0  0  0  0  0  0  0  0  0  0
   24.0195  -20.2561   -9.5384 C   0  0  0  0  0  0  0  0  0  0  0  0
   23.5513  -19.0694   -9.6293 O   0  0  0  0  0  0  0  0  0  0  0  0
   21.3248  -21.3716  -12.7395 N   0  0  0  0  0  0  0  0  0  0  0  0
   20.6012  -22.2012  -11.8632 C   0  0  0  0  0  0  0  0  0  0  0  0
   20.0888  -23.2681  -12.3503 O   0  0  0  0  0  0  0  0  0  0  0  0
   20.4076  -21.9198  -10.4303 C   0  0  0  0  0  0  0  0  0  0  0  0
   21.0577  -20.7207   -9.8797 C   0  0  0  0  0  0  0  0  0  0  0  0
   21.7976  -20.8735   -8.5849 C   0  0  2  0  0  0  0  0  0  0  0  0
   23.2163  -21.2292   -8.9392 N   0  0  0  0  0  0  0  0  0  0  0  0
   21.2848  -21.8997   -7.6781 C   0  0  0  0  0  0  0  0  0  0  0  0
   20.2352  -21.7820   -7.0088 O   0  0  0  0  0  0  0  0  0  0  0  0
   21.9772  -23.1138   -7.5117 O   0  0  0  0  0  0  0  0  0  0  0  0
  2  1  1  6
  2  9  1  0
  2  3  1  0
  3  4  1  0
  4  8  1  0
  5  6  1  0
  5  4  2  0
  6  7  1  0
  7  8  2  0
  9 10  2  0
 11 12  1  0
 11  9  1  0
 13 14  1  0
 12 13  1  1
 14 15  2  0
 16 15  1  0
 17 16  1  0
 18 17  2  0
 19 18  1  0
 20 19  2  0
 20 21  1  0
 21 22  2  0
 22 17  1  0
 22 14  1  0
 23 24  2  0
 23 12  1  0
 25 26  1  0
 26 28  1  0
 26 27  2  0
 28 29  1  0
 30 29  1  6
 30 32  1  0
 30 31  1  0
 31 23  1  0
 32 34  1  0
 33 32  2  0
M  END
$$$$
