HWQ.pdb
     RDKit          3D

 34 36  0  0  1  0  0  0  0  0999 V2000
   20.4578  -13.9171  -18.9310 N   0  0  0  0  0  0  0  0  0  0  0  0
   20.8867  -12.5606  -19.1670 C   0  0  1  0  0  0  0  0  0  0  0  0
   20.4464  -12.0873  -20.5158 C   0  0  0  0  0  0  0  0  0  0  0  0
   21.0488  -12.9721  -21.5463 C   0  0  0  0  0  0  0  0  0  0  0  0
   22.3885  -13.0082  -21.9144 C   0  0  0  0  0  0  0  0  0  0  0  0
   22.5717  -13.9278  -22.8747 N   0  0  0  0  0  0  0  0  0  0  0  0
   21.3742  -14.4762  -23.1233 C   0  0  0  0  0  0  0  0  0  0  0  0
   20.4430  -13.9059  -22.3251 N   0  0  0  0  0  0  0  0  0  0  0  0
   20.4769  -11.6457  -18.0737 C   0  0  0  0  0  0  0  0  0  0  0  0
   19.2803  -11.6970  -17.6830 O   0  0  0  0  0  0  0  0  0  0  0  0
   21.4042  -10.7478  -17.4936 N   0  0  0  0  0  0  0  0  0  0  0  0
   20.9691   -9.8474  -16.4668 C   0  0  1  0  0  0  0  0  0  0  0  0
   22.1807   -9.4705  -15.6626 C   0  0  0  0  0  0  0  0  0  0  0  0
   21.9089   -8.4831  -14.6041 C   0  0  0  0  0  0  0  0  0  0  0  0
   21.3630   -8.8015  -13.3491 C   0  0  0  0  0  0  0  0  0  0  0  0
   21.2666   -7.6958  -12.6019 N   0  0  0  0  0  0  0  0  0  0  0  0
   21.7327   -6.6312  -13.3161 C   0  0  0  0  0  0  0  0  0  0  0  0
   21.8382   -5.2985  -13.0004 C   0  0  0  0  0  0  0  0  0  0  0  0
   22.3410   -4.4064  -13.9069 C   0  0  0  0  0  0  0  0  0  0  0  0
   22.7368   -4.8684  -15.1361 C   0  0  0  0  0  0  0  0  0  0  0  0
   22.6279   -6.2050  -15.4445 C   0  0  0  0  0  0  0  0  0  0  0  0
   22.1266   -7.1355  -14.5553 C   0  0  0  0  0  0  0  0  0  0  0  0
   20.1071   -8.7557  -16.8945 C   0  0  0  0  0  0  0  0  0  0  0  0
   20.3941   -8.2146  -18.0173 O   0  0  0  0  0  0  0  0  0  0  0  0
   13.9528   -8.2699  -17.0200 N   0  0  0  0  0  0  0  0  0  0  0  0
   14.3986   -6.9696  -17.3201 C   0  0  0  0  0  0  0  0  0  0  0  0
   13.5151   -6.1069  -17.6570 O   0  0  0  0  0  0  0  0  0  0  0  0
   15.8081   -6.5455  -17.2624 C   0  0  0  0  0  0  0  0  0  0  0  0
   16.8035   -7.5502  -16.8583 C   0  0  0  0  0  0  0  0  0  0  0  0
   18.2347   -7.1095  -16.7869 C   0  0  2  0  0  0  0  0  0  0  0  0
   19.0086   -8.2549  -16.1919 N   0  0  0  0  0  0  0  0  0  0  0  0
   18.4925   -5.9185  -15.9785 C   0  0  0  0  0  0  0  0  0  0  0  0
   18.4743   -4.7510  -16.4257 O   0  0  0  0  0  0  0  0  0  0  0  0
   18.7839   -6.0380  -14.6067 O   0  0  0  0  0  0  0  0  0  0  0  0
  2  1  1  1
  2  9  1  0
  2  3  1  0
  3  4  1  0
  4  8  1  0
  5  6  1  0
  5  4  2  0
  6  7  1  0
  7  8  2  0
  9 10  2  0
 11 12  1  0
 11  9  1  0
 13 14  1  0
 12 13  1  6
 14 15  2  0
 16 15  1  0
 17 16  1  0
 18 17  2  0
 19 18  1  0
 20 19  2  0
 20 21  1  0
 21 22  2  0
 22 17  1  0
 22 14  1  0
 23 24  2  0
 23 12  1  0
 25 26  1  0
 26 28  1  0
 26 27  2  0
 28 29  1  0
 30 29  1  1
 30 32  1  0
 30 31  1  0
 31 23  1  0
 32 34  1  0
 33 32  2  0
M  END
$$$$
