HWQ.pdb
     RDKit          3D

 34 36  0  0  1  0  0  0  0  0999 V2000
   28.2114  -23.1556  -17.2177 N   0  0  0  0  0  0  0  0  0  0  0  0
   27.6121  -21.8988  -16.8422 C   0  0  1  0  0  0  0  0  0  0  0  0
   26.6933  -21.4031  -17.9134 C   0  0  0  0  0  0  0  0  0  0  0  0
   27.5111  -20.9931  -19.0843 C   0  0  0  0  0  0  0  0  0  0  0  0
   27.6156  -21.6750  -20.2907 C   0  0  0  0  0  0  0  0  0  0  0  0
   28.4406  -21.0134  -21.1172 N   0  0  0  0  0  0  0  0  0  0  0  0
   28.8617  -19.9246  -20.4587 C   0  0  0  0  0  0  0  0  0  0  0  0
   28.3059  -19.9005  -19.2259 N   0  0  0  0  0  0  0  0  0  0  0  0
   26.9617  -21.9644  -15.5108 C   0  0  0  0  0  0  0  0  0  0  0  0
   26.1397  -22.8964  -15.3043 O   0  0  0  0  0  0  0  0  0  0  0  0
   27.2592  -21.0085  -14.5106 N   0  0  0  0  0  0  0  0  0  0  0  0
   26.5863  -21.0747  -13.2467 C   0  0  1  0  0  0  0  0  0  0  0  0
   27.3972  -20.2733  -12.2683 C   0  0  0  0  0  0  0  0  0  0  0  0
   26.8063  -20.2050  -10.9209 C   0  0  0  0  0  0  0  0  0  0  0  0
   25.4449  -19.9672  -10.6672 C   0  0  0  0  0  0  0  0  0  0  0  0
   25.2167  -19.9952   -9.3491 N   0  0  0  0  0  0  0  0  0  0  0  0
   26.3887  -20.2456   -8.6975 C   0  0  0  0  0  0  0  0  0  0  0  0
   26.6800  -20.3643   -7.3603 C   0  0  0  0  0  0  0  0  0  0  0  0
   27.9593  -20.6145   -6.9465 C   0  0  0  0  0  0  0  0  0  0  0  0
   28.9442  -20.7438   -7.8922 C   0  0  0  0  0  0  0  0  0  0  0  0
   28.6441  -20.6236   -9.2296 C   0  0  0  0  0  0  0  0  0  0  0  0
   27.3647  -20.3725   -9.6856 C   0  0  0  0  0  0  0  0  0  0  0  0
   25.1541  -20.8178  -13.2687 C   0  0  0  0  0  0  0  0  0  0  0  0
   24.7795  -19.7516  -13.8675 O   0  0  0  0  0  0  0  0  0  0  0  0
   19.6357  -23.6195  -11.1518 N   0  0  0  0  0  0  0  0  0  0  0  0
   19.5085  -23.1870  -12.4847 C   0  0  0  0  0  0  0  0  0  0  0  0
   18.3477  -23.2583  -13.0191 O   0  0  0  0  0  0  0  0  0  0  0  0
   20.6211  -22.6551  -13.2903 C   0  0  0  0  0  0  0  0  0  0  0  0
   21.9286  -22.5120  -12.6320 C   0  0  0  0  0  0  0  0  0  0  0  0
   22.7235  -21.2795  -12.9431 C   0  0  2  0  0  0  0  0  0  0  0  0
   24.1675  -21.6254  -12.6982 N   0  0  0  0  0  0  0  0  0  0  0  0
   22.3982  -20.0969  -12.1470 C   0  0  0  0  0  0  0  0  0  0  0  0
   22.9249  -19.8273  -11.0454 O   0  0  0  0  0  0  0  0  0  0  0  0
   21.4400  -19.1723  -12.6034 O   0  0  0  0  0  0  0  0  0  0  0  0
  2  1  1  6
  2  9  1  0
  2  3  1  0
  3  4  1  0
  4  8  1  0
  5  6  1  0
  5  4  2  0
  6  7  1  0
  7  8  2  0
  9 10  2  0
 11 12  1  0
 11  9  1  0
 13 14  1  0
 12 13  1  1
 14 15  2  0
 16 15  1  0
 17 16  1  0
 18 17  2  0
 19 18  1  0
 20 19  2  0
 20 21  1  0
 21 22  2  0
 22 17  1  0
 22 14  1  0
 23 24  2  0
 23 12  1  0
 25 26  1  0
 26 28  1  0
 26 27  2  0
 28 29  1  0
 30 29  1  1
 30 32  1  0
 30 31  1  0
 31 23  1  0
 32 34  1  0
 33 32  2  0
M  END
$$$$
