HWQ.pdb
     RDKit          3D

 34 36  0  0  1  0  0  0  0  0999 V2000
   29.0518  -22.9622  -16.7037 N   0  0  0  0  0  0  0  0  0  0  0  0
   28.4607  -21.7100  -16.3005 C   0  0  1  0  0  0  0  0  0  0  0  0
   27.6565  -21.1156  -17.4127 C   0  0  0  0  0  0  0  0  0  0  0  0
   28.5836  -20.7061  -18.4992 C   0  0  0  0  0  0  0  0  0  0  0  0
   28.7576  -21.3541  -19.7162 C   0  0  0  0  0  0  0  0  0  0  0  0
   29.6744  -20.7046  -20.4504 N   0  0  0  0  0  0  0  0  0  0  0  0
   30.0857  -19.6567  -19.7229 C   0  0  0  0  0  0  0  0  0  0  0  0
   29.4326  -19.6463  -18.5385 N   0  0  0  0  0  0  0  0  0  0  0  0
   27.6930  -21.8344  -15.0375 C   0  0  0  0  0  0  0  0  0  0  0  0
   26.7914  -22.7125  -14.9826 O   0  0  0  0  0  0  0  0  0  0  0  0
   27.9693  -20.9913  -13.9349 N   0  0  0  0  0  0  0  0  0  0  0  0
   27.1743  -21.0974  -12.7469 C   0  0  1  0  0  0  0  0  0  0  0  0
   27.8701  -20.3092  -11.6739 C   0  0  0  0  0  0  0  0  0  0  0  0
   27.1017  -20.2008  -10.4221 C   0  0  0  0  0  0  0  0  0  0  0  0
   25.7315  -19.8954  -10.3610 C   0  0  0  0  0  0  0  0  0  0  0  0
   25.3212  -19.9009   -9.0875 N   0  0  0  0  0  0  0  0  0  0  0  0
   26.3774  -20.2019   -8.2786 C   0  0  0  0  0  0  0  0  0  0  0  0
   26.4737  -20.3230   -6.9136 C   0  0  0  0  0  0  0  0  0  0  0  0
   27.6693  -20.6310   -6.3251 C   0  0  0  0  0  0  0  0  0  0  0  0
   28.7686  -20.8159   -7.1240 C   0  0  0  0  0  0  0  0  0  0  0  0
   28.6637  -20.6929   -8.4905 C   0  0  0  0  0  0  0  0  0  0  0  0
   27.4740  -20.3844   -9.1207 C   0  0  0  0  0  0  0  0  0  0  0  0
   25.7476  -20.8593  -12.9071 C   0  0  0  0  0  0  0  0  0  0  0  0
   25.4188  -19.8274  -13.5874 O   0  0  0  0  0  0  0  0  0  0  0  0
   22.1721  -25.3170  -14.9028 N   0  0  0  0  0  0  0  0  0  0  0  0
   21.2843  -24.2325  -14.7786 C   0  0  0  0  0  0  0  0  0  0  0  0
   20.0927  -24.3932  -15.2175 O   0  0  0  0  0  0  0  0  0  0  0  0
   21.6407  -22.9383  -14.1721 C   0  0  0  0  0  0  0  0  0  0  0  0
   22.9910  -22.8032  -13.6044 C   0  0  0  0  0  0  0  0  0  0  0  0
   23.3355  -21.4971  -12.9541 C   0  0  2  0  0  0  0  0  0  0  0  0
   24.7209  -21.6509  -12.3869 N   0  0  0  0  0  0  0  0  0  0  0  0
   22.4467  -21.0723  -11.8734 C   0  0  0  0  0  0  0  0  0  0  0  0
   21.4190  -20.3803  -12.0427 O   0  0  0  0  0  0  0  0  0  0  0  0
   22.7189  -21.4379  -10.5417 O   0  0  0  0  0  0  0  0  0  0  0  0
  2  1  1  6
  2  9  1  0
  2  3  1  0
  3  4  1  0
  4  8  1  0
  5  6  1  0
  5  4  2  0
  6  7  1  0
  7  8  2  0
  9 10  2  0
 11 12  1  0
 11  9  1  0
 13 14  1  0
 12 13  1  1
 14 15  2  0
 16 15  1  0
 17 16  1  0
 18 17  2  0
 19 18  1  0
 20 19  2  0
 20 21  1  0
 21 22  2  0
 22 17  1  0
 22 14  1  0
 23 24  2  0
 23 12  1  0
 25 26  1  0
 26 28  1  0
 26 27  2  0
 28 29  1  0
 30 29  1  1
 30 32  1  0
 30 31  1  0
 31 23  1  0
 32 34  1  0
 33 32  2  0
M  END
$$$$
