EPH.pdb
     RDKit          3D

 27 28  0  0  1  0  0  0  0  0999 V2000
   27.7894  -20.9209  -16.3528 N   0  0  0  0  0  0  0  0  0  0  0  0
   27.4318  -20.5782  -15.0240 C   0  0  1  0  0  0  0  0  0  0  0  0
   27.4035  -19.0530  -14.8261 C   0  0  0  0  0  0  0  0  0  0  0  0
   26.5035  -18.3915  -15.8527 C   0  0  0  0  0  0  0  0  0  0  0  0
   27.2466  -18.0438  -17.0744 C   0  0  0  0  0  0  0  0  0  0  0  0
   28.4435  -17.6458  -17.0710 O   0  0  0  0  0  0  0  0  0  0  0  0
   26.1316  -21.0636  -14.5437 C   0  0  0  0  0  0  0  0  0  0  0  0
   25.4020  -21.5967  -15.4734 O   0  0  0  0  0  0  0  0  0  0  0  0
   26.6032  -18.1572  -18.2976 O   0  0  0  0  0  0  0  0  0  0  0  0
   25.6740  -20.9857  -13.2250 N   0  0  0  0  0  0  0  0  0  0  0  0
   26.3702  -20.2239  -12.2036 C   0  0  0  0  0  0  0  0  0  0  0  0
   26.0925  -20.9857  -10.9402 C   0  0  0  0  0  0  0  0  0  0  0  0
   25.1135  -22.0714  -11.2857 C   0  0  0  0  0  0  0  0  0  0  0  0
   24.5284  -21.5447  -12.6103 C   0  0  1  0  0  0  0  0  0  0  0  0
   23.5378  -20.4609  -12.3612 C   0  0  0  0  0  0  0  0  0  0  0  0
   23.8761  -19.3888  -11.8017 O   0  0  0  0  0  0  0  0  0  0  0  0
   22.1704  -20.5752  -12.7374 N   0  0  0  0  0  0  0  0  0  0  0  0
   21.2199  -19.4774  -12.5959 C   0  0  1  0  0  0  0  0  0  0  0  0
   21.5565  -18.3309  -13.4829 C   0  0  0  0  0  0  0  0  0  0  0  0
   21.7101  -18.7763  -14.8772 C   0  0  0  0  0  0  0  0  0  0  0  0
   21.6865  -20.0956  -15.3170 C   0  0  0  0  0  0  0  0  0  0  0  0
   21.8577  -20.1303  -16.6510 N   0  0  0  0  0  0  0  0  0  0  0  0
   21.9878  -18.8627  -17.0564 C   0  0  0  0  0  0  0  0  0  0  0  0
   21.8988  -18.0536  -15.9902 N   0  0  0  0  0  0  0  0  0  0  0  0
   19.8632  -19.9745  -12.9066 C   0  0  0  0  0  0  0  0  0  0  0  0
   19.7747  -21.1815  -13.3256 O   0  0  0  0  0  0  0  0  0  0  0  0
   18.6973  -19.2326  -12.7749 O   0  0  0  0  0  0  0  0  0  0  0  0
  2  1  1  6
  2  7  1  0
  3  2  1  0
  4  3  1  0
  5  6  2  0
  5  4  1  0
  7  8  2  0
  7 10  1  0
  9  5  1  0
 10 14  1  0
 10 11  1  0
 11 12  1  0
 13 12  1  0
 14 13  1  0
 14 15  1  1
 16 15  2  0
 17 15  1  0
 18 19  1  6
 18 17  1  0
 20 19  1  0
 21 20  2  0
 22 23  1  0
 22 21  1  0
 23 24  2  0
 24 20  1  0
 25 18  1  0
 26 25  2  0
 27 25  1  0
M  END
$$$$
