EPH.pdb
     RDKit          3D

 27 28  0  0  1  0  0  0  0  0999 V2000
   28.2183  -21.4266  -15.6177 N   0  0  0  0  0  0  0  0  0  0  0  0
   27.4787  -20.7181  -14.6367 C   0  0  1  0  0  0  0  0  0  0  0  0
   27.0803  -19.3188  -15.1364 C   0  0  0  0  0  0  0  0  0  0  0  0
   28.2810  -18.5857  -15.7041 C   0  0  0  0  0  0  0  0  0  0  0  0
   28.0649  -18.2083  -17.1100 C   0  0  0  0  0  0  0  0  0  0  0  0
   28.9413  -18.3385  -18.0078 O   0  0  0  0  0  0  0  0  0  0  0  0
   26.2332  -21.3411  -14.1707 C   0  0  0  0  0  0  0  0  0  0  0  0
   25.7906  -22.2688  -14.9610 O   0  0  0  0  0  0  0  0  0  0  0  0
   26.8351  -17.6809  -17.4743 O   0  0  0  0  0  0  0  0  0  0  0  0
   25.5493  -21.0075  -12.9978 N   0  0  0  0  0  0  0  0  0  0  0  0
   25.9512  -19.8981  -12.1516 C   0  0  0  0  0  0  0  0  0  0  0  0
   25.5647  -20.3450  -10.7716 C   0  0  0  0  0  0  0  0  0  0  0  0
   24.8137  -21.6374  -10.9204 C   0  0  0  0  0  0  0  0  0  0  0  0
   24.4002  -21.5813  -12.4037 C   0  0  1  0  0  0  0  0  0  0  0  0
   23.2457  -20.6612  -12.6001 C   0  0  0  0  0  0  0  0  0  0  0  0
   23.3916  -19.4154  -12.5417 O   0  0  0  0  0  0  0  0  0  0  0  0
   21.9292  -21.1334  -12.8617 N   0  0  0  0  0  0  0  0  0  0  0  0
   20.9187  -20.3200  -13.5294 C   0  0  1  0  0  0  0  0  0  0  0  0
   20.8365  -20.6175  -14.9852 C   0  0  0  0  0  0  0  0  0  0  0  0
   21.9415  -19.9736  -15.7135 C   0  0  0  0  0  0  0  0  0  0  0  0
   22.3304  -18.6437  -15.5916 C   0  0  0  0  0  0  0  0  0  0  0  0
   23.3741  -18.4019  -16.4053 N   0  0  0  0  0  0  0  0  0  0  0  0
   23.6476  -19.5501  -17.0339 C   0  0  0  0  0  0  0  0  0  0  0  0
   22.7866  -20.4903  -16.6165 N   0  0  0  0  0  0  0  0  0  0  0  0
   19.6084  -20.5624  -12.8899 C   0  0  0  0  0  0  0  0  0  0  0  0
   19.4883  -21.6453  -12.2169 O   0  0  0  0  0  0  0  0  0  0  0  0
   18.5177  -19.7071  -12.9678 O   0  0  0  0  0  0  0  0  0  0  0  0
  2  1  1  6
  2  7  1  0
  3  2  1  0
  4  3  1  0
  5  6  2  0
  5  4  1  0
  7  8  2  0
  7 10  1  0
  9  5  1  0
 10 14  1  0
 10 11  1  0
 11 12  1  0
 13 12  1  0
 14 13  1  0
 14 15  1  1
 16 15  2  0
 17 15  1  0
 18 19  1  6
 18 17  1  0
 20 19  1  0
 21 20  2  0
 22 23  1  0
 22 21  1  0
 23 24  2  0
 24 20  1  0
 25 18  1  0
 26 25  2  0
 27 25  1  0
M  END
$$$$
