EPH.pdb
     RDKit          3D

 27 28  0  0  1  0  0  0  0  0999 V2000
   21.3823  -12.5351  -19.1563 N   0  0  0  0  0  0  0  0  0  0  0  0
   21.5424  -11.1391  -18.9648 C   0  0  1  0  0  0  0  0  0  0  0  0
   20.8072  -10.3358  -20.0513 C   0  0  0  0  0  0  0  0  0  0  0  0
   19.3402  -10.7184  -20.1066 C   0  0  0  0  0  0  0  0  0  0  0  0
   18.6207   -9.9433  -21.1299 C   0  0  0  0  0  0  0  0  0  0  0  0
   18.6230  -10.2392  -22.3560 O   0  0  0  0  0  0  0  0  0  0  0  0
   21.0776  -10.5903  -17.6845 C   0  0  0  0  0  0  0  0  0  0  0  0
   20.2603  -11.3728  -17.0514 O   0  0  0  0  0  0  0  0  0  0  0  0
   17.8999   -8.8273  -20.7323 O   0  0  0  0  0  0  0  0  0  0  0  0
   21.4479   -9.3522  -17.1509 N   0  0  0  0  0  0  0  0  0  0  0  0
   22.2130   -8.3768  -17.9068 C   0  0  0  0  0  0  0  0  0  0  0  0
   23.0230   -7.6703  -16.8587 C   0  0  0  0  0  0  0  0  0  0  0  0
   22.5599   -8.1813  -15.5242 C   0  0  0  0  0  0  0  0  0  0  0  0
   21.1850   -8.7760  -15.8853 C   0  0  1  0  0  0  0  0  0  0  0  0
   20.1662   -7.7019  -16.0470 C   0  0  0  0  0  0  0  0  0  0  0  0
   19.8743   -7.2500  -17.1816 O   0  0  0  0  0  0  0  0  0  0  0  0
   19.4741   -7.1336  -14.9414 N   0  0  0  0  0  0  0  0  0  0  0  0
   18.0186   -7.1307  -14.8402 C   0  0  1  0  0  0  0  0  0  0  0  0
   17.4604   -8.5094  -14.7939 C   0  0  0  0  0  0  0  0  0  0  0  0
   15.9897   -8.4764  -14.7475 C   0  0  0  0  0  0  0  0  0  0  0  0
   15.1984   -7.3358  -14.8344 C   0  0  0  0  0  0  0  0  0  0  0  0
   13.9001   -7.6796  -14.7561 N   0  0  0  0  0  0  0  0  0  0  0  0
   13.8605   -9.0096  -14.6222 C   0  0  0  0  0  0  0  0  0  0  0  0
   15.1153   -9.4839  -14.6175 N   0  0  0  0  0  0  0  0  0  0  0  0
   17.6237   -6.3852  -13.6266 C   0  0  0  0  0  0  0  0  0  0  0  0
   18.2411   -6.6799  -12.5439 O   0  0  0  0  0  0  0  0  0  0  0  0
   16.6450   -5.4016  -13.5835 O   0  0  0  0  0  0  0  0  0  0  0  0
  2  1  1  1
  2  7  1  0
  3  2  1  0
  4  3  1  0
  5  6  2  0
  5  4  1  0
  7  8  2  0
  7 10  1  0
  9  5  1  0
 10 14  1  0
 10 11  1  0
 11 12  1  0
 13 12  1  0
 14 13  1  0
 14 15  1  6
 16 15  2  0
 17 15  1  0
 18 19  1  1
 18 17  1  0
 20 19  1  0
 21 20  2  0
 22 23  1  0
 22 21  1  0
 23 24  2  0
 24 20  1  0
 25 18  1  0
 26 25  2  0
 27 25  1  0
M  END
$$$$
