EPH.pdb
     RDKit          3D

 27 28  0  0  1  0  0  0  0  0999 V2000
   10.4588  -14.4289    1.7335 N   0  0  0  0  0  0  0  0  0  0  0  0
   10.8655  -15.0757    2.9282 C   0  0  1  0  0  0  0  0  0  0  0  0
    9.7588  -15.9944    3.4737 C   0  0  0  0  0  0  0  0  0  0  0  0
    8.4640  -15.2270    3.6630 C   0  0  0  0  0  0  0  0  0  0  0  0
    7.3574  -16.1232    4.0346 C   0  0  0  0  0  0  0  0  0  0  0  0
    7.4473  -17.0037    4.9333 O   0  0  0  0  0  0  0  0  0  0  0  0
   12.0705  -15.9114    2.8497 C   0  0  0  0  0  0  0  0  0  0  0  0
   12.5349  -16.0393    1.6460 O   0  0  0  0  0  0  0  0  0  0  0  0
    6.1491  -15.9987    3.3655 O   0  0  0  0  0  0  0  0  0  0  0  0
   12.6988  -16.5319    3.9337 N   0  0  0  0  0  0  0  0  0  0  0  0
   12.1467  -16.4985    5.2762 C   0  0  0  0  0  0  0  0  0  0  0  0
   13.3597  -16.5201    6.1603 C   0  0  0  0  0  0  0  0  0  0  0  0
   14.5520  -16.7215    5.2690 C   0  0  0  0  0  0  0  0  0  0  0  0
   13.8910  -17.2914    3.9991 C   0  0  1  0  0  0  0  0  0  0  0  0
   13.5386  -18.7269    4.1807 C   0  0  0  0  0  0  0  0  0  0  0  0
   12.4027  -19.0692    4.5923 O   0  0  0  0  0  0  0  0  0  0  0  0
   14.4551  -19.7791    3.9023 N   0  0  0  0  0  0  0  0  0  0  0  0
   14.2415  -20.7474    2.8322 C   0  0  1  0  0  0  0  0  0  0  0  0
   14.1879  -20.0972    1.4946 C   0  0  0  0  0  0  0  0  0  0  0  0
   13.8624  -21.0799    0.4485 C   0  0  0  0  0  0  0  0  0  0  0  0
   12.7195  -21.8713    0.4031 C   0  0  0  0  0  0  0  0  0  0  0  0
   12.7537  -22.6518   -0.6922 N   0  0  0  0  0  0  0  0  0  0  0  0
   13.8920  -22.3670   -1.3337 C   0  0  0  0  0  0  0  0  0  0  0  0
   14.5542  -21.4240   -0.6468 N   0  0  0  0  0  0  0  0  0  0  0  0
   15.3304  -21.7462    2.8646 C   0  0  0  0  0  0  0  0  0  0  0  0
   16.5138  -21.3008    3.0684 O   0  0  0  0  0  0  0  0  0  0  0  0
   15.1582  -23.1130    2.6932 O   0  0  0  0  0  0  0  0  0  0  0  0
  2  1  1  6
  2  7  1  0
  3  2  1  0
  4  3  1  0
  5  6  2  0
  5  4  1  0
  7  8  2  0
  7 10  1  0
  9  5  1  0
 10 14  1  0
 10 11  1  0
 11 12  1  0
 13 12  1  0
 14 13  1  0
 14 15  1  1
 16 15  2  0
 17 15  1  0
 18 19  1  6
 18 17  1  0
 20 19  1  0
 21 20  2  0
 22 23  1  0
 22 21  1  0
 23 24  2  0
 24 20  1  0
 25 18  1  0
 26 25  2  0
 27 25  1  0
M  END
$$$$
