EPH.pdb
     RDKit          3D

 27 28  0  0  1  0  0  0  0  0999 V2000
   45.0447  -13.0210   -8.3716 N   0  0  0  0  0  0  0  0  0  0  0  0
   45.3501  -11.9207   -7.5305 C   0  0  1  0  0  0  0  0  0  0  0  0
   46.3398  -10.9560   -8.2057 C   0  0  0  0  0  0  0  0  0  0  0  0
   47.4729  -11.7189   -8.8658 C   0  0  0  0  0  0  0  0  0  0  0  0
   48.4014  -10.8104   -9.5574 C   0  0  0  0  0  0  0  0  0  0  0  0
   49.0176  -11.1180  -10.6141 O   0  0  0  0  0  0  0  0  0  0  0  0
   44.2211  -11.0885   -7.0953 C   0  0  0  0  0  0  0  0  0  0  0  0
   43.1713  -11.2051   -7.8473 O   0  0  0  0  0  0  0  0  0  0  0  0
   48.6149   -9.5479   -9.0248 O   0  0  0  0  0  0  0  0  0  0  0  0
   44.2217  -10.2367   -5.9866 N   0  0  0  0  0  0  0  0  0  0  0  0
   45.4268   -9.9436   -5.2315 C   0  0  0  0  0  0  0  0  0  0  0  0
   44.9266   -9.7286   -3.8325 C   0  0  0  0  0  0  0  0  0  0  0  0
   43.4259   -9.7597   -3.8908 C   0  0  0  0  0  0  0  0  0  0  0  0
   43.1729   -9.4988   -5.3882 C   0  0  1  0  0  0  0  0  0  0  0  0
   43.3509   -8.0567   -5.7148 C   0  0  0  0  0  0  0  0  0  0  0  0
   44.4949   -7.5443   -5.7877 O   0  0  0  0  0  0  0  0  0  0  0  0
   42.2509   -7.1882   -5.9601 N   0  0  0  0  0  0  0  0  0  0  0  0
   42.4203   -5.8045   -6.3903 C   0  0  1  0  0  0  0  0  0  0  0  0
   41.2173   -5.2899   -7.0993 C   0  0  0  0  0  0  0  0  0  0  0  0
   41.0800   -5.9215   -8.4216 C   0  0  0  0  0  0  0  0  0  0  0  0
   41.9684   -6.8318   -8.9845 C   0  0  0  0  0  0  0  0  0  0  0  0
   41.5277   -7.1996  -10.2013 N   0  0  0  0  0  0  0  0  0  0  0  0
   40.3837   -6.5405  -10.4129 C   0  0  0  0  0  0  0  0  0  0  0  0
   40.1184   -5.7750   -9.3437 N   0  0  0  0  0  0  0  0  0  0  0  0
   42.7061   -4.9659   -5.2072 C   0  0  0  0  0  0  0  0  0  0  0  0
   43.0132   -3.7426   -5.4298 O   0  0  0  0  0  0  0  0  0  0  0  0
   42.6627   -5.4086   -3.8922 O   0  0  0  0  0  0  0  0  0  0  0  0
  2  1  1  6
  2  7  1  0
  3  2  1  0
  4  3  1  0
  5  6  2  0
  5  4  1  0
  7  8  2  0
  7 10  1  0
  9  5  1  0
 10 14  1  0
 10 11  1  0
 11 12  1  0
 13 12  1  0
 14 13  1  0
 14 15  1  1
 16 15  2  0
 17 15  1  0
 18 19  1  1
 18 17  1  0
 20 19  1  0
 21 20  2  0
 22 23  1  0
 22 21  1  0
 23 24  2  0
 24 20  1  0
 25 18  1  0
 26 25  2  0
 27 25  1  0
M  END
$$$$
