EPH.pdb
     RDKit          3D

 27 28  0  0  1  0  0  0  0  0999 V2000
   19.0969  -10.7638  -14.3280 N   0  0  0  0  0  0  0  0  0  0  0  0
   19.1017   -9.3481  -14.4100 C   0  0  1  0  0  0  0  0  0  0  0  0
   17.8229   -8.8207  -15.0829 C   0  0  0  0  0  0  0  0  0  0  0  0
   17.6391   -9.4410  -16.4551 C   0  0  0  0  0  0  0  0  0  0  0  0
   16.4134   -8.9519  -17.1063 C   0  0  0  0  0  0  0  0  0  0  0  0
   16.1089   -7.7306  -17.1880 O   0  0  0  0  0  0  0  0  0  0  0  0
   19.2141   -8.6133  -13.1435 C   0  0  0  0  0  0  0  0  0  0  0  0
   18.9041   -9.3228  -12.1036 O   0  0  0  0  0  0  0  0  0  0  0  0
   15.5423   -9.8771  -17.6617 O   0  0  0  0  0  0  0  0  0  0  0  0
   19.6123   -7.2795  -13.0126 N   0  0  0  0  0  0  0  0  0  0  0  0
   19.8764   -6.4302  -14.1603 C   0  0  0  0  0  0  0  0  0  0  0  0
   20.9477   -5.4979  -13.6740 C   0  0  0  0  0  0  0  0  0  0  0  0
   21.1345   -5.7666  -12.2079 C   0  0  0  0  0  0  0  0  0  0  0  0
   19.8171   -6.4857  -11.8591 C   0  0  1  0  0  0  0  0  0  0  0  0
   18.6957   -5.5134  -11.7378 C   0  0  0  0  0  0  0  0  0  0  0  0
   18.1518   -5.0199  -12.7563 O   0  0  0  0  0  0  0  0  0  0  0  0
   18.1824   -5.0932  -10.4790 N   0  0  0  0  0  0  0  0  0  0  0  0
   16.9320   -4.3535  -10.3452 C   0  0  1  0  0  0  0  0  0  0  0  0
   16.2436   -4.6504   -9.0597 C   0  0  0  0  0  0  0  0  0  0  0  0
   15.7392   -6.0329   -9.0441 C   0  0  0  0  0  0  0  0  0  0  0  0
   14.7989   -6.5658   -9.9196 C   0  0  0  0  0  0  0  0  0  0  0  0
   14.5756   -7.8563   -9.6121 N   0  0  0  0  0  0  0  0  0  0  0  0
   15.3547   -8.1437   -8.5639 C   0  0  0  0  0  0  0  0  0  0  0  0
   16.0510   -7.0480   -8.2261 N   0  0  0  0  0  0  0  0  0  0  0  0
   17.2177   -2.9067  -10.4424 C   0  0  0  0  0  0  0  0  0  0  0  0
   18.4484   -2.5578  -10.3796 O   0  0  0  0  0  0  0  0  0  0  0  0
   16.2563   -1.9171  -10.5963 O   0  0  0  0  0  0  0  0  0  0  0  0
  2  1  1  1
  2  7  1  0
  3  2  1  0
  4  3  1  0
  5  6  2  0
  5  4  1  0
  7  8  2  0
  7 10  1  0
  9  5  1  0
 10 14  1  0
 10 11  1  0
 11 12  1  0
 13 12  1  0
 14 13  1  0
 14 15  1  6
 16 15  2  0
 17 15  1  0
 18 19  1  1
 18 17  1  0
 20 19  1  0
 21 20  2  0
 22 23  1  0
 22 21  1  0
 23 24  2  0
 24 20  1  0
 25 18  1  0
 26 25  2  0
 27 25  1  0
M  END
$$$$
