EPH.pdb
     RDKit          3D

 27 28  0  0  1  0  0  0  0  0999 V2000
   23.5494  -14.4418  -17.8290 N   0  0  0  0  0  0  0  0  0  0  0  0
   23.8891  -13.0668  -17.9004 C   0  0  1  0  0  0  0  0  0  0  0  0
   23.1051  -12.3522  -19.0146 C   0  0  0  0  0  0  0  0  0  0  0  0
   23.3403  -13.0217  -20.3554 C   0  0  0  0  0  0  0  0  0  0  0  0
   22.6415  -12.3135  -21.4397 C   0  0  0  0  0  0  0  0  0  0  0  0
   22.9173  -11.1338  -21.7910 O   0  0  0  0  0  0  0  0  0  0  0  0
   23.6695  -12.2682  -16.6877 C   0  0  0  0  0  0  0  0  0  0  0  0
   22.7705  -12.7644  -15.8962 O   0  0  0  0  0  0  0  0  0  0  0  0
   21.6250  -12.9717  -22.1155 O   0  0  0  0  0  0  0  0  0  0  0  0
   24.3365  -11.0822  -16.3662 N   0  0  0  0  0  0  0  0  0  0  0  0
   25.3213  -10.4801  -17.2471 C   0  0  0  0  0  0  0  0  0  0  0  0
   26.2811   -9.8134  -16.3049 C   0  0  0  0  0  0  0  0  0  0  0  0
   25.7043   -9.9410  -14.9238 C   0  0  0  0  0  0  0  0  0  0  0  0
   24.2248  -10.2367  -15.2370 C   0  0  1  0  0  0  0  0  0  0  0  0
   23.5061   -8.9943  -15.6343 C   0  0  0  0  0  0  0  0  0  0  0  0
   23.7326   -8.4383  -16.7372 O   0  0  0  0  0  0  0  0  0  0  0  0
   22.5349   -8.3742  -14.7997 N   0  0  0  0  0  0  0  0  0  0  0  0
   21.5597   -7.4139  -15.3051 C   0  0  1  0  0  0  0  0  0  0  0  0
   20.1786   -7.7300  -14.8498 C   0  0  0  0  0  0  0  0  0  0  0  0
   19.2179   -6.7445  -15.3714 C   0  0  0  0  0  0  0  0  0  0  0  0
   19.5276   -5.6550  -16.1785 C   0  0  0  0  0  0  0  0  0  0  0  0
   18.4050   -4.9706  -16.4639 N   0  0  0  0  0  0  0  0  0  0  0  0
   17.3995   -5.6069  -15.8538 C   0  0  0  0  0  0  0  0  0  0  0  0
   17.8907   -6.6701  -15.1997 N   0  0  0  0  0  0  0  0  0  0  0  0
   21.9421   -6.0593  -14.8541 C   0  0  0  0  0  0  0  0  0  0  0  0
   21.2833   -5.0800  -15.3513 O   0  0  0  0  0  0  0  0  0  0  0  0
   22.9505   -5.7828  -13.9409 O   0  0  0  0  0  0  0  0  0  0  0  0
  2  1  1  1
  2  7  1  0
  3  2  1  0
  4  3  1  0
  5  6  2  0
  5  4  1  0
  7  8  2  0
  7 10  1  0
  9  5  1  0
 10 14  1  0
 10 11  1  0
 11 12  1  0
 13 12  1  0
 14 13  1  0
 14 15  1  6
 16 15  2  0
 17 15  1  0
 18 19  1  1
 18 17  1  0
 20 19  1  0
 21 20  2  0
 22 23  1  0
 22 21  1  0
 23 24  2  0
 24 20  1  0
 25 18  1  0
 26 25  2  0
 27 25  1  0
M  END
$$$$
