EPH.pdb
     RDKit          3D

 27 28  0  0  1  0  0  0  0  0999 V2000
   42.5084   -9.2618   -5.9211 N   0  0  0  0  0  0  0  0  0  0  0  0
   41.8142   -9.0428   -7.1382 C   0  0  1  0  0  0  0  0  0  0  0  0
   40.3958   -9.6364   -7.0898 C   0  0  0  0  0  0  0  0  0  0  0  0
   40.4463  -11.1472   -6.9623 C   0  0  0  0  0  0  0  0  0  0  0  0
   39.1014  -11.7388   -7.0441 C   0  0  0  0  0  0  0  0  0  0  0  0
   38.4250  -12.0713   -6.0327 O   0  0  0  0  0  0  0  0  0  0  0  0
   41.6444   -7.6464   -7.5599 C   0  0  0  0  0  0  0  0  0  0  0  0
   41.7702   -6.7937   -6.5913 O   0  0  0  0  0  0  0  0  0  0  0  0
   38.5417  -11.9445   -8.2962 O   0  0  0  0  0  0  0  0  0  0  0  0
   41.3738   -7.2205   -8.8637 N   0  0  0  0  0  0  0  0  0  0  0  0
   41.1504   -8.1512   -9.9556 C   0  0  0  0  0  0  0  0  0  0  0  0
   41.6792   -7.4234  -11.1574 C   0  0  0  0  0  0  0  0  0  0  0  0
   42.0423   -6.0365  -10.7090 C   0  0  0  0  0  0  0  0  0  0  0  0
   41.2374   -5.9181   -9.4003 C   0  0  1  0  0  0  0  0  0  0  0  0
   39.7978   -5.6613   -9.6821 C   0  0  0  0  0  0  0  0  0  0  0  0
   39.0665   -6.5498  -10.1847 O   0  0  0  0  0  0  0  0  0  0  0  0
   39.1760   -4.4126   -9.4021 N   0  0  0  0  0  0  0  0  0  0  0  0
   37.7331   -4.2144   -9.4864 C   0  0  1  0  0  0  0  0  0  0  0  0
   37.2302   -3.3151   -8.4127 C   0  0  0  0  0  0  0  0  0  0  0  0
   37.1341   -4.0334   -7.1318 C   0  0  0  0  0  0  0  0  0  0  0  0
   37.3557   -5.3936   -6.9432 C   0  0  0  0  0  0  0  0  0  0  0  0
   37.1798   -5.7044   -5.6461 N   0  0  0  0  0  0  0  0  0  0  0  0
   36.8532   -4.5698   -5.0182 C   0  0  0  0  0  0  0  0  0  0  0  0
   36.8268   -3.5700   -5.9122 N   0  0  0  0  0  0  0  0  0  0  0  0
   37.4029   -3.6511  -10.8124 C   0  0  0  0  0  0  0  0  0  0  0  0
   38.3896   -3.3160  -11.5570 O   0  0  0  0  0  0  0  0  0  0  0  0
   36.1153   -3.4658  -11.2970 O   0  0  0  0  0  0  0  0  0  0  0  0
  2  1  1  1
  2  7  1  0
  3  2  1  0
  4  3  1  0
  5  6  2  0
  5  4  1  0
  7  8  2  0
  7 10  1  0
  9  5  1  0
 10 14  1  0
 10 11  1  0
 11 12  1  0
 13 12  1  0
 14 13  1  0
 14 15  1  6
 16 15  2  0
 17 15  1  0
 18 19  1  1
 18 17  1  0
 20 19  1  0
 21 20  2  0
 22 23  1  0
 22 21  1  0
 23 24  2  0
 24 20  1  0
 25 18  1  0
 26 25  2  0
 27 25  1  0
M  END
$$$$
