EPH.pdb
     RDKit          3D

 27 28  0  0  1  0  0  0  0  0999 V2000
   20.4573  -13.6225  -16.5325 N   0  0  0  0  0  0  0  0  0  0  0  0
   21.4593  -12.6506  -16.7827 C   0  0  1  0  0  0  0  0  0  0  0  0
   21.1777  -11.8758  -18.0814 C   0  0  0  0  0  0  0  0  0  0  0  0
   21.0193  -12.8256  -19.2537 C   0  0  0  0  0  0  0  0  0  0  0  0
   20.6306  -12.1080  -20.4782 C   0  0  0  0  0  0  0  0  0  0  0  0
   20.5079  -10.8541  -20.5404 O   0  0  0  0  0  0  0  0  0  0  0  0
   21.6610  -11.6282  -15.7480 C   0  0  0  0  0  0  0  0  0  0  0  0
   20.7024  -11.5768  -14.8765 O   0  0  0  0  0  0  0  0  0  0  0  0
   20.3846  -12.8426  -21.6285 O   0  0  0  0  0  0  0  0  0  0  0  0
   22.7597  -10.7680  -15.6615 N   0  0  0  0  0  0  0  0  0  0  0  0
   23.8178  -10.7551  -16.6558 C   0  0  0  0  0  0  0  0  0  0  0  0
   25.0404  -10.3802  -15.8695 C   0  0  0  0  0  0  0  0  0  0  0  0
   24.5847  -10.0450  -14.4780 C   0  0  0  0  0  0  0  0  0  0  0  0
   23.0841   -9.7774  -14.7043 C   0  0  1  0  0  0  0  0  0  0  0  0
   22.8683   -8.4338  -15.3091 C   0  0  0  0  0  0  0  0  0  0  0  0
   23.2104   -8.1926  -16.4930 O   0  0  0  0  0  0  0  0  0  0  0  0
   22.2702   -7.3607  -14.5914 N   0  0  0  0  0  0  0  0  0  0  0  0
   21.8307   -6.1287  -15.2376 C   0  0  1  0  0  0  0  0  0  0  0  0
   20.3549   -5.9542  -15.1596 C   0  0  0  0  0  0  0  0  0  0  0  0
   19.6622   -7.0320  -15.8839 C   0  0  0  0  0  0  0  0  0  0  0  0
   19.0097   -8.1141  -15.3026 C   0  0  0  0  0  0  0  0  0  0  0  0
   18.4913   -8.8989  -16.2645 N   0  0  0  0  0  0  0  0  0  0  0  0
   18.8043   -8.3328  -17.4349 C   0  0  0  0  0  0  0  0  0  0  0  0
   19.5064   -7.2135  -17.2027 N   0  0  0  0  0  0  0  0  0  0  0  0
   22.5091   -4.9825  -14.5969 C   0  0  0  0  0  0  0  0  0  0  0  0
   22.2969   -3.8283  -15.1099 O   0  0  0  0  0  0  0  0  0  0  0  0
   23.3460   -5.0723  -13.4930 O   0  0  0  0  0  0  0  0  0  0  0  0
  2  1  1  1
  2  7  1  0
  3  2  1  0
  4  3  1  0
  5  6  2  0
  5  4  1  0
  7  8  2  0
  7 10  1  0
  9  5  1  0
 10 14  1  0
 10 11  1  0
 11 12  1  0
 13 12  1  0
 14 13  1  0
 14 15  1  6
 16 15  2  0
 17 15  1  0
 18 19  1  1
 18 17  1  0
 20 19  1  0
 21 20  2  0
 22 23  1  0
 22 21  1  0
 23 24  2  0
 24 20  1  0
 25 18  1  0
 26 25  2  0
 27 25  1  0
M  END
$$$$
