EPH.pdb
     RDKit          3D

 27 28  0  0  1  0  0  0  0  0999 V2000
   25.7847  -21.2550  -10.6948 N   0  0  0  0  0  0  0  0  0  0  0  0
   25.9122  -21.1764  -12.1050 C   0  0  1  0  0  0  0  0  0  0  0  0
   25.0674  -22.2542  -12.8057 C   0  0  0  0  0  0  0  0  0  0  0  0
   25.9323  -23.1217  -13.7005 C   0  0  0  0  0  0  0  0  0  0  0  0
   25.7815  -22.7512  -15.1167 C   0  0  0  0  0  0  0  0  0  0  0  0
   24.6649  -22.5521  -15.6685 O   0  0  0  0  0  0  0  0  0  0  0  0
   25.5311  -19.9048  -12.7330 C   0  0  0  0  0  0  0  0  0  0  0  0
   24.6141  -19.2597  -12.0819 O   0  0  0  0  0  0  0  0  0  0  0  0
   26.9231  -22.6119  -15.8917 O   0  0  0  0  0  0  0  0  0  0  0  0
   26.0714  -19.3906  -13.9155 N   0  0  0  0  0  0  0  0  0  0  0  0
   26.9820  -20.1530  -14.7508 C   0  0  0  0  0  0  0  0  0  0  0  0
   27.8719  -19.1059  -15.3551 C   0  0  0  0  0  0  0  0  0  0  0  0
   27.3200  -17.7694  -14.9481 C   0  0  0  0  0  0  0  0  0  0  0  0
   25.8780  -18.1420  -14.5529 C   0  0  1  0  0  0  0  0  0  0  0  0
   25.0302  -18.3436  -15.7606 C   0  0  0  0  0  0  0  0  0  0  0  0
   24.9574  -19.4641  -16.3225 O   0  0  0  0  0  0  0  0  0  0  0  0
   24.2642  -17.2935  -16.3394 N   0  0  0  0  0  0  0  0  0  0  0  0
   22.8630  -17.4540  -16.7129 C   0  0  1  0  0  0  0  0  0  0  0  0
   22.1547  -16.1478  -16.7942 C   0  0  0  0  0  0  0  0  0  0  0  0
   20.7514  -16.3382  -17.1946 C   0  0  0  0  0  0  0  0  0  0  0  0
   20.1516  -17.5544  -17.5042 C   0  0  0  0  0  0  0  0  0  0  0  0
   18.8612  -17.3526  -17.8267 N   0  0  0  0  0  0  0  0  0  0  0  0
   18.6393  -16.0378  -17.7260 C   0  0  0  0  0  0  0  0  0  0  0  0
   19.7749  -15.4327  -17.3467 N   0  0  0  0  0  0  0  0  0  0  0  0
   22.7902  -18.1495  -18.0150 C   0  0  0  0  0  0  0  0  0  0  0  0
   23.8407  -18.1121  -18.7467 O   0  0  0  0  0  0  0  0  0  0  0  0
   21.6775  -18.8309  -18.4890 O   0  0  0  0  0  0  0  0  0  0  0  0
  2  1  1  1
  2  7  1  0
  3  2  1  0
  4  3  1  0
  5  6  2  0
  5  4  1  0
  7  8  2  0
  7 10  1  0
  9  5  1  0
 10 14  1  0
 10 11  1  0
 11 12  1  0
 13 12  1  0
 14 13  1  0
 14 15  1  6
 16 15  2  0
 17 15  1  0
 18 19  1  6
 18 17  1  0
 20 19  1  0
 21 20  2  0
 22 23  1  0
 22 21  1  0
 23 24  2  0
 24 20  1  0
 25 18  1  0
 26 25  2  0
 27 25  1  0
M  END
$$$$
