EPH.pdb
     RDKit          3D

 27 28  0  0  1  0  0  0  0  0999 V2000
   23.8576  -14.8511  -17.7840 N   0  0  0  0  0  0  0  0  0  0  0  0
   24.4302  -13.5580  -17.8904 C   0  0  1  0  0  0  0  0  0  0  0  0
   23.7999  -12.7583  -19.0435 C   0  0  0  0  0  0  0  0  0  0  0  0
   22.3506  -13.1569  -19.2485 C   0  0  0  0  0  0  0  0  0  0  0  0
   21.6388  -12.1816  -20.0898 C   0  0  0  0  0  0  0  0  0  0  0  0
   21.4115  -10.9925  -19.7356 O   0  0  0  0  0  0  0  0  0  0  0  0
   24.3312  -12.6924  -16.7083 C   0  0  0  0  0  0  0  0  0  0  0  0
   23.5584  -13.1670  -15.7817 O   0  0  0  0  0  0  0  0  0  0  0  0
   21.1914  -12.5842  -21.3392 O   0  0  0  0  0  0  0  0  0  0  0  0
   24.9846  -11.4674  -16.5434 N   0  0  0  0  0  0  0  0  0  0  0  0
   25.9158  -10.9439  -17.5268 C   0  0  0  0  0  0  0  0  0  0  0  0
   26.9007  -10.1645  -16.7046 C   0  0  0  0  0  0  0  0  0  0  0  0
   26.3882  -10.1563  -15.2926 C   0  0  0  0  0  0  0  0  0  0  0  0
   24.9034  -10.5097  -15.5047 C   0  0  1  0  0  0  0  0  0  0  0  0
   24.1400   -9.3292  -15.9961 C   0  0  0  0  0  0  0  0  0  0  0  0
   24.3633   -8.8384  -17.1301 O   0  0  0  0  0  0  0  0  0  0  0  0
   23.1277   -8.6981  -15.2207 N   0  0  0  0  0  0  0  0  0  0  0  0
   22.2060   -7.7145  -15.7789 C   0  0  1  0  0  0  0  0  0  0  0  0
   21.3814   -8.2846  -16.8787 C   0  0  0  0  0  0  0  0  0  0  0  0
   20.4931   -9.3426  -16.3713 C   0  0  0  0  0  0  0  0  0  0  0  0
   20.7564  -10.1768  -15.2899 C   0  0  0  0  0  0  0  0  0  0  0  0
   19.7260  -11.0230  -15.1106 N   0  0  0  0  0  0  0  0  0  0  0  0
   18.8234  -10.7376  -16.0551 C   0  0  0  0  0  0  0  0  0  0  0  0
   19.2868   -9.7295  -16.8092 N   0  0  0  0  0  0  0  0  0  0  0  0
   21.3301   -7.2114  -14.7000 C   0  0  0  0  0  0  0  0  0  0  0  0
   21.4045   -7.8122  -13.5714 O   0  0  0  0  0  0  0  0  0  0  0  0
   20.4476   -6.1472  -14.8263 O   0  0  0  0  0  0  0  0  0  0  0  0
  2  1  1  1
  2  7  1  0
  3  2  1  0
  4  3  1  0
  5  6  2  0
  5  4  1  0
  7  8  2  0
  7 10  1  0
  9  5  1  0
 10 14  1  0
 10 11  1  0
 11 12  1  0
 13 12  1  0
 14 13  1  0
 14 15  1  6
 16 15  2  0
 17 15  1  0
 18 19  1  6
 18 17  1  0
 20 19  1  0
 21 20  2  0
 22 23  1  0
 22 21  1  0
 23 24  2  0
 24 20  1  0
 25 18  1  0
 26 25  2  0
 27 25  1  0
M  END
$$$$
