EPH.pdb
     RDKit          3D

 27 28  0  0  1  0  0  0  0  0999 V2000
   18.1971  -12.4379  -16.4112 N   0  0  0  0  0  0  0  0  0  0  0  0
   19.4050  -11.7073  -16.5463 C   0  0  1  0  0  0  0  0  0  0  0  0
   19.4343  -10.9095  -17.8612 C   0  0  0  0  0  0  0  0  0  0  0  0
   19.3657  -11.8385  -19.0585 C   0  0  0  0  0  0  0  0  0  0  0  0
   19.2876  -11.0847  -20.3200 C   0  0  0  0  0  0  0  0  0  0  0  0
   18.2523  -10.4741  -20.7024 O   0  0  0  0  0  0  0  0  0  0  0  0
   19.7119  -10.7367  -15.4878 C   0  0  0  0  0  0  0  0  0  0  0  0
   18.6878  -10.4281  -14.7550 O   0  0  0  0  0  0  0  0  0  0  0  0
   20.4077  -11.0388  -21.1364 O   0  0  0  0  0  0  0  0  0  0  0  0
   20.9668  -10.1692  -15.2472 N   0  0  0  0  0  0  0  0  0  0  0  0
   22.1106  -10.4176  -16.1065 C   0  0  0  0  0  0  0  0  0  0  0  0
   23.2813  -10.3485  -15.1693 C   0  0  0  0  0  0  0  0  0  0  0  0
   22.7525   -9.9075  -13.8343 C   0  0  0  0  0  0  0  0  0  0  0  0
   21.4008   -9.2838  -14.2322 C   0  0  1  0  0  0  0  0  0  0  0  0
   21.5923   -7.9302  -14.8228 C   0  0  0  0  0  0  0  0  0  0  0  0
   22.0247   -7.7882  -15.9931 O   0  0  0  0  0  0  0  0  0  0  0  0
   21.3004   -6.7363  -14.1061 N   0  0  0  0  0  0  0  0  0  0  0  0
   21.3110   -5.4187  -14.7325 C   0  0  1  0  0  0  0  0  0  0  0  0
   19.9678   -4.7785  -14.7067 C   0  0  0  0  0  0  0  0  0  0  0  0
   19.0074   -5.5463  -15.5155 C   0  0  0  0  0  0  0  0  0  0  0  0
   19.0879   -5.7615  -16.8872 C   0  0  0  0  0  0  0  0  0  0  0  0
   18.0415   -6.5049  -17.2901 N   0  0  0  0  0  0  0  0  0  0  0  0
   17.3075   -6.7600  -16.2018 C   0  0  0  0  0  0  0  0  0  0  0  0
   17.8897   -6.1836  -15.1395 N   0  0  0  0  0  0  0  0  0  0  0  0
   22.2917   -4.5626  -14.0326 C   0  0  0  0  0  0  0  0  0  0  0  0
   22.7714   -5.0161  -12.9351 O   0  0  0  0  0  0  0  0  0  0  0  0
   22.7215   -3.3205  -14.4795 O   0  0  0  0  0  0  0  0  0  0  0  0
  2  1  1  1
  2  7  1  0
  3  2  1  0
  4  3  1  0
  5  6  2  0
  5  4  1  0
  7  8  2  0
  7 10  1  0
  9  5  1  0
 10 14  1  0
 10 11  1  0
 11 12  1  0
 13 12  1  0
 14 13  1  0
 14 15  1  6
 16 15  2  0
 17 15  1  0
 18 19  1  1
 18 17  1  0
 20 19  1  0
 21 20  2  0
 22 23  1  0
 22 21  1  0
 23 24  2  0
 24 20  1  0
 25 18  1  0
 26 25  2  0
 27 25  1  0
M  END
$$$$
