EPH.pdb
     RDKit          3D

 27 28  0  0  1  0  0  0  0  0999 V2000
   19.6110  -13.9202  -17.5135 N   0  0  0  0  0  0  0  0  0  0  0  0
   19.5519  -12.5276  -17.7755 C   0  0  1  0  0  0  0  0  0  0  0  0
   18.1641  -11.9527  -17.4441 C   0  0  0  0  0  0  0  0  0  0  0  0
   17.3868  -12.8993  -16.5490 C   0  0  0  0  0  0  0  0  0  0  0  0
   17.0442  -12.2658  -15.2656 C   0  0  0  0  0  0  0  0  0  0  0  0
   17.2748  -12.7962  -14.1447 O   0  0  0  0  0  0  0  0  0  0  0  0
   20.5130  -11.6793  -17.0591 C   0  0  0  0  0  0  0  0  0  0  0  0
   21.2021  -12.3177  -16.1655 O   0  0  0  0  0  0  0  0  0  0  0  0
   16.4355  -11.0198  -15.2819 O   0  0  0  0  0  0  0  0  0  0  0  0
   20.7088  -10.3125  -17.2785 N   0  0  0  0  0  0  0  0  0  0  0  0
   19.9215   -9.5578  -18.2372 C   0  0  0  0  0  0  0  0  0  0  0  0
   20.8720   -8.5041  -18.7271 C   0  0  0  0  0  0  0  0  0  0  0  0
   22.1211   -8.6178  -17.9006 C   0  0  0  0  0  0  0  0  0  0  0  0
   21.6071   -9.3998  -16.6764 C   0  0  1  0  0  0  0  0  0  0  0  0
   20.8455   -8.5093  -15.7572 C   0  0  0  0  0  0  0  0  0  0  0  0
   19.6406   -8.2305  -15.9744 O   0  0  0  0  0  0  0  0  0  0  0  0
   21.4302   -7.9312  -14.5960 N   0  0  0  0  0  0  0  0  0  0  0  0
   20.6382   -7.2976  -13.5473 C   0  0  1  0  0  0  0  0  0  0  0  0
   21.1486   -7.6254  -12.1884 C   0  0  0  0  0  0  0  0  0  0  0  0
   20.3136   -6.9984  -11.1512 C   0  0  0  0  0  0  0  0  0  0  0  0
   19.0445   -7.4171  -10.7655 C   0  0  0  0  0  0  0  0  0  0  0  0
   18.5795   -6.6123   -9.7928 N   0  0  0  0  0  0  0  0  0  0  0  0
   19.5286   -5.6993   -9.5607 C   0  0  0  0  0  0  0  0  0  0  0  0
   20.5669   -5.9339  -10.3770 N   0  0  0  0  0  0  0  0  0  0  0  0
   20.6534   -5.8340  -13.7527 C   0  0  0  0  0  0  0  0  0  0  0  0
   19.7638   -5.1562  -13.1287 O   0  0  0  0  0  0  0  0  0  0  0  0
   21.5545   -5.1562  -14.5625 O   0  0  0  0  0  0  0  0  0  0  0  0
  2  1  1  1
  2  7  1  0
  3  2  1  0
  4  3  1  0
  5  6  2  0
  5  4  1  0
  7  8  2  0
  7 10  1  0
  9  5  1  0
 10 14  1  0
 10 11  1  0
 11 12  1  0
 13 12  1  0
 14 13  1  0
 14 15  1  1
 16 15  2  0
 17 15  1  0
 18 19  1  1
 18 17  1  0
 20 19  1  0
 21 20  2  0
 22 23  1  0
 22 21  1  0
 23 24  2  0
 24 20  1  0
 25 18  1  0
 26 25  2  0
 27 25  1  0
M  END
$$$$
