EPH.pdb
     RDKit          3D

 27 28  0  0  1  0  0  0  0  0999 V2000
   24.0386  -14.9247  -18.2686 N   0  0  0  0  0  0  0  0  0  0  0  0
   24.5830  -13.6165  -18.3275 C   0  0  1  0  0  0  0  0  0  0  0  0
   24.2021  -12.9089  -19.6392 C   0  0  0  0  0  0  0  0  0  0  0  0
   22.7073  -12.9924  -19.8839 C   0  0  0  0  0  0  0  0  0  0  0  0
   22.3281  -12.3114  -21.1322 C   0  0  0  0  0  0  0  0  0  0  0  0
   21.4484  -11.4095  -21.1929 O   0  0  0  0  0  0  0  0  0  0  0  0
   24.1986  -12.6920  -17.2533 C   0  0  0  0  0  0  0  0  0  0  0  0
   23.1602  -13.0812  -16.5815 O   0  0  0  0  0  0  0  0  0  0  0  0
   22.9676  -12.6753  -22.3077 O   0  0  0  0  0  0  0  0  0  0  0  0
   24.8522  -11.4965  -16.9400 N   0  0  0  0  0  0  0  0  0  0  0  0
   26.0190  -11.0334  -17.6698 C   0  0  0  0  0  0  0  0  0  0  0  0
   26.8122  -10.2876  -16.6362 C   0  0  0  0  0  0  0  0  0  0  0  0
   25.9733  -10.2322  -15.3914 C   0  0  0  0  0  0  0  0  0  0  0  0
   24.5688  -10.5191  -15.9566 C   0  0  1  0  0  0  0  0  0  0  0  0
   24.0069   -9.3123  -16.6243 C   0  0  0  0  0  0  0  0  0  0  0  0
   24.1655   -9.1185  -17.8547 O   0  0  0  0  0  0  0  0  0  0  0  0
   23.2679   -8.3232  -15.9172 N   0  0  0  0  0  0  0  0  0  0  0  0
   21.9224   -7.9160  -16.3076 C   0  0  1  0  0  0  0  0  0  0  0  0
   20.9547   -9.0440  -16.2316 C   0  0  0  0  0  0  0  0  0  0  0  0
   19.6027   -8.5987  -16.6057 C   0  0  0  0  0  0  0  0  0  0  0  0
   19.1501   -7.2835  -16.6049 C   0  0  0  0  0  0  0  0  0  0  0  0
   17.8651   -7.2476  -17.0019 N   0  0  0  0  0  0  0  0  0  0  0  0
   17.5029   -8.5105  -17.2513 C   0  0  0  0  0  0  0  0  0  0  0  0
   18.5473   -9.3178  -17.0126 N   0  0  0  0  0  0  0  0  0  0  0  0
   21.4813   -6.8124  -15.4290 C   0  0  0  0  0  0  0  0  0  0  0  0
   20.7875   -5.8846  -15.9749 O   0  0  0  0  0  0  0  0  0  0  0  0
   21.7631   -6.7173  -14.0730 O   0  0  0  0  0  0  0  0  0  0  0  0
  2  1  1  1
  2  7  1  0
  3  2  1  0
  4  3  1  0
  5  6  2  0
  5  4  1  0
  7  8  2  0
  7 10  1  0
  9  5  1  0
 10 14  1  0
 10 11  1  0
 11 12  1  0
 13 12  1  0
 14 13  1  0
 14 15  1  6
 16 15  2  0
 17 15  1  0
 18 19  1  1
 18 17  1  0
 20 19  1  0
 21 20  2  0
 22 23  1  0
 22 21  1  0
 23 24  2  0
 24 20  1  0
 25 18  1  0
 26 25  2  0
 27 25  1  0
M  END
$$$$
