EPH.pdb
     RDKit          3D

 27 28  0  0  1  0  0  0  0  0999 V2000
   19.4283  -13.3286  -17.4751 N   0  0  0  0  0  0  0  0  0  0  0  0
   20.6029  -12.5347  -17.4412 C   0  0  1  0  0  0  0  0  0  0  0  0
   20.7963  -11.7622  -18.7573 C   0  0  0  0  0  0  0  0  0  0  0  0
   20.8942  -12.7149  -19.9337 C   0  0  0  0  0  0  0  0  0  0  0  0
   21.1236  -11.9909  -21.1942 C   0  0  0  0  0  0  0  0  0  0  0  0
   22.2628  -11.6130  -21.5819 O   0  0  0  0  0  0  0  0  0  0  0  0
   20.6895  -11.5283  -16.3753 C   0  0  0  0  0  0  0  0  0  0  0  0
   19.5525  -11.2793  -15.8041 O   0  0  0  0  0  0  0  0  0  0  0  0
   20.0342  -11.7055  -22.0035 O   0  0  0  0  0  0  0  0  0  0  0  0
   21.8565  -10.8716  -15.9731 N   0  0  0  0  0  0  0  0  0  0  0  0
   23.1396  -11.1045  -16.6116 C   0  0  0  0  0  0  0  0  0  0  0  0
   24.1307  -10.9050  -15.5019 C   0  0  0  0  0  0  0  0  0  0  0  0
   23.3633  -10.4126  -14.3081 C   0  0  0  0  0  0  0  0  0  0  0  0
   22.0691   -9.8986  -14.9678 C   0  0  1  0  0  0  0  0  0  0  0  0
   22.2908   -8.5763  -15.6160 C   0  0  0  0  0  0  0  0  0  0  0  0
   22.2648   -8.4537  -16.8654 O   0  0  0  0  0  0  0  0  0  0  0  0
   22.5409   -7.3920  -14.8683 N   0  0  0  0  0  0  0  0  0  0  0  0
   21.6723   -6.2215  -14.9324 C   0  0  1  0  0  0  0  0  0  0  0  0
   20.2875   -6.5299  -14.4832 C   0  0  0  0  0  0  0  0  0  0  0  0
   19.3798   -6.6536  -15.6351 C   0  0  0  0  0  0  0  0  0  0  0  0
   19.5779   -7.4711  -16.7428 C   0  0  0  0  0  0  0  0  0  0  0  0
   18.5487   -7.3308  -17.5978 N   0  0  0  0  0  0  0  0  0  0  0  0
   17.7106   -6.4440  -17.0506 C   0  0  0  0  0  0  0  0  0  0  0  0
   18.2122   -6.0401  -15.8738 N   0  0  0  0  0  0  0  0  0  0  0  0
   22.2484   -5.1501  -14.0930 C   0  0  0  0  0  0  0  0  0  0  0  0
   22.5363   -5.4586  -12.8838 O   0  0  0  0  0  0  0  0  0  0  0  0
   22.4956   -3.8531  -14.5219 O   0  0  0  0  0  0  0  0  0  0  0  0
  2  1  1  6
  2  7  1  0
  3  2  1  0
  4  3  1  0
  5  6  2  0
  5  4  1  0
  7  8  2  0
  7 10  1  0
  9  5  1  0
 10 14  1  0
 10 11  1  0
 11 12  1  0
 13 12  1  0
 14 13  1  0
 14 15  1  6
 16 15  2  0
 17 15  1  0
 18 19  1  1
 18 17  1  0
 20 19  1  0
 21 20  2  0
 22 23  1  0
 22 21  1  0
 23 24  2  0
 24 20  1  0
 25 18  1  0
 26 25  2  0
 27 25  1  0
M  END
$$$$
