MCA.pdb
     RDKit          3D

 20 19  0  0  1  0  0  0  0  0999 V2000
   29.3584  -11.6056  -17.9081 C   0  0  0  0  0  0  0  0  0  0  0  0
   28.5624  -13.0992  -17.2529 S   0  0  0  0  0  0  0  0  0  0  0  0
   27.4731  -12.6242  -15.8935 C   0  0  0  0  0  0  0  0  0  0  0  0
   26.3023  -11.8592  -16.4620 C   0  0  0  0  0  0  0  0  0  0  0  0
   25.4504  -11.2171  -15.4008 C   0  0  2  0  0  0  0  0  0  0  0  0
   25.0303  -12.1266  -14.3693 N   0  0  0  0  0  0  0  0  0  0  0  0
   24.3012  -10.5685  -16.0798 C   0  0  0  0  0  0  0  0  0  0  0  0
   24.4707   -9.8092  -17.0677 O   0  0  0  0  0  0  0  0  0  0  0  0
   22.9551  -10.7895  -15.6271 N   0  0  0  0  0  0  0  0  0  0  0  0
   21.8393  -10.2389  -16.3850 C   0  0  1  0  0  0  0  0  0  0  0  0
   20.6950  -11.2418  -16.3293 C   0  0  0  0  0  0  0  0  0  0  0  0
   21.1962  -12.7323  -17.2041 S   0  0  0  0  0  0  0  0  0  0  0  0
   21.4439   -8.9683  -15.7247 C   0  0  0  0  0  0  0  0  0  0  0  0
   21.4769   -8.8571  -14.4554 O   0  0  0  0  0  0  0  0  0  0  0  0
   20.7644   -5.4848  -16.7625 C   0  0  0  0  0  0  0  0  0  0  0  0
   20.6526   -6.6221  -15.7693 C   0  0  2  0  0  0  0  0  0  0  0  0
   21.0200   -7.8417  -16.4541 N   0  0  0  0  0  0  0  0  0  0  0  0
   19.2669   -6.7598  -15.2721 C   0  0  0  0  0  0  0  0  0  0  0  0
   18.7989   -5.8384  -14.3479 O   0  0  0  0  0  0  0  0  0  0  0  0
   18.5167   -7.6803  -15.6638 O   0  0  0  0  0  0  0  0  0  0  0  0
  2  1  1  0
  3  2  1  0
  4  3  1  0
  4  5  1  0
  5  6  1  1
  7  5  1  0
  7  9  1  0
  8  7  2  0
 10  9  1  0
 10 13  1  0
 10 11  1  1
 12 11  1  0
 13 17  1  0
 13 14  2  0
 16 15  1  6
 16 18  1  0
 17 16  1  0
 18 19  1  0
 20 18  2  0
M  END
$$$$
