MCA.pdb
     RDKit          3D

 20 19  0  0  1  0  0  0  0  0999 V2000
   28.2326  -13.2811  -14.3712 C   0  0  0  0  0  0  0  0  0  0  0  0
   27.4749  -13.5177  -16.0033 S   0  0  0  0  0  0  0  0  0  0  0  0
   27.9491  -12.1370  -17.0659 C   0  0  0  0  0  0  0  0  0  0  0  0
   26.7136  -11.6234  -17.7649 C   0  0  0  0  0  0  0  0  0  0  0  0
   26.4752  -10.1561  -17.5322 C   0  0  2  0  0  0  0  0  0  0  0  0
   26.7378   -9.7356  -16.1824 N   0  0  0  0  0  0  0  0  0  0  0  0
   25.0845   -9.8551  -17.9537 C   0  0  0  0  0  0  0  0  0  0  0  0
   24.6873  -10.1064  -19.1200 O   0  0  0  0  0  0  0  0  0  0  0  0
   24.1464   -9.2655  -17.0382 N   0  0  0  0  0  0  0  0  0  0  0  0
   22.7603   -9.0784  -17.4461 C   0  0  1  0  0  0  0  0  0  0  0  0
   21.9071  -10.0790  -16.6785 C   0  0  0  0  0  0  0  0  0  0  0  0
   20.1740   -9.7337  -17.0180 S   0  0  0  0  0  0  0  0  0  0  0  0
   22.3787   -7.6895  -17.0825 C   0  0  0  0  0  0  0  0  0  0  0  0
   22.6067   -7.2374  -15.9128 O   0  0  0  0  0  0  0  0  0  0  0  0
   20.9814   -4.7232  -18.8495 C   0  0  0  0  0  0  0  0  0  0  0  0
   21.4331   -5.4619  -17.6074 C   0  0  2  0  0  0  0  0  0  0  0  0
   21.7568   -6.8169  -17.9950 N   0  0  0  0  0  0  0  0  0  0  0  0
   20.3574   -5.5056  -16.5938 C   0  0  0  0  0  0  0  0  0  0  0  0
   20.3293   -4.5258  -15.6134 O   0  0  0  0  0  0  0  0  0  0  0  0
   19.4822   -6.3986  -16.6028 O   0  0  0  0  0  0  0  0  0  0  0  0
  2  1  1  0
  3  2  1  0
  4  3  1  0
  4  5  1  0
  5  6  1  1
  7  5  1  0
  7  9  1  0
  8  7  2  0
 10  9  1  0
 10 13  1  0
 10 11  1  1
 12 11  1  0
 13 17  1  0
 13 14  2  0
 16 15  1  6
 16 18  1  0
 17 16  1  0
 18 19  1  0
 20 18  2  0
M  END
$$$$
