MCA.pdb
     RDKit          3D

 20 19  0  0  1  0  0  0  0  0999 V2000
   19.0530  -12.9963  -19.2065 C   0  0  0  0  0  0  0  0  0  0  0  0
   20.6946  -13.2837  -18.4880 S   0  0  0  0  0  0  0  0  0  0  0  0
   21.6240  -11.7363  -18.5337 C   0  0  0  0  0  0  0  0  0  0  0  0
   20.9631  -10.7521  -17.5991 C   0  0  0  0  0  0  0  0  0  0  0  0
   21.6836   -9.4328  -17.5314 C   0  0  2  0  0  0  0  0  0  0  0  0
   23.0673   -9.5493  -17.1580 N   0  0  0  0  0  0  0  0  0  0  0  0
   20.9246   -8.5540  -16.6074 C   0  0  0  0  0  0  0  0  0  0  0  0
   19.6951   -8.3447  -16.7683 O   0  0  0  0  0  0  0  0  0  0  0  0
   21.5741   -7.9134  -15.4968 N   0  0  0  0  0  0  0  0  0  0  0  0
   20.7954   -7.0862  -14.5847 C   0  0  1  0  0  0  0  0  0  0  0  0
   21.1911   -7.4575  -13.1620 C   0  0  0  0  0  0  0  0  0  0  0  0
   20.0079   -8.6586  -12.5331 S   0  0  0  0  0  0  0  0  0  0  0  0
   21.1482   -5.6707  -14.8651 C   0  0  0  0  0  0  0  0  0  0  0  0
   22.3640   -5.3225  -15.0243 O   0  0  0  0  0  0  0  0  0  0  0  0
   19.2947   -2.5764  -15.7441 C   0  0  0  0  0  0  0  0  0  0  0  0
   20.5538   -3.3142  -15.3409 C   0  0  2  0  0  0  0  0  0  0  0  0
   20.1751   -4.6591  -14.9677 N   0  0  0  0  0  0  0  0  0  0  0  0
   21.2008   -2.6672  -14.1794 C   0  0  0  0  0  0  0  0  0  0  0  0
   22.0499   -1.5947  -14.4051 O   0  0  0  0  0  0  0  0  0  0  0  0
   20.9999   -3.0632  -13.0105 O   0  0  0  0  0  0  0  0  0  0  0  0
  2  1  1  0
  3  2  1  0
  4  3  1  0
  4  5  1  0
  5  6  1  1
  7  5  1  0
  7  9  1  0
  8  7  2  0
 10  9  1  0
 10 13  1  0
 10 11  1  1
 12 11  1  0
 13 17  1  0
 13 14  2  0
 16 15  1  1
 16 18  1  0
 17 16  1  0
 18 19  1  0
 20 18  2  0
M  END
$$$$
