MCA.pdb
     RDKit          3D

 20 19  0  0  1  0  0  0  0  0999 V2000
   24.9172  -20.7530   -8.7605 C   0  0  0  0  0  0  0  0  0  0  0  0
   26.4003  -21.3953   -9.5861 S   0  0  0  0  0  0  0  0  0  0  0  0
   26.0726  -21.5060  -11.3583 C   0  0  0  0  0  0  0  0  0  0  0  0
   25.5851  -20.1612  -11.8408 C   0  0  0  0  0  0  0  0  0  0  0  0
   25.2374  -20.1540  -13.3048 C   0  0  2  0  0  0  0  0  0  0  0  0
   26.1502  -20.9104  -14.1185 N   0  0  0  0  0  0  0  0  0  0  0  0
   25.1420  -18.7374  -13.7363 C   0  0  0  0  0  0  0  0  0  0  0  0
   24.2953  -17.9569  -13.2309 O   0  0  0  0  0  0  0  0  0  0  0  0
   26.0174  -18.2129  -14.7483 N   0  0  0  0  0  0  0  0  0  0  0  0
   25.9228  -16.8094  -15.1276 C   0  0  1  0  0  0  0  0  0  0  0  0
   27.3120  -16.3405  -15.5382 C   0  0  0  0  0  0  0  0  0  0  0  0
   28.0788  -17.6260  -16.5369 S   0  0  0  0  0  0  0  0  0  0  0  0
   24.9894  -16.7276  -16.2804 C   0  0  0  0  0  0  0  0  0  0  0  0
   25.0805  -17.5491  -17.2508 O   0  0  0  0  0  0  0  0  0  0  0  0
   21.6641  -15.5945  -16.9523 C   0  0  0  0  0  0  0  0  0  0  0  0
   23.0732  -15.7284  -17.4896 C   0  0  2  0  0  0  0  0  0  0  0  0
   23.9743  -15.7559  -16.3589 N   0  0  0  0  0  0  0  0  0  0  0  0
   23.4273  -14.5768  -18.3468 C   0  0  0  0  0  0  0  0  0  0  0  0
   22.7743  -14.4276  -19.5607 O   0  0  0  0  0  0  0  0  0  0  0  0
   24.2943  -13.7440  -18.0030 O   0  0  0  0  0  0  0  0  0  0  0  0
  2  1  1  0
  3  2  1  0
  4  3  1  0
  4  5  1  0
  5  6  1  6
  7  5  1  0
  7  9  1  0
  8  7  2  0
 10  9  1  0
 10 13  1  0
 10 11  1  6
 12 11  1  0
 13 17  1  0
 13 14  2  0
 16 15  1  1
 16 18  1  0
 17 16  1  0
 18 19  1  0
 20 18  2  0
M  END
$$$$
