MCA.pdb
     RDKit          3D

 20 19  0  0  1  0  0  0  0  0999 V2000
   26.3378  -17.4282  -17.1915 C   0  0  0  0  0  0  0  0  0  0  0  0
   28.0714  -17.0789  -16.7838 S   0  0  0  0  0  0  0  0  0  0  0  0
   28.7142  -18.4372  -15.7827 C   0  0  0  0  0  0  0  0  0  0  0  0
   27.5493  -19.2529  -15.2764 C   0  0  0  0  0  0  0  0  0  0  0  0
   27.9712  -20.3814  -14.3749 C   0  0  2  0  0  0  0  0  0  0  0  0
   28.7724  -21.3774  -15.0334 N   0  0  0  0  0  0  0  0  0  0  0  0
   26.7435  -20.9569  -13.7719 C   0  0  0  0  0  0  0  0  0  0  0  0
   26.1624  -21.9440  -14.2910 O   0  0  0  0  0  0  0  0  0  0  0  0
   26.1796  -20.4017  -12.5721 N   0  0  0  0  0  0  0  0  0  0  0  0
   25.0157  -21.0316  -11.9631 C   0  0  1  0  0  0  0  0  0  0  0  0
   24.9549  -20.5938  -10.5060 C   0  0  0  0  0  0  0  0  0  0  0  0
   26.3845  -21.2669   -9.6453 S   0  0  0  0  0  0  0  0  0  0  0  0
   23.8188  -20.5468  -12.6975 C   0  0  0  0  0  0  0  0  0  0  0  0
   23.5996  -19.2984  -12.8321 O   0  0  0  0  0  0  0  0  0  0  0  0
   21.4955  -21.9097  -15.1589 C   0  0  0  0  0  0  0  0  0  0  0  0
   21.7814  -20.9115  -14.0571 C   0  0  2  0  0  0  0  0  0  0  0  0
   22.8820  -21.4258  -13.2725 N   0  0  0  0  0  0  0  0  0  0  0  0
   20.6085  -20.7456  -13.1720 C   0  0  0  0  0  0  0  0  0  0  0  0
   19.5175  -20.0318  -13.6433 O   0  0  0  0  0  0  0  0  0  0  0  0
   20.5810  -21.2307  -12.0199 O   0  0  0  0  0  0  0  0  0  0  0  0
  2  1  1  0
  3  2  1  0
  4  3  1  0
  4  5  1  0
  5  6  1  6
  7  5  1  0
  7  9  1  0
  8  7  2  0
 10  9  1  0
 10 13  1  0
 10 11  1  1
 12 11  1  0
 13 17  1  0
 13 14  2  0
 16 15  1  6
 16 18  1  0
 17 16  1  0
 18 19  1  0
 20 18  2  0
M  END
$$$$
