MCA.pdb
     RDKit          3D

 20 19  0  0  1  0  0  0  0  0999 V2000
   18.6905  -18.0436  -17.8730 C   0  0  0  0  0  0  0  0  0  0  0  0
   19.2999  -16.7889  -16.7120 S   0  0  0  0  0  0  0  0  0  0  0  0
   19.7092  -15.2945  -17.6391 C   0  0  0  0  0  0  0  0  0  0  0  0
   20.2507  -14.2658  -16.6760 C   0  0  0  0  0  0  0  0  0  0  0  0
   20.6225  -12.9717  -17.3479 C   0  0  2  0  0  0  0  0  0  0  0  0
   21.7152  -13.0955  -18.2742 N   0  0  0  0  0  0  0  0  0  0  0  0
   20.8994  -11.9765  -16.2825 C   0  0  0  0  0  0  0  0  0  0  0  0
   20.0738  -11.7631  -15.3583 O   0  0  0  0  0  0  0  0  0  0  0  0
   22.1239  -11.2241  -16.2747 N   0  0  0  0  0  0  0  0  0  0  0  0
   22.4153  -10.3313  -15.1609 C   0  0  1  0  0  0  0  0  0  0  0  0
   23.9283  -10.2461  -15.0124 C   0  0  0  0  0  0  0  0  0  0  0  0
   24.4969  -11.6897  -14.1011 S   0  0  0  0  0  0  0  0  0  0  0  0
   21.8554   -8.9995  -15.5069 C   0  0  0  0  0  0  0  0  0  0  0  0
   22.1172   -8.4554  -16.6294 O   0  0  0  0  0  0  0  0  0  0  0  0
   19.1767   -6.8191  -14.2168 C   0  0  0  0  0  0  0  0  0  0  0  0
   20.4300   -7.0291  -15.0399 C   0  0  2  0  0  0  0  0  0  0  0  0
   21.0216   -8.2828  -14.6283 N   0  0  0  0  0  0  0  0  0  0  0  0
   21.4089   -5.9461  -14.8044 C   0  0  0  0  0  0  0  0  0  0  0  0
   22.5296   -6.2204  -14.0357 O   0  0  0  0  0  0  0  0  0  0  0  0
   21.2482   -4.8006  -15.2792 O   0  0  0  0  0  0  0  0  0  0  0  0
  2  1  1  0
  3  2  1  0
  4  3  1  0
  4  5  1  0
  5  6  1  1
  7  5  1  0
  7  9  1  0
  8  7  2  0
 10  9  1  0
 10 13  1  0
 10 11  1  6
 12 11  1  0
 13 17  1  0
 13 14  2  0
 16 15  1  1
 16 18  1  0
 17 16  1  0
 18 19  1  0
 20 18  2  0
M  END
$$$$
