MCA.pdb
     RDKit          3D

 20 19  0  0  1  0  0  0  0  0999 V2000
   25.5431  -12.3781  -20.9273 C   0  0  0  0  0  0  0  0  0  0  0  0
   24.0658  -13.4249  -21.0520 S   0  0  0  0  0  0  0  0  0  0  0  0
   23.4121  -13.7015  -19.3917 C   0  0  0  0  0  0  0  0  0  0  0  0
   22.6012  -12.4938  -18.9883 C   0  0  0  0  0  0  0  0  0  0  0  0
   23.2358  -11.7068  -17.8738 C   0  0  2  0  0  0  0  0  0  0  0  0
   23.5007  -12.4863  -16.6949 N   0  0  0  0  0  0  0  0  0  0  0  0
   22.3605  -10.5421  -17.5920 C   0  0  0  0  0  0  0  0  0  0  0  0
   22.0541   -9.7224  -18.4951 O   0  0  0  0  0  0  0  0  0  0  0  0
   21.8345  -10.3151  -16.2739 N   0  0  0  0  0  0  0  0  0  0  0  0
   20.9288   -9.1980  -16.0407 C   0  0  1  0  0  0  0  0  0  0  0  0
   19.7995   -9.6896  -15.1456 C   0  0  0  0  0  0  0  0  0  0  0  0
   18.7627   -8.2856  -14.7077 S   0  0  0  0  0  0  0  0  0  0  0  0
   21.7078   -8.1369  -15.3522 C   0  0  0  0  0  0  0  0  0  0  0  0
   22.4518   -8.4185  -14.3563 O   0  0  0  0  0  0  0  0  0  0  0  0
   22.4382   -4.5323  -15.9052 C   0  0  0  0  0  0  0  0  0  0  0  0
   22.4510   -5.7921  -15.0655 C   0  0  2  0  0  0  0  0  0  0  0  0
   21.6650   -6.7897  -15.7572 N   0  0  0  0  0  0  0  0  0  0  0  0
   21.8459   -5.5526  -13.7378 C   0  0  0  0  0  0  0  0  0  0  0  0
   22.6181   -4.9524  -12.7552 O   0  0  0  0  0  0  0  0  0  0  0  0
   20.6648   -5.8768  -13.4859 O   0  0  0  0  0  0  0  0  0  0  0  0
  2  1  1  0
  3  2  1  0
  4  3  1  0
  4  5  1  0
  5  6  1  1
  7  5  1  0
  7  9  1  0
  8  7  2  0
 10  9  1  0
 10 13  1  0
 10 11  1  1
 12 11  1  0
 13 17  1  0
 13 14  2  0
 16 15  1  6
 16 18  1  0
 17 16  1  0
 18 19  1  0
 20 18  2  0
M  END
$$$$
