MCA.pdb
     RDKit          3D

 20 19  0  0  1  0  0  0  0  0999 V2000
   27.7867  -18.3082   -3.9532 C   0  0  0  0  0  0  0  0  0  0  0  0
   28.7683  -19.8303   -4.0696 S   0  0  0  0  0  0  0  0  0  0  0  0
   29.5342  -19.9000   -5.7033 C   0  0  0  0  0  0  0  0  0  0  0  0
   28.6094  -20.6451   -6.6351 C   0  0  0  0  0  0  0  0  0  0  0  0
   28.0762  -19.7820   -7.7463 C   0  0  2  0  0  0  0  0  0  0  0  0
   27.1748  -18.7554   -7.2979 N   0  0  0  0  0  0  0  0  0  0  0  0
   27.4515  -20.6784   -8.7505 C   0  0  0  0  0  0  0  0  0  0  0  0
   27.9465  -21.8028   -9.0190 O   0  0  0  0  0  0  0  0  0  0  0  0
   26.2577  -20.2873   -9.4487 N   0  0  0  0  0  0  0  0  0  0  0  0
   25.5112  -21.2780  -10.2127 C   0  0  1  0  0  0  0  0  0  0  0  0
   24.5992  -22.0236   -9.2479 C   0  0  0  0  0  0  0  0  0  0  0  0
   23.8516  -20.8300   -8.1279 S   0  0  0  0  0  0  0  0  0  0  0  0
   24.7046  -20.5406  -11.2190 C   0  0  0  0  0  0  0  0  0  0  0  0
   24.0765  -19.4790  -10.8979 O   0  0  0  0  0  0  0  0  0  0  0  0
   24.1648  -20.6650  -14.8871 C   0  0  0  0  0  0  0  0  0  0  0  0
   23.7615  -20.2450  -13.4896 C   0  0  2  0  0  0  0  0  0  0  0  0
   24.5947  -20.9688  -12.5552 N   0  0  0  0  0  0  0  0  0  0  0  0
   22.3474  -20.5827  -13.2198 C   0  0  0  0  0  0  0  0  0  0  0  0
   21.3572  -19.8053  -13.8005 O   0  0  0  0  0  0  0  0  0  0  0  0
   22.0300  -21.5447  -12.4867 O   0  0  0  0  0  0  0  0  0  0  0  0
  2  1  1  0
  3  2  1  0
  4  3  1  0
  4  5  1  0
  5  6  1  1
  7  5  1  0
  7  9  1  0
  8  7  2  0
 10  9  1  0
 10 13  1  0
 10 11  1  1
 12 11  1  0
 13 17  1  0
 13 14  2  0
 16 15  1  6
 16 18  1  0
 17 16  1  0
 18 19  1  0
 20 18  2  0
M  END
$$$$
