MCA.pdb
     RDKit          3D

 20 19  0  0  1  0  0  0  0  0999 V2000
   23.2792  -17.2741  -20.7285 C   0  0  0  0  0  0  0  0  0  0  0  0
   23.2391  -16.1003  -19.3449 S   0  0  0  0  0  0  0  0  0  0  0  0
   23.5896  -14.4468  -19.9800 C   0  0  0  0  0  0  0  0  0  0  0  0
   23.6047  -13.4808  -18.8201 C   0  0  0  0  0  0  0  0  0  0  0  0
   23.8822  -12.0630  -19.2411 C   0  0  2  0  0  0  0  0  0  0  0  0
   25.0822  -11.9165  -20.0194 N   0  0  0  0  0  0  0  0  0  0  0  0
   23.9022  -11.2268  -18.0153 C   0  0  0  0  0  0  0  0  0  0  0  0
   22.9899  -11.3098  -17.1537 O   0  0  0  0  0  0  0  0  0  0  0  0
   24.9686  -10.2937  -17.7749 N   0  0  0  0  0  0  0  0  0  0  0  0
   25.0546   -9.6112  -16.4907 C   0  0  1  0  0  0  0  0  0  0  0  0
   26.5255   -9.5144  -16.1093 C   0  0  0  0  0  0  0  0  0  0  0  0
   27.0258  -11.0703  -15.3563 S   0  0  0  0  0  0  0  0  0  0  0  0
   24.4794   -8.2540  -16.6748 C   0  0  0  0  0  0  0  0  0  0  0  0
   24.7773   -7.5545  -17.6978 O   0  0  0  0  0  0  0  0  0  0  0  0
   21.7213   -6.2954  -15.1989 C   0  0  0  0  0  0  0  0  0  0  0  0
   23.0045   -6.3835  -15.9976 C   0  0  2  0  0  0  0  0  0  0  0  0
   23.5913   -7.6809  -15.7454 N   0  0  0  0  0  0  0  0  0  0  0  0
   23.9656   -5.3416  -15.5769 C   0  0  0  0  0  0  0  0  0  0  0  0
   23.9414   -4.1160  -16.2247 O   0  0  0  0  0  0  0  0  0  0  0  0
   24.7908   -5.5411  -14.6588 O   0  0  0  0  0  0  0  0  0  0  0  0
  2  1  1  0
  3  2  1  0
  4  3  1  0
  4  5  1  0
  5  6  1  1
  7  5  1  0
  7  9  1  0
  8  7  2  0
 10  9  1  0
 10 13  1  0
 10 11  1  6
 12 11  1  0
 13 17  1  0
 13 14  2  0
 16 15  1  1
 16 18  1  0
 17 16  1  0
 18 19  1  0
 20 18  2  0
M  END
$$$$
