MCA.pdb
     RDKit          3D

 20 19  0  0  1  0  0  0  0  0999 V2000
   21.8448  -17.4267  -14.8758 C   0  0  0  0  0  0  0  0  0  0  0  0
   20.0614  -17.5103  -14.5497 S   0  0  0  0  0  0  0  0  0  0  0  0
   19.1867  -16.7177  -15.9161 C   0  0  0  0  0  0  0  0  0  0  0  0
   19.9362  -15.4659  -16.3036 C   0  0  0  0  0  0  0  0  0  0  0  0
   19.3210  -14.7535  -17.4775 C   0  0  2  0  0  0  0  0  0  0  0  0
   19.3003  -15.5379  -18.6825 N   0  0  0  0  0  0  0  0  0  0  0  0
   20.0464  -13.4711  -17.6546 C   0  0  0  0  0  0  0  0  0  0  0  0
   21.1581  -13.4257  -18.2407 O   0  0  0  0  0  0  0  0  0  0  0  0
   19.4984  -12.2380  -17.1599 N   0  0  0  0  0  0  0  0  0  0  0  0
   20.1691  -10.9794  -17.4576 C   0  0  1  0  0  0  0  0  0  0  0  0
   19.4380  -10.3228  -18.6208 C   0  0  0  0  0  0  0  0  0  0  0  0
   17.6774  -10.2965  -18.2495 S   0  0  0  0  0  0  0  0  0  0  0  0
   20.0712  -10.1309  -16.2422 C   0  0  0  0  0  0  0  0  0  0  0  0
   19.0355  -10.1739  -15.5005 O   0  0  0  0  0  0  0  0  0  0  0  0
   22.2988   -7.8182  -14.3634 C   0  0  0  0  0  0  0  0  0  0  0  0
   20.9457   -8.4181  -14.6821 C   0  0  2  0  0  0  0  0  0  0  0  0
   21.0991   -9.2515  -15.8540 N   0  0  0  0  0  0  0  0  0  0  0  0
   19.9532   -7.3634  -14.9803 C   0  0  0  0  0  0  0  0  0  0  0  0
   19.6089   -7.1311  -16.3030 O   0  0  0  0  0  0  0  0  0  0  0  0
   19.4237   -6.6843  -14.0736 O   0  0  0  0  0  0  0  0  0  0  0  0
  2  1  1  0
  3  2  1  0
  4  3  1  0
  4  5  1  0
  5  6  1  6
  7  5  1  0
  7  9  1  0
  8  7  2  0
 10  9  1  0
 10 13  1  0
 10 11  1  6
 12 11  1  0
 13 17  1  0
 13 14  2  0
 16 15  1  6
 16 18  1  0
 17 16  1  0
 18 19  1  0
 20 18  2  0
M  END
$$$$
