MCA.pdb
     RDKit          3D

 20 19  0  0  1  0  0  0  0  0999 V2000
   18.9135   -9.3167  -16.9895 C   0  0  0  0  0  0  0  0  0  0  0  0
   17.4807   -8.8949  -15.9586 S   0  0  0  0  0  0  0  0  0  0  0  0
   17.5689   -9.8498  -14.4286 C   0  0  0  0  0  0  0  0  0  0  0  0
   16.4074   -9.4548  -13.5491 C   0  0  0  0  0  0  0  0  0  0  0  0
   16.3641  -10.2215  -12.2551 C   0  0  2  0  0  0  0  0  0  0  0  0
   15.9206  -11.5811  -12.4044 N   0  0  0  0  0  0  0  0  0  0  0  0
   15.5170   -9.4553  -11.3077 C   0  0  0  0  0  0  0  0  0  0  0  0
   14.3054   -9.7444  -11.1350 O   0  0  0  0  0  0  0  0  0  0  0  0
   16.0578   -8.3560  -10.5562 N   0  0  0  0  0  0  0  0  0  0  0  0
   15.1765   -7.5482   -9.7236 C   0  0  1  0  0  0  0  0  0  0  0  0
   15.7161   -7.5820   -8.3001 C   0  0  0  0  0  0  0  0  0  0  0  0
   14.6934   -6.5146   -7.2741 S   0  0  0  0  0  0  0  0  0  0  0  0
   15.2160   -6.1623  -10.2571 C   0  0  0  0  0  0  0  0  0  0  0  0
   16.3288   -5.5746  -10.4594 O   0  0  0  0  0  0  0  0  0  0  0  0
   12.7314   -3.7143  -11.5648 C   0  0  0  0  0  0  0  0  0  0  0  0
   14.1332   -4.1332  -11.1752 C   0  0  2  0  0  0  0  0  0  0  0  0
   14.0471   -5.4398  -10.5615 N   0  0  0  0  0  0  0  0  0  0  0  0
   14.7177   -3.1907  -10.1973 C   0  0  0  0  0  0  0  0  0  0  0  0
   15.4481   -2.1115  -10.6708 O   0  0  0  0  0  0  0  0  0  0  0  0
   14.5684   -3.3453   -8.9655 O   0  0  0  0  0  0  0  0  0  0  0  0
  2  1  1  0
  3  2  1  0
  4  3  1  0
  4  5  1  0
  5  6  1  6
  7  5  1  0
  7  9  1  0
  8  7  2  0
 10  9  1  0
 10 13  1  0
 10 11  1  1
 12 11  1  0
 13 17  1  0
 13 14  2  0
 16 15  1  1
 16 18  1  0
 17 16  1  0
 18 19  1  0
 20 18  2  0
M  END
$$$$
