MCA.pdb
     RDKit          3D

 20 19  0  0  1  0  0  0  0  0999 V2000
   14.5702  -30.6998   -0.9029 C   0  0  0  0  0  0  0  0  0  0  0  0
   16.3020  -30.7529   -1.4432 S   0  0  0  0  0  0  0  0  0  0  0  0
   16.3621  -30.4429   -3.2210 C   0  0  0  0  0  0  0  0  0  0  0  0
   15.9303  -29.0188   -3.4744 C   0  0  0  0  0  0  0  0  0  0  0  0
   15.8982  -28.6670   -4.9370 C   0  0  2  0  0  0  0  0  0  0  0  0
   17.0130  -29.1884   -5.6806 N   0  0  0  0  0  0  0  0  0  0  0  0
   15.7951  -27.1903   -5.0411 C   0  0  0  0  0  0  0  0  0  0  0  0
   15.0598  -26.5309   -4.2626 O   0  0  0  0  0  0  0  0  0  0  0  0
   16.5351  -26.4665   -6.0383 N   0  0  0  0  0  0  0  0  0  0  0  0
   16.5110  -25.0098   -6.0390 C   0  0  1  0  0  0  0  0  0  0  0  0
   17.7785  -24.5208   -6.7266 C   0  0  0  0  0  0  0  0  0  0  0  0
   19.2000  -25.1070   -5.7920 S   0  0  0  0  0  0  0  0  0  0  0  0
   15.3120  -24.5904   -6.8093 C   0  0  0  0  0  0  0  0  0  0  0  0
   15.0303  -25.1397   -7.9245 O   0  0  0  0  0  0  0  0  0  0  0  0
   12.4055  -22.3301   -6.2943 C   0  0  0  0  0  0  0  0  0  0  0  0
   13.3195  -23.1640   -7.1668 C   0  0  2  0  0  0  0  0  0  0  0  0
   14.4407  -23.5827   -6.3551 N   0  0  0  0  0  0  0  0  0  0  0  0
   13.8319  -22.3749   -8.3075 C   0  0  0  0  0  0  0  0  0  0  0  0
   15.1064  -21.8360   -8.2222 O   0  0  0  0  0  0  0  0  0  0  0  0
   13.1466  -22.1858   -9.3361 O   0  0  0  0  0  0  0  0  0  0  0  0
  2  1  1  0
  3  2  1  0
  4  3  1  0
  4  5  1  0
  5  6  1  6
  7  5  1  0
  7  9  1  0
  8  7  2  0
 10  9  1  0
 10 13  1  0
 10 11  1  6
 12 11  1  0
 13 17  1  0
 13 14  2  0
 16 15  1  1
 16 18  1  0
 17 16  1  0
 18 19  1  0
 20 18  2  0
M  END
$$$$
