MEF.pdb
     RDKit          3D

 29 29  0  0  1  0  0  0  0  0999 V2000
   30.9252  -16.1433  -17.4603 C   0  0  0  0  0  0  0  0  0  0  0  0
   30.4461  -17.8132  -17.9866 S   0  0  0  0  0  0  0  0  0  0  0  0
   28.8932  -17.7978  -18.8669 C   0  0  0  0  0  0  0  0  0  0  0  0
   27.7183  -17.4025  -18.0165 C   0  0  0  0  0  0  0  0  0  0  0  0
   27.4021  -18.4214  -16.9487 C   0  0  2  0  0  0  0  0  0  0  0  0
   27.5615  -19.7796  -17.4375 N   0  0  0  0  0  0  0  0  0  0  0  0
   26.0092  -18.2791  -16.4502 C   0  0  0  0  0  0  0  0  0  0  0  0
   25.5527  -17.1614  -16.0735 O   0  0  0  0  0  0  0  0  0  0  0  0
   25.1242  -19.3944  -16.3735 N   0  0  0  0  0  0  0  0  0  0  0  0
   23.7489  -19.2493  -15.8719 C   0  0  1  0  0  0  0  0  0  0  0  0
   22.8660  -19.8763  -16.8960 C   0  0  0  0  0  0  0  0  0  0  0  0
   21.4084  -19.8813  -16.5919 C   0  0  0  0  0  0  0  0  0  0  0  0
   20.5745  -20.5796  -17.5951 C   0  0  0  0  0  0  0  0  0  0  0  0
   19.8580  -21.5685  -17.3076 O   0  0  0  0  0  0  0  0  0  0  0  0
   23.6709  -20.0524  -14.6156 C   0  0  0  0  0  0  0  0  0  0  0  0
   24.0277  -21.2603  -14.7188 O   0  0  0  0  0  0  0  0  0  0  0  0
   20.6229  -20.0755  -18.9073 O   0  0  0  0  0  0  0  0  0  0  0  0
   23.2263  -19.4862  -13.4014 N   0  0  0  0  0  0  0  0  0  0  0  0
   23.0413  -20.2941  -12.2236 C   0  0  1  0  0  0  0  0  0  0  0  0
   24.0301  -19.8623  -11.1947 C   0  0  0  0  0  0  0  0  0  0  0  0
   25.4336  -20.2306  -11.5033 C   0  0  0  0  0  0  0  0  0  0  0  0
   25.9510  -21.4091  -11.0179 C   0  0  0  0  0  0  0  0  0  0  0  0
   27.2565  -21.7431  -11.3130 C   0  0  0  0  0  0  0  0  0  0  0  0
   28.0855  -20.9514  -12.0781 C   0  0  0  0  0  0  0  0  0  0  0  0
   27.5522  -19.7761  -12.5557 C   0  0  0  0  0  0  0  0  0  0  0  0
   26.2510  -19.4317  -12.2683 C   0  0  0  0  0  0  0  0  0  0  0  0
   21.6341  -20.2671  -11.7935 C   0  0  0  0  0  0  0  0  0  0  0  0
   20.7281  -19.3676  -12.3345 O   0  0  0  0  0  0  0  0  0  0  0  0
   21.2113  -21.0601  -10.9210 O   0  0  0  0  0  0  0  0  0  0  0  0
  2  1  1  0
  3  4  1  0
  3  2  1  0
  4  5  1  0
  5  6  1  6
  7  8  2  0
  7  5  1  0
  9  7  1  0
 10  9  1  0
 10 11  1  6
 12 13  1  0
 12 11  1  0
 13 14  2  0
 15 10  1  0
 16 15  2  0
 17 13  1  0
 18 15  1  0
 19 18  1  0
 19 20  1  1
 20 21  1  0
 21 26  2  0
 21 22  1  0
 22 23  2  0
 23 24  1  0
 25 24  2  0
 26 25  1  0
 27 19  1  0
 28 27  1  0
 29 27  2  0
M  END
$$$$
