MEF.pdb
     RDKit          3D

 29 29  0  0  1  0  0  0  0  0999 V2000
   20.8870  -13.7642  -13.7572 C   0  0  0  0  0  0  0  0  0  0  0  0
   21.4247  -14.9947  -14.9787 S   0  0  0  0  0  0  0  0  0  0  0  0
   21.1142  -14.4360  -16.6454 C   0  0  0  0  0  0  0  0  0  0  0  0
   21.6298  -13.0522  -16.9267 C   0  0  0  0  0  0  0  0  0  0  0  0
   21.3417  -12.5979  -18.3369 C   0  0  2  0  0  0  0  0  0  0  0  0
   22.2549  -13.1993  -19.2927 N   0  0  0  0  0  0  0  0  0  0  0  0
   21.4520  -11.1218  -18.4709 C   0  0  0  0  0  0  0  0  0  0  0  0
   22.4860  -10.5771  -18.9543 O   0  0  0  0  0  0  0  0  0  0  0  0
   20.3986  -10.2524  -18.0613 N   0  0  0  0  0  0  0  0  0  0  0  0
   20.4916   -8.7957  -18.2438 C   0  0  1  0  0  0  0  0  0  0  0  0
   19.1771   -8.3626  -18.7969 C   0  0  0  0  0  0  0  0  0  0  0  0
   19.0343   -6.9097  -19.0897 C   0  0  0  0  0  0  0  0  0  0  0  0
   17.8599   -6.2687  -18.4579 C   0  0  0  0  0  0  0  0  0  0  0  0
   17.8171   -5.0417  -18.2001 O   0  0  0  0  0  0  0  0  0  0  0  0
   20.6545   -8.2090  -16.8805 C   0  0  0  0  0  0  0  0  0  0  0  0
   20.0241   -8.7966  -15.9562 O   0  0  0  0  0  0  0  0  0  0  0  0
   16.7759   -7.1122  -18.1546 O   0  0  0  0  0  0  0  0  0  0  0  0
   21.4622   -7.0735  -16.6549 N   0  0  0  0  0  0  0  0  0  0  0  0
   21.5518   -6.4672  -15.3515 C   0  0  1  0  0  0  0  0  0  0  0  0
   22.9470   -6.6278  -14.8510 C   0  0  0  0  0  0  0  0  0  0  0  0
   23.3786   -8.0374  -14.6857 C   0  0  0  0  0  0  0  0  0  0  0  0
   24.3082   -8.5707  -15.5482 C   0  0  0  0  0  0  0  0  0  0  0  0
   24.7043   -9.8819  -15.3839 C   0  0  0  0  0  0  0  0  0  0  0  0
   24.2147  -10.7012  -14.3898 C   0  0  0  0  0  0  0  0  0  0  0  0
   23.2858  -10.1520  -13.5358 C   0  0  0  0  0  0  0  0  0  0  0  0
   22.8825   -8.8450  -13.6892 C   0  0  0  0  0  0  0  0  0  0  0  0
   21.0528   -5.0832  -15.3894 C   0  0  0  0  0  0  0  0  0  0  0  0
   20.8857   -4.3411  -14.2301 O   0  0  0  0  0  0  0  0  0  0  0  0
   20.7625   -4.5321  -16.4761 O   0  0  0  0  0  0  0  0  0  0  0  0
  2  1  1  0
  3  4  1  0
  3  2  1  0
  4  5  1  0
  5  6  1  6
  7  8  2  0
  7  5  1  0
  9  7  1  0
 10  9  1  0
 10 11  1  1
 12 13  1  0
 12 11  1  0
 13 14  2  0
 15 10  1  0
 16 15  2  0
 17 13  1  0
 18 15  1  0
 19 18  1  0
 19 20  1  6
 20 21  1  0
 21 26  2  0
 21 22  1  0
 22 23  2  0
 23 24  1  0
 25 24  2  0
 26 25  1  0
 27 19  1  0
 28 27  1  0
 29 27  2  0
M  END
$$$$
