MEF.pdb
     RDKit          3D

 29 29  0  0  1  0  0  0  0  0999 V2000
   17.8864  -18.3157  -21.2804 C   0  0  0  0  0  0  0  0  0  0  0  0
   18.9208  -16.8393  -21.0677 S   0  0  0  0  0  0  0  0  0  0  0  0
   18.4532  -15.9215  -19.6097 C   0  0  0  0  0  0  0  0  0  0  0  0
   19.3403  -14.7414  -19.3261 C   0  0  0  0  0  0  0  0  0  0  0  0
   18.8911  -13.9502  -18.1217 C   0  0  2  0  0  0  0  0  0  0  0  0
   17.4517  -14.0172  -17.9407 N   0  0  0  0  0  0  0  0  0  0  0  0
   19.2680  -12.5170  -18.2353 C   0  0  0  0  0  0  0  0  0  0  0  0
   20.4639  -12.1624  -18.4442 O   0  0  0  0  0  0  0  0  0  0  0  0
   18.3003  -11.4769  -18.1142 N   0  0  0  0  0  0  0  0  0  0  0  0
   18.6677  -10.0631  -18.2885 C   0  0  1  0  0  0  0  0  0  0  0  0
   17.4585   -9.3850  -18.8354 C   0  0  0  0  0  0  0  0  0  0  0  0
   17.3488   -9.3341  -20.3195 C   0  0  0  0  0  0  0  0  0  0  0  0
   18.2183   -8.3258  -20.9650 C   0  0  0  0  0  0  0  0  0  0  0  0
   18.0114   -7.0924  -20.8657 O   0  0  0  0  0  0  0  0  0  0  0  0
   18.9413   -9.5266  -16.9223 C   0  0  0  0  0  0  0  0  0  0  0  0
   18.2935  -10.0713  -15.9838 O   0  0  0  0  0  0  0  0  0  0  0  0
   19.3051   -8.8219  -21.7074 O   0  0  0  0  0  0  0  0  0  0  0  0
   19.8646   -8.4804  -16.7090 N   0  0  0  0  0  0  0  0  0  0  0  0
   20.0804   -7.9302  -15.3955 C   0  0  1  0  0  0  0  0  0  0  0  0
   21.4747   -8.2480  -14.9737 C   0  0  0  0  0  0  0  0  0  0  0  0
   21.8601   -7.6792  -13.6590 C   0  0  0  0  0  0  0  0  0  0  0  0
   22.2265   -6.3563  -13.5702 C   0  0  0  0  0  0  0  0  0  0  0  0
   22.5808   -5.8370  -12.3423 C   0  0  0  0  0  0  0  0  0  0  0  0
   22.5890   -6.5790  -11.1809 C   0  0  0  0  0  0  0  0  0  0  0  0
   22.2199   -7.9004  -11.2875 C   0  0  0  0  0  0  0  0  0  0  0  0
   21.8642   -8.4304  -12.5069 C   0  0  0  0  0  0  0  0  0  0  0  0
   19.7251   -6.5024  -15.3680 C   0  0  0  0  0  0  0  0  0  0  0  0
   20.1112   -5.6398  -16.3826 O   0  0  0  0  0  0  0  0  0  0  0  0
   19.0602   -6.0216  -14.4216 O   0  0  0  0  0  0  0  0  0  0  0  0
  2  1  1  0
  3  4  1  0
  3  2  1  0
  4  5  1  0
  5  6  1  6
  7  8  2  0
  7  5  1  0
  9  7  1  0
 10  9  1  0
 10 11  1  1
 12 13  1  0
 12 11  1  0
 13 14  2  0
 15 10  1  0
 16 15  2  0
 17 13  1  0
 18 15  1  0
 19 18  1  0
 19 20  1  6
 20 21  1  0
 21 26  2  0
 21 22  1  0
 22 23  2  0
 23 24  1  0
 25 24  2  0
 26 25  1  0
 27 19  1  0
 28 27  1  0
 29 27  2  0
M  END
$$$$
