MEF.pdb
     RDKit          3D

 29 29  0  0  1  0  0  0  0  0999 V2000
   21.1006  -18.1193   -0.7923 C   0  0  0  0  0  0  0  0  0  0  0  0
   20.6003  -17.1840    0.6809 S   0  0  0  0  0  0  0  0  0  0  0  0
   19.0932  -17.8334    1.3834 C   0  0  0  0  0  0  0  0  0  0  0  0
   18.7248  -17.2159    2.7036 C   0  0  0  0  0  0  0  0  0  0  0  0
   17.4647  -17.8036    3.2910 C   0  0  2  0  0  0  0  0  0  0  0  0
   16.2755  -17.2952    2.6303 N   0  0  0  0  0  0  0  0  0  0  0  0
   17.3426  -17.5011    4.7410 C   0  0  0  0  0  0  0  0  0  0  0  0
   16.5038  -16.6586    5.1724 O   0  0  0  0  0  0  0  0  0  0  0  0
   18.1643  -18.1458    5.7117 N   0  0  0  0  0  0  0  0  0  0  0  0
   17.9870  -17.9008    7.1514 C   0  0  1  0  0  0  0  0  0  0  0  0
   18.1497  -19.2229    7.8199 C   0  0  0  0  0  0  0  0  0  0  0  0
   16.9434  -20.0952    7.8525 C   0  0  0  0  0  0  0  0  0  0  0  0
   17.1440  -21.3951    8.5303 C   0  0  0  0  0  0  0  0  0  0  0  0
   17.4309  -22.4451    7.9064 O   0  0  0  0  0  0  0  0  0  0  0  0
   19.1106  -17.0109    7.5696 C   0  0  0  0  0  0  0  0  0  0  0  0
   20.2061  -17.1983    6.9682 O   0  0  0  0  0  0  0  0  0  0  0  0
   16.9958  -21.3995    9.9290 O   0  0  0  0  0  0  0  0  0  0  0  0
   18.9447  -16.0303    8.5713 N   0  0  0  0  0  0  0  0  0  0  0  0
   20.0216  -15.1471    8.9382 C   0  0  1  0  0  0  0  0  0  0  0  0
   19.5105  -13.7466    8.9207 C   0  0  0  0  0  0  0  0  0  0  0  0
   19.5245  -13.1075    7.5820 C   0  0  0  0  0  0  0  0  0  0  0  0
   18.4190  -13.2050    6.7691 C   0  0  0  0  0  0  0  0  0  0  0  0
   18.4419  -12.6049    5.5272 C   0  0  0  0  0  0  0  0  0  0  0  0
   19.5256  -11.9022    5.0463 C   0  0  0  0  0  0  0  0  0  0  0  0
   20.6229  -11.8143    5.8721 C   0  0  0  0  0  0  0  0  0  0  0  0
   20.6124  -12.4087    7.1135 C   0  0  0  0  0  0  0  0  0  0  0  0
   20.6345  -15.5769   10.2052 C   0  0  0  0  0  0  0  0  0  0  0  0
   21.9719  -15.3368   10.4815 O   0  0  0  0  0  0  0  0  0  0  0  0
   19.9623  -16.1759   11.0759 O   0  0  0  0  0  0  0  0  0  0  0  0
  2  1  1  0
  3  4  1  0
  3  2  1  0
  4  5  1  0
  5  6  1  6
  7  8  2  0
  7  5  1  0
  9  7  1  0
 10  9  1  0
 10 11  1  1
 12 13  1  0
 12 11  1  0
 13 14  2  0
 15 10  1  0
 16 15  2  0
 17 13  1  0
 18 15  1  0
 19 18  1  0
 19 20  1  1
 20 21  1  0
 21 26  2  0
 21 22  1  0
 22 23  2  0
 23 24  1  0
 25 24  2  0
 26 25  1  0
 27 19  1  0
 28 27  1  0
 29 27  2  0
M  END
$$$$
