MEF.pdb
     RDKit          3D

 29 29  0  0  1  0  0  0  0  0999 V2000
   32.6237  -22.1367   -8.9926 C   0  0  0  0  0  0  0  0  0  0  0  0
   32.8049  -22.9313  -10.6147 S   0  0  0  0  0  0  0  0  0  0  0  0
   32.5717  -21.7611  -11.9424 C   0  0  0  0  0  0  0  0  0  0  0  0
   31.3135  -20.9477  -11.8192 C   0  0  0  0  0  0  0  0  0  0  0  0
   30.2237  -21.4139  -12.7538 C   0  0  2  0  0  0  0  0  0  0  0  0
   30.5521  -21.1399  -14.1417 N   0  0  0  0  0  0  0  0  0  0  0  0
   28.9259  -20.7537  -12.4556 C   0  0  0  0  0  0  0  0  0  0  0  0
   28.8210  -19.4944  -12.4044 O   0  0  0  0  0  0  0  0  0  0  0  0
   27.7406  -21.5084  -12.2137 N   0  0  0  0  0  0  0  0  0  0  0  0
   26.4739  -20.8528  -11.8536 C   0  0  1  0  0  0  0  0  0  0  0  0
   25.4136  -21.5351  -12.6483 C   0  0  0  0  0  0  0  0  0  0  0  0
   24.0192  -21.0633  -12.4244 C   0  0  0  0  0  0  0  0  0  0  0  0
   23.7207  -19.7341  -13.0019 C   0  0  0  0  0  0  0  0  0  0  0  0
   24.1860  -19.3564  -14.1041 O   0  0  0  0  0  0  0  0  0  0  0  0
   26.2469  -21.1395  -10.4059 C   0  0  0  0  0  0  0  0  0  0  0  0
   26.3241  -22.3563  -10.0734 O   0  0  0  0  0  0  0  0  0  0  0  0
   22.8775  -18.8999  -12.2460 O   0  0  0  0  0  0  0  0  0  0  0  0
   25.9659  -20.1095   -9.4825 N   0  0  0  0  0  0  0  0  0  0  0  0
   25.7212  -20.3980   -8.0928 C   0  0  1  0  0  0  0  0  0  0  0  0
   26.1289  -19.2126   -7.2856 C   0  0  0  0  0  0  0  0  0  0  0  0
   27.1131  -19.5104   -6.2164 C   0  0  0  0  0  0  0  0  0  0  0  0
   26.7687  -20.3600   -5.1908 C   0  0  0  0  0  0  0  0  0  0  0  0
   27.6924  -20.6320   -4.2031 C   0  0  0  0  0  0  0  0  0  0  0  0
   28.9606  -20.0930   -4.1842 C   0  0  0  0  0  0  0  0  0  0  0  0
   29.2889  -19.2453   -5.2173 C   0  0  0  0  0  0  0  0  0  0  0  0
   28.3762  -18.9661   -6.2089 C   0  0  0  0  0  0  0  0  0  0  0  0
   24.3339  -20.8470   -7.8940 C   0  0  0  0  0  0  0  0  0  0  0  0
   23.3708  -20.6821   -8.8779 O   0  0  0  0  0  0  0  0  0  0  0  0
   23.9803  -21.3939   -6.8242 O   0  0  0  0  0  0  0  0  0  0  0  0
  2  1  1  0
  3  4  1  0
  3  2  1  0
  4  5  1  0
  5  6  1  6
  7  8  2  0
  7  5  1  0
  9  7  1  0
 10  9  1  0
 10 11  1  6
 12 13  1  0
 12 11  1  0
 13 14  2  0
 15 10  1  0
 16 15  2  0
 17 13  1  0
 18 15  1  0
 19 18  1  0
 19 20  1  1
 20 21  1  0
 21 26  2  0
 21 22  1  0
 22 23  2  0
 23 24  1  0
 25 24  2  0
 26 25  1  0
 27 19  1  0
 28 27  1  0
 29 27  2  0
M  END
$$$$
