MEF.pdb
     RDKit          3D

 29 29  0  0  1  0  0  0  0  0999 V2000
   21.5830  -16.6956  -17.4585 C   0  0  0  0  0  0  0  0  0  0  0  0
   22.5774  -16.7209  -18.9770 S   0  0  0  0  0  0  0  0  0  0  0  0
   23.9883  -15.6348  -18.8493 C   0  0  0  0  0  0  0  0  0  0  0  0
   23.6263  -14.1993  -18.5876 C   0  0  0  0  0  0  0  0  0  0  0  0
   23.1792  -13.4741  -19.8336 C   0  0  2  0  0  0  0  0  0  0  0  0
   24.2693  -13.3064  -20.7785 N   0  0  0  0  0  0  0  0  0  0  0  0
   22.6396  -12.1254  -19.5193 C   0  0  0  0  0  0  0  0  0  0  0  0
   23.3997  -11.1231  -19.3885 O   0  0  0  0  0  0  0  0  0  0  0  0
   21.2419  -11.8992  -19.3509 N   0  0  0  0  0  0  0  0  0  0  0  0
   20.7045  -10.5474  -19.1320 C   0  0  1  0  0  0  0  0  0  0  0  0
   19.2819  -10.5903  -19.5744 C   0  0  0  0  0  0  0  0  0  0  0  0
   19.0445  -11.0129  -20.9822 C   0  0  0  0  0  0  0  0  0  0  0  0
   18.0131  -12.0617  -21.1426 C   0  0  0  0  0  0  0  0  0  0  0  0
   16.8052  -11.8697  -20.8631 O   0  0  0  0  0  0  0  0  0  0  0  0
   20.7410  -10.3123  -17.6579 C   0  0  0  0  0  0  0  0  0  0  0  0
   20.4900  -11.3212  -16.9395 O   0  0  0  0  0  0  0  0  0  0  0  0
   18.4564  -13.3040  -21.6309 O   0  0  0  0  0  0  0  0  0  0  0  0
   21.0377   -9.0423  -17.1180 N   0  0  0  0  0  0  0  0  0  0  0  0
   20.9904   -8.8041  -15.6983 C   0  0  1  0  0  0  0  0  0  0  0  0
   22.3782   -8.5516  -15.2155 C   0  0  0  0  0  0  0  0  0  0  0  0
   22.4689   -8.1835  -13.7813 C   0  0  0  0  0  0  0  0  0  0  0  0
   22.3689   -6.8629  -13.4094 C   0  0  0  0  0  0  0  0  0  0  0  0
   22.4521   -6.5318  -12.0728 C   0  0  0  0  0  0  0  0  0  0  0  0
   22.6325   -7.4627  -11.0727 C   0  0  0  0  0  0  0  0  0  0  0  0
   22.7305   -8.7791  -11.4619 C   0  0  0  0  0  0  0  0  0  0  0  0
   22.6490   -9.1222  -12.7923 C   0  0  0  0  0  0  0  0  0  0  0  0
   20.0134   -7.7498  -15.3828 C   0  0  0  0  0  0  0  0  0  0  0  0
   19.7599   -6.7095  -16.2639 O   0  0  0  0  0  0  0  0  0  0  0  0
   19.3788   -7.7610  -14.3030 O   0  0  0  0  0  0  0  0  0  0  0  0
  2  1  1  0
  3  4  1  0
  3  2  1  0
  4  5  1  0
  5  6  1  6
  7  8  2  0
  7  5  1  0
  9  7  1  0
 10  9  1  0
 10 11  1  1
 12 13  1  0
 12 11  1  0
 13 14  2  0
 15 10  1  0
 16 15  2  0
 17 13  1  0
 18 15  1  0
 19 18  1  0
 19 20  1  6
 20 21  1  0
 21 26  2  0
 21 22  1  0
 22 23  2  0
 23 24  1  0
 25 24  2  0
 26 25  1  0
 27 19  1  0
 28 27  1  0
 29 27  2  0
M  END
$$$$
