MEF.pdb
     RDKit          3D

 29 29  0  0  1  0  0  0  0  0999 V2000
   29.7295  -16.4771  -15.5468 C   0  0  0  0  0  0  0  0  0  0  0  0
   29.3040  -17.6152  -16.8955 S   0  0  0  0  0  0  0  0  0  0  0  0
   27.9408  -18.6765  -16.4459 C   0  0  0  0  0  0  0  0  0  0  0  0
   27.4330  -18.4517  -15.0490 C   0  0  0  0  0  0  0  0  0  0  0  0
   27.4330  -19.7121  -14.2185 C   0  0  2  0  0  0  0  0  0  0  0  0
   26.6815  -20.7776  -14.8583 N   0  0  0  0  0  0  0  0  0  0  0  0
   26.8413  -19.4833  -12.8745 C   0  0  0  0  0  0  0  0  0  0  0  0
   27.1743  -18.4902  -12.1658 O   0  0  0  0  0  0  0  0  0  0  0  0
   25.8721  -20.3716  -12.3224 N   0  0  0  0  0  0  0  0  0  0  0  0
   25.2177  -20.0891  -11.0355 C   0  0  1  0  0  0  0  0  0  0  0  0
   23.8628  -20.7049  -11.1156 C   0  0  0  0  0  0  0  0  0  0  0  0
   22.8471  -19.9567  -11.9066 C   0  0  0  0  0  0  0  0  0  0  0  0
   21.7437  -20.7899  -12.4334 C   0  0  0  0  0  0  0  0  0  0  0  0
   20.7642  -21.1369  -11.7305 O   0  0  0  0  0  0  0  0  0  0  0  0
   26.0094  -20.8070   -9.9928 C   0  0  0  0  0  0  0  0  0  0  0  0
   26.4253  -21.9548  -10.3195 O   0  0  0  0  0  0  0  0  0  0  0  0
   21.8451  -21.1813  -13.7806 O   0  0  0  0  0  0  0  0  0  0  0  0
   26.2677  -20.2292   -8.7311 N   0  0  0  0  0  0  0  0  0  0  0  0
   26.9662  -20.9584   -7.7041 C   0  0  1  0  0  0  0  0  0  0  0  0
   28.3295  -20.3738   -7.5540 C   0  0  0  0  0  0  0  0  0  0  0  0
   28.5760  -19.7264   -6.2423 C   0  0  0  0  0  0  0  0  0  0  0  0
   28.1323  -18.4430   -6.0220 C   0  0  0  0  0  0  0  0  0  0  0  0
   28.3647  -17.8513   -4.7977 C   0  0  0  0  0  0  0  0  0  0  0  0
   29.0262  -18.4818   -3.7662 C   0  0  0  0  0  0  0  0  0  0  0  0
   29.4632  -19.7651   -4.0031 C   0  0  0  0  0  0  0  0  0  0  0  0
   29.2375  -20.3664   -5.2204 C   0  0  0  0  0  0  0  0  0  0  0  0
   26.1652  -21.0103   -6.4706 C   0  0  0  0  0  0  0  0  0  0  0  0
   26.4971  -21.8597   -5.4262 O   0  0  0  0  0  0  0  0  0  0  0  0
   25.1541  -20.2850   -6.3275 O   0  0  0  0  0  0  0  0  0  0  0  0
  2  1  1  0
  3  4  1  0
  3  2  1  0
  4  5  1  0
  5  6  1  6
  7  8  2  0
  7  5  1  0
  9  7  1  0
 10  9  1  0
 10 11  1  6
 12 13  1  0
 12 11  1  0
 13 14  2  0
 15 10  1  0
 16 15  2  0
 17 13  1  0
 18 15  1  0
 19 18  1  0
 19 20  1  1
 20 21  1  0
 21 26  2  0
 21 22  1  0
 22 23  2  0
 23 24  1  0
 25 24  2  0
 26 25  1  0
 27 19  1  0
 28 27  1  0
 29 27  2  0
M  END
$$$$
