MEF.pdb
     RDKit          3D

 29 29  0  0  1  0  0  0  0  0999 V2000
   31.9901  -18.6174  -20.1582 C   0  0  0  0  0  0  0  0  0  0  0  0
   30.5318  -18.5973  -19.0773 S   0  0  0  0  0  0  0  0  0  0  0  0
   30.4038  -17.0561  -18.1857 C   0  0  0  0  0  0  0  0  0  0  0  0
   29.2237  -16.9896  -17.2568 C   0  0  0  0  0  0  0  0  0  0  0  0
   28.5182  -18.3163  -17.1141 C   0  0  2  0  0  0  0  0  0  0  0  0
   27.7697  -18.6587  -18.3106 N   0  0  0  0  0  0  0  0  0  0  0  0
   27.5689  -18.3125  -15.9706 C   0  0  0  0  0  0  0  0  0  0  0  0
   27.9357  -17.9762  -14.8079 O   0  0  0  0  0  0  0  0  0  0  0  0
   26.2026  -18.6873  -16.1309 N   0  0  0  0  0  0  0  0  0  0  0  0
   25.2368  -18.5561  -15.0291 C   0  0  1  0  0  0  0  0  0  0  0  0
   23.9061  -18.3472  -15.6671 C   0  0  0  0  0  0  0  0  0  0  0  0
   22.7305  -18.3602  -14.7534 C   0  0  0  0  0  0  0  0  0  0  0  0
   21.4366  -18.0792  -15.4139 C   0  0  0  0  0  0  0  0  0  0  0  0
   21.1745  -16.9724  -15.9431 O   0  0  0  0  0  0  0  0  0  0  0  0
   25.2265  -19.8691  -14.3182 C   0  0  0  0  0  0  0  0  0  0  0  0
   25.3224  -20.8893  -15.0579 O   0  0  0  0  0  0  0  0  0  0  0  0
   20.4986  -19.1273  -15.4212 O   0  0  0  0  0  0  0  0  0  0  0  0
   25.1164  -19.9494  -12.9133 N   0  0  0  0  0  0  0  0  0  0  0  0
   25.0627  -21.2211  -12.2393 C   0  0  1  0  0  0  0  0  0  0  0  0
   26.2775  -21.3545  -11.3852 C   0  0  0  0  0  0  0  0  0  0  0  0
   26.1772  -20.6764  -10.0696 C   0  0  0  0  0  0  0  0  0  0  0  0
   25.4259  -21.2435   -9.0665 C   0  0  0  0  0  0  0  0  0  0  0  0
   25.3414  -20.6057   -7.8462 C   0  0  0  0  0  0  0  0  0  0  0  0
   25.9763  -19.4141   -7.5698 C   0  0  0  0  0  0  0  0  0  0  0  0
   26.7237  -18.8606   -8.5841 C   0  0  0  0  0  0  0  0  0  0  0  0
   26.8159  -19.4872   -9.8061 C   0  0  0  0  0  0  0  0  0  0  0  0
   23.7795  -21.3804  -11.5366 C   0  0  0  0  0  0  0  0  0  0  0  0
   23.2874  -22.6326  -11.2014 O   0  0  0  0  0  0  0  0  0  0  0  0
   23.0902  -20.3840  -11.2193 O   0  0  0  0  0  0  0  0  0  0  0  0
  2  1  1  0
  3  4  1  0
  3  2  1  0
  4  5  1  0
  5  6  1  6
  7  8  2  0
  7  5  1  0
  9  7  1  0
 10  9  1  0
 10 11  1  6
 12 13  1  0
 12 11  1  0
 13 14  2  0
 15 10  1  0
 16 15  2  0
 17 13  1  0
 18 15  1  0
 19 18  1  0
 19 20  1  1
 20 21  1  0
 21 26  2  0
 21 22  1  0
 22 23  2  0
 23 24  1  0
 25 24  2  0
 26 25  1  0
 27 19  1  0
 28 27  1  0
 29 27  2  0
M  END
$$$$
