MEF.pdb
     RDKit          3D

 29 29  0  0  1  0  0  0  0  0999 V2000
   16.9766  -14.9068  -21.0067 C   0  0  0  0  0  0  0  0  0  0  0  0
   17.4076  -13.1495  -20.8599 S   0  0  0  0  0  0  0  0  0  0  0  0
   18.1254  -12.7864  -19.2663 C   0  0  0  0  0  0  0  0  0  0  0  0
   18.4334  -11.3298  -19.0581 C   0  0  0  0  0  0  0  0  0  0  0  0
   19.1187  -11.0611  -17.7403 C   0  0  2  0  0  0  0  0  0  0  0  0
   18.2363  -11.3118  -16.6144 N   0  0  0  0  0  0  0  0  0  0  0  0
   19.5893   -9.6547  -17.6437 C   0  0  0  0  0  0  0  0  0  0  0  0
   20.3404   -9.1467  -18.5253 O   0  0  0  0  0  0  0  0  0  0  0  0
   19.2165   -8.8140  -16.5540 N   0  0  0  0  0  0  0  0  0  0  0  0
   19.5193   -7.3744  -16.5573 C   0  0  1  0  0  0  0  0  0  0  0  0
   18.5997   -6.7552  -15.5611 C   0  0  0  0  0  0  0  0  0  0  0  0
   17.5509   -5.8513  -16.1087 C   0  0  0  0  0  0  0  0  0  0  0  0
   16.6938   -5.2141  -15.0845 C   0  0  0  0  0  0  0  0  0  0  0  0
   15.7699   -4.4175  -15.3773 O   0  0  0  0  0  0  0  0  0  0  0  0
   20.9221   -7.2371  -16.0645 C   0  0  0  0  0  0  0  0  0  0  0  0
   21.4081   -8.2647  -15.5124 O   0  0  0  0  0  0  0  0  0  0  0  0
   16.9672   -5.5481  -13.7458 O   0  0  0  0  0  0  0  0  0  0  0  0
   21.6442   -6.0333  -16.2128 N   0  0  0  0  0  0  0  0  0  0  0  0
   23.0749   -5.9954  -16.0512 C   0  0  1  0  0  0  0  0  0  0  0  0
   23.6810   -6.9986  -16.9727 C   0  0  0  0  0  0  0  0  0  0  0  0
   25.1516   -6.8784  -17.1252 C   0  0  0  0  0  0  0  0  0  0  0  0
   25.9163   -8.0126  -17.2710 C   0  0  0  0  0  0  0  0  0  0  0  0
   27.2827   -7.8893  -17.4146 C   0  0  0  0  0  0  0  0  0  0  0  0
   27.9363   -6.6759  -17.4205 C   0  0  0  0  0  0  0  0  0  0  0  0
   27.1566   -5.5515  -17.2736 C   0  0  0  0  0  0  0  0  0  0  0  0
   25.7923   -5.6614  -17.1296 C   0  0  0  0  0  0  0  0  0  0  0  0
   23.5762   -4.6200  -16.2018 C   0  0  0  0  0  0  0  0  0  0  0  0
   24.4781   -4.0747  -15.3008 O   0  0  0  0  0  0  0  0  0  0  0  0
   23.2005   -3.8974  -17.1533 O   0  0  0  0  0  0  0  0  0  0  0  0
  2  1  1  0
  3  4  1  0
  3  2  1  0
  4  5  1  0
  5  6  1  1
  7  8  2  0
  7  5  1  0
  9  7  1  0
 10  9  1  0
 10 11  1  1
 12 13  1  0
 12 11  1  0
 13 14  2  0
 15 10  1  0
 16 15  2  0
 17 13  1  0
 18 15  1  0
 19 18  1  0
 19 20  1  6
 20 21  1  0
 21 26  2  0
 21 22  1  0
 22 23  2  0
 23 24  1  0
 25 24  2  0
 26 25  1  0
 27 19  1  0
 28 27  1  0
 29 27  2  0
M  END
$$$$
