MEF.pdb
     RDKit          3D

 29 29  0  0  1  0  0  0  0  0999 V2000
   16.5975  -13.9781   -9.7315 C   0  0  0  0  0  0  0  0  0  0  0  0
   16.5350  -12.1793   -9.9673 S   0  0  0  0  0  0  0  0  0  0  0  0
   16.6765  -11.7437  -11.6927 C   0  0  0  0  0  0  0  0  0  0  0  0
   16.8060  -10.2659  -11.9360 C   0  0  0  0  0  0  0  0  0  0  0  0
   15.6583   -9.4763  -11.3549 C   0  0  2  0  0  0  0  0  0  0  0  0
   14.4033   -9.7855  -12.0169 N   0  0  0  0  0  0  0  0  0  0  0  0
   15.8848   -8.0121  -11.4726 C   0  0  0  0  0  0  0  0  0  0  0  0
   15.6233   -7.3863  -12.5400 O   0  0  0  0  0  0  0  0  0  0  0  0
   16.4067   -7.2461  -10.3891 N   0  0  0  0  0  0  0  0  0  0  0  0
   16.7062   -5.8134  -10.5367 C   0  0  1  0  0  0  0  0  0  0  0  0
   16.0905   -5.1379   -9.3594 C   0  0  0  0  0  0  0  0  0  0  0  0
   14.6327   -4.8506   -9.4552 C   0  0  0  0  0  0  0  0  0  0  0  0
   14.0688   -4.1408   -8.2858 C   0  0  0  0  0  0  0  0  0  0  0  0
   14.7683   -3.7955   -7.3032 O   0  0  0  0  0  0  0  0  0  0  0  0
   18.1904   -5.6807  -10.4433 C   0  0  0  0  0  0  0  0  0  0  0  0
   18.6971   -6.0053   -9.3320 O   0  0  0  0  0  0  0  0  0  0  0  0
   12.6898   -3.8665   -8.3271 O   0  0  0  0  0  0  0  0  0  0  0  0
   18.9626   -5.2218  -11.5322 N   0  0  0  0  0  0  0  0  0  0  0  0
   20.4019   -5.2225  -11.4807 C   0  0  1  0  0  0  0  0  0  0  0  0
   20.8686   -6.6311  -11.3361 C   0  0  0  0  0  0  0  0  0  0  0  0
   20.7561   -7.4423  -12.5731 C   0  0  0  0  0  0  0  0  0  0  0  0
   20.1104   -8.6564  -12.5352 C   0  0  0  0  0  0  0  0  0  0  0  0
   20.0094   -9.4014  -13.6917 C   0  0  0  0  0  0  0  0  0  0  0  0
   20.5263   -8.9930  -14.9023 C   0  0  0  0  0  0  0  0  0  0  0  0
   21.1689   -7.7762  -14.9227 C   0  0  0  0  0  0  0  0  0  0  0  0
   21.2762   -7.0235  -13.7754 C   0  0  0  0  0  0  0  0  0  0  0  0
   20.9610   -4.4895  -12.6278 C   0  0  0  0  0  0  0  0  0  0  0  0
   22.3012   -4.1376  -12.6795 O   0  0  0  0  0  0  0  0  0  0  0  0
   20.2385   -4.1600  -13.5964 O   0  0  0  0  0  0  0  0  0  0  0  0
  2  1  1  0
  3  4  1  0
  3  2  1  0
  4  5  1  0
  5  6  1  6
  7  8  2  0
  7  5  1  0
  9  7  1  0
 10  9  1  0
 10 11  1  1
 12 13  1  0
 12 11  1  0
 13 14  2  0
 15 10  1  0
 16 15  2  0
 17 13  1  0
 18 15  1  0
 19 18  1  0
 19 20  1  6
 20 21  1  0
 21 26  2  0
 21 22  1  0
 22 23  2  0
 23 24  1  0
 25 24  2  0
 26 25  1  0
 27 19  1  0
 28 27  1  0
 29 27  2  0
M  END
$$$$
