MEF.pdb
     RDKit          3D

 29 29  0  0  1  0  0  0  0  0999 V2000
   20.8834   -3.4983  -23.4043 C   0  0  0  0  0  0  0  0  0  0  0  0
   20.2848   -3.6753  -21.6997 S   0  0  0  0  0  0  0  0  0  0  0  0
   19.3598   -5.1873  -21.4883 C   0  0  0  0  0  0  0  0  0  0  0  0
   18.8513   -5.3961  -20.0891 C   0  0  0  0  0  0  0  0  0  0  0  0
   18.0255   -6.6519  -19.9500 C   0  0  2  0  0  0  0  0  0  0  0  0
   16.8113   -6.5877  -20.7441 N   0  0  0  0  0  0  0  0  0  0  0  0
   17.6318   -6.8957  -18.5377 C   0  0  0  0  0  0  0  0  0  0  0  0
   16.5458   -6.4495  -18.0676 O   0  0  0  0  0  0  0  0  0  0  0  0
   18.4590   -7.6427  -17.6485 N   0  0  0  0  0  0  0  0  0  0  0  0
   18.0640   -7.8815  -16.2517 C   0  0  1  0  0  0  0  0  0  0  0  0
   18.2742   -9.3361  -16.0044 C   0  0  0  0  0  0  0  0  0  0  0  0
   17.9155   -9.8300  -14.6463 C   0  0  0  0  0  0  0  0  0  0  0  0
   18.0798  -11.2887  -14.4603 C   0  0  0  0  0  0  0  0  0  0  0  0
   19.1181  -11.7946  -13.9706 O   0  0  0  0  0  0  0  0  0  0  0  0
   19.0203   -7.1084  -15.4047 C   0  0  0  0  0  0  0  0  0  0  0  0
   18.7732   -7.1094  -14.1653 O   0  0  0  0  0  0  0  0  0  0  0  0
   17.0006  -12.0952  -14.8645 O   0  0  0  0  0  0  0  0  0  0  0  0
   20.1220   -6.4271  -15.9654 N   0  0  0  0  0  0  0  0  0  0  0  0
   21.0417   -5.6869  -15.1404 C   0  0  1  0  0  0  0  0  0  0  0  0
   22.3978   -6.2886  -15.2879 C   0  0  0  0  0  0  0  0  0  0  0  0
   22.4648   -7.7332  -14.9576 C   0  0  0  0  0  0  0  0  0  0  0  0
   22.4717   -8.1313  -13.6408 C   0  0  0  0  0  0  0  0  0  0  0  0
   22.5317   -9.4773  -13.3449 C   0  0  0  0  0  0  0  0  0  0  0  0
   22.5861  -10.4619  -14.3077 C   0  0  0  0  0  0  0  0  0  0  0  0
   22.5783  -10.0465  -15.6196 C   0  0  0  0  0  0  0  0  0  0  0  0
   22.5186   -8.7065  -15.9279 C   0  0  0  0  0  0  0  0  0  0  0  0
   20.9571   -4.2474  -15.4345 C   0  0  0  0  0  0  0  0  0  0  0  0
   21.7387   -3.3226  -14.7590 O   0  0  0  0  0  0  0  0  0  0  0  0
   20.1720   -3.8130  -16.3083 O   0  0  0  0  0  0  0  0  0  0  0  0
  2  1  1  0
  3  4  1  0
  3  2  1  0
  4  5  1  0
  5  6  1  6
  7  8  2  0
  7  5  1  0
  9  7  1  0
 10  9  1  0
 10 11  1  1
 12 13  1  0
 12 11  1  0
 13 14  2  0
 15 10  1  0
 16 15  2  0
 17 13  1  0
 18 15  1  0
 19 18  1  0
 19 20  1  6
 20 21  1  0
 21 26  2  0
 21 22  1  0
 22 23  2  0
 23 24  1  0
 25 24  2  0
 26 25  1  0
 27 19  1  0
 28 27  1  0
 29 27  2  0
M  END
$$$$
