MEF.pdb
     RDKit          3D

 29 29  0  0  1  0  0  0  0  0999 V2000
   15.1456  -11.9901  -22.5387 C   0  0  0  0  0  0  0  0  0  0  0  0
   15.2318  -13.5667  -21.6430 S   0  0  0  0  0  0  0  0  0  0  0  0
   14.7693  -13.3684  -19.9303 C   0  0  0  0  0  0  0  0  0  0  0  0
   15.1350  -12.0286  -19.3550 C   0  0  0  0  0  0  0  0  0  0  0  0
   15.6434  -12.1218  -17.9369 C   0  0  2  0  0  0  0  0  0  0  0  0
   14.7035  -12.8145  -17.0732 N   0  0  0  0  0  0  0  0  0  0  0  0
   15.8902  -10.7774  -17.3533 C   0  0  0  0  0  0  0  0  0  0  0  0
   16.6132   -9.9233  -17.9425 O   0  0  0  0  0  0  0  0  0  0  0  0
   15.3241  -10.3887  -16.1036 N   0  0  0  0  0  0  0  0  0  0  0  0
   15.4636   -9.0165  -15.5920 C   0  0  1  0  0  0  0  0  0  0  0  0
   14.3383   -8.8144  -14.6358 C   0  0  0  0  0  0  0  0  0  0  0  0
   13.0203   -8.4689  -15.2362 C   0  0  0  0  0  0  0  0  0  0  0  0
   11.9157   -8.3409  -14.2601 C   0  0  0  0  0  0  0  0  0  0  0  0
   11.6408   -9.2397  -13.4292 O   0  0  0  0  0  0  0  0  0  0  0  0
   16.7494   -8.9774  -14.8340 C   0  0  0  0  0  0  0  0  0  0  0  0
   17.0463  -10.0360  -14.2109 O   0  0  0  0  0  0  0  0  0  0  0  0
   11.1760   -7.1455  -14.3075 O   0  0  0  0  0  0  0  0  0  0  0  0
   17.5678   -7.8274  -14.8236 N   0  0  0  0  0  0  0  0  0  0  0  0
   18.7929   -7.7888  -14.0672 C   0  0  1  0  0  0  0  0  0  0  0  0
   19.8936   -8.3153  -14.9240 C   0  0  0  0  0  0  0  0  0  0  0  0
   21.2448   -8.1995  -14.3229 C   0  0  0  0  0  0  0  0  0  0  0  0
   21.7563   -9.2455  -13.5903 C   0  0  0  0  0  0  0  0  0  0  0  0
   23.0148   -9.1283  -13.0377 C   0  0  0  0  0  0  0  0  0  0  0  0
   23.8017   -8.0058  -13.1795 C   0  0  0  0  0  0  0  0  0  0  0  0
   23.2751   -6.9689  -13.9152 C   0  0  0  0  0  0  0  0  0  0  0  0
   22.0207   -7.0737  -14.4717 C   0  0  0  0  0  0  0  0  0  0  0  0
   19.0162   -6.4441  -13.5125 C   0  0  0  0  0  0  0  0  0  0  0  0
   18.5308   -5.3096  -14.1447 O   0  0  0  0  0  0  0  0  0  0  0  0
   19.6553   -6.2842  -12.4472 O   0  0  0  0  0  0  0  0  0  0  0  0
  2  1  1  0
  3  4  1  0
  3  2  1  0
  4  5  1  0
  5  6  1  1
  7  8  2  0
  7  5  1  0
  9  7  1  0
 10  9  1  0
 10 11  1  1
 12 13  1  0
 12 11  1  0
 13 14  2  0
 15 10  1  0
 16 15  2  0
 17 13  1  0
 18 15  1  0
 19 18  1  0
 19 20  1  6
 20 21  1  0
 21 26  2  0
 21 22  1  0
 22 23  2  0
 23 24  1  0
 25 24  2  0
 26 25  1  0
 27 19  1  0
 28 27  1  0
 29 27  2  0
M  END
$$$$
