SWR.pdb
     RDKit          3D

 32 33  0  0  1  0  0  0  0  0999 V2000
    7.9909  -16.9939   19.9868 O   0  0  0  0  0  0  0  0  0  0  0  0
    6.7375  -16.5660   20.4112 C   0  0  0  0  0  0  0  0  0  0  0  0
    6.8277  -15.1684   21.0372 C   0  0  2  0  0  0  0  0  0  0  0  0
    6.9761  -14.2644   19.8848 N   0  0  0  0  0  0  0  0  0  0  0  0
    8.0608  -15.1094   21.8809 C   0  0  0  0  0  0  0  0  0  0  0  0
    9.1024  -14.5513   21.4990 O   0  0  0  0  0  0  0  0  0  0  0  0
    8.0440  -15.7043   23.1506 N   0  0  0  0  0  0  0  0  0  0  0  0
    8.9991  -15.7831   24.1745 C   0  0  1  0  0  0  0  0  0  0  0  0
    8.5294  -15.8705   25.6043 C   0  0  0  0  0  0  0  0  0  0  0  0
    7.4226  -14.8967   25.9048 C   0  0  0  0  0  0  0  0  0  0  0  0
    6.0710  -15.1386   25.9135 C   0  0  0  0  0  0  0  0  0  0  0  0
    5.4637  -13.9829   26.2044 N   0  0  0  0  0  0  0  0  0  0  0  0
    6.3978  -13.0027   26.3834 C   0  0  0  0  0  0  0  0  0  0  0  0
    6.3100  -11.6710   26.6906 C   0  0  0  0  0  0  0  0  0  0  0  0
    7.4662  -10.9014   26.8115 C   0  0  0  0  0  0  0  0  0  0  0  0
    8.7170  -11.4512   26.6275 C   0  0  0  0  0  0  0  0  0  0  0  0
    8.7961  -12.7902   26.3195 C   0  0  0  0  0  0  0  0  0  0  0  0
    7.6362  -13.5677   26.1970 C   0  0  0  0  0  0  0  0  0  0  0  0
    9.9598  -16.8631   23.9357 C   0  0  0  0  0  0  0  0  0  0  0  0
    9.4874  -17.9860   23.5538 O   0  0  0  0  0  0  0  0  0  0  0  0
   16.5910  -14.5363   19.6883 N   0  0  0  0  0  0  0  0  0  0  0  0
   15.2455  -14.4673   19.2613 C   0  0  0  0  0  0  0  0  0  0  0  0
   14.8740  -13.8815   18.1412 N   0  0  0  0  0  0  0  0  0  0  0  0
   14.1466  -15.0303   19.9950 N   0  0  0  0  0  0  0  0  0  0  0  0
   14.3552  -15.7706   21.1830 C   0  0  0  0  0  0  0  0  0  0  0  0
   13.1580  -16.2935   21.9024 C   0  0  0  0  0  0  0  0  0  0  0  0
   13.4428  -17.1820   23.0638 C   0  0  0  0  0  0  0  0  0  0  0  0
   12.3108  -17.6802   23.8628 C   0  0  2  0  0  0  0  0  0  0  0  0
   11.3267  -16.6262   24.1302 N   0  0  0  0  0  0  0  0  0  0  0  0
   12.7262  -18.1763   25.2303 C   0  0  0  0  0  0  0  0  0  0  0  0
   13.5141  -19.3025   25.3944 O   0  0  0  0  0  0  0  0  0  0  0  0
   12.3820  -17.5922   26.2745 O   0  0  0  0  0  0  0  0  0  0  0  0
  2  1  1  0
  3  2  1  0
  3  4  1  6
  5  6  2  0
  5  3  1  0
  7  5  1  0
  8  7  1  0
  9 10  1  0
  8  9  1  1
 10 11  2  0
 10 18  1  0
 11 12  1  0
 12 13  1  0
 13 14  2  0
 15 14  1  0
 16 15  2  0
 17 18  2  0
 17 16  1  0
 18 13  1  0
 19  8  1  0
 19 29  1  0
 20 19  2  0
 22 21  1  0
 23 22  2  0
 24 22  1  0
 25 26  1  0
 25 24  1  0
 26 27  1  0
 28 27  1  1
 28 29  1  0
 28 30  1  0
 30 31  1  0
 32 30  2  0
M  END
$$$$
