SWR.pdb
     RDKit          3D

 32 33  0  0  1  0  0  0  0  0999 V2000
    7.9101  -17.8030   20.2147 O   0  0  0  0  0  0  0  0  0  0  0  0
    6.6042  -17.4356   20.5212 C   0  0  0  0  0  0  0  0  0  0  0  0
    6.5461  -15.9676   20.9626 C   0  0  2  0  0  0  0  0  0  0  0  0
    6.4993  -15.2114   19.7003 N   0  0  0  0  0  0  0  0  0  0  0  0
    7.8109  -15.6451   21.6920 C   0  0  0  0  0  0  0  0  0  0  0  0
    8.7753  -15.0913   21.1391 O   0  0  0  0  0  0  0  0  0  0  0  0
    7.9155  -15.9781   23.0501 N   0  0  0  0  0  0  0  0  0  0  0  0
    8.9592  -15.8579   23.9792 C   0  0  1  0  0  0  0  0  0  0  0  0
    8.6297  -15.8618   25.4502 C   0  0  0  0  0  0  0  0  0  0  0  0
    7.5114  -14.9144   25.7898 C   0  0  0  0  0  0  0  0  0  0  0  0
    6.1757  -15.2046   25.9202 C   0  0  0  0  0  0  0  0  0  0  0  0
    5.5468  -14.0579   26.2007 N   0  0  0  0  0  0  0  0  0  0  0  0
    6.4514  -13.0361   26.2537 C   0  0  0  0  0  0  0  0  0  0  0  0
    6.3340  -11.6940   26.4993 C   0  0  0  0  0  0  0  0  0  0  0  0
    7.4639  -10.8773   26.4871 C   0  0  0  0  0  0  0  0  0  0  0  0
    8.7176  -11.3901   26.2303 C   0  0  0  0  0  0  0  0  0  0  0  0
    8.8266  -12.7398   25.9850 C   0  0  0  0  0  0  0  0  0  0  0  0
    7.6931  -13.5647   25.9963 C   0  0  0  0  0  0  0  0  0  0  0  0
   10.0140  -16.8458   23.7381 C   0  0  0  0  0  0  0  0  0  0  0  0
    9.6616  -17.9540   23.2115 O   0  0  0  0  0  0  0  0  0  0  0  0
   16.4727  -14.4486   18.9854 N   0  0  0  0  0  0  0  0  0  0  0  0
   15.1126  -14.3553   19.3585 C   0  0  0  0  0  0  0  0  0  0  0  0
   14.2221  -13.6697   18.6709 N   0  0  0  0  0  0  0  0  0  0  0  0
   14.5578  -14.9988   20.5165 N   0  0  0  0  0  0  0  0  0  0  0  0
   13.6564  -16.0834   20.3965 C   0  0  0  0  0  0  0  0  0  0  0  0
   12.5574  -16.1954   21.3984 C   0  0  0  0  0  0  0  0  0  0  0  0
   12.5185  -17.4687   22.1706 C   0  0  0  0  0  0  0  0  0  0  0  0
   12.4398  -17.3988   23.6393 C   0  0  2  0  0  0  0  0  0  0  0  0
   11.3365  -16.5418   24.0858 N   0  0  0  0  0  0  0  0  0  0  0  0
   13.6761  -16.7956   24.2689 C   0  0  0  0  0  0  0  0  0  0  0  0
   13.6145  -15.6772   25.0821 O   0  0  0  0  0  0  0  0  0  0  0  0
   14.8091  -17.2794   24.0883 O   0  0  0  0  0  0  0  0  0  0  0  0
  2  1  1  0
  3  2  1  0
  3  4  1  6
  5  6  2  0
  5  3  1  0
  7  5  1  0
  8  7  1  0
  9 10  1  0
  8  9  1  1
 10 11  2  0
 10 18  1  0
 11 12  1  0
 12 13  1  0
 13 14  2  0
 15 14  1  0
 16 15  2  0
 17 18  2  0
 17 16  1  0
 18 13  1  0
 19  8  1  0
 19 29  1  0
 20 19  2  0
 22 21  1  0
 23 22  2  0
 24 22  1  0
 25 26  1  0
 25 24  1  0
 26 27  1  0
 28 27  1  6
 28 29  1  0
 28 30  1  0
 30 31  1  0
 32 30  2  0
M  END
$$$$
