SWR.pdb
     RDKit          3D

 32 33  0  0  1  0  0  0  0  0999 V2000
    7.1509  -19.0325   20.2631 O   0  0  0  0  0  0  0  0  0  0  0  0
    6.7207  -17.8280   19.7169 C   0  0  0  0  0  0  0  0  0  0  0  0
    7.8917  -16.8456   19.5871 C   0  0  2  0  0  0  0  0  0  0  0  0
    8.8568  -17.5447   18.7227 N   0  0  0  0  0  0  0  0  0  0  0  0
    8.4893  -16.6439   20.9428 C   0  0  0  0  0  0  0  0  0  0  0  0
    9.4530  -17.3124   21.3513 O   0  0  0  0  0  0  0  0  0  0  0  0
    7.9449  -15.6649   21.7862 N   0  0  0  0  0  0  0  0  0  0  0  0
    8.2744  -15.2375   23.0807 C   0  0  1  0  0  0  0  0  0  0  0  0
    7.5325  -14.0662   23.6725 C   0  0  0  0  0  0  0  0  0  0  0  0
    7.9582  -13.7724   25.0853 C   0  0  0  0  0  0  0  0  0  0  0  0
    9.0700  -14.2401   25.7415 C   0  0  0  0  0  0  0  0  0  0  0  0
    9.0335  -13.7463   26.9840 N   0  0  0  0  0  0  0  0  0  0  0  0
    7.9207  -12.9699   27.1399 C   0  0  0  0  0  0  0  0  0  0  0  0
    7.4220  -12.2494   28.1923 C   0  0  0  0  0  0  0  0  0  0  0  0
    6.2327  -11.5355   28.0526 C   0  0  0  0  0  0  0  0  0  0  0  0
    5.5316  -11.5337   26.8655 C   0  0  0  0  0  0  0  0  0  0  0  0
    6.0401  -12.2600   25.8130 C   0  0  0  0  0  0  0  0  0  0  0  0
    7.2356  -12.9793   25.9490 C   0  0  0  0  0  0  0  0  0  0  0  0
    8.2362  -16.3431   24.0411 C   0  0  0  0  0  0  0  0  0  0  0  0
    7.1047  -16.8996   24.2406 O   0  0  0  0  0  0  0  0  0  0  0  0
   11.1155  -19.9330   20.0030 N   0  0  0  0  0  0  0  0  0  0  0  0
   12.2111  -20.0008   20.8934 C   0  0  0  0  0  0  0  0  0  0  0  0
   13.4649  -20.0440   20.4912 N   0  0  0  0  0  0  0  0  0  0  0  0
   12.0760  -20.0232   22.3231 N   0  0  0  0  0  0  0  0  0  0  0  0
   10.8855  -20.4702   22.9444 C   0  0  0  0  0  0  0  0  0  0  0  0
    9.9651  -19.4448   23.5151 C   0  0  0  0  0  0  0  0  0  0  0  0
   10.2753  -19.0040   24.9039 C   0  0  0  0  0  0  0  0  0  0  0  0
    9.4437  -17.9507   25.5100 C   0  0  2  0  0  0  0  0  0  0  0  0
    9.4153  -16.7374   24.6866 N   0  0  0  0  0  0  0  0  0  0  0  0
    9.9604  -17.4918   26.8558 C   0  0  0  0  0  0  0  0  0  0  0  0
   10.6097  -16.2802   27.0185 O   0  0  0  0  0  0  0  0  0  0  0  0
    9.8225  -18.1813   27.8833 O   0  0  0  0  0  0  0  0  0  0  0  0
  2  1  1  0
  3  2  1  0
  3  4  1  6
  5  6  2  0
  5  3  1  0
  7  5  1  0
  8  7  1  0
  9 10  1  0
  8  9  1  1
 10 11  2  0
 10 18  1  0
 11 12  1  0
 12 13  1  0
 13 14  2  0
 15 14  1  0
 16 15  2  0
 17 18  2  0
 17 16  1  0
 18 13  1  0
 19  8  1  0
 19 29  1  0
 20 19  2  0
 22 21  1  0
 23 22  2  0
 24 22  1  0
 25 26  1  0
 25 24  1  0
 26 27  1  0
 28 27  1  6
 28 29  1  0
 28 30  1  0
 30 31  1  0
 32 30  2  0
M  END
$$$$
