SWR.pdb
     RDKit          3D

 32 33  0  0  1  0  0  0  0  0999 V2000
    7.9954  -20.8725   23.1929 O   0  0  0  0  0  0  0  0  0  0  0  0
    6.9606  -20.8229   24.1208 C   0  0  0  0  0  0  0  0  0  0  0  0
    6.1005  -19.5713   23.9035 C   0  0  2  0  0  0  0  0  0  0  0  0
    5.2174  -19.9293   22.7812 N   0  0  0  0  0  0  0  0  0  0  0  0
    6.9988  -18.4482   23.4942 C   0  0  0  0  0  0  0  0  0  0  0  0
    7.0981  -18.0714   22.3150 O   0  0  0  0  0  0  0  0  0  0  0  0
    7.7578  -17.7938   24.4750 N   0  0  0  0  0  0  0  0  0  0  0  0
    8.6742  -16.7338   24.4155 C   0  0  1  0  0  0  0  0  0  0  0  0
    8.8545  -15.8571   25.6285 C   0  0  0  0  0  0  0  0  0  0  0  0
    7.6085  -15.0855   25.9686 C   0  0  0  0  0  0  0  0  0  0  0  0
    6.3815  -15.5875   26.3260 C   0  0  0  0  0  0  0  0  0  0  0  0
    5.5649  -14.5442   26.5095 N   0  0  0  0  0  0  0  0  0  0  0  0
    6.2423  -13.3812   26.2778 C   0  0  0  0  0  0  0  0  0  0  0  0
    5.8800  -12.0614   26.3262 C   0  0  0  0  0  0  0  0  0  0  0  0
    6.8117  -11.0671   26.0313 C   0  0  0  0  0  0  0  0  0  0  0  0
    8.1095  -11.3789   25.6861 C   0  0  0  0  0  0  0  0  0  0  0  0
    8.4652  -12.7075   25.6403 C   0  0  0  0  0  0  0  0  0  0  0  0
    7.5316  -13.7106   25.9361 C   0  0  0  0  0  0  0  0  0  0  0  0
    9.9948  -17.1854   23.9699 C   0  0  0  0  0  0  0  0  0  0  0  0
   10.4398  -18.2684   24.4785 O   0  0  0  0  0  0  0  0  0  0  0  0
   14.7381  -14.1072   16.9858 N   0  0  0  0  0  0  0  0  0  0  0  0
   15.4557  -14.1827   18.2012 C   0  0  0  0  0  0  0  0  0  0  0  0
   16.5691  -13.5144   18.4233 N   0  0  0  0  0  0  0  0  0  0  0  0
   15.0471  -14.9861   19.3194 N   0  0  0  0  0  0  0  0  0  0  0  0
   13.8596  -15.7552   19.2802 C   0  0  0  0  0  0  0  0  0  0  0  0
   13.5283  -16.5942   20.4678 C   0  0  0  0  0  0  0  0  0  0  0  0
   12.2516  -16.2571   21.1574 C   0  0  0  0  0  0  0  0  0  0  0  0
   11.9223  -16.9574   22.4101 C   0  0  2  0  0  0  0  0  0  0  0  0
   10.6999  -16.4292   23.0247 N   0  0  0  0  0  0  0  0  0  0  0  0
   12.9877  -16.7996   23.4725 C   0  0  0  0  0  0  0  0  0  0  0  0
   14.0796  -17.6469   23.5486 O   0  0  0  0  0  0  0  0  0  0  0  0
   12.9351  -15.8964   24.3278 O   0  0  0  0  0  0  0  0  0  0  0  0
  2  1  1  0
  3  2  1  0
  3  4  1  6
  5  6  2  0
  5  3  1  0
  7  5  1  0
  8  7  1  0
  9 10  1  0
  8  9  1  1
 10 11  2  0
 10 18  1  0
 11 12  1  0
 12 13  1  0
 13 14  2  0
 15 14  1  0
 16 15  2  0
 17 18  2  0
 17 16  1  0
 18 13  1  0
 19  8  1  0
 19 29  1  0
 20 19  2  0
 22 21  1  0
 23 22  2  0
 24 22  1  0
 25 26  1  0
 25 24  1  0
 26 27  1  0
 28 27  1  6
 28 29  1  0
 28 30  1  0
 30 31  1  0
 32 30  2  0
M  END
$$$$
