SWR.pdb
     RDKit          3D

 32 33  0  0  1  0  0  0  0  0999 V2000
    7.0057  -22.4698   22.3690 O   0  0  0  0  0  0  0  0  0  0  0  0
    7.4123  -21.2786   22.9605 C   0  0  0  0  0  0  0  0  0  0  0  0
    6.3640  -20.7917   23.9692 C   0  0  2  0  0  0  0  0  0  0  0  0
    5.1135  -21.4322   23.5294 N   0  0  0  0  0  0  0  0  0  0  0  0
    6.2385  -19.3075   23.8381 C   0  0  0  0  0  0  0  0  0  0  0  0
    5.3549  -18.7727   23.1484 O   0  0  0  0  0  0  0  0  0  0  0  0
    7.1496  -18.4862   24.5175 N   0  0  0  0  0  0  0  0  0  0  0  0
    7.3163  -17.0947   24.5709 C   0  0  1  0  0  0  0  0  0  0  0  0
    7.7174  -16.4582   25.8772 C   0  0  0  0  0  0  0  0  0  0  0  0
    6.8823  -15.2509   26.2070 C   0  0  0  0  0  0  0  0  0  0  0  0
    5.5125  -15.1573   26.2257 C   0  0  0  0  0  0  0  0  0  0  0  0
    5.2062  -13.8947   26.5439 N   0  0  0  0  0  0  0  0  0  0  0  0
    6.3516  -13.1747   26.7307 C   0  0  0  0  0  0  0  0  0  0  0  0
    6.5921  -11.8681   27.0629 C   0  0  0  0  0  0  0  0  0  0  0  0
    7.9014  -11.4051   27.1855 C   0  0  0  0  0  0  0  0  0  0  0  0
    8.9799  -12.2384   26.9783 C   0  0  0  0  0  0  0  0  0  0  0  0
    8.7293  -13.5500   26.6453 C   0  0  0  0  0  0  0  0  0  0  0  0
    7.4143  -14.0198   26.5210 C   0  0  0  0  0  0  0  0  0  0  0  0
    8.2253  -16.6187   23.5252 C   0  0  0  0  0  0  0  0  0  0  0  0
    9.2341  -17.3529   23.2550 O   0  0  0  0  0  0  0  0  0  0  0  0
    7.4721  -15.9599   16.7555 N   0  0  0  0  0  0  0  0  0  0  0  0
    8.0541  -14.7409   16.3394 C   0  0  0  0  0  0  0  0  0  0  0  0
    8.6074  -14.5736   15.1555 N   0  0  0  0  0  0  0  0  0  0  0  0
    8.0988  -13.5597   17.1552 N   0  0  0  0  0  0  0  0  0  0  0  0
    7.5394  -13.5396   18.4551 C   0  0  0  0  0  0  0  0  0  0  0  0
    8.4711  -13.4856   19.6184 C   0  0  0  0  0  0  0  0  0  0  0  0
    7.9138  -13.9715   20.9117 C   0  0  0  0  0  0  0  0  0  0  0  0
    8.5820  -15.0962   21.5875 C   0  0  2  0  0  0  0  0  0  0  0  0
    7.9573  -15.4058   22.8777 N   0  0  0  0  0  0  0  0  0  0  0  0
   10.0302  -14.8099   21.9187 C   0  0  0  0  0  0  0  0  0  0  0  0
   11.0306  -14.8889   20.9653 O   0  0  0  0  0  0  0  0  0  0  0  0
   10.3910  -14.4854   23.0652 O   0  0  0  0  0  0  0  0  0  0  0  0
  2  1  1  0
  3  2  1  0
  3  4  1  6
  5  6  2  0
  5  3  1  0
  7  5  1  0
  8  7  1  0
  9 10  1  0
  8  9  1  1
 10 11  2  0
 10 18  1  0
 11 12  1  0
 12 13  1  0
 13 14  2  0
 15 14  1  0
 16 15  2  0
 17 18  2  0
 17 16  1  0
 18 13  1  0
 19  8  1  0
 19 29  1  0
 20 19  2  0
 22 21  1  0
 23 22  2  0
 24 22  1  0
 25 26  1  0
 25 24  1  0
 26 27  1  0
 28 27  1  1
 28 29  1  0
 28 30  1  0
 30 31  1  0
 32 30  2  0
M  END
$$$$
