SWR.pdb
     RDKit          3D

 32 33  0  0  1  0  0  0  0  0999 V2000
    8.1764  -20.0966   21.5481 O   0  0  0  0  0  0  0  0  0  0  0  0
    8.1333  -19.2031   20.4832 C   0  0  0  0  0  0  0  0  0  0  0  0
    7.5485  -17.8575   20.9313 C   0  0  2  0  0  0  0  0  0  0  0  0
    7.6499  -17.0029   19.7368 N   0  0  0  0  0  0  0  0  0  0  0  0
    8.4164  -17.3051   22.0164 C   0  0  0  0  0  0  0  0  0  0  0  0
    9.5437  -16.8347   21.7923 O   0  0  0  0  0  0  0  0  0  0  0  0
    7.9433  -17.3164   23.3364 N   0  0  0  0  0  0  0  0  0  0  0  0
    8.5147  -16.9159   24.5529 C   0  0  1  0  0  0  0  0  0  0  0  0
    7.6309  -16.2935   25.6035 C   0  0  0  0  0  0  0  0  0  0  0  0
    7.1013  -14.9490   25.1843 C   0  0  0  0  0  0  0  0  0  0  0  0
    6.2240  -14.6731   24.1647 C   0  0  0  0  0  0  0  0  0  0  0  0
    6.0554  -13.3465   24.1355 N   0  0  0  0  0  0  0  0  0  0  0  0
    6.8064  -12.7638   25.1162 C   0  0  0  0  0  0  0  0  0  0  0  0
    6.9891  -11.4643   25.5076 C   0  0  0  0  0  0  0  0  0  0  0  0
    7.8396  -11.1651   26.5711 C   0  0  0  0  0  0  0  0  0  0  0  0
    8.5138  -12.1563   27.2520 C   0  0  0  0  0  0  0  0  0  0  0  0
    8.3240  -13.4595   26.8524 C   0  0  0  0  0  0  0  0  0  0  0  0
    7.4698  -13.7649   25.7836 C   0  0  0  0  0  0  0  0  0  0  0  0
    9.2793  -18.0004   25.1740 C   0  0  0  0  0  0  0  0  0  0  0  0
    8.6618  -19.0970   25.3881 O   0  0  0  0  0  0  0  0  0  0  0  0
   15.6844  -20.3703   22.4592 N   0  0  0  0  0  0  0  0  0  0  0  0
   16.4021  -19.9305   23.5946 C   0  0  0  0  0  0  0  0  0  0  0  0
   17.4203  -19.0974   23.5253 N   0  0  0  0  0  0  0  0  0  0  0  0
   16.0961  -20.3371   24.9377 N   0  0  0  0  0  0  0  0  0  0  0  0
   15.0050  -19.7799   25.6465 C   0  0  0  0  0  0  0  0  0  0  0  0
   13.6262  -20.1385   25.2056 C   0  0  0  0  0  0  0  0  0  0  0  0
   12.6914  -18.9932   25.0224 C   0  0  0  0  0  0  0  0  0  0  0  0
   11.4846  -18.9285   25.8636 C   0  0  2  0  0  0  0  0  0  0  0  0
   10.6264  -17.7963   25.4996 N   0  0  0  0  0  0  0  0  0  0  0  0
   11.7968  -18.7206   27.3292 C   0  0  0  0  0  0  0  0  0  0  0  0
   11.9579  -17.4580   27.8734 O   0  0  0  0  0  0  0  0  0  0  0  0
   11.9202  -19.6763   28.1176 O   0  0  0  0  0  0  0  0  0  0  0  0
  2  1  1  0
  3  2  1  0
  3  4  1  6
  5  6  2  0
  5  3  1  0
  7  5  1  0
  8  7  1  0
  9 10  1  0
  8  9  1  1
 10 11  2  0
 10 18  1  0
 11 12  1  0
 12 13  1  0
 13 14  2  0
 15 14  1  0
 16 15  2  0
 17 18  2  0
 17 16  1  0
 18 13  1  0
 19  8  1  0
 19 29  1  0
 20 19  2  0
 22 21  1  0
 23 22  2  0
 24 22  1  0
 25 26  1  0
 25 24  1  0
 26 27  1  0
 28 27  1  6
 28 29  1  0
 28 30  1  0
 30 31  1  0
 32 30  2  0
M  END
$$$$
