SWR.pdb
     RDKit          3D

 32 33  0  0  1  0  0  0  0  0999 V2000
    5.9427  -18.7419   20.1408 O   0  0  0  0  0  0  0  0  0  0  0  0
    7.0643  -18.1100   20.6669 C   0  0  0  0  0  0  0  0  0  0  0  0
    6.7369  -16.6615   21.0516 C   0  0  2  0  0  0  0  0  0  0  0  0
    6.4069  -16.0127   19.7719 N   0  0  0  0  0  0  0  0  0  0  0  0
    7.9683  -16.0371   21.6257 C   0  0  0  0  0  0  0  0  0  0  0  0
    8.7953  -15.4305   20.9254 O   0  0  0  0  0  0  0  0  0  0  0  0
    8.2009  -16.1377   23.0049 N   0  0  0  0  0  0  0  0  0  0  0  0
    9.3125  -15.8347   23.8045 C   0  0  1  0  0  0  0  0  0  0  0  0
    9.1213  -15.6859   25.2924 C   0  0  0  0  0  0  0  0  0  0  0  0
    7.8864  -14.8980   25.6358 C   0  0  0  0  0  0  0  0  0  0  0  0
    6.6011  -15.3644   25.7617 C   0  0  0  0  0  0  0  0  0  0  0  0
    5.8248  -14.3135   26.0482 N   0  0  0  0  0  0  0  0  0  0  0  0
    6.5852  -13.1807   26.1095 C   0  0  0  0  0  0  0  0  0  0  0  0
    6.2899  -11.8678   26.3635 C   0  0  0  0  0  0  0  0  0  0  0  0
    7.3010  -10.9079   26.3588 C   0  0  0  0  0  0  0  0  0  0  0  0
    8.6121  -11.2475   26.1013 C   0  0  0  0  0  0  0  0  0  0  0  0
    8.9001  -12.5691   25.8475 C   0  0  0  0  0  0  0  0  0  0  0  0
    7.8866  -13.5376   25.8512 C   0  0  0  0  0  0  0  0  0  0  0  0
   10.4172  -16.7682   23.5705 C   0  0  0  0  0  0  0  0  0  0  0  0
   10.1119  -17.9938   23.3850 O   0  0  0  0  0  0  0  0  0  0  0  0
   16.4141  -15.7476   18.8696 N   0  0  0  0  0  0  0  0  0  0  0  0
   15.4767  -14.7129   19.0896 C   0  0  0  0  0  0  0  0  0  0  0  0
   15.7606  -13.4367   18.9270 N   0  0  0  0  0  0  0  0  0  0  0  0
   14.1209  -14.9409   19.5051 N   0  0  0  0  0  0  0  0  0  0  0  0
   13.5530  -16.2372   19.4901 C   0  0  0  0  0  0  0  0  0  0  0  0
   12.7768  -16.6763   20.6855 C   0  0  0  0  0  0  0  0  0  0  0  0
   13.5316  -16.6985   21.9696 C   0  0  0  0  0  0  0  0  0  0  0  0
   12.8434  -17.1720   23.1822 C   0  0  2  0  0  0  0  0  0  0  0  0
   11.7338  -16.2899   23.5587 N   0  0  0  0  0  0  0  0  0  0  0  0
   13.7428  -17.2015   24.3983 C   0  0  0  0  0  0  0  0  0  0  0  0
   14.7943  -18.0944   24.5120 O   0  0  0  0  0  0  0  0  0  0  0  0
   13.5823  -16.4202   25.3544 O   0  0  0  0  0  0  0  0  0  0  0  0
  2  1  1  0
  3  2  1  0
  3  4  1  6
  5  6  2  0
  5  3  1  0
  7  5  1  0
  8  7  1  0
  9 10  1  0
  8  9  1  1
 10 11  2  0
 10 18  1  0
 11 12  1  0
 12 13  1  0
 13 14  2  0
 15 14  1  0
 16 15  2  0
 17 18  2  0
 17 16  1  0
 18 13  1  0
 19  8  1  0
 19 29  1  0
 20 19  2  0
 22 21  1  0
 23 22  2  0
 24 22  1  0
 25 26  1  0
 25 24  1  0
 26 27  1  0
 28 27  1  6
 28 29  1  0
 28 30  1  0
 30 31  1  0
 32 30  2  0
M  END
$$$$
