EVE.pdb
     RDKit          3D

 26 25  0  0  1  0  0  0  0  0999 V2000
   19.1925  -13.5124  -16.7380 N   0  0  0  0  0  0  0  0  0  0  0  0
   19.2958  -12.1063  -17.0612 C   0  0  1  0  0  0  0  0  0  0  0  0
   17.9242  -11.5426  -17.2264 C   0  0  0  0  0  0  0  0  0  0  0  0
   17.2258  -12.0922  -18.4426 C   0  0  0  0  0  0  0  0  0  0  0  0
   17.5748  -11.3753  -19.6869 C   0  0  0  0  0  0  0  0  0  0  0  0
   17.7688  -10.1432  -19.6454 O   0  0  0  0  0  0  0  0  0  0  0  0
   20.0528  -11.3774  -15.9654 C   0  0  0  0  0  0  0  0  0  0  0  0
   19.7525  -11.6142  -14.7727 O   0  0  0  0  0  0  0  0  0  0  0  0
   17.6943  -12.0265  -20.9009 O   0  0  0  0  0  0  0  0  0  0  0  0
   23.3319  -11.6988  -15.2094 C   0  0  0  0  0  0  0  0  0  0  0  0
   23.3500  -10.1756  -15.4258 C   0  0  1  0  0  0  0  0  0  0  0  0
   23.8919  -10.0600  -16.8552 C   0  0  0  0  0  0  0  0  0  0  0  0
   21.9184   -9.6855  -15.4166 C   0  0  2  0  0  0  0  0  0  0  0  0
   21.0571  -10.4680  -16.2854 N   0  0  0  0  0  0  0  0  0  0  0  0
   21.7181   -8.2712  -15.5997 C   0  0  0  0  0  0  0  0  0  0  0  0
   21.1650   -7.9014  -16.7214 O   0  0  0  0  0  0  0  0  0  0  0  0
   22.0139   -7.1874  -14.7601 N   0  0  0  0  0  0  0  0  0  0  0  0
   21.6679   -5.7983  -15.0413 C   0  0  1  0  0  0  0  0  0  0  0  0
   20.2027   -5.7484  -15.3624 C   0  0  0  0  0  0  0  0  0  0  0  0
   19.6945   -4.3735  -15.6718 C   0  0  0  0  0  0  0  0  0  0  0  0
   18.2322   -4.4058  -15.8099 C   0  0  0  0  0  0  0  0  0  0  0  0
   17.6368   -5.3385  -16.3580 O   0  0  0  0  0  0  0  0  0  0  0  0
   21.9996   -4.9175  -13.8939 C   0  0  0  0  0  0  0  0  0  0  0  0
   22.1401   -5.3796  -12.7496 O   0  0  0  0  0  0  0  0  0  0  0  0
   17.4867   -3.3337  -15.2985 O   0  0  0  0  0  0  0  0  0  0  0  0
   22.1529   -3.5654  -14.1063 O   0  0  0  0  0  0  0  0  0  0  0  0
  2  1  1  1
  2  3  1  0
  4  5  1  0
  4  3  1  0
  5  6  2  0
  7  2  1  0
  8  7  2  0
  9  5  1  0
 11 10  1  6
 11 13  1  0
 12 11  1  0
 13 14  1  6
 14  7  1  0
 15 13  1  0
 15 16  2  0
 17 15  1  0
 18 19  1  1
 18 17  1  0
 20 21  1  0
 20 19  1  0
 21 22  2  0
 23 18  1  0
 24 23  2  0
 25 21  1  0
 26 23  1  0
M  END
$$$$
