EVE.pdb
     RDKit          3D

 26 25  0  0  1  0  0  0  0  0999 V2000
   19.9441  -13.5639  -16.8580 N   0  0  0  0  0  0  0  0  0  0  0  0
   19.6755  -12.1434  -16.9050 C   0  0  1  0  0  0  0  0  0  0  0  0
   18.2000  -11.9251  -16.8637 C   0  0  0  0  0  0  0  0  0  0  0  0
   17.5038  -12.5140  -18.0628 C   0  0  0  0  0  0  0  0  0  0  0  0
   16.0687  -12.1677  -18.1297 C   0  0  0  0  0  0  0  0  0  0  0  0
   15.5500  -11.5373  -17.1858 O   0  0  0  0  0  0  0  0  0  0  0  0
   20.3588  -11.4484  -15.7410 C   0  0  0  0  0  0  0  0  0  0  0  0
   19.9653  -11.7021  -14.5794 O   0  0  0  0  0  0  0  0  0  0  0  0
   15.2777  -12.5199  -19.2080 O   0  0  0  0  0  0  0  0  0  0  0  0
   23.7173  -11.5388  -14.7323 C   0  0  0  0  0  0  0  0  0  0  0  0
   23.5819  -10.0214  -14.9485 C   0  0  1  0  0  0  0  0  0  0  0  0
   24.2006   -9.8380  -16.3391 C   0  0  0  0  0  0  0  0  0  0  0  0
   22.1077   -9.6916  -15.0343 C   0  0  2  0  0  0  0  0  0  0  0  0
   21.3988  -10.5508  -15.9662 N   0  0  0  0  0  0  0  0  0  0  0  0
   21.7652   -8.3053  -15.2203 C   0  0  0  0  0  0  0  0  0  0  0  0
   21.6792   -7.8865  -16.4524 O   0  0  0  0  0  0  0  0  0  0  0  0
   21.4925   -7.2952  -14.2861 N   0  0  0  0  0  0  0  0  0  0  0  0
   21.3320   -5.8822  -14.6115 C   0  0  1  0  0  0  0  0  0  0  0  0
   19.8650   -5.6168  -14.7843 C   0  0  0  0  0  0  0  0  0  0  0  0
   19.5416   -4.1986  -15.1428 C   0  0  0  0  0  0  0  0  0  0  0  0
   18.0914   -4.0534  -15.3284 C   0  0  0  0  0  0  0  0  0  0  0  0
   17.3120   -5.0076  -15.2458 O   0  0  0  0  0  0  0  0  0  0  0  0
   21.9167   -5.0167  -13.5573 C   0  0  0  0  0  0  0  0  0  0  0  0
   22.1558   -5.4605  -12.4220 O   0  0  0  0  0  0  0  0  0  0  0  0
   17.5759   -2.7801  -15.6105 O   0  0  0  0  0  0  0  0  0  0  0  0
   22.1970   -3.6998  -13.8470 O   0  0  0  0  0  0  0  0  0  0  0  0
  2  1  1  1
  2  3  1  0
  4  5  1  0
  4  3  1  0
  5  6  2  0
  7  2  1  0
  8  7  2  0
  9  5  1  0
 11 10  1  6
 11 13  1  0
 12 11  1  0
 13 14  1  6
 14  7  1  0
 15 13  1  0
 15 16  2  0
 17 15  1  0
 18 19  1  1
 18 17  1  0
 20 21  1  0
 20 19  1  0
 21 22  2  0
 23 18  1  0
 24 23  2  0
 25 21  1  0
 26 23  1  0
M  END
$$$$
