EVE.pdb
     RDKit          3D

 26 25  0  0  1  0  0  0  0  0999 V2000
   28.4312  -21.2850  -16.2114 N   0  0  0  0  0  0  0  0  0  0  0  0
   27.7985  -20.2924  -15.3707 C   0  0  1  0  0  0  0  0  0  0  0  0
   27.3037  -19.1741  -16.2255 C   0  0  0  0  0  0  0  0  0  0  0  0
   28.4216  -18.2822  -16.6991 C   0  0  0  0  0  0  0  0  0  0  0  0
   28.5101  -18.1934  -18.1716 C   0  0  0  0  0  0  0  0  0  0  0  0
   27.4603  -18.1011  -18.8400 O   0  0  0  0  0  0  0  0  0  0  0  0
   26.6587  -20.9241  -14.5918 C   0  0  0  0  0  0  0  0  0  0  0  0
   25.9249  -21.7549  -15.1749 O   0  0  0  0  0  0  0  0  0  0  0  0
   29.7224  -18.2090  -18.8367 O   0  0  0  0  0  0  0  0  0  0  0  0
   26.0817  -19.4377  -10.5787 C   0  0  0  0  0  0  0  0  0  0  0  0
   25.8337  -20.9233  -10.8934 C   0  0  1  0  0  0  0  0  0  0  0  0
   24.6242  -21.2425  -10.0073 C   0  0  0  0  0  0  0  0  0  0  0  0
   25.4065  -21.0290  -12.3412 C   0  0  2  0  0  0  0  0  0  0  0  0
   26.4395  -20.5839  -13.2598 N   0  0  0  0  0  0  0  0  0  0  0  0
   24.1195  -20.4772  -12.6773 C   0  0  0  0  0  0  0  0  0  0  0  0
   24.0599  -19.1822  -12.8196 O   0  0  0  0  0  0  0  0  0  0  0  0
   22.8823  -21.1019  -12.8923 N   0  0  0  0  0  0  0  0  0  0  0  0
   21.6297  -20.4002  -13.1512 C   0  0  1  0  0  0  0  0  0  0  0  0
   21.0107  -21.0071  -14.3762 C   0  0  0  0  0  0  0  0  0  0  0  0
   19.7453  -20.3354  -14.8145 C   0  0  0  0  0  0  0  0  0  0  0  0
   19.1913  -21.0363  -15.9809 C   0  0  0  0  0  0  0  0  0  0  0  0
   18.5555  -22.0903  -15.8827 O   0  0  0  0  0  0  0  0  0  0  0  0
   20.7146  -20.4836  -11.9859 C   0  0  0  0  0  0  0  0  0  0  0  0
   19.9278  -19.5599  -11.7201 O   0  0  0  0  0  0  0  0  0  0  0  0
   19.3948  -20.4840  -17.2538 O   0  0  0  0  0  0  0  0  0  0  0  0
   20.7419  -21.6060  -11.1883 O   0  0  0  0  0  0  0  0  0  0  0  0
  2  1  1  6
  2  3  1  0
  4  5  1  0
  4  3  1  0
  5  6  2  0
  7  2  1  0
  8  7  2  0
  9  5  1  0
 11 10  1  1
 11 13  1  0
 12 11  1  0
 13 14  1  6
 14  7  1  0
 15 13  1  0
 15 16  2  0
 17 15  1  0
 18 19  1  6
 18 17  1  0
 20 21  1  0
 20 19  1  0
 21 22  2  0
 23 18  1  0
 24 23  2  0
 25 21  1  0
 26 23  1  0
M  END
$$$$
