EVE.pdb
     RDKit          3D

 26 25  0  0  1  0  0  0  0  0999 V2000
   24.5431  -20.7872  -10.5515 N   0  0  0  0  0  0  0  0  0  0  0  0
   24.2285  -20.9637  -11.9523 C   0  0  1  0  0  0  0  0  0  0  0  0
   22.7738  -20.7059  -12.1609 C   0  0  0  0  0  0  0  0  0  0  0  0
   21.9099  -21.7318  -11.4749 C   0  0  0  0  0  0  0  0  0  0  0  0
   20.4680  -21.5504  -11.7431 C   0  0  0  0  0  0  0  0  0  0  0  0
   20.0933  -20.5714  -12.4203 O   0  0  0  0  0  0  0  0  0  0  0  0
   25.0717  -20.0233  -12.7948 C   0  0  0  0  0  0  0  0  0  0  0  0
   25.3418  -18.8898  -12.3358 O   0  0  0  0  0  0  0  0  0  0  0  0
   19.5157  -22.4328  -11.2669 O   0  0  0  0  0  0  0  0  0  0  0  0
   27.9507  -21.2342  -14.0762 C   0  0  0  0  0  0  0  0  0  0  0  0
   27.7113  -20.1874  -15.1782 C   0  0  1  0  0  0  0  0  0  0  0  0
   27.7965  -21.0359  -16.4521 C   0  0  0  0  0  0  0  0  0  0  0  0
   26.2936  -19.6774  -15.0379 C   0  0  2  0  0  0  0  0  0  0  0  0
   25.5315  -20.4181  -14.0480 N   0  0  0  0  0  0  0  0  0  0  0  0
   25.5490  -19.4938  -16.2568 C   0  0  0  0  0  0  0  0  0  0  0  0
   24.6564  -20.4025  -16.5369 O   0  0  0  0  0  0  0  0  0  0  0  0
   25.6083  -18.4789  -17.2230 N   0  0  0  0  0  0  0  0  0  0  0  0
   24.4937  -18.0717  -18.0716 C   0  0  1  0  0  0  0  0  0  0  0  0
   23.3470  -17.7056  -17.1754 C   0  0  0  0  0  0  0  0  0  0  0  0
   22.1517  -17.1723  -17.9042 C   0  0  0  0  0  0  0  0  0  0  0  0
   21.1102  -16.7965  -16.9386 C   0  0  0  0  0  0  0  0  0  0  0  0
   20.8359  -15.6204  -16.6810 O   0  0  0  0  0  0  0  0  0  0  0  0
   24.8730  -16.9396  -18.9530 C   0  0  0  0  0  0  0  0  0  0  0  0
   24.2350  -16.6912  -19.9893 O   0  0  0  0  0  0  0  0  0  0  0  0
   20.4023  -17.8158  -16.2855 O   0  0  0  0  0  0  0  0  0  0  0  0
   25.9517  -16.1540  -18.6121 O   0  0  0  0  0  0  0  0  0  0  0  0
  2  1  1  1
  2  3  1  0
  4  5  1  0
  4  3  1  0
  5  6  2  0
  7  2  1  0
  8  7  2  0
  9  5  1  0
 11 10  1  1
 11 13  1  0
 12 11  1  0
 13 14  1  1
 14  7  1  0
 15 13  1  0
 15 16  2  0
 17 15  1  0
 18 19  1  1
 18 17  1  0
 20 21  1  0
 20 19  1  0
 21 22  2  0
 23 18  1  0
 24 23  2  0
 25 21  1  0
 26 23  1  0
M  END
$$$$
