EVE.pdb
     RDKit          3D

 26 25  0  0  1  0  0  0  0  0999 V2000
   27.6511  -20.1791  -14.6711 N   0  0  0  0  0  0  0  0  0  0  0  0
   26.7499  -21.0893  -15.3432 C   0  0  1  0  0  0  0  0  0  0  0  0
   27.5468  -22.1613  -16.0080 C   0  0  0  0  0  0  0  0  0  0  0  0
   28.9295  -21.6941  -16.3813 C   0  0  0  0  0  0  0  0  0  0  0  0
   29.1344  -21.5931  -17.8413 C   0  0  0  0  0  0  0  0  0  0  0  0
   28.4436  -22.2999  -18.6032 O   0  0  0  0  0  0  0  0  0  0  0  0
   25.7720  -21.6817  -14.3443 C   0  0  0  0  0  0  0  0  0  0  0  0
   25.3294  -22.8345  -14.5533 O   0  0  0  0  0  0  0  0  0  0  0  0
   30.0699  -20.7378  -18.3943 O   0  0  0  0  0  0  0  0  0  0  0  0
   26.3849  -21.7891  -10.8279 C   0  0  0  0  0  0  0  0  0  0  0  0
   24.9699  -21.1854  -10.8025 C   0  0  1  0  0  0  0  0  0  0  0  0
   25.2541  -19.7122  -10.4880 C   0  0  0  0  0  0  0  0  0  0  0  0
   24.3992  -21.2738  -12.2011 C   0  0  2  0  0  0  0  0  0  0  0  0
   25.3804  -20.9551  -13.2233 N   0  0  0  0  0  0  0  0  0  0  0  0
   23.1485  -20.5986  -12.4329 C   0  0  0  0  0  0  0  0  0  0  0  0
   23.2203  -19.3832  -12.9005 O   0  0  0  0  0  0  0  0  0  0  0  0
   21.8266  -21.0286  -12.2467 N   0  0  0  0  0  0  0  0  0  0  0  0
   20.6420  -20.2533  -12.5987 C   0  0  1  0  0  0  0  0  0  0  0  0
   20.6476  -20.0606  -14.0871 C   0  0  0  0  0  0  0  0  0  0  0  0
   20.4381  -21.3239  -14.8646 C   0  0  0  0  0  0  0  0  0  0  0  0
   19.8752  -21.0056  -16.1838 C   0  0  0  0  0  0  0  0  0  0  0  0
   20.5560  -21.0039  -17.2140 O   0  0  0  0  0  0  0  0  0  0  0  0
   19.4010  -20.9301  -12.1466 C   0  0  0  0  0  0  0  0  0  0  0  0
   19.4293  -22.0858  -11.6923 O   0  0  0  0  0  0  0  0  0  0  0  0
   18.5114  -20.6915  -16.2726 O   0  0  0  0  0  0  0  0  0  0  0  0
   18.2001  -20.2617  -12.2344 O   0  0  0  0  0  0  0  0  0  0  0  0
  2  1  1  1
  2  3  1  0
  4  5  1  0
  4  3  1  0
  5  6  2  0
  7  2  1  0
  8  7  2  0
  9  5  1  0
 11 10  1  6
 11 13  1  0
 12 11  1  0
 13 14  1  6
 14  7  1  0
 15 13  1  0
 15 16  2  0
 17 15  1  0
 18 19  1  6
 18 17  1  0
 20 21  1  0
 20 19  1  0
 21 22  2  0
 23 18  1  0
 24 23  2  0
 25 21  1  0
 26 23  1  0
M  END
$$$$
