EVE.pdb
     RDKit          3D

 26 25  0  0  1  0  0  0  0  0999 V2000
   22.0254  -11.8298  -18.8079 N   0  0  0  0  0  0  0  0  0  0  0  0
   20.6754  -11.3195  -18.7103 C   0  0  1  0  0  0  0  0  0  0  0  0
   19.7159  -12.4574  -18.8147 C   0  0  0  0  0  0  0  0  0  0  0  0
   20.1591  -13.4847  -19.8234 C   0  0  0  0  0  0  0  0  0  0  0  0
   19.1654  -14.5581  -20.0347 C   0  0  0  0  0  0  0  0  0  0  0  0
   19.4088  -15.4580  -20.8643 O   0  0  0  0  0  0  0  0  0  0  0  0
   20.4958  -10.5780  -17.3977 C   0  0  0  0  0  0  0  0  0  0  0  0
   19.3598  -10.1342  -17.1129 O   0  0  0  0  0  0  0  0  0  0  0  0
   17.9699  -14.5991  -19.3409 O   0  0  0  0  0  0  0  0  0  0  0  0
   23.8939  -10.5415  -14.6595 C   0  0  0  0  0  0  0  0  0  0  0  0
   22.4190  -10.5326  -14.2217 C   0  0  1  0  0  0  0  0  0  0  0  0
   22.4746   -9.7258  -12.9194 C   0  0  0  0  0  0  0  0  0  0  0  0
   21.6335   -9.7385  -15.2425 C   0  0  2  0  0  0  0  0  0  0  0  0
   21.5731  -10.3992  -16.5344 N   0  0  0  0  0  0  0  0  0  0  0  0
   21.9664   -8.3434  -15.3715 C   0  0  0  0  0  0  0  0  0  0  0  0
   22.9744   -8.0541  -16.1469 O   0  0  0  0  0  0  0  0  0  0  0  0
   21.3794   -7.2045  -14.8010 N   0  0  0  0  0  0  0  0  0  0  0  0
   21.8832   -5.8438  -14.9534 C   0  0  1  0  0  0  0  0  0  0  0  0
   20.8696   -5.0668  -15.7416 C   0  0  0  0  0  0  0  0  0  0  0  0
   21.1602   -3.5996  -15.8269 C   0  0  0  0  0  0  0  0  0  0  0  0
   20.0817   -2.9233  -16.5602 C   0  0  0  0  0  0  0  0  0  0  0  0
   19.9790   -1.6936  -16.6064 O   0  0  0  0  0  0  0  0  0  0  0  0
   22.1402   -5.2136  -13.6346 C   0  0  0  0  0  0  0  0  0  0  0  0
   21.6246   -5.6623  -12.5974 O   0  0  0  0  0  0  0  0  0  0  0  0
   19.1336   -3.7079  -17.2325 O   0  0  0  0  0  0  0  0  0  0  0  0
   22.9648   -4.1127  -13.5645 O   0  0  0  0  0  0  0  0  0  0  0  0
  2  1  1  1
  2  3  1  0
  4  5  1  0
  4  3  1  0
  5  6  2  0
  7  2  1  0
  8  7  2  0
  9  5  1  0
 11 10  1  6
 11 13  1  0
 12 11  1  0
 13 14  1  6
 14  7  1  0
 15 13  1  0
 15 16  2  0
 17 15  1  0
 18 19  1  1
 18 17  1  0
 20 21  1  0
 20 19  1  0
 21 22  2  0
 23 18  1  0
 24 23  2  0
 25 21  1  0
 26 23  1  0
M  END
$$$$
