EVE.pdb
     RDKit          3D

 26 25  0  0  1  0  0  0  0  0999 V2000
   18.7154  -12.8324  -17.8356 N   0  0  0  0  0  0  0  0  0  0  0  0
   19.6281  -11.7403  -18.0936 C   0  0  1  0  0  0  0  0  0  0  0  0
   18.9101  -10.6742  -18.8512 C   0  0  0  0  0  0  0  0  0  0  0  0
   18.4194  -11.1597  -20.1902 C   0  0  0  0  0  0  0  0  0  0  0  0
   17.7780  -10.0983  -20.9939 C   0  0  0  0  0  0  0  0  0  0  0  0
   17.2842  -10.3887  -22.1025 O   0  0  0  0  0  0  0  0  0  0  0  0
   20.1731  -11.2005  -16.7834 C   0  0  0  0  0  0  0  0  0  0  0  0
   19.4444  -11.2536  -15.7662 O   0  0  0  0  0  0  0  0  0  0  0  0
   17.7061   -8.7882  -20.5568 O   0  0  0  0  0  0  0  0  0  0  0  0
   24.0710   -9.9134  -14.0874 C   0  0  0  0  0  0  0  0  0  0  0  0
   23.4756  -10.6378  -15.3073 C   0  0  1  0  0  0  0  0  0  0  0  0
   23.2273  -12.0464  -14.7557 C   0  0  0  0  0  0  0  0  0  0  0  0
   22.1373  -10.0043  -15.6194 C   0  0  2  0  0  0  0  0  0  0  0  0
   21.4546  -10.6604  -16.7205 N   0  0  0  0  0  0  0  0  0  0  0  0
   22.1171   -8.5709  -15.7570 C   0  0  0  0  0  0  0  0  0  0  0  0
   22.8708   -8.0647  -16.6932 O   0  0  0  0  0  0  0  0  0  0  0  0
   21.4056   -7.5920  -15.0480 N   0  0  0  0  0  0  0  0  0  0  0  0
   21.5400   -6.1538  -15.2527 C   0  0  1  0  0  0  0  0  0  0  0  0
   20.1640   -5.5910  -15.4583 C   0  0  0  0  0  0  0  0  0  0  0  0
   19.4909   -6.0714  -16.7076 C   0  0  0  0  0  0  0  0  0  0  0  0
   18.1427   -5.4945  -16.7966 C   0  0  0  0  0  0  0  0  0  0  0  0
   17.2147   -6.0610  -17.3820 O   0  0  0  0  0  0  0  0  0  0  0  0
   22.2216   -5.5073  -14.1039 C   0  0  0  0  0  0  0  0  0  0  0  0
   22.3038   -6.0768  -13.0031 O   0  0  0  0  0  0  0  0  0  0  0  0
   17.9042   -4.2516  -16.1925 O   0  0  0  0  0  0  0  0  0  0  0  0
   22.7705   -4.2546  -14.2656 O   0  0  0  0  0  0  0  0  0  0  0  0
  2  1  1  1
  2  3  1  0
  4  5  1  0
  4  3  1  0
  5  6  2  0
  7  2  1  0
  8  7  2  0
  9  5  1  0
 11 10  1  1
 11 13  1  0
 12 11  1  0
 13 14  1  6
 14  7  1  0
 15 13  1  0
 15 16  2  0
 17 15  1  0
 18 19  1  1
 18 17  1  0
 20 21  1  0
 20 19  1  0
 21 22  2  0
 23 18  1  0
 24 23  2  0
 25 21  1  0
 26 23  1  0
M  END
$$$$
