EVE.pdb
     RDKit          3D

 26 25  0  0  1  0  0  0  0  0999 V2000
   20.6197  -13.7219  -16.6155 N   0  0  0  0  0  0  0  0  0  0  0  0
   20.3767  -12.3228  -16.8907 C   0  0  1  0  0  0  0  0  0  0  0  0
   18.9047  -12.0804  -16.9181 C   0  0  0  0  0  0  0  0  0  0  0  0
   18.2154  -12.8840  -17.9897 C   0  0  0  0  0  0  0  0  0  0  0  0
   17.4183  -14.0064  -17.4523 C   0  0  0  0  0  0  0  0  0  0  0  0
   16.2658  -13.7859  -17.0275 O   0  0  0  0  0  0  0  0  0  0  0  0
   21.0478  -11.4632  -15.8345 C   0  0  0  0  0  0  0  0  0  0  0  0
   20.7891  -11.6865  -14.6296 O   0  0  0  0  0  0  0  0  0  0  0  0
   17.9086  -15.2985  -17.4043 O   0  0  0  0  0  0  0  0  0  0  0  0
   24.3874  -11.3832  -15.2178 C   0  0  0  0  0  0  0  0  0  0  0  0
   24.2069   -9.8732  -15.4521 C   0  0  1  0  0  0  0  0  0  0  0  0
   24.6611   -9.7168  -16.9079 C   0  0  0  0  0  0  0  0  0  0  0  0
   22.7279   -9.5626  -15.3771 C   0  0  2  0  0  0  0  0  0  0  0  0
   21.9302  -10.4516  -16.2033 N   0  0  0  0  0  0  0  0  0  0  0  0
   22.3470   -8.1850  -15.5536 C   0  0  0  0  0  0  0  0  0  0  0  0
   22.0181   -7.8216  -16.7622 O   0  0  0  0  0  0  0  0  0  0  0  0
   22.2569   -7.1334  -14.6299 N   0  0  0  0  0  0  0  0  0  0  0  0
   21.8912   -5.7612  -14.9642 C   0  0  1  0  0  0  0  0  0  0  0  0
   20.4130   -5.7322  -15.2220 C   0  0  0  0  0  0  0  0  0  0  0  0
   19.8941   -4.3892  -15.6362 C   0  0  0  0  0  0  0  0  0  0  0  0
   18.5137   -4.5201  -16.1218 C   0  0  0  0  0  0  0  0  0  0  0  0
   18.2120   -4.3838  -17.3114 O   0  0  0  0  0  0  0  0  0  0  0  0
   22.2683   -4.8232  -13.8779 C   0  0  0  0  0  0  0  0  0  0  0  0
   22.6041   -5.2405  -12.7572 O   0  0  0  0  0  0  0  0  0  0  0  0
   17.5019   -4.8110  -15.1954 O   0  0  0  0  0  0  0  0  0  0  0  0
   22.2438   -3.4678  -14.1210 O   0  0  0  0  0  0  0  0  0  0  0  0
  2  1  1  1
  2  3  1  0
  4  5  1  0
  4  3  1  0
  5  6  2  0
  7  2  1  0
  8  7  2  0
  9  5  1  0
 11 10  1  6
 11 13  1  0
 12 11  1  0
 13 14  1  6
 14  7  1  0
 15 13  1  0
 15 16  2  0
 17 15  1  0
 18 19  1  1
 18 17  1  0
 20 21  1  0
 20 19  1  0
 21 22  2  0
 23 18  1  0
 24 23  2  0
 25 21  1  0
 26 23  1  0
M  END
$$$$
