EVE.pdb
     RDKit          3D

 26 25  0  0  1  0  0  0  0  0999 V2000
   23.1426  -11.9213  -19.3585 N   0  0  0  0  0  0  0  0  0  0  0  0
   23.5515  -10.6400  -18.8262 C   0  0  1  0  0  0  0  0  0  0  0  0
   23.8398   -9.7119  -19.9584 C   0  0  0  0  0  0  0  0  0  0  0  0
   23.6307  -10.3671  -21.2987 C   0  0  0  0  0  0  0  0  0  0  0  0
   24.2191   -9.6020  -22.4177 C   0  0  0  0  0  0  0  0  0  0  0  0
   25.4046   -9.8155  -22.7441 O   0  0  0  0  0  0  0  0  0  0  0  0
   22.4612  -10.0796  -17.9306 C   0  0  0  0  0  0  0  0  0  0  0  0
   21.3000   -9.9851  -18.3905 O   0  0  0  0  0  0  0  0  0  0  0  0
   23.4972   -8.6534  -23.1186 O   0  0  0  0  0  0  0  0  0  0  0  0
   21.2906  -11.4158  -14.9179 C   0  0  0  0  0  0  0  0  0  0  0  0
   21.7326  -10.0323  -14.4101 C   0  0  1  0  0  0  0  0  0  0  0  0
   23.1280  -10.3265  -13.8478 C   0  0  0  0  0  0  0  0  0  0  0  0
   21.8829   -9.1211  -15.6087 C   0  0  2  0  0  0  0  0  0  0  0  0
   22.7516   -9.6821  -16.6284 N   0  0  0  0  0  0  0  0  0  0  0  0
   22.1996   -7.7427  -15.3372 C   0  0  0  0  0  0  0  0  0  0  0  0
   23.4645   -7.4250  -15.3345 O   0  0  0  0  0  0  0  0  0  0  0  0
   21.3665   -6.6456  -15.0736 N   0  0  0  0  0  0  0  0  0  0  0  0
   21.8359   -5.3094  -14.7238 C   0  0  1  0  0  0  0  0  0  0  0  0
   20.9048   -4.3175  -15.3575 C   0  0  0  0  0  0  0  0  0  0  0  0
   21.1579   -2.8986  -14.9486 C   0  0  0  0  0  0  0  0  0  0  0  0
   20.1516   -2.0202  -15.5605 C   0  0  0  0  0  0  0  0  0  0  0  0
   19.2958   -2.4370  -16.3471 O   0  0  0  0  0  0  0  0  0  0  0  0
   21.8977   -5.1281  -13.2521 C   0  0  0  0  0  0  0  0  0  0  0  0
   21.2602   -5.8701  -12.4867 O   0  0  0  0  0  0  0  0  0  0  0  0
   20.1668   -0.6559  -15.2366 O   0  0  0  0  0  0  0  0  0  0  0  0
   22.6760   -4.1185  -12.7309 O   0  0  0  0  0  0  0  0  0  0  0  0
  2  1  1  6
  2  3  1  0
  4  5  1  0
  4  3  1  0
  5  6  2  0
  7  2  1  0
  8  7  2  0
  9  5  1  0
 11 10  1  6
 11 13  1  0
 12 11  1  0
 13 14  1  6
 14  7  1  0
 15 13  1  0
 15 16  2  0
 17 15  1  0
 18 19  1  6
 18 17  1  0
 20 21  1  0
 20 19  1  0
 21 22  2  0
 23 18  1  0
 24 23  2  0
 25 21  1  0
 26 23  1  0
M  END
$$$$
