EVE.pdb
     RDKit          3D

 26 25  0  0  1  0  0  0  0  0999 V2000
   18.9212  -11.5378  -16.6661 N   0  0  0  0  0  0  0  0  0  0  0  0
   19.9158  -10.4877  -16.6531 C   0  0  1  0  0  0  0  0  0  0  0  0
   20.1185   -9.9917  -18.0457 C   0  0  0  0  0  0  0  0  0  0  0  0
   20.7991  -11.0123  -18.9199 C   0  0  0  0  0  0  0  0  0  0  0  0
   21.1181  -10.5015  -20.2694 C   0  0  0  0  0  0  0  0  0  0  0  0
   22.1119   -9.7620  -20.4211 O   0  0  0  0  0  0  0  0  0  0  0  0
   19.4690   -9.3626  -15.7369 C   0  0  0  0  0  0  0  0  0  0  0  0
   18.3134   -8.9007  -15.8778 O   0  0  0  0  0  0  0  0  0  0  0  0
   20.3493  -10.8167  -21.3748 O   0  0  0  0  0  0  0  0  0  0  0  0
   18.8755   -9.2311  -12.3613 C   0  0  0  0  0  0  0  0  0  0  0  0
   19.9989   -8.1812  -12.4162 C   0  0  1  0  0  0  0  0  0  0  0  0
   21.2301   -9.0064  -12.0249 C   0  0  0  0  0  0  0  0  0  0  0  0
   20.1566   -7.7407  -13.8552 C   0  0  2  0  0  0  0  0  0  0  0  0
   20.3286   -8.8604  -14.7639 N   0  0  0  0  0  0  0  0  0  0  0  0
   21.1132   -6.6948  -14.1099 C   0  0  0  0  0  0  0  0  0  0  0  0
   22.2341   -7.0543  -14.6714 O   0  0  0  0  0  0  0  0  0  0  0  0
   21.0514   -5.3158  -13.8613 N   0  0  0  0  0  0  0  0  0  0  0  0
   22.0968   -4.3598  -14.2099 C   0  0  1  0  0  0  0  0  0  0  0  0
   22.3637   -4.4907  -15.6810 C   0  0  0  0  0  0  0  0  0  0  0  0
   21.2756   -3.9355  -16.5482 C   0  0  0  0  0  0  0  0  0  0  0  0
   21.6770   -4.0170  -17.9591 C   0  0  0  0  0  0  0  0  0  0  0  0
   22.8107   -4.3595  -18.3088 O   0  0  0  0  0  0  0  0  0  0  0  0
   21.7006   -2.9746  -13.8542 C   0  0  0  0  0  0  0  0  0  0  0  0
   20.5378   -2.7085  -13.5080 O   0  0  0  0  0  0  0  0  0  0  0  0
   20.7335   -3.6920  -18.9444 O   0  0  0  0  0  0  0  0  0  0  0  0
   22.6414   -1.9704  -13.9108 O   0  0  0  0  0  0  0  0  0  0  0  0
  2  1  1  6
  2  3  1  0
  4  5  1  0
  4  3  1  0
  5  6  2  0
  7  2  1  0
  8  7  2  0
  9  5  1  0
 11 10  1  6
 11 13  1  0
 12 11  1  0
 13 14  1  6
 14  7  1  0
 15 13  1  0
 15 16  2  0
 17 15  1  0
 18 19  1  6
 18 17  1  0
 20 21  1  0
 20 19  1  0
 21 22  2  0
 23 18  1  0
 24 23  2  0
 25 21  1  0
 26 23  1  0
M  END
$$$$
