EVE.pdb
     RDKit          3D

 26 25  0  0  1  0  0  0  0  0999 V2000
   17.5261  -12.0565  -15.1521 N   0  0  0  0  0  0  0  0  0  0  0  0
   18.1955  -11.0174  -15.9034 C   0  0  1  0  0  0  0  0  0  0  0  0
   17.1712  -10.1120  -16.5013 C   0  0  0  0  0  0  0  0  0  0  0  0
   16.3581  -10.7982  -17.5676 C   0  0  0  0  0  0  0  0  0  0  0  0
   16.8375  -10.5149  -18.9365 C   0  0  0  0  0  0  0  0  0  0  0  0
   17.6989   -9.6284  -19.1085 O   0  0  0  0  0  0  0  0  0  0  0  0
   19.1363  -10.2461  -14.9952 C   0  0  0  0  0  0  0  0  0  0  0  0
   18.7627   -9.9892  -13.8277 O   0  0  0  0  0  0  0  0  0  0  0  0
   16.3617  -11.2021  -20.0383 O   0  0  0  0  0  0  0  0  0  0  0  0
   22.6288  -11.1955  -14.3933 C   0  0  0  0  0  0  0  0  0  0  0  0
   22.7796   -9.7417  -14.8741 C   0  0  1  0  0  0  0  0  0  0  0  0
   23.1290   -9.9272  -16.3552 C   0  0  0  0  0  0  0  0  0  0  0  0
   21.4235   -9.0766  -14.7829 C   0  0  2  0  0  0  0  0  0  0  0  0
   20.3848   -9.8368  -15.4553 N   0  0  0  0  0  0  0  0  0  0  0  0
   21.3654   -7.6781  -15.1216 C   0  0  0  0  0  0  0  0  0  0  0  0
   20.6843   -7.3648  -16.1888 O   0  0  0  0  0  0  0  0  0  0  0  0
   21.9210   -6.5575  -14.4870 N   0  0  0  0  0  0  0  0  0  0  0  0
   21.6830   -5.1737  -14.8831 C   0  0  1  0  0  0  0  0  0  0  0  0
   20.2081   -4.9161  -14.7801 C   0  0  0  0  0  0  0  0  0  0  0  0
   19.8094   -3.5155  -15.1317 C   0  0  0  0  0  0  0  0  0  0  0  0
   18.3443   -3.4090  -15.1552 C   0  0  0  0  0  0  0  0  0  0  0  0
   17.6050   -4.3342  -14.8055 O   0  0  0  0  0  0  0  0  0  0  0  0
   22.4563   -4.2306  -14.0375 C   0  0  0  0  0  0  0  0  0  0  0  0
   22.6005   -3.0421  -14.3685 O   0  0  0  0  0  0  0  0  0  0  0  0
   17.7663   -2.2086  -15.5927 O   0  0  0  0  0  0  0  0  0  0  0  0
   23.0219   -4.6854  -12.8671 O   0  0  0  0  0  0  0  0  0  0  0  0
  2  1  1  1
  2  3  1  0
  4  5  1  0
  4  3  1  0
  5  6  2  0
  7  2  1  0
  8  7  2  0
  9  5  1  0
 11 10  1  1
 11 13  1  0
 12 11  1  0
 13 14  1  6
 14  7  1  0
 15 13  1  0
 15 16  2  0
 17 15  1  0
 18 19  1  1
 18 17  1  0
 20 21  1  0
 20 19  1  0
 21 22  2  0
 23 18  1  0
 24 23  2  0
 25 21  1  0
 26 23  1  0
M  END
$$$$
