EVE.pdb
     RDKit          3D

 26 25  0  0  1  0  0  0  0  0999 V2000
   18.6750  -11.6752  -17.4237 N   0  0  0  0  0  0  0  0  0  0  0  0
   17.9090  -10.7681  -16.5975 C   0  0  1  0  0  0  0  0  0  0  0  0
   16.8319  -11.5328  -15.9038 C   0  0  0  0  0  0  0  0  0  0  0  0
   16.0673  -12.4230  -16.8484 C   0  0  0  0  0  0  0  0  0  0  0  0
   16.6101  -13.7956  -16.9213 C   0  0  0  0  0  0  0  0  0  0  0  0
   17.6478  -14.0742  -16.2863 O   0  0  0  0  0  0  0  0  0  0  0  0
   18.8216  -10.0860  -15.5939 C   0  0  0  0  0  0  0  0  0  0  0  0
   18.3016   -9.4094  -14.6772 O   0  0  0  0  0  0  0  0  0  0  0  0
   16.0043  -14.7861  -17.6724 O   0  0  0  0  0  0  0  0  0  0  0  0
   23.1242  -10.2798  -16.3632 C   0  0  0  0  0  0  0  0  0  0  0  0
   22.5442  -10.4198  -14.9450 C   0  0  1  0  0  0  0  0  0  0  0  0
   23.5963   -9.6990  -14.0944 C   0  0  0  0  0  0  0  0  0  0  0  0
   21.2571   -9.6262  -14.8864 C   0  0  2  0  0  0  0  0  0  0  0  0
   20.2040  -10.2140  -15.6955 N   0  0  0  0  0  0  0  0  0  0  0  0
   21.3633   -8.2058  -15.0984 C   0  0  0  0  0  0  0  0  0  0  0  0
   21.6977   -7.8191  -16.2983 O   0  0  0  0  0  0  0  0  0  0  0  0
   21.1590   -7.1304  -14.2215 N   0  0  0  0  0  0  0  0  0  0  0  0
   21.4513   -5.7355  -14.5332 C   0  0  1  0  0  0  0  0  0  0  0  0
   20.1444   -5.0025  -14.6176 C   0  0  0  0  0  0  0  0  0  0  0  0
   19.3098   -5.3819  -15.8024 C   0  0  0  0  0  0  0  0  0  0  0  0
   18.0068   -4.7076  -15.7263 C   0  0  0  0  0  0  0  0  0  0  0  0
   17.7036   -3.9501  -14.7995 O   0  0  0  0  0  0  0  0  0  0  0  0
   22.3444   -5.1313  -13.5135 C   0  0  0  0  0  0  0  0  0  0  0  0
   22.8453   -4.0075  -13.6839 O   0  0  0  0  0  0  0  0  0  0  0  0
   17.0733   -4.9356  -16.7477 O   0  0  0  0  0  0  0  0  0  0  0  0
   22.6199   -5.8323  -12.3605 O   0  0  0  0  0  0  0  0  0  0  0  0
  2  1  1  1
  2  3  1  0
  4  5  1  0
  4  3  1  0
  5  6  2  0
  7  2  1  0
  8  7  2  0
  9  5  1  0
 11 10  1  6
 11 13  1  0
 12 11  1  0
 13 14  1  6
 14  7  1  0
 15 13  1  0
 15 16  2  0
 17 15  1  0
 18 19  1  1
 18 17  1  0
 20 21  1  0
 20 19  1  0
 21 22  2  0
 23 18  1  0
 24 23  2  0
 25 21  1  0
 26 23  1  0
M  END
$$$$
