QGT.pdb
     RDKit          3D

 21 20  0  0  1  0  0  0  0  0999 V2000
    8.5928  -15.4876   13.9228 N   0  0  0  0  0  0  0  0  0  0  0  0
    8.0393  -14.2785   14.4894 C   0  0  0  0  0  0  0  0  0  0  0  0
    8.1917  -13.2410   13.8124 O   0  0  0  0  0  0  0  0  0  0  0  0
    7.3619  -14.3252   15.7734 C   0  0  0  0  0  0  0  0  0  0  0  0
    8.0814  -13.7796   16.9665 C   0  0  0  0  0  0  0  0  0  0  0  0
    8.2049  -14.7896   18.0420 C   0  0  2  0  0  0  0  0  0  0  0  0
    7.0938  -15.6898   18.0636 N   0  0  0  0  0  0  0  0  0  0  0  0
    8.4154  -14.2106   19.3857 C   0  0  0  0  0  0  0  0  0  0  0  0
    9.4853  -13.6150   19.6955 O   0  0  0  0  0  0  0  0  0  0  0  0
    7.3958  -14.3219   20.3625 N   0  0  0  0  0  0  0  0  0  0  0  0
    7.5664  -13.7832   21.6973 C   0  0  0  0  0  0  0  0  0  0  0  0
    8.1168  -14.7548   22.6639 C   0  0  0  0  0  0  0  0  0  0  0  0
    7.4642  -15.0622   23.7185 O   0  0  0  0  0  0  0  0  0  0  0  0
    9.1556  -18.2531   21.7739 C   0  0  0  0  0  0  0  0  0  0  0  0
   10.2689  -17.6574   22.5876 C   0  0  1  0  0  0  0  0  0  0  0  0
   11.2944  -17.1956   21.7396 O   0  0  0  0  0  0  0  0  0  0  0  0
    9.7823  -16.4501   23.3561 C   0  0  2  0  0  0  0  0  0  0  0  0
    9.3703  -15.3784   22.4761 N   0  0  0  0  0  0  0  0  0  0  0  0
   10.7864  -15.9820   24.3438 C   0  0  0  0  0  0  0  0  0  0  0  0
   11.3938  -14.9001   24.1455 O   0  0  0  0  0  0  0  0  0  0  0  0
   11.0878  -16.6926   25.4884 O   0  0  0  0  0  0  0  0  0  0  0  0
  1  2  1  0
  2  3  2  0
  4  5  1  0
  4  2  1  0
  6  5  1  0
  6  7  1  1
  8  9  2  0
  8  6  1  0
 10  8  1  0
 11 10  1  0
 11 12  1  0
 12 18  1  0
 13 12  2  0
 15 16  1  0
 15 14  1  6
 17 15  1  0
 17 19  1  0
 17 18  1  6
 19 20  2  0
 19 21  1  0
M  END
$$$$
