QGT.pdb
     RDKit          3D

 21 20  0  0  1  0  0  0  0  0999 V2000
    9.7355  -20.9767   19.4817 N   0  0  0  0  0  0  0  0  0  0  0  0
    8.3824  -20.5117   19.2769 C   0  0  0  0  0  0  0  0  0  0  0  0
    7.6156  -21.3073   18.6963 O   0  0  0  0  0  0  0  0  0  0  0  0
    7.9947  -19.1889   19.7346 C   0  0  0  0  0  0  0  0  0  0  0  0
    9.0355  -18.3431   20.3983 C   0  0  0  0  0  0  0  0  0  0  0  0
    8.5285  -17.7272   21.6455 C   0  0  2  0  0  0  0  0  0  0  0  0
    7.1888  -18.1329   21.9387 N   0  0  0  0  0  0  0  0  0  0  0  0
    8.6289  -16.2525   21.6687 C   0  0  0  0  0  0  0  0  0  0  0  0
    9.6675  -15.6483   21.2793 O   0  0  0  0  0  0  0  0  0  0  0  0
    7.5362  -15.4847   22.1403 N   0  0  0  0  0  0  0  0  0  0  0  0
    7.5924  -14.0368   22.1818 C   0  0  0  0  0  0  0  0  0  0  0  0
    8.0130  -13.4962   23.4903 C   0  0  0  0  0  0  0  0  0  0  0  0
    9.0237  -12.7194   23.5773 O   0  0  0  0  0  0  0  0  0  0  0  0
    6.3362  -11.1730   25.8544 C   0  0  0  0  0  0  0  0  0  0  0  0
    6.6326  -12.4422   26.6013 C   0  0  1  0  0  0  0  0  0  0  0  0
    5.5100  -13.2925   26.5749 O   0  0  0  0  0  0  0  0  0  0  0  0
    7.7545  -13.2050   25.9348 C   0  0  2  0  0  0  0  0  0  0  0  0
    7.3336  -13.8078   24.6890 N   0  0  0  0  0  0  0  0  0  0  0  0
    8.3563  -14.2108   26.8452 C   0  0  0  0  0  0  0  0  0  0  0  0
    8.4015  -15.4165   26.4943 O   0  0  0  0  0  0  0  0  0  0  0  0
    8.8768  -13.8765   28.0795 O   0  0  0  0  0  0  0  0  0  0  0  0
  1  2  1  0
  2  3  2  0
  4  5  1  0
  4  2  1  0
  6  5  1  0
  6  7  1  6
  8  9  2  0
  8  6  1  0
 10  8  1  0
 11 10  1  0
 11 12  1  0
 12 18  1  0
 13 12  2  0
 15 16  1  0
 15 14  1  6
 17 15  1  0
 17 19  1  0
 17 18  1  6
 19 20  2  0
 19 21  1  0
M  END
$$$$
