QGT.pdb
     RDKit          3D

 21 20  0  0  1  0  0  0  0  0999 V2000
    7.9284  -12.8606   17.9594 N   0  0  0  0  0  0  0  0  0  0  0  0
    8.6822  -13.9098   17.3113 C   0  0  0  0  0  0  0  0  0  0  0  0
    8.7744  -13.8261   16.0693 O   0  0  0  0  0  0  0  0  0  0  0  0
    9.2704  -14.9744   18.1052 C   0  0  0  0  0  0  0  0  0  0  0  0
    9.0490  -14.9506   19.5849 C   0  0  0  0  0  0  0  0  0  0  0  0
    8.1636  -16.0526   20.0250 C   0  0  2  0  0  0  0  0  0  0  0  0
    6.8183  -15.8732   19.5743 N   0  0  0  0  0  0  0  0  0  0  0  0
    8.1829  -16.2896   21.4840 C   0  0  0  0  0  0  0  0  0  0  0  0
    9.2464  -16.5855   22.0979 O   0  0  0  0  0  0  0  0  0  0  0  0
    6.9804  -16.1862   22.2250 N   0  0  0  0  0  0  0  0  0  0  0  0
    6.9665  -16.3345   23.6669 C   0  0  0  0  0  0  0  0  0  0  0  0
    7.5892  -15.2049   24.3861 C   0  0  0  0  0  0  0  0  0  0  0  0
    8.7183  -14.7394   24.0106 O   0  0  0  0  0  0  0  0  0  0  0  0
    6.1725  -11.6947   25.5339 C   0  0  0  0  0  0  0  0  0  0  0  0
    6.7250  -12.4680   26.6973 C   0  0  1  0  0  0  0  0  0  0  0  0
    5.6840  -13.1317   27.3753 O   0  0  0  0  0  0  0  0  0  0  0  0
    7.6719  -13.5457   26.2213 C   0  0  2  0  0  0  0  0  0  0  0  0
    6.9807  -14.5963   25.5063 N   0  0  0  0  0  0  0  0  0  0  0  0
    8.4877  -14.0953   27.3327 C   0  0  0  0  0  0  0  0  0  0  0  0
    8.4605  -15.3287   27.5710 O   0  0  0  0  0  0  0  0  0  0  0  0
    9.2875  -13.3002   28.1290 O   0  0  0  0  0  0  0  0  0  0  0  0
  1  2  1  0
  2  3  2  0
  4  5  1  0
  4  2  1  0
  6  5  1  0
  6  7  1  1
  8  9  2  0
  8  6  1  0
 10  8  1  0
 11 10  1  0
 11 12  1  0
 12 18  1  0
 13 12  2  0
 15 16  1  0
 15 14  1  6
 17 15  1  0
 17 19  1  0
 17 18  1  1
 19 20  2  0
 19 21  1  0
M  END
$$$$
