QGT.pdb
     RDKit          3D

 21 20  0  0  1  0  0  0  0  0999 V2000
    7.6087  -12.3252   20.4382 N   0  0  0  0  0  0  0  0  0  0  0  0
    7.8992  -13.2672   19.3812 C   0  0  0  0  0  0  0  0  0  0  0  0
    8.5325  -12.8128   18.4062 O   0  0  0  0  0  0  0  0  0  0  0  0
    7.4533  -14.6446   19.4966 C   0  0  0  0  0  0  0  0  0  0  0  0
    6.7594  -15.0542   20.7575 C   0  0  0  0  0  0  0  0  0  0  0  0
    7.2893  -16.3319   21.2853 C   0  0  2  0  0  0  0  0  0  0  0  0
    6.4984  -16.8364   22.3646 N   0  0  0  0  0  0  0  0  0  0  0  0
    8.7117  -16.2712   21.6833 C   0  0  0  0  0  0  0  0  0  0  0  0
    9.6437  -16.5239   20.8691 O   0  0  0  0  0  0  0  0  0  0  0  0
    9.0512  -15.9222   23.0133 N   0  0  0  0  0  0  0  0  0  0  0  0
   10.4333  -15.8007   23.4330 C   0  0  0  0  0  0  0  0  0  0  0  0
   10.5921  -15.4266   24.8528 C   0  0  0  0  0  0  0  0  0  0  0  0
   11.7560  -15.2957   25.3635 O   0  0  0  0  0  0  0  0  0  0  0  0
    8.7397  -12.3017   26.1872 C   0  0  0  0  0  0  0  0  0  0  0  0
    8.5784  -13.4435   27.1500 C   0  0  1  0  0  0  0  0  0  0  0  0
    7.3566  -14.1042   26.9167 O   0  0  0  0  0  0  0  0  0  0  0  0
    9.6623  -14.4761   26.9407 C   0  0  2  0  0  0  0  0  0  0  0  0
    9.4859  -15.2025   25.7022 N   0  0  0  0  0  0  0  0  0  0  0  0
    9.7765  -15.3997   28.0969 C   0  0  0  0  0  0  0  0  0  0  0  0
    9.6622  -16.6378   27.9153 O   0  0  0  0  0  0  0  0  0  0  0  0
   10.0063  -14.9531   29.3829 O   0  0  0  0  0  0  0  0  0  0  0  0
  1  2  1  0
  2  3  2  0
  4  5  1  0
  4  2  1  0
  6  5  1  0
  6  7  1  1
  8  9  2  0
  8  6  1  0
 10  8  1  0
 11 10  1  0
 11 12  1  0
 12 18  1  0
 13 12  2  0
 15 16  1  0
 15 14  1  6
 17 15  1  0
 17 19  1  0
 17 18  1  6
 19 20  2  0
 19 21  1  0
M  END
$$$$
