QGT.pdb
     RDKit          3D

 21 20  0  0  1  0  0  0  0  0999 V2000
    9.3497  -13.5208   17.0008 N   0  0  0  0  0  0  0  0  0  0  0  0
    7.9402  -13.8352   16.9396 C   0  0  0  0  0  0  0  0  0  0  0  0
    7.2348  -13.0454   16.2787 O   0  0  0  0  0  0  0  0  0  0  0  0
    7.4297  -15.0078   17.6279 C   0  0  0  0  0  0  0  0  0  0  0  0
    8.3834  -15.8003   18.4655 C   0  0  0  0  0  0  0  0  0  0  0  0
    7.7284  -16.3438   19.6770 C   0  0  2  0  0  0  0  0  0  0  0  0
    6.3031  -16.3505   19.5598 N   0  0  0  0  0  0  0  0  0  0  0  0
    8.1317  -15.6693   20.9291 C   0  0  0  0  0  0  0  0  0  0  0  0
    9.3430  -15.5687   21.2725 O   0  0  0  0  0  0  0  0  0  0  0  0
    7.1401  -15.1176   21.7766 N   0  0  0  0  0  0  0  0  0  0  0  0
    7.4914  -14.4407   23.0093 C   0  0  0  0  0  0  0  0  0  0  0  0
    7.4454  -15.3134   24.1999 C   0  0  0  0  0  0  0  0  0  0  0  0
    6.4064  -16.0128   24.4525 O   0  0  0  0  0  0  0  0  0  0  0  0
    7.6891  -18.0473   24.2250 C   0  0  0  0  0  0  0  0  0  0  0  0
    8.8207  -17.8467   25.1923 C   0  0  1  0  0  0  0  0  0  0  0  0
   10.0359  -17.7090   24.4935 O   0  0  0  0  0  0  0  0  0  0  0  0
    8.6361  -16.5654   25.9725 C   0  0  2  0  0  0  0  0  0  0  0  0
    8.5262  -15.4138   25.1039 N   0  0  0  0  0  0  0  0  0  0  0  0
    9.7032  -16.3770   26.9867 C   0  0  0  0  0  0  0  0  0  0  0  0
   10.5891  -15.5056   26.8001 O   0  0  0  0  0  0  0  0  0  0  0  0
    9.7676  -17.1275   28.1436 O   0  0  0  0  0  0  0  0  0  0  0  0
  1  2  1  0
  2  3  2  0
  4  5  1  0
  4  2  1  0
  6  5  1  0
  6  7  1  6
  8  9  2  0
  8  6  1  0
 10  8  1  0
 11 10  1  0
 11 12  1  0
 12 18  1  0
 13 12  2  0
 15 16  1  0
 15 14  1  6
 17 15  1  0
 17 19  1  0
 17 18  1  6
 19 20  2  0
 19 21  1  0
M  END
$$$$
