QGT.pdb
     RDKit          3D

 21 20  0  0  1  0  0  0  0  0999 V2000
    7.5478  -20.9655   20.5438 N   0  0  0  0  0  0  0  0  0  0  0  0
    8.4234  -20.0500   21.2398 C   0  0  0  0  0  0  0  0  0  0  0  0
    8.4695  -20.1783   22.4806 O   0  0  0  0  0  0  0  0  0  0  0  0
    9.1759  -19.0583   20.4916 C   0  0  0  0  0  0  0  0  0  0  0  0
    8.4497  -18.2638   19.4522 C   0  0  0  0  0  0  0  0  0  0  0  0
    8.5475  -16.8086   19.7063 C   0  0  2  0  0  0  0  0  0  0  0  0
    9.8610  -16.4227   20.1201 N   0  0  0  0  0  0  0  0  0  0  0  0
    7.5434  -16.2993   20.6642 C   0  0  0  0  0  0  0  0  0  0  0  0
    6.3039  -16.4524   20.4759 O   0  0  0  0  0  0  0  0  0  0  0  0
    7.9716  -15.6174   21.8294 N   0  0  0  0  0  0  0  0  0  0  0  0
    7.0214  -15.1030   22.7956 C   0  0  0  0  0  0  0  0  0  0  0  0
    7.6528  -14.4368   23.9527 C   0  0  0  0  0  0  0  0  0  0  0  0
    8.9243  -14.4190   24.0774 O   0  0  0  0  0  0  0  0  0  0  0  0
    6.4442  -10.9668   25.8550 C   0  0  0  0  0  0  0  0  0  0  0  0
    6.6884  -12.1429   26.7570 C   0  0  1  0  0  0  0  0  0  0  0  0
    5.4732  -12.7966   27.0396 O   0  0  0  0  0  0  0  0  0  0  0  0
    7.5680  -13.1657   26.0751 C   0  0  2  0  0  0  0  0  0  0  0  0
    6.8966  -13.8012   24.9624 N   0  0  0  0  0  0  0  0  0  0  0  0
    8.0935  -14.1698   27.0334 C   0  0  0  0  0  0  0  0  0  0  0  0
    7.7923  -15.3812   26.8899 O   0  0  0  0  0  0  0  0  0  0  0  0
    8.9111  -13.8277   28.0920 O   0  0  0  0  0  0  0  0  0  0  0  0
  1  2  1  0
  2  3  2  0
  4  5  1  0
  4  2  1  0
  6  5  1  0
  6  7  1  1
  8  9  2  0
  8  6  1  0
 10  8  1  0
 11 10  1  0
 11 12  1  0
 12 18  1  0
 13 12  2  0
 15 16  1  0
 15 14  1  6
 17 15  1  0
 17 19  1  0
 17 18  1  6
 19 20  2  0
 19 21  1  0
M  END
$$$$
