QGT.pdb
     RDKit          3D

 21 20  0  0  1  0  0  0  0  0999 V2000
   10.6269  -18.7523   17.0801 N   0  0  0  0  0  0  0  0  0  0  0  0
    9.2018  -18.5212   17.1510 C   0  0  0  0  0  0  0  0  0  0  0  0
    8.5104  -19.1214   16.3026 O   0  0  0  0  0  0  0  0  0  0  0  0
    8.6625  -17.6314   18.1643 C   0  0  0  0  0  0  0  0  0  0  0  0
    9.6282  -16.9171   19.0568 C   0  0  0  0  0  0  0  0  0  0  0  0
    9.3460  -17.1738   20.4873 C   0  0  2  0  0  0  0  0  0  0  0  0
    8.5005  -18.3123   20.6722 N   0  0  0  0  0  0  0  0  0  0  0  0
    8.7916  -16.0075   21.2068 C   0  0  0  0  0  0  0  0  0  0  0  0
    9.4117  -14.9092   21.2751 O   0  0  0  0  0  0  0  0  0  0  0  0
    7.5305  -16.1132   21.8427 N   0  0  0  0  0  0  0  0  0  0  0  0
    6.8688  -14.9529   22.4056 C   0  0  0  0  0  0  0  0  0  0  0  0
    7.5052  -14.4460   23.6382 C   0  0  0  0  0  0  0  0  0  0  0  0
    8.7407  -14.6733   23.8717 O   0  0  0  0  0  0  0  0  0  0  0  0
    6.4984  -10.9043   25.7053 C   0  0  0  0  0  0  0  0  0  0  0  0
    6.6431  -12.1649   26.5093 C   0  0  1  0  0  0  0  0  0  0  0  0
    5.3824  -12.7622   26.7038 O   0  0  0  0  0  0  0  0  0  0  0  0
    7.4799  -13.1802   25.7653 C   0  0  2  0  0  0  0  0  0  0  0  0
    6.7924  -13.7016   24.6042 N   0  0  0  0  0  0  0  0  0  0  0  0
    7.9426  -14.2741   26.6553 C   0  0  0  0  0  0  0  0  0  0  0  0
    7.6173  -15.4607   26.4003 O   0  0  0  0  0  0  0  0  0  0  0  0
    8.7266  -14.0432   27.7680 O   0  0  0  0  0  0  0  0  0  0  0  0
  1  2  1  0
  2  3  2  0
  4  5  1  0
  4  2  1  0
  6  5  1  0
  6  7  1  6
  8  9  2  0
  8  6  1  0
 10  8  1  0
 11 10  1  0
 11 12  1  0
 12 18  1  0
 13 12  2  0
 15 16  1  0
 15 14  1  6
 17 15  1  0
 17 19  1  0
 17 18  1  6
 19 20  2  0
 19 21  1  0
M  END
$$$$
