QGT.pdb
     RDKit          3D

 21 20  0  0  1  0  0  0  0  0999 V2000
    7.4663  -12.7829   17.1300 N   0  0  0  0  0  0  0  0  0  0  0  0
    7.9749  -14.0978   16.8114 C   0  0  0  0  0  0  0  0  0  0  0  0
    8.1828  -14.3223   15.6012 O   0  0  0  0  0  0  0  0  0  0  0  0
    8.2065  -15.0610   17.8735 C   0  0  0  0  0  0  0  0  0  0  0  0
    8.1510  -16.5155   17.5260 C   0  0  0  0  0  0  0  0  0  0  0  0
    8.5230  -17.3691   18.6771 C   0  0  2  0  0  0  0  0  0  0  0  0
    7.4361  -17.5430   19.5902 N   0  0  0  0  0  0  0  0  0  0  0  0
    9.7256  -16.9064   19.4015 C   0  0  0  0  0  0  0  0  0  0  0  0
   10.8237  -16.7042   18.8110 O   0  0  0  0  0  0  0  0  0  0  0  0
    9.6570  -16.6812   20.7982 N   0  0  0  0  0  0  0  0  0  0  0  0
   10.8039  -16.2010   21.5431 C   0  0  0  0  0  0  0  0  0  0  0  0
   10.5376  -16.0052   22.9825 C   0  0  0  0  0  0  0  0  0  0  0  0
   11.4693  -15.6236   23.7692 O   0  0  0  0  0  0  0  0  0  0  0  0
    7.8190  -13.7312   24.3511 C   0  0  0  0  0  0  0  0  0  0  0  0
    7.7133  -15.0582   25.0471 C   0  0  1  0  0  0  0  0  0  0  0  0
    6.7193  -15.8472   24.4362 O   0  0  0  0  0  0  0  0  0  0  0  0
    9.0045  -15.8335   24.9184 C   0  0  2  0  0  0  0  0  0  0  0  0
    9.2642  -16.2293   23.5515 N   0  0  0  0  0  0  0  0  0  0  0  0
    9.0426  -17.0002   25.8350 C   0  0  0  0  0  0  0  0  0  0  0  0
    9.2537  -18.1480   25.3693 O   0  0  0  0  0  0  0  0  0  0  0  0
    8.8535  -16.8795   27.1972 O   0  0  0  0  0  0  0  0  0  0  0  0
  1  2  1  0
  2  3  2  0
  4  5  1  0
  4  2  1  0
  6  5  1  0
  6  7  1  1
  8  9  2  0
  8  6  1  0
 10  8  1  0
 11 10  1  0
 11 12  1  0
 12 18  1  0
 13 12  2  0
 15 16  1  0
 15 14  1  6
 17 15  1  0
 17 19  1  0
 17 18  1  6
 19 20  2  0
 19 21  1  0
M  END
$$$$
