QGT.pdb
     RDKit          3D

 21 20  0  0  1  0  0  0  0  0999 V2000
   10.7665  -15.8206   29.0294 N   0  0  0  0  0  0  0  0  0  0  0  0
    9.9657  -14.7171   28.5496 C   0  0  0  0  0  0  0  0  0  0  0  0
   10.4946  -13.5889   28.6225 O   0  0  0  0  0  0  0  0  0  0  0  0
    8.6321  -14.9632   28.0294 C   0  0  0  0  0  0  0  0  0  0  0  0
    8.1639  -16.3817   27.9415 C   0  0  0  0  0  0  0  0  0  0  0  0
    8.0537  -16.8370   26.5371 C   0  0  2  0  0  0  0  0  0  0  0  0
    9.3296  -17.1518   25.9729 N   0  0  0  0  0  0  0  0  0  0  0  0
    7.3281  -15.8959   25.6578 C   0  0  0  0  0  0  0  0  0  0  0  0
    6.1492  -15.5201   25.9114 O   0  0  0  0  0  0  0  0  0  0  0  0
    7.9622  -15.3959   24.4943 N   0  0  0  0  0  0  0  0  0  0  0  0
    7.2719  -14.5074   23.5805 C   0  0  0  0  0  0  0  0  0  0  0  0
    7.4391  -14.8709   22.1588 C   0  0  0  0  0  0  0  0  0  0  0  0
    7.0344  -16.0030   21.7261 O   0  0  0  0  0  0  0  0  0  0  0  0
    7.2153  -12.1505   19.2323 C   0  0  0  0  0  0  0  0  0  0  0  0
    8.2673  -13.1780   18.9257 C   0  0  1  0  0  0  0  0  0  0  0  0
    9.5480  -12.6501   19.1807 O   0  0  0  0  0  0  0  0  0  0  0  0
    8.1197  -14.3802   19.8300 C   0  0  2  0  0  0  0  0  0  0  0  0
    8.0466  -14.0028   21.2246 N   0  0  0  0  0  0  0  0  0  0  0  0
    9.1898  -15.3819   19.5971 C   0  0  0  0  0  0  0  0  0  0  0  0
    9.2950  -15.9262   18.4694 O   0  0  0  0  0  0  0  0  0  0  0  0
   10.0890  -15.7483   20.5785 O   0  0  0  0  0  0  0  0  0  0  0  0
  1  2  1  0
  2  3  2  0
  4  5  1  0
  4  2  1  0
  6  5  1  0
  6  7  1  6
  8  9  2  0
  8  6  1  0
 10  8  1  0
 11 10  1  0
 11 12  1  0
 12 18  1  0
 13 12  2  0
 15 16  1  0
 15 14  1  1
 17 15  1  0
 17 19  1  0
 17 18  1  1
 19 20  2  0
 19 21  1  0
M  END
$$$$
