QGT.pdb
     RDKit          3D

 21 20  0  0  1  0  0  0  0  0999 V2000
    4.5852  -21.1348   24.3656 N   0  0  0  0  0  0  0  0  0  0  0  0
    4.9921  -20.6011   23.0854 C   0  0  0  0  0  0  0  0  0  0  0  0
    4.3009  -20.9493   22.1061 O   0  0  0  0  0  0  0  0  0  0  0  0
    6.1454  -19.7222   23.0014 C   0  0  0  0  0  0  0  0  0  0  0  0
    6.5500  -19.2229   21.6501 C   0  0  0  0  0  0  0  0  0  0  0  0
    7.7571  -18.3685   21.7197 C   0  0  2  0  0  0  0  0  0  0  0  0
    8.4700  -18.5450   22.9469 N   0  0  0  0  0  0  0  0  0  0  0  0
    7.4885  -16.9329   21.4906 C   0  0  0  0  0  0  0  0  0  0  0  0
    7.1123  -16.4956   20.3670 O   0  0  0  0  0  0  0  0  0  0  0  0
    7.6558  -16.0121   22.5537 N   0  0  0  0  0  0  0  0  0  0  0  0
    7.6544  -14.5814   22.3209 C   0  0  0  0  0  0  0  0  0  0  0  0
    7.6843  -13.7781   23.5598 C   0  0  0  0  0  0  0  0  0  0  0  0
    7.8068  -12.5074   23.5070 O   0  0  0  0  0  0  0  0  0  0  0  0
    6.0475  -11.9521   25.9118 C   0  0  0  0  0  0  0  0  0  0  0  0
    6.6704  -13.0630   26.7084 C   0  0  1  0  0  0  0  0  0  0  0  0
    5.7811  -14.1516   26.7982 O   0  0  0  0  0  0  0  0  0  0  0  0
    7.9087  -13.5866   26.0175 C   0  0  2  0  0  0  0  0  0  0  0  0
    7.5844  -14.3639   24.8414 N   0  0  0  0  0  0  0  0  0  0  0  0
    8.7788  -14.3502   26.9464 C   0  0  0  0  0  0  0  0  0  0  0  0
    9.0837  -15.5385   26.6749 O   0  0  0  0  0  0  0  0  0  0  0  0
    9.2761  -13.8053   28.1133 O   0  0  0  0  0  0  0  0  0  0  0  0
  1  2  1  0
  2  3  2  0
  4  5  1  0
  4  2  1  0
  6  5  1  0
  6  7  1  1
  8  9  2  0
  8  6  1  0
 10  8  1  0
 11 10  1  0
 11 12  1  0
 12 18  1  0
 13 12  2  0
 15 16  1  0
 15 14  1  6
 17 15  1  0
 17 19  1  0
 17 18  1  6
 19 20  2  0
 19 21  1  0
M  END
$$$$
