QGT.pdb
     RDKit          3D

 21 20  0  0  1  0  0  0  0  0999 V2000
    7.5657  -12.5780   17.8146 N   0  0  0  0  0  0  0  0  0  0  0  0
    7.6434  -14.0038   17.5903 C   0  0  0  0  0  0  0  0  0  0  0  0
    7.4342  -14.3826   16.4195 O   0  0  0  0  0  0  0  0  0  0  0  0
    7.9448  -14.8950   18.6968 C   0  0  0  0  0  0  0  0  0  0  0  0
    8.1444  -14.2900   20.0508 C   0  0  0  0  0  0  0  0  0  0  0  0
    8.9598  -15.1619   20.9265 C   0  0  2  0  0  0  0  0  0  0  0  0
    8.8904  -16.5348   20.5321 N   0  0  0  0  0  0  0  0  0  0  0  0
    8.6432  -15.0301   22.3645 C   0  0  0  0  0  0  0  0  0  0  0  0
    8.5980  -13.9054   22.9374 O   0  0  0  0  0  0  0  0  0  0  0  0
    8.3826  -16.1915   23.1322 N   0  0  0  0  0  0  0  0  0  0  0  0
    8.0407  -16.1064   24.5383 C   0  0  0  0  0  0  0  0  0  0  0  0
    9.2064  -15.9007   25.4215 C   0  0  0  0  0  0  0  0  0  0  0  0
   10.3918  -15.9087   24.9446 O   0  0  0  0  0  0  0  0  0  0  0  0
    9.9409  -13.0068   27.6380 C   0  0  0  0  0  0  0  0  0  0  0  0
   10.1095  -14.2337   28.4882 C   0  0  1  0  0  0  0  0  0  0  0  0
    8.9623  -14.4348   29.2804 O   0  0  0  0  0  0  0  0  0  0  0  0
   10.2469  -15.4671   27.6253 C   0  0  2  0  0  0  0  0  0  0  0  0
    9.0718  -15.6923   26.8121 N   0  0  0  0  0  0  0  0  0  0  0  0
   10.5864  -16.6684   28.4280 C   0  0  0  0  0  0  0  0  0  0  0  0
    9.7799  -17.6308   28.4756 O   0  0  0  0  0  0  0  0  0  0  0  0
   11.7667  -16.7780   29.1358 O   0  0  0  0  0  0  0  0  0  0  0  0
  1  2  1  0
  2  3  2  0
  4  5  1  0
  4  2  1  0
  6  5  1  0
  6  7  1  6
  8  9  2  0
  8  6  1  0
 10  8  1  0
 11 10  1  0
 11 12  1  0
 12 18  1  0
 13 12  2  0
 15 16  1  0
 15 14  1  6
 17 15  1  0
 17 19  1  0
 17 18  1  1
 19 20  2  0
 19 21  1  0
M  END
$$$$
