QGT.pdb
     RDKit          3D

 21 20  0  0  1  0  0  0  0  0999 V2000
    9.6592  -14.1186   16.6454 N   0  0  0  0  0  0  0  0  0  0  0  0
    8.2813  -14.5393   16.5286 C   0  0  0  0  0  0  0  0  0  0  0  0
    7.4248  -13.6419   16.6667 O   0  0  0  0  0  0  0  0  0  0  0  0
    7.9700  -15.9343   16.2707 C   0  0  0  0  0  0  0  0  0  0  0  0
    9.1106  -16.8872   16.0966 C   0  0  0  0  0  0  0  0  0  0  0  0
    9.4462  -17.5782   17.3622 C   0  0  2  0  0  0  0  0  0  0  0  0
    8.2984  -17.7603   18.1955 N   0  0  0  0  0  0  0  0  0  0  0  0
   10.5321  -16.9305   18.1281 C   0  0  0  0  0  0  0  0  0  0  0  0
   11.6437  -16.6466   17.5999 O   0  0  0  0  0  0  0  0  0  0  0  0
   10.3323  -16.6159   19.4945 N   0  0  0  0  0  0  0  0  0  0  0  0
   11.3512  -15.9366   20.2700 C   0  0  0  0  0  0  0  0  0  0  0  0
   10.9451  -15.6473   21.6602 C   0  0  0  0  0  0  0  0  0  0  0  0
   11.7474  -15.0588   22.4619 O   0  0  0  0  0  0  0  0  0  0  0  0
    8.0563  -13.5950   22.6953 C   0  0  0  0  0  0  0  0  0  0  0  0
    7.9639  -14.8605   23.4993 C   0  0  1  0  0  0  0  0  0  0  0  0
    7.0281  -15.7370   22.9161 O   0  0  0  0  0  0  0  0  0  0  0  0
    9.2859  -15.5933   23.4964 C   0  0  2  0  0  0  0  0  0  0  0  0
    9.6746  -16.0032   22.1646 N   0  0  0  0  0  0  0  0  0  0  0  0
    9.2833  -16.7423   24.4358 C   0  0  0  0  0  0  0  0  0  0  0  0
    8.9587  -16.5612   25.6361 O   0  0  0  0  0  0  0  0  0  0  0  0
    9.6266  -18.0209   24.0445 O   0  0  0  0  0  0  0  0  0  0  0  0
  1  2  1  0
  2  3  2  0
  4  5  1  0
  4  2  1  0
  6  5  1  0
  6  7  1  1
  8  9  2  0
  8  6  1  0
 10  8  1  0
 11 10  1  0
 11 12  1  0
 12 18  1  0
 13 12  2  0
 15 16  1  0
 15 14  1  6
 17 15  1  0
 17 19  1  0
 17 18  1  6
 19 20  2  0
 19 21  1  0
M  END
$$$$
