QGT.pdb
     RDKit          3D

 21 20  0  0  1  0  0  0  0  0999 V2000
    1.2155  -19.8364   21.6744 N   0  0  0  0  0  0  0  0  0  0  0  0
    2.3554  -19.2850   20.9773 C   0  0  0  0  0  0  0  0  0  0  0  0
    2.4865  -19.6352   19.7864 O   0  0  0  0  0  0  0  0  0  0  0  0
    3.2629  -18.3876   21.6705 C   0  0  0  0  0  0  0  0  0  0  0  0
    4.2285  -17.5934   20.8483 C   0  0  0  0  0  0  0  0  0  0  0  0
    5.4671  -18.3548   20.5690 C   0  0  2  0  0  0  0  0  0  0  0  0
    5.6953  -19.3828   21.5366 N   0  0  0  0  0  0  0  0  0  0  0  0
    6.6719  -17.5090   20.4330 C   0  0  0  0  0  0  0  0  0  0  0  0
    6.6782  -16.4665   19.7201 O   0  0  0  0  0  0  0  0  0  0  0  0
    7.8594  -17.8690   21.1159 N   0  0  0  0  0  0  0  0  0  0  0  0
    9.0638  -17.0694   21.0096 C   0  0  0  0  0  0  0  0  0  0  0  0
    9.3984  -16.3327   22.2450 C   0  0  0  0  0  0  0  0  0  0  0  0
   10.5324  -15.7575   22.3710 O   0  0  0  0  0  0  0  0  0  0  0  0
    7.4802  -13.5547   24.1752 C   0  0  0  0  0  0  0  0  0  0  0  0
    7.7946  -14.6926   25.1042 C   0  0  1  0  0  0  0  0  0  0  0  0
    6.6734  -15.5352   25.2339 O   0  0  0  0  0  0  0  0  0  0  0  0
    8.9038  -15.5513   24.5411 C   0  0  2  0  0  0  0  0  0  0  0  0
    8.4998  -16.2319   23.3303 N   0  0  0  0  0  0  0  0  0  0  0  0
    9.4287  -16.5068   25.5482 C   0  0  0  0  0  0  0  0  0  0  0  0
    9.8860  -16.0731   26.6353 O   0  0  0  0  0  0  0  0  0  0  0  0
    9.4374  -17.8718   25.3415 O   0  0  0  0  0  0  0  0  0  0  0  0
  1  2  1  0
  2  3  2  0
  4  5  1  0
  4  2  1  0
  6  5  1  0
  6  7  1  1
  8  9  2  0
  8  6  1  0
 10  8  1  0
 11 10  1  0
 11 12  1  0
 12 18  1  0
 13 12  2  0
 15 16  1  0
 15 14  1  6
 17 15  1  0
 17 19  1  0
 17 18  1  6
 19 20  2  0
 19 21  1  0
M  END
$$$$
