QGT.pdb
     RDKit          3D

 21 20  0  0  1  0  0  0  0  0999 V2000
    9.6148  -17.2947   13.8672 N   0  0  0  0  0  0  0  0  0  0  0  0
   11.0207  -16.9900   14.0078 C   0  0  0  0  0  0  0  0  0  0  0  0
   11.8100  -17.8292   13.5273 O   0  0  0  0  0  0  0  0  0  0  0  0
   11.4333  -15.7706   14.6803 C   0  0  0  0  0  0  0  0  0  0  0  0
   10.3654  -14.8493   15.1801 C   0  0  0  0  0  0  0  0  0  0  0  0
   10.0008  -15.1428   16.5847 C   0  0  2  0  0  0  0  0  0  0  0  0
    8.6747  -15.6663   16.6971 N   0  0  0  0  0  0  0  0  0  0  0  0
   10.1727  -13.9949   17.5001 C   0  0  0  0  0  0  0  0  0  0  0  0
   11.3118  -13.6293   17.9052 O   0  0  0  0  0  0  0  0  0  0  0  0
    9.0347  -13.2778   17.9436 N   0  0  0  0  0  0  0  0  0  0  0  0
    9.1508  -12.1891   18.8936 C   0  0  0  0  0  0  0  0  0  0  0  0
    9.1966  -12.6321   20.3017 C   0  0  0  0  0  0  0  0  0  0  0  0
    9.2381  -11.7771   21.2503 O   0  0  0  0  0  0  0  0  0  0  0  0
    6.8795  -13.6687   22.4490 C   0  0  0  0  0  0  0  0  0  0  0  0
    7.8608  -14.8012   22.5537 C   0  0  1  0  0  0  0  0  0  0  0  0
    7.4594  -15.8674   21.7254 O   0  0  0  0  0  0  0  0  0  0  0  0
    9.2242  -14.3744   22.0598 C   0  0  2  0  0  0  0  0  0  0  0  0
    9.2003  -13.9976   20.6633 N   0  0  0  0  0  0  0  0  0  0  0  0
   10.2560  -15.4084   22.3225 C   0  0  0  0  0  0  0  0  0  0  0  0
   10.8654  -15.9354   21.3583 O   0  0  0  0  0  0  0  0  0  0  0  0
   10.5816  -15.8237   23.5982 O   0  0  0  0  0  0  0  0  0  0  0  0
  1  2  1  0
  2  3  2  0
  4  5  1  0
  4  2  1  0
  6  5  1  0
  6  7  1  6
  8  9  2  0
  8  6  1  0
 10  8  1  0
 11 10  1  0
 11 12  1  0
 12 18  1  0
 13 12  2  0
 15 16  1  0
 15 14  1  6
 17 15  1  0
 17 19  1  0
 17 18  1  6
 19 20  2  0
 19 21  1  0
M  END
$$$$
