QGT.pdb
     RDKit          3D

 21 20  0  0  1  0  0  0  0  0999 V2000
    8.2031  -11.6421   20.0641 N   0  0  0  0  0  0  0  0  0  0  0  0
    7.8884  -12.9579   19.5552 C   0  0  0  0  0  0  0  0  0  0  0  0
    8.4226  -13.2633   18.4692 O   0  0  0  0  0  0  0  0  0  0  0  0
    6.9955  -13.8276   20.3006 C   0  0  0  0  0  0  0  0  0  0  0  0
    7.1017  -15.3028   20.0738 C   0  0  0  0  0  0  0  0  0  0  0  0
    8.2473  -15.8894   20.8056 C   0  0  2  0  0  0  0  0  0  0  0  0
    8.7025  -17.1050   20.2053 N   0  0  0  0  0  0  0  0  0  0  0  0
    7.9932  -16.0988   22.2467 C   0  0  0  0  0  0  0  0  0  0  0  0
    7.4559  -17.1555   22.6828 O   0  0  0  0  0  0  0  0  0  0  0  0
    8.3569  -15.0922   23.1743 N   0  0  0  0  0  0  0  0  0  0  0  0
    8.0799  -15.2339   24.5900 C   0  0  0  0  0  0  0  0  0  0  0  0
    9.2884  -15.4383   25.4140 C   0  0  0  0  0  0  0  0  0  0  0  0
   10.4491  -15.4193   24.8801 O   0  0  0  0  0  0  0  0  0  0  0  0
   10.4096  -13.2440   28.0053 C   0  0  0  0  0  0  0  0  0  0  0  0
   10.4517  -14.6029   28.6442 C   0  0  1  0  0  0  0  0  0  0  0  0
    9.3009  -14.8034   29.4312 O   0  0  0  0  0  0  0  0  0  0  0  0
   10.4370  -15.6885   27.5925 C   0  0  2  0  0  0  0  0  0  0  0  0
    9.2225  -15.6645   26.8068 N   0  0  0  0  0  0  0  0  0  0  0  0
   10.6735  -17.0307   28.1800 C   0  0  0  0  0  0  0  0  0  0  0  0
    9.7819  -17.9118   28.0929 O   0  0  0  0  0  0  0  0  0  0  0  0
   11.8472  -17.3601   28.8281 O   0  0  0  0  0  0  0  0  0  0  0  0
  1  2  1  0
  2  3  2  0
  4  5  1  0
  4  2  1  0
  6  5  1  0
  6  7  1  6
  8  9  2  0
  8  6  1  0
 10  8  1  0
 11 10  1  0
 11 12  1  0
 12 18  1  0
 13 12  2  0
 15 16  1  0
 15 14  1  6
 17 15  1  0
 17 19  1  0
 17 18  1  1
 19 20  2  0
 19 21  1  0
M  END
$$$$
