QNF.pdb
     RDKit          3D

 29 29  0  0  1  0  0  0  0  0999 V2000
    8.7238  -12.5497   18.1439 N   0  0  0  0  0  0  0  0  0  0  0  0
    8.2164  -13.3934   17.1298 C   0  0  0  0  0  0  0  0  0  0  0  0
    8.5319  -13.1602   15.9476 O   0  0  0  0  0  0  0  0  0  0  0  0
    7.3438  -14.5135   17.4687 C   0  0  0  0  0  0  0  0  0  0  0  0
    7.1024  -14.7683   18.9073 C   0  0  0  0  0  0  0  0  0  0  0  0
    8.0475  -15.7407   19.5766 C   0  0  2  0  0  0  0  0  0  0  0  0
    8.4410  -16.8548   18.8071 N   0  0  0  0  0  0  0  0  0  0  0  0
    7.6566  -16.0869   20.9533 C   0  0  0  0  0  0  0  0  0  0  0  0
    6.4329  -15.9284   21.2406 O   0  0  0  0  0  0  0  0  0  0  0  0
    5.6148  -17.8829   25.2066 N   0  0  0  0  0  0  0  0  0  0  0  0
    6.6591  -18.5312   24.5163 C   0  0  0  0  0  0  0  0  0  0  0  0
    7.3029  -19.4536   25.0606 O   0  0  0  0  0  0  0  0  0  0  0  0
    7.0154  -18.1379   23.1427 C   0  0  0  0  0  0  0  0  0  0  0  0
    7.9766  -16.9717   23.2111 C   0  0  2  0  0  0  0  0  0  0  0  0
    8.5283  -16.5679   21.9511 N   0  0  0  0  0  0  0  0  0  0  0  0
    9.0731  -17.2730   24.2003 C   0  0  0  0  0  0  0  0  0  0  0  0
    9.2532  -18.4248   24.6558 O   0  0  0  0  0  0  0  0  0  0  0  0
    9.9011  -16.2025   24.5975 N   0  0  0  0  0  0  0  0  0  0  0  0
    9.4004  -15.0919   25.4444 C   0  0  1  0  0  0  0  0  0  0  0  0
    8.1798  -14.4960   24.7822 C   0  0  0  0  0  0  0  0  0  0  0  0
    7.7349  -13.3158   25.5273 C   0  0  0  0  0  0  0  0  0  0  0  0
    8.5055  -12.7493   26.4967 C   0  0  0  0  0  0  0  0  0  0  0  0
    8.0311  -11.6442   27.1643 C   0  0  0  0  0  0  0  0  0  0  0  0
    6.7864  -11.0952   26.8729 C   0  0  0  0  0  0  0  0  0  0  0  0
    6.0228  -11.6650   25.9058 C   0  0  0  0  0  0  0  0  0  0  0  0
    6.4907  -12.7817   25.2231 C   0  0  0  0  0  0  0  0  0  0  0  0
    9.2121  -15.5198   26.8175 C   0  0  0  0  0  0  0  0  0  0  0  0
    8.6296  -16.7526   27.1285 O   0  0  0  0  0  0  0  0  0  0  0  0
    9.5611  -14.8046   27.7771 O   0  0  0  0  0  0  0  0  0  0  0  0
  1  2  1  0
  2  3  2  0
  4  2  1  0
  4  5  1  0
  6  5  1  0
  6  7  1  6
  8  9  2  0
  8  6  1  0
 10 11  1  0
 11 12  2  0
 11 13  1  0
 14 13  1  6
 14 15  1  0
 15  8  1  0
 16 18  1  0
 16 14  1  0
 17 16  2  0
 19 20  1  6
 19 18  1  0
 21 22  2  0
 21 20  1  0
 23 22  1  0
 24 23  2  0
 25 24  1  0
 25 26  2  0
 26 21  1  0
 27 19  1  0
 28 27  1  0
 29 27  2  0
M  END
$$$$
