QNF.pdb
     RDKit          3D

 29 29  0  0  1  0  0  0  0  0999 V2000
    6.8811  -13.0679   16.5078 N   0  0  0  0  0  0  0  0  0  0  0  0
    8.0208  -13.8754   16.7238 C   0  0  0  0  0  0  0  0  0  0  0  0
    8.5072  -14.4905   15.7560 O   0  0  0  0  0  0  0  0  0  0  0  0
    8.6109  -13.9793   18.0549 C   0  0  0  0  0  0  0  0  0  0  0  0
    7.8823  -13.3284   19.1677 C   0  0  0  0  0  0  0  0  0  0  0  0
    8.5372  -13.4120   20.5281 C   0  0  2  0  0  0  0  0  0  0  0  0
    9.7633  -12.7305   20.6710 N   0  0  0  0  0  0  0  0  0  0  0  0
    8.5535  -14.7730   21.0899 C   0  0  0  0  0  0  0  0  0  0  0  0
    7.4837  -15.4398   20.9633 O   0  0  0  0  0  0  0  0  0  0  0  0
    9.5515  -19.7819   21.8544 N   0  0  0  0  0  0  0  0  0  0  0  0
   10.4052  -18.9302   22.5844 C   0  0  0  0  0  0  0  0  0  0  0  0
   10.9029  -19.3067   23.6672 O   0  0  0  0  0  0  0  0  0  0  0  0
   10.7292  -17.5811   22.0910 C   0  0  0  0  0  0  0  0  0  0  0  0
    9.5057  -16.7055   22.2482 C   0  0  2  0  0  0  0  0  0  0  0  0
    9.6487  -15.3705   21.7459 N   0  0  0  0  0  0  0  0  0  0  0  0
    9.0745  -16.6876   23.6923 C   0  0  0  0  0  0  0  0  0  0  0  0
    8.1995  -17.4683   24.1297 O   0  0  0  0  0  0  0  0  0  0  0  0
    9.6995  -15.7538   24.5447 N   0  0  0  0  0  0  0  0  0  0  0  0
    9.3982  -15.6874   25.9960 C   0  0  1  0  0  0  0  0  0  0  0  0
    7.8982  -15.7159   26.1765 C   0  0  0  0  0  0  0  0  0  0  0  0
    7.3644  -14.3526   26.1259 C   0  0  0  0  0  0  0  0  0  0  0  0
    6.5089  -13.9552   25.1437 C   0  0  0  0  0  0  0  0  0  0  0  0
    6.0447  -12.6603   25.1478 C   0  0  0  0  0  0  0  0  0  0  0  0
    6.4289  -11.7514   26.1286 C   0  0  0  0  0  0  0  0  0  0  0  0
    7.2823  -12.1537   27.1047 C   0  0  0  0  0  0  0  0  0  0  0  0
    7.7583  -13.4597   27.1125 C   0  0  0  0  0  0  0  0  0  0  0  0
   10.1290  -16.7008   26.7329 C   0  0  0  0  0  0  0  0  0  0  0  0
   11.0079  -17.5815   26.0944 O   0  0  0  0  0  0  0  0  0  0  0  0
   10.0020  -16.8288   27.9664 O   0  0  0  0  0  0  0  0  0  0  0  0
  1  2  1  0
  2  3  2  0
  4  2  1  0
  4  5  1  0
  6  5  1  0
  6  7  1  6
  8  9  2  0
  8  6  1  0
 10 11  1  0
 11 12  2  0
 11 13  1  0
 14 13  1  1
 14 15  1  0
 15  8  1  0
 16 18  1  0
 16 14  1  0
 17 16  2  0
 19 20  1  6
 19 18  1  0
 21 22  2  0
 21 20  1  0
 23 22  1  0
 24 23  2  0
 25 24  1  0
 25 26  2  0
 26 21  1  0
 27 19  1  0
 28 27  1  0
 29 27  2  0
M  END
$$$$
