QNF.pdb
     RDKit          3D

 29 29  0  0  1  0  0  0  0  0999 V2000
    9.6057  -13.2970   18.9993 N   0  0  0  0  0  0  0  0  0  0  0  0
    8.2962  -13.5182   18.5157 C   0  0  0  0  0  0  0  0  0  0  0  0
    8.0205  -13.1570   17.3559 O   0  0  0  0  0  0  0  0  0  0  0  0
    7.2945  -14.1589   19.3623 C   0  0  0  0  0  0  0  0  0  0  0  0
    7.6970  -14.4926   20.7478 C   0  0  0  0  0  0  0  0  0  0  0  0
    8.0217  -15.9456   21.0125 C   0  0  2  0  0  0  0  0  0  0  0  0
    7.1975  -16.8936   20.3722 N   0  0  0  0  0  0  0  0  0  0  0  0
    8.2645  -16.2440   22.4338 C   0  0  0  0  0  0  0  0  0  0  0  0
    7.6420  -15.5219   23.2680 O   0  0  0  0  0  0  0  0  0  0  0  0
   12.0368  -18.2503   21.2185 N   0  0  0  0  0  0  0  0  0  0  0  0
   11.8872  -16.8615   21.0288 C   0  0  0  0  0  0  0  0  0  0  0  0
   12.4428  -16.2889   20.0669 O   0  0  0  0  0  0  0  0  0  0  0  0
   11.0764  -16.0550   21.9565 C   0  0  0  0  0  0  0  0  0  0  0  0
   10.5240  -16.9673   23.0293 C   0  0  2  0  0  0  0  0  0  0  0  0
    9.1231  -17.2508   22.9197 N   0  0  0  0  0  0  0  0  0  0  0  0
   10.8492  -16.4078   24.3905 C   0  0  0  0  0  0  0  0  0  0  0  0
   12.0168  -16.0929   24.7131 O   0  0  0  0  0  0  0  0  0  0  0  0
    9.7814  -16.2458   25.2976 N   0  0  0  0  0  0  0  0  0  0  0  0
   10.0032  -15.8747   26.7169 C   0  0  1  0  0  0  0  0  0  0  0  0
    9.9062  -14.3719   26.8409 C   0  0  0  0  0  0  0  0  0  0  0  0
    8.5301  -13.9388   26.5867 C   0  0  0  0  0  0  0  0  0  0  0  0
    8.1133  -13.5731   25.3429 C   0  0  0  0  0  0  0  0  0  0  0  0
    6.8093  -13.1717   25.1680 C   0  0  0  0  0  0  0  0  0  0  0  0
    5.9108  -13.1305   26.2294 C   0  0  0  0  0  0  0  0  0  0  0  0
    6.3326  -13.4958   27.4670 C   0  0  0  0  0  0  0  0  0  0  0  0
    7.6477  -13.9041   27.6572 C   0  0  0  0  0  0  0  0  0  0  0  0
    9.1315  -16.6256   27.6003 C   0  0  0  0  0  0  0  0  0  0  0  0
    8.2037  -17.5478   27.1057 O   0  0  0  0  0  0  0  0  0  0  0  0
    9.1733  -16.4782   28.8375 O   0  0  0  0  0  0  0  0  0  0  0  0
  1  2  1  0
  2  3  2  0
  4  2  1  0
  4  5  1  0
  6  5  1  0
  6  7  1  1
  8  9  2  0
  8  6  1  0
 10 11  1  0
 11 12  2  0
 11 13  1  0
 14 13  1  6
 14 15  1  0
 15  8  1  0
 16 18  1  0
 16 14  1  0
 17 16  2  0
 19 20  1  6
 19 18  1  0
 21 22  2  0
 21 20  1  0
 23 22  1  0
 24 23  2  0
 25 24  1  0
 25 26  2  0
 26 21  1  0
 27 19  1  0
 28 27  1  0
 29 27  2  0
M  END
$$$$
