QNF.pdb
     RDKit          3D

 29 29  0  0  1  0  0  0  0  0999 V2000
    8.4070  -12.0915   17.8360 N   0  0  0  0  0  0  0  0  0  0  0  0
    7.8054  -13.2504   17.2949 C   0  0  0  0  0  0  0  0  0  0  0  0
    7.7960  -13.3944   16.0577 O   0  0  0  0  0  0  0  0  0  0  0  0
    7.2121  -14.2535   18.1738 C   0  0  0  0  0  0  0  0  0  0  0  0
    7.2195  -13.9659   19.6264 C   0  0  0  0  0  0  0  0  0  0  0  0
    8.4222  -14.4648   20.3953 C   0  0  2  0  0  0  0  0  0  0  0  0
    9.5118  -14.9149   19.6218 N   0  0  0  0  0  0  0  0  0  0  0  0
    8.0767  -15.3694   21.5045 C   0  0  0  0  0  0  0  0  0  0  0  0
    7.0191  -15.0882   22.1427 O   0  0  0  0  0  0  0  0  0  0  0  0
    9.9638  -19.3461   20.9889 N   0  0  0  0  0  0  0  0  0  0  0  0
    8.7815  -19.1890   21.7404 C   0  0  0  0  0  0  0  0  0  0  0  0
    7.6729  -19.4933   21.2503 O   0  0  0  0  0  0  0  0  0  0  0  0
    8.8241  -18.6638   23.1155 C   0  0  0  0  0  0  0  0  0  0  0  0
    8.4332  -17.2028   23.0839 C   0  0  2  0  0  0  0  0  0  0  0  0
    8.8241  -16.4976   21.8987 N   0  0  0  0  0  0  0  0  0  0  0  0
    8.9583  -16.5085   24.3143 C   0  0  0  0  0  0  0  0  0  0  0  0
    9.4806  -15.3725   24.2590 O   0  0  0  0  0  0  0  0  0  0  0  0
    8.8368  -17.1877   25.5444 N   0  0  0  0  0  0  0  0  0  0  0  0
    8.9910  -16.4929   26.8462 C   0  0  1  0  0  0  0  0  0  0  0  0
    7.6584  -15.8933   27.2311 C   0  0  0  0  0  0  0  0  0  0  0  0
    7.5572  -14.5280   26.7099 C   0  0  0  0  0  0  0  0  0  0  0  0
    8.3299  -13.5176   27.1961 C   0  0  0  0  0  0  0  0  0  0  0  0
    8.1860  -12.2554   26.6684 C   0  0  0  0  0  0  0  0  0  0  0  0
    7.2719  -11.9894   25.6539 C   0  0  0  0  0  0  0  0  0  0  0  0
    6.5041  -13.0010   25.1739 C   0  0  0  0  0  0  0  0  0  0  0  0
    6.6401  -14.2812   25.6980 C   0  0  0  0  0  0  0  0  0  0  0  0
    9.5877  -17.3637   27.8410 C   0  0  0  0  0  0  0  0  0  0  0  0
   10.2057  -16.8533   28.9871 O   0  0  0  0  0  0  0  0  0  0  0  0
    9.5750  -18.6038   27.7139 O   0  0  0  0  0  0  0  0  0  0  0  0
  1  2  1  0
  2  3  2  0
  4  2  1  0
  4  5  1  0
  6  5  1  0
  6  7  1  6
  8  9  2  0
  8  6  1  0
 10 11  1  0
 11 12  2  0
 11 13  1  0
 14 13  1  6
 14 15  1  0
 15  8  1  0
 16 18  1  0
 16 14  1  0
 17 16  2  0
 19 20  1  1
 19 18  1  0
 21 22  2  0
 21 20  1  0
 23 22  1  0
 24 23  2  0
 25 24  1  0
 25 26  2  0
 26 21  1  0
 27 19  1  0
 28 27  1  0
 29 27  2  0
M  END
$$$$
