QNF.pdb
     RDKit          3D

 29 29  0  0  1  0  0  0  0  0999 V2000
    8.3075  -12.5311   18.8644 N   0  0  0  0  0  0  0  0  0  0  0  0
    8.3960  -13.7391   18.1360 C   0  0  0  0  0  0  0  0  0  0  0  0
    8.6159  -13.6816   16.9113 O   0  0  0  0  0  0  0  0  0  0  0  0
    8.2344  -15.0228   18.8119 C   0  0  0  0  0  0  0  0  0  0  0  0
    7.8959  -14.9875   20.2531 C   0  0  0  0  0  0  0  0  0  0  0  0
    7.6765  -16.3288   20.9160 C   0  0  2  0  0  0  0  0  0  0  0  0
    7.2638  -17.3798   20.0714 N   0  0  0  0  0  0  0  0  0  0  0  0
    6.9072  -16.2464   22.1688 C   0  0  0  0  0  0  0  0  0  0  0  0
    5.6470  -16.3046   22.0526 O   0  0  0  0  0  0  0  0  0  0  0  0
    7.5177  -20.3243   25.7496 N   0  0  0  0  0  0  0  0  0  0  0  0
    6.6944  -19.3195   25.2019 C   0  0  0  0  0  0  0  0  0  0  0  0
    5.5531  -19.1111   25.6665 O   0  0  0  0  0  0  0  0  0  0  0  0
    7.1574  -18.4952   24.0729 C   0  0  0  0  0  0  0  0  0  0  0  0
    7.0771  -17.0395   24.4764 C   0  0  2  0  0  0  0  0  0  0  0  0
    7.4613  -16.1073   23.4574 N   0  0  0  0  0  0  0  0  0  0  0  0
    7.8780  -16.8146   25.7332 C   0  0  0  0  0  0  0  0  0  0  0  0
    7.7749  -17.5699   26.7258 O   0  0  0  0  0  0  0  0  0  0  0  0
    8.7603  -15.7143   25.7523 N   0  0  0  0  0  0  0  0  0  0  0  0
    9.6622  -15.4479   26.8999 C   0  0  1  0  0  0  0  0  0  0  0  0
    8.9750  -14.4811   27.8360 C   0  0  0  0  0  0  0  0  0  0  0  0
    7.9316  -13.7469   27.1161 C   0  0  0  0  0  0  0  0  0  0  0  0
    6.6096  -14.0157   27.3022 C   0  0  0  0  0  0  0  0  0  0  0  0
    5.6767  -13.2946   26.5938 C   0  0  0  0  0  0  0  0  0  0  0  0
    6.0523  -12.3017   25.6946 C   0  0  0  0  0  0  0  0  0  0  0  0
    7.3718  -12.0389   25.5131 C   0  0  0  0  0  0  0  0  0  0  0  0
    8.3247  -12.7599   26.2233 C   0  0  0  0  0  0  0  0  0  0  0  0
   10.1167  -16.6826   27.5107 C   0  0  0  0  0  0  0  0  0  0  0  0
   11.0641  -16.6870   28.5394 O   0  0  0  0  0  0  0  0  0  0  0  0
    9.6817  -17.7912   27.1420 O   0  0  0  0  0  0  0  0  0  0  0  0
  1  2  1  0
  2  3  2  0
  4  2  1  0
  4  5  1  0
  6  5  1  0
  6  7  1  6
  8  9  2  0
  8  6  1  0
 10 11  1  0
 11 12  2  0
 11 13  1  0
 14 13  1  6
 14 15  1  0
 15  8  1  0
 16 18  1  0
 16 14  1  0
 17 16  2  0
 19 20  1  1
 19 18  1  0
 21 22  2  0
 21 20  1  0
 23 22  1  0
 24 23  2  0
 25 24  1  0
 25 26  2  0
 26 21  1  0
 27 19  1  0
 28 27  1  0
 29 27  2  0
M  END
$$$$
