QNF.pdb
     RDKit          3D

 29 29  0  0  1  0  0  0  0  0999 V2000
    8.5787  -13.3694   15.9276 N   0  0  0  0  0  0  0  0  0  0  0  0
    7.6211  -14.3059   16.3787 C   0  0  0  0  0  0  0  0  0  0  0  0
    6.4412  -13.9315   16.5178 O   0  0  0  0  0  0  0  0  0  0  0  0
    8.0134  -15.6811   16.6710 C   0  0  0  0  0  0  0  0  0  0  0  0
    9.4521  -16.0113   16.5517 C   0  0  0  0  0  0  0  0  0  0  0  0
    9.8446  -17.4180   16.9437 C   0  0  2  0  0  0  0  0  0  0  0  0
    9.1175  -18.4598   16.3322 N   0  0  0  0  0  0  0  0  0  0  0  0
   10.0182  -17.5968   18.3949 C   0  0  0  0  0  0  0  0  0  0  0  0
    9.1458  -18.3083   18.9759 O   0  0  0  0  0  0  0  0  0  0  0  0
   14.5884  -18.6533   22.1417 N   0  0  0  0  0  0  0  0  0  0  0  0
   13.4598  -18.9038   21.3351 C   0  0  0  0  0  0  0  0  0  0  0  0
   12.7519  -19.9150   21.5307 O   0  0  0  0  0  0  0  0  0  0  0  0
   13.0897  -17.9842   20.2462 C   0  0  0  0  0  0  0  0  0  0  0  0
   11.5879  -17.8036   20.2595 C   0  0  2  0  0  0  0  0  0  0  0  0
   11.0605  -17.0425   19.1651 N   0  0  0  0  0  0  0  0  0  0  0  0
   11.1580  -17.2105   21.5766 C   0  0  0  0  0  0  0  0  0  0  0  0
   11.5133  -17.7044   22.6704 O   0  0  0  0  0  0  0  0  0  0  0  0
   10.3356  -16.0654   21.5352 N   0  0  0  0  0  0  0  0  0  0  0  0
    9.8677  -15.3868   22.7689 C   0  0  1  0  0  0  0  0  0  0  0  0
    8.3945  -15.0849   22.6213 C   0  0  0  0  0  0  0  0  0  0  0  0
    8.1704  -14.2696   21.4250 C   0  0  0  0  0  0  0  0  0  0  0  0
    7.0857  -14.4581   20.6236 C   0  0  0  0  0  0  0  0  0  0  0  0
    6.9324  -13.6631   19.5116 C   0  0  0  0  0  0  0  0  0  0  0  0
    7.8574  -12.6755   19.1884 C   0  0  0  0  0  0  0  0  0  0  0  0
    8.9370  -12.4929   19.9911 C   0  0  0  0  0  0  0  0  0  0  0  0
    9.1034  -13.2891   21.1183 C   0  0  0  0  0  0  0  0  0  0  0  0
   10.2287  -16.1408   23.9543 C   0  0  0  0  0  0  0  0  0  0  0  0
   10.0396  -15.6225   25.2394 O   0  0  0  0  0  0  0  0  0  0  0  0
   10.7238  -17.2822   23.8755 O   0  0  0  0  0  0  0  0  0  0  0  0
  1  2  1  0
  2  3  2  0
  4  2  1  0
  4  5  1  0
  6  5  1  0
  6  7  1  1
  8  9  2  0
  8  6  1  0
 10 11  1  0
 11 12  2  0
 11 13  1  0
 14 13  1  1
 14 15  1  0
 15  8  1  0
 16 18  1  0
 16 14  1  0
 17 16  2  0
 19 20  1  6
 19 18  1  0
 21 22  2  0
 21 20  1  0
 23 22  1  0
 24 23  2  0
 25 24  1  0
 25 26  2  0
 26 21  1  0
 27 19  1  0
 28 27  1  0
 29 27  2  0
M  END
$$$$
