QNF.pdb
     RDKit          3D

 29 29  0  0  1  0  0  0  0  0999 V2000
    7.4992  -19.5997   16.3655 N   0  0  0  0  0  0  0  0  0  0  0  0
    8.8872  -19.5454   16.6270 C   0  0  0  0  0  0  0  0  0  0  0  0
    9.6558  -20.2087   15.9053 O   0  0  0  0  0  0  0  0  0  0  0  0
    9.4014  -18.7254   17.7197 C   0  0  0  0  0  0  0  0  0  0  0  0
    8.4198  -17.9070   18.4677 C   0  0  0  0  0  0  0  0  0  0  0  0
    8.5995  -17.8628   19.9685 C   0  0  2  0  0  0  0  0  0  0  0  0
    7.5848  -18.4727   20.7344 N   0  0  0  0  0  0  0  0  0  0  0  0
    9.0006  -16.5392   20.4737 C   0  0  0  0  0  0  0  0  0  0  0  0
   10.1755  -16.1654   20.1824 O   0  0  0  0  0  0  0  0  0  0  0  0
    6.3201  -13.2353   19.5743 N   0  0  0  0  0  0  0  0  0  0  0  0
    7.6794  -13.4166   19.9008 C   0  0  0  0  0  0  0  0  0  0  0  0
    8.5003  -13.7694   19.0270 O   0  0  0  0  0  0  0  0  0  0  0  0
    8.1627  -13.1964   21.2742 C   0  0  0  0  0  0  0  0  0  0  0  0
    8.7692  -14.4858   21.7824 C   0  0  2  0  0  0  0  0  0  0  0  0
    8.1895  -15.6807   21.2430 N   0  0  0  0  0  0  0  0  0  0  0  0
    8.7296  -14.5079   23.2889 C   0  0  0  0  0  0  0  0  0  0  0  0
    8.1242  -13.6317   23.9464 O   0  0  0  0  0  0  0  0  0  0  0  0
    9.4019  -15.5628   23.9404 N   0  0  0  0  0  0  0  0  0  0  0  0
    9.4340  -15.6823   25.4189 C   0  0  1  0  0  0  0  0  0  0  0  0
    8.0239  -15.5386   25.9427 C   0  0  0  0  0  0  0  0  0  0  0  0
    7.7518  -14.1352   26.2626 C   0  0  0  0  0  0  0  0  0  0  0  0
    8.6673  -13.3569   26.9033 C   0  0  0  0  0  0  0  0  0  0  0  0
    8.3518  -12.0469   27.1796 C   0  0  0  0  0  0  0  0  0  0  0  0
    7.1228  -11.5020   26.8213 C   0  0  0  0  0  0  0  0  0  0  0  0
    6.2142  -12.2833   26.1833 C   0  0  0  0  0  0  0  0  0  0  0  0
    6.5208  -13.6086   25.8975 C   0  0  0  0  0  0  0  0  0  0  0  0
   10.1288  -16.8855   25.8355 C   0  0  0  0  0  0  0  0  0  0  0  0
   10.3607  -17.1688   27.1853 O   0  0  0  0  0  0  0  0  0  0  0  0
   10.5490  -17.7160   25.0063 O   0  0  0  0  0  0  0  0  0  0  0  0
  1  2  1  0
  2  3  2  0
  4  2  1  0
  4  5  1  0
  6  5  1  0
  6  7  1  1
  8  9  2  0
  8  6  1  0
 10 11  1  0
 11 12  2  0
 11 13  1  0
 14 13  1  6
 14 15  1  0
 15  8  1  0
 16 18  1  0
 16 14  1  0
 17 16  2  0
 19 20  1  6
 19 18  1  0
 21 22  2  0
 21 20  1  0
 23 22  1  0
 24 23  2  0
 25 24  1  0
 25 26  2  0
 26 21  1  0
 27 19  1  0
 28 27  1  0
 29 27  2  0
M  END
$$$$
