QNF.pdb
     RDKit          3D

 29 29  0  0  1  0  0  0  0  0999 V2000
    7.9001  -12.6781   17.1411 N   0  0  0  0  0  0  0  0  0  0  0  0
    8.0109  -14.0675   16.9064 C   0  0  0  0  0  0  0  0  0  0  0  0
    7.9523  -14.4800   15.7326 O   0  0  0  0  0  0  0  0  0  0  0  0
    8.1925  -14.9927   18.0209 C   0  0  0  0  0  0  0  0  0  0  0  0
    9.2610  -14.6729   18.9949 C   0  0  0  0  0  0  0  0  0  0  0  0
    9.3857  -15.6108   20.1746 C   0  0  2  0  0  0  0  0  0  0  0  0
    9.7116  -16.9491   19.8732 N   0  0  0  0  0  0  0  0  0  0  0  0
    8.2895  -15.4789   21.1487 C   0  0  0  0  0  0  0  0  0  0  0  0
    7.9143  -14.2967   21.4071 O   0  0  0  0  0  0  0  0  0  0  0  0
    6.1276  -17.8648   20.7096 N   0  0  0  0  0  0  0  0  0  0  0  0
    5.4515  -18.1585   21.9112 C   0  0  0  0  0  0  0  0  0  0  0  0
    4.5943  -19.0669   21.9514 O   0  0  0  0  0  0  0  0  0  0  0  0
    5.7374  -17.4040   23.1431 C   0  0  0  0  0  0  0  0  0  0  0  0
    6.6608  -16.2560   22.7999 C   0  0  2  0  0  0  0  0  0  0  0  0
    7.6456  -16.5500   21.8005 N   0  0  0  0  0  0  0  0  0  0  0  0
    7.3141  -15.7355   24.0544 C   0  0  0  0  0  0  0  0  0  0  0  0
    7.1007  -14.5774   24.4781 O   0  0  0  0  0  0  0  0  0  0  0  0
    8.1809  -16.6081   24.7448 N   0  0  0  0  0  0  0  0  0  0  0  0
    8.8896  -16.1982   25.9821 C   0  0  1  0  0  0  0  0  0  0  0  0
    7.8602  -15.8274   27.0243 C   0  0  0  0  0  0  0  0  0  0  0  0
    7.4327  -14.4397   26.8308 C   0  0  0  0  0  0  0  0  0  0  0  0
    6.1619  -14.1288   26.4528 C   0  0  0  0  0  0  0  0  0  0  0  0
    5.8216  -12.8068   26.2833 C   0  0  0  0  0  0  0  0  0  0  0  0
    6.7432  -11.7849   26.4878 C   0  0  0  0  0  0  0  0  0  0  0  0
    8.0086  -12.1015   26.8641 C   0  0  0  0  0  0  0  0  0  0  0  0
    8.3653  -13.4335   27.0395 C   0  0  0  0  0  0  0  0  0  0  0  0
    9.8535  -17.2008   26.3941 C   0  0  0  0  0  0  0  0  0  0  0  0
   10.6276  -17.0437   27.5482 O   0  0  0  0  0  0  0  0  0  0  0  0
   10.0320  -18.2435   25.7348 O   0  0  0  0  0  0  0  0  0  0  0  0
  1  2  1  0
  2  3  2  0
  4  2  1  0
  4  5  1  0
  6  5  1  0
  6  7  1  6
  8  9  2  0
  8  6  1  0
 10 11  1  0
 11 12  2  0
 11 13  1  0
 14 13  1  1
 14 15  1  0
 15  8  1  0
 16 18  1  0
 16 14  1  0
 17 16  2  0
 19 20  1  1
 19 18  1  0
 21 22  2  0
 21 20  1  0
 23 22  1  0
 24 23  2  0
 25 24  1  0
 25 26  2  0
 26 21  1  0
 27 19  1  0
 28 27  1  0
 29 27  2  0
M  END
$$$$
