QNF.pdb
     RDKit          3D

 29 29  0  0  1  0  0  0  0  0999 V2000
    6.6627  -14.3160   16.0254 N   0  0  0  0  0  0  0  0  0  0  0  0
    8.0637  -14.3274   16.2123 C   0  0  0  0  0  0  0  0  0  0  0  0
    8.7903  -14.6452   15.2519 O   0  0  0  0  0  0  0  0  0  0  0  0
    8.6392  -13.9707   17.5055 C   0  0  0  0  0  0  0  0  0  0  0  0
    7.6983  -13.7863   18.6341 C   0  0  0  0  0  0  0  0  0  0  0  0
    8.3236  -13.4724   19.9746 C   0  0  2  0  0  0  0  0  0  0  0  0
    9.4906  -12.6816   19.9465 N   0  0  0  0  0  0  0  0  0  0  0  0
    8.4288  -14.6424   20.8624 C   0  0  0  0  0  0  0  0  0  0  0  0
    7.3445  -15.2453   21.1190 O   0  0  0  0  0  0  0  0  0  0  0  0
   11.1287  -17.7048   19.4362 N   0  0  0  0  0  0  0  0  0  0  0  0
   10.2896  -17.9253   20.5472 C   0  0  0  0  0  0  0  0  0  0  0  0
    9.2479  -18.6059   20.4305 O   0  0  0  0  0  0  0  0  0  0  0  0
   10.6185  -17.3605   21.8667 C   0  0  0  0  0  0  0  0  0  0  0  0
    9.5741  -16.3245   22.2196 C   0  0  2  0  0  0  0  0  0  0  0  0
    9.6226  -15.1254   21.4356 N   0  0  0  0  0  0  0  0  0  0  0  0
    9.6524  -16.0029   23.6899 C   0  0  0  0  0  0  0  0  0  0  0  0
   10.6039  -15.3486   24.1728 O   0  0  0  0  0  0  0  0  0  0  0  0
    8.6042  -16.4658   24.5123 N   0  0  0  0  0  0  0  0  0  0  0  0
    8.6143  -16.2742   25.9836 C   0  0  1  0  0  0  0  0  0  0  0  0
    7.2535  -15.7759   26.4120 C   0  0  0  0  0  0  0  0  0  0  0  0
    7.1840  -14.3210   26.2561 C   0  0  0  0  0  0  0  0  0  0  0  0
    6.3215  -13.7357   25.3797 C   0  0  0  0  0  0  0  0  0  0  0  0
    6.3056  -12.3642   25.2756 C   0  0  0  0  0  0  0  0  0  0  0  0
    7.1482  -11.5652   26.0419 C   0  0  0  0  0  0  0  0  0  0  0  0
    8.0061  -12.1548   26.9134 C   0  0  0  0  0  0  0  0  0  0  0  0
    8.0317  -13.5398   27.0288 C   0  0  0  0  0  0  0  0  0  0  0  0
    9.0797  -17.4660   26.6670 C   0  0  0  0  0  0  0  0  0  0  0  0
    9.5161  -17.4269   27.9951 O   0  0  0  0  0  0  0  0  0  0  0  0
    9.1108  -18.5743   26.0972 O   0  0  0  0  0  0  0  0  0  0  0  0
  1  2  1  0
  2  3  2  0
  4  2  1  0
  4  5  1  0
  6  5  1  0
  6  7  1  6
  8  9  2  0
  8  6  1  0
 10 11  1  0
 11 12  2  0
 11 13  1  0
 14 13  1  6
 14 15  1  0
 15  8  1  0
 16 18  1  0
 16 14  1  0
 17 16  2  0
 19 20  1  1
 19 18  1  0
 21 22  2  0
 21 20  1  0
 23 22  1  0
 24 23  2  0
 25 24  1  0
 25 26  2  0
 26 21  1  0
 27 19  1  0
 28 27  1  0
 29 27  2  0
M  END
$$$$
