QNF.pdb
     RDKit          3D

 29 29  0  0  1  0  0  0  0  0999 V2000
    2.1076  -18.9749   20.4933 N   0  0  0  0  0  0  0  0  0  0  0  0
    3.2357  -18.9653   19.6418 C   0  0  0  0  0  0  0  0  0  0  0  0
    3.2117  -19.6676   18.6133 O   0  0  0  0  0  0  0  0  0  0  0  0
    4.3991  -18.1455   19.9661 C   0  0  0  0  0  0  0  0  0  0  0  0
    5.6419  -18.8579   20.3413 C   0  0  0  0  0  0  0  0  0  0  0  0
    6.2618  -18.4599   21.6619 C   0  0  2  0  0  0  0  0  0  0  0  0
    5.3689  -18.2764   22.7377 N   0  0  0  0  0  0  0  0  0  0  0  0
    7.2637  -17.3877   21.5415 C   0  0  0  0  0  0  0  0  0  0  0  0
    8.2795  -17.6527   20.8323 O   0  0  0  0  0  0  0  0  0  0  0  0
    6.3608  -13.4862   19.6839 N   0  0  0  0  0  0  0  0  0  0  0  0
    7.6113  -13.9584   20.1317 C   0  0  0  0  0  0  0  0  0  0  0  0
    8.4170  -14.4787   19.3306 O   0  0  0  0  0  0  0  0  0  0  0  0
    7.9962  -13.8511   21.5490 C   0  0  0  0  0  0  0  0  0  0  0  0
    8.3039  -15.2377   22.0694 C   0  0  2  0  0  0  0  0  0  0  0  0
    7.1755  -16.1184   22.1481 N   0  0  0  0  0  0  0  0  0  0  0  0
    8.9959  -15.1385   23.4046 C   0  0  0  0  0  0  0  0  0  0  0  0
   10.0097  -14.4237   23.5713 O   0  0  0  0  0  0  0  0  0  0  0  0
    8.4548  -15.8835   24.4730 N   0  0  0  0  0  0  0  0  0  0  0  0
    9.0977  -15.9247   25.8096 C   0  0  1  0  0  0  0  0  0  0  0  0
    8.0909  -15.4701   26.8407 C   0  0  0  0  0  0  0  0  0  0  0  0
    7.9107  -14.0189   26.7550 C   0  0  0  0  0  0  0  0  0  0  0  0
    8.9076  -13.1532   27.0885 C   0  0  0  0  0  0  0  0  0  0  0  0
    8.6764  -11.8008   26.9908 C   0  0  0  0  0  0  0  0  0  0  0  0
    7.4515  -11.2998   26.5616 C   0  0  0  0  0  0  0  0  0  0  0  0
    6.4615  -12.1681   26.2311 C   0  0  0  0  0  0  0  0  0  0  0  0
    6.6824  -13.5372   26.3247 C   0  0  0  0  0  0  0  0  0  0  0  0
    9.7022  -17.2185   26.0640 C   0  0  0  0  0  0  0  0  0  0  0  0
   10.4406  -17.4678   27.2253 O   0  0  0  0  0  0  0  0  0  0  0  0
    9.5890  -18.1613   25.2563 O   0  0  0  0  0  0  0  0  0  0  0  0
  1  2  1  0
  2  3  2  0
  4  2  1  0
  4  5  1  0
  6  5  1  0
  6  7  1  1
  8  9  2  0
  8  6  1  0
 10 11  1  0
 11 12  2  0
 11 13  1  0
 14 13  1  1
 14 15  1  0
 15  8  1  0
 16 18  1  0
 16 14  1  0
 17 16  2  0
 19 20  1  1
 19 18  1  0
 21 22  2  0
 21 20  1  0
 23 22  1  0
 24 23  2  0
 25 24  1  0
 25 26  2  0
 26 21  1  0
 27 19  1  0
 28 27  1  0
 29 27  2  0
M  END
$$$$
