VDK.pdb
     RDKit          3D

 25 24  0  0  1  0  0  0  0  0999 V2000
    7.7842  -12.8624   20.3836 C   0  0  0  0  0  0  0  0  0  0  0  0
    8.6319  -13.5168   19.3424 C   0  0  2  0  0  0  0  0  0  0  0  0
    8.4181  -12.8943   17.9700 C   0  0  0  0  0  0  0  0  0  0  0  0
    8.3493  -15.0007   19.2090 C   0  0  2  0  0  0  0  0  0  0  0  0
    7.0190  -15.2017   18.6647 N   0  0  0  0  0  0  0  0  0  0  0  0
    8.4740  -15.7104   20.4897 C   0  0  0  0  0  0  0  0  0  0  0  0
    7.5267  -15.8776   21.2956 O   0  0  0  0  0  0  0  0  0  0  0  0
    9.7337  -16.2761   20.9113 N   0  0  0  0  0  0  0  0  0  0  0  0
    9.8932  -16.9728   22.1471 C   0  0  1  0  0  0  0  0  0  0  0  0
   10.9761  -18.0208   22.1119 C   0  0  0  0  0  0  0  0  0  0  0  0
   10.9868  -18.8719   23.3175 C   0  0  0  0  0  0  0  0  0  0  0  0
    9.9830  -18.8192   24.0698 O   0  0  0  0  0  0  0  0  0  0  0  0
   10.0860  -16.0559   23.3012 C   0  0  0  0  0  0  0  0  0  0  0  0
   11.1583  -15.4088   23.4229 O   0  0  0  0  0  0  0  0  0  0  0  0
   12.0103  -19.7167   23.6792 O   0  0  0  0  0  0  0  0  0  0  0  0
    9.0841  -15.8977   24.2661 N   0  0  0  0  0  0  0  0  0  0  0  0
    9.1977  -14.9930   25.4161 C   0  0  1  0  0  0  0  0  0  0  0  0
    7.8843  -14.2481   25.4763 C   0  0  0  0  0  0  0  0  0  0  0  0
    7.7814  -13.2776   26.6078 C   0  0  0  0  0  0  0  0  0  0  0  0
    6.4126  -12.6429   26.5966 C   0  0  0  0  0  0  0  0  0  0  0  0
    6.2897  -11.6513   27.7424 C   0  0  0  0  0  0  0  0  0  0  0  0
    4.9378  -11.1191   27.7865 N   0  0  0  0  0  0  0  0  0  0  0  0
    9.4128  -15.8268   26.6200 C   0  0  0  0  0  0  0  0  0  0  0  0
   10.1401  -15.3510   27.7222 O   0  0  0  0  0  0  0  0  0  0  0  0
    8.9390  -16.9852   26.6661 O   0  0  0  0  0  0  0  0  0  0  0  0
  2  1  1  1
  3  2  1  0
  4  2  1  0
  4  6  1  0
  4  5  1  1
  6  7  2  0
  8  9  1  0
  8  6  1  0
 10 11  1  0
  9 10  1  6
 11 12  2  0
 13  9  1  0
 13 14  2  0
 15 11  1  0
 16 13  1  0
 17 16  1  0
 17 23  1  0
 17 18  1  1
 19 18  1  0
 20 19  1  0
 21 22  1  0
 21 20  1  0
 23 25  2  0
 23 24  1  0
M  END
$$$$
