VDK.pdb
     RDKit          3D

 25 24  0  0  1  0  0  0  0  0999 V2000
    7.1025  -13.7700   21.7902 C   0  0  0  0  0  0  0  0  0  0  0  0
    8.1119  -13.5224   20.7174 C   0  0  2  0  0  0  0  0  0  0  0  0
    7.5367  -12.6811   19.5869 C   0  0  0  0  0  0  0  0  0  0  0  0
    8.6321  -14.8057   20.0994 C   0  0  2  0  0  0  0  0  0  0  0  0
    7.5497  -15.5048   19.4315 N   0  0  0  0  0  0  0  0  0  0  0  0
    9.2565  -15.6909   21.0924 C   0  0  0  0  0  0  0  0  0  0  0  0
    8.7265  -16.7411   21.5295 O   0  0  0  0  0  0  0  0  0  0  0  0
   10.5585  -15.3964   21.6425 N   0  0  0  0  0  0  0  0  0  0  0  0
   11.1784  -16.2090   22.6393 C   0  0  1  0  0  0  0  0  0  0  0  0
   12.6497  -15.9308   22.8133 C   0  0  0  0  0  0  0  0  0  0  0  0
   13.3144  -16.9055   23.6998 C   0  0  0  0  0  0  0  0  0  0  0  0
   12.7901  -18.0415   23.8043 O   0  0  0  0  0  0  0  0  0  0  0  0
   10.4737  -16.1494   23.9468 C   0  0  0  0  0  0  0  0  0  0  0  0
   10.6594  -15.1758   24.7220 O   0  0  0  0  0  0  0  0  0  0  0  0
   14.4621  -16.6651   24.4190 O   0  0  0  0  0  0  0  0  0  0  0  0
    9.5969  -17.1693   24.3355 N   0  0  0  0  0  0  0  0  0  0  0  0
    8.9233  -17.2103   25.6387 C   0  0  1  0  0  0  0  0  0  0  0  0
    7.8115  -18.2227   25.4880 C   0  0  0  0  0  0  0  0  0  0  0  0
    7.0844  -18.1451   24.1850 C   0  0  0  0  0  0  0  0  0  0  0  0
    6.1228  -19.3032   24.0815 C   0  0  0  0  0  0  0  0  0  0  0  0
    5.3827  -19.2478   22.7547 C   0  0  0  0  0  0  0  0  0  0  0  0
    4.4541  -20.3624   22.6650 N   0  0  0  0  0  0  0  0  0  0  0  0
    9.9225  -17.6362   26.6441 C   0  0  0  0  0  0  0  0  0  0  0  0
   10.9260  -18.5670   26.3333 O   0  0  0  0  0  0  0  0  0  0  0  0
    9.8801  -17.1609   27.8021 O   0  0  0  0  0  0  0  0  0  0  0  0
  2  1  1  1
  3  2  1  0
  4  2  1  0
  4  6  1  0
  4  5  1  1
  6  7  2  0
  8  9  1  0
  8  6  1  0
 10 11  1  0
  9 10  1  1
 11 12  2  0
 13  9  1  0
 13 14  2  0
 15 11  1  0
 16 13  1  0
 17 16  1  0
 17 23  1  0
 17 18  1  6
 19 18  1  0
 20 19  1  0
 21 22  1  0
 21 20  1  0
 23 25  2  0
 23 24  1  0
M  END
$$$$
