VDK.pdb
     RDKit          3D

 25 24  0  0  1  0  0  0  0  0999 V2000
    6.8402  -12.6506   18.6130 C   0  0  0  0  0  0  0  0  0  0  0  0
    7.7128  -13.6327   19.3237 C   0  0  2  0  0  0  0  0  0  0  0  0
    8.2891  -13.0487   20.6057 C   0  0  0  0  0  0  0  0  0  0  0  0
    8.8833  -14.0923   18.4763 C   0  0  2  0  0  0  0  0  0  0  0  0
    8.3956  -14.7333   17.2690 N   0  0  0  0  0  0  0  0  0  0  0  0
    9.7715  -15.0110   19.2018 C   0  0  0  0  0  0  0  0  0  0  0  0
    9.5610  -16.2421   19.3241 O   0  0  0  0  0  0  0  0  0  0  0  0
   10.9782  -14.5377   19.8379 N   0  0  0  0  0  0  0  0  0  0  0  0
   11.7984  -15.3713   20.6568 C   0  0  1  0  0  0  0  0  0  0  0  0
   13.1736  -14.8059   20.9045 C   0  0  0  0  0  0  0  0  0  0  0  0
   13.9975  -14.7510   19.6813 C   0  0  0  0  0  0  0  0  0  0  0  0
   13.8865  -15.7009   18.8679 O   0  0  0  0  0  0  0  0  0  0  0  0
   11.1422  -15.7387   21.9391 C   0  0  0  0  0  0  0  0  0  0  0  0
   10.8476  -14.8475   22.7773 O   0  0  0  0  0  0  0  0  0  0  0  0
   14.8759  -13.7408   19.3649 O   0  0  0  0  0  0  0  0  0  0  0  0
   10.8426  -17.0740   22.2340 N   0  0  0  0  0  0  0  0  0  0  0  0
   10.2503  -17.5139   23.5027 C   0  0  1  0  0  0  0  0  0  0  0  0
    9.5478  -18.8153   23.1917 C   0  0  0  0  0  0  0  0  0  0  0  0
    8.4015  -19.1249   24.0988 C   0  0  0  0  0  0  0  0  0  0  0  0
    7.7613  -20.4214   23.6676 C   0  0  0  0  0  0  0  0  0  0  0  0
    6.4804  -20.6553   24.4522 C   0  0  0  0  0  0  0  0  0  0  0  0
    5.8247  -21.8601   23.9715 N   0  0  0  0  0  0  0  0  0  0  0  0
   11.3553  -17.7026   24.4692 C   0  0  0  0  0  0  0  0  0  0  0  0
   11.1595  -17.5389   25.8493 O   0  0  0  0  0  0  0  0  0  0  0  0
   12.4953  -18.0157   24.0558 O   0  0  0  0  0  0  0  0  0  0  0  0
  2  1  1  6
  3  2  1  0
  4  2  1  0
  4  6  1  0
  4  5  1  6
  6  7  2  0
  8  9  1  0
  8  6  1  0
 10 11  1  0
  9 10  1  1
 11 12  2  0
 13  9  1  0
 13 14  2  0
 15 11  1  0
 16 13  1  0
 17 16  1  0
 17 23  1  0
 17 18  1  6
 19 18  1  0
 20 19  1  0
 21 22  1  0
 21 20  1  0
 23 25  2  0
 23 24  1  0
M  END
$$$$
