VDK.pdb
     RDKit          3D

 25 24  0  0  1  0  0  0  0  0999 V2000
    7.7231  -12.8930   20.5046 C   0  0  0  0  0  0  0  0  0  0  0  0
    8.5909  -13.4595   19.4289 C   0  0  2  0  0  0  0  0  0  0  0  0
    8.2921  -12.8307   18.0754 C   0  0  0  0  0  0  0  0  0  0  0  0
    8.4219  -14.9583   19.2725 C   0  0  2  0  0  0  0  0  0  0  0  0
    7.0668  -15.2595   18.8491 N   0  0  0  0  0  0  0  0  0  0  0  0
    8.7283  -15.6872   20.5111 C   0  0  0  0  0  0  0  0  0  0  0  0
    7.8669  -16.0273   21.3579 O   0  0  0  0  0  0  0  0  0  0  0  0
   10.0819  -16.0682   20.8389 N   0  0  0  0  0  0  0  0  0  0  0  0
   10.4073  -16.8574   21.9832 C   0  0  1  0  0  0  0  0  0  0  0  0
   11.6612  -17.6764   21.8128 C   0  0  0  0  0  0  0  0  0  0  0  0
   11.7839  -18.7493   22.8186 C   0  0  0  0  0  0  0  0  0  0  0  0
   10.8630  -18.8539   23.6657 O   0  0  0  0  0  0  0  0  0  0  0  0
   10.4687  -16.0557   23.2335 C   0  0  0  0  0  0  0  0  0  0  0  0
   11.4228  -15.2587   23.4280 O   0  0  0  0  0  0  0  0  0  0  0  0
   12.8276  -19.6416   22.8990 O   0  0  0  0  0  0  0  0  0  0  0  0
    9.4722  -16.1731   24.2098 N   0  0  0  0  0  0  0  0  0  0  0  0
    9.4550  -15.3930   25.4527 C   0  0  1  0  0  0  0  0  0  0  0  0
    8.1844  -14.5765   25.4006 C   0  0  0  0  0  0  0  0  0  0  0  0
    8.0129  -13.6356   26.5486 C   0  0  0  0  0  0  0  0  0  0  0  0
    6.7137  -12.8854   26.3879 C   0  0  0  0  0  0  0  0  0  0  0  0
    6.5482  -11.8836   27.5193 C   0  0  0  0  0  0  0  0  0  0  0  0
    5.2786  -11.1902   27.3776 N   0  0  0  0  0  0  0  0  0  0  0  0
    9.4471  -16.3512   26.5808 C   0  0  0  0  0  0  0  0  0  0  0  0
    9.8656  -15.9750   27.8666 O   0  0  0  0  0  0  0  0  0  0  0  0
    9.0599  -17.5275   26.3939 O   0  0  0  0  0  0  0  0  0  0  0  0
  2  1  1  1
  3  2  1  0
  4  2  1  0
  4  6  1  0
  4  5  1  1
  6  7  2  0
  8  9  1  0
  8  6  1  0
 10 11  1  0
  9 10  1  6
 11 12  2  0
 13  9  1  0
 13 14  2  0
 15 11  1  0
 16 13  1  0
 17 16  1  0
 17 23  1  0
 17 18  1  6
 19 18  1  0
 20 19  1  0
 21 22  1  0
 21 20  1  0
 23 25  2  0
 23 24  1  0
M  END
$$$$
