VDK.pdb
     RDKit          3D

 25 24  0  0  1  0  0  0  0  0999 V2000
    8.0430  -12.9642   27.3148 C   0  0  0  0  0  0  0  0  0  0  0  0
    7.5149  -12.4766   26.0055 C   0  0  2  0  0  0  0  0  0  0  0  0
    6.7022  -11.1998   26.1669 C   0  0  0  0  0  0  0  0  0  0  0  0
    6.6197  -13.4929   25.3233 C   0  0  2  0  0  0  0  0  0  0  0  0
    5.4936  -13.8119   26.1815 N   0  0  0  0  0  0  0  0  0  0  0  0
    7.3399  -14.7245   24.9713 C   0  0  0  0  0  0  0  0  0  0  0  0
    7.2459  -15.8005   25.6100 O   0  0  0  0  0  0  0  0  0  0  0  0
    8.2272  -14.7722   23.8332 N   0  0  0  0  0  0  0  0  0  0  0  0
    9.0013  -15.9258   23.5045 C   0  0  1  0  0  0  0  0  0  0  0  0
    9.4990  -15.9314   22.0816 C   0  0  0  0  0  0  0  0  0  0  0  0
    8.5542  -16.5751   21.1484 C   0  0  0  0  0  0  0  0  0  0  0  0
    7.9325  -17.5846   21.5620 O   0  0  0  0  0  0  0  0  0  0  0  0
   10.1219  -16.1537   24.4544 C   0  0  0  0  0  0  0  0  0  0  0  0
   10.9871  -15.2588   24.6388 O   0  0  0  0  0  0  0  0  0  0  0  0
    8.3031  -16.1548   19.8630 O   0  0  0  0  0  0  0  0  0  0  0  0
   10.2328  -17.3604   25.1555 N   0  0  0  0  0  0  0  0  0  0  0  0
   11.2770  -17.6298   26.1510 C   0  0  1  0  0  0  0  0  0  0  0  0
   10.6718  -18.6261   27.1128 C   0  0  0  0  0  0  0  0  0  0  0  0
   11.6231  -19.1362   28.1460 C   0  0  0  0  0  0  0  0  0  0  0  0
   10.9207  -20.1538   29.0106 C   0  0  0  0  0  0  0  0  0  0  0  0
   11.8309  -20.5863   30.1488 C   0  0  0  0  0  0  0  0  0  0  0  0
   11.1608  -21.5918   30.9567 N   0  0  0  0  0  0  0  0  0  0  0  0
   12.4418  -18.1953   25.4339 C   0  0  0  0  0  0  0  0  0  0  0  0
   13.7439  -18.0841   25.9458 O   0  0  0  0  0  0  0  0  0  0  0  0
   12.2720  -18.7887   24.3441 O   0  0  0  0  0  0  0  0  0  0  0  0
  2  1  1  1
  3  2  1  0
  4  2  1  0
  4  6  1  0
  4  5  1  1
  6  7  2  0
  8  9  1  0
  8  6  1  0
 10 11  1  0
  9 10  1  6
 11 12  2  0
 13  9  1  0
 13 14  2  0
 15 11  1  0
 16 13  1  0
 17 16  1  0
 17 23  1  0
 17 18  1  1
 19 18  1  0
 20 19  1  0
 21 22  1  0
 21 20  1  0
 23 25  2  0
 23 24  1  0
M  END
$$$$
