VDK.pdb
     RDKit          3D

 25 24  0  0  1  0  0  0  0  0999 V2000
    7.8098  -12.2297   19.7228 C   0  0  0  0  0  0  0  0  0  0  0  0
    8.3506  -13.2176   18.7417 C   0  0  2  0  0  0  0  0  0  0  0  0
    7.3404  -14.3131   18.4314 C   0  0  0  0  0  0  0  0  0  0  0  0
    9.6115  -13.8995   19.2362 C   0  0  2  0  0  0  0  0  0  0  0  0
   10.1995  -14.6837   18.1658 N   0  0  0  0  0  0  0  0  0  0  0  0
    9.3615  -14.7591   20.4015 C   0  0  0  0  0  0  0  0  0  0  0  0
    8.5847  -14.4610   21.3409 O   0  0  0  0  0  0  0  0  0  0  0  0
   10.0151  -16.0390   20.5403 N   0  0  0  0  0  0  0  0  0  0  0  0
    9.9130  -16.8352   21.7209 C   0  0  1  0  0  0  0  0  0  0  0  0
   10.7688  -18.0756   21.6864 C   0  0  0  0  0  0  0  0  0  0  0  0
   10.4341  -18.9694   20.5608 C   0  0  0  0  0  0  0  0  0  0  0  0
    9.3007  -19.5096   20.5705 O   0  0  0  0  0  0  0  0  0  0  0  0
   10.1664  -16.0559   22.9612 C   0  0  0  0  0  0  0  0  0  0  0  0
   11.2790  -15.4960   23.1406 O   0  0  0  0  0  0  0  0  0  0  0  0
   11.2670  -19.2554   19.5041 O   0  0  0  0  0  0  0  0  0  0  0  0
    9.1777  -15.9324   23.9446 N   0  0  0  0  0  0  0  0  0  0  0  0
    9.3331  -15.1201   25.1570 C   0  0  1  0  0  0  0  0  0  0  0  0
    8.0828  -14.2753   25.2411 C   0  0  0  0  0  0  0  0  0  0  0  0
    8.0010  -13.4219   26.4649 C   0  0  0  0  0  0  0  0  0  0  0  0
    6.6772  -12.6981   26.4798 C   0  0  0  0  0  0  0  0  0  0  0  0
    6.5717  -11.8322   27.7249 C   0  0  0  0  0  0  0  0  0  0  0  0
    5.2782  -11.1699   27.7525 N   0  0  0  0  0  0  0  0  0  0  0  0
    9.4478  -16.0483   26.3041 C   0  0  0  0  0  0  0  0  0  0  0  0
    9.9486  -15.6240   27.5447 O   0  0  0  0  0  0  0  0  0  0  0  0
    9.0923  -17.2423   26.1750 O   0  0  0  0  0  0  0  0  0  0  0  0
  2  1  1  1
  3  2  1  0
  4  2  1  0
  4  6  1  0
  4  5  1  6
  6  7  2  0
  8  9  1  0
  8  6  1  0
 10 11  1  0
  9 10  1  6
 11 12  2  0
 13  9  1  0
 13 14  2  0
 15 11  1  0
 16 13  1  0
 17 16  1  0
 17 23  1  0
 17 18  1  1
 19 18  1  0
 20 19  1  0
 21 22  1  0
 21 20  1  0
 23 25  2  0
 23 24  1  0
M  END
$$$$
