VDK.pdb
     RDKit          3D

 25 24  0  0  1  0  0  0  0  0999 V2000
    7.2119  -12.8978   19.9749 C   0  0  0  0  0  0  0  0  0  0  0  0
    8.2851  -13.2225   18.9880 C   0  0  2  0  0  0  0  0  0  0  0  0
    8.0006  -14.5264   18.2561 C   0  0  0  0  0  0  0  0  0  0  0  0
    9.6493  -13.3618   19.6353 C   0  0  2  0  0  0  0  0  0  0  0  0
   10.6680  -13.5045   18.6114 N   0  0  0  0  0  0  0  0  0  0  0  0
    9.7143  -14.5004   20.5620 C   0  0  0  0  0  0  0  0  0  0  0  0
    8.8798  -14.7117   21.4752 O   0  0  0  0  0  0  0  0  0  0  0  0
   10.7755  -15.4754   20.4751 N   0  0  0  0  0  0  0  0  0  0  0  0
   10.8430  -16.6223   21.3226 C   0  0  1  0  0  0  0  0  0  0  0  0
   11.9311  -17.5920   20.9379 C   0  0  0  0  0  0  0  0  0  0  0  0
   11.7762  -18.1089   19.5644 C   0  0  0  0  0  0  0  0  0  0  0  0
   10.6379  -18.5170   19.2265 O   0  0  0  0  0  0  0  0  0  0  0  0
   10.9413  -16.2658   22.7624 C   0  0  0  0  0  0  0  0  0  0  0  0
   12.0212  -15.8224   23.2323 O   0  0  0  0  0  0  0  0  0  0  0  0
   12.7814  -18.1776   18.6279 O   0  0  0  0  0  0  0  0  0  0  0  0
    9.8409  -16.4162   23.6148 N   0  0  0  0  0  0  0  0  0  0  0  0
    9.9047  -16.2206   25.0679 C   0  0  1  0  0  0  0  0  0  0  0  0
    8.5396  -15.7103   25.4678 C   0  0  0  0  0  0  0  0  0  0  0  0
    8.3723  -14.2322   25.3265 C   0  0  0  0  0  0  0  0  0  0  0  0
    6.9858  -13.8427   25.7763 C   0  0  0  0  0  0  0  0  0  0  0  0
    6.8009  -12.3390   25.6491 C   0  0  0  0  0  0  0  0  0  0  0  0
    5.4481  -11.9773   26.0389 N   0  0  0  0  0  0  0  0  0  0  0  0
   10.2025  -17.5339   25.6821 C   0  0  0  0  0  0  0  0  0  0  0  0
   10.6725  -17.6381   27.0005 O   0  0  0  0  0  0  0  0  0  0  0  0
   10.0347  -18.5825   25.0182 O   0  0  0  0  0  0  0  0  0  0  0  0
  2  1  1  1
  3  2  1  0
  4  2  1  0
  4  6  1  0
  4  5  1  6
  6  7  2  0
  8  9  1  0
  8  6  1  0
 10 11  1  0
  9 10  1  6
 11 12  2  0
 13  9  1  0
 13 14  2  0
 15 11  1  0
 16 13  1  0
 17 16  1  0
 17 23  1  0
 17 18  1  1
 19 18  1  0
 20 19  1  0
 21 22  1  0
 21 20  1  0
 23 25  2  0
 23 24  1  0
M  END
$$$$
