VDK.pdb
     RDKit          3D

 25 24  0  0  1  0  0  0  0  0999 V2000
    7.2797  -12.8019   19.2081 C   0  0  0  0  0  0  0  0  0  0  0  0
    7.8694  -13.5889   20.3324 C   0  0  2  0  0  0  0  0  0  0  0  0
    9.1408  -12.9435   20.8649 C   0  0  0  0  0  0  0  0  0  0  0  0
    8.2235  -15.0069   19.9282 C   0  0  2  0  0  0  0  0  0  0  0  0
    7.0685  -15.6518   19.3310 N   0  0  0  0  0  0  0  0  0  0  0  0
    8.7074  -15.8067   21.0620 C   0  0  0  0  0  0  0  0  0  0  0  0
    7.9658  -16.2718   21.9612 O   0  0  0  0  0  0  0  0  0  0  0  0
   10.1095  -16.1153   21.2147 N   0  0  0  0  0  0  0  0  0  0  0  0
   10.6274  -16.8210   22.3426 C   0  0  1  0  0  0  0  0  0  0  0  0
   12.0157  -17.3667   22.1257 C   0  0  0  0  0  0  0  0  0  0  0  0
   12.0650  -18.4016   21.0749 C   0  0  0  0  0  0  0  0  0  0  0  0
   11.0675  -19.1556   20.9605 O   0  0  0  0  0  0  0  0  0  0  0  0
   10.5657  -16.0232   23.5954 C   0  0  0  0  0  0  0  0  0  0  0  0
   11.3409  -15.0460   23.7621 O   0  0  0  0  0  0  0  0  0  0  0  0
   13.1179  -18.6032   20.2130 O   0  0  0  0  0  0  0  0  0  0  0  0
    9.6499  -16.3434   24.6047 N   0  0  0  0  0  0  0  0  0  0  0  0
    9.5107  -15.5787   25.8495 C   0  0  1  0  0  0  0  0  0  0  0  0
    8.0896  -15.0644   25.8518 C   0  0  0  0  0  0  0  0  0  0  0  0
    7.9580  -13.6290   26.2454 C   0  0  0  0  0  0  0  0  0  0  0  0
    6.4980  -13.2486   26.2604 C   0  0  0  0  0  0  0  0  0  0  0  0
    6.3345  -11.8341   26.7932 C   0  0  0  0  0  0  0  0  0  0  0  0
    4.9220  -11.4997   26.8691 N   0  0  0  0  0  0  0  0  0  0  0  0
    9.7611  -16.5078   26.9741 C   0  0  0  0  0  0  0  0  0  0  0  0
   10.0188  -17.8703   26.7574 O   0  0  0  0  0  0  0  0  0  0  0  0
    9.7448  -16.0779   28.1504 O   0  0  0  0  0  0  0  0  0  0  0  0
  2  1  1  6
  3  2  1  0
  4  2  1  0
  4  6  1  0
  4  5  1  1
  6  7  2  0
  8  9  1  0
  8  6  1  0
 10 11  1  0
  9 10  1  6
 11 12  2  0
 13  9  1  0
 13 14  2  0
 15 11  1  0
 16 13  1  0
 17 16  1  0
 17 23  1  0
 17 18  1  1
 19 18  1  0
 20 19  1  0
 21 22  1  0
 21 20  1  0
 23 25  2  0
 23 24  1  0
M  END
$$$$
