VDK.pdb
     RDKit          3D

 25 24  0  0  1  0  0  0  0  0999 V2000
    7.4057  -12.5655   18.8472 C   0  0  0  0  0  0  0  0  0  0  0  0
    8.5496  -13.3915   19.3375 C   0  0  2  0  0  0  0  0  0  0  0  0
    9.5923  -12.5419   20.0501 C   0  0  0  0  0  0  0  0  0  0  0  0
    9.2609  -14.1253   18.2172 C   0  0  2  0  0  0  0  0  0  0  0  0
    8.3048  -14.9095   17.4573 N   0  0  0  0  0  0  0  0  0  0  0  0
   10.3346  -14.9970   18.7137 C   0  0  0  0  0  0  0  0  0  0  0  0
   10.1447  -16.1373   19.2021 O   0  0  0  0  0  0  0  0  0  0  0  0
   11.7164  -14.5810   18.6683 N   0  0  0  0  0  0  0  0  0  0  0  0
   12.7711  -15.3360   19.2649 C   0  0  1  0  0  0  0  0  0  0  0  0
   14.1264  -15.0513   18.6698 C   0  0  0  0  0  0  0  0  0  0  0  0
   14.2265  -15.4594   17.2552 C   0  0  0  0  0  0  0  0  0  0  0  0
   13.8592  -16.6241   16.9635 O   0  0  0  0  0  0  0  0  0  0  0  0
   12.8072  -15.1996   20.7447 C   0  0  0  0  0  0  0  0  0  0  0  0
   13.4024  -14.2265   21.2761 O   0  0  0  0  0  0  0  0  0  0  0  0
   14.6903  -14.6632   16.2339 O   0  0  0  0  0  0  0  0  0  0  0  0
   12.1837  -16.1455   21.5671 N   0  0  0  0  0  0  0  0  0  0  0  0
   12.1537  -16.0565   23.0317 C   0  0  1  0  0  0  0  0  0  0  0  0
   11.0591  -17.0007   23.4722 C   0  0  0  0  0  0  0  0  0  0  0  0
    9.6911  -16.6081   23.0170 C   0  0  0  0  0  0  0  0  0  0  0  0
    8.7054  -17.6754   23.4241 C   0  0  0  0  0  0  0  0  0  0  0  0
    7.2981  -17.2645   23.0217 C   0  0  0  0  0  0  0  0  0  0  0  0
    6.3499  -18.2787   23.4518 N   0  0  0  0  0  0  0  0  0  0  0  0
   13.4805  -16.4811   23.5317 C   0  0  0  0  0  0  0  0  0  0  0  0
   14.2887  -17.3697   22.8056 O   0  0  0  0  0  0  0  0  0  0  0  0
   13.9008  -16.0430   24.6271 O   0  0  0  0  0  0  0  0  0  0  0  0
  2  1  1  6
  3  2  1  0
  4  2  1  0
  4  6  1  0
  4  5  1  1
  6  7  2  0
  8  9  1  0
  8  6  1  0
 10 11  1  0
  9 10  1  6
 11 12  2  0
 13  9  1  0
 13 14  2  0
 15 11  1  0
 16 13  1  0
 17 16  1  0
 17 23  1  0
 17 18  1  1
 19 18  1  0
 20 19  1  0
 21 22  1  0
 21 20  1  0
 23 25  2  0
 23 24  1  0
M  END
$$$$
