VDK.pdb
     RDKit          3D

 25 24  0  0  1  0  0  0  0  0999 V2000
    7.7248  -12.1975   20.0774 C   0  0  0  0  0  0  0  0  0  0  0  0
    8.3171  -13.2053   19.1474 C   0  0  2  0  0  0  0  0  0  0  0  0
    7.3426  -14.3356   18.8480 C   0  0  0  0  0  0  0  0  0  0  0  0
    9.5791  -13.8380   19.7008 C   0  0  2  0  0  0  0  0  0  0  0  0
   10.2791  -14.5457   18.6446 N   0  0  0  0  0  0  0  0  0  0  0  0
    9.3019  -14.7560   20.8142 C   0  0  0  0  0  0  0  0  0  0  0  0
    8.4809  -14.5185   21.7331 O   0  0  0  0  0  0  0  0  0  0  0  0
    9.9786  -16.0269   20.9214 N   0  0  0  0  0  0  0  0  0  0  0  0
    9.7602  -16.9300   22.0054 C   0  0  1  0  0  0  0  0  0  0  0  0
   10.4794  -18.2453   21.8473 C   0  0  0  0  0  0  0  0  0  0  0  0
   10.1903  -19.1898   22.9437 C   0  0  0  0  0  0  0  0  0  0  0  0
    9.0385  -19.1593   23.4427 O   0  0  0  0  0  0  0  0  0  0  0  0
   10.0616  -16.3215   23.3278 C   0  0  0  0  0  0  0  0  0  0  0  0
   11.2161  -15.8870   23.5761 O   0  0  0  0  0  0  0  0  0  0  0  0
   11.0842  -20.0991   23.4597 O   0  0  0  0  0  0  0  0  0  0  0  0
    9.0721  -16.2220   24.3132 N   0  0  0  0  0  0  0  0  0  0  0  0
    9.3057  -15.6545   25.6463 C   0  0  1  0  0  0  0  0  0  0  0  0
    8.0167  -14.9609   26.0224 C   0  0  0  0  0  0  0  0  0  0  0  0
    8.0535  -13.4749   25.8706 C   0  0  0  0  0  0  0  0  0  0  0  0
    6.7251  -12.8980   26.2938 C   0  0  0  0  0  0  0  0  0  0  0  0
    6.7215  -11.3923   26.0842 C   0  0  0  0  0  0  0  0  0  0  0  0
    5.4492  -10.8404   26.5195 N   0  0  0  0  0  0  0  0  0  0  0  0
    9.6136  -16.7766   26.5610 C   0  0  0  0  0  0  0  0  0  0  0  0
   10.2393  -16.5639   27.7992 O   0  0  0  0  0  0  0  0  0  0  0  0
    9.3130  -17.9470   26.2317 O   0  0  0  0  0  0  0  0  0  0  0  0
  2  1  1  1
  3  2  1  0
  4  2  1  0
  4  6  1  0
  4  5  1  6
  6  7  2  0
  8  9  1  0
  8  6  1  0
 10 11  1  0
  9 10  1  6
 11 12  2  0
 13  9  1  0
 13 14  2  0
 15 11  1  0
 16 13  1  0
 17 16  1  0
 17 23  1  0
 17 18  1  1
 19 18  1  0
 20 19  1  0
 21 22  1  0
 21 20  1  0
 23 25  2  0
 23 24  1  0
M  END
$$$$
