VDK.pdb
     RDKit          3D

 25 24  0  0  1  0  0  0  0  0999 V2000
    7.5040  -14.9475   18.4856 C   0  0  0  0  0  0  0  0  0  0  0  0
    7.9089  -13.6697   19.1448 C   0  0  2  0  0  0  0  0  0  0  0  0
    8.0224  -12.5305   18.1418 C   0  0  0  0  0  0  0  0  0  0  0  0
    9.2459  -13.7772   19.8522 C   0  0  2  0  0  0  0  0  0  0  0  0
   10.2808  -14.1310   18.8982 N   0  0  0  0  0  0  0  0  0  0  0  0
    9.2221  -14.7588   20.9454 C   0  0  0  0  0  0  0  0  0  0  0  0
    8.3398  -14.7965   21.8370 O   0  0  0  0  0  0  0  0  0  0  0  0
   10.2448  -15.7712   21.0635 N   0  0  0  0  0  0  0  0  0  0  0  0
   10.2759  -16.7177   22.1318 C   0  0  1  0  0  0  0  0  0  0  0  0
   11.3078  -17.8008   21.9466 C   0  0  0  0  0  0  0  0  0  0  0  0
   11.1638  -18.5136   20.6625 C   0  0  0  0  0  0  0  0  0  0  0  0
   10.2081  -19.3208   20.5548 O   0  0  0  0  0  0  0  0  0  0  0  0
   10.4224  -16.0739   23.4636 C   0  0  0  0  0  0  0  0  0  0  0  0
   11.5120  -15.5356   23.7898 O   0  0  0  0  0  0  0  0  0  0  0  0
   11.9946  -18.3617   19.5768 O   0  0  0  0  0  0  0  0  0  0  0  0
    9.3572  -16.0558   24.3720 N   0  0  0  0  0  0  0  0  0  0  0  0
    9.3656  -15.2841   25.6202 C   0  0  1  0  0  0  0  0  0  0  0  0
    8.1592  -14.3771   25.5434 C   0  0  0  0  0  0  0  0  0  0  0  0
    7.9645  -13.5129   26.7467 C   0  0  0  0  0  0  0  0  0  0  0  0
    6.7566  -12.6332   26.5379 C   0  0  0  0  0  0  0  0  0  0  0  0
    6.6293  -11.6436   27.6849 C   0  0  0  0  0  0  0  0  0  0  0  0
    5.4847  -10.7767   27.4590 N   0  0  0  0  0  0  0  0  0  0  0  0
    9.2599  -16.2461   26.7401 C   0  0  0  0  0  0  0  0  0  0  0  0
    8.9022  -17.5862   26.5255 O   0  0  0  0  0  0  0  0  0  0  0  0
    9.4931  -15.8652   27.9102 O   0  0  0  0  0  0  0  0  0  0  0  0
  2  1  1  6
  3  2  1  0
  4  2  1  0
  4  6  1  0
  4  5  1  6
  6  7  2  0
  8  9  1  0
  8  6  1  0
 10 11  1  0
  9 10  1  6
 11 12  2  0
 13  9  1  0
 13 14  2  0
 15 11  1  0
 16 13  1  0
 17 16  1  0
 17 23  1  0
 17 18  1  6
 19 18  1  0
 20 19  1  0
 21 22  1  0
 21 20  1  0
 23 25  2  0
 23 24  1  0
M  END
$$$$
