VDK.pdb
     RDKit          3D

 25 24  0  0  1  0  0  0  0  0999 V2000
    7.3210  -15.1390   18.7005 C   0  0  0  0  0  0  0  0  0  0  0  0
    7.7428  -13.8485   19.3234 C   0  0  2  0  0  0  0  0  0  0  0  0
    7.7836  -12.7187   18.3044 C   0  0  0  0  0  0  0  0  0  0  0  0
    9.1183  -13.9293   19.9566 C   0  0  2  0  0  0  0  0  0  0  0  0
   10.1091  -14.2426   18.9435 N   0  0  0  0  0  0  0  0  0  0  0  0
    9.1792  -14.9254   21.0352 C   0  0  0  0  0  0  0  0  0  0  0  0
    8.3245  -15.0252   21.9487 O   0  0  0  0  0  0  0  0  0  0  0  0
   10.2601  -15.8796   21.1114 N   0  0  0  0  0  0  0  0  0  0  0  0
   10.4313  -16.7671   22.2165 C   0  0  1  0  0  0  0  0  0  0  0  0
   11.5649  -17.7437   22.0342 C   0  0  0  0  0  0  0  0  0  0  0  0
   11.3352  -18.6842   20.9205 C   0  0  0  0  0  0  0  0  0  0  0  0
   10.1438  -18.9338   20.6126 O   0  0  0  0  0  0  0  0  0  0  0  0
   10.5579  -16.0504   23.5127 C   0  0  0  0  0  0  0  0  0  0  0  0
   11.6143  -15.4253   23.7896 O   0  0  0  0  0  0  0  0  0  0  0  0
   12.3243  -19.3072   20.1954 O   0  0  0  0  0  0  0  0  0  0  0  0
    9.5104  -16.0587   24.4416 N   0  0  0  0  0  0  0  0  0  0  0  0
    9.5066  -15.2568   25.6706 C   0  0  1  0  0  0  0  0  0  0  0  0
    8.2791  -14.3801   25.5781 C   0  0  0  0  0  0  0  0  0  0  0  0
    8.0415  -13.5291   26.7831 C   0  0  0  0  0  0  0  0  0  0  0  0
    6.7891  -12.7132   26.5775 C   0  0  0  0  0  0  0  0  0  0  0  0
    6.5447  -11.8222   27.7848 C   0  0  0  0  0  0  0  0  0  0  0  0
    5.2532  -11.1677   27.6569 N   0  0  0  0  0  0  0  0  0  0  0  0
    9.4287  -16.1933   26.8141 C   0  0  0  0  0  0  0  0  0  0  0  0
    9.8010  -15.8027   28.1097 O   0  0  0  0  0  0  0  0  0  0  0  0
    9.0225  -17.3639   26.6317 O   0  0  0  0  0  0  0  0  0  0  0  0
  2  1  1  6
  3  2  1  0
  4  2  1  0
  4  6  1  0
  4  5  1  6
  6  7  2  0
  8  9  1  0
  8  6  1  0
 10 11  1  0
  9 10  1  6
 11 12  2  0
 13  9  1  0
 13 14  2  0
 15 11  1  0
 16 13  1  0
 17 16  1  0
 17 23  1  0
 17 18  1  6
 19 18  1  0
 20 19  1  0
 21 22  1  0
 21 20  1  0
 23 25  2  0
 23 24  1  0
M  END
$$$$
