VDK.pdb
     RDKit          3D

 25 24  0  0  1  0  0  0  0  0999 V2000
    7.7468  -14.8002   18.2378 C   0  0  0  0  0  0  0  0  0  0  0  0
    7.9970  -13.5677   19.0437 C   0  0  2  0  0  0  0  0  0  0  0  0
    8.0643  -12.3258   18.1662 C   0  0  0  0  0  0  0  0  0  0  0  0
    9.2958  -13.6349   19.8234 C   0  0  2  0  0  0  0  0  0  0  0  0
   10.4112  -13.7973   18.9091 N   0  0  0  0  0  0  0  0  0  0  0  0
    9.2996  -14.7244   20.8094 C   0  0  0  0  0  0  0  0  0  0  0  0
    8.3878  -14.9143   21.6505 O   0  0  0  0  0  0  0  0  0  0  0  0
   10.3871  -15.6722   20.8720 N   0  0  0  0  0  0  0  0  0  0  0  0
   10.4844  -16.6710   21.8875 C   0  0  1  0  0  0  0  0  0  0  0  0
   11.5756  -17.6802   21.6364 C   0  0  0  0  0  0  0  0  0  0  0  0
   11.4094  -18.3945   20.3558 C   0  0  0  0  0  0  0  0  0  0  0  0
   10.3983  -19.1286   20.2316 O   0  0  0  0  0  0  0  0  0  0  0  0
   10.6075  -16.0918   23.2510 C   0  0  0  0  0  0  0  0  0  0  0  0
   11.6328  -15.4356   23.5697 O   0  0  0  0  0  0  0  0  0  0  0  0
   12.2756  -18.3178   19.2900 O   0  0  0  0  0  0  0  0  0  0  0  0
    9.5909  -16.2655   24.1978 N   0  0  0  0  0  0  0  0  0  0  0  0
    9.5241  -15.5272   25.4644 C   0  0  1  0  0  0  0  0  0  0  0  0
    8.2962  -14.6526   25.3588 C   0  0  0  0  0  0  0  0  0  0  0  0
    8.0221  -13.8315   26.5767 C   0  0  0  0  0  0  0  0  0  0  0  0
    6.7704  -13.0180   26.3575 C   0  0  0  0  0  0  0  0  0  0  0  0
    6.5231  -12.1115   27.5527 C   0  0  0  0  0  0  0  0  0  0  0  0
    5.2916  -11.3653   27.3548 N   0  0  0  0  0  0  0  0  0  0  0  0
    9.3993  -16.5212   26.5540 C   0  0  0  0  0  0  0  0  0  0  0  0
    9.8147  -16.2317   27.8630 O   0  0  0  0  0  0  0  0  0  0  0  0
    8.9129  -17.6498   26.3125 O   0  0  0  0  0  0  0  0  0  0  0  0
  2  1  1  6
  3  2  1  0
  4  2  1  0
  4  6  1  0
  4  5  1  6
  6  7  2  0
  8  9  1  0
  8  6  1  0
 10 11  1  0
  9 10  1  6
 11 12  2  0
 13  9  1  0
 13 14  2  0
 15 11  1  0
 16 13  1  0
 17 16  1  0
 17 23  1  0
 17 18  1  6
 19 18  1  0
 20 19  1  0
 21 22  1  0
 21 20  1  0
 23 25  2  0
 23 24  1  0
M  END
$$$$
