GKM.pdb
     RDKit          3D

 22 21  0  0  1  0  0  0  0  0999 V2000
    4.9215  -20.2997   22.4873 N   0  0  0  0  0  0  0  0  0  0  0  0
    4.7074  -18.9741   23.0175 C   0  0  0  0  0  0  0  0  0  0  0  0
    5.8858  -18.1219   22.6723 C   0  0  0  0  0  0  0  0  0  0  0  0
    7.0704  -18.4809   22.9441 O   0  0  0  0  0  0  0  0  0  0  0  0
    5.7444  -16.8710   22.0251 N   0  0  0  0  0  0  0  0  0  0  0  0
    6.9131  -16.0012   21.7817 C   0  0  1  0  0  0  0  0  0  0  0  0
    6.4665  -14.9893   20.7403 C   0  0  0  0  0  0  0  0  0  0  0  0
    7.5360  -14.0815   20.2550 C   0  0  0  0  0  0  0  0  0  0  0  0
    7.5837  -14.0462   18.7246 C   0  0  0  0  0  0  0  0  0  0  0  0
    8.6192  -13.0740   18.2438 C   0  0  0  0  0  0  0  0  0  0  0  0
    8.8420  -13.1878   16.8160 N   0  0  0  0  0  0  0  0  0  0  0  0
    7.3097  -15.4255   23.0641 C   0  0  0  0  0  0  0  0  0  0  0  0
    6.5748  -14.5280   23.6185 O   0  0  0  0  0  0  0  0  0  0  0  0
    7.0426  -11.1562   26.6146 C   0  0  0  0  0  0  0  0  0  0  0  0
    6.9605  -12.6770   27.5909 S   0  0  0  0  0  0  0  0  0  0  0  0
    8.2312  -13.8379   27.0368 C   0  0  0  0  0  0  0  0  0  0  0  0
    7.8441  -14.6484   25.8467 C   0  0  0  0  0  0  0  0  0  0  0  0
    8.9792  -14.9132   24.8814 C   0  0  2  0  0  0  0  0  0  0  0  0
    8.4695  -15.7551   23.8177 N   0  0  0  0  0  0  0  0  0  0  0  0
   10.1674  -15.4407   25.5485 C   0  0  0  0  0  0  0  0  0  0  0  0
   10.7896  -16.6460   25.2564 O   0  0  0  0  0  0  0  0  0  0  0  0
   10.6802  -14.7529   26.4683 O   0  0  0  0  0  0  0  0  0  0  0  0
  1  2  1  0
  2  3  1  0
  3  4  2  0
  5  3  1  0
  5  6  1  0
  6  7  1  6
  8  7  1  0
  9 10  1  0
  9  8  1  0
 10 11  1  0
 12  6  1  0
 12 19  1  0
 13 12  2  0
 15 14  1  0
 16 15  1  0
 17 16  1  0
 18 19  1  0
 18 17  1  1
 20 18  1  0
 21 20  1  0
 22 20  2  0
M  END
$$$$
