GKM.pdb
     RDKit          3D

 22 21  0  0  1  0  0  0  0  0999 V2000
   13.2842  -18.0961   20.7696 N   0  0  0  0  0  0  0  0  0  0  0  0
   11.8686  -18.2974   20.9684 C   0  0  0  0  0  0  0  0  0  0  0  0
   11.2627  -17.0162   21.4430 C   0  0  0  0  0  0  0  0  0  0  0  0
   11.9342  -16.1632   22.0969 O   0  0  0  0  0  0  0  0  0  0  0  0
    9.9098  -16.6856   21.1895 N   0  0  0  0  0  0  0  0  0  0  0  0
    9.3428  -15.3964   21.6343 C   0  0  1  0  0  0  0  0  0  0  0  0
    8.2709  -15.0425   20.6176 C   0  0  0  0  0  0  0  0  0  0  0  0
    8.7701  -14.3586   19.3984 C   0  0  0  0  0  0  0  0  0  0  0  0
    7.6527  -14.1734   18.3675 C   0  0  0  0  0  0  0  0  0  0  0  0
    8.1773  -13.5273   17.1201 C   0  0  0  0  0  0  0  0  0  0  0  0
    7.1224  -13.2836   16.1561 N   0  0  0  0  0  0  0  0  0  0  0  0
    8.8562  -15.5757   22.9997 C   0  0  0  0  0  0  0  0  0  0  0  0
    8.7235  -16.7598   23.4826 O   0  0  0  0  0  0  0  0  0  0  0  0
    5.7606  -10.9371   26.5924 C   0  0  0  0  0  0  0  0  0  0  0  0
    6.3553  -12.0462   27.8920 S   0  0  0  0  0  0  0  0  0  0  0  0
    6.8777  -13.6202   27.1716 C   0  0  0  0  0  0  0  0  0  0  0  0
    7.4905  -13.5013   25.8174 C   0  0  0  0  0  0  0  0  0  0  0  0
    7.9330  -14.8192   25.2195 C   0  0  2  0  0  0  0  0  0  0  0  0
    8.4945  -14.5466   23.9116 N   0  0  0  0  0  0  0  0  0  0  0  0
    6.8666  -15.8181   25.2196 C   0  0  0  0  0  0  0  0  0  0  0  0
    5.9048  -15.9729   24.2315 O   0  0  0  0  0  0  0  0  0  0  0  0
    6.8038  -16.6120   26.1931 O   0  0  0  0  0  0  0  0  0  0  0  0
  1  2  1  0
  2  3  1  0
  3  4  2  0
  5  3  1  0
  5  6  1  0
  6  7  1  6
  8  7  1  0
  9 10  1  0
  9  8  1  0
 10 11  1  0
 12  6  1  0
 12 19  1  0
 13 12  2  0
 15 14  1  0
 16 15  1  0
 17 16  1  0
 18 19  1  0
 18 17  1  6
 20 18  1  0
 21 20  1  0
 22 20  2  0
M  END
$$$$
