GKM.pdb
     RDKit          3D

 22 21  0  0  1  0  0  0  0  0999 V2000
    8.4897  -12.3314   18.3109 N   0  0  0  0  0  0  0  0  0  0  0  0
    9.0553  -13.6250   18.6119 C   0  0  0  0  0  0  0  0  0  0  0  0
    8.2619  -14.2526   19.7122 C   0  0  0  0  0  0  0  0  0  0  0  0
    7.4382  -13.5837   20.4053 O   0  0  0  0  0  0  0  0  0  0  0  0
    8.3860  -15.6240   20.0401 N   0  0  0  0  0  0  0  0  0  0  0  0
    7.5658  -16.2307   21.1082 C   0  0  1  0  0  0  0  0  0  0  0  0
    7.6891  -17.7334   20.9220 C   0  0  0  0  0  0  0  0  0  0  0  0
    6.9347  -18.5472   21.9078 C   0  0  0  0  0  0  0  0  0  0  0  0
    5.6011  -19.0281   21.3281 C   0  0  0  0  0  0  0  0  0  0  0  0
    4.8691  -19.8899   22.3130 C   0  0  0  0  0  0  0  0  0  0  0  0
    3.6535  -20.4403   21.7467 N   0  0  0  0  0  0  0  0  0  0  0  0
    8.0641  -15.7292   22.3862 C   0  0  0  0  0  0  0  0  0  0  0  0
    9.3294  -15.6038   22.5762 O   0  0  0  0  0  0  0  0  0  0  0  0
    6.6378  -10.8701   28.4334 C   0  0  0  0  0  0  0  0  0  0  0  0
    6.0111  -11.7186   26.9637 S   0  0  0  0  0  0  0  0  0  0  0  0
    7.2134  -12.9440   26.3962 C   0  0  0  0  0  0  0  0  0  0  0  0
    6.8174  -13.6599   25.1495 C   0  0  0  0  0  0  0  0  0  0  0  0
    7.8406  -14.6605   24.6578 C   0  0  2  0  0  0  0  0  0  0  0  0
    7.2801  -15.3384   23.5061 N   0  0  0  0  0  0  0  0  0  0  0  0
    8.2999  -15.5555   25.7175 C   0  0  0  0  0  0  0  0  0  0  0  0
    9.3166  -15.2824   26.6214 O   0  0  0  0  0  0  0  0  0  0  0  0
    7.7334  -16.6728   25.8311 O   0  0  0  0  0  0  0  0  0  0  0  0
  1  2  1  0
  2  3  1  0
  3  4  2  0
  5  3  1  0
  5  6  1  0
  6  7  1  1
  8  7  1  0
  9 10  1  0
  9  8  1  0
 10 11  1  0
 12  6  1  0
 12 19  1  0
 13 12  2  0
 15 14  1  0
 16 15  1  0
 17 16  1  0
 18 19  1  0
 18 17  1  1
 20 18  1  0
 21 20  1  0
 22 20  2  0
M  END
$$$$
