GKM.pdb
     RDKit          3D

 22 21  0  0  1  0  0  0  0  0999 V2000
    7.4406  -12.8806   18.0464 N   0  0  0  0  0  0  0  0  0  0  0  0
    8.6387  -13.3794   18.6786 C   0  0  0  0  0  0  0  0  0  0  0  0
    8.2488  -14.3051   19.7854 C   0  0  0  0  0  0  0  0  0  0  0  0
    7.1759  -14.1457   20.4409 O   0  0  0  0  0  0  0  0  0  0  0  0
    9.0534  -15.4073   20.1616 N   0  0  0  0  0  0  0  0  0  0  0  0
    8.6652  -16.2887   21.2814 C   0  0  1  0  0  0  0  0  0  0  0  0
    9.4701  -17.5646   21.1024 C   0  0  0  0  0  0  0  0  0  0  0  0
    8.8371  -18.7844   21.6635 C   0  0  0  0  0  0  0  0  0  0  0  0
    7.9540  -19.4812   20.6241 C   0  0  0  0  0  0  0  0  0  0  0  0
    7.2245  -20.6412   21.2331 C   0  0  0  0  0  0  0  0  0  0  0  0
    6.4296  -21.3521   20.2512 N   0  0  0  0  0  0  0  0  0  0  0  0
    8.9297  -15.5671   22.5234 C   0  0  0  0  0  0  0  0  0  0  0  0
   10.0718  -15.0064   22.7082 O   0  0  0  0  0  0  0  0  0  0  0  0
    6.2522  -11.0051   28.3239 C   0  0  0  0  0  0  0  0  0  0  0  0
    5.8994  -11.9755   26.8384 S   0  0  0  0  0  0  0  0  0  0  0  0
    7.3339  -12.9869   26.4043 C   0  0  0  0  0  0  0  0  0  0  0  0
    7.1746  -13.7680   25.1441 C   0  0  0  0  0  0  0  0  0  0  0  0
    8.3676  -14.6312   24.7950 C   0  0  2  0  0  0  0  0  0  0  0  0
    8.0303  -15.3961   23.6112 N   0  0  0  0  0  0  0  0  0  0  0  0
    8.8207  -15.4400   25.9244 C   0  0  0  0  0  0  0  0  0  0  0  0
    8.6306  -16.8070   26.0668 O   0  0  0  0  0  0  0  0  0  0  0  0
    9.4374  -14.8594   26.8543 O   0  0  0  0  0  0  0  0  0  0  0  0
  1  2  1  0
  2  3  1  0
  3  4  2  0
  5  3  1  0
  5  6  1  0
  6  7  1  1
  8  7  1  0
  9 10  1  0
  9  8  1  0
 10 11  1  0
 12  6  1  0
 12 19  1  0
 13 12  2  0
 15 14  1  0
 16 15  1  0
 17 16  1  0
 18 19  1  0
 18 17  1  1
 20 18  1  0
 21 20  1  0
 22 20  2  0
M  END
$$$$
