GKM.pdb
     RDKit          3D

 22 21  0  0  1  0  0  0  0  0999 V2000
    6.7832  -19.2660   20.0423 N   0  0  0  0  0  0  0  0  0  0  0  0
    6.2774  -18.0406   20.6136 C   0  0  0  0  0  0  0  0  0  0  0  0
    7.3710  -17.0218   20.6119 C   0  0  0  0  0  0  0  0  0  0  0  0
    8.5934  -17.3561   20.6040 O   0  0  0  0  0  0  0  0  0  0  0  0
    7.1030  -15.6319   20.6192 N   0  0  0  0  0  0  0  0  0  0  0  0
    8.1970  -14.6442   20.7142 C   0  0  1  0  0  0  0  0  0  0  0  0
    7.6374  -13.3505   20.1473 C   0  0  0  0  0  0  0  0  0  0  0  0
    7.3224  -13.3905   18.6974 C   0  0  0  0  0  0  0  0  0  0  0  0
    8.5203  -13.8855   17.8813 C   0  0  0  0  0  0  0  0  0  0  0  0
    8.2118  -13.8684   16.4139 C   0  0  0  0  0  0  0  0  0  0  0  0
    9.3632  -14.2452   15.6179 N   0  0  0  0  0  0  0  0  0  0  0  0
    8.6068  -14.5724   22.1142 C   0  0  0  0  0  0  0  0  0  0  0  0
    9.6475  -13.8932   22.4435 O   0  0  0  0  0  0  0  0  0  0  0  0
    6.6622  -11.5721   28.5685 C   0  0  0  0  0  0  0  0  0  0  0  0
    6.2374  -12.1734   26.9160 S   0  0  0  0  0  0  0  0  0  0  0  0
    7.1328  -13.7045   26.5650 C   0  0  0  0  0  0  0  0  0  0  0  0
    6.9849  -14.1939   25.1643 C   0  0  0  0  0  0  0  0  0  0  0  0
    8.2352  -14.8276   24.5940 C   0  0  2  0  0  0  0  0  0  0  0  0
    7.9600  -15.1919   23.2186 N   0  0  0  0  0  0  0  0  0  0  0  0
    8.7299  -15.9271   25.4195 C   0  0  0  0  0  0  0  0  0  0  0  0
    9.3704  -15.7938   26.6431 O   0  0  0  0  0  0  0  0  0  0  0  0
    8.5677  -17.1003   24.9960 O   0  0  0  0  0  0  0  0  0  0  0  0
  1  2  1  0
  2  3  1  0
  3  4  2  0
  5  3  1  0
  5  6  1  0
  6  7  1  1
  8  7  1  0
  9 10  1  0
  9  8  1  0
 10 11  1  0
 12  6  1  0
 12 19  1  0
 13 12  2  0
 15 14  1  0
 16 15  1  0
 17 16  1  0
 18 19  1  0
 18 17  1  1
 20 18  1  0
 21 20  1  0
 22 20  2  0
M  END
$$$$
