GKM.pdb
     RDKit          3D

 22 21  0  0  1  0  0  0  0  0999 V2000
    8.0106  -19.1984   19.9126 N   0  0  0  0  0  0  0  0  0  0  0  0
    7.3299  -18.1967   20.6983 C   0  0  0  0  0  0  0  0  0  0  0  0
    8.1695  -16.9607   20.7335 C   0  0  0  0  0  0  0  0  0  0  0  0
    9.4228  -17.0007   20.5497 O   0  0  0  0  0  0  0  0  0  0  0  0
    7.6134  -15.6813   20.9734 N   0  0  0  0  0  0  0  0  0  0  0  0
    8.4637  -14.4742   21.0111 C   0  0  1  0  0  0  0  0  0  0  0  0
    7.5891  -13.3357   20.5143 C   0  0  0  0  0  0  0  0  0  0  0  0
    7.1967  -13.4292   19.0858 C   0  0  0  0  0  0  0  0  0  0  0  0
    8.4255  -13.4572   18.1720 C   0  0  0  0  0  0  0  0  0  0  0  0
    8.0194  -13.4388   16.7286 C   0  0  0  0  0  0  0  0  0  0  0  0
    9.1668  -13.5150   15.8460 N   0  0  0  0  0  0  0  0  0  0  0  0
    8.9508  -14.3199   22.3794 C   0  0  0  0  0  0  0  0  0  0  0  0
    9.4002  -13.1823   22.7753 O   0  0  0  0  0  0  0  0  0  0  0  0
    7.0768  -12.1279   28.2045 C   0  0  0  0  0  0  0  0  0  0  0  0
    6.7011  -12.4122   26.4578 S   0  0  0  0  0  0  0  0  0  0  0  0
    6.6743  -14.1865   26.1110 C   0  0  0  0  0  0  0  0  0  0  0  0
    7.1883  -14.5550   24.7606 C   0  0  0  0  0  0  0  0  0  0  0  0
    8.6092  -15.0758   24.7593 C   0  0  2  0  0  0  0  0  0  0  0  0
    8.9885  -15.3261   23.3832 N   0  0  0  0  0  0  0  0  0  0  0  0
    8.7845  -16.2215   25.6490 C   0  0  0  0  0  0  0  0  0  0  0  0
    9.1545  -16.1578   26.9848 O   0  0  0  0  0  0  0  0  0  0  0  0
    8.5860  -17.3700   25.1760 O   0  0  0  0  0  0  0  0  0  0  0  0
  1  2  1  0
  2  3  1  0
  3  4  2  0
  5  3  1  0
  5  6  1  0
  6  7  1  1
  8  7  1  0
  9 10  1  0
  9  8  1  0
 10 11  1  0
 12  6  1  0
 12 19  1  0
 13 12  2  0
 15 14  1  0
 16 15  1  0
 17 16  1  0
 18 19  1  0
 18 17  1  6
 20 18  1  0
 21 20  1  0
 22 20  2  0
M  END
$$$$
