GKM.pdb
     RDKit          3D

 22 21  0  0  1  0  0  0  0  0999 V2000
    8.0962  -12.9454   18.4781 N   0  0  0  0  0  0  0  0  0  0  0  0
    8.7715  -14.1693   18.8387 C   0  0  0  0  0  0  0  0  0  0  0  0
    8.0324  -14.8117   19.9678 C   0  0  0  0  0  0  0  0  0  0  0  0
    7.0505  -14.2422   20.5315 O   0  0  0  0  0  0  0  0  0  0  0  0
    8.3871  -16.0873   20.4687 N   0  0  0  0  0  0  0  0  0  0  0  0
    7.7122  -16.6571   21.6525 C   0  0  1  0  0  0  0  0  0  0  0  0
    7.8513  -18.1644   21.5232 C   0  0  0  0  0  0  0  0  0  0  0  0
    6.9812  -18.9506   22.4331 C   0  0  0  0  0  0  0  0  0  0  0  0
    7.7799  -19.5280   23.6055 C   0  0  0  0  0  0  0  0  0  0  0  0
    6.8821  -20.2672   24.5521 C   0  0  0  0  0  0  0  0  0  0  0  0
    7.6140  -20.7936   25.6873 N   0  0  0  0  0  0  0  0  0  0  0  0
    8.3427  -16.0837   22.8387 C   0  0  0  0  0  0  0  0  0  0  0  0
    9.6176  -16.1580   22.9863 O   0  0  0  0  0  0  0  0  0  0  0  0
    5.5582  -11.6529   26.6267 C   0  0  0  0  0  0  0  0  0  0  0  0
    7.1575  -11.7167   27.4698 S   0  0  0  0  0  0  0  0  0  0  0  0
    8.1679  -13.0487   26.7812 C   0  0  0  0  0  0  0  0  0  0  0  0
    7.5267  -13.7844   25.6538 C   0  0  0  0  0  0  0  0  0  0  0  0
    8.3966  -14.8611   25.0420 C   0  0  2  0  0  0  0  0  0  0  0  0
    7.6853  -15.4141   23.9070 N   0  0  0  0  0  0  0  0  0  0  0  0
    8.8281  -15.8542   26.0230 C   0  0  0  0  0  0  0  0  0  0  0  0
    8.3441  -17.1505   26.1268 O   0  0  0  0  0  0  0  0  0  0  0  0
    9.7140  -15.5182   26.8504 O   0  0  0  0  0  0  0  0  0  0  0  0
  1  2  1  0
  2  3  1  0
  3  4  2  0
  5  3  1  0
  5  6  1  0
  6  7  1  1
  8  7  1  0
  9 10  1  0
  9  8  1  0
 10 11  1  0
 12  6  1  0
 12 19  1  0
 13 12  2  0
 15 14  1  0
 16 15  1  0
 17 16  1  0
 18 19  1  0
 18 17  1  1
 20 18  1  0
 21 20  1  0
 22 20  2  0
M  END
$$$$
