GKM.pdb
     RDKit          3D

 22 21  0  0  1  0  0  0  0  0999 V2000
    6.3149  -19.2826   20.9176 N   0  0  0  0  0  0  0  0  0  0  0  0
    5.8471  -18.0470   21.4993 C   0  0  0  0  0  0  0  0  0  0  0  0
    6.9658  -17.0557   21.4866 C   0  0  0  0  0  0  0  0  0  0  0  0
    8.1524  -17.3934   21.1970 O   0  0  0  0  0  0  0  0  0  0  0  0
    6.7625  -15.6896   21.7964 N   0  0  0  0  0  0  0  0  0  0  0  0
    7.8932  -14.7403   21.8399 C   0  0  1  0  0  0  0  0  0  0  0  0
    7.3427  -13.4170   21.3359 C   0  0  0  0  0  0  0  0  0  0  0  0
    6.9873  -13.3985   19.8949 C   0  0  0  0  0  0  0  0  0  0  0  0
    8.2394  -13.4089   19.0128 C   0  0  0  0  0  0  0  0  0  0  0  0
    7.8700  -13.4274   17.5596 C   0  0  0  0  0  0  0  0  0  0  0  0
    9.0352  -13.5778   16.7104 N   0  0  0  0  0  0  0  0  0  0  0  0
    8.3938  -14.7125   23.2116 C   0  0  0  0  0  0  0  0  0  0  0  0
    8.5885  -13.5862   23.8002 O   0  0  0  0  0  0  0  0  0  0  0  0
    7.1765  -11.1456   27.1698 C   0  0  0  0  0  0  0  0  0  0  0  0
    6.9315  -12.6454   26.1883 S   0  0  0  0  0  0  0  0  0  0  0  0
    7.8853  -14.0099   26.8938 C   0  0  0  0  0  0  0  0  0  0  0  0
    7.7558  -15.2966   26.1515 C   0  0  0  0  0  0  0  0  0  0  0  0
    9.0163  -15.7272   25.4332 C   0  0  2  0  0  0  0  0  0  0  0  0
    8.7065  -15.8383   24.0219 N   0  0  0  0  0  0  0  0  0  0  0  0
    9.6072  -16.9300   26.0154 C   0  0  0  0  0  0  0  0  0  0  0  0
   10.3133  -16.9870   27.2085 O   0  0  0  0  0  0  0  0  0  0  0  0
    9.4715  -18.0137   25.3915 O   0  0  0  0  0  0  0  0  0  0  0  0
  1  2  1  0
  2  3  1  0
  3  4  2  0
  5  3  1  0
  5  6  1  0
  6  7  1  1
  8  7  1  0
  9 10  1  0
  9  8  1  0
 10 11  1  0
 12  6  1  0
 12 19  1  0
 13 12  2  0
 15 14  1  0
 16 15  1  0
 17 16  1  0
 18 19  1  0
 18 17  1  1
 20 18  1  0
 21 20  1  0
 22 20  2  0
M  END
$$$$
