GKM.pdb
     RDKit          3D

 22 21  0  0  1  0  0  0  0  0999 V2000
    5.3230  -19.7815   24.4738 N   0  0  0  0  0  0  0  0  0  0  0  0
    5.1414  -18.3578   24.3180 C   0  0  0  0  0  0  0  0  0  0  0  0
    6.3709  -17.7818   23.6931 C   0  0  0  0  0  0  0  0  0  0  0  0
    7.4289  -18.4648   23.5507 O   0  0  0  0  0  0  0  0  0  0  0  0
    6.4217  -16.4460   23.2276 N   0  0  0  0  0  0  0  0  0  0  0  0
    7.6366  -15.9083   22.5822 C   0  0  1  0  0  0  0  0  0  0  0  0
    7.1503  -14.8770   21.5782 C   0  0  0  0  0  0  0  0  0  0  0  0
    7.9955  -14.7414   20.3655 C   0  0  0  0  0  0  0  0  0  0  0  0
    7.4657  -13.6438   19.4380 C   0  0  0  0  0  0  0  0  0  0  0  0
    8.2746  -13.5718   18.1774 C   0  0  0  0  0  0  0  0  0  0  0  0
    7.8274  -12.4985   17.3119 N   0  0  0  0  0  0  0  0  0  0  0  0
    8.4984  -15.3783   23.6356 C   0  0  0  0  0  0  0  0  0  0  0  0
    7.9935  -14.6650   24.5785 O   0  0  0  0  0  0  0  0  0  0  0  0
    9.5726  -16.1357   29.4509 C   0  0  0  0  0  0  0  0  0  0  0  0
    9.5835  -14.4529   28.7871 S   0  0  0  0  0  0  0  0  0  0  0  0
   10.5539  -14.3948   27.2625 C   0  0  0  0  0  0  0  0  0  0  0  0
    9.8563  -14.9559   26.0700 C   0  0  0  0  0  0  0  0  0  0  0  0
   10.6893  -14.9532   24.8066 C   0  0  2  0  0  0  0  0  0  0  0  0
    9.9026  -15.5666   23.7554 N   0  0  0  0  0  0  0  0  0  0  0  0
   12.0045  -15.5584   25.0041 C   0  0  0  0  0  0  0  0  0  0  0  0
   12.3780  -16.8306   24.5951 O   0  0  0  0  0  0  0  0  0  0  0  0
   12.8828  -14.8784   25.5942 O   0  0  0  0  0  0  0  0  0  0  0  0
  1  2  1  0
  2  3  1  0
  3  4  2  0
  5  3  1  0
  5  6  1  0
  6  7  1  6
  8  7  1  0
  9 10  1  0
  9  8  1  0
 10 11  1  0
 12  6  1  0
 12 19  1  0
 13 12  2  0
 15 14  1  0
 16 15  1  0
 17 16  1  0
 18 19  1  0
 18 17  1  1
 20 18  1  0
 21 20  1  0
 22 20  2  0
M  END
$$$$
