GKM.pdb
     RDKit          3D

 22 21  0  0  1  0  0  0  0  0999 V2000
    7.5060  -19.0777   19.7194 N   0  0  0  0  0  0  0  0  0  0  0  0
    6.8726  -18.0602   20.5240 C   0  0  0  0  0  0  0  0  0  0  0  0
    7.8416  -16.9421   20.7357 C   0  0  0  0  0  0  0  0  0  0  0  0
    9.0940  -17.1359   20.7330 O   0  0  0  0  0  0  0  0  0  0  0  0
    7.4157  -15.6093   20.9505 N   0  0  0  0  0  0  0  0  0  0  0  0
    8.3917  -14.5107   21.0989 C   0  0  1  0  0  0  0  0  0  0  0  0
    7.6844  -13.2591   20.6077 C   0  0  0  0  0  0  0  0  0  0  0  0
    7.1383  -13.3520   19.2306 C   0  0  0  0  0  0  0  0  0  0  0  0
    8.2586  -13.3446   18.1862 C   0  0  0  0  0  0  0  0  0  0  0  0
    7.7004  -13.4873   16.8018 C   0  0  0  0  0  0  0  0  0  0  0  0
    8.7493  -13.6209   15.8101 N   0  0  0  0  0  0  0  0  0  0  0  0
    8.8028  -14.4716   22.4998 C   0  0  0  0  0  0  0  0  0  0  0  0
    9.3058  -13.3950   22.9905 O   0  0  0  0  0  0  0  0  0  0  0  0
    6.9331  -11.5289   27.3747 C   0  0  0  0  0  0  0  0  0  0  0  0
    5.9512  -12.9881   26.9515 S   0  0  0  0  0  0  0  0  0  0  0  0
    7.0412  -14.3880   26.6025 C   0  0  0  0  0  0  0  0  0  0  0  0
    7.3170  -14.6038   25.1531 C   0  0  0  0  0  0  0  0  0  0  0  0
    8.6246  -15.3109   24.8697 C   0  0  2  0  0  0  0  0  0  0  0  0
    8.7074  -15.5339   23.4401 N   0  0  0  0  0  0  0  0  0  0  0  0
    8.7931  -16.5171   25.6770 C   0  0  0  0  0  0  0  0  0  0  0  0
    9.0350  -16.5477   27.0429 O   0  0  0  0  0  0  0  0  0  0  0  0
    8.7145  -17.6300   25.0960 O   0  0  0  0  0  0  0  0  0  0  0  0
  1  2  1  0
  2  3  1  0
  3  4  2  0
  5  3  1  0
  5  6  1  0
  6  7  1  1
  8  7  1  0
  9 10  1  0
  9  8  1  0
 10 11  1  0
 12  6  1  0
 12 19  1  0
 13 12  2  0
 15 14  1  0
 16 15  1  0
 17 16  1  0
 18 19  1  0
 18 17  1  6
 20 18  1  0
 21 20  1  0
 22 20  2  0
M  END
$$$$
