LTM.pdb
     RDKit          3D

 24 23  0  0  1  0  0  0  0  0999 V2000
   18.5115  -17.4558  -14.1841 C   0  0  0  0  0  0  0  0  0  0  0  0
   20.0098  -17.6253  -14.0266 C   0  0  2  0  0  0  0  0  0  0  0  0
   20.6506  -17.5059  -15.3728 C   0  0  0  0  0  0  0  0  0  0  0  0
   20.2588  -18.9697  -13.3769 C   0  0  0  0  0  0  0  0  0  0  0  0
   21.3575  -19.6537  -14.1606 C   0  0  2  0  0  0  0  0  0  0  0  0
   20.7158  -20.4679  -15.1699 N   0  0  0  0  0  0  0  0  0  0  0  0
   22.2328  -20.4753  -13.2980 C   0  0  0  0  0  0  0  0  0  0  0  0
   21.8030  -21.4469  -12.6549 O   0  0  0  0  0  0  0  0  0  0  0  0
   26.7570  -22.1531  -12.4493 C   0  0  0  0  0  0  0  0  0  0  0  0
   25.6832  -21.4816  -13.2790 C   0  0  1  0  0  0  0  0  0  0  0  0
   25.2351  -22.3115  -14.3048 O   0  0  0  0  0  0  0  0  0  0  0  0
   24.5587  -20.9453  -12.4429 C   0  0  2  0  0  0  0  0  0  0  0  0
   23.6041  -20.1643  -13.1864 N   0  0  0  0  0  0  0  0  0  0  0  0
   25.1483  -20.1804  -11.3147 C   0  0  0  0  0  0  0  0  0  0  0  0
   24.9510  -18.9412  -11.2225 O   0  0  0  0  0  0  0  0  0  0  0  0
   28.7841  -18.8345   -4.6905 C   0  0  0  0  0  0  0  0  0  0  0  0
   27.5230  -19.7065   -5.6709 S   0  0  0  0  0  0  0  0  0  0  0  0
   27.9204  -19.6385   -7.4363 C   0  0  0  0  0  0  0  0  0  0  0  0
   26.7792  -20.2936   -8.2011 C   0  0  0  0  0  0  0  0  0  0  0  0
   27.0869  -20.2591   -9.7059 C   0  0  2  0  0  0  0  0  0  0  0  0
   25.9224  -20.8304  -10.3521 N   0  0  0  0  0  0  0  0  0  0  0  0
   28.3067  -21.0290   -9.9336 C   0  0  0  0  0  0  0  0  0  0  0  0
   29.5365  -20.4098   -9.9667 O   0  0  0  0  0  0  0  0  0  0  0  0
   28.2456  -22.2639  -10.1017 O   0  0  0  0  0  0  0  0  0  0  0  0
  2  1  1  6
  2  3  1  0
  4  2  1  0
  5  7  1  0
  5  4  1  0
  5  6  1  6
  7  8  2  0
 10  9  1  1
 11 10  1  0
 12 10  1  0
 13  7  1  0
 12 13  1  6
 14 15  2  0
 14 12  1  0
 16 17  1  0
 18 19  1  0
 18 17  1  0
 20 19  1  1
 20 21  1  0
 21 14  1  0
 22 20  1  0
 22 23  1  0
 24 22  2  0
M  END
$$$$
