LTM.pdb
     RDKit          3D

 24 23  0  0  1  0  0  0  0  0999 V2000
   31.5756  -23.7697  -11.1930 C   0  0  0  0  0  0  0  0  0  0  0  0
   32.4724  -22.7191  -11.8179 C   0  0  2  0  0  0  0  0  0  0  0  0
   33.7142  -22.5960  -10.9933 C   0  0  0  0  0  0  0  0  0  0  0  0
   31.6892  -21.4259  -11.8931 C   0  0  0  0  0  0  0  0  0  0  0  0
   30.4784  -21.6810  -12.7639 C   0  0  2  0  0  0  0  0  0  0  0  0
   30.8782  -21.4303  -14.1317 N   0  0  0  0  0  0  0  0  0  0  0  0
   29.3282  -20.8324  -12.3866 C   0  0  0  0  0  0  0  0  0  0  0  0
   29.1010  -19.7436  -12.9388 O   0  0  0  0  0  0  0  0  0  0  0  0
   26.8178  -19.5747  -13.2469 C   0  0  0  0  0  0  0  0  0  0  0  0
   26.2621  -20.3676  -12.0830 C   0  0  1  0  0  0  0  0  0  0  0  0
   25.7166  -21.5791  -12.5030 O   0  0  0  0  0  0  0  0  0  0  0  0
   27.2585  -20.5412  -10.9747 C   0  0  2  0  0  0  0  0  0  0  0  0
   28.4468  -21.2530  -11.3688 N   0  0  0  0  0  0  0  0  0  0  0  0
   26.5684  -21.1950   -9.8337 C   0  0  0  0  0  0  0  0  0  0  0  0
   27.0356  -22.2524   -9.3372 O   0  0  0  0  0  0  0  0  0  0  0  0
   28.4020  -20.0862   -4.7080 C   0  0  0  0  0  0  0  0  0  0  0  0
   26.7902  -19.2445   -4.6318 S   0  0  0  0  0  0  0  0  0  0  0  0
   25.5543  -20.1321   -5.6137 C   0  0  0  0  0  0  0  0  0  0  0  0
   25.9392  -20.0052   -7.0807 C   0  0  0  0  0  0  0  0  0  0  0  0
   24.9513  -20.8098   -7.9392 C   0  0  2  0  0  0  0  0  0  0  0  0
   25.4006  -20.6411   -9.3065 N   0  0  0  0  0  0  0  0  0  0  0  0
   23.6124  -20.2765   -7.7038 C   0  0  0  0  0  0  0  0  0  0  0  0
   22.8729  -20.6807   -6.6145 O   0  0  0  0  0  0  0  0  0  0  0  0
   23.1223  -19.4437   -8.4933 O   0  0  0  0  0  0  0  0  0  0  0  0
  2  1  1  1
  2  3  1  0
  4  2  1  0
  5  7  1  0
  5  4  1  0
  5  6  1  6
  7  8  2  0
 10  9  1  6
 11 10  1  0
 12 10  1  0
 13  7  1  0
 12 13  1  6
 14 15  2  0
 14 12  1  0
 16 17  1  0
 18 19  1  0
 18 17  1  0
 20 19  1  1
 20 21  1  0
 21 14  1  0
 22 20  1  0
 22 23  1  0
 24 22  2  0
M  END
$$$$
