LTM.pdb
     RDKit          3D

 24 23  0  0  1  0  0  0  0  0999 V2000
   18.3688  -17.3109  -17.5397 C   0  0  0  0  0  0  0  0  0  0  0  0
   17.5727  -16.1553  -16.9661 C   0  0  2  0  0  0  0  0  0  0  0  0
   16.1480  -16.2911  -17.4010 C   0  0  0  0  0  0  0  0  0  0  0  0
   18.2110  -14.8691  -17.4454 C   0  0  0  0  0  0  0  0  0  0  0  0
   18.4777  -14.0150  -16.2253 C   0  0  2  0  0  0  0  0  0  0  0  0
   17.2137  -13.8427  -15.5426 N   0  0  0  0  0  0  0  0  0  0  0  0
   19.0706  -12.7069  -16.5758 C   0  0  0  0  0  0  0  0  0  0  0  0
   20.1203  -12.6119  -17.2325 O   0  0  0  0  0  0  0  0  0  0  0  0
   16.9493   -9.6126  -17.9573 C   0  0  0  0  0  0  0  0  0  0  0  0
   17.7955   -9.2159  -16.7663 C   0  0  1  0  0  0  0  0  0  0  0  0
   17.0119   -8.9718  -15.6401 O   0  0  0  0  0  0  0  0  0  0  0  0
   18.9023  -10.1916  -16.4940 C   0  0  2  0  0  0  0  0  0  0  0  0
   18.4408  -11.5148  -16.1615 N   0  0  0  0  0  0  0  0  0  0  0  0
   19.7694   -9.6195  -15.4326 C   0  0  0  0  0  0  0  0  0  0  0  0
   19.8404  -10.1786  -14.3077 O   0  0  0  0  0  0  0  0  0  0  0  0
   26.7356  -10.5518  -14.6609 C   0  0  0  0  0  0  0  0  0  0  0  0
   25.0825  -10.6332  -15.4177 S   0  0  0  0  0  0  0  0  0  0  0  0
   24.1086   -9.1663  -14.9944 C   0  0  0  0  0  0  0  0  0  0  0  0
   22.7148   -9.3419  -15.5798 C   0  0  0  0  0  0  0  0  0  0  0  0
   21.8171   -8.1842  -15.1172 C   0  0  2  0  0  0  0  0  0  0  0  0
   20.5093   -8.4613  -15.6766 N   0  0  0  0  0  0  0  0  0  0  0  0
   22.4003   -6.9385  -15.6079 C   0  0  0  0  0  0  0  0  0  0  0  0
   23.1556   -6.1382  -14.7797 O   0  0  0  0  0  0  0  0  0  0  0  0
   22.2183   -6.5851  -16.7907 O   0  0  0  0  0  0  0  0  0  0  0  0
  2  1  1  6
  2  3  1  0
  4  2  1  0
  5  7  1  0
  5  4  1  0
  5  6  1  6
  7  8  2  0
 10  9  1  6
 11 10  1  0
 12 10  1  0
 13  7  1  0
 12 13  1  1
 14 15  2  0
 14 12  1  0
 16 17  1  0
 18 19  1  0
 18 17  1  0
 20 19  1  6
 20 21  1  0
 21 14  1  0
 22 20  1  0
 22 23  1  0
 24 22  2  0
M  END
$$$$
