LTM.pdb
     RDKit          3D

 24 23  0  0  1  0  0  0  0  0999 V2000
   18.8376  -11.6319  -18.8935 C   0  0  0  0  0  0  0  0  0  0  0  0
   19.2638  -12.1746  -17.5436 C   0  0  2  0  0  0  0  0  0  0  0  0
   18.3868  -13.3346  -17.1939 C   0  0  0  0  0  0  0  0  0  0  0  0
   19.1697  -11.0459  -16.5392 C   0  0  0  0  0  0  0  0  0  0  0  0
   20.0543   -9.9236  -17.0364 C   0  0  2  0  0  0  0  0  0  0  0  0
   21.4204  -10.3942  -16.9610 N   0  0  0  0  0  0  0  0  0  0  0  0
   19.8797   -8.6830  -16.2518 C   0  0  0  0  0  0  0  0  0  0  0  0
   18.7722   -8.1380  -16.1151 O   0  0  0  0  0  0  0  0  0  0  0  0
   21.7984   -5.5474  -12.9106 C   0  0  0  0  0  0  0  0  0  0  0  0
   21.8020   -6.8738  -13.6405 C   0  0  1  0  0  0  0  0  0  0  0  0
   21.4938   -7.9297  -12.7850 O   0  0  0  0  0  0  0  0  0  0  0  0
   20.9389   -6.8597  -14.8678 C   0  0  2  0  0  0  0  0  0  0  0  0
   20.9930   -8.0809  -15.6294 N   0  0  0  0  0  0  0  0  0  0  0  0
   21.3161   -5.6764  -15.6821 C   0  0  0  0  0  0  0  0  0  0  0  0
   22.0070   -5.8227  -16.7234 O   0  0  0  0  0  0  0  0  0  0  0  0
   19.6765   -4.2424  -20.3113 C   0  0  0  0  0  0  0  0  0  0  0  0
   19.4873   -2.5100  -19.7869 S   0  0  0  0  0  0  0  0  0  0  0  0
   20.4198   -2.1925  -18.2674 C   0  0  0  0  0  0  0  0  0  0  0  0
   20.2581   -3.3999  -17.3551 C   0  0  0  0  0  0  0  0  0  0  0  0
   21.1007   -3.1980  -16.0865 C   0  0  2  0  0  0  0  0  0  0  0  0
   20.9069   -4.3983  -15.2981 N   0  0  0  0  0  0  0  0  0  0  0  0
   20.6266   -1.9887  -15.4190 C   0  0  0  0  0  0  0  0  0  0  0  0
   19.5911   -2.0424  -14.5126 O   0  0  0  0  0  0  0  0  0  0  0  0
   21.1593   -0.8876  -15.6657 O   0  0  0  0  0  0  0  0  0  0  0  0
  2  1  1  6
  2  3  1  0
  4  2  1  0
  5  7  1  0
  5  4  1  0
  5  6  1  1
  7  8  2  0
 10  9  1  1
 11 10  1  0
 12 10  1  0
 13  7  1  0
 12 13  1  6
 14 15  2  0
 14 12  1  0
 16 17  1  0
 18 19  1  0
 18 17  1  0
 20 19  1  6
 20 21  1  0
 21 14  1  0
 22 20  1  0
 22 23  1  0
 24 22  2  0
M  END
$$$$
