LTM.pdb
     RDKit          3D

 24 23  0  0  1  0  0  0  0  0999 V2000
   27.2981  -18.5737   -6.8410 C   0  0  0  0  0  0  0  0  0  0  0  0
   27.6490  -20.0360   -7.0329 C   0  0  2  0  0  0  0  0  0  0  0  0
   28.9706  -20.3017   -6.3848 C   0  0  0  0  0  0  0  0  0  0  0  0
   27.6588  -20.3194   -8.5199 C   0  0  0  0  0  0  0  0  0  0  0  0
   26.2912  -19.9592   -9.0576 C   0  0  2  0  0  0  0  0  0  0  0  0
   25.3233  -20.7301   -8.3077 N   0  0  0  0  0  0  0  0  0  0  0  0
   26.1705  -20.2270  -10.5064 C   0  0  0  0  0  0  0  0  0  0  0  0
   27.1628  -20.4208  -11.2275 O   0  0  0  0  0  0  0  0  0  0  0  0
   25.8544  -22.7605  -12.4676 C   0  0  0  0  0  0  0  0  0  0  0  0
   24.5821  -22.0176  -12.8161 C   0  0  1  0  0  0  0  0  0  0  0  0
   23.4638  -22.6213  -12.2444 O   0  0  0  0  0  0  0  0  0  0  0  0
   24.6651  -20.5524  -12.5038 C   0  0  2  0  0  0  0  0  0  0  0  0
   24.8968  -20.2681  -11.1111 N   0  0  0  0  0  0  0  0  0  0  0  0
   23.4279  -19.9036  -13.0079 C   0  0  0  0  0  0  0  0  0  0  0  0
   22.9114  -18.9505  -12.3693 O   0  0  0  0  0  0  0  0  0  0  0  0
   23.7781  -15.8536  -16.1579 C   0  0  0  0  0  0  0  0  0  0  0  0
   22.1670  -16.1429  -16.9533 S   0  0  0  0  0  0  0  0  0  0  0  0
   21.3666  -17.6154  -16.2676 C   0  0  0  0  0  0  0  0  0  0  0  0
   22.4176  -18.4113  -15.5072 C   0  0  0  0  0  0  0  0  0  0  0  0
   21.7652  -19.6556  -14.8858 C   0  0  2  0  0  0  0  0  0  0  0  0
   22.8329  -20.3460  -14.1906 N   0  0  0  0  0  0  0  0  0  0  0  0
   21.1787  -20.4436  -15.9664 C   0  0  0  0  0  0  0  0  0  0  0  0
   19.8198  -20.4331  -16.1907 O   0  0  0  0  0  0  0  0  0  0  0  0
   21.9087  -21.1388  -16.7018 O   0  0  0  0  0  0  0  0  0  0  0  0
  2  1  1  6
  2  3  1  0
  4  2  1  0
  5  7  1  0
  5  4  1  0
  5  6  1  1
  7  8  2  0
 10  9  1  1
 11 10  1  0
 12 10  1  0
 13  7  1  0
 12 13  1  1
 14 15  2  0
 14 12  1  0
 16 17  1  0
 18 19  1  0
 18 17  1  0
 20 19  1  6
 20 21  1  0
 21 14  1  0
 22 20  1  0
 22 23  1  0
 24 22  2  0
M  END
$$$$
