LTM.pdb
     RDKit          3D

 24 23  0  0  1  0  0  0  0  0999 V2000
   16.0943  -14.0726  -15.4956 C   0  0  0  0  0  0  0  0  0  0  0  0
   16.2149  -13.8533  -16.9908 C   0  0  2  0  0  0  0  0  0  0  0  0
   17.3014  -14.7352  -17.5193 C   0  0  0  0  0  0  0  0  0  0  0  0
   16.4894  -12.3829  -17.2235 C   0  0  0  0  0  0  0  0  0  0  0  0
   17.9477  -12.1391  -16.9019 C   0  0  2  0  0  0  0  0  0  0  0  0
   18.1216  -12.4046  -15.4903 N   0  0  0  0  0  0  0  0  0  0  0  0
   18.3726  -10.7633  -17.2362 C   0  0  0  0  0  0  0  0  0  0  0  0
   18.1601  -10.2584  -18.3507 O   0  0  0  0  0  0  0  0  0  0  0  0
   17.4415   -8.0998  -17.9797 C   0  0  0  0  0  0  0  0  0  0  0  0
   18.1591   -7.7211  -16.7016 C   0  0  1  0  0  0  0  0  0  0  0  0
   17.2845   -7.6752  -15.6177 O   0  0  0  0  0  0  0  0  0  0  0  0
   19.3574   -8.5838  -16.4351 C   0  0  2  0  0  0  0  0  0  0  0  0
   19.0431   -9.9799  -16.2737 N   0  0  0  0  0  0  0  0  0  0  0  0
   20.0688   -8.0313  -15.2542 C   0  0  0  0  0  0  0  0  0  0  0  0
   20.0963   -8.6787  -14.1758 O   0  0  0  0  0  0  0  0  0  0  0  0
   25.0058  -10.1723  -14.2811 C   0  0  0  0  0  0  0  0  0  0  0  0
   25.4298   -8.6004  -15.0944 S   0  0  0  0  0  0  0  0  0  0  0  0
   24.3226   -7.2752  -14.5491 C   0  0  0  0  0  0  0  0  0  0  0  0
   22.9959   -7.4414  -15.2762 C   0  0  0  0  0  0  0  0  0  0  0  0
   21.9635   -6.4704  -14.6834 C   0  0  2  0  0  0  0  0  0  0  0  0
   20.7098   -6.7939  -15.3341 N   0  0  0  0  0  0  0  0  0  0  0  0
   22.4180   -5.1094  -14.9549 C   0  0  0  0  0  0  0  0  0  0  0  0
   21.9842   -4.4297  -16.0715 O   0  0  0  0  0  0  0  0  0  0  0  0
   23.2094   -4.5456  -14.1720 O   0  0  0  0  0  0  0  0  0  0  0  0
  2  1  1  1
  2  3  1  0
  4  2  1  0
  5  7  1  0
  5  4  1  0
  5  6  1  1
  7  8  2  0
 10  9  1  6
 11 10  1  0
 12 10  1  0
 13  7  1  0
 12 13  1  1
 14 15  2  0
 14 12  1  0
 16 17  1  0
 18 19  1  0
 18 17  1  0
 20 19  1  6
 20 21  1  0
 21 14  1  0
 22 20  1  0
 22 23  1  0
 24 22  2  0
M  END
$$$$
