LTM.pdb
     RDKit          3D

 24 23  0  0  1  0  0  0  0  0999 V2000
   25.4568  -12.6904  -16.0616 C   0  0  0  0  0  0  0  0  0  0  0  0
   25.3362  -11.7117  -17.2131 C   0  0  2  0  0  0  0  0  0  0  0  0
   26.6693  -11.5887  -17.8802 C   0  0  0  0  0  0  0  0  0  0  0  0
   24.8381  -10.3962  -16.6536 C   0  0  0  0  0  0  0  0  0  0  0  0
   23.4704  -10.6477  -16.0575 C   0  0  2  0  0  0  0  0  0  0  0  0
   22.7147  -11.4043  -17.0321 N   0  0  0  0  0  0  0  0  0  0  0  0
   22.7724   -9.3925  -15.7075 C   0  0  0  0  0  0  0  0  0  0  0  0
   23.2637   -8.5578  -14.9302 O   0  0  0  0  0  0  0  0  0  0  0  0
   21.8939   -6.5569  -17.8310 C   0  0  0  0  0  0  0  0  0  0  0  0
   20.5827   -7.0626  -17.2679 C   0  0  1  0  0  0  0  0  0  0  0  0
   19.8239   -7.7105  -18.2406 O   0  0  0  0  0  0  0  0  0  0  0  0
   20.7676   -7.8973  -16.0349 C   0  0  2  0  0  0  0  0  0  0  0  0
   21.5061   -9.1127  -16.2622 N   0  0  0  0  0  0  0  0  0  0  0  0
   19.4273   -8.1590  -15.4511 C   0  0  0  0  0  0  0  0  0  0  0  0
   18.9365   -9.3167  -15.4947 O   0  0  0  0  0  0  0  0  0  0  0  0
   15.0700   -9.4900   -9.8074 C   0  0  0  0  0  0  0  0  0  0  0  0
   16.6237   -9.1173  -10.6788 S   0  0  0  0  0  0  0  0  0  0  0  0
   16.2949   -8.2740  -12.2473 C   0  0  0  0  0  0  0  0  0  0  0  0
   17.6222   -8.0866  -12.9680 C   0  0  0  0  0  0  0  0  0  0  0  0
   17.3961   -7.2724  -14.2510 C   0  0  2  0  0  0  0  0  0  0  0  0
   18.7066   -7.1249  -14.8516 N   0  0  0  0  0  0  0  0  0  0  0  0
   16.7892   -5.9985  -13.8746 C   0  0  0  0  0  0  0  0  0  0  0  0
   15.4298   -5.8944  -13.6797 O   0  0  0  0  0  0  0  0  0  0  0  0
   17.5020   -4.9853  -13.7251 O   0  0  0  0  0  0  0  0  0  0  0  0
  2  1  1  1
  2  3  1  0
  4  2  1  0
  5  7  1  0
  5  4  1  0
  5  6  1  6
  7  8  2  0
 10  9  1  6
 11 10  1  0
 12 10  1  0
 13  7  1  0
 12 13  1  6
 14 15  2  0
 14 12  1  0
 16 17  1  0
 18 19  1  0
 18 17  1  0
 20 19  1  1
 20 21  1  0
 21 14  1  0
 22 20  1  0
 22 23  1  0
 24 22  2  0
M  END
$$$$
