LTM.pdb
     RDKit          3D

 24 23  0  0  1  0  0  0  0  0999 V2000
   33.0816  -28.1242  -17.8956 C   0  0  0  0  0  0  0  0  0  0  0  0
   33.8332  -29.3774  -18.2994 C   0  0  2  0  0  0  0  0  0  0  0  0
   34.5279  -29.1227  -19.5993 C   0  0  0  0  0  0  0  0  0  0  0  0
   32.8339  -30.5114  -18.3821 C   0  0  0  0  0  0  0  0  0  0  0  0
   32.2256  -30.6789  -17.0069 C   0  0  2  0  0  0  0  0  0  0  0  0
   33.2927  -31.0816  -16.1165 N   0  0  0  0  0  0  0  0  0  0  0  0
   31.1280  -31.6690  -16.9965 C   0  0  0  0  0  0  0  0  0  0  0  0
   30.1284  -31.5550  -17.7245 O   0  0  0  0  0  0  0  0  0  0  0  0
   29.4706  -36.0325  -15.1623 C   0  0  0  0  0  0  0  0  0  0  0  0
   30.6005  -35.0418  -15.3463 C   0  0  1  0  0  0  0  0  0  0  0  0
   31.6828  -35.6171  -16.0094 O   0  0  0  0  0  0  0  0  0  0  0  0
   30.1485  -33.7634  -15.9886 C   0  0  2  0  0  0  0  0  0  0  0  0
   31.1968  -32.7875  -16.1399 N   0  0  0  0  0  0  0  0  0  0  0  0
   29.0024  -33.2352  -15.2056 C   0  0  0  0  0  0  0  0  0  0  0  0
   29.0783  -32.1018  -14.6644 O   0  0  0  0  0  0  0  0  0  0  0  0
   23.0291  -29.5736  -16.3415 C   0  0  0  0  0  0  0  0  0  0  0  0
   24.5861  -30.4492  -16.6893 S   0  0  0  0  0  0  0  0  0  0  0  0
   24.9685  -31.6296  -15.3703 C   0  0  0  0  0  0  0  0  0  0  0  0
   26.2449  -32.3651  -15.7525 C   0  0  0  0  0  0  0  0  0  0  0  0
   26.5413  -33.4509  -14.7069 C   0  0  2  0  0  0  0  0  0  0  0  0
   27.8371  -33.9909  -15.0663 N   0  0  0  0  0  0  0  0  0  0  0  0
   25.4688  -34.4401  -14.7688 C   0  0  0  0  0  0  0  0  0  0  0  0
   24.4005  -34.3785  -13.9016 O   0  0  0  0  0  0  0  0  0  0  0  0
   25.5107  -35.3571  -15.6140 O   0  0  0  0  0  0  0  0  0  0  0  0
  2  1  1  6
  2  3  1  0
  4  2  1  0
  5  7  1  0
  5  4  1  0
  5  6  1  1
  7  8  2  0
 10  9  1  6
 11 10  1  0
 12 10  1  0
 13  7  1  0
 12 13  1  1
 14 15  2  0
 14 12  1  0
 16 17  1  0
 18 19  1  0
 18 17  1  0
 20 19  1  6
 20 21  1  0
 21 14  1  0
 22 20  1  0
 22 23  1  0
 24 22  2  0
M  END
$$$$
