LTM.pdb
     RDKit          3D

 24 23  0  0  1  0  0  0  0  0999 V2000
   20.4607  -19.4329  -14.2653 C   0  0  0  0  0  0  0  0  0  0  0  0
   21.6029  -19.9840  -15.0961 C   0  0  2  0  0  0  0  0  0  0  0  0
   22.3929  -20.9356  -14.2549 C   0  0  0  0  0  0  0  0  0  0  0  0
   22.4273  -18.8128  -15.5861 C   0  0  0  0  0  0  0  0  0  0  0  0
   21.5673  -18.0276  -16.5521 C   0  0  2  0  0  0  0  0  0  0  0  0
   21.1601  -18.9411  -17.5976 N   0  0  0  0  0  0  0  0  0  0  0  0
   22.2804  -16.8626  -17.1176 C   0  0  0  0  0  0  0  0  0  0  0  0
   23.2823  -16.9883  -17.8405 O   0  0  0  0  0  0  0  0  0  0  0  0
   21.5264  -14.7229  -19.7648 C   0  0  0  0  0  0  0  0  0  0  0  0
   21.5452  -13.8114  -18.5560 C   0  0  1  0  0  0  0  0  0  0  0  0
   20.2559  -13.4703  -18.1521 O   0  0  0  0  0  0  0  0  0  0  0  0
   22.3716  -14.3616  -17.4311 C   0  0  2  0  0  0  0  0  0  0  0  0
   21.8260  -15.5564  -16.8404 N   0  0  0  0  0  0  0  0  0  0  0  0
   22.5637  -13.2814  -16.4302 C   0  0  0  0  0  0  0  0  0  0  0  0
   21.8089  -13.2115  -15.4261 O   0  0  0  0  0  0  0  0  0  0  0  0
   27.9614   -9.6196  -16.8323 C   0  0  0  0  0  0  0  0  0  0  0  0
   27.5299   -9.5478  -15.0657 S   0  0  0  0  0  0  0  0  0  0  0  0
   25.7705   -9.8982  -14.8188 C   0  0  0  0  0  0  0  0  0  0  0  0
   25.3723  -11.0085  -15.7805 C   0  0  0  0  0  0  0  0  0  0  0  0
   23.8593  -11.2542  -15.6785 C   0  0  2  0  0  0  0  0  0  0  0  0
   23.5808  -12.3400  -16.5970 N   0  0  0  0  0  0  0  0  0  0  0  0
   23.1768  -10.0125  -16.0321 C   0  0  0  0  0  0  0  0  0  0  0  0
   22.8475   -9.0880  -15.0657 O   0  0  0  0  0  0  0  0  0  0  0  0
   22.8834   -9.7760  -17.2216 O   0  0  0  0  0  0  0  0  0  0  0  0
  2  1  1  1
  2  3  1  0
  4  2  1  0
  5  7  1  0
  5  4  1  0
  5  6  1  6
  7  8  2  0
 10  9  1  6
 11 10  1  0
 12 10  1  0
 13  7  1  0
 12 13  1  1
 14 15  2  0
 14 12  1  0
 16 17  1  0
 18 19  1  0
 18 17  1  0
 20 19  1  6
 20 21  1  0
 21 14  1  0
 22 20  1  0
 22 23  1  0
 24 22  2  0
M  END
$$$$
