LTM.pdb
     RDKit          3D

 24 23  0  0  1  0  0  0  0  0999 V2000
   25.8691  -19.6913  -11.6878 C   0  0  0  0  0  0  0  0  0  0  0  0
   25.4119  -21.0601  -11.2232 C   0  0  2  0  0  0  0  0  0  0  0  0
   26.5561  -22.0156  -11.3458 C   0  0  0  0  0  0  0  0  0  0  0  0
   24.2207  -21.4622  -12.0663 C   0  0  0  0  0  0  0  0  0  0  0  0
   23.2038  -20.3457  -11.9733 C   0  0  2  0  0  0  0  0  0  0  0  0
   22.4912  -20.5227  -10.7265 N   0  0  0  0  0  0  0  0  0  0  0  0
   22.2696  -20.3419  -13.1189 C   0  0  0  0  0  0  0  0  0  0  0  0
   21.2064  -20.9836  -13.1067 O   0  0  0  0  0  0  0  0  0  0  0  0
   23.2139  -17.8621  -16.6161 C   0  0  0  0  0  0  0  0  0  0  0  0
   21.8120  -18.1659  -16.1316 C   0  0  1  0  0  0  0  0  0  0  0  0
   20.8777  -18.0424  -17.1580 O   0  0  0  0  0  0  0  0  0  0  0  0
   21.7185  -19.4873  -15.4271 C   0  0  2  0  0  0  0  0  0  0  0  0
   22.5750  -19.5923  -14.2741 N   0  0  0  0  0  0  0  0  0  0  0  0
   21.9857  -20.5584  -16.4206 C   0  0  0  0  0  0  0  0  0  0  0  0
   23.1065  -21.1295  -16.4451 O   0  0  0  0  0  0  0  0  0  0  0  0
   22.2770  -25.5636  -15.1618 C   0  0  0  0  0  0  0  0  0  0  0  0
   20.8743  -25.8972  -16.2723 S   0  0  0  0  0  0  0  0  0  0  0  0
   20.7829  -24.6527  -17.5845 C   0  0  0  0  0  0  0  0  0  0  0  0
   20.8894  -23.2789  -16.9383 C   0  0  0  0  0  0  0  0  0  0  0  0
   20.9639  -22.2039  -18.0333 C   0  0  2  0  0  0  0  0  0  0  0  0
   20.9971  -20.9371  -17.3304 N   0  0  0  0  0  0  0  0  0  0  0  0
   19.7925  -22.3544  -18.8924 C   0  0  0  0  0  0  0  0  0  0  0  0
   19.8250  -23.1837  -19.9916 O   0  0  0  0  0  0  0  0  0  0  0  0
   18.7438  -21.7285  -18.6366 O   0  0  0  0  0  0  0  0  0  0  0  0
  2  1  1  6
  2  3  1  0
  4  2  1  0
  5  7  1  0
  5  4  1  0
  5  6  1  1
  7  8  2  0
 10  9  1  6
 11 10  1  0
 12 10  1  0
 13  7  1  0
 12 13  1  1
 14 15  2  0
 14 12  1  0
 16 17  1  0
 18 19  1  0
 18 17  1  0
 20 19  1  1
 20 21  1  0
 21 14  1  0
 22 20  1  0
 22 23  1  0
 24 22  2  0
M  END
$$$$
