LTM.pdb
     RDKit          3D

 24 23  0  0  1  0  0  0  0  0999 V2000
   17.2376  -14.6969  -17.2080 C   0  0  0  0  0  0  0  0  0  0  0  0
   16.0764  -13.7526  -17.4494 C   0  0  2  0  0  0  0  0  0  0  0  0
   15.2695  -14.2678  -18.5986 C   0  0  0  0  0  0  0  0  0  0  0  0
   16.6455  -12.3734  -17.7055 C   0  0  0  0  0  0  0  0  0  0  0  0
   17.4470  -11.9813  -16.4835 C   0  0  2  0  0  0  0  0  0  0  0  0
   16.5277  -11.9422  -15.3669 N   0  0  0  0  0  0  0  0  0  0  0  0
   18.1265  -10.6794  -16.6532 C   0  0  0  0  0  0  0  0  0  0  0  0
   18.9407  -10.4732  -17.5680 O   0  0  0  0  0  0  0  0  0  0  0  0
   16.3876   -7.2570  -16.9264 C   0  0  0  0  0  0  0  0  0  0  0  0
   17.3869   -7.2049  -15.7902 C   0  0  1  0  0  0  0  0  0  0  0  0
   16.7511   -7.1625  -14.5509 O   0  0  0  0  0  0  0  0  0  0  0  0
   18.4112   -8.2982  -15.8719 C   0  0  2  0  0  0  0  0  0  0  0  0
   17.8568   -9.6226  -15.7588 N   0  0  0  0  0  0  0  0  0  0  0  0
   19.4470   -8.0364  -14.8403 C   0  0  0  0  0  0  0  0  0  0  0  0
   19.5026   -8.7528  -13.8075 O   0  0  0  0  0  0  0  0  0  0  0  0
   26.3706   -9.7797  -14.3471 C   0  0  0  0  0  0  0  0  0  0  0  0
   24.7050   -9.6212  -15.0630 S   0  0  0  0  0  0  0  0  0  0  0  0
   23.8279   -8.2092  -14.3445 C   0  0  0  0  0  0  0  0  0  0  0  0
   22.4350   -8.1598  -14.9558 C   0  0  0  0  0  0  0  0  0  0  0  0
   21.6759   -6.9455  -14.3995 C   0  0  2  0  0  0  0  0  0  0  0  0
   20.3629   -6.9969  -15.0104 N   0  0  0  0  0  0  0  0  0  0  0  0
   22.4278   -5.7444  -14.7523 C   0  0  0  0  0  0  0  0  0  0  0  0
   23.3061   -5.1732  -13.8582 O   0  0  0  0  0  0  0  0  0  0  0  0
   22.2804   -5.2206  -15.8752 O   0  0  0  0  0  0  0  0  0  0  0  0
  2  1  1  6
  2  3  1  0
  4  2  1  0
  5  7  1  0
  5  4  1  0
  5  6  1  1
  7  8  2  0
 10  9  1  6
 11 10  1  0
 12 10  1  0
 13  7  1  0
 12 13  1  1
 14 15  2  0
 14 12  1  0
 16 17  1  0
 18 19  1  0
 18 17  1  0
 20 19  1  6
 20 21  1  0
 21 14  1  0
 22 20  1  0
 22 23  1  0
 24 22  2  0
M  END
$$$$
