LTM.pdb
     RDKit          3D

 24 23  0  0  1  0  0  0  0  0999 V2000
   24.8715  -20.0675   -7.9904 C   0  0  0  0  0  0  0  0  0  0  0  0
   25.9026  -21.1722   -8.1119 C   0  0  2  0  0  0  0  0  0  0  0  0
   26.7142  -21.2117   -6.8561 C   0  0  0  0  0  0  0  0  0  0  0  0
   26.7400  -20.8921   -9.3414 C   0  0  0  0  0  0  0  0  0  0  0  0
   25.8023  -20.8572  -10.5284 C   0  0  2  0  0  0  0  0  0  0  0  0
   25.2123  -22.1734  -10.6426 N   0  0  0  0  0  0  0  0  0  0  0  0
   26.4949  -20.4793  -11.7786 C   0  0  0  0  0  0  0  0  0  0  0  0
   27.5780  -20.9864  -12.1132 O   0  0  0  0  0  0  0  0  0  0  0  0
   27.3497  -21.3156  -14.6246 C   0  0  0  0  0  0  0  0  0  0  0  0
   26.4946  -20.1108  -14.9555 C   0  0  1  0  0  0  0  0  0  0  0  0
   25.1996  -20.4840  -15.3099 O   0  0  0  0  0  0  0  0  0  0  0  0
   26.5158  -19.0729  -13.8722 C   0  0  2  0  0  0  0  0  0  0  0  0
   25.9257  -19.5135  -12.6346 N   0  0  0  0  0  0  0  0  0  0  0  0
   25.8627  -17.8466  -14.3970 C   0  0  0  0  0  0  0  0  0  0  0  0
   24.6386  -17.6458  -14.1868 O   0  0  0  0  0  0  0  0  0  0  0  0
   27.9616  -10.8022  -17.3734 C   0  0  0  0  0  0  0  0  0  0  0  0
   28.3713  -12.5282  -16.9668 S   0  0  0  0  0  0  0  0  0  0  0  0
   26.8945  -13.4314  -16.4351 C   0  0  0  0  0  0  0  0  0  0  0  0
   27.3293  -14.8164  -15.9778 C   0  0  0  0  0  0  0  0  0  0  0  0
   26.0905  -15.6387  -15.5910 C   0  0  2  0  0  0  0  0  0  0  0  0
   26.6015  -16.9118  -15.1240 N   0  0  0  0  0  0  0  0  0  0  0  0
   25.2423  -15.7583  -16.7737 C   0  0  0  0  0  0  0  0  0  0  0  0
   24.1704  -14.9142  -16.9621 O   0  0  0  0  0  0  0  0  0  0  0  0
   25.4826  -16.6328  -17.6308 O   0  0  0  0  0  0  0  0  0  0  0  0
  2  1  1  1
  2  3  1  0
  4  2  1  0
  5  7  1  0
  5  4  1  0
  5  6  1  6
  7  8  2  0
 10  9  1  1
 11 10  1  0
 12 10  1  0
 13  7  1  0
 12 13  1  1
 14 15  2  0
 14 12  1  0
 16 17  1  0
 18 19  1  0
 18 17  1  0
 20 19  1  6
 20 21  1  0
 21 14  1  0
 22 20  1  0
 22 23  1  0
 24 22  2  0
M  END
$$$$
