LTM.pdb
     RDKit          3D

 24 23  0  0  1  0  0  0  0  0999 V2000
   19.7971  -16.8308  -19.2285 C   0  0  0  0  0  0  0  0  0  0  0  0
   18.7452  -15.9483  -19.8714 C   0  0  2  0  0  0  0  0  0  0  0  0
   18.3466  -16.5524  -21.1804 C   0  0  0  0  0  0  0  0  0  0  0  0
   19.3321  -14.5611  -20.0215 C   0  0  0  0  0  0  0  0  0  0  0  0
   19.6288  -14.0432  -18.6311 C   0  0  2  0  0  0  0  0  0  0  0  0
   18.4247  -14.2155  -17.8476 N   0  0  0  0  0  0  0  0  0  0  0  0
   20.0545  -12.6275  -18.6396 C   0  0  0  0  0  0  0  0  0  0  0  0
   21.0382  -12.2372  -19.2895 O   0  0  0  0  0  0  0  0  0  0  0  0
   17.5769   -9.5695  -19.1292 C   0  0  0  0  0  0  0  0  0  0  0  0
   18.4147   -9.3868  -17.8814 C   0  0  1  0  0  0  0  0  0  0  0  0
   17.6488   -9.5263  -16.7257 O   0  0  0  0  0  0  0  0  0  0  0  0
   19.6330  -10.2625  -17.8709 C   0  0  2  0  0  0  0  0  0  0  0  0
   19.3352  -11.6714  -17.8926 N   0  0  0  0  0  0  0  0  0  0  0  0
   20.4611   -9.8847  -16.6974 C   0  0  0  0  0  0  0  0  0  0  0  0
   20.5247  -10.6481  -15.6993 O   0  0  0  0  0  0  0  0  0  0  0  0
   27.1656  -10.6406  -14.6143 C   0  0  0  0  0  0  0  0  0  0  0  0
   25.7692  -10.6155  -15.7812 S   0  0  0  0  0  0  0  0  0  0  0  0
   24.5948   -9.3061  -15.3505 C   0  0  0  0  0  0  0  0  0  0  0  0
   23.3805   -9.4463  -16.2572 C   0  0  0  0  0  0  0  0  0  0  0  0
   22.3222   -8.4068  -15.8578 C   0  0  2  0  0  0  0  0  0  0  0  0
   21.1724   -8.6837  -16.6953 N   0  0  0  0  0  0  0  0  0  0  0  0
   22.8889   -7.0793  -16.0796 C   0  0  0  0  0  0  0  0  0  0  0  0
   23.4877   -6.3864  -15.0509 O   0  0  0  0  0  0  0  0  0  0  0  0
   22.8354   -6.5567  -17.2114 O   0  0  0  0  0  0  0  0  0  0  0  0
  2  1  1  6
  2  3  1  0
  4  2  1  0
  5  7  1  0
  5  4  1  0
  5  6  1  1
  7  8  2  0
 10  9  1  6
 11 10  1  0
 12 10  1  0
 13  7  1  0
 12 13  1  1
 14 15  2  0
 14 12  1  0
 16 17  1  0
 18 19  1  0
 18 17  1  0
 20 19  1  6
 20 21  1  0
 21 14  1  0
 22 20  1  0
 22 23  1  0
 24 22  2  0
M  END
$$$$
