LTM.pdb
     RDKit          3D

 24 23  0  0  1  0  0  0  0  0999 V2000
   28.5949  -17.2876  -16.7343 C   0  0  0  0  0  0  0  0  0  0  0  0
   28.1973  -18.4582  -17.6117 C   0  0  2  0  0  0  0  0  0  0  0  0
   29.2620  -18.6704  -18.6406 C   0  0  0  0  0  0  0  0  0  0  0  0
   26.8481  -18.1433  -18.2219 C   0  0  0  0  0  0  0  0  0  0  0  0
   25.8532  -18.0348  -17.0871 C   0  0  2  0  0  0  0  0  0  0  0  0
   26.1296  -19.1228  -16.1743 N   0  0  0  0  0  0  0  0  0  0  0  0
   24.4542  -18.0870  -17.5618 C   0  0  0  0  0  0  0  0  0  0  0  0
   24.1555  -17.9296  -18.7569 O   0  0  0  0  0  0  0  0  0  0  0  0
   22.6367  -19.6951  -19.1701 C   0  0  0  0  0  0  0  0  0  0  0  0
   21.8436  -19.7671  -17.8824 C   0  0  1  0  0  0  0  0  0  0  0  0
   22.0870  -20.9558  -17.1971 O   0  0  0  0  0  0  0  0  0  0  0  0
   22.0366  -18.5567  -17.0172 C   0  0  2  0  0  0  0  0  0  0  0  0
   23.4080  -18.3218  -16.6453 N   0  0  0  0  0  0  0  0  0  0  0  0
   21.1520  -18.6924  -15.8320 C   0  0  0  0  0  0  0  0  0  0  0  0
   21.6106  -18.4928  -14.6775 O   0  0  0  0  0  0  0  0  0  0  0  0
   19.1046  -14.7656  -13.1716 C   0  0  0  0  0  0  0  0  0  0  0  0
   17.4697  -15.5641  -13.1318 S   0  0  0  0  0  0  0  0  0  0  0  0
   17.6064  -17.3287  -13.5149 C   0  0  0  0  0  0  0  0  0  0  0  0
   18.6434  -17.4921  -14.6168 C   0  0  0  0  0  0  0  0  0  0  0  0
   18.8118  -18.9839  -14.9425 C   0  0  2  0  0  0  0  0  0  0  0  0
   19.8097  -19.0407  -15.9917 N   0  0  0  0  0  0  0  0  0  0  0  0
   17.5116  -19.5038  -15.3568 C   0  0  0  0  0  0  0  0  0  0  0  0
   16.6573  -20.0790  -14.4423 O   0  0  0  0  0  0  0  0  0  0  0  0
   17.1600  -19.4313  -16.5518 O   0  0  0  0  0  0  0  0  0  0  0  0
  2  1  1  1
  2  3  1  0
  4  2  1  0
  5  7  1  0
  5  4  1  0
  5  6  1  1
  7  8  2  0
 10  9  1  6
 11 10  1  0
 12 10  1  0
 13  7  1  0
 12 13  1  1
 14 15  2  0
 14 12  1  0
 16 17  1  0
 18 19  1  0
 18 17  1  0
 20 19  1  6
 20 21  1  0
 21 14  1  0
 22 20  1  0
 22 23  1  0
 24 22  2  0
M  END
$$$$
