LTM.pdb
     RDKit          3D

 24 23  0  0  1  0  0  0  0  0999 V2000
   18.8223  -16.1071  -16.5790 C   0  0  0  0  0  0  0  0  0  0  0  0
   18.9358  -15.9455  -18.0821 C   0  0  2  0  0  0  0  0  0  0  0  0
   19.7342  -17.0861  -18.6287 C   0  0  0  0  0  0  0  0  0  0  0  0
   19.5728  -14.6001  -18.3573 C   0  0  0  0  0  0  0  0  0  0  0  0
   18.6672  -13.5420  -17.7661 C   0  0  2  0  0  0  0  0  0  0  0  0
   17.4226  -13.5881  -18.5025 N   0  0  0  0  0  0  0  0  0  0  0  0
   19.2674  -12.1924  -17.8284 C   0  0  0  0  0  0  0  0  0  0  0  0
   20.4563  -11.9838  -17.5365 O   0  0  0  0  0  0  0  0  0  0  0  0
   18.5966   -7.3966  -19.1265 C   0  0  0  0  0  0  0  0  0  0  0  0
   18.1057   -8.8288  -19.1284 C   0  0  1  0  0  0  0  0  0  0  0  0
   17.9436   -9.3127  -20.4251 O   0  0  0  0  0  0  0  0  0  0  0  0
   18.9545   -9.7311  -18.2818 C   0  0  2  0  0  0  0  0  0  0  0  0
   18.4831  -11.0909  -18.2296 N   0  0  0  0  0  0  0  0  0  0  0  0
   19.0634   -9.1255  -16.9301 C   0  0  0  0  0  0  0  0  0  0  0  0
   18.0804   -9.1553  -16.1454 O   0  0  0  0  0  0  0  0  0  0  0  0
   21.8046  -10.4125  -11.0105 C   0  0  0  0  0  0  0  0  0  0  0  0
   22.7759   -9.4748  -12.2309 S   0  0  0  0  0  0  0  0  0  0  0  0
   21.7307   -8.2824  -13.1056 C   0  0  0  0  0  0  0  0  0  0  0  0
   21.4814   -8.8158  -14.5090 C   0  0  0  0  0  0  0  0  0  0  0  0
   20.4690   -7.9104  -15.2270 C   0  0  2  0  0  0  0  0  0  0  0  0
   20.2544   -8.5217  -16.5232 N   0  0  0  0  0  0  0  0  0  0  0  0
   21.0437   -6.5706  -15.3111 C   0  0  0  0  0  0  0  0  0  0  0  0
   21.0142   -5.7204  -14.2279 O   0  0  0  0  0  0  0  0  0  0  0  0
   21.5707   -6.1808  -16.3729 O   0  0  0  0  0  0  0  0  0  0  0  0
  2  1  1  1
  2  3  1  0
  4  2  1  0
  5  7  1  0
  5  4  1  0
  5  6  1  6
  7  8  2  0
 10  9  1  6
 11 10  1  0
 12 10  1  0
 13  7  1  0
 12 13  1  1
 14 15  2  0
 14 12  1  0
 16 17  1  0
 18 19  1  0
 18 17  1  0
 20 19  1  1
 20 21  1  0
 21 14  1  0
 22 20  1  0
 22 23  1  0
 24 22  2  0
M  END
$$$$
