LTM.pdb
     RDKit          3D

 24 23  0  0  1  0  0  0  0  0999 V2000
   21.1329  -14.0648  -17.9607 C   0  0  0  0  0  0  0  0  0  0  0  0
   19.6933  -13.7670  -17.5901 C   0  0  2  0  0  0  0  0  0  0  0  0
   18.7932  -14.5043  -18.5301 C   0  0  0  0  0  0  0  0  0  0  0  0
   19.4996  -12.2669  -17.6499 C   0  0  0  0  0  0  0  0  0  0  0  0
   20.4061  -11.6523  -16.6059 C   0  0  2  0  0  0  0  0  0  0  0  0
   20.1327  -12.3270  -15.3555 N   0  0  0  0  0  0  0  0  0  0  0  0
   20.2013  -10.1942  -16.4744 C   0  0  0  0  0  0  0  0  0  0  0  0
   20.4977   -9.4007  -17.3826 O   0  0  0  0  0  0  0  0  0  0  0  0
   18.1540   -6.4699  -13.8694 C   0  0  0  0  0  0  0  0  0  0  0  0
   18.3575   -7.9560  -14.0751 C   0  0  1  0  0  0  0  0  0  0  0  0
   17.1689   -8.5913  -14.4290 O   0  0  0  0  0  0  0  0  0  0  0  0
   19.4754   -8.2588  -15.0290 C   0  0  2  0  0  0  0  0  0  0  0  0
   19.6528   -9.6644  -15.2878 N   0  0  0  0  0  0  0  0  0  0  0  0
   20.7126   -7.6272  -14.5036 C   0  0  0  0  0  0  0  0  0  0  0  0
   21.6427   -8.3439  -14.0517 O   0  0  0  0  0  0  0  0  0  0  0  0
   26.5386   -4.8369  -17.6631 C   0  0  0  0  0  0  0  0  0  0  0  0
   24.8725   -5.5559  -17.5250 S   0  0  0  0  0  0  0  0  0  0  0  0
   24.1410   -5.1786  -15.9120 C   0  0  0  0  0  0  0  0  0  0  0  0
   22.7881   -5.8714  -15.8352 C   0  0  0  0  0  0  0  0  0  0  0  0
   22.1172   -5.5345  -14.4949 C   0  0  2  0  0  0  0  0  0  0  0  0
   20.8505   -6.2382  -14.5085 N   0  0  0  0  0  0  0  0  0  0  0  0
   21.9683   -4.0837  -14.4181 C   0  0  0  0  0  0  0  0  0  0  0  0
   22.8398   -3.3232  -13.6704 O   0  0  0  0  0  0  0  0  0  0  0  0
   21.0434   -3.5157  -15.0336 O   0  0  0  0  0  0  0  0  0  0  0  0
  2  1  1  6
  2  3  1  0
  4  2  1  0
  5  7  1  0
  5  4  1  0
  5  6  1  1
  7  8  2  0
 10  9  1  6
 11 10  1  0
 12 10  1  0
 13  7  1  0
 12 13  1  1
 14 15  2  0
 14 12  1  0
 16 17  1  0
 18 19  1  0
 18 17  1  0
 20 19  1  6
 20 21  1  0
 21 14  1  0
 22 20  1  0
 22 23  1  0
 24 22  2  0
M  END
$$$$
