LTM.pdb
     RDKit          3D

 24 23  0  0  1  0  0  0  0  0999 V2000
   20.3690  -14.3457  -15.7647 C   0  0  0  0  0  0  0  0  0  0  0  0
   19.3910  -14.2997  -16.9222 C   0  0  2  0  0  0  0  0  0  0  0  0
   19.8087  -15.3090  -17.9440 C   0  0  0  0  0  0  0  0  0  0  0  0
   19.3811  -12.8867  -17.4652 C   0  0  0  0  0  0  0  0  0  0  0  0
   18.8636  -11.9840  -16.3667 C   0  0  2  0  0  0  0  0  0  0  0  0
   17.5324  -12.4419  -16.0324 N   0  0  0  0  0  0  0  0  0  0  0  0
   18.8464  -10.5623  -16.7713 C   0  0  0  0  0  0  0  0  0  0  0  0
   18.2338  -10.1690  -17.7775 O   0  0  0  0  0  0  0  0  0  0  0  0
   17.0431   -8.0180  -16.7403 C   0  0  0  0  0  0  0  0  0  0  0  0
   18.1874   -7.5507  -15.8661 C   0  0  1  0  0  0  0  0  0  0  0  0
   17.8916   -7.7001  -14.5126 O   0  0  0  0  0  0  0  0  0  0  0  0
   19.4954   -8.1835  -16.2402 C   0  0  2  0  0  0  0  0  0  0  0  0
   19.5414   -9.6036  -16.0048 N   0  0  0  0  0  0  0  0  0  0  0  0
   20.5773   -7.4631  -15.5219 C   0  0  0  0  0  0  0  0  0  0  0  0
   20.9845   -7.8856  -14.4090 O   0  0  0  0  0  0  0  0  0  0  0  0
   25.5709   -1.3935  -16.7278 C   0  0  0  0  0  0  0  0  0  0  0  0
   24.0505   -2.2973  -17.1562 S   0  0  0  0  0  0  0  0  0  0  0  0
   23.7559   -3.6498  -15.9886 C   0  0  0  0  0  0  0  0  0  0  0  0
   22.5752   -4.4633  -16.4991 C   0  0  0  0  0  0  0  0  0  0  0  0
   22.2493   -5.5773  -15.4927 C   0  0  2  0  0  0  0  0  0  0  0  0
   21.1478   -6.3160  -16.0764 N   0  0  0  0  0  0  0  0  0  0  0  0
   21.9094   -4.9483  -14.2193 C   0  0  0  0  0  0  0  0  0  0  0  0
   22.8218   -4.9025  -13.1886 O   0  0  0  0  0  0  0  0  0  0  0  0
   20.7808   -4.4428  -14.0522 O   0  0  0  0  0  0  0  0  0  0  0  0
  2  1  1  1
  2  3  1  0
  4  2  1  0
  5  7  1  0
  5  4  1  0
  5  6  1  6
  7  8  2  0
 10  9  1  6
 11 10  1  0
 12 10  1  0
 13  7  1  0
 12 13  1  1
 14 15  2  0
 14 12  1  0
 16 17  1  0
 18 19  1  0
 18 17  1  0
 20 19  1  6
 20 21  1  0
 21 14  1  0
 22 20  1  0
 22 23  1  0
 24 22  2  0
M  END
$$$$
