TKA.pdb
     RDKit          3D

 22 21  0  0  1  0  0  0  0  0999 V2000
    9.8700  -12.7352   20.0957 C   0  0  0  0  0  0  0  0  0  0  0  0
    8.9574  -13.0441   18.9411 C   0  0  1  0  0  0  0  0  0  0  0  0
    9.5685  -12.7589   17.7425 O   0  0  0  0  0  0  0  0  0  0  0  0
    8.4782  -14.4790   18.9583 C   0  0  2  0  0  0  0  0  0  0  0  0
    7.6094  -14.7320   17.8327 N   0  0  0  0  0  0  0  0  0  0  0  0
    7.7876  -14.7443   20.2492 C   0  0  0  0  0  0  0  0  0  0  0  0
    6.7141  -14.1583   20.5351 O   0  0  0  0  0  0  0  0  0  0  0  0
    8.2967  -15.6587   21.2106 N   0  0  0  0  0  0  0  0  0  0  0  0
    7.6134  -15.9930   22.4138 C   0  0  1  0  0  0  0  0  0  0  0  0
    7.7201  -17.4937   22.6693 C   0  0  0  0  0  0  0  0  0  0  0  0
    6.9957  -17.9011   23.9089 C   0  0  0  0  0  0  0  0  0  0  0  0
    7.1482  -19.3830   24.1110 C   0  0  0  0  0  0  0  0  0  0  0  0
    6.4157  -19.9237   25.3045 C   0  0  0  0  0  0  0  0  0  0  0  0
    6.5314  -21.3890   25.2260 N   0  0  0  0  0  0  0  0  0  0  0  0
    8.0867  -15.2803   23.6012 C   0  0  0  0  0  0  0  0  0  0  0  0
    9.3148  -15.2316   23.8417 O   0  0  0  0  0  0  0  0  0  0  0  0
    6.8284  -12.9921   26.3076 C   0  0  0  0  0  0  0  0  0  0  0  0
    7.7631  -13.9864   25.6664 C   0  0  2  0  0  0  0  0  0  0  0  0
    7.2275  -14.6276   24.5164 N   0  0  0  0  0  0  0  0  0  0  0  0
    8.0908  -15.0051   26.6935 C   0  0  0  0  0  0  0  0  0  0  0  0
    8.7977  -14.6837   27.8515 O   0  0  0  0  0  0  0  0  0  0  0  0
    7.7271  -16.1931   26.5270 O   0  0  0  0  0  0  0  0  0  0  0  0
  2  1  1  1
  2  3  1  0
  4  2  1  0
  4  5  1  6
  6  4  1  0
  7  6  2  0
  8  6  1  0
  9  8  1  0
 10 11  1  0
  9 10  1  1
 12 13  1  0
 12 11  1  0
 13 14  1  0
 15  9  1  0
 15 19  1  0
 16 15  2  0
 18 19  1  0
 18 17  1  1
 18 20  1  0
 20 21  1  0
 22 20  2  0
M  END
$$$$
