TKA.pdb
     RDKit          3D

 22 21  0  0  1  0  0  0  0  0999 V2000
   10.1176  -13.6676   16.7069 C   0  0  0  0  0  0  0  0  0  0  0  0
    9.7544  -14.1897   18.0696 C   0  0  1  0  0  0  0  0  0  0  0  0
   10.5353  -13.6095   19.0417 O   0  0  0  0  0  0  0  0  0  0  0  0
    8.2882  -13.9923   18.3861 C   0  0  2  0  0  0  0  0  0  0  0  0
    7.9403  -12.5931   18.3029 N   0  0  0  0  0  0  0  0  0  0  0  0
    8.0054  -14.5439   19.7387 C   0  0  0  0  0  0  0  0  0  0  0  0
    7.7341  -13.7812   20.6990 O   0  0  0  0  0  0  0  0  0  0  0  0
    8.0268  -15.9385   20.0115 N   0  0  0  0  0  0  0  0  0  0  0  0
    7.6824  -16.4957   21.2752 C   0  0  1  0  0  0  0  0  0  0  0  0
    7.4101  -17.9897   21.1247 C   0  0  0  0  0  0  0  0  0  0  0  0
    6.1905  -18.2546   20.3063 C   0  0  0  0  0  0  0  0  0  0  0  0
    6.0100  -19.7385   20.1468 C   0  0  0  0  0  0  0  0  0  0  0  0
    4.8239  -20.1320   19.3151 C   0  0  0  0  0  0  0  0  0  0  0  0
    4.8244  -21.6034   19.2723 N   0  0  0  0  0  0  0  0  0  0  0  0
    8.6898  -16.3056   22.3198 C   0  0  0  0  0  0  0  0  0  0  0  0
    9.9047  -16.3666   22.0222 O   0  0  0  0  0  0  0  0  0  0  0  0
    8.9750  -15.0435   25.8348 C   0  0  0  0  0  0  0  0  0  0  0  0
    9.4103  -15.8238   24.6203 C   0  0  2  0  0  0  0  0  0  0  0  0
    8.3733  -16.0516   23.6751 N   0  0  0  0  0  0  0  0  0  0  0  0
    9.9365  -17.1247   25.1008 C   0  0  0  0  0  0  0  0  0  0  0  0
   11.1039  -17.2136   25.8578 O   0  0  0  0  0  0  0  0  0  0  0  0
    9.3227  -18.1822   24.8247 O   0  0  0  0  0  0  0  0  0  0  0  0
  2  1  1  6
  2  3  1  0
  4  2  1  0
  4  5  1  1
  6  4  1  0
  7  6  2  0
  8  6  1  0
  9  8  1  0
 10 11  1  0
  9 10  1  6
 12 13  1  0
 12 11  1  0
 13 14  1  0
 15  9  1  0
 15 19  1  0
 16 15  2  0
 18 19  1  0
 18 17  1  1
 18 20  1  0
 20 21  1  0
 22 20  2  0
M  END
$$$$
