TKA.pdb
     RDKit          3D

 22 21  0  0  1  0  0  0  0  0999 V2000
   10.1741  -14.2892   20.0458 C   0  0  0  0  0  0  0  0  0  0  0  0
    9.2350  -13.3655   19.3204 C   0  0  1  0  0  0  0  0  0  0  0  0
    9.8170  -12.8740   18.1754 O   0  0  0  0  0  0  0  0  0  0  0  0
    7.9154  -14.0304   18.9954 C   0  0  2  0  0  0  0  0  0  0  0  0
    7.0260  -13.0929   18.3506 N   0  0  0  0  0  0  0  0  0  0  0  0
    7.3222  -14.5693   20.2490 C   0  0  0  0  0  0  0  0  0  0  0  0
    6.8377  -13.7975   21.1133 O   0  0  0  0  0  0  0  0  0  0  0  0
    7.2730  -15.9615   20.5304 N   0  0  0  0  0  0  0  0  0  0  0  0
    6.8888  -16.4932   21.7936 C   0  0  1  0  0  0  0  0  0  0  0  0
    6.7063  -18.0044   21.6847 C   0  0  0  0  0  0  0  0  0  0  0  0
    6.3722  -18.6220   23.0016 C   0  0  0  0  0  0  0  0  0  0  0  0
    6.0758  -20.0828   22.8061 C   0  0  0  0  0  0  0  0  0  0  0  0
    5.6136  -20.7921   24.0457 C   0  0  0  0  0  0  0  0  0  0  0  0
    5.3186  -22.1758   23.6393 N   0  0  0  0  0  0  0  0  0  0  0  0
    7.8242  -16.2112   22.8833 C   0  0  0  0  0  0  0  0  0  0  0  0
    9.0555  -16.3182   22.6813 O   0  0  0  0  0  0  0  0  0  0  0  0
    7.9524  -14.0796   25.8358 C   0  0  0  0  0  0  0  0  0  0  0  0
    8.3771  -15.3320   25.1116 C   0  0  2  0  0  0  0  0  0  0  0  0
    7.4188  -15.8163   24.1800 N   0  0  0  0  0  0  0  0  0  0  0  0
    8.6336  -16.3681   26.1415 C   0  0  0  0  0  0  0  0  0  0  0  0
    7.9838  -17.6016   26.1243 O   0  0  0  0  0  0  0  0  0  0  0  0
    9.4564  -16.1401   27.0593 O   0  0  0  0  0  0  0  0  0  0  0  0
  2  1  1  6
  2  3  1  0
  4  2  1  0
  4  5  1  1
  6  4  1  0
  7  6  2  0
  8  6  1  0
  9  8  1  0
 10 11  1  0
  9 10  1  6
 12 13  1  0
 12 11  1  0
 13 14  1  0
 15  9  1  0
 15 19  1  0
 16 15  2  0
 18 19  1  0
 18 17  1  1
 18 20  1  0
 20 21  1  0
 22 20  2  0
M  END
$$$$
