TKA.pdb
     RDKit          3D

 22 21  0  0  1  0  0  0  0  0999 V2000
   10.8170  -14.3817   19.7401 C   0  0  0  0  0  0  0  0  0  0  0  0
    9.8823  -13.3909   19.1029 C   0  0  1  0  0  0  0  0  0  0  0  0
   10.4107  -12.9007   17.9316 O   0  0  0  0  0  0  0  0  0  0  0  0
    8.5094  -13.9764   18.8555 C   0  0  2  0  0  0  0  0  0  0  0  0
    7.6528  -12.9993   18.2253 N   0  0  0  0  0  0  0  0  0  0  0  0
    7.9415  -14.4445   20.1486 C   0  0  0  0  0  0  0  0  0  0  0  0
    7.4307  -13.6306   20.9575 O   0  0  0  0  0  0  0  0  0  0  0  0
    7.9467  -15.8132   20.5310 N   0  0  0  0  0  0  0  0  0  0  0  0
    7.3291  -16.2982   21.7182 C   0  0  1  0  0  0  0  0  0  0  0  0
    7.1689  -17.8136   21.6360 C   0  0  0  0  0  0  0  0  0  0  0  0
    6.4684  -18.3661   22.8323 C   0  0  0  0  0  0  0  0  0  0  0  0
    6.3794  -19.8618   22.7112 C   0  0  0  0  0  0  0  0  0  0  0  0
    5.5376  -20.5194   23.7659 C   0  0  0  0  0  0  0  0  0  0  0  0
    5.6154  -21.9665   23.5079 N   0  0  0  0  0  0  0  0  0  0  0  0
    8.0411  -15.9683   22.9537 C   0  0  0  0  0  0  0  0  0  0  0  0
    9.2722  -16.1844   23.0316 O   0  0  0  0  0  0  0  0  0  0  0  0
    7.5346  -13.9159   26.0417 C   0  0  0  0  0  0  0  0  0  0  0  0
    8.1969  -14.9747   25.1970 C   0  0  2  0  0  0  0  0  0  0  0  0
    7.4147  -15.4082   24.0919 N   0  0  0  0  0  0  0  0  0  0  0  0
    8.4818  -16.1285   26.0845 C   0  0  0  0  0  0  0  0  0  0  0  0
    9.3640  -16.0313   27.1598 O   0  0  0  0  0  0  0  0  0  0  0  0
    7.9193  -17.2283   25.8720 O   0  0  0  0  0  0  0  0  0  0  0  0
  2  1  1  6
  2  3  1  0
  4  2  1  0
  4  5  1  1
  6  4  1  0
  7  6  2  0
  8  6  1  0
  9  8  1  0
 10 11  1  0
  9 10  1  6
 12 13  1  0
 12 11  1  0
 13 14  1  0
 15  9  1  0
 15 19  1  0
 16 15  2  0
 18 19  1  0
 18 17  1  1
 18 20  1  0
 20 21  1  0
 22 20  2  0
M  END
$$$$
