TKA.pdb
     RDKit          3D

 22 21  0  0  1  0  0  0  0  0999 V2000
   -1.7286  -23.5691   27.7372 C   0  0  0  0  0  0  0  0  0  0  0  0
   -1.7763  -24.5140   26.5683 C   0  0  1  0  0  0  0  0  0  0  0  0
   -0.5295  -24.6645   26.0077 O   0  0  0  0  0  0  0  0  0  0  0  0
   -2.3492  -25.8625   26.9453 C   0  0  2  0  0  0  0  0  0  0  0  0
   -2.3757  -26.7362   25.7957 N   0  0  0  0  0  0  0  0  0  0  0  0
   -3.7107  -25.6693   27.5135 C   0  0  0  0  0  0  0  0  0  0  0  0
   -4.6685  -25.3193   26.7802 O   0  0  0  0  0  0  0  0  0  0  0  0
   -3.9952  -25.8670   28.8918 N   0  0  0  0  0  0  0  0  0  0  0  0
   -5.2693  -25.6139   29.4737 C   0  0  1  0  0  0  0  0  0  0  0  0
   -5.5049  -26.5707   30.6390 C   0  0  0  0  0  0  0  0  0  0  0  0
   -6.8559  -26.3881   31.2461 C   0  0  0  0  0  0  0  0  0  0  0  0
   -7.0322  -27.3670   32.3733 C   0  0  0  0  0  0  0  0  0  0  0  0
   -8.3839  -27.3241   33.0248 C   0  0  0  0  0  0  0  0  0  0  0  0
   -8.4455  -28.4937   33.9165 N   0  0  0  0  0  0  0  0  0  0  0  0
   -5.4613  -24.2424   29.9470 C   0  0  0  0  0  0  0  0  0  0  0  0
   -4.7366  -23.8016   30.8683 O   0  0  0  0  0  0  0  0  0  0  0  0
   -6.2709  -20.9922   28.7855 C   0  0  0  0  0  0  0  0  0  0  0  0
   -6.4987  -22.0149   29.8697 C   0  0  2  0  0  0  0  0  0  0  0  0
   -6.4347  -23.3616   29.4193 N   0  0  0  0  0  0  0  0  0  0  0  0
   -7.8387  -21.7495   30.4478 C   0  0  0  0  0  0  0  0  0  0  0  0
   -8.1223  -20.5747   31.1429 O   0  0  0  0  0  0  0  0  0  0  0  0
   -8.7511  -22.5986   30.3141 O   0  0  0  0  0  0  0  0  0  0  0  0
  2  1  1  1
  2  3  1  0
  4  2  1  0
  4  5  1  6
  6  4  1  0
  7  6  2  0
  8  6  1  0
  9  8  1  0
 10 11  1  0
  9 10  1  1
 12 13  1  0
 12 11  1  0
 13 14  1  0
 15  9  1  0
 15 19  1  0
 16 15  2  0
 18 19  1  0
 18 17  1  6
 18 20  1  0
 20 21  1  0
 22 20  2  0
M  END
$$$$
