TKA.pdb
     RDKit          3D

 22 21  0  0  1  0  0  0  0  0999 V2000
    7.9924  -12.9172   17.9987 C   0  0  0  0  0  0  0  0  0  0  0  0
    7.4499  -13.4915   19.2782 C   0  0  1  0  0  0  0  0  0  0  0  0
    6.7474  -14.6491   19.0376 O   0  0  0  0  0  0  0  0  0  0  0  0
    8.5372  -13.7396   20.3006 C   0  0  2  0  0  0  0  0  0  0  0  0
    9.3854  -14.8291   19.8774 N   0  0  0  0  0  0  0  0  0  0  0  0
    7.9080  -14.0202   21.6193 C   0  0  0  0  0  0  0  0  0  0  0  0
    7.1844  -13.1610   22.1811 O   0  0  0  0  0  0  0  0  0  0  0  0
    8.0890  -15.2536   22.3018 N   0  0  0  0  0  0  0  0  0  0  0  0
    7.5029  -15.5438   23.5660 C   0  0  1  0  0  0  0  0  0  0  0  0
    7.7282  -17.0120   23.9158 C   0  0  0  0  0  0  0  0  0  0  0  0
    9.1696  -17.3123   24.1600 C   0  0  0  0  0  0  0  0  0  0  0  0
    9.3173  -18.7532   24.5624 C   0  0  0  0  0  0  0  0  0  0  0  0
   10.7227  -19.1619   24.8957 C   0  0  0  0  0  0  0  0  0  0  0  0
   10.6621  -20.5919   25.2397 N   0  0  0  0  0  0  0  0  0  0  0  0
    7.9951  -14.7180   24.6696 C   0  0  0  0  0  0  0  0  0  0  0  0
    9.2196  -14.4692   24.7542 O   0  0  0  0  0  0  0  0  0  0  0  0
    6.6955  -12.3111   27.2108 C   0  0  0  0  0  0  0  0  0  0  0  0
    7.6962  -13.2875   26.6465 C   0  0  2  0  0  0  0  0  0  0  0  0
    7.1585  -14.1698   25.6702 N   0  0  0  0  0  0  0  0  0  0  0  0
    8.2299  -14.0749   27.7847 C   0  0  0  0  0  0  0  0  0  0  0  0
    8.1361  -15.4653   27.8276 O   0  0  0  0  0  0  0  0  0  0  0  0
    8.7835  -13.4845   28.7419 O   0  0  0  0  0  0  0  0  0  0  0  0
  2  1  1  6
  2  3  1  0
  4  2  1  0
  4  5  1  6
  6  4  1  0
  7  6  2  0
  8  6  1  0
  9  8  1  0
 10 11  1  0
  9 10  1  1
 12 13  1  0
 12 11  1  0
 13 14  1  0
 15  9  1  0
 15 19  1  0
 16 15  2  0
 18 19  1  0
 18 17  1  1
 18 20  1  0
 20 21  1  0
 22 20  2  0
M  END
$$$$
