TKA.pdb
     RDKit          3D

 22 21  0  0  1  0  0  0  0  0999 V2000
    9.8794  -14.0004   17.0512 C   0  0  0  0  0  0  0  0  0  0  0  0
    9.3499  -14.3833   18.4057 C   0  0  1  0  0  0  0  0  0  0  0  0
   10.2128  -13.9864   19.4002 O   0  0  0  0  0  0  0  0  0  0  0  0
    7.9659  -13.8264   18.6575 C   0  0  2  0  0  0  0  0  0  0  0  0
    7.9936  -12.3826   18.6344 N   0  0  0  0  0  0  0  0  0  0  0  0
    7.4662  -14.3403   19.9614 C   0  0  0  0  0  0  0  0  0  0  0  0
    7.4735  -13.6111   20.9840 O   0  0  0  0  0  0  0  0  0  0  0  0
    6.9628  -15.6602   20.1166 N   0  0  0  0  0  0  0  0  0  0  0  0
    6.5027  -16.1832   21.3579 C   0  0  1  0  0  0  0  0  0  0  0  0
    5.9210  -17.5782   21.1475 C   0  0  0  0  0  0  0  0  0  0  0  0
    5.4755  -18.1960   22.4309 C   0  0  0  0  0  0  0  0  0  0  0  0
    5.0225  -19.6063   22.1744 C   0  0  0  0  0  0  0  0  0  0  0  0
    4.4146  -20.2877   23.3659 C   0  0  0  0  0  0  0  0  0  0  0  0
    4.1662  -21.6801   22.9581 N   0  0  0  0  0  0  0  0  0  0  0  0
    7.5229  -16.2535   22.4049 C   0  0  0  0  0  0  0  0  0  0  0  0
    8.6594  -16.7013   22.1286 O   0  0  0  0  0  0  0  0  0  0  0  0
    8.2214  -14.7848   25.7620 C   0  0  0  0  0  0  0  0  0  0  0  0
    8.3839  -15.8046   24.6635 C   0  0  2  0  0  0  0  0  0  0  0  0
    7.3039  -15.8391   23.7398 N   0  0  0  0  0  0  0  0  0  0  0  0
    8.5217  -17.1307   25.3135 C   0  0  0  0  0  0  0  0  0  0  0  0
    9.5712  -17.4192   26.1849 O   0  0  0  0  0  0  0  0  0  0  0  0
    7.6763  -18.0264   25.0807 O   0  0  0  0  0  0  0  0  0  0  0  0
  2  1  1  6
  2  3  1  0
  4  2  1  0
  4  5  1  1
  6  4  1  0
  7  6  2  0
  8  6  1  0
  9  8  1  0
 10 11  1  0
  9 10  1  6
 12 13  1  0
 12 11  1  0
 13 14  1  0
 15  9  1  0
 15 19  1  0
 16 15  2  0
 18 19  1  0
 18 17  1  1
 18 20  1  0
 20 21  1  0
 22 20  2  0
M  END
$$$$
