TKA.pdb
     RDKit          3D

 22 21  0  0  1  0  0  0  0  0999 V2000
    8.7857  -12.5002   19.4107 C   0  0  0  0  0  0  0  0  0  0  0  0
    8.1690  -13.1689   18.2132 C   0  0  1  0  0  0  0  0  0  0  0  0
    8.4335  -12.4599   17.0648 O   0  0  0  0  0  0  0  0  0  0  0  0
    8.6238  -14.6038   18.0614 C   0  0  2  0  0  0  0  0  0  0  0  0
    8.0543  -15.1878   16.8696 N   0  0  0  0  0  0  0  0  0  0  0  0
    8.2375  -15.3664   19.2792 C   0  0  0  0  0  0  0  0  0  0  0  0
    7.0305  -15.6069   19.5299 O   0  0  0  0  0  0  0  0  0  0  0  0
    9.1966  -15.8549   20.2072 N   0  0  0  0  0  0  0  0  0  0  0  0
    8.8500  -16.5420   21.4047 C   0  0  1  0  0  0  0  0  0  0  0  0
    9.4837  -17.9303   21.4063 C   0  0  0  0  0  0  0  0  0  0  0  0
    8.8855  -18.8176   20.3660 C   0  0  0  0  0  0  0  0  0  0  0  0
    9.6475  -20.1125   20.3174 C   0  0  0  0  0  0  0  0  0  0  0  0
    9.0614  -21.1413   19.3946 C   0  0  0  0  0  0  0  0  0  0  0  0
    9.9792  -22.2917   19.4290 N   0  0  0  0  0  0  0  0  0  0  0  0
    9.2328  -15.8504   22.6364 C   0  0  0  0  0  0  0  0  0  0  0  0
   10.3933  -15.3940   22.7514 O   0  0  0  0  0  0  0  0  0  0  0  0
    7.6796  -14.1439   25.5440 C   0  0  0  0  0  0  0  0  0  0  0  0
    8.7827  -14.9158   24.8653 C   0  0  2  0  0  0  0  0  0  0  0  0
    8.3570  -15.6595   23.7310 N   0  0  0  0  0  0  0  0  0  0  0  0
    9.3572  -15.8383   25.8747 C   0  0  0  0  0  0  0  0  0  0  0  0
    9.8986  -15.3752   27.0732 O   0  0  0  0  0  0  0  0  0  0  0  0
    9.3620  -17.0725   25.6555 O   0  0  0  0  0  0  0  0  0  0  0  0
  2  1  1  1
  2  3  1  0
  4  2  1  0
  4  5  1  6
  6  4  1  0
  7  6  2  0
  8  6  1  0
  9  8  1  0
 10 11  1  0
  9 10  1  6
 12 13  1  0
 12 11  1  0
 13 14  1  0
 15  9  1  0
 15 19  1  0
 16 15  2  0
 18 19  1  0
 18 17  1  1
 18 20  1  0
 20 21  1  0
 22 20  2  0
M  END
$$$$
