TKA.pdb
     RDKit          3D

 22 21  0  0  1  0  0  0  0  0999 V2000
    8.5538  -12.6258   20.5817 C   0  0  0  0  0  0  0  0  0  0  0  0
    7.8731  -13.5256   19.5874 C   0  0  1  0  0  0  0  0  0  0  0  0
    8.3416  -13.2945   18.3152 O   0  0  0  0  0  0  0  0  0  0  0  0
    8.0211  -14.9884   19.9443 C   0  0  2  0  0  0  0  0  0  0  0  0
    7.4094  -15.8167   18.9317 N   0  0  0  0  0  0  0  0  0  0  0  0
    7.4132  -15.2253   21.2815 C   0  0  0  0  0  0  0  0  0  0  0  0
    6.1876  -15.0284   21.4734 O   0  0  0  0  0  0  0  0  0  0  0  0
    8.1732  -15.6790   22.3933 N   0  0  0  0  0  0  0  0  0  0  0  0
    7.6290  -15.8523   23.6971 C   0  0  1  0  0  0  0  0  0  0  0  0
    7.8255  -17.2957   24.1519 C   0  0  0  0  0  0  0  0  0  0  0  0
    6.6989  -18.1745   23.7208 C   0  0  0  0  0  0  0  0  0  0  0  0
    6.9846  -19.5908   24.1360 C   0  0  0  0  0  0  0  0  0  0  0  0
    5.9163  -20.5747   23.7563 C   0  0  0  0  0  0  0  0  0  0  0  0
    6.3860  -21.8891   24.2238 N   0  0  0  0  0  0  0  0  0  0  0  0
    8.1876  -14.9602   24.7139 C   0  0  0  0  0  0  0  0  0  0  0  0
    9.4305  -14.8646   24.8339 O   0  0  0  0  0  0  0  0  0  0  0  0
    7.1043  -12.2939   27.1390 C   0  0  0  0  0  0  0  0  0  0  0  0
    8.0162  -13.3460   26.5603 C   0  0  2  0  0  0  0  0  0  0  0  0
    7.3967  -14.1806   25.5905 N   0  0  0  0  0  0  0  0  0  0  0  0
    8.5006  -14.1757   27.6904 C   0  0  0  0  0  0  0  0  0  0  0  0
    8.2991  -15.5547   27.7320 O   0  0  0  0  0  0  0  0  0  0  0  0
    9.1102  -13.6330   28.6417 O   0  0  0  0  0  0  0  0  0  0  0  0
  2  1  1  1
  2  3  1  0
  4  2  1  0
  4  5  1  6
  6  4  1  0
  7  6  2  0
  8  6  1  0
  9  8  1  0
 10 11  1  0
  9 10  1  1
 12 13  1  0
 12 11  1  0
 13 14  1  0
 15  9  1  0
 15 19  1  0
 16 15  2  0
 18 19  1  0
 18 17  1  1
 18 20  1  0
 20 21  1  0
 22 20  2  0
M  END
$$$$
