TKA.pdb
     RDKit          3D

 22 21  0  0  1  0  0  0  0  0999 V2000
    6.8971  -21.1089   21.3786 C   0  0  0  0  0  0  0  0  0  0  0  0
    7.5349  -21.2116   20.0206 C   0  0  1  0  0  0  0  0  0  0  0  0
    6.7872  -22.0092   19.1862 O   0  0  0  0  0  0  0  0  0  0  0  0
    7.7590  -19.8551   19.3893 C   0  0  2  0  0  0  0  0  0  0  0  0
    8.2858  -20.0038   18.0529 N   0  0  0  0  0  0  0  0  0  0  0  0
    8.6782  -19.0646   20.2518 C   0  0  0  0  0  0  0  0  0  0  0  0
    9.8896  -19.3796   20.3567 O   0  0  0  0  0  0  0  0  0  0  0  0
    8.2425  -17.9310   20.9900 N   0  0  0  0  0  0  0  0  0  0  0  0
    9.0940  -17.1791   21.8477 C   0  0  1  0  0  0  0  0  0  0  0  0
    8.5661  -15.7535   21.9802 C   0  0  0  0  0  0  0  0  0  0  0  0
    8.7127  -14.9842   20.7098 C   0  0  0  0  0  0  0  0  0  0  0  0
    8.1395  -13.6065   20.8924 C   0  0  0  0  0  0  0  0  0  0  0  0
    8.2348  -12.7302   19.6773 C   0  0  0  0  0  0  0  0  0  0  0  0
    7.5801  -11.4615   20.0356 N   0  0  0  0  0  0  0  0  0  0  0  0
    9.2611  -17.7437   23.1876 C   0  0  0  0  0  0  0  0  0  0  0  0
    8.2560  -17.9090   23.9161 O   0  0  0  0  0  0  0  0  0  0  0  0
   11.3805  -20.0398   24.9982 C   0  0  0  0  0  0  0  0  0  0  0  0
   10.5813  -18.7613   24.9947 C   0  0  2  0  0  0  0  0  0  0  0  0
   10.5131  -18.1236   23.7261 N   0  0  0  0  0  0  0  0  0  0  0  0
   11.2145  -17.8461   25.9752 C   0  0  0  0  0  0  0  0  0  0  0  0
   11.5766  -16.5422   25.6397 O   0  0  0  0  0  0  0  0  0  0  0  0
   11.4357  -18.2449   27.1429 O   0  0  0  0  0  0  0  0  0  0  0  0
  2  1  1  1
  2  3  1  0
  4  2  1  0
  4  5  1  6
  6  4  1  0
  7  6  2  0
  8  6  1  0
  9  8  1  0
 10 11  1  0
  9 10  1  1
 12 13  1  0
 12 11  1  0
 13 14  1  0
 15  9  1  0
 15 19  1  0
 16 15  2  0
 18 19  1  0
 18 17  1  6
 18 20  1  0
 20 21  1  0
 22 20  2  0
M  END
$$$$
