TKA.pdb
     RDKit          3D

 22 21  0  0  1  0  0  0  0  0999 V2000
   10.8517  -13.9423   20.5932 C   0  0  0  0  0  0  0  0  0  0  0  0
    9.9311  -13.1327   19.7222 C   0  0  1  0  0  0  0  0  0  0  0  0
   10.5543  -12.7735   18.5500 O   0  0  0  0  0  0  0  0  0  0  0  0
    8.6364  -13.8580   19.4282 C   0  0  2  0  0  0  0  0  0  0  0  0
    7.7833  -13.0446   18.5937 N   0  0  0  0  0  0  0  0  0  0  0  0
    7.9711  -14.2031   20.7136 C   0  0  0  0  0  0  0  0  0  0  0  0
    7.3304  -13.3359   21.3578 O   0  0  0  0  0  0  0  0  0  0  0  0
    8.0241  -15.5092   21.2712 N   0  0  0  0  0  0  0  0  0  0  0  0
    7.4328  -15.8537   22.5193 C   0  0  1  0  0  0  0  0  0  0  0  0
    7.3554  -17.3719   22.6534 C   0  0  0  0  0  0  0  0  0  0  0  0
    6.7404  -17.7867   23.9484 C   0  0  0  0  0  0  0  0  0  0  0  0
    6.7420  -19.2870   24.0429 C   0  0  0  0  0  0  0  0  0  0  0  0
    5.9392  -19.8361   25.1863 C   0  0  0  0  0  0  0  0  0  0  0  0
    6.0078  -21.3017   25.0676 N   0  0  0  0  0  0  0  0  0  0  0  0
    8.1247  -15.3142   23.6907 C   0  0  0  0  0  0  0  0  0  0  0  0
    9.3553  -15.5057   23.8216 O   0  0  0  0  0  0  0  0  0  0  0  0
    7.5355  -12.7933   26.4029 C   0  0  0  0  0  0  0  0  0  0  0  0
    8.2437  -13.9387   25.7249 C   0  0  2  0  0  0  0  0  0  0  0  0
    7.4789  -14.5732   24.7083 N   0  0  0  0  0  0  0  0  0  0  0  0
    8.5850  -14.9271   26.7769 C   0  0  0  0  0  0  0  0  0  0  0  0
    8.1982  -16.2636   26.6864 O   0  0  0  0  0  0  0  0  0  0  0  0
    9.2401  -14.5624   27.7815 O   0  0  0  0  0  0  0  0  0  0  0  0
  2  1  1  6
  2  3  1  0
  4  2  1  0
  4  5  1  6
  6  4  1  0
  7  6  2  0
  8  6  1  0
  9  8  1  0
 10 11  1  0
  9 10  1  1
 12 13  1  0
 12 11  1  0
 13 14  1  0
 15  9  1  0
 15 19  1  0
 16 15  2  0
 18 19  1  0
 18 17  1  1
 18 20  1  0
 20 21  1  0
 22 20  2  0
M  END
$$$$
