TKA.pdb
     RDKit          3D

 22 21  0  0  1  0  0  0  0  0999 V2000
    9.5501  -14.3576   18.5874 C   0  0  0  0  0  0  0  0  0  0  0  0
    9.0421  -14.3951   20.0023 C   0  0  1  0  0  0  0  0  0  0  0  0
    9.3780  -13.2437   20.6752 O   0  0  0  0  0  0  0  0  0  0  0  0
    7.5483  -14.6255   20.0683 C   0  0  2  0  0  0  0  0  0  0  0  0
    6.8447  -13.5498   19.4101 N   0  0  0  0  0  0  0  0  0  0  0  0
    7.1394  -14.7517   21.4933 C   0  0  0  0  0  0  0  0  0  0  0  0
    6.5466  -13.8105   22.0767 O   0  0  0  0  0  0  0  0  0  0  0  0
    7.3933  -15.9231   22.2569 N   0  0  0  0  0  0  0  0  0  0  0  0
    7.0635  -16.0469   23.6361 C   0  0  1  0  0  0  0  0  0  0  0  0
    7.2919  -17.4842   24.0954 C   0  0  0  0  0  0  0  0  0  0  0  0
    7.0473  -17.6476   25.5585 C   0  0  0  0  0  0  0  0  0  0  0  0
    7.2445  -19.0886   25.9389 C   0  0  0  0  0  0  0  0  0  0  0  0
    7.0259  -19.3799   27.3952 C   0  0  0  0  0  0  0  0  0  0  0  0
    7.3056  -20.8142   27.5718 N   0  0  0  0  0  0  0  0  0  0  0  0
    7.8040  -15.1481   24.5226 C   0  0  0  0  0  0  0  0  0  0  0  0
    9.0555  -15.1331   24.4789 O   0  0  0  0  0  0  0  0  0  0  0  0
    7.2508  -12.1926   26.7515 C   0  0  0  0  0  0  0  0  0  0  0  0
    7.9741  -13.4231   26.2659 C   0  0  2  0  0  0  0  0  0  0  0  0
    7.1838  -14.2750   25.4471 N   0  0  0  0  0  0  0  0  0  0  0  0
    8.4245  -14.1689   27.4663 C   0  0  0  0  0  0  0  0  0  0  0  0
    9.2642  -13.5942   28.4194 O   0  0  0  0  0  0  0  0  0  0  0  0
    8.0458  -15.3512   27.6403 O   0  0  0  0  0  0  0  0  0  0  0  0
  2  1  1  6
  2  3  1  0
  4  2  1  0
  4  5  1  1
  6  4  1  0
  7  6  2  0
  8  6  1  0
  9  8  1  0
 10 11  1  0
  9 10  1  1
 12 13  1  0
 12 11  1  0
 13 14  1  0
 15  9  1  0
 15 19  1  0
 16 15  2  0
 18 19  1  0
 18 17  1  1
 18 20  1  0
 20 21  1  0
 22 20  2  0
M  END
$$$$
