TKA.pdb
     RDKit          3D

 22 21  0  0  1  0  0  0  0  0999 V2000
   10.4759  -19.3624   17.0504 C   0  0  0  0  0  0  0  0  0  0  0  0
    9.7360  -18.2644   16.3373 C   0  0  1  0  0  0  0  0  0  0  0  0
   10.1108  -18.1978   15.0158 O   0  0  0  0  0  0  0  0  0  0  0  0
    8.2352  -18.4181   16.4509 C   0  0  2  0  0  0  0  0  0  0  0  0
    7.5661  -17.4283   15.6395 N   0  0  0  0  0  0  0  0  0  0  0  0
    7.8429  -18.3045   17.8816 C   0  0  0  0  0  0  0  0  0  0  0  0
    7.8584  -17.1924   18.4651 O   0  0  0  0  0  0  0  0  0  0  0  0
    7.4368  -19.4284   18.6508 N   0  0  0  0  0  0  0  0  0  0  0  0
    7.1750  -19.3688   20.0487 C   0  0  1  0  0  0  0  0  0  0  0  0
    6.3074  -20.5537   20.4634 C   0  0  0  0  0  0  0  0  0  0  0  0
    6.0238  -20.5515   21.9286 C   0  0  0  0  0  0  0  0  0  0  0  0
    5.0212  -21.6264   22.2438 C   0  0  0  0  0  0  0  0  0  0  0  0
    4.6161  -21.6908   23.6878 C   0  0  0  0  0  0  0  0  0  0  0  0
    3.6140  -22.7648   23.7838 N   0  0  0  0  0  0  0  0  0  0  0  0
    8.3710  -19.3455   20.8920 C   0  0  0  0  0  0  0  0  0  0  0  0
    9.2819  -20.1814   20.6922 O   0  0  0  0  0  0  0  0  0  0  0  0
   10.0618  -17.1423   23.4212 C   0  0  0  0  0  0  0  0  0  0  0  0
    9.7840  -18.4264   22.6816 C   0  0  2  0  0  0  0  0  0  0  0  0
    8.5697  -18.4190   21.9426 N   0  0  0  0  0  0  0  0  0  0  0  0
    9.7427  -19.5130   23.6904 C   0  0  0  0  0  0  0  0  0  0  0  0
    8.5758  -20.2283   23.9562 O   0  0  0  0  0  0  0  0  0  0  0  0
   10.7806  -19.8061   24.3292 O   0  0  0  0  0  0  0  0  0  0  0  0
  2  1  1  6
  2  3  1  0
  4  2  1  0
  4  5  1  6
  6  4  1  0
  7  6  2  0
  8  6  1  0
  9  8  1  0
 10 11  1  0
  9 10  1  1
 12 13  1  0
 12 11  1  0
 13 14  1  0
 15  9  1  0
 15 19  1  0
 16 15  2  0
 18 19  1  0
 18 17  1  1
 18 20  1  0
 20 21  1  0
 22 20  2  0
M  END
$$$$
