RHL.pdb
     RDKit          3D

 30 30  0  0  1  0  0  0  0  0999 V2000
    8.2840  -12.4151   14.9126 N   0  0  0  0  0  0  0  0  0  0  0  0
    7.9289  -13.7767   14.7132 C   0  0  0  0  0  0  0  0  0  0  0  0
    7.7088  -14.2617   13.5314 N   0  0  0  0  0  0  0  0  0  0  0  0
    7.8031  -14.6615   15.8274 N   0  0  0  0  0  0  0  0  0  0  0  0
    8.1815  -14.2833   17.1759 C   0  0  0  0  0  0  0  0  0  0  0  0
    8.3294  -15.5545   17.9769 C   0  0  0  0  0  0  0  0  0  0  0  0
    8.7634  -15.2801   19.4018 C   0  0  0  0  0  0  0  0  0  0  0  0
    8.8495  -16.6133   20.1023 C   0  0  2  0  0  0  0  0  0  0  0  0
    8.3211  -17.6201   19.2022 N   0  0  0  0  0  0  0  0  0  0  0  0
    8.1862  -16.6361   21.4107 C   0  0  0  0  0  0  0  0  0  0  0  0
    6.9624  -16.4312   21.4953 O   0  0  0  0  0  0  0  0  0  0  0  0
    7.6153  -15.2656   13.3418 N   0  0  0  0  0  0  0  0  0  0  0  0
    8.9394  -16.8908   22.5725 C   0  0  1  0  0  0  0  0  0  0  0  0
    8.2965  -16.9238   23.8633 C   0  0  0  0  0  0  0  0  0  0  0  0
    8.4544  -18.3264   24.4165 C   0  0  0  0  0  0  0  0  0  0  0  0
    7.5978  -19.2957   23.7010 C   0  0  0  0  0  0  0  0  0  0  0  0
    6.2782  -19.5541   24.0091 N   0  0  0  0  0  0  0  0  0  0  0  0
    5.8306  -20.4824   23.1535 C   0  0  0  0  0  0  0  0  0  0  0  0
    6.8434  -20.8016   22.3261 N   0  0  0  0  0  0  0  0  0  0  0  0
    7.9060  -20.0766   22.6685 C   0  0  0  0  0  0  0  0  0  0  0  0
    8.8922  -15.9077   24.7750 O   0  0  0  0  0  0  0  0  0  0  0  0
   10.1396  -15.7717   24.8484 C   0  0  0  0  0  0  0  0  0  0  0  0
    7.5603  -11.8435   25.0034 C   0  0  1  0  0  0  0  0  0  0  0  0
    6.6785  -12.6364   25.9566 C   0  0  0  0  0  0  0  0  0  0  0  0
    5.6179  -11.6887   26.4730 C   0  0  0  0  0  0  0  0  0  0  0  0
    7.5128  -13.2217   27.0540 C   0  0  2  0  0  0  0  0  0  0  0  0
    8.5638  -14.1678   26.5967 N   0  0  0  0  0  0  0  0  0  0  0  0
    8.0623  -15.0796   25.5731 C   0  0  0  0  0  0  0  0  0  0  0  0
    9.2630  -14.8990   27.6679 O   0  0  0  0  0  0  0  0  0  0  0  0
    8.9956  -16.1292   27.9036 O   0  0  0  0  0  0  0  0  0  0  0  0
  2  3  2  0
  2  1  1  0
  4  2  1  0
  5  4  1  0
  6  5  1  0
  7  6  1  0
  8  9  1  6
  8  7  1  0
 10 11  2  0
 10  8  1  0
 12 10  1  0
 13 12  1  0
 13 20  1  0
 13 14  1  1
 15 19  1  0
 15 14  1  0
 16 15  2  0
 17 16  1  0
 17 18  1  0
 18 19  2  0
 20 27  1  0
 21 20  2  0
 23 22  1  6
 23 25  1  0
 24 23  1  0
 26 25  1  6
 26 28  1  0
 27 26  1  0
 28 29  2  0
 28 30  1  0
M  END
$$$$
