RHL.pdb
     RDKit          3D

 30 30  0  0  1  0  0  0  0  0999 V2000
    8.5275  -13.6343   17.5050 N   0  0  0  0  0  0  0  0  0  0  0  0
    8.9437  -13.1009   18.7548 C   0  0  0  0  0  0  0  0  0  0  0  0
    9.2520  -11.8499   18.8976 N   0  0  0  0  0  0  0  0  0  0  0  0
    9.0350  -13.9422   19.9054 N   0  0  0  0  0  0  0  0  0  0  0  0
    8.4070  -15.2482   19.9739 C   0  0  0  0  0  0  0  0  0  0  0  0
    6.9241  -15.0475   19.7738 C   0  0  0  0  0  0  0  0  0  0  0  0
    6.2221  -16.3369   19.4017 C   0  0  0  0  0  0  0  0  0  0  0  0
    6.9478  -17.4551   20.1079 C   0  0  2  0  0  0  0  0  0  0  0  0
    6.5664  -18.7007   19.4707 N   0  0  0  0  0  0  0  0  0  0  0  0
    6.7224  -17.4818   21.5573 C   0  0  0  0  0  0  0  0  0  0  0  0
    5.6109  -17.1749   22.0233 O   0  0  0  0  0  0  0  0  0  0  0  0
    9.6210  -11.4556   19.7700 N   0  0  0  0  0  0  0  0  0  0  0  0
    7.7691  -17.8562   22.4212 C   0  0  2  0  0  0  0  0  0  0  0  0
    7.5650  -17.8664   23.8491 C   0  0  0  0  0  0  0  0  0  0  0  0
    8.2772  -19.0845   24.4035 C   0  0  0  0  0  0  0  0  0  0  0  0
    8.2040  -19.1360   25.8791 C   0  0  0  0  0  0  0  0  0  0  0  0
    7.1448  -18.6685   26.6292 N   0  0  0  0  0  0  0  0  0  0  0  0
    7.4298  -18.8822   27.9204 C   0  0  0  0  0  0  0  0  0  0  0  0
    8.6392  -19.4701   27.9829 N   0  0  0  0  0  0  0  0  0  0  0  0
    9.0958  -19.6176   26.7412 C   0  0  0  0  0  0  0  0  0  0  0  0
    8.0757  -16.6095   24.4636 O   0  0  0  0  0  0  0  0  0  0  0  0
    9.1998  -16.1520   24.1365 C   0  0  0  0  0  0  0  0  0  0  0  0
    5.7667  -12.1301   28.1270 C   0  0  1  0  0  0  0  0  0  0  0  0
    6.9483  -12.6353   27.3124 C   0  0  0  0  0  0  0  0  0  0  0  0
    7.3253  -11.5335   26.3462 C   0  0  0  0  0  0  0  0  0  0  0  0
    6.5799  -13.9103   26.6183 C   0  0  2  0  0  0  0  0  0  0  0  0
    7.7321  -14.6761   26.0754 N   0  0  0  0  0  0  0  0  0  0  0  0
    7.3026  -15.9107   25.4256 C   0  0  0  0  0  0  0  0  0  0  0  0
    8.8276  -14.9266   27.0283 O   0  0  0  0  0  0  0  0  0  0  0  0
    8.8169  -15.9627   27.7812 O   0  0  0  0  0  0  0  0  0  0  0  0
  2  3  2  0
  2  1  1  0
  4  2  1  0
  5  4  1  0
  6  5  1  0
  7  6  1  0
  8  9  1  6
  8  7  1  0
 10 11  2  0
 10  8  1  0
 12 10  1  0
 13 12  1  0
 13 20  1  0
 13 14  1  6
 15 19  1  0
 15 14  1  0
 16 15  2  0
 17 16  1  0
 17 18  1  0
 18 19  2  0
 20 27  1  0
 21 20  2  0
 23 22  1  1
 23 25  1  0
 24 23  1  0
 26 25  1  6
 26 28  1  0
 27 26  1  0
 28 29  2  0
 28 30  1  0
M  END
$$$$
