RHL.pdb
     RDKit          3D

 30 30  0  0  1  0  0  0  0  0999 V2000
    7.6674  -14.7377   16.1446 N   0  0  0  0  0  0  0  0  0  0  0  0
    8.2643  -13.4518   16.2439 C   0  0  0  0  0  0  0  0  0  0  0  0
    8.9472  -12.9361   15.2702 N   0  0  0  0  0  0  0  0  0  0  0  0
    8.1257  -12.6808   17.4382 N   0  0  0  0  0  0  0  0  0  0  0  0
    7.3161  -13.1135   18.5616 C   0  0  0  0  0  0  0  0  0  0  0  0
    7.7397  -14.5205   18.9084 C   0  0  0  0  0  0  0  0  0  0  0  0
    7.9086  -14.7105   20.4014 C   0  0  0  0  0  0  0  0  0  0  0  0
    8.2170  -16.1695   20.6293 C   0  0  2  0  0  0  0  0  0  0  0  0
    7.2272  -16.9478   19.9098 N   0  0  0  0  0  0  0  0  0  0  0  0
    8.2925  -16.5421   22.0464 C   0  0  0  0  0  0  0  0  0  0  0  0
    7.2561  -16.8144   22.6776 O   0  0  0  0  0  0  0  0  0  0  0  0
    9.3725  -12.0033   15.3111 N   0  0  0  0  0  0  0  0  0  0  0  0
    9.5431  -16.5907   22.6912 C   0  0  2  0  0  0  0  0  0  0  0  0
    9.6236  -16.8897   24.1000 C   0  0  0  0  0  0  0  0  0  0  0  0
   10.7240  -17.9157   24.2868 C   0  0  0  0  0  0  0  0  0  0  0  0
   10.2902  -19.2651   23.8669 C   0  0  0  0  0  0  0  0  0  0  0  0
    8.9761  -19.6512   23.7019 N   0  0  0  0  0  0  0  0  0  0  0  0
    8.9700  -20.9344   23.3180 C   0  0  0  0  0  0  0  0  0  0  0  0
   10.2491  -21.3473   23.2427 N   0  0  0  0  0  0  0  0  0  0  0  0
   11.0369  -20.3277   23.5773 C   0  0  0  0  0  0  0  0  0  0  0  0
    9.8912  -15.6537   24.8868 O   0  0  0  0  0  0  0  0  0  0  0  0
   10.9506  -15.0016   24.7072 C   0  0  0  0  0  0  0  0  0  0  0  0
    8.3287  -11.9623   24.9300 C   0  0  2  0  0  0  0  0  0  0  0  0
    7.4199  -12.8464   25.7710 C   0  0  0  0  0  0  0  0  0  0  0  0
    6.1492  -12.0644   26.0236 C   0  0  0  0  0  0  0  0  0  0  0  0
    8.1186  -13.2364   27.0369 C   0  0  2  0  0  0  0  0  0  0  0  0
    9.2534  -14.1784   26.8542 N   0  0  0  0  0  0  0  0  0  0  0  0
    8.9561  -15.1945   25.8492 C   0  0  0  0  0  0  0  0  0  0  0  0
    9.7735  -14.7863   28.0915 O   0  0  0  0  0  0  0  0  0  0  0  0
   10.1445  -14.0545   29.0750 O   0  0  0  0  0  0  0  0  0  0  0  0
  2  3  2  0
  2  1  1  0
  4  2  1  0
  5  4  1  0
  6  5  1  0
  7  6  1  0
  8  9  1  6
  8  7  1  0
 10 11  2  0
 10  8  1  0
 12 10  1  0
 13 12  1  0
 13 20  1  0
 13 14  1  6
 15 19  1  0
 15 14  1  0
 16 15  2  0
 17 16  1  0
 17 18  1  0
 18 19  2  0
 20 27  1  0
 21 20  2  0
 23 22  1  6
 23 25  1  0
 24 23  1  0
 26 25  1  6
 26 28  1  0
 27 26  1  0
 28 29  2  0
 28 30  1  0
M  END
$$$$
