RHL.pdb
     RDKit          3D

 30 30  0  0  1  0  0  0  0  0999 V2000
    8.6196  -13.7779   16.8648 N   0  0  0  0  0  0  0  0  0  0  0  0
    8.6891  -13.2979   18.2007 C   0  0  0  0  0  0  0  0  0  0  0  0
    8.9855  -12.0655   18.4717 N   0  0  0  0  0  0  0  0  0  0  0  0
    8.4301  -14.1747   19.2981 N   0  0  0  0  0  0  0  0  0  0  0  0
    7.9844  -13.6986   20.5941 C   0  0  0  0  0  0  0  0  0  0  0  0
    6.7289  -14.4590   20.9474 C   0  0  0  0  0  0  0  0  0  0  0  0
    6.8677  -15.2061   22.2575 C   0  0  0  0  0  0  0  0  0  0  0  0
    7.4886  -16.5437   21.9400 C   0  0  2  0  0  0  0  0  0  0  0  0
    6.4225  -17.4420   21.5405 N   0  0  0  0  0  0  0  0  0  0  0  0
    8.2964  -17.0937   23.0343 C   0  0  0  0  0  0  0  0  0  0  0  0
    7.7449  -17.6479   24.0015 O   0  0  0  0  0  0  0  0  0  0  0  0
    9.0414  -11.6953   19.4270 N   0  0  0  0  0  0  0  0  0  0  0  0
    9.6999  -16.9926   22.9870 C   0  0  2  0  0  0  0  0  0  0  0  0
   10.5008  -17.4702   24.0875 C   0  0  0  0  0  0  0  0  0  0  0  0
   11.8910  -17.7513   23.5522 C   0  0  0  0  0  0  0  0  0  0  0  0
   12.7723  -18.3221   24.5928 C   0  0  0  0  0  0  0  0  0  0  0  0
   12.3807  -18.6031   25.8854 N   0  0  0  0  0  0  0  0  0  0  0  0
   13.4387  -19.1056   26.5351 C   0  0  0  0  0  0  0  0  0  0  0  0
   14.4722  -19.1406   25.6732 N   0  0  0  0  0  0  0  0  0  0  0  0
   14.0552  -18.6639   24.5024 C   0  0  0  0  0  0  0  0  0  0  0  0
   10.5330  -16.4688   25.1896 O   0  0  0  0  0  0  0  0  0  0  0  0
   10.4785  -15.2393   24.9343 C   0  0  0  0  0  0  0  0  0  0  0  0
    9.6268  -13.2039   27.5649 C   0  0  2  0  0  0  0  0  0  0  0  0
    8.7737  -14.1992   26.7926 C   0  0  0  0  0  0  0  0  0  0  0  0
    7.3748  -13.6263   26.7242 C   0  0  0  0  0  0  0  0  0  0  0  0
    8.8172  -15.5365   27.4654 C   0  0  2  0  0  0  0  0  0  0  0  0
   10.1840  -16.0808   27.6758 N   0  0  0  0  0  0  0  0  0  0  0  0
   10.6255  -16.8867   26.5417 C   0  0  0  0  0  0  0  0  0  0  0  0
   10.3899  -16.7921   28.9496 O   0  0  0  0  0  0  0  0  0  0  0  0
   10.5622  -16.1444   30.0411 O   0  0  0  0  0  0  0  0  0  0  0  0
  2  3  2  0
  2  1  1  0
  4  2  1  0
  5  4  1  0
  6  5  1  0
  7  6  1  0
  8  9  1  1
  8  7  1  0
 10 11  2  0
 10  8  1  0
 12 10  1  0
 13 12  1  0
 13 20  1  0
 13 14  1  6
 15 19  1  0
 15 14  1  0
 16 15  2  0
 17 16  1  0
 17 18  1  0
 18 19  2  0
 20 27  1  0
 21 20  2  0
 23 22  1  6
 23 25  1  0
 24 23  1  0
 26 25  1  6
 26 28  1  0
 27 26  1  0
 28 29  2  0
 28 30  1  0
M  END
$$$$
