RHL.pdb
     RDKit          3D

 30 30  0  0  1  0  0  0  0  0999 V2000
    8.6742  -12.6636   18.3821 N   0  0  0  0  0  0  0  0  0  0  0  0
    8.2124  -13.6635   17.4838 C   0  0  0  0  0  0  0  0  0  0  0  0
    8.7337  -13.8218   16.3076 N   0  0  0  0  0  0  0  0  0  0  0  0
    7.1445  -14.5346   17.8589 N   0  0  0  0  0  0  0  0  0  0  0  0
    6.5111  -14.4827   19.1631 C   0  0  0  0  0  0  0  0  0  0  0  0
    7.5940  -14.6666   20.1989 C   0  0  0  0  0  0  0  0  0  0  0  0
    7.1829  -15.6415   21.2826 C   0  0  0  0  0  0  0  0  0  0  0  0
    7.9621  -16.9125   21.0527 C   0  0  2  0  0  0  0  0  0  0  0  0
    7.0145  -17.9557   20.7107 N   0  0  0  0  0  0  0  0  0  0  0  0
    8.8200  -17.2908   22.1811 C   0  0  0  0  0  0  0  0  0  0  0  0
    8.4219  -18.1184   23.0197 O   0  0  0  0  0  0  0  0  0  0  0  0
    8.4331  -14.5500   15.6504 N   0  0  0  0  0  0  0  0  0  0  0  0
   10.0974  -16.7136   22.3128 C   0  0  2  0  0  0  0  0  0  0  0  0
   10.9837  -17.1419   23.3672 C   0  0  0  0  0  0  0  0  0  0  0  0
   12.3959  -16.7790   22.9522 C   0  0  0  0  0  0  0  0  0  0  0  0
   12.9078  -17.6867   21.9037 C   0  0  0  0  0  0  0  0  0  0  0  0
   12.1925  -18.7276   21.3488 N   0  0  0  0  0  0  0  0  0  0  0  0
   12.9737  -19.3239   20.4388 C   0  0  0  0  0  0  0  0  0  0  0  0
   14.1530  -18.6749   20.4204 N   0  0  0  0  0  0  0  0  0  0  0  0
   14.0993  -17.6871   21.3111 C   0  0  0  0  0  0  0  0  0  0  0  0
   10.6135  -16.5013   24.6598 O   0  0  0  0  0  0  0  0  0  0  0  0
   11.3547  -16.6257   25.6673 C   0  0  0  0  0  0  0  0  0  0  0  0
    5.9750  -12.9266   26.7630 C   0  0  1  0  0  0  0  0  0  0  0  0
    7.3750  -13.4648   27.0187 C   0  0  0  0  0  0  0  0  0  0  0  0
    8.2258  -12.2955   27.4646 C   0  0  0  0  0  0  0  0  0  0  0  0
    7.9016  -14.1223   25.7804 C   0  0  2  0  0  0  0  0  0  0  0  0
    8.9469  -15.1510   26.0210 N   0  0  0  0  0  0  0  0  0  0  0  0
    9.4208  -15.7423   24.7734 C   0  0  0  0  0  0  0  0  0  0  0  0
    8.5946  -16.1895   27.0050 O   0  0  0  0  0  0  0  0  0  0  0  0
    7.7594  -17.1148   26.7102 O   0  0  0  0  0  0  0  0  0  0  0  0
  2  3  2  0
  2  1  1  0
  4  2  1  0
  5  4  1  0
  6  5  1  0
  7  6  1  0
  8  9  1  1
  8  7  1  0
 10 11  2  0
 10  8  1  0
 12 10  1  0
 13 12  1  0
 13 20  1  0
 13 14  1  6
 15 19  1  0
 15 14  1  0
 16 15  2  0
 17 16  1  0
 17 18  1  0
 18 19  2  0
 20 27  1  0
 21 20  2  0
 23 22  1  1
 23 25  1  0
 24 23  1  0
 26 25  1  6
 26 28  1  0
 27 26  1  0
 28 29  2  0
 28 30  1  0
M  END
$$$$
