RHL.pdb
     RDKit          3D

 30 30  0  0  1  0  0  0  0  0999 V2000
    1.9885  -18.7156   21.9374 N   0  0  0  0  0  0  0  0  0  0  0  0
    1.6634  -19.9905   21.4000 C   0  0  0  0  0  0  0  0  0  0  0  0
    0.4405  -20.3336   21.1412 N   0  0  0  0  0  0  0  0  0  0  0  0
    2.6918  -20.9431   21.1262 N   0  0  0  0  0  0  0  0  0  0  0  0
    4.1014  -20.6000   21.1354 C   0  0  0  0  0  0  0  0  0  0  0  0
    4.6031  -20.7883   22.5469 C   0  0  0  0  0  0  0  0  0  0  0  0
    6.0939  -20.5451   22.6564 C   0  0  0  0  0  0  0  0  0  0  0  0
    6.2750  -19.1812   23.2750 C   0  0  2  0  0  0  0  0  0  0  0  0
    5.4070  -18.2577   22.5702 N   0  0  0  0  0  0  0  0  0  0  0  0
    7.6691  -18.7243   23.2979 C   0  0  0  0  0  0  0  0  0  0  0  0
    8.5609  -19.4597   23.7568 O   0  0  0  0  0  0  0  0  0  0  0  0
    0.1823  -21.2403   20.7364 N   0  0  0  0  0  0  0  0  0  0  0  0
    7.9955  -17.4491   22.7985 C   0  0  1  0  0  0  0  0  0  0  0  0
    9.3671  -17.0028   22.7847 C   0  0  0  0  0  0  0  0  0  0  0  0
    9.5773  -16.2124   21.5083 C   0  0  0  0  0  0  0  0  0  0  0  0
   10.9940  -15.8300   21.3293 C   0  0  0  0  0  0  0  0  0  0  0  0
   12.0013  -16.1054   22.2307 N   0  0  0  0  0  0  0  0  0  0  0  0
   13.1429  -15.6103   21.7350 C   0  0  0  0  0  0  0  0  0  0  0  0
   12.8623  -15.0366   20.5499 N   0  0  0  0  0  0  0  0  0  0  0  0
   11.5592  -15.1768   20.3170 C   0  0  0  0  0  0  0  0  0  0  0  0
    9.6662  -16.1812   23.9904 O   0  0  0  0  0  0  0  0  0  0  0  0
   10.8039  -15.6700   24.1462 C   0  0  0  0  0  0  0  0  0  0  0  0
    8.6058  -12.3245   25.5994 C   0  0  2  0  0  0  0  0  0  0  0  0
    7.5246  -13.3936   25.6514 C   0  0  0  0  0  0  0  0  0  0  0  0
    6.2172  -12.6896   25.9427 C   0  0  0  0  0  0  0  0  0  0  0  0
    7.8714  -14.4182   26.6871 C   0  0  2  0  0  0  0  0  0  0  0  0
    8.9410  -15.3687   26.2856 N   0  0  0  0  0  0  0  0  0  0  0  0
    8.6735  -15.9634   24.9796 C   0  0  0  0  0  0  0  0  0  0  0  0
    9.2757  -16.3994   27.2839 O   0  0  0  0  0  0  0  0  0  0  0  0
    9.0566  -17.6385   27.0449 O   0  0  0  0  0  0  0  0  0  0  0  0
  2  3  2  0
  2  1  1  0
  4  2  1  0
  5  4  1  0
  6  5  1  0
  7  6  1  0
  8  9  1  6
  8  7  1  0
 10 11  2  0
 10  8  1  0
 12 10  1  0
 13 12  1  0
 13 20  1  0
 13 14  1  6
 15 19  1  0
 15 14  1  0
 16 15  2  0
 17 16  1  0
 17 18  1  0
 18 19  2  0
 20 27  1  0
 21 20  2  0
 23 22  1  6
 23 25  1  0
 24 23  1  0
 26 25  1  6
 26 28  1  0
 27 26  1  0
 28 29  2  0
 28 30  1  0
M  END
$$$$
