RHL.pdb
     RDKit          3D

 30 30  0  0  1  0  0  0  0  0999 V2000
    3.9185  -23.5932   27.0619 N   0  0  0  0  0  0  0  0  0  0  0  0
    5.1880  -24.0419   26.6073 C   0  0  0  0  0  0  0  0  0  0  0  0
    5.6071  -25.2489   26.8260 N   0  0  0  0  0  0  0  0  0  0  0  0
    6.0501  -23.1610   25.8855 N   0  0  0  0  0  0  0  0  0  0  0  0
    5.7148  -21.7734   25.6265 C   0  0  0  0  0  0  0  0  0  0  0  0
    6.8566  -21.1714   24.8433 C   0  0  0  0  0  0  0  0  0  0  0  0
    6.6879  -19.6786   24.6512 C   0  0  0  0  0  0  0  0  0  0  0  0
    6.5753  -19.4338   23.1669 C   0  0  2  0  0  0  0  0  0  0  0  0
    6.8387  -20.6895   22.4909 N   0  0  0  0  0  0  0  0  0  0  0  0
    7.4372  -18.3507   22.6806 C   0  0  0  0  0  0  0  0  0  0  0  0
    8.6638  -18.5269   22.5748 O   0  0  0  0  0  0  0  0  0  0  0  0
    6.5299  -25.5878   26.5326 N   0  0  0  0  0  0  0  0  0  0  0  0
    6.8716  -17.1090   22.3333 C   0  0  1  0  0  0  0  0  0  0  0  0
    7.7127  -16.0278   21.8814 C   0  0  0  0  0  0  0  0  0  0  0  0
    6.8533  -15.0992   21.0463 C   0  0  0  0  0  0  0  0  0  0  0  0
    7.6433  -13.9857   20.4794 C   0  0  0  0  0  0  0  0  0  0  0  0
    7.7117  -12.7178   21.0184 N   0  0  0  0  0  0  0  0  0  0  0  0
    8.5168  -11.9832   20.2397 C   0  0  0  0  0  0  0  0  0  0  0  0
    8.9456  -12.7689   19.2342 N   0  0  0  0  0  0  0  0  0  0  0  0
    8.4097  -13.9772   19.3915 C   0  0  0  0  0  0  0  0  0  0  0  0
    8.3212  -15.3143   23.0385 O   0  0  0  0  0  0  0  0  0  0  0  0
    9.1880  -14.4233   22.8526 C   0  0  0  0  0  0  0  0  0  0  0  0
    7.9749  -12.0010   25.4855 C   0  0  2  0  0  0  0  0  0  0  0  0
    6.9182  -13.0837   25.6467 C   0  0  0  0  0  0  0  0  0  0  0  0
    5.7660  -12.4697   26.4117 C   0  0  0  0  0  0  0  0  0  0  0  0
    7.5075  -14.2701   26.3454 C   0  0  2  0  0  0  0  0  0  0  0  0
    8.5196  -15.0167   25.5537 N   0  0  0  0  0  0  0  0  0  0  0  0
    7.9324  -15.6289   24.3657 C   0  0  0  0  0  0  0  0  0  0  0  0
    9.3230  -15.9893   26.3148 O   0  0  0  0  0  0  0  0  0  0  0  0
    9.3562  -17.2229   25.9714 O   0  0  0  0  0  0  0  0  0  0  0  0
  2  3  2  0
  2  1  1  0
  4  2  1  0
  5  4  1  0
  6  5  1  0
  7  6  1  0
  8  9  1  6
  8  7  1  0
 10 11  2  0
 10  8  1  0
 12 10  1  0
 13 12  1  0
 13 20  1  0
 13 14  1  1
 15 19  1  0
 15 14  1  0
 16 15  2  0
 17 16  1  0
 17 18  1  0
 18 19  2  0
 20 27  1  0
 21 20  2  0
 23 22  1  6
 23 25  1  0
 24 23  1  0
 26 25  1  6
 26 28  1  0
 27 26  1  0
 28 29  2  0
 28 30  1  0
M  END
$$$$
