RHL.pdb
     RDKit          3D

 30 30  0  0  1  0  0  0  0  0999 V2000
    8.8399  -15.3310   16.2986 N   0  0  0  0  0  0  0  0  0  0  0  0
    8.5263  -13.9508   16.1702 C   0  0  0  0  0  0  0  0  0  0  0  0
    7.7697  -13.5056   15.2164 N   0  0  0  0  0  0  0  0  0  0  0  0
    9.0445  -13.0019   17.1035 N   0  0  0  0  0  0  0  0  0  0  0  0
    8.5110  -12.8482   18.4438 C   0  0  0  0  0  0  0  0  0  0  0  0
    7.4156  -13.8730   18.6144 C   0  0  0  0  0  0  0  0  0  0  0  0
    7.2663  -14.3093   20.0570 C   0  0  0  0  0  0  0  0  0  0  0  0
    8.2870  -15.3934   20.2989 C   0  0  2  0  0  0  0  0  0  0  0  0
    8.0552  -16.4435   19.3260 N   0  0  0  0  0  0  0  0  0  0  0  0
    8.2914  -15.9031   21.6747 C   0  0  0  0  0  0  0  0  0  0  0  0
    7.2369  -15.9349   22.3333 O   0  0  0  0  0  0  0  0  0  0  0  0
    7.6241  -12.5072   15.0309 N   0  0  0  0  0  0  0  0  0  0  0  0
    9.4941  -16.3570   22.2488 C   0  0  1  0  0  0  0  0  0  0  0  0
    9.5173  -16.8263   23.6125 C   0  0  0  0  0  0  0  0  0  0  0  0
   10.5935  -17.8894   23.7113 C   0  0  0  0  0  0  0  0  0  0  0  0
   10.1116  -19.2013   23.2296 C   0  0  0  0  0  0  0  0  0  0  0  0
    9.2710  -19.3809   22.1506 N   0  0  0  0  0  0  0  0  0  0  0  0
    9.0528  -20.6954   22.0140 C   0  0  0  0  0  0  0  0  0  0  0  0
    9.7392  -21.3292   22.9833 N   0  0  0  0  0  0  0  0  0  0  0  0
   10.3749  -20.4136   23.7110 C   0  0  0  0  0  0  0  0  0  0  0  0
    9.7749  -15.7005   24.5531 O   0  0  0  0  0  0  0  0  0  0  0  0
   10.8545  -15.0592   24.4978 C   0  0  0  0  0  0  0  0  0  0  0  0
    8.2561  -11.8788   25.3401 C   0  0  2  0  0  0  0  0  0  0  0  0
    7.2810  -12.9101   25.8882 C   0  0  0  0  0  0  0  0  0  0  0  0
    6.0263  -12.1657   26.2899 C   0  0  0  0  0  0  0  0  0  0  0  0
    7.9074  -13.6448   27.0330 C   0  0  2  0  0  0  0  0  0  0  0  0
    9.0862  -14.4730   26.6679 N   0  0  0  0  0  0  0  0  0  0  0  0
    8.8075  -15.3356   25.5239 C   0  0  0  0  0  0  0  0  0  0  0  0
    9.6900  -15.2332   27.7762 O   0  0  0  0  0  0  0  0  0  0  0  0
    9.5872  -16.5089   27.8280 O   0  0  0  0  0  0  0  0  0  0  0  0
  2  3  2  0
  2  1  1  0
  4  2  1  0
  5  4  1  0
  6  5  1  0
  7  6  1  0
  8  9  1  6
  8  7  1  0
 10 11  2  0
 10  8  1  0
 12 10  1  0
 13 12  1  0
 13 20  1  0
 13 14  1  1
 15 19  1  0
 15 14  1  0
 16 15  2  0
 17 16  1  0
 17 18  1  0
 18 19  2  0
 20 27  1  0
 21 20  2  0
 23 22  1  6
 23 25  1  0
 24 23  1  0
 26 25  1  6
 26 28  1  0
 27 26  1  0
 28 29  2  0
 28 30  1  0
M  END
$$$$
