RHL.pdb
     RDKit          3D

 30 30  0  0  1  0  0  0  0  0999 V2000
    9.7155  -13.4828   17.8805 N   0  0  0  0  0  0  0  0  0  0  0  0
    8.3496  -13.2679   18.2091 C   0  0  0  0  0  0  0  0  0  0  0  0
    7.9128  -12.1126   18.6025 N   0  0  0  0  0  0  0  0  0  0  0  0
    7.4064  -14.3362   18.1132 N   0  0  0  0  0  0  0  0  0  0  0  0
    7.7584  -15.6505   17.6099 C   0  0  0  0  0  0  0  0  0  0  0  0
    8.0250  -16.5350   18.8039 C   0  0  0  0  0  0  0  0  0  0  0  0
    9.1420  -15.9946   19.6723 C   0  0  0  0  0  0  0  0  0  0  0  0
    9.4008  -17.0195   20.7485 C   0  0  2  0  0  0  0  0  0  0  0  0
    9.2817  -18.3329   20.1453 N   0  0  0  0  0  0  0  0  0  0  0  0
    8.5380  -16.8695   21.9256 C   0  0  0  0  0  0  0  0  0  0  0  0
    7.5126  -16.1685   21.8644 O   0  0  0  0  0  0  0  0  0  0  0  0
    6.9464  -11.9477   18.9049 N   0  0  0  0  0  0  0  0  0  0  0  0
    8.8741  -17.5221   23.1270 C   0  0  1  0  0  0  0  0  0  0  0  0
    8.1140  -17.2729   24.3272 C   0  0  0  0  0  0  0  0  0  0  0  0
    7.9089  -18.6043   25.0226 C   0  0  0  0  0  0  0  0  0  0  0  0
    6.8702  -19.4160   24.3537 C   0  0  0  0  0  0  0  0  0  0  0  0
    6.1806  -19.0310   23.2226 N   0  0  0  0  0  0  0  0  0  0  0  0
    5.3268  -20.0138   22.9075 C   0  0  0  0  0  0  0  0  0  0  0  0
    5.4744  -20.9946   23.8177 N   0  0  0  0  0  0  0  0  0  0  0  0
    6.4110  -20.6198   24.6863 C   0  0  0  0  0  0  0  0  0  0  0  0
    8.8214  -16.3014   25.2071 O   0  0  0  0  0  0  0  0  0  0  0  0
   10.0766  -16.2354   25.2026 C   0  0  0  0  0  0  0  0  0  0  0  0
    7.9042  -12.1373   25.1832 C   0  0  1  0  0  0  0  0  0  0  0  0
    6.9879  -12.8482   26.1680 C   0  0  0  0  0  0  0  0  0  0  0  0
    5.9341  -11.8495   26.5948 C   0  0  0  0  0  0  0  0  0  0  0  0
    7.7878  -13.3711   27.3211 C   0  0  2  0  0  0  0  0  0  0  0  0
    8.7087  -14.4871   26.9817 N   0  0  0  0  0  0  0  0  0  0  0  0
    8.0907  -15.4374   26.0621 C   0  0  0  0  0  0  0  0  0  0  0  0
    9.3159  -15.1758   28.1340 O   0  0  0  0  0  0  0  0  0  0  0  0
    9.0462  -16.4036   28.3799 O   0  0  0  0  0  0  0  0  0  0  0  0
  2  3  2  0
  2  1  1  0
  4  2  1  0
  5  4  1  0
  6  5  1  0
  7  6  1  0
  8  9  1  6
  8  7  1  0
 10 11  2  0
 10  8  1  0
 12 10  1  0
 13 12  1  0
 13 20  1  0
 13 14  1  1
 15 19  1  0
 15 14  1  0
 16 15  2  0
 17 16  1  0
 17 18  1  0
 18 19  2  0
 20 27  1  0
 21 20  2  0
 23 22  1  6
 23 25  1  0
 24 23  1  0
 26 25  1  6
 26 28  1  0
 27 26  1  0
 28 29  2  0
 28 30  1  0
M  END
$$$$
