RHL.pdb
     RDKit          3D

 30 30  0  0  1  0  0  0  0  0999 V2000
    8.4125  -15.4177   16.0727 N   0  0  0  0  0  0  0  0  0  0  0  0
    8.2441  -14.0117   15.9518 C   0  0  0  0  0  0  0  0  0  0  0  0
    7.8540  -13.4607   14.8453 N   0  0  0  0  0  0  0  0  0  0  0  0
    8.5044  -13.1543   17.0641 N   0  0  0  0  0  0  0  0  0  0  0  0
    8.6546  -13.6508   18.4189 C   0  0  0  0  0  0  0  0  0  0  0  0
    7.2687  -13.8745   18.9744 C   0  0  0  0  0  0  0  0  0  0  0  0
    7.3047  -14.4627   20.3696 C   0  0  0  0  0  0  0  0  0  0  0  0
    8.0293  -15.7824   20.2744 C   0  0  2  0  0  0  0  0  0  0  0  0
    7.1950  -16.6904   19.5112 N   0  0  0  0  0  0  0  0  0  0  0  0
    8.4105  -16.3412   21.5764 C   0  0  0  0  0  0  0  0  0  0  0  0
    7.5523  -16.8671   22.3068 O   0  0  0  0  0  0  0  0  0  0  0  0
    7.6806  -12.4543   14.7463 N   0  0  0  0  0  0  0  0  0  0  0  0
    9.7525  -16.2805   21.9977 C   0  0  2  0  0  0  0  0  0  0  0  0
   10.1363  -16.8140   23.2818 C   0  0  0  0  0  0  0  0  0  0  0  0
   11.5600  -17.3203   23.1588 C   0  0  0  0  0  0  0  0  0  0  0  0
   11.6185  -18.6235   22.4634 C   0  0  0  0  0  0  0  0  0  0  0  0
   10.5160  -19.3540   22.0710 N   0  0  0  0  0  0  0  0  0  0  0  0
   10.9539  -20.4711   21.4758 C   0  0  0  0  0  0  0  0  0  0  0  0
   12.2998  -20.4457   21.4925 N   0  0  0  0  0  0  0  0  0  0  0  0
   12.6882  -19.3228   22.0927 C   0  0  0  0  0  0  0  0  0  0  0  0
   10.0169  -15.7743   24.3416 O   0  0  0  0  0  0  0  0  0  0  0  0
   10.7946  -14.7870   24.3552 C   0  0  0  0  0  0  0  0  0  0  0  0
    6.1970  -12.3232   26.5806 C   0  0  1  0  0  0  0  0  0  0  0  0
    7.6164  -12.8633   26.6730 C   0  0  0  0  0  0  0  0  0  0  0  0
    8.4029  -12.2418   25.5396 C   0  0  0  0  0  0  0  0  0  0  0  0
    7.5967  -14.3595   26.6092 C   0  0  2  0  0  0  0  0  0  0  0  0
    8.9368  -14.9934   26.5043 N   0  0  0  0  0  0  0  0  0  0  0  0
    9.0254  -15.8824   25.3499 C   0  0  0  0  0  0  0  0  0  0  0  0
    9.4175  -15.6574   27.7286 O   0  0  0  0  0  0  0  0  0  0  0  0
    9.6578  -14.9810   28.7894 O   0  0  0  0  0  0  0  0  0  0  0  0
  2  3  2  0
  2  1  1  0
  4  2  1  0
  5  4  1  0
  6  5  1  0
  7  6  1  0
  8  9  1  1
  8  7  1  0
 10 11  2  0
 10  8  1  0
 12 10  1  0
 13 12  1  0
 13 20  1  0
 13 14  1  6
 15 19  1  0
 15 14  1  0
 16 15  2  0
 17 16  1  0
 17 18  1  0
 18 19  2  0
 20 27  1  0
 21 20  2  0
 23 22  1  1
 23 25  1  0
 24 23  1  0
 26 25  1  6
 26 28  1  0
 27 26  1  0
 28 29  2  0
 28 30  1  0
M  END
$$$$
