RHL.pdb
     RDKit          3D

 30 30  0  0  1  0  0  0  0  0999 V2000
    6.8416  -13.2626   19.2464 N   0  0  0  0  0  0  0  0  0  0  0  0
    8.1010  -12.8168   18.7616 C   0  0  0  0  0  0  0  0  0  0  0  0
    8.5297  -11.6121   18.9740 N   0  0  0  0  0  0  0  0  0  0  0  0
    8.9414  -13.6982   18.0154 N   0  0  0  0  0  0  0  0  0  0  0  0
    8.5041  -15.0068   17.5671 C   0  0  0  0  0  0  0  0  0  0  0  0
    8.7398  -15.9750   18.7013 C   0  0  0  0  0  0  0  0  0  0  0  0
   10.2149  -16.1695   18.9841 C   0  0  0  0  0  0  0  0  0  0  0  0
   10.3248  -17.2358   20.0454 C   0  0  2  0  0  0  0  0  0  0  0  0
    9.7851  -18.4641   19.4950 N   0  0  0  0  0  0  0  0  0  0  0  0
    9.6887  -16.8710   21.3162 C   0  0  0  0  0  0  0  0  0  0  0  0
   10.0623  -15.8588   21.9348 O   0  0  0  0  0  0  0  0  0  0  0  0
    9.4483  -11.2770   18.6634 N   0  0  0  0  0  0  0  0  0  0  0  0
    8.6526  -17.6708   21.8348 C   0  0  2  0  0  0  0  0  0  0  0  0
    8.5031  -17.8329   23.2602 C   0  0  0  0  0  0  0  0  0  0  0  0
    9.3999  -18.9786   23.6860 C   0  0  0  0  0  0  0  0  0  0  0  0
    8.9751  -20.2590   23.0815 C   0  0  0  0  0  0  0  0  0  0  0  0
    7.7279  -20.4969   22.5423 N   0  0  0  0  0  0  0  0  0  0  0  0
    7.7084  -21.7584   22.0925 C   0  0  0  0  0  0  0  0  0  0  0  0
    8.9141  -22.3027   22.3421 N   0  0  0  0  0  0  0  0  0  0  0  0
    9.6702  -21.3849   22.9404 C   0  0  0  0  0  0  0  0  0  0  0  0
    8.8523  -16.5729   23.9735 O   0  0  0  0  0  0  0  0  0  0  0  0
    9.9978  -16.0696   23.8530 C   0  0  0  0  0  0  0  0  0  0  0  0
    5.8822  -12.2603   27.1450 C   0  0  1  0  0  0  0  0  0  0  0  0
    7.1830  -12.5662   26.4174 C   0  0  0  0  0  0  0  0  0  0  0  0
    7.5441  -11.3345   25.6160 C   0  0  0  0  0  0  0  0  0  0  0  0
    7.0130  -13.7827   25.5606 C   0  0  2  0  0  0  0  0  0  0  0  0
    8.1747  -14.7095   25.5618 N   0  0  0  0  0  0  0  0  0  0  0  0
    7.8992  -15.9228   24.7984 C   0  0  0  0  0  0  0  0  0  0  0  0
    8.7259  -15.0275   26.8907 O   0  0  0  0  0  0  0  0  0  0  0  0
    9.5397  -14.2266   27.4711 O   0  0  0  0  0  0  0  0  0  0  0  0
  2  3  2  0
  2  1  1  0
  4  2  1  0
  5  4  1  0
  6  5  1  0
  7  6  1  0
  8  9  1  6
  8  7  1  0
 10 11  2  0
 10  8  1  0
 12 10  1  0
 13 12  1  0
 13 20  1  0
 13 14  1  6
 15 19  1  0
 15 14  1  0
 16 15  2  0
 17 16  1  0
 17 18  1  0
 18 19  2  0
 20 27  1  0
 21 20  2  0
 23 22  1  1
 23 25  1  0
 24 23  1  0
 26 25  1  6
 26 28  1  0
 27 26  1  0
 28 29  2  0
 28 30  1  0
M  END
$$$$
