RHL.pdb
     RDKit          3D

 30 30  0  0  1  0  0  0  0  0999 V2000
    9.6678  -16.7331   13.1067 N   0  0  0  0  0  0  0  0  0  0  0  0
    8.4684  -16.7777   13.8679 C   0  0  0  0  0  0  0  0  0  0  0  0
    7.3639  -17.2489   13.3796 N   0  0  0  0  0  0  0  0  0  0  0  0
    8.4475  -16.2969   15.2127 N   0  0  0  0  0  0  0  0  0  0  0  0
    9.6342  -15.8092   15.8899 C   0  0  0  0  0  0  0  0  0  0  0  0
   10.3838  -17.0119   16.4103 C   0  0  0  0  0  0  0  0  0  0  0  0
   11.5944  -16.6153   17.2294 C   0  0  0  0  0  0  0  0  0  0  0  0
   12.2133  -17.8891   17.7490 C   0  0  2  0  0  0  0  0  0  0  0  0
   12.0500  -18.9074   16.7295 N   0  0  0  0  0  0  0  0  0  0  0  0
   11.6826  -18.3153   19.0487 C   0  0  0  0  0  0  0  0  0  0  0  0
   10.8493  -19.2364   19.1125 O   0  0  0  0  0  0  0  0  0  0  0  0
    6.4690  -17.2231   13.8807 N   0  0  0  0  0  0  0  0  0  0  0  0
   12.1194  -17.6782   20.2257 C   0  0  1  0  0  0  0  0  0  0  0  0
   11.6052  -18.0896   21.5090 C   0  0  0  0  0  0  0  0  0  0  0  0
   12.7642  -18.0905   22.4863 C   0  0  0  0  0  0  0  0  0  0  0  0
   13.6940  -19.2109   22.2306 C   0  0  0  0  0  0  0  0  0  0  0  0
   13.6677  -20.4199   22.8943 N   0  0  0  0  0  0  0  0  0  0  0  0
   14.6518  -21.1819   22.3994 C   0  0  0  0  0  0  0  0  0  0  0  0
   15.2832  -20.4707   21.4467 N   0  0  0  0  0  0  0  0  0  0  0  0
   14.6937  -19.2807   21.3551 C   0  0  0  0  0  0  0  0  0  0  0  0
   10.5151  -17.1789   21.9567 O   0  0  0  0  0  0  0  0  0  0  0  0
    9.9887  -17.3244   23.0888 C   0  0  0  0  0  0  0  0  0  0  0  0
    7.4096  -12.3509   19.4715 C   0  0  1  0  0  0  0  0  0  0  0  0
    7.5314  -13.3446   20.6172 C   0  0  0  0  0  0  0  0  0  0  0  0
    7.5671  -12.5420   21.8995 C   0  0  0  0  0  0  0  0  0  0  0  0
    8.7542  -14.1889   20.4309 C   0  0  2  0  0  0  0  0  0  0  0  0
    8.9024  -15.2919   21.4157 N   0  0  0  0  0  0  0  0  0  0  0  0
   10.0550  -16.1352   21.1138 C   0  0  0  0  0  0  0  0  0  0  0  0
    7.6924  -16.1015   21.6422 O   0  0  0  0  0  0  0  0  0  0  0  0
    7.4153  -17.0928   20.8797 O   0  0  0  0  0  0  0  0  0  0  0  0
  2  3  2  0
  2  1  1  0
  4  2  1  0
  5  4  1  0
  6  5  1  0
  7  6  1  0
  8  9  1  6
  8  7  1  0
 10 11  2  0
 10  8  1  0
 12 10  1  0
 13 12  1  0
 13 20  1  0
 13 14  1  1
 15 19  1  0
 15 14  1  0
 16 15  2  0
 17 16  1  0
 17 18  1  0
 18 19  2  0
 20 27  1  0
 21 20  2  0
 23 22  1  1
 23 25  1  0
 24 23  1  0
 26 25  1  1
 26 28  1  0
 27 26  1  0
 28 29  2  0
 28 30  1  0
M  END
$$$$
