RHL.pdb
     RDKit          3D

 30 30  0  0  1  0  0  0  0  0999 V2000
   10.1252  -14.7896   16.2511 N   0  0  0  0  0  0  0  0  0  0  0  0
    8.9598  -14.0326   15.9536 C   0  0  0  0  0  0  0  0  0  0  0  0
    8.6844  -13.6434   14.7482 N   0  0  0  0  0  0  0  0  0  0  0  0
    8.0461  -13.6745   16.9914 N   0  0  0  0  0  0  0  0  0  0  0  0
    8.1631  -14.1768   18.3473 C   0  0  0  0  0  0  0  0  0  0  0  0
    6.9977  -13.6281   19.1346 C   0  0  0  0  0  0  0  0  0  0  0  0
    6.9731  -14.1557   20.5541 C   0  0  0  0  0  0  0  0  0  0  0  0
    8.1433  -15.0969   20.6963 C   0  0  2  0  0  0  0  0  0  0  0  0
    8.0086  -16.1255   19.6829 N   0  0  0  0  0  0  0  0  0  0  0  0
    8.2866  -15.6608   22.0431 C   0  0  0  0  0  0  0  0  0  0  0  0
    7.3146  -15.6827   22.8187 O   0  0  0  0  0  0  0  0  0  0  0  0
    7.8728  -13.0608   14.5148 N   0  0  0  0  0  0  0  0  0  0  0  0
    9.5291  -16.1779   22.4565 C   0  0  1  0  0  0  0  0  0  0  0  0
    9.6926  -16.6969   23.7923 C   0  0  0  0  0  0  0  0  0  0  0  0
   10.8659  -17.6566   23.7689 C   0  0  0  0  0  0  0  0  0  0  0  0
   10.5157  -18.9320   23.1086 C   0  0  0  0  0  0  0  0  0  0  0  0
    9.2731  -19.2323   22.5903 N   0  0  0  0  0  0  0  0  0  0  0  0
    9.3303  -20.4672   22.0749 C   0  0  0  0  0  0  0  0  0  0  0  0
   10.5787  -20.9343   22.2635 N   0  0  0  0  0  0  0  0  0  0  0  0
   11.2849  -19.9956   22.8898 C   0  0  0  0  0  0  0  0  0  0  0  0
    9.9127  -15.5902   24.7645 O   0  0  0  0  0  0  0  0  0  0  0  0
   10.8320  -14.7534   24.5791 C   0  0  0  0  0  0  0  0  0  0  0  0
    8.2900  -11.9081   25.7490 C   0  0  2  0  0  0  0  0  0  0  0  0
    7.4050  -13.0522   26.2210 C   0  0  0  0  0  0  0  0  0  0  0  0
    6.0749  -12.4502   26.6186 C   0  0  0  0  0  0  0  0  0  0  0  0
    8.0703  -13.7780   27.3496 C   0  0  2  0  0  0  0  0  0  0  0  0
    9.3193  -14.4921   26.9772 N   0  0  0  0  0  0  0  0  0  0  0  0
    9.0895  -15.4640   25.9126 C   0  0  0  0  0  0  0  0  0  0  0  0
   10.0599  -15.0939   28.0998 O   0  0  0  0  0  0  0  0  0  0  0  0
   10.1412  -16.3661   28.2239 O   0  0  0  0  0  0  0  0  0  0  0  0
  2  3  2  0
  2  1  1  0
  4  2  1  0
  5  4  1  0
  6  5  1  0
  7  6  1  0
  8  9  1  6
  8  7  1  0
 10 11  2  0
 10  8  1  0
 12 10  1  0
 13 12  1  0
 13 20  1  0
 13 14  1  1
 15 19  1  0
 15 14  1  0
 16 15  2  0
 17 16  1  0
 17 18  1  0
 18 19  2  0
 20 27  1  0
 21 20  2  0
 23 22  1  6
 23 25  1  0
 24 23  1  0
 26 25  1  6
 26 28  1  0
 27 26  1  0
 28 29  2  0
 28 30  1  0
M  END
$$$$
