RHL.pdb
     RDKit          3D

 30 30  0  0  1  0  0  0  0  0999 V2000
    8.3539  -11.9278   19.3191 N   0  0  0  0  0  0  0  0  0  0  0  0
    8.4151  -13.0596   18.4617 C   0  0  0  0  0  0  0  0  0  0  0  0
    9.2022  -13.0979   17.4324 N   0  0  0  0  0  0  0  0  0  0  0  0
    7.5982  -14.2034   18.7150 N   0  0  0  0  0  0  0  0  0  0  0  0
    7.8700  -15.1388   19.7902 C   0  0  0  0  0  0  0  0  0  0  0  0
    7.0572  -14.7021   20.9852 C   0  0  0  0  0  0  0  0  0  0  0  0
    5.8912  -15.6321   21.2489 C   0  0  0  0  0  0  0  0  0  0  0  0
    6.4706  -16.9870   21.5718 C   0  0  2  0  0  0  0  0  0  0  0  0
    5.4689  -17.9843   21.2477 N   0  0  0  0  0  0  0  0  0  0  0  0
    6.9488  -17.1099   22.9534 C   0  0  0  0  0  0  0  0  0  0  0  0
    6.1412  -17.0903   23.8990 O   0  0  0  0  0  0  0  0  0  0  0  0
    9.3202  -13.9291   16.8428 N   0  0  0  0  0  0  0  0  0  0  0  0
    8.3266  -17.2502   23.2068 C   0  0  2  0  0  0  0  0  0  0  0  0
    8.8109  -17.3433   24.5623 C   0  0  0  0  0  0  0  0  0  0  0  0
    9.9105  -18.3867   24.5837 C   0  0  0  0  0  0  0  0  0  0  0  0
    9.3704  -19.7533   24.4221 C   0  0  0  0  0  0  0  0  0  0  0  0
    8.0332  -20.0560   24.2704 N   0  0  0  0  0  0  0  0  0  0  0  0
    7.9237  -21.3857   24.1527 C   0  0  0  0  0  0  0  0  0  0  0  0
    9.1618  -21.9088   24.2285 N   0  0  0  0  0  0  0  0  0  0  0  0
   10.0270  -20.9103   24.3913 C   0  0  0  0  0  0  0  0  0  0  0  0
    9.3045  -16.0209   25.0377 O   0  0  0  0  0  0  0  0  0  0  0  0
    9.1578  -14.9940   24.3280 C   0  0  0  0  0  0  0  0  0  0  0  0
    8.6371  -12.3782   26.5453 C   0  0  2  0  0  0  0  0  0  0  0  0
    7.6824  -13.5521   26.3854 C   0  0  0  0  0  0  0  0  0  0  0  0
    6.2915  -13.0376   26.6860 C   0  0  0  0  0  0  0  0  0  0  0  0
    8.0931  -14.6695   27.2939 C   0  0  2  0  0  0  0  0  0  0  0  0
    9.5541  -14.9401   27.3232 N   0  0  0  0  0  0  0  0  0  0  0  0
    9.9468  -15.9006   26.2965 C   0  0  0  0  0  0  0  0  0  0  0  0
   10.1000  -15.3121   28.6402 O   0  0  0  0  0  0  0  0  0  0  0  0
   10.5676  -14.4198   29.4312 O   0  0  0  0  0  0  0  0  0  0  0  0
  2  3  2  0
  2  1  1  0
  4  2  1  0
  5  4  1  0
  6  5  1  0
  7  6  1  0
  8  9  1  1
  8  7  1  0
 10 11  2  0
 10  8  1  0
 12 10  1  0
 13 12  1  0
 13 20  1  0
 13 14  1  6
 15 19  1  0
 15 14  1  0
 16 15  2  0
 17 16  1  0
 17 18  1  0
 18 19  2  0
 20 27  1  0
 21 20  2  0
 23 22  1  6
 23 25  1  0
 24 23  1  0
 26 25  1  6
 26 28  1  0
 27 26  1  0
 28 29  2  0
 28 30  1  0
M  END
$$$$
