RHL.pdb
     RDKit          3D

 30 30  0  0  1  0  0  0  0  0999 V2000
   12.0802  -22.3906   19.2121 N   0  0  0  0  0  0  0  0  0  0  0  0
   10.9201  -22.2751   18.3993 C   0  0  0  0  0  0  0  0  0  0  0  0
   10.5180  -23.2434   17.6371 N   0  0  0  0  0  0  0  0  0  0  0  0
   10.1539  -21.0697   18.4003 N   0  0  0  0  0  0  0  0  0  0  0  0
   10.0676  -20.1962   19.5554 C   0  0  0  0  0  0  0  0  0  0  0  0
   11.2087  -19.2119   19.4638 C   0  0  0  0  0  0  0  0  0  0  0  0
   10.7276  -17.7774   19.5317 C   0  0  0  0  0  0  0  0  0  0  0  0
   10.2969  -17.5224   20.9548 C   0  0  2  0  0  0  0  0  0  0  0  0
    9.0808  -18.2765   21.1901 N   0  0  0  0  0  0  0  0  0  0  0  0
   10.1386  -16.0999   21.2773 C   0  0  0  0  0  0  0  0  0  0  0  0
   11.0953  -15.3172   21.1401 O   0  0  0  0  0  0  0  0  0  0  0  0
    9.6787  -23.1882   17.0498 N   0  0  0  0  0  0  0  0  0  0  0  0
    8.8990  -15.6220   21.7432 C   0  0  1  0  0  0  0  0  0  0  0  0
    8.7435  -14.2339   22.1030 C   0  0  0  0  0  0  0  0  0  0  0  0
    7.5105  -13.7130   21.3913 C   0  0  0  0  0  0  0  0  0  0  0  0
    7.6622  -13.7710   19.9219 C   0  0  0  0  0  0  0  0  0  0  0  0
    8.0528  -12.7107   19.1306 N   0  0  0  0  0  0  0  0  0  0  0  0
    8.0785  -13.1337   17.8600 C   0  0  0  0  0  0  0  0  0  0  0  0
    7.7130  -14.4294   17.8504 N   0  0  0  0  0  0  0  0  0  0  0  0
    7.4642  -14.8018   19.1039 C   0  0  0  0  0  0  0  0  0  0  0  0
    8.6255  -14.0822   23.5800 O   0  0  0  0  0  0  0  0  0  0  0  0
    8.4168  -12.9522   24.0892 C   0  0  0  0  0  0  0  0  0  0  0  0
    8.0841  -12.4421   27.1080 C   0  0  2  0  0  0  0  0  0  0  0  0
    7.1298  -13.1145   26.1321 C   0  0  0  0  0  0  0  0  0  0  0  0
    5.7399  -12.6069   26.4489 C   0  0  0  0  0  0  0  0  0  0  0  0
    7.2422  -14.6029   26.2541 C   0  0  2  0  0  0  0  0  0  0  0  0
    8.5696  -15.1573   25.8811 N   0  0  0  0  0  0  0  0  0  0  0  0
    8.7465  -15.2088   24.4330 C   0  0  0  0  0  0  0  0  0  0  0  0
    8.9133  -16.4457   26.5078 O   0  0  0  0  0  0  0  0  0  0  0  0
    9.0459  -17.5043   25.7989 O   0  0  0  0  0  0  0  0  0  0  0  0
  2  3  2  0
  2  1  1  0
  4  2  1  0
  5  4  1  0
  6  5  1  0
  7  6  1  0
  8  9  1  6
  8  7  1  0
 10 11  2  0
 10  8  1  0
 12 10  1  0
 13 12  1  0
 13 20  1  0
 13 14  1  6
 15 19  1  0
 15 14  1  0
 16 15  2  0
 17 16  1  0
 17 18  1  0
 18 19  2  0
 20 27  1  0
 21 20  2  0
 23 22  1  6
 23 25  1  0
 24 23  1  0
 26 25  1  1
 26 28  1  0
 27 26  1  0
 28 29  2  0
 28 30  1  0
M  END
$$$$
