ACF.pdb
     RDKit          3D

 23 23  0  0  1  0  0  0  0  0999 V2000
   22.4230   -9.8582  -19.6043 C   0  0  0  0  0  0  0  0  0  0  0  0
   22.3268  -10.2387  -18.1584 C   0  0  2  0  0  0  0  0  0  0  0  0
   21.6360  -11.5092  -17.9805 N   0  0  0  0  0  0  0  0  0  0  0  0
   21.5973   -9.1587  -17.4203 C   0  0  0  0  0  0  0  0  0  0  0  0
   20.7677   -8.4107  -17.9816 O   0  0  0  0  0  0  0  0  0  0  0  0
   21.8162   -8.9331  -16.0377 N   0  0  0  0  0  0  0  0  0  0  0  0
   21.1572   -7.9229  -15.2979 C   0  0  1  0  0  0  0  0  0  0  0  0
   21.2705   -8.0394  -13.8097 C   0  0  0  0  0  0  0  0  0  0  0  0
   20.5460   -9.5742  -13.1755 S   0  0  0  0  0  0  0  0  0  0  0  0
   21.6851   -6.5900  -15.6876 C   0  0  0  0  0  0  0  0  0  0  0  0
   22.8570   -6.4963  -16.0963 O   0  0  0  0  0  0  0  0  0  0  0  0
   20.8866   -5.4088  -15.6076 N   0  0  0  0  0  0  0  0  0  0  0  0
   21.4222   -4.1445  -16.1117 C   0  0  1  0  0  0  0  0  0  0  0  0
   21.7469   -4.2469  -17.5656 C   0  0  0  0  0  0  0  0  0  0  0  0
   22.2107   -2.9414  -18.0789 C   0  0  0  0  0  0  0  0  0  0  0  0
   23.5136   -2.4949  -17.9589 C   0  0  0  0  0  0  0  0  0  0  0  0
   23.9240   -1.2784  -18.4541 C   0  0  0  0  0  0  0  0  0  0  0  0
   23.0262   -0.4538  -19.0973 C   0  0  0  0  0  0  0  0  0  0  0  0
   21.7191   -0.8526  -19.2415 C   0  0  0  0  0  0  0  0  0  0  0  0
   21.3428   -2.0702  -18.7370 C   0  0  0  0  0  0  0  0  0  0  0  0
   20.3824   -3.1299  -15.8915 C   0  0  0  0  0  0  0  0  0  0  0  0
   20.7113   -1.8081  -15.6065 O   0  0  0  0  0  0  0  0  0  0  0  0
   19.1744   -3.4545  -15.9601 O   0  0  0  0  0  0  0  0  0  0  0  0
  2  1  1  6
  3  2  1  0
  4  6  1  0
  4  2  1  0
  5  4  2  0
  7 10  1  0
  7  6  1  0
  7  8  1  1
  9  8  1  0
 10 12  1  0
 11 10  2  0
 12 13  1  0
 13 21  1  0
 13 14  1  6
 15 14  1  0
 16 15  2  0
 17 16  1  0
 18 19  1  0
 18 17  2  0
 19 20  2  0
 20 15  1  0
 21 22  1  0
 23 21  2  0
M  END
$$$$
