ACF.pdb
     RDKit          3D

 23 23  0  0  1  0  0  0  0  0999 V2000
   23.4906  -14.3286  -18.0249 C   0  0  0  0  0  0  0  0  0  0  0  0
   23.6338  -12.9412  -18.5719 C   0  0  2  0  0  0  0  0  0  0  0  0
   24.8642  -12.7883  -19.3374 N   0  0  0  0  0  0  0  0  0  0  0  0
   23.6220  -11.9677  -17.4338 C   0  0  0  0  0  0  0  0  0  0  0  0
   22.7127  -11.9554  -16.5761 O   0  0  0  0  0  0  0  0  0  0  0  0
   24.6519  -11.0060  -17.2754 N   0  0  0  0  0  0  0  0  0  0  0  0
   24.6494  -10.0200  -16.2605 C   0  0  1  0  0  0  0  0  0  0  0  0
   26.0004   -9.5526  -15.8161 C   0  0  0  0  0  0  0  0  0  0  0  0
   26.9598  -10.8633  -15.0131 S   0  0  0  0  0  0  0  0  0  0  0  0
   23.8885   -8.8292  -16.7194 C   0  0  0  0  0  0  0  0  0  0  0  0
   24.0107   -8.4469  -17.8975 O   0  0  0  0  0  0  0  0  0  0  0  0
   23.0182   -8.1073  -15.8472 N   0  0  0  0  0  0  0  0  0  0  0  0
   22.1704   -7.0483  -16.3943 C   0  0  1  0  0  0  0  0  0  0  0  0
   21.1569   -7.6116  -17.3353 C   0  0  0  0  0  0  0  0  0  0  0  0
   20.2793   -6.5375  -17.8440 C   0  0  0  0  0  0  0  0  0  0  0  0
   20.6784   -5.6115  -18.7899 C   0  0  0  0  0  0  0  0  0  0  0  0
   19.8390   -4.6256  -19.2556 C   0  0  0  0  0  0  0  0  0  0  0  0
   18.5486   -4.5328  -18.7802 C   0  0  0  0  0  0  0  0  0  0  0  0
   18.1045   -5.4299  -17.8388 C   0  0  0  0  0  0  0  0  0  0  0  0
   18.9656   -6.4000  -17.3959 C   0  0  0  0  0  0  0  0  0  0  0  0
   21.5048   -6.4097  -15.2503 C   0  0  0  0  0  0  0  0  0  0  0  0
   21.2145   -7.1243  -14.0921 O   0  0  0  0  0  0  0  0  0  0  0  0
   21.1900   -5.1988  -15.3126 O   0  0  0  0  0  0  0  0  0  0  0  0
  2  1  1  1
  3  2  1  0
  4  6  1  0
  4  2  1  0
  5  4  2  0
  7 10  1  0
  7  6  1  0
  7  8  1  6
  9  8  1  0
 10 12  1  0
 11 10  2  0
 12 13  1  0
 13 21  1  0
 13 14  1  6
 15 14  1  0
 16 15  2  0
 17 16  1  0
 18 19  1  0
 18 17  2  0
 19 20  2  0
 20 15  1  0
 21 22  1  0
 23 21  2  0
M  END
$$$$
