ACF.pdb
     RDKit          3D

 23 23  0  0  1  0  0  0  0  0999 V2000
   18.8219   -6.0361  -19.1789 C   0  0  0  0  0  0  0  0  0  0  0  0
   19.5239   -6.5983  -17.9806 C   0  0  2  0  0  0  0  0  0  0  0  0
   19.4158   -8.0503  -17.9248 N   0  0  0  0  0  0  0  0  0  0  0  0
   18.9279   -5.9990  -16.7441 C   0  0  0  0  0  0  0  0  0  0  0  0
   18.9644   -4.7708  -16.5140 O   0  0  0  0  0  0  0  0  0  0  0  0
   18.2889   -6.8051  -15.7682 N   0  0  0  0  0  0  0  0  0  0  0  0
   17.6572   -6.2814  -14.6154 C   0  0  1  0  0  0  0  0  0  0  0  0
   16.1846   -6.5333  -14.5198 C   0  0  0  0  0  0  0  0  0  0  0  0
   15.4966   -6.0339  -12.9197 S   0  0  0  0  0  0  0  0  0  0  0  0
   18.2914   -6.8449  -13.3958 C   0  0  0  0  0  0  0  0  0  0  0  0
   18.4681   -8.0743  -13.3154 O   0  0  0  0  0  0  0  0  0  0  0  0
   18.7061   -6.0165  -12.3090 N   0  0  0  0  0  0  0  0  0  0  0  0
   19.4214   -6.6150  -11.1822 C   0  0  1  0  0  0  0  0  0  0  0  0
   20.8760   -6.2821  -11.2389 C   0  0  0  0  0  0  0  0  0  0  0  0
   21.5917   -6.9266  -10.1186 C   0  0  0  0  0  0  0  0  0  0  0  0
   21.6921   -6.3692   -8.8574 C   0  0  0  0  0  0  0  0  0  0  0  0
   22.3563   -6.9937   -7.8266 C   0  0  0  0  0  0  0  0  0  0  0  0
   22.9531   -8.2194   -8.0291 C   0  0  0  0  0  0  0  0  0  0  0  0
   22.8816   -8.8147   -9.2656 C   0  0  0  0  0  0  0  0  0  0  0  0
   22.2124   -8.1664  -10.2708 C   0  0  0  0  0  0  0  0  0  0  0  0
   18.8190   -6.0630   -9.9609 C   0  0  0  0  0  0  0  0  0  0  0  0
   18.8370   -6.7705   -8.7628 O   0  0  0  0  0  0  0  0  0  0  0  0
   18.2769   -4.9341   -9.9922 O   0  0  0  0  0  0  0  0  0  0  0  0
  2  1  1  6
  3  2  1  0
  4  6  1  0
  4  2  1  0
  5  4  2  0
  7 10  1  0
  7  6  1  0
  7  8  1  6
  9  8  1  0
 10 12  1  0
 11 10  2  0
 12 13  1  0
 13 21  1  0
 13 14  1  6
 15 14  1  0
 16 15  2  0
 17 16  1  0
 18 19  1  0
 18 17  2  0
 19 20  2  0
 20 15  1  0
 21 22  1  0
 23 21  2  0
M  END
$$$$
