ACF.pdb
     RDKit          3D

 23 23  0  0  1  0  0  0  0  0999 V2000
   28.2842  -20.9459  -14.3952 C   0  0  0  0  0  0  0  0  0  0  0  0
   26.8228  -20.6176  -14.4286 C   0  0  2  0  0  0  0  0  0  0  0  0
   26.5204  -19.6073  -15.4342 N   0  0  0  0  0  0  0  0  0  0  0  0
   26.4051  -20.1264  -13.0768 C   0  0  0  0  0  0  0  0  0  0  0  0
   26.8418  -19.0610  -12.5901 O   0  0  0  0  0  0  0  0  0  0  0  0
   25.4861  -20.8545  -12.2792 N   0  0  0  0  0  0  0  0  0  0  0  0
   25.0286  -20.4123  -11.0154 C   0  0  1  0  0  0  0  0  0  0  0  0
   23.5781  -20.6557  -10.7365 C   0  0  0  0  0  0  0  0  0  0  0  0
   22.4922  -19.6053  -11.7368 S   0  0  0  0  0  0  0  0  0  0  0  0
   25.8119  -21.0720   -9.9390 C   0  0  0  0  0  0  0  0  0  0  0  0
   26.0137  -22.2987   -9.9990 O   0  0  0  0  0  0  0  0  0  0  0  0
   26.3422  -20.3394   -8.8338 N   0  0  0  0  0  0  0  0  0  0  0  0
   27.0229  -21.0577   -7.7566 C   0  0  1  0  0  0  0  0  0  0  0  0
   28.3913  -20.5044   -7.5307 C   0  0  0  0  0  0  0  0  0  0  0  0
   28.4846  -19.9060   -6.1831 C   0  0  0  0  0  0  0  0  0  0  0  0
   28.7577  -20.6373   -5.0421 C   0  0  0  0  0  0  0  0  0  0  0  0
   28.8492  -20.0554   -3.7985 C   0  0  0  0  0  0  0  0  0  0  0  0
   28.6663  -18.6969   -3.6542 C   0  0  0  0  0  0  0  0  0  0  0  0
   28.3922  -17.9265   -4.7586 C   0  0  0  0  0  0  0  0  0  0  0  0
   28.3079  -18.5370   -5.9828 C   0  0  0  0  0  0  0  0  0  0  0  0
   26.1987  -20.8879   -6.5520 C   0  0  0  0  0  0  0  0  0  0  0  0
   26.3156  -21.7533   -5.4686 O   0  0  0  0  0  0  0  0  0  0  0  0
   25.3728  -19.9479   -6.4928 O   0  0  0  0  0  0  0  0  0  0  0  0
  2  1  1  1
  3  2  1  0
  4  6  1  0
  4  2  1  0
  5  4  2  0
  7 10  1  0
  7  6  1  0
  7  8  1  1
  9  8  1  0
 10 12  1  0
 11 10  2  0
 12 13  1  0
 13 21  1  0
 13 14  1  1
 15 14  1  0
 16 15  2  0
 17 16  1  0
 18 19  1  0
 18 17  2  0
 19 20  2  0
 20 15  1  0
 21 22  1  0
 23 21  2  0
M  END
$$$$
