ACF.pdb
     RDKit          3D

 23 23  0  0  1  0  0  0  0  0999 V2000
   43.0468  -10.2128  -11.0053 C   0  0  0  0  0  0  0  0  0  0  0  0
   42.4378  -11.4007  -10.3252 C   0  0  2  0  0  0  0  0  0  0  0  0
   42.2693  -12.5195  -11.2434 N   0  0  0  0  0  0  0  0  0  0  0  0
   41.1083  -11.0064   -9.7591 C   0  0  0  0  0  0  0  0  0  0  0  0
   40.0744  -10.9535  -10.4597 O   0  0  0  0  0  0  0  0  0  0  0  0
   40.9601  -10.6721   -8.3891 N   0  0  0  0  0  0  0  0  0  0  0  0
   39.7305  -10.2773   -7.8108 C   0  0  1  0  0  0  0  0  0  0  0  0
   39.6160  -10.4955   -6.3342 C   0  0  0  0  0  0  0  0  0  0  0  0
   37.8956  -10.5159   -5.7660 S   0  0  0  0  0  0  0  0  0  0  0  0
   39.4925   -8.8345   -8.0735 C   0  0  0  0  0  0  0  0  0  0  0  0
   40.4673   -8.0737   -8.2150 O   0  0  0  0  0  0  0  0  0  0  0  0
   38.1750   -8.2918   -8.1691 N   0  0  0  0  0  0  0  0  0  0  0  0
   38.0038   -6.8518   -8.3602 C   0  0  1  0  0  0  0  0  0  0  0  0
   36.5977   -6.5304   -8.7466 C   0  0  0  0  0  0  0  0  0  0  0  0
   36.4393   -5.0735   -8.9335 C   0  0  0  0  0  0  0  0  0  0  0  0
   36.0214   -4.2178   -7.9312 C   0  0  0  0  0  0  0  0  0  0  0  0
   35.8908   -2.8620   -8.1270 C   0  0  0  0  0  0  0  0  0  0  0  0
   36.1795   -2.3085   -9.3558 C   0  0  0  0  0  0  0  0  0  0  0  0
   36.5984   -3.1175  -10.3846 C   0  0  0  0  0  0  0  0  0  0  0  0
   36.7183   -4.4638  -10.1566 C   0  0  0  0  0  0  0  0  0  0  0  0
   38.3390   -6.2150   -7.0790 C   0  0  0  0  0  0  0  0  0  0  0  0
   39.1499   -5.0855   -7.0237 O   0  0  0  0  0  0  0  0  0  0  0  0
   37.8893   -6.6934   -6.0121 O   0  0  0  0  0  0  0  0  0  0  0  0
  2  1  1  6
  3  2  1  0
  4  6  1  0
  4  2  1  0
  5  4  2  0
  7 10  1  0
  7  6  1  0
  7  8  1  1
  9  8  1  0
 10 12  1  0
 11 10  2  0
 12 13  1  0
 13 21  1  0
 13 14  1  1
 15 14  1  0
 16 15  2  0
 17 16  1  0
 18 19  1  0
 18 17  2  0
 19 20  2  0
 20 15  1  0
 21 22  1  0
 23 21  2  0
M  END
$$$$
