ACF.pdb
     RDKit          3D

 23 23  0  0  1  0  0  0  0  0999 V2000
   30.0743  -23.8950  -17.3174 C   0  0  0  0  0  0  0  0  0  0  0  0
   29.0092  -22.9088  -17.6884 C   0  0  2  0  0  0  0  0  0  0  0  0
   29.4584  -21.9984  -18.7337 N   0  0  0  0  0  0  0  0  0  0  0  0
   28.6250  -22.1285  -16.4690 C   0  0  0  0  0  0  0  0  0  0  0  0
   29.0147  -22.4453  -15.3243 O   0  0  0  0  0  0  0  0  0  0  0  0
   27.7935  -20.9834  -16.5581 N   0  0  0  0  0  0  0  0  0  0  0  0
   27.4096  -20.2088  -15.4379 C   0  0  1  0  0  0  0  0  0  0  0  0
   27.4586  -18.7257  -15.6356 C   0  0  0  0  0  0  0  0  0  0  0  0
   26.6778  -17.8172  -14.2762 S   0  0  0  0  0  0  0  0  0  0  0  0
   26.0253  -20.5644  -15.0324 C   0  0  0  0  0  0  0  0  0  0  0  0
   25.1261  -20.5841  -15.8928 O   0  0  0  0  0  0  0  0  0  0  0  0
   25.6933  -20.8853  -13.6811 N   0  0  0  0  0  0  0  0  0  0  0  0
   24.3398  -21.3394  -13.3627 C   0  0  1  0  0  0  0  0  0  0  0  0
   24.3547  -22.2864  -12.2083 C   0  0  0  0  0  0  0  0  0  0  0  0
   25.0361  -21.6709  -11.0510 C   0  0  0  0  0  0  0  0  0  0  0  0
   26.4046  -21.7174  -10.8595 C   0  0  0  0  0  0  0  0  0  0  0  0
   27.0176  -21.1277   -9.7778 C   0  0  0  0  0  0  0  0  0  0  0  0
   26.2662  -20.4600   -8.8348 C   0  0  0  0  0  0  0  0  0  0  0  0
   24.9017  -20.3862   -8.9802 C   0  0  0  0  0  0  0  0  0  0  0  0
   24.3223  -20.9841  -10.0691 C   0  0  0  0  0  0  0  0  0  0  0  0
   23.5617  -20.1387  -13.0275 C   0  0  0  0  0  0  0  0  0  0  0  0
   22.1713  -20.1692  -12.9779 O   0  0  0  0  0  0  0  0  0  0  0  0
   24.1554  -19.0636  -12.7805 O   0  0  0  0  0  0  0  0  0  0  0  0
  2  1  1  1
  3  2  1  0
  4  6  1  0
  4  2  1  0
  5  4  2  0
  7 10  1  0
  7  6  1  0
  7  8  1  6
  9  8  1  0
 10 12  1  0
 11 10  2  0
 12 13  1  0
 13 21  1  0
 13 14  1  1
 15 14  1  0
 16 15  2  0
 17 16  1  0
 18 19  1  0
 18 17  2  0
 19 20  2  0
 20 15  1  0
 21 22  1  0
 23 21  2  0
M  END
$$$$
