ACF.pdb
     RDKit          3D

 23 23  0  0  1  0  0  0  0  0999 V2000
   16.1008  -12.0734  -14.8408 C   0  0  0  0  0  0  0  0  0  0  0  0
   16.6724  -12.2592  -16.2132 C   0  0  2  0  0  0  0  0  0  0  0  0
   16.9428  -13.6622  -16.4988 N   0  0  0  0  0  0  0  0  0  0  0  0
   17.9394  -11.4678  -16.3219 C   0  0  0  0  0  0  0  0  0  0  0  0
   19.0254  -11.8808  -15.8606 O   0  0  0  0  0  0  0  0  0  0  0  0
   17.9654  -10.2014  -16.9593 N   0  0  0  0  0  0  0  0  0  0  0  0
   19.1469   -9.4453  -17.1447 C   0  0  1  0  0  0  0  0  0  0  0  0
   19.3033   -8.8194  -18.4956 C   0  0  0  0  0  0  0  0  0  0  0  0
   20.8606   -7.9086  -18.6634 S   0  0  0  0  0  0  0  0  0  0  0  0
   19.2111   -8.3584  -16.1338 C   0  0  0  0  0  0  0  0  0  0  0  0
   18.1627   -7.7768  -15.7994 O   0  0  0  0  0  0  0  0  0  0  0  0
   20.4429   -7.9590  -15.5318 N   0  0  0  0  0  0  0  0  0  0  0  0
   20.4314   -6.9449  -14.4778 C   0  0  1  0  0  0  0  0  0  0  0  0
   21.6602   -7.0405  -13.6347 C   0  0  0  0  0  0  0  0  0  0  0  0
   22.8668   -7.0320  -14.4872 C   0  0  0  0  0  0  0  0  0  0  0  0
   23.5219   -8.1803  -14.8919 C   0  0  0  0  0  0  0  0  0  0  0  0
   24.6391   -8.1471  -15.6946 C   0  0  0  0  0  0  0  0  0  0  0  0
   25.1465   -6.9404  -16.1259 C   0  0  0  0  0  0  0  0  0  0  0  0
   24.5310   -5.7705  -15.7504 C   0  0  0  0  0  0  0  0  0  0  0  0
   23.4201   -5.8384  -14.9505 C   0  0  0  0  0  0  0  0  0  0  0  0
   20.3749   -5.6399  -15.1509 C   0  0  0  0  0  0  0  0  0  0  0  0
   20.1592   -4.4663  -14.4349 O   0  0  0  0  0  0  0  0  0  0  0  0
   20.5229   -5.5756  -16.3932 O   0  0  0  0  0  0  0  0  0  0  0  0
  2  1  1  1
  3  2  1  0
  4  6  1  0
  4  2  1  0
  5  4  2  0
  7 10  1  0
  7  6  1  0
  7  8  1  6
  9  8  1  0
 10 12  1  0
 11 10  2  0
 12 13  1  0
 13 21  1  0
 13 14  1  6
 15 14  1  0
 16 15  2  0
 17 16  1  0
 18 19  1  0
 18 17  2  0
 19 20  2  0
 20 15  1  0
 21 22  1  0
 23 21  2  0
M  END
$$$$
