ACF.pdb
     RDKit          3D

 23 23  0  0  1  0  0  0  0  0999 V2000
   11.0201  -12.3029  -12.0526 C   0  0  0  0  0  0  0  0  0  0  0  0
   12.4920  -12.0965  -11.8636 C   0  0  2  0  0  0  0  0  0  0  0  0
   12.9857  -12.7899  -10.6810 N   0  0  0  0  0  0  0  0  0  0  0  0
   12.7638  -10.6289  -11.7396 C   0  0  0  0  0  0  0  0  0  0  0  0
   12.4621   -9.8163  -12.6404 O   0  0  0  0  0  0  0  0  0  0  0  0
   13.3818  -10.0886  -10.5834 N   0  0  0  0  0  0  0  0  0  0  0  0
   13.6531   -8.7100  -10.4157 C   0  0  1  0  0  0  0  0  0  0  0  0
   13.0117   -8.0697   -9.2243 C   0  0  0  0  0  0  0  0  0  0  0  0
   13.4010   -8.9311   -7.6785 S   0  0  0  0  0  0  0  0  0  0  0  0
   15.1195   -8.4965  -10.3078 C   0  0  0  0  0  0  0  0  0  0  0  0
   15.8431   -9.4327   -9.9219 O   0  0  0  0  0  0  0  0  0  0  0  0
   15.7264   -7.2458  -10.6346 N   0  0  0  0  0  0  0  0  0  0  0  0
   17.1834   -7.1231  -10.5964 C   0  0  1  0  0  0  0  0  0  0  0  0
   17.7758   -7.4043  -11.9379 C   0  0  0  0  0  0  0  0  0  0  0  0
   19.2265   -7.1250  -11.9247 C   0  0  0  0  0  0  0  0  0  0  0  0
   19.7737   -5.9183  -12.3197 C   0  0  0  0  0  0  0  0  0  0  0  0
   21.1284   -5.6786  -12.2892 C   0  0  0  0  0  0  0  0  0  0  0  0
   21.9955   -6.6577  -11.8544 C   0  0  0  0  0  0  0  0  0  0  0  0
   21.5004   -7.8746  -11.4515 C   0  0  0  0  0  0  0  0  0  0  0  0
   20.1461   -8.0812  -11.4940 C   0  0  0  0  0  0  0  0  0  0  0  0
   17.4783   -5.7428  -10.1877 C   0  0  0  0  0  0  0  0  0  0  0  0
   18.4982   -5.4588   -9.2845 O   0  0  0  0  0  0  0  0  0  0  0  0
   16.8022   -4.7987  -10.6577 O   0  0  0  0  0  0  0  0  0  0  0  0
  2  1  1  1
  3  2  1  0
  4  6  1  0
  4  2  1  0
  5  4  2  0
  7 10  1  0
  7  6  1  0
  7  8  1  1
  9  8  1  0
 10 12  1  0
 11 10  2  0
 12 13  1  0
 13 21  1  0
 13 14  1  6
 15 14  1  0
 16 15  2  0
 17 16  1  0
 18 19  1  0
 18 17  2  0
 19 20  2  0
 20 15  1  0
 21 22  1  0
 23 21  2  0
M  END
$$$$
