ACF.pdb
     RDKit          3D

 23 23  0  0  1  0  0  0  0  0999 V2000
   28.2910  -27.0067  -17.1173 C   0  0  0  0  0  0  0  0  0  0  0  0
   27.4408  -27.9074  -16.2744 C   0  0  2  0  0  0  0  0  0  0  0  0
   27.3639  -29.2519  -16.8311 N   0  0  0  0  0  0  0  0  0  0  0  0
   26.0657  -27.3223  -16.1742 C   0  0  0  0  0  0  0  0  0  0  0  0
   25.8663  -26.1500  -15.7885 O   0  0  0  0  0  0  0  0  0  0  0  0
   24.9159  -28.0786  -16.5155 N   0  0  0  0  0  0  0  0  0  0  0  0
   23.5993  -27.5625  -16.4654 C   0  0  1  0  0  0  0  0  0  0  0  0
   23.0469  -27.0844  -17.7720 C   0  0  0  0  0  0  0  0  0  0  0  0
   23.2254  -25.2943  -17.9887 S   0  0  0  0  0  0  0  0  0  0  0  0
   22.6742  -28.5976  -15.9362 C   0  0  0  0  0  0  0  0  0  0  0  0
   22.7838  -29.7716  -16.3349 O   0  0  0  0  0  0  0  0  0  0  0  0
   21.6596  -28.2860  -14.9808 N   0  0  0  0  0  0  0  0  0  0  0  0
   20.7809  -29.3492  -14.4940 C   0  0  1  0  0  0  0  0  0  0  0  0
   20.4460  -29.1440  -13.0533 C   0  0  0  0  0  0  0  0  0  0  0  0
   21.5803  -29.5560  -12.2012 C   0  0  0  0  0  0  0  0  0  0  0  0
   22.1038  -30.8356  -12.1959 C   0  0  0  0  0  0  0  0  0  0  0  0
   23.1679  -31.1929  -11.3998 C   0  0  0  0  0  0  0  0  0  0  0  0
   23.7531  -30.2634  -10.5673 C   0  0  0  0  0  0  0  0  0  0  0  0
   23.2686  -28.9778  -10.5363 C   0  0  0  0  0  0  0  0  0  0  0  0
   22.2078  -28.6543  -11.3417 C   0  0  0  0  0  0  0  0  0  0  0  0
   19.5625  -29.2957  -15.3136 C   0  0  0  0  0  0  0  0  0  0  0  0
   19.2763  -28.1922  -16.1116 O   0  0  0  0  0  0  0  0  0  0  0  0
   18.7615  -30.2588  -15.2981 O   0  0  0  0  0  0  0  0  0  0  0  0
  2  1  1  6
  3  2  1  0
  4  6  1  0
  4  2  1  0
  5  4  2  0
  7 10  1  0
  7  6  1  0
  7  8  1  6
  9  8  1  0
 10 12  1  0
 11 10  2  0
 12 13  1  0
 13 21  1  0
 13 14  1  1
 15 14  1  0
 16 15  2  0
 17 16  1  0
 18 19  1  0
 18 17  2  0
 19 20  2  0
 20 15  1  0
 21 22  1  0
 23 21  2  0
M  END
$$$$
