ACF.pdb
     RDKit          3D

 23 23  0  0  1  0  0  0  0  0999 V2000
   16.5445  -13.8267  -19.8235 C   0  0  0  0  0  0  0  0  0  0  0  0
   15.7852  -12.5617  -20.0842 C   0  0  2  0  0  0  0  0  0  0  0  0
   15.2714  -12.5128  -21.4468 N   0  0  0  0  0  0  0  0  0  0  0  0
   16.6915  -11.3938  -19.8433 C   0  0  0  0  0  0  0  0  0  0  0  0
   17.9060  -11.4202  -20.1382 O   0  0  0  0  0  0  0  0  0  0  0  0
   16.2087  -10.1930  -19.2641 N   0  0  0  0  0  0  0  0  0  0  0  0
   16.9820   -9.0129  -19.1559 C   0  0  1  0  0  0  0  0  0  0  0  0
   16.2217   -7.7316  -19.3012 C   0  0  0  0  0  0  0  0  0  0  0  0
   15.3611   -7.6106  -20.8911 S   0  0  0  0  0  0  0  0  0  0  0  0
   17.6698   -8.9825  -17.8393 C   0  0  0  0  0  0  0  0  0  0  0  0
   17.1173   -9.5028  -16.8529 O   0  0  0  0  0  0  0  0  0  0  0  0
   18.9500   -8.3726  -17.6703 N   0  0  0  0  0  0  0  0  0  0  0  0
   19.6122   -8.4423  -16.3679 C   0  0  1  0  0  0  0  0  0  0  0  0
   21.0890   -8.5921  -16.5299 C   0  0  0  0  0  0  0  0  0  0  0  0
   21.7486   -8.6131  -15.2081 C   0  0  0  0  0  0  0  0  0  0  0  0
   22.0637   -9.7773  -14.5323 C   0  0  0  0  0  0  0  0  0  0  0  0
   22.6873   -9.7713  -13.3056 C   0  0  0  0  0  0  0  0  0  0  0  0
   23.0216   -8.5770  -12.7043 C   0  0  0  0  0  0  0  0  0  0  0  0
   22.7290   -7.3922  -13.3360 C   0  0  0  0  0  0  0  0  0  0  0  0
   22.1076   -7.4330  -14.5570 C   0  0  0  0  0  0  0  0  0  0  0  0
   19.3002   -7.1873  -15.6701 C   0  0  0  0  0  0  0  0  0  0  0  0
   19.2097   -7.1354  -14.2824 O   0  0  0  0  0  0  0  0  0  0  0  0
   19.1109   -6.1403  -16.3313 O   0  0  0  0  0  0  0  0  0  0  0  0
  2  1  1  6
  3  2  1  0
  4  6  1  0
  4  2  1  0
  5  4  2  0
  7 10  1  0
  7  6  1  0
  7  8  1  1
  9  8  1  0
 10 12  1  0
 11 10  2  0
 12 13  1  0
 13 21  1  0
 13 14  1  6
 15 14  1  0
 16 15  2  0
 17 16  1  0
 18 19  1  0
 18 17  2  0
 19 20  2  0
 20 15  1  0
 21 22  1  0
 23 21  2  0
M  END
$$$$
