HYM.pdb
     RDKit          3D

 31 32  0  0  1  0  0  0  0  0999 V2000
    8.9026  -16.8270   19.8973 N   0  0  0  0  0  0  0  0  0  0  0  0
    9.0646  -15.6487   20.7645 C   0  0  1  0  0  0  0  0  0  0  0  0
    7.8999  -14.7426   20.4224 C   0  0  0  0  0  0  0  0  0  0  0  0
    8.1209  -14.2464   19.0373 C   0  0  0  0  0  0  0  0  0  0  0  0
    8.8845  -13.1358   18.6687 C   0  0  0  0  0  0  0  0  0  0  0  0
    8.8514  -13.0018   17.3459 N   0  0  0  0  0  0  0  0  0  0  0  0
    8.0824  -14.0007   16.8391 C   0  0  0  0  0  0  0  0  0  0  0  0
    7.6551  -14.7356   17.8796 N   0  0  0  0  0  0  0  0  0  0  0  0
    9.0022  -16.1231   22.1612 C   0  0  0  0  0  0  0  0  0  0  0  0
    7.9141  -16.4741   22.7123 O   0  0  0  0  0  0  0  0  0  0  0  0
    9.7879  -22.3428   21.1441 O   0  0  0  0  0  0  0  0  0  0  0  0
   10.1296  -21.2623   21.9433 C   0  0  0  0  0  0  0  0  0  0  0  0
    9.5998  -21.1544   23.2120 C   0  0  0  0  0  0  0  0  0  0  0  0
    9.9362  -20.0817   24.0115 C   0  0  0  0  0  0  0  0  0  0  0  0
   10.8193  -19.1196   23.5026 C   0  0  0  0  0  0  0  0  0  0  0  0
   11.1841  -17.9511   24.3270 C   0  0  0  0  0  0  0  0  0  0  0  0
   10.1909  -16.8410   24.2615 C   0  0  2  0  0  0  0  0  0  0  0  0
   10.1617  -16.2081   22.9527 N   0  0  0  0  0  0  0  0  0  0  0  0
   10.3681  -15.8525   25.3344 C   0  0  0  0  0  0  0  0  0  0  0  0
   11.2301  -14.9465   25.2987 O   0  0  0  0  0  0  0  0  0  0  0  0
   11.3415  -19.2394   22.2327 C   0  0  0  0  0  0  0  0  0  0  0  0
   11.0047  -20.3152   21.4301 C   0  0  0  0  0  0  0  0  0  0  0  0
    5.7095  -11.5644   26.2828 C   0  0  0  0  0  0  0  0  0  0  0  0
    6.4434  -12.5986   27.5496 S   0  0  0  0  0  0  0  0  0  0  0  0
    7.9316  -13.4508   26.9866 C   0  0  0  0  0  0  0  0  0  0  0  0
    8.5238  -14.3356   28.0304 C   0  0  0  0  0  0  0  0  0  0  0  0
    9.8384  -14.9722   27.6377 C   0  0  2  0  0  0  0  0  0  0  0  0
    9.5425  -15.8661   26.5180 N   0  0  0  0  0  0  0  0  0  0  0  0
   10.4883  -15.7209   28.7050 C   0  0  0  0  0  0  0  0  0  0  0  0
   10.4707  -16.9734   28.7137 O   0  0  0  0  0  0  0  0  0  0  0  0
   11.1406  -15.0709   29.7337 O   0  0  0  0  0  0  0  0  0  0  0  0
  2  1  1  6
  3  2  1  0
  3  4  1  0
  4  8  1  0
  4  5  2  0
  5  6  1  0
  7  6  1  0
  8  7  2  0
  9 18  1  0
  9  2  1  0
 10  9  2  0
 11 12  1  0
 12 13  2  0
 13 14  1  0
 15 16  1  0
 15 14  2  0
 17 16  1  6
 17 18  1  0
 19 17  1  0
 20 19  2  0
 21 15  1  0
 22 21  2  0
 22 12  1  0
 23 24  1  0
 24 25  1  0
 27 26  1  1
 26 25  1  0
 27 28  1  0
 28 19  1  0
 29 31  1  0
 29 27  1  0
 30 29  2  0
M  END
$$$$
