HYM.pdb
     RDKit          3D

 31 32  0  0  1  0  0  0  0  0999 V2000
    8.2934  -18.9923   18.6693 N   0  0  0  0  0  0  0  0  0  0  0  0
    8.4453  -17.7029   19.3627 C   0  0  1  0  0  0  0  0  0  0  0  0
    7.4613  -16.7714   18.6857 C   0  0  0  0  0  0  0  0  0  0  0  0
    7.9763  -16.5087   17.3147 C   0  0  0  0  0  0  0  0  0  0  0  0
    9.2412  -16.0135   16.9873 C   0  0  0  0  0  0  0  0  0  0  0  0
    9.3418  -15.9108   15.6651 N   0  0  0  0  0  0  0  0  0  0  0  0
    8.1700  -16.3279   15.1185 C   0  0  0  0  0  0  0  0  0  0  0  0
    7.3653  -16.6824   16.1344 N   0  0  0  0  0  0  0  0  0  0  0  0
    8.1047  -17.9278   20.7816 C   0  0  0  0  0  0  0  0  0  0  0  0
    6.9093  -18.0882   21.1769 O   0  0  0  0  0  0  0  0  0  0  0  0
    8.4619  -20.2076   29.1919 O   0  0  0  0  0  0  0  0  0  0  0  0
    8.6801  -20.0074   27.8372 C   0  0  0  0  0  0  0  0  0  0  0  0
    7.6276  -20.1089   26.9519 C   0  0  0  0  0  0  0  0  0  0  0  0
    7.8387  -19.9107   25.6031 C   0  0  0  0  0  0  0  0  0  0  0  0
    9.1358  -19.6077   25.1669 C   0  0  0  0  0  0  0  0  0  0  0  0
    9.3970  -19.4080   23.7281 C   0  0  0  0  0  0  0  0  0  0  0  0
    8.8187  -18.1451   23.1862 C   0  0  2  0  0  0  0  0  0  0  0  0
    9.1036  -17.9749   21.7705 N   0  0  0  0  0  0  0  0  0  0  0  0
    9.2104  -16.9594   23.9611 C   0  0  0  0  0  0  0  0  0  0  0  0
   10.3516  -16.4497   23.9079 O   0  0  0  0  0  0  0  0  0  0  0  0
   10.1789  -19.5092   26.0623 C   0  0  0  0  0  0  0  0  0  0  0  0
    9.9680  -19.7078   27.4155 C   0  0  0  0  0  0  0  0  0  0  0  0
    6.5208  -10.0450   25.5055 C   0  0  0  0  0  0  0  0  0  0  0  0
    6.2190  -11.8000   25.7102 S   0  0  0  0  0  0  0  0  0  0  0  0
    7.7232  -12.7906   25.5918 C   0  0  0  0  0  0  0  0  0  0  0  0
    7.4705  -14.2511   25.7532 C   0  0  0  0  0  0  0  0  0  0  0  0
    8.7013  -15.1182   25.6078 C   0  0  2  0  0  0  0  0  0  0  0  0
    8.2845  -16.2970   24.8482 N   0  0  0  0  0  0  0  0  0  0  0  0
    9.2988  -15.5333   26.8697 C   0  0  0  0  0  0  0  0  0  0  0  0
    8.9915  -16.6274   27.3967 O   0  0  0  0  0  0  0  0  0  0  0  0
   10.2191  -14.7334   27.5174 O   0  0  0  0  0  0  0  0  0  0  0  0
  2  1  1  6
  3  2  1  0
  3  4  1  0
  4  8  1  0
  4  5  2  0
  5  6  1  0
  7  6  1  0
  8  7  2  0
  9 18  1  0
  9  2  1  0
 10  9  2  0
 11 12  1  0
 12 13  2  0
 13 14  1  0
 15 16  1  0
 15 14  2  0
 17 16  1  1
 17 18  1  0
 19 17  1  0
 20 19  2  0
 21 15  1  0
 22 21  2  0
 22 12  1  0
 23 24  1  0
 24 25  1  0
 27 26  1  1
 26 25  1  0
 27 28  1  0
 28 19  1  0
 29 31  1  0
 29 27  1  0
 30 29  2  0
M  END
$$$$
