HYM.pdb
     RDKit          3D

 31 32  0  0  1  0  0  0  0  0999 V2000
    9.2543  -16.6919   19.3106 N   0  0  0  0  0  0  0  0  0  0  0  0
    9.0954  -15.6970   20.3837 C   0  0  1  0  0  0  0  0  0  0  0  0
    7.7182  -15.1030   20.1716 C   0  0  0  0  0  0  0  0  0  0  0  0
    7.7644  -14.3274   18.9027 C   0  0  0  0  0  0  0  0  0  0  0  0
    8.2406  -13.0230   18.7478 C   0  0  0  0  0  0  0  0  0  0  0  0
    8.1243  -12.6636   17.4725 N   0  0  0  0  0  0  0  0  0  0  0  0
    7.5820  -13.7044   16.7880 C   0  0  0  0  0  0  0  0  0  0  0  0
    7.3751  -14.6935   17.6735 N   0  0  0  0  0  0  0  0  0  0  0  0
    9.1920  -16.4204   21.6671 C   0  0  0  0  0  0  0  0  0  0  0  0
    8.2553  -17.1565   22.1051 O   0  0  0  0  0  0  0  0  0  0  0  0
   10.9944  -22.3200   20.1835 O   0  0  0  0  0  0  0  0  0  0  0  0
   11.1666  -21.2393   21.0351 C   0  0  0  0  0  0  0  0  0  0  0  0
   11.9155  -20.1565   20.6244 C   0  0  0  0  0  0  0  0  0  0  0  0
   12.0903  -19.0786   21.4674 C   0  0  0  0  0  0  0  0  0  0  0  0
   11.4925  -19.1171   22.7346 C   0  0  0  0  0  0  0  0  0  0  0  0
   11.6762  -17.9870   23.6659 C   0  0  0  0  0  0  0  0  0  0  0  0
   10.5107  -17.0585   23.7149 C   0  0  2  0  0  0  0  0  0  0  0  0
   10.3419  -16.3244   22.4711 N   0  0  0  0  0  0  0  0  0  0  0  0
   10.5491  -16.1548   24.8731 C   0  0  0  0  0  0  0  0  0  0  0  0
   11.4085  -15.2570   25.0162 O   0  0  0  0  0  0  0  0  0  0  0  0
   10.7465  -20.2055   23.1326 C   0  0  0  0  0  0  0  0  0  0  0  0
   10.5707  -21.2872   22.2876 C   0  0  0  0  0  0  0  0  0  0  0  0
    7.0691  -10.7365   25.8654 C   0  0  0  0  0  0  0  0  0  0  0  0
    6.9231  -12.4409   26.4009 S   0  0  0  0  0  0  0  0  0  0  0  0
    8.5132  -13.1847   26.8210 C   0  0  0  0  0  0  0  0  0  0  0  0
    8.3981  -14.6196   27.2095 C   0  0  0  0  0  0  0  0  0  0  0  0
    9.6926  -15.3967   27.1209 C   0  0  2  0  0  0  0  0  0  0  0  0
    9.5788  -16.2489   25.9372 N   0  0  0  0  0  0  0  0  0  0  0  0
    9.9851  -16.2160   28.2893 C   0  0  0  0  0  0  0  0  0  0  0  0
    9.8230  -17.4578   28.2599 O   0  0  0  0  0  0  0  0  0  0  0  0
   10.4489  -15.6466   29.4585 O   0  0  0  0  0  0  0  0  0  0  0  0
  2  1  1  6
  3  2  1  0
  3  4  1  0
  4  8  1  0
  4  5  2  0
  5  6  1  0
  7  6  1  0
  8  7  2  0
  9 18  1  0
  9  2  1  0
 10  9  2  0
 11 12  1  0
 12 13  2  0
 13 14  1  0
 15 16  1  0
 15 14  2  0
 17 16  1  6
 17 18  1  0
 19 17  1  0
 20 19  2  0
 21 15  1  0
 22 21  2  0
 22 12  1  0
 23 24  1  0
 24 25  1  0
 27 26  1  1
 26 25  1  0
 27 28  1  0
 28 19  1  0
 29 31  1  0
 29 27  1  0
 30 29  2  0
M  END
$$$$
