HYM.pdb
     RDKit          3D

 31 32  0  0  1  0  0  0  0  0999 V2000
    9.1222  -17.5534   18.6997 N   0  0  0  0  0  0  0  0  0  0  0  0
    9.2510  -16.4655   19.6827 C   0  0  1  0  0  0  0  0  0  0  0  0
    7.9609  -15.6793   19.5739 C   0  0  0  0  0  0  0  0  0  0  0  0
    8.3311  -14.2532   19.3667 C   0  0  0  0  0  0  0  0  0  0  0  0
    9.6277  -13.7367   19.3003 C   0  0  0  0  0  0  0  0  0  0  0  0
    9.5654  -12.4224   19.1058 N   0  0  0  0  0  0  0  0  0  0  0  0
    8.2558  -12.0661   19.0432 C   0  0  0  0  0  0  0  0  0  0  0  0
    7.5340  -13.1880   19.2033 N   0  0  0  0  0  0  0  0  0  0  0  0
    9.4039  -17.0929   21.0104 C   0  0  0  0  0  0  0  0  0  0  0  0
    8.5399  -17.8897   21.4896 O   0  0  0  0  0  0  0  0  0  0  0  0
   12.4051  -22.8046   20.0503 O   0  0  0  0  0  0  0  0  0  0  0  0
   12.3281  -21.6453   20.8074 C   0  0  0  0  0  0  0  0  0  0  0  0
   12.8183  -20.4612   20.2982 C   0  0  0  0  0  0  0  0  0  0  0  0
   12.7445  -19.3048   21.0468 C   0  0  0  0  0  0  0  0  0  0  0  0
   12.1647  -19.3694   22.3213 C   0  0  0  0  0  0  0  0  0  0  0  0
   12.0875  -18.1531   23.1535 C   0  0  0  0  0  0  0  0  0  0  0  0
   10.7613  -17.4741   23.0965 C   0  0  2  0  0  0  0  0  0  0  0  0
   10.5290  -16.8318   21.8128 N   0  0  0  0  0  0  0  0  0  0  0  0
   10.5490  -16.5414   24.2121 C   0  0  0  0  0  0  0  0  0  0  0  0
   11.1672  -15.4603   24.3313 O   0  0  0  0  0  0  0  0  0  0  0  0
   11.6786  -20.5595   22.8183 C   0  0  0  0  0  0  0  0  0  0  0  0
   11.7523  -21.7199   22.0680 C   0  0  0  0  0  0  0  0  0  0  0  0
    6.5093  -11.4972   25.7488 C   0  0  0  0  0  0  0  0  0  0  0  0
    6.5434  -13.2153   26.2588 S   0  0  0  0  0  0  0  0  0  0  0  0
    8.1654  -13.9789   26.0492 C   0  0  0  0  0  0  0  0  0  0  0  0
    8.2182  -15.3788   26.5597 C   0  0  0  0  0  0  0  0  0  0  0  0
    9.5857  -16.0205   26.4840 C   0  0  2  0  0  0  0  0  0  0  0  0
    9.5958  -16.8204   25.2591 N   0  0  0  0  0  0  0  0  0  0  0  0
    9.9198  -16.8638   27.6238 C   0  0  0  0  0  0  0  0  0  0  0  0
    9.8351  -18.1113   27.5465 O   0  0  0  0  0  0  0  0  0  0  0  0
   10.3389  -16.3116   28.8178 O   0  0  0  0  0  0  0  0  0  0  0  0
  2  1  1  6
  3  2  1  0
  3  4  1  0
  4  8  1  0
  4  5  2  0
  5  6  1  0
  7  6  1  0
  8  7  2  0
  9 18  1  0
  9  2  1  0
 10  9  2  0
 11 12  1  0
 12 13  2  0
 13 14  1  0
 15 16  1  0
 15 14  2  0
 17 16  1  6
 17 18  1  0
 19 17  1  0
 20 19  2  0
 21 15  1  0
 22 21  2  0
 22 12  1  0
 23 24  1  0
 24 25  1  0
 27 26  1  1
 26 25  1  0
 27 28  1  0
 28 19  1  0
 29 31  1  0
 29 27  1  0
 30 29  2  0
M  END
$$$$
