HYM.pdb
     RDKit          3D

 31 32  0  0  1  0  0  0  0  0999 V2000
   10.5329  -17.6886   18.4892 N   0  0  0  0  0  0  0  0  0  0  0  0
   10.0643  -18.3065   19.7403 C   0  0  1  0  0  0  0  0  0  0  0  0
   11.0766  -19.3900   20.0497 C   0  0  0  0  0  0  0  0  0  0  0  0
   10.8338  -20.5045   19.0944 C   0  0  0  0  0  0  0  0  0  0  0  0
    9.8135  -21.4556   19.1754 C   0  0  0  0  0  0  0  0  0  0  0  0
    9.9130  -22.2924   18.1464 N   0  0  0  0  0  0  0  0  0  0  0  0
   10.9769  -21.9104   17.3925 C   0  0  0  0  0  0  0  0  0  0  0  0
   11.5133  -20.8311   17.9861 N   0  0  0  0  0  0  0  0  0  0  0  0
   10.0547  -17.2502   20.7717 C   0  0  0  0  0  0  0  0  0  0  0  0
   10.9940  -16.4045   20.8879 O   0  0  0  0  0  0  0  0  0  0  0  0
    6.6486  -12.0389   27.0507 O   0  0  0  0  0  0  0  0  0  0  0  0
    6.8597  -12.9078   25.9909 C   0  0  0  0  0  0  0  0  0  0  0  0
    7.5284  -12.4682   24.8678 C   0  0  0  0  0  0  0  0  0  0  0  0
    7.7412  -13.3282   23.8103 C   0  0  0  0  0  0  0  0  0  0  0  0
    7.2642  -14.6424   23.9110 C   0  0  0  0  0  0  0  0  0  0  0  0
    7.4605  -15.5809   22.7891 C   0  0  0  0  0  0  0  0  0  0  0  0
    8.8701  -16.0419   22.6362 C   0  0  2  0  0  0  0  0  0  0  0  0
    8.9897  -17.1333   21.6829 N   0  0  0  0  0  0  0  0  0  0  0  0
    9.5040  -16.3752   23.9195 C   0  0  0  0  0  0  0  0  0  0  0  0
    9.0652  -17.2530   24.6953 O   0  0  0  0  0  0  0  0  0  0  0  0
    6.5973  -15.0689   25.0392 C   0  0  0  0  0  0  0  0  0  0  0  0
    6.3834  -14.2068   26.1004 C   0  0  0  0  0  0  0  0  0  0  0  0
    9.4239  -13.9788   30.6478 C   0  0  0  0  0  0  0  0  0  0  0  0
    9.6411  -13.5864   28.9122 S   0  0  0  0  0  0  0  0  0  0  0  0
   10.5778  -14.8444   28.0188 C   0  0  0  0  0  0  0  0  0  0  0  0
   10.3967  -14.7626   26.5412 C   0  0  0  0  0  0  0  0  0  0  0  0
   11.1374  -15.8257   25.7609 C   0  0  2  0  0  0  0  0  0  0  0  0
   10.6951  -15.6976   24.3723 N   0  0  0  0  0  0  0  0  0  0  0  0
   10.9058  -17.1864   26.2264 C   0  0  0  0  0  0  0  0  0  0  0  0
   11.8639  -17.9675   26.4296 O   0  0  0  0  0  0  0  0  0  0  0  0
    9.6260  -17.6507   26.4563 O   0  0  0  0  0  0  0  0  0  0  0  0
  2  1  1  6
  3  2  1  0
  3  4  1  0
  4  8  1  0
  4  5  2  0
  5  6  1  0
  7  6  1  0
  8  7  2  0
  9 18  1  0
  9  2  1  0
 10  9  2  0
 11 12  1  0
 12 13  2  0
 13 14  1  0
 15 16  1  0
 15 14  2  0
 17 16  1  1
 17 18  1  0
 19 17  1  0
 20 19  2  0
 21 15  1  0
 22 21  2  0
 22 12  1  0
 23 24  1  0
 24 25  1  0
 27 26  1  1
 26 25  1  0
 27 28  1  0
 28 19  1  0
 29 31  1  0
 29 27  1  0
 30 29  2  0
M  END
$$$$
