HYM.pdb
     RDKit          3D

 31 32  0  0  1  0  0  0  0  0999 V2000
    9.1382  -17.0595   18.4963 N   0  0  0  0  0  0  0  0  0  0  0  0
    9.2599  -15.9925   19.5030 C   0  0  1  0  0  0  0  0  0  0  0  0
    7.9863  -15.1822   19.3765 C   0  0  0  0  0  0  0  0  0  0  0  0
    8.0287  -14.4999   18.0550 C   0  0  0  0  0  0  0  0  0  0  0  0
    8.6542  -13.2828   17.7724 C   0  0  0  0  0  0  0  0  0  0  0  0
    8.4819  -12.9909   16.4863 N   0  0  0  0  0  0  0  0  0  0  0  0
    7.7568  -13.9904   15.9195 C   0  0  0  0  0  0  0  0  0  0  0  0
    7.4973  -14.8862   16.8867 N   0  0  0  0  0  0  0  0  0  0  0  0
    9.3679  -16.6473   20.8218 C   0  0  0  0  0  0  0  0  0  0  0  0
    8.4691  -17.4220   21.2722 O   0  0  0  0  0  0  0  0  0  0  0  0
   12.9617  -21.8580   19.4750 O   0  0  0  0  0  0  0  0  0  0  0  0
   12.7229  -20.8355   20.3808 C   0  0  0  0  0  0  0  0  0  0  0  0
   12.0109  -21.0940   21.5332 C   0  0  0  0  0  0  0  0  0  0  0  0
   11.7704  -20.0807   22.4379 C   0  0  0  0  0  0  0  0  0  0  0  0
   12.2642  -18.7999   22.1540 C   0  0  0  0  0  0  0  0  0  0  0  0
   12.0077  -17.6910   23.0935 C   0  0  0  0  0  0  0  0  0  0  0  0
   10.6560  -17.0806   22.9414 C   0  0  2  0  0  0  0  0  0  0  0  0
   10.4869  -16.4384   21.6478 N   0  0  0  0  0  0  0  0  0  0  0  0
   10.3131  -16.1710   24.0436 C   0  0  0  0  0  0  0  0  0  0  0  0
   10.9528  -15.1260   24.2967 O   0  0  0  0  0  0  0  0  0  0  0  0
   12.9743  -18.5551   20.9984 C   0  0  0  0  0  0  0  0  0  0  0  0
   13.2161  -19.5711   20.0905 C   0  0  0  0  0  0  0  0  0  0  0  0
    6.7758  -11.1527   27.6625 C   0  0  0  0  0  0  0  0  0  0  0  0
    7.2518  -12.2663   26.3410 S   0  0  0  0  0  0  0  0  0  0  0  0
    7.0127  -14.0043   26.7657 C   0  0  0  0  0  0  0  0  0  0  0  0
    7.5282  -14.9335   25.7198 C   0  0  0  0  0  0  0  0  0  0  0  0
    8.8893  -15.5203   26.0211 C   0  0  2  0  0  0  0  0  0  0  0  0
    9.1956  -16.4321   24.9186 N   0  0  0  0  0  0  0  0  0  0  0  0
    8.9705  -16.2362   27.2871 C   0  0  0  0  0  0  0  0  0  0  0  0
    8.9075  -17.4868   27.3230 O   0  0  0  0  0  0  0  0  0  0  0  0
    9.1195  -15.5564   28.4796 O   0  0  0  0  0  0  0  0  0  0  0  0
  2  1  1  6
  3  2  1  0
  3  4  1  0
  4  8  1  0
  4  5  2  0
  5  6  1  0
  7  6  1  0
  8  7  2  0
  9 18  1  0
  9  2  1  0
 10  9  2  0
 11 12  1  0
 12 13  2  0
 13 14  1  0
 15 16  1  0
 15 14  2  0
 17 16  1  1
 17 18  1  0
 19 17  1  0
 20 19  2  0
 21 15  1  0
 22 21  2  0
 22 12  1  0
 23 24  1  0
 24 25  1  0
 27 26  1  6
 26 25  1  0
 27 28  1  0
 28 19  1  0
 29 31  1  0
 29 27  1  0
 30 29  2  0
M  END
$$$$
