HYM.pdb
     RDKit          3D

 31 32  0  0  1  0  0  0  0  0999 V2000
    8.4126  -15.0597   19.8000 N   0  0  0  0  0  0  0  0  0  0  0  0
    8.8928  -16.4233   19.5230 C   0  0  1  0  0  0  0  0  0  0  0  0
    9.4391  -16.3710   18.1112 C   0  0  0  0  0  0  0  0  0  0  0  0
    8.6919  -15.3058   17.3896 C   0  0  0  0  0  0  0  0  0  0  0  0
    7.4452  -15.4426   16.7738 C   0  0  0  0  0  0  0  0  0  0  0  0
    7.0950  -14.2794   16.2322 N   0  0  0  0  0  0  0  0  0  0  0  0
    8.0854  -13.3829   16.4796 C   0  0  0  0  0  0  0  0  0  0  0  0
    9.0349  -14.0274   17.1783 N   0  0  0  0  0  0  0  0  0  0  0  0
    9.9475  -16.7236   20.5115 C   0  0  0  0  0  0  0  0  0  0  0  0
   10.5655  -17.8321   20.5312 O   0  0  0  0  0  0  0  0  0  0  0  0
   15.1005  -15.1769   17.4589 O   0  0  0  0  0  0  0  0  0  0  0  0
   14.4419  -15.1440   18.6788 C   0  0  0  0  0  0  0  0  0  0  0  0
   13.6930  -14.0383   19.0230 C   0  0  0  0  0  0  0  0  0  0  0  0
   13.0356  -13.9999   20.2352 C   0  0  0  0  0  0  0  0  0  0  0  0
   13.1505  -15.1024   21.0931 C   0  0  0  0  0  0  0  0  0  0  0  0
   12.4737  -15.0838   22.4045 C   0  0  0  0  0  0  0  0  0  0  0  0
   11.3309  -16.0366   22.4999 C   0  0  2  0  0  0  0  0  0  0  0  0
   10.3186  -15.7815   21.4876 N   0  0  0  0  0  0  0  0  0  0  0  0
   10.7447  -16.0919   23.8464 C   0  0  0  0  0  0  0  0  0  0  0  0
   11.3769  -16.4738   24.8561 O   0  0  0  0  0  0  0  0  0  0  0  0
   13.9023  -16.2013   20.7369 C   0  0  0  0  0  0  0  0  0  0  0  0
   14.5619  -16.2405   19.5210 C   0  0  0  0  0  0  0  0  0  0  0  0
    6.4369  -12.4403   28.0683 C   0  0  0  0  0  0  0  0  0  0  0  0
    6.2767  -12.6720   26.2980 S   0  0  0  0  0  0  0  0  0  0  0  0
    6.8229  -14.3028   25.7500 C   0  0  0  0  0  0  0  0  0  0  0  0
    8.3019  -14.4753   25.8261 C   0  0  0  0  0  0  0  0  0  0  0  0
    8.7924  -15.8485   25.4245 C   0  0  2  0  0  0  0  0  0  0  0  0
    9.3772  -15.7011   24.0915 N   0  0  0  0  0  0  0  0  0  0  0  0
    7.7580  -16.8737   25.3961 C   0  0  0  0  0  0  0  0  0  0  0  0
    7.4077  -17.4030   24.3160 O   0  0  0  0  0  0  0  0  0  0  0  0
    7.1372  -17.2893   26.5572 O   0  0  0  0  0  0  0  0  0  0  0  0
  2  1  1  1
  3  2  1  0
  3  4  1  0
  4  8  1  0
  4  5  2  0
  5  6  1  0
  7  6  1  0
  8  7  2  0
  9 18  1  0
  9  2  1  0
 10  9  2  0
 11 12  1  0
 12 13  2  0
 13 14  1  0
 15 16  1  0
 15 14  2  0
 17 16  1  1
 17 18  1  0
 19 17  1  0
 20 19  2  0
 21 15  1  0
 22 21  2  0
 22 12  1  0
 23 24  1  0
 24 25  1  0
 27 26  1  6
 26 25  1  0
 27 28  1  0
 28 19  1  0
 29 31  1  0
 29 27  1  0
 30 29  2  0
M  END
$$$$
