HYM.pdb
     RDKit          3D

 31 32  0  0  1  0  0  0  0  0999 V2000
   13.8987  -17.3918   18.6314 N   0  0  0  0  0  0  0  0  0  0  0  0
   14.5579  -17.6660   19.9187 C   0  0  1  0  0  0  0  0  0  0  0  0
   15.4616  -16.4750   20.1619 C   0  0  0  0  0  0  0  0  0  0  0  0
   16.6887  -16.6802   19.3459 C   0  0  0  0  0  0  0  0  0  0  0  0
   17.7313  -17.5663   19.6288 C   0  0  0  0  0  0  0  0  0  0  0  0
   18.6544  -17.4741   18.6758 N   0  0  0  0  0  0  0  0  0  0  0  0
   18.2395  -16.5463   17.7741 C   0  0  0  0  0  0  0  0  0  0  0  0
   17.0527  -16.0840   18.2019 N   0  0  0  0  0  0  0  0  0  0  0  0
   13.4960  -17.7698   20.9392 C   0  0  0  0  0  0  0  0  0  0  0  0
   12.5111  -16.9703   20.9796 O   0  0  0  0  0  0  0  0  0  0  0  0
    8.3755  -21.3899   27.0862 O   0  0  0  0  0  0  0  0  0  0  0  0
    9.2963  -21.1561   26.0760 C   0  0  0  0  0  0  0  0  0  0  0  0
   10.6345  -21.4045   26.2984 C   0  0  0  0  0  0  0  0  0  0  0  0
   11.5550  -21.1737   25.2972 C   0  0  0  0  0  0  0  0  0  0  0  0
   11.0954  -20.6865   24.0658 C   0  0  0  0  0  0  0  0  0  0  0  0
   12.0579  -20.4126   22.9810 C   0  0  0  0  0  0  0  0  0  0  0  0
   12.4629  -18.9806   22.8901 C   0  0  2  0  0  0  0  0  0  0  0  0
   13.5300  -18.7729   21.9243 N   0  0  0  0  0  0  0  0  0  0  0  0
   12.7981  -18.3981   24.1971 C   0  0  0  0  0  0  0  0  0  0  0  0
   13.9630  -18.3522   24.6508 O   0  0  0  0  0  0  0  0  0  0  0  0
    9.7551  -20.4424   23.8568 C   0  0  0  0  0  0  0  0  0  0  0  0
    8.8311  -20.6737   24.8607 C   0  0  0  0  0  0  0  0  0  0  0  0
    8.5921  -14.3278   28.5467 C   0  0  0  0  0  0  0  0  0  0  0  0
   10.2516  -13.9303   27.9981 S   0  0  0  0  0  0  0  0  0  0  0  0
   11.3115  -15.3842   27.8534 C   0  0  0  0  0  0  0  0  0  0  0  0
   11.1907  -16.0612   26.5305 C   0  0  0  0  0  0  0  0  0  0  0  0
   12.1526  -17.2104   26.3264 C   0  0  2  0  0  0  0  0  0  0  0  0
   11.7843  -17.8319   25.0541 N   0  0  0  0  0  0  0  0  0  0  0  0
   12.1308  -18.2102   27.3855 C   0  0  0  0  0  0  0  0  0  0  0  0
   11.3066  -19.1533   27.3618 O   0  0  0  0  0  0  0  0  0  0  0  0
   13.0172  -18.1455   28.4421 O   0  0  0  0  0  0  0  0  0  0  0  0
  2  1  1  6
  3  2  1  0
  3  4  1  0
  4  8  1  0
  4  5  2  0
  5  6  1  0
  7  6  1  0
  8  7  2  0
  9 18  1  0
  9  2  1  0
 10  9  2  0
 11 12  1  0
 12 13  2  0
 13 14  1  0
 15 16  1  0
 15 14  2  0
 17 16  1  1
 17 18  1  0
 19 17  1  0
 20 19  2  0
 21 15  1  0
 22 21  2  0
 22 12  1  0
 23 24  1  0
 24 25  1  0
 27 26  1  1
 26 25  1  0
 27 28  1  0
 28 19  1  0
 29 31  1  0
 29 27  1  0
 30 29  2  0
M  END
$$$$
