HYM.pdb
     RDKit          3D

 31 32  0  0  1  0  0  0  0  0999 V2000
    6.9367  -16.8731   19.6683 N   0  0  0  0  0  0  0  0  0  0  0  0
    7.5661  -15.9524   20.6290 C   0  0  1  0  0  0  0  0  0  0  0  0
    7.0593  -14.5766   20.2486 C   0  0  0  0  0  0  0  0  0  0  0  0
    7.6591  -14.2359   18.9303 C   0  0  0  0  0  0  0  0  0  0  0  0
    6.9617  -13.9276   17.7595 C   0  0  0  0  0  0  0  0  0  0  0  0
    7.8319  -13.6774   16.7852 N   0  0  0  0  0  0  0  0  0  0  0  0
    9.0849  -13.8150   17.2922 C   0  0  0  0  0  0  0  0  0  0  0  0
    8.9517  -14.1518   18.5860 N   0  0  0  0  0  0  0  0  0  0  0  0
    7.1153  -16.3529   21.9766 C   0  0  0  0  0  0  0  0  0  0  0  0
    5.9334  -16.7541   22.2071 O   0  0  0  0  0  0  0  0  0  0  0  0
    6.7448  -21.3868   28.8301 O   0  0  0  0  0  0  0  0  0  0  0  0
    6.9539  -20.6569   27.6698 C   0  0  0  0  0  0  0  0  0  0  0  0
    7.1051  -19.2879   27.7401 C   0  0  0  0  0  0  0  0  0  0  0  0
    7.3133  -18.5564   26.5891 C   0  0  0  0  0  0  0  0  0  0  0  0
    7.3656  -19.2370   25.3648 C   0  0  0  0  0  0  0  0  0  0  0  0
    7.5689  -18.4804   24.1141 C   0  0  0  0  0  0  0  0  0  0  0  0
    7.7392  -17.0142   24.3246 C   0  0  2  0  0  0  0  0  0  0  0  0
    7.9877  -16.3067   23.0787 N   0  0  0  0  0  0  0  0  0  0  0  0
    8.7564  -16.6971   25.3367 C   0  0  0  0  0  0  0  0  0  0  0  0
    9.1453  -17.5148   26.2000 O   0  0  0  0  0  0  0  0  0  0  0  0
    7.2128  -20.6056   25.3086 C   0  0  0  0  0  0  0  0  0  0  0  0
    7.0040  -21.3400   26.4628 C   0  0  0  0  0  0  0  0  0  0  0  0
    6.2056  -10.4108   28.0762 C   0  0  0  0  0  0  0  0  0  0  0  0
    6.9893  -11.4145   26.8146 S   0  0  0  0  0  0  0  0  0  0  0  0
    6.9620  -13.1774   27.2011 C   0  0  0  0  0  0  0  0  0  0  0  0
    7.5925  -14.0140   26.1402 C   0  0  0  0  0  0  0  0  0  0  0  0
    9.0098  -14.4456   26.4445 C   0  0  2  0  0  0  0  0  0  0  0  0
    9.3818  -15.3979   25.3980 N   0  0  0  0  0  0  0  0  0  0  0  0
    9.1848  -15.0611   27.7531 C   0  0  0  0  0  0  0  0  0  0  0  0
    8.6277  -16.1480   28.0313 O   0  0  0  0  0  0  0  0  0  0  0  0
    9.9688  -14.4640   28.7201 O   0  0  0  0  0  0  0  0  0  0  0  0
  2  1  1  6
  3  2  1  0
  3  4  1  0
  4  8  1  0
  4  5  2  0
  5  6  1  0
  7  6  1  0
  8  7  2  0
  9 18  1  0
  9  2  1  0
 10  9  2  0
 11 12  1  0
 12 13  2  0
 13 14  1  0
 15 16  1  0
 15 14  2  0
 17 16  1  6
 17 18  1  0
 19 17  1  0
 20 19  2  0
 21 15  1  0
 22 21  2  0
 22 12  1  0
 23 24  1  0
 24 25  1  0
 27 26  1  6
 26 25  1  0
 27 28  1  0
 28 19  1  0
 29 31  1  0
 29 27  1  0
 30 29  2  0
M  END
$$$$
