HYM.pdb
     RDKit          3D

 31 32  0  0  1  0  0  0  0  0999 V2000
    8.2143  -17.0988   18.5218 N   0  0  0  0  0  0  0  0  0  0  0  0
    8.5887  -16.0691   19.5048 C   0  0  1  0  0  0  0  0  0  0  0  0
    7.5033  -15.0170   19.4083 C   0  0  0  0  0  0  0  0  0  0  0  0
    7.7886  -14.2007   18.1974 C   0  0  0  0  0  0  0  0  0  0  0  0
    8.7896  -14.4436   17.2534 C   0  0  0  0  0  0  0  0  0  0  0  0
    8.7406  -13.5047   16.3127 N   0  0  0  0  0  0  0  0  0  0  0  0
    7.7289  -12.6513   16.6196 C   0  0  0  0  0  0  0  0  0  0  0  0
    7.1722  -13.0939   17.7595 N   0  0  0  0  0  0  0  0  0  0  0  0
    8.6103  -16.7188   20.8304 C   0  0  0  0  0  0  0  0  0  0  0  0
    7.6145  -17.3563   21.2917 O   0  0  0  0  0  0  0  0  0  0  0  0
    9.5848  -22.7409   19.6776 O   0  0  0  0  0  0  0  0  0  0  0  0
    9.8989  -21.6704   20.5012 C   0  0  0  0  0  0  0  0  0  0  0  0
    9.2776  -21.5434   21.7258 C   0  0  0  0  0  0  0  0  0  0  0  0
    9.5860  -20.4805   22.5494 C   0  0  0  0  0  0  0  0  0  0  0  0
   10.5357  -19.5479   22.1099 C   0  0  0  0  0  0  0  0  0  0  0  0
   10.8737  -18.3901   22.9604 C   0  0  0  0  0  0  0  0  0  0  0  0
    9.8396  -17.3161   22.9450 C   0  0  2  0  0  0  0  0  0  0  0  0
    9.7510  -16.6590   21.6508 N   0  0  0  0  0  0  0  0  0  0  0  0
   10.0109  -16.3431   24.0329 C   0  0  0  0  0  0  0  0  0  0  0  0
   10.9678  -15.5394   24.0919 O   0  0  0  0  0  0  0  0  0  0  0  0
   11.1492  -19.6866   20.8835 C   0  0  0  0  0  0  0  0  0  0  0  0
   10.8403  -20.7526   20.0569 C   0  0  0  0  0  0  0  0  0  0  0  0
    6.7416  -10.9811   26.6432 C   0  0  0  0  0  0  0  0  0  0  0  0
    6.3245  -12.5157   25.8161 S   0  0  0  0  0  0  0  0  0  0  0  0
    7.7718  -13.5240   25.4331 C   0  0  0  0  0  0  0  0  0  0  0  0
    8.0343  -14.5751   26.4573 C   0  0  0  0  0  0  0  0  0  0  0  0
    9.3163  -15.3490   26.2443 C   0  0  2  0  0  0  0  0  0  0  0  0
    9.0674  -16.2530   25.1212 N   0  0  0  0  0  0  0  0  0  0  0  0
    9.7579  -16.1146   27.4021 C   0  0  0  0  0  0  0  0  0  0  0  0
    9.6385  -17.3613   27.4314 O   0  0  0  0  0  0  0  0  0  0  0  0
   10.3196  -15.4877   28.4965 O   0  0  0  0  0  0  0  0  0  0  0  0
  2  1  1  6
  3  2  1  0
  3  4  1  0
  4  8  1  0
  4  5  2  0
  5  6  1  0
  7  6  1  0
  8  7  2  0
  9 18  1  0
  9  2  1  0
 10  9  2  0
 11 12  1  0
 12 13  2  0
 13 14  1  0
 15 16  1  0
 15 14  2  0
 17 16  1  6
 17 18  1  0
 19 17  1  0
 20 19  2  0
 21 15  1  0
 22 21  2  0
 22 12  1  0
 23 24  1  0
 24 25  1  0
 27 26  1  1
 26 25  1  0
 27 28  1  0
 28 19  1  0
 29 31  1  0
 29 27  1  0
 30 29  2  0
M  END
$$$$
