HYM.pdb
     RDKit          3D

 31 32  0  0  1  0  0  0  0  0999 V2000
    9.2239  -18.8608   18.7480 N   0  0  0  0  0  0  0  0  0  0  0  0
    8.1191  -18.3260   19.5604 C   0  0  1  0  0  0  0  0  0  0  0  0
    7.5427  -19.5260   20.2831 C   0  0  0  0  0  0  0  0  0  0  0  0
    6.8382  -20.3544   19.2675 C   0  0  0  0  0  0  0  0  0  0  0  0
    5.6915  -19.9922   18.5561 C   0  0  0  0  0  0  0  0  0  0  0  0
    5.3520  -20.9852   17.7390 N   0  0  0  0  0  0  0  0  0  0  0  0
    6.2515  -21.9907   17.8994 C   0  0  0  0  0  0  0  0  0  0  0  0
    7.1357  -21.5844   18.8258 N   0  0  0  0  0  0  0  0  0  0  0  0
    8.7018  -17.3456   20.4979 C   0  0  0  0  0  0  0  0  0  0  0  0
    9.8985  -17.4290   20.9124 O   0  0  0  0  0  0  0  0  0  0  0  0
    8.6248  -12.6506   16.1248 O   0  0  0  0  0  0  0  0  0  0  0  0
    8.4895  -12.9548   17.4709 C   0  0  0  0  0  0  0  0  0  0  0  0
    9.5996  -13.3124   18.2070 C   0  0  0  0  0  0  0  0  0  0  0  0
    9.4710  -13.6161   19.5465 C   0  0  0  0  0  0  0  0  0  0  0  0
    8.1971  -13.5510   20.1275 C   0  0  0  0  0  0  0  0  0  0  0  0
    8.0245  -13.8876   21.5540 C   0  0  0  0  0  0  0  0  0  0  0  0
    8.4721  -15.2670   21.9001 C   0  0  2  0  0  0  0  0  0  0  0  0
    7.9460  -16.2614   20.9788 N   0  0  0  0  0  0  0  0  0  0  0  0
    8.1908  -15.6246   23.2975 C   0  0  0  0  0  0  0  0  0  0  0  0
    7.2203  -16.3344   23.6433 O   0  0  0  0  0  0  0  0  0  0  0  0
    7.0959  -13.1922   19.3804 C   0  0  0  0  0  0  0  0  0  0  0  0
    7.2240  -12.8873   18.0367 C   0  0  0  0  0  0  0  0  0  0  0  0
    7.5133  -11.8597   28.3203 C   0  0  0  0  0  0  0  0  0  0  0  0
    6.2843  -12.3164   27.0980 S   0  0  0  0  0  0  0  0  0  0  0  0
    6.3027  -14.0784   26.7067 C   0  0  0  0  0  0  0  0  0  0  0  0
    7.0635  -14.3887   25.4626 C   0  0  0  0  0  0  0  0  0  0  0  0
    8.4646  -14.9069   25.6997 C   0  0  2  0  0  0  0  0  0  0  0  0
    9.0331  -15.1706   24.3778 N   0  0  0  0  0  0  0  0  0  0  0  0
    8.5314  -16.1139   26.5125 C   0  0  0  0  0  0  0  0  0  0  0  0
    8.3673  -16.0626   27.7533 O   0  0  0  0  0  0  0  0  0  0  0  0
    8.7765  -17.3451   25.9376 O   0  0  0  0  0  0  0  0  0  0  0  0
  2  1  1  6
  3  2  1  0
  3  4  1  0
  4  8  1  0
  4  5  2  0
  5  6  1  0
  7  6  1  0
  8  7  2  0
  9 18  1  0
  9  2  1  0
 10  9  2  0
 11 12  1  0
 12 13  2  0
 13 14  1  0
 15 16  1  0
 15 14  2  0
 17 16  1  6
 17 18  1  0
 19 17  1  0
 20 19  2  0
 21 15  1  0
 22 21  2  0
 22 12  1  0
 23 24  1  0
 24 25  1  0
 27 26  1  6
 26 25  1  0
 27 28  1  0
 28 19  1  0
 29 31  1  0
 29 27  1  0
 30 29  2  0
M  END
$$$$
