HYM.pdb
     RDKit          3D

 31 32  0  0  1  0  0  0  0  0999 V2000
    9.4931  -16.4656   18.3396 N   0  0  0  0  0  0  0  0  0  0  0  0
    9.2926  -15.5588   19.4817 C   0  0  1  0  0  0  0  0  0  0  0  0
    7.7904  -15.4595   19.6488 C   0  0  0  0  0  0  0  0  0  0  0  0
    7.2674  -14.6990   18.4818 C   0  0  0  0  0  0  0  0  0  0  0  0
    7.3133  -13.3131   18.3101 C   0  0  0  0  0  0  0  0  0  0  0  0
    6.7502  -12.9977   17.1472 N   0  0  0  0  0  0  0  0  0  0  0  0
    6.3359  -14.1470   16.5528 C   0  0  0  0  0  0  0  0  0  0  0  0
    6.6599  -15.1565   17.3781 N   0  0  0  0  0  0  0  0  0  0  0  0
    9.9375  -16.1839   20.6535 C   0  0  0  0  0  0  0  0  0  0  0  0
    9.7938  -17.4135   20.9336 O   0  0  0  0  0  0  0  0  0  0  0  0
   15.6222  -15.7985   17.8364 O   0  0  0  0  0  0  0  0  0  0  0  0
   14.9519  -15.7354   19.0487 C   0  0  0  0  0  0  0  0  0  0  0  0
   15.0001  -16.8079   19.9143 C   0  0  0  0  0  0  0  0  0  0  0  0
   14.3351  -16.7508   21.1217 C   0  0  0  0  0  0  0  0  0  0  0  0
   13.6200  -15.5872   21.4367 C   0  0  0  0  0  0  0  0  0  0  0  0
   12.8835  -15.5028   22.7128 C   0  0  0  0  0  0  0  0  0  0  0  0
   11.4871  -16.0188   22.6312 C   0  0  2  0  0  0  0  0  0  0  0  0
   10.7504  -15.4340   21.5222 N   0  0  0  0  0  0  0  0  0  0  0  0
   10.7533  -15.8827   23.8971 C   0  0  0  0  0  0  0  0  0  0  0  0
   11.1920  -15.2464   24.8809 O   0  0  0  0  0  0  0  0  0  0  0  0
   13.5800  -14.5224   20.5624 C   0  0  0  0  0  0  0  0  0  0  0  0
   14.2468  -14.5789   19.3511 C   0  0  0  0  0  0  0  0  0  0  0  0
    7.0060  -11.9190   27.8490 C   0  0  0  0  0  0  0  0  0  0  0  0
    6.7650  -13.1173   26.5378 S   0  0  0  0  0  0  0  0  0  0  0  0
    7.9976  -14.4359   26.5551 C   0  0  0  0  0  0  0  0  0  0  0  0
    7.8197  -15.4112   25.4414 C   0  0  0  0  0  0  0  0  0  0  0  0
    8.8441  -16.5237   25.4154 C   0  0  2  0  0  0  0  0  0  0  0  0
    9.4561  -16.4860   24.0870 N   0  0  0  0  0  0  0  0  0  0  0  0
    8.2993  -17.8509   25.6674 C   0  0  0  0  0  0  0  0  0  0  0  0
    8.0795  -18.6448   24.7237 O   0  0  0  0  0  0  0  0  0  0  0  0
    8.0117  -18.2690   26.9515 O   0  0  0  0  0  0  0  0  0  0  0  0
  2  1  1  6
  3  2  1  0
  3  4  1  0
  4  8  1  0
  4  5  2  0
  5  6  1  0
  7  6  1  0
  8  7  2  0
  9 18  1  0
  9  2  1  0
 10  9  2  0
 11 12  1  0
 12 13  2  0
 13 14  1  0
 15 16  1  0
 15 14  2  0
 17 16  1  1
 17 18  1  0
 19 17  1  0
 20 19  2  0
 21 15  1  0
 22 21  2  0
 22 12  1  0
 23 24  1  0
 24 25  1  0
 27 26  1  6
 26 25  1  0
 27 28  1  0
 28 19  1  0
 29 31  1  0
 29 27  1  0
 30 29  2  0
M  END
$$$$
