HYM.pdb
     RDKit          3D

 31 32  0  0  1  0  0  0  0  0999 V2000
   11.1439  -16.9479   19.0507 N   0  0  0  0  0  0  0  0  0  0  0  0
   11.1305  -17.8311   20.2281 C   0  0  1  0  0  0  0  0  0  0  0  0
   12.5304  -18.4038   20.3089 C   0  0  0  0  0  0  0  0  0  0  0  0
   12.7022  -19.3114   19.1425 C   0  0  0  0  0  0  0  0  0  0  0  0
   13.5074  -19.0781   18.0247 C   0  0  0  0  0  0  0  0  0  0  0  0
   13.4083  -20.1099   17.1913 N   0  0  0  0  0  0  0  0  0  0  0  0
   12.5553  -21.0147   17.7387 C   0  0  0  0  0  0  0  0  0  0  0  0
   12.1447  -20.5087   18.9136 N   0  0  0  0  0  0  0  0  0  0  0  0
   10.8098  -16.9917   21.3996 C   0  0  0  0  0  0  0  0  0  0  0  0
   11.4096  -15.8987   21.6377 O   0  0  0  0  0  0  0  0  0  0  0  0
    7.0199  -12.7503   18.9853 O   0  0  0  0  0  0  0  0  0  0  0  0
    7.2624  -13.5714   20.0761 C   0  0  0  0  0  0  0  0  0  0  0  0
    7.8279  -13.0438   21.2180 C   0  0  0  0  0  0  0  0  0  0  0  0
    8.0715  -13.8559   22.3062 C   0  0  0  0  0  0  0  0  0  0  0  0
    7.7318  -15.2129   22.2171 C   0  0  0  0  0  0  0  0  0  0  0  0
    7.9967  -16.1109   23.3579 C   0  0  0  0  0  0  0  0  0  0  0  0
    9.4172  -16.5543   23.4511 C   0  0  2  0  0  0  0  0  0  0  0  0
    9.8120  -17.3715   22.3150 N   0  0  0  0  0  0  0  0  0  0  0  0
    9.7256  -17.2179   24.7255 C   0  0  0  0  0  0  0  0  0  0  0  0
    9.7333  -18.4606   24.8691 O   0  0  0  0  0  0  0  0  0  0  0  0
    7.1672  -15.7274   21.0698 C   0  0  0  0  0  0  0  0  0  0  0  0
    6.9225  -14.9134   19.9778 C   0  0  0  0  0  0  0  0  0  0  0  0
   11.6283  -11.9953   28.3661 C   0  0  0  0  0  0  0  0  0  0  0  0
   10.5565  -13.4001   28.6675 S   0  0  0  0  0  0  0  0  0  0  0  0
   11.2529  -14.9560   28.0739 C   0  0  0  0  0  0  0  0  0  0  0  0
   10.3269  -16.1111   28.2505 C   0  0  0  0  0  0  0  0  0  0  0  0
   10.4061  -17.1490   27.1531 C   0  0  2  0  0  0  0  0  0  0  0  0
   10.0451  -16.4622   25.9128 N   0  0  0  0  0  0  0  0  0  0  0  0
    9.5352  -18.3002   27.3481 C   0  0  0  0  0  0  0  0  0  0  0  0
    8.3777  -18.3183   26.8694 O   0  0  0  0  0  0  0  0  0  0  0  0
    9.9618  -19.4009   28.0642 O   0  0  0  0  0  0  0  0  0  0  0  0
  2  1  1  6
  3  2  1  0
  3  4  1  0
  4  8  1  0
  4  5  2  0
  5  6  1  0
  7  6  1  0
  8  7  2  0
  9 18  1  0
  9  2  1  0
 10  9  2  0
 11 12  1  0
 12 13  2  0
 13 14  1  0
 15 16  1  0
 15 14  2  0
 17 16  1  6
 17 18  1  0
 19 17  1  0
 20 19  2  0
 21 15  1  0
 22 21  2  0
 22 12  1  0
 23 24  1  0
 24 25  1  0
 27 26  1  1
 26 25  1  0
 27 28  1  0
 28 19  1  0
 29 31  1  0
 29 27  1  0
 30 29  2  0
M  END
$$$$
