HYM.pdb
     RDKit          3D

 31 32  0  0  1  0  0  0  0  0999 V2000
    9.3517  -18.6628   19.3249 N   0  0  0  0  0  0  0  0  0  0  0  0
   10.4969  -17.7388   19.2891 C   0  0  1  0  0  0  0  0  0  0  0  0
   10.4209  -17.0671   17.9335 C   0  0  0  0  0  0  0  0  0  0  0  0
   10.3452  -18.1460   16.9118 C   0  0  0  0  0  0  0  0  0  0  0  0
    9.2239  -18.4874   16.1512 C   0  0  0  0  0  0  0  0  0  0  0  0
    9.5340  -19.4986   15.3447 N   0  0  0  0  0  0  0  0  0  0  0  0
   10.8345  -19.8275   15.5602 C   0  0  0  0  0  0  0  0  0  0  0  0
   11.2990  -18.9972   16.5089 N   0  0  0  0  0  0  0  0  0  0  0  0
   10.3147  -16.7752   20.3927 C   0  0  0  0  0  0  0  0  0  0  0  0
   11.1183  -15.8140   20.5960 O   0  0  0  0  0  0  0  0  0  0  0  0
    6.4986  -12.3301   26.9579 O   0  0  0  0  0  0  0  0  0  0  0  0
    6.7842  -13.1028   25.8424 C   0  0  0  0  0  0  0  0  0  0  0  0
    7.4883  -12.5539   24.7913 C   0  0  0  0  0  0  0  0  0  0  0  0
    7.7752  -13.3178   23.6790 C   0  0  0  0  0  0  0  0  0  0  0  0
    7.3358  -14.6485   23.6504 C   0  0  0  0  0  0  0  0  0  0  0  0
    7.6115  -15.4858   22.4668 C   0  0  0  0  0  0  0  0  0  0  0  0
    9.0175  -15.9769   22.3976 C   0  0  2  0  0  0  0  0  0  0  0  0
    9.2278  -16.8817   21.2789 N   0  0  0  0  0  0  0  0  0  0  0  0
    9.4789  -16.5669   23.6620 C   0  0  0  0  0  0  0  0  0  0  0  0
    8.8514  -17.4603   24.2730 O   0  0  0  0  0  0  0  0  0  0  0  0
    6.6328  -15.1847   24.7077 C   0  0  0  0  0  0  0  0  0  0  0  0
    6.3447  -14.4191   25.8239 C   0  0  0  0  0  0  0  0  0  0  0  0
    9.9281  -13.1931   30.2109 C   0  0  0  0  0  0  0  0  0  0  0  0
    9.5471  -13.4320   28.4757 S   0  0  0  0  0  0  0  0  0  0  0  0
   10.2087  -14.9767   27.8167 C   0  0  0  0  0  0  0  0  0  0  0  0
   10.2424  -15.0046   26.3264 C   0  0  0  0  0  0  0  0  0  0  0  0
   10.8739  -16.2470   25.7387 C   0  0  2  0  0  0  0  0  0  0  0  0
   10.7082  -16.1442   24.2887 N   0  0  0  0  0  0  0  0  0  0  0  0
   10.2964  -17.4980   26.2112 C   0  0  0  0  0  0  0  0  0  0  0  0
    9.0643  -17.6010   26.4129 O   0  0  0  0  0  0  0  0  0  0  0  0
   11.0904  -18.6024   26.4485 O   0  0  0  0  0  0  0  0  0  0  0  0
  2  1  1  6
  3  2  1  0
  3  4  1  0
  4  8  1  0
  4  5  2  0
  5  6  1  0
  7  6  1  0
  8  7  2  0
  9 18  1  0
  9  2  1  0
 10  9  2  0
 11 12  1  0
 12 13  2  0
 13 14  1  0
 15 16  1  0
 15 14  2  0
 17 16  1  1
 17 18  1  0
 19 17  1  0
 20 19  2  0
 21 15  1  0
 22 21  2  0
 22 12  1  0
 23 24  1  0
 24 25  1  0
 27 26  1  1
 26 25  1  0
 27 28  1  0
 28 19  1  0
 29 31  1  0
 29 27  1  0
 30 29  2  0
M  END
$$$$
