AMS.pdb
     RDKit          3D

 20 19  0  0  1  0  0  0  0  0999 V2000
    8.0094  -13.3810   19.1609 C   0  0  0  0  0  0  0  0  0  0  0  0
    7.9776  -14.6955   19.9438 C   0  0  2  0  0  0  0  0  0  0  0  0
    6.6249  -15.2143   20.0041 N   0  0  0  0  0  0  0  0  0  0  0  0
    8.4814  -14.4966   21.3226 C   0  0  0  0  0  0  0  0  0  0  0  0
    9.6805  -14.1881   21.5295 O   0  0  0  0  0  0  0  0  0  0  0  0
    6.9299  -11.6942   28.2928 C   0  0  0  0  0  0  0  0  0  0  0  0
    6.1926  -12.3455   26.7643 S   0  0  0  0  0  0  0  0  0  0  0  0
    7.3840  -13.4146   25.9413 C   0  0  0  0  0  0  0  0  0  0  0  0
    6.9194  -13.7226   24.5453 C   0  0  0  0  0  0  0  0  0  0  0  0
    8.0376  -14.3783   23.7834 C   0  0  2  0  0  0  0  0  0  0  0  0
    7.6198  -14.6511   22.4249 N   0  0  0  0  0  0  0  0  0  0  0  0
    8.4336  -15.6565   24.4663 C   0  0  0  0  0  0  0  0  0  0  0  0
    7.5917  -16.5856   24.5754 O   0  0  0  0  0  0  0  0  0  0  0  0
   11.0484  -17.7044   23.4509 O   0  0  0  0  0  0  0  0  0  0  0  0
   11.2570  -17.7600   24.8457 C   0  0  0  0  0  0  0  0  0  0  0  0
   10.0749  -17.1304   25.5562 C   0  0  2  0  0  0  0  0  0  0  0  0
    9.7165  -15.8608   24.9934 N   0  0  0  0  0  0  0  0  0  0  0  0
   10.4198  -17.0257   26.9929 C   0  0  0  0  0  0  0  0  0  0  0  0
   10.3594  -15.7390   27.5566 O   0  0  0  0  0  0  0  0  0  0  0  0
   10.7490  -17.9859   27.7017 O   0  0  0  0  0  0  0  0  0  0  0  0
  2  3  1  0
  2  1  1  6
  4 11  1  0
  4  2  1  0
  5  4  2  0
  7  8  1  0
  7  6  1  0
  8  9  1  0
 10  9  1  1
 10 11  1  0
 10 12  1  0
 12 17  1  0
 13 12  2  0
 15 14  1  0
 16 15  1  6
 16 18  1  0
 17 16  1  0
 18 19  1  0
 20 18  2  0
M  END
$$$$
