AMS.pdb
     RDKit          3D

 20 19  0  0  1  0  0  0  0  0999 V2000
    7.3393  -15.0003   19.6359 C   0  0  0  0  0  0  0  0  0  0  0  0
    7.3621  -13.6605   20.3749 C   0  0  2  0  0  0  0  0  0  0  0  0
    8.0959  -12.6733   19.6072 N   0  0  0  0  0  0  0  0  0  0  0  0
    7.9955  -13.8070   21.7060 C   0  0  0  0  0  0  0  0  0  0  0  0
    9.2358  -13.6728   21.8449 O   0  0  0  0  0  0  0  0  0  0  0  0
    6.4240  -10.3404   26.8746 C   0  0  0  0  0  0  0  0  0  0  0  0
    6.9957  -12.0619   26.7583 S   0  0  0  0  0  0  0  0  0  0  0  0
    6.2169  -12.8496   25.3396 C   0  0  0  0  0  0  0  0  0  0  0  0
    6.7131  -14.2616   25.1994 C   0  0  0  0  0  0  0  0  0  0  0  0
    7.7890  -14.3076   24.1500 C   0  0  2  0  0  0  0  0  0  0  0  0
    7.2129  -14.0998   22.8387 N   0  0  0  0  0  0  0  0  0  0  0  0
    8.4879  -15.6365   24.2001 C   0  0  0  0  0  0  0  0  0  0  0  0
    7.9039  -16.6593   23.7565 O   0  0  0  0  0  0  0  0  0  0  0  0
   12.4319  -18.2672   24.2143 O   0  0  0  0  0  0  0  0  0  0  0  0
   11.8301  -16.9926   24.1421 C   0  0  0  0  0  0  0  0  0  0  0  0
   10.4245  -17.0679   24.7053 C   0  0  2  0  0  0  0  0  0  0  0  0
    9.7786  -15.7874   24.7262 N   0  0  0  0  0  0  0  0  0  0  0  0
   10.5149  -17.6686   26.0561 C   0  0  0  0  0  0  0  0  0  0  0  0
   11.0779  -18.9549   26.1302 O   0  0  0  0  0  0  0  0  0  0  0  0
   10.1309  -17.1117   27.0931 O   0  0  0  0  0  0  0  0  0  0  0  0
  2  3  1  0
  2  1  1  6
  4 11  1  0
  4  2  1  0
  5  4  2  0
  7  8  1  0
  7  6  1  0
  8  9  1  0
 10  9  1  1
 10 11  1  0
 10 12  1  0
 12 17  1  0
 13 12  2  0
 15 14  1  0
 16 15  1  1
 16 18  1  0
 17 16  1  0
 18 19  1  0
 20 18  2  0
M  END
$$$$
