AMS.pdb
     RDKit          3D

 20 19  0  0  1  0  0  0  0  0999 V2000
    8.2211  -15.2319   18.7391 C   0  0  0  0  0  0  0  0  0  0  0  0
    8.0459  -16.2415   19.8756 C   0  0  2  0  0  0  0  0  0  0  0  0
    6.6411  -16.5435   20.0702 N   0  0  0  0  0  0  0  0  0  0  0  0
    8.6061  -15.7100   21.1397 C   0  0  0  0  0  0  0  0  0  0  0  0
    9.8326  -15.4643   21.2450 O   0  0  0  0  0  0  0  0  0  0  0  0
    7.1235  -11.5522   27.5671 C   0  0  0  0  0  0  0  0  0  0  0  0
    6.4243  -12.3890   26.1129 S   0  0  0  0  0  0  0  0  0  0  0  0
    7.6670  -13.4815   25.4045 C   0  0  0  0  0  0  0  0  0  0  0  0
    7.1472  -14.0957   24.1347 C   0  0  0  0  0  0  0  0  0  0  0  0
    8.2500  -14.8742   23.4724 C   0  0  2  0  0  0  0  0  0  0  0  0
    7.7683  -15.4718   22.2455 N   0  0  0  0  0  0  0  0  0  0  0  0
    8.7457  -15.9425   24.4049 C   0  0  0  0  0  0  0  0  0  0  0  0
    7.9402  -16.8065   24.8392 O   0  0  0  0  0  0  0  0  0  0  0  0
   12.7935  -16.5347   24.8841 O   0  0  0  0  0  0  0  0  0  0  0  0
   11.9171  -17.6403   24.9244 C   0  0  0  0  0  0  0  0  0  0  0  0
   10.5741  -17.1973   25.4711 C   0  0  2  0  0  0  0  0  0  0  0  0
   10.0836  -16.0189   24.8170 N   0  0  0  0  0  0  0  0  0  0  0  0
   10.7276  -17.0013   26.9312 C   0  0  0  0  0  0  0  0  0  0  0  0
   11.2413  -18.0910   27.6562 O   0  0  0  0  0  0  0  0  0  0  0  0
   10.4350  -15.9568   27.5281 O   0  0  0  0  0  0  0  0  0  0  0  0
  2  3  1  0
  2  1  1  6
  4 11  1  0
  4  2  1  0
  5  4  2  0
  7  8  1  0
  7  6  1  0
  8  9  1  0
 10  9  1  1
 10 11  1  0
 10 12  1  0
 12 17  1  0
 13 12  2  0
 15 14  1  0
 16 15  1  6
 16 18  1  0
 17 16  1  0
 18 19  1  0
 20 18  2  0
M  END
$$$$
