AMS.pdb
     RDKit          3D

 20 19  0  0  1  0  0  0  0  0999 V2000
    7.6460  -17.7100   20.0307 C   0  0  0  0  0  0  0  0  0  0  0  0
    7.8874  -16.2005   19.9598 C   0  0  2  0  0  0  0  0  0  0  0  0
    8.7841  -15.8839   18.8651 N   0  0  0  0  0  0  0  0  0  0  0  0
    8.4749  -15.7037   21.2257 C   0  0  0  0  0  0  0  0  0  0  0  0
    9.7160  -15.7311   21.4115 O   0  0  0  0  0  0  0  0  0  0  0  0
    7.2941  -11.4902   27.7430 C   0  0  0  0  0  0  0  0  0  0  0  0
    6.5093  -12.2901   26.3119 S   0  0  0  0  0  0  0  0  0  0  0  0
    7.7184  -13.3312   25.4790 C   0  0  0  0  0  0  0  0  0  0  0  0
    7.1280  -13.8956   24.2171 C   0  0  0  0  0  0  0  0  0  0  0  0
    8.1695  -14.7129   23.5042 C   0  0  2  0  0  0  0  0  0  0  0  0
    7.6470  -15.1918   22.2424 N   0  0  0  0  0  0  0  0  0  0  0  0
    8.5784  -15.8738   24.3655 C   0  0  0  0  0  0  0  0  0  0  0  0
    7.7831  -16.8363   24.5240 O   0  0  0  0  0  0  0  0  0  0  0  0
   11.6575  -17.4766   23.8208 O   0  0  0  0  0  0  0  0  0  0  0  0
   11.5681  -17.6379   25.2201 C   0  0  0  0  0  0  0  0  0  0  0  0
   10.2266  -17.1205   25.7009 C   0  0  2  0  0  0  0  0  0  0  0  0
    9.8231  -15.9314   25.0079 N   0  0  0  0  0  0  0  0  0  0  0  0
   10.3272  -16.9064   27.1631 C   0  0  0  0  0  0  0  0  0  0  0  0
   10.7306  -18.0142   27.9293 O   0  0  0  0  0  0  0  0  0  0  0  0
   10.0812  -15.8327   27.7282 O   0  0  0  0  0  0  0  0  0  0  0  0
  2  3  1  0
  2  1  1  1
  4 11  1  0
  4  2  1  0
  5  4  2  0
  7  8  1  0
  7  6  1  0
  8  9  1  0
 10  9  1  1
 10 11  1  0
 10 12  1  0
 12 17  1  0
 13 12  2  0
 15 14  1  0
 16 15  1  6
 16 18  1  0
 17 16  1  0
 18 19  1  0
 20 18  2  0
M  END
$$$$
