AMS.pdb
     RDKit          3D

 20 19  0  0  1  0  0  0  0  0999 V2000
    7.0761  -15.3615   19.9708 C   0  0  0  0  0  0  0  0  0  0  0  0
    7.2198  -14.0107   20.6755 C   0  0  2  0  0  0  0  0  0  0  0  0
    7.9111  -13.0662   19.8196 N   0  0  0  0  0  0  0  0  0  0  0  0
    7.9740  -14.1579   21.9419 C   0  0  0  0  0  0  0  0  0  0  0  0
    9.2219  -14.0247   21.9650 O   0  0  0  0  0  0  0  0  0  0  0  0
    6.6756  -10.2805   26.9475 C   0  0  0  0  0  0  0  0  0  0  0  0
    7.1579  -12.0318   27.0127 S   0  0  0  0  0  0  0  0  0  0  0  0
    6.5724  -12.8626   25.5273 C   0  0  0  0  0  0  0  0  0  0  0  0
    7.0068  -14.3017   25.5384 C   0  0  0  0  0  0  0  0  0  0  0  0
    7.9807  -14.5347   24.4167 C   0  0  2  0  0  0  0  0  0  0  0  0
    7.2998  -14.4505   23.1424 N   0  0  0  0  0  0  0  0  0  0  0  0
    8.6167  -15.8868   24.5717 C   0  0  0  0  0  0  0  0  0  0  0  0
    7.9317  -16.9205   24.3570 O   0  0  0  0  0  0  0  0  0  0  0  0
   11.9231  -16.8716   23.1903 O   0  0  0  0  0  0  0  0  0  0  0  0
   11.9235  -17.4332   24.4851 C   0  0  0  0  0  0  0  0  0  0  0  0
   10.5247  -17.3601   25.0651 C   0  0  2  0  0  0  0  0  0  0  0  0
    9.9570  -16.0480   24.9500 N   0  0  0  0  0  0  0  0  0  0  0  0
   10.5995  -17.8133   26.4733 C   0  0  0  0  0  0  0  0  0  0  0  0
   11.1849  -19.0728   26.6928 O   0  0  0  0  0  0  0  0  0  0  0  0
   10.1848  -17.1584   27.4386 O   0  0  0  0  0  0  0  0  0  0  0  0
  2  3  1  0
  2  1  1  6
  4 11  1  0
  4  2  1  0
  5  4  2  0
  7  8  1  0
  7  6  1  0
  8  9  1  0
 10  9  1  1
 10 11  1  0
 10 12  1  0
 12 17  1  0
 13 12  2  0
 15 14  1  0
 16 15  1  1
 16 18  1  0
 17 16  1  0
 18 19  1  0
 20 18  2  0
M  END
$$$$
