AMS.pdb
     RDKit          3D

 20 19  0  0  1  0  0  0  0  0999 V2000
    6.0661  -20.5766   23.6869 C   0  0  0  0  0  0  0  0  0  0  0  0
    5.2625  -19.2748   23.6512 C   0  0  2  0  0  0  0  0  0  0  0  0
    4.3548  -19.2730   22.5205 N   0  0  0  0  0  0  0  0  0  0  0  0
    6.1648  -18.1045   23.5491 C   0  0  0  0  0  0  0  0  0  0  0  0
    6.6971  -17.7980   22.4544 O   0  0  0  0  0  0  0  0  0  0  0  0
    6.7815  -11.1505   25.9096 C   0  0  0  0  0  0  0  0  0  0  0  0
    7.1187  -12.7022   26.7942 S   0  0  0  0  0  0  0  0  0  0  0  0
    7.7127  -13.9338   25.6237 C   0  0  0  0  0  0  0  0  0  0  0  0
    6.8961  -15.1903   25.7414 C   0  0  0  0  0  0  0  0  0  0  0  0
    7.2602  -16.1255   24.6217 C   0  0  2  0  0  0  0  0  0  0  0  0
    6.4397  -17.3161   24.6824 N   0  0  0  0  0  0  0  0  0  0  0  0
    8.7125  -16.4959   24.7239 C   0  0  0  0  0  0  0  0  0  0  0  0
    9.0727  -17.3581   25.5669 O   0  0  0  0  0  0  0  0  0  0  0  0
   11.1950  -16.1821   21.5542 O   0  0  0  0  0  0  0  0  0  0  0  0
   11.8609  -15.8942   22.7648 C   0  0  0  0  0  0  0  0  0  0  0  0
   11.0390  -16.4164   23.9269 C   0  0  2  0  0  0  0  0  0  0  0  0
    9.6954  -15.9149   23.9104 N   0  0  0  0  0  0  0  0  0  0  0  0
   11.7517  -16.0598   25.1754 C   0  0  0  0  0  0  0  0  0  0  0  0
   13.0925  -16.4730   25.2679 O   0  0  0  0  0  0  0  0  0  0  0  0
   11.2415  -15.4345   26.1143 O   0  0  0  0  0  0  0  0  0  0  0  0
  2  3  1  0
  2  1  1  6
  4 11  1  0
  4  2  1  0
  5  4  2  0
  7  8  1  0
  7  6  1  0
  8  9  1  0
 10  9  1  1
 10 11  1  0
 10 12  1  0
 12 17  1  0
 13 12  2  0
 15 14  1  0
 16 15  1  6
 16 18  1  0
 17 16  1  0
 18 19  1  0
 20 18  2  0
M  END
$$$$
