AMS.pdb
     RDKit          3D

 20 19  0  0  1  0  0  0  0  0999 V2000
    7.2095  -17.3287   20.0782 C   0  0  0  0  0  0  0  0  0  0  0  0
    7.4288  -15.8155   20.1399 C   0  0  2  0  0  0  0  0  0  0  0  0
    8.2967  -15.3871   19.0602 N   0  0  0  0  0  0  0  0  0  0  0  0
    8.0374  -15.4265   21.4332 C   0  0  0  0  0  0  0  0  0  0  0  0
    9.2837  -15.4278   21.5823 O   0  0  0  0  0  0  0  0  0  0  0  0
    7.3287  -11.3598   27.8987 C   0  0  0  0  0  0  0  0  0  0  0  0
    6.4970  -12.0197   26.4233 S   0  0  0  0  0  0  0  0  0  0  0  0
    7.2796  -13.5687   25.9459 C   0  0  0  0  0  0  0  0  0  0  0  0
    6.6798  -14.0733   24.6632 C   0  0  0  0  0  0  0  0  0  0  0  0
    7.7697  -14.6356   23.7932 C   0  0  2  0  0  0  0  0  0  0  0  0
    7.2239  -15.0482   22.5179 N   0  0  0  0  0  0  0  0  0  0  0  0
    8.4124  -15.8065   24.4807 C   0  0  0  0  0  0  0  0  0  0  0  0
    7.7758  -16.8869   24.5868 O   0  0  0  0  0  0  0  0  0  0  0  0
   11.9726  -16.8563   23.7597 O   0  0  0  0  0  0  0  0  0  0  0  0
   11.8188  -16.9797   25.1573 C   0  0  0  0  0  0  0  0  0  0  0  0
   10.3442  -16.9334   25.5067 C   0  0  2  0  0  0  0  0  0  0  0  0
    9.7069  -15.7460   25.0157 N   0  0  0  0  0  0  0  0  0  0  0  0
   10.2284  -17.0605   26.9778 C   0  0  0  0  0  0  0  0  0  0  0  0
   10.8427  -18.1849   27.5569 O   0  0  0  0  0  0  0  0  0  0  0  0
    9.6354  -16.2504   27.7023 O   0  0  0  0  0  0  0  0  0  0  0  0
  2  3  1  0
  2  1  1  1
  4 11  1  0
  4  2  1  0
  5  4  2  0
  7  8  1  0
  7  6  1  0
  8  9  1  0
 10  9  1  1
 10 11  1  0
 10 12  1  0
 12 17  1  0
 13 12  2  0
 15 14  1  0
 16 15  1  1
 16 18  1  0
 17 16  1  0
 18 19  1  0
 20 18  2  0
M  END
$$$$
