AMS.pdb
     RDKit          3D

 20 19  0  0  1  0  0  0  0  0999 V2000
    6.7250  -16.3771   20.4448 C   0  0  0  0  0  0  0  0  0  0  0  0
    7.1380  -14.9209   20.6701 C   0  0  2  0  0  0  0  0  0  0  0  0
    7.9250  -14.4408   19.5509 N   0  0  0  0  0  0  0  0  0  0  0  0
    7.9329  -14.7879   21.9130 C   0  0  0  0  0  0  0  0  0  0  0  0
    9.1845  -14.8797   21.8873 O   0  0  0  0  0  0  0  0  0  0  0  0
    6.5766  -12.3386   27.9289 C   0  0  0  0  0  0  0  0  0  0  0  0
    6.2125  -11.4151   26.4062 S   0  0  0  0  0  0  0  0  0  0  0  0
    6.7342  -12.3882   24.9848 C   0  0  0  0  0  0  0  0  0  0  0  0
    7.1378  -13.7672   25.4264 C   0  0  0  0  0  0  0  0  0  0  0  0
    8.0268  -14.3826   24.3815 C   0  0  2  0  0  0  0  0  0  0  0  0
    7.2940  -14.5559   23.1456 N   0  0  0  0  0  0  0  0  0  0  0  0
    8.5356  -15.7097   24.8681 C   0  0  0  0  0  0  0  0  0  0  0  0
    7.7619  -16.7023   24.8790 O   0  0  0  0  0  0  0  0  0  0  0  0
   11.4920  -17.4058   23.6408 O   0  0  0  0  0  0  0  0  0  0  0  0
   11.6191  -17.5650   25.0374 C   0  0  0  0  0  0  0  0  0  0  0  0
   10.3106  -17.1931   25.7068 C   0  0  2  0  0  0  0  0  0  0  0  0
    9.8516  -15.8916   25.3160 N   0  0  0  0  0  0  0  0  0  0  0  0
   10.5111  -17.2970   27.1706 C   0  0  0  0  0  0  0  0  0  0  0  0
   10.1810  -16.1591   27.9277 O   0  0  0  0  0  0  0  0  0  0  0  0
   10.9421  -18.3058   27.7445 O   0  0  0  0  0  0  0  0  0  0  0  0
  2  3  1  0
  2  1  1  6
  4 11  1  0
  4  2  1  0
  5  4  2  0
  7  8  1  0
  7  6  1  0
  8  9  1  0
 10  9  1  1
 10 11  1  0
 10 12  1  0
 12 17  1  0
 13 12  2  0
 15 14  1  0
 16 15  1  6
 16 18  1  0
 17 16  1  0
 18 19  1  0
 20 18  2  0
M  END
$$$$
