AMS.pdb
     RDKit          3D

 20 19  0  0  1  0  0  0  0  0999 V2000
    7.3755  -12.8125   19.7971 C   0  0  0  0  0  0  0  0  0  0  0  0
    7.9024  -14.1696   20.2687 C   0  0  2  0  0  0  0  0  0  0  0  0
    6.8420  -15.1583   20.2455 N   0  0  0  0  0  0  0  0  0  0  0  0
    8.4435  -14.0725   21.6442 C   0  0  0  0  0  0  0  0  0  0  0  0
    9.5152  -13.4595   21.8705 O   0  0  0  0  0  0  0  0  0  0  0  0
    5.9297  -10.9477   26.8438 C   0  0  0  0  0  0  0  0  0  0  0  0
    6.7429  -12.5710   26.7571 S   0  0  0  0  0  0  0  0  0  0  0  0
    6.4777  -13.2793   25.1238 C   0  0  0  0  0  0  0  0  0  0  0  0
    7.1021  -14.6446   25.0483 C   0  0  0  0  0  0  0  0  0  0  0  0
    8.2531  -14.6111   24.0815 C   0  0  2  0  0  0  0  0  0  0  0  0
    7.7612  -14.6683   22.7216 N   0  0  0  0  0  0  0  0  0  0  0  0
    9.1700  -15.7713   24.3461 C   0  0  0  0  0  0  0  0  0  0  0  0
    9.5787  -15.9817   25.5176 O   0  0  0  0  0  0  0  0  0  0  0  0
   10.7649  -18.0043   21.2824 O   0  0  0  0  0  0  0  0  0  0  0  0
   10.5679  -18.7219   22.4817 C   0  0  0  0  0  0  0  0  0  0  0  0
   10.4534  -17.7474   23.6375 C   0  0  2  0  0  0  0  0  0  0  0  0
    9.5947  -16.6402   23.3311 N   0  0  0  0  0  0  0  0  0  0  0  0
   11.8234  -17.3091   23.9910 C   0  0  0  0  0  0  0  0  0  0  0  0
   12.7317  -18.3234   24.3418 O   0  0  0  0  0  0  0  0  0  0  0  0
   12.1982  -16.1291   23.9931 O   0  0  0  0  0  0  0  0  0  0  0  0
  2  3  1  0
  2  1  1  1
  4 11  1  0
  4  2  1  0
  5  4  2  0
  7  8  1  0
  7  6  1  0
  8  9  1  0
 10  9  1  1
 10 11  1  0
 10 12  1  0
 12 17  1  0
 13 12  2  0
 15 14  1  0
 16 15  1  6
 16 18  1  0
 17 16  1  0
 18 19  1  0
 20 18  2  0
M  END
$$$$
