AMS.pdb
     RDKit          3D

 20 19  0  0  1  0  0  0  0  0999 V2000
    7.3784  -18.3625   20.4940 C   0  0  0  0  0  0  0  0  0  0  0  0
    7.5308  -16.8451   20.3668 C   0  0  2  0  0  0  0  0  0  0  0  0
    8.3132  -16.5134   19.1919 N   0  0  0  0  0  0  0  0  0  0  0  0
    8.1953  -16.2829   21.5653 C   0  0  0  0  0  0  0  0  0  0  0  0
    9.4472  -16.2610   21.6543 O   0  0  0  0  0  0  0  0  0  0  0  0
    7.3082  -11.4422   27.6656 C   0  0  0  0  0  0  0  0  0  0  0  0
    6.4573  -12.4666   26.4285 S   0  0  0  0  0  0  0  0  0  0  0  0
    7.6630  -13.5105   25.5940 C   0  0  0  0  0  0  0  0  0  0  0  0
    6.9984  -14.2772   24.4848 C   0  0  0  0  0  0  0  0  0  0  0  0
    8.0280  -15.1068   23.7689 C   0  0  2  0  0  0  0  0  0  0  0  0
    7.4298  -15.7630   22.6260 N   0  0  0  0  0  0  0  0  0  0  0  0
    8.5968  -16.1302   24.7101 C   0  0  0  0  0  0  0  0  0  0  0  0
    7.8780  -17.0931   25.0843 O   0  0  0  0  0  0  0  0  0  0  0  0
   12.0825  -17.5068   24.2430 O   0  0  0  0  0  0  0  0  0  0  0  0
   11.9236  -17.3803   25.6397 C   0  0  0  0  0  0  0  0  0  0  0  0
   10.4614  -17.1387   25.9593 C   0  0  2  0  0  0  0  0  0  0  0  0
    9.9101  -16.0573   25.1953 N   0  0  0  0  0  0  0  0  0  0  0  0
   10.3550  -16.9019   27.4176 C   0  0  0  0  0  0  0  0  0  0  0  0
   10.8708  -17.9090   28.2522 O   0  0  0  0  0  0  0  0  0  0  0  0
    9.8497  -15.8914   27.9239 O   0  0  0  0  0  0  0  0  0  0  0  0
  2  3  1  0
  2  1  1  1
  4 11  1  0
  4  2  1  0
  5  4  2  0
  7  8  1  0
  7  6  1  0
  8  9  1  0
 10  9  1  1
 10 11  1  0
 10 12  1  0
 12 17  1  0
 13 12  2  0
 15 14  1  0
 16 15  1  6
 16 18  1  0
 17 16  1  0
 18 19  1  0
 20 18  2  0
M  END
$$$$
