AMS.pdb
     RDKit          3D

 20 19  0  0  1  0  0  0  0  0999 V2000
    7.7234  -17.5122   20.0079 C   0  0  0  0  0  0  0  0  0  0  0  0
    8.3251  -16.1078   20.0934 C   0  0  2  0  0  0  0  0  0  0  0  0
    9.4973  -16.0087   19.2457 N   0  0  0  0  0  0  0  0  0  0  0  0
    8.7077  -15.7856   21.4877 C   0  0  0  0  0  0  0  0  0  0  0  0
    9.8315  -16.1172   21.9379 O   0  0  0  0  0  0  0  0  0  0  0  0
    6.8887  -11.4952   27.8318 C   0  0  0  0  0  0  0  0  0  0  0  0
    6.2823  -12.1941   26.2673 S   0  0  0  0  0  0  0  0  0  0  0  0
    7.5286  -13.3034   25.5922 C   0  0  0  0  0  0  0  0  0  0  0  0
    7.0994  -13.7951   24.2381 C   0  0  0  0  0  0  0  0  0  0  0  0
    8.1698  -14.6862   23.6715 C   0  0  2  0  0  0  0  0  0  0  0  0
    7.8133  -15.1003   22.3313 N   0  0  0  0  0  0  0  0  0  0  0  0
    8.3444  -15.8904   24.5525 C   0  0  0  0  0  0  0  0  0  0  0  0
    7.5001  -16.8222   24.5004 O   0  0  0  0  0  0  0  0  0  0  0  0
   11.1134  -19.2762   25.4426 O   0  0  0  0  0  0  0  0  0  0  0  0
   10.7498  -18.0143   24.9256 C   0  0  0  0  0  0  0  0  0  0  0  0
    9.8243  -17.3179   25.9039 C   0  0  2  0  0  0  0  0  0  0  0  0
    9.4209  -16.0217   25.4411 N   0  0  0  0  0  0  0  0  0  0  0  0
   10.5208  -17.2516   27.2095 C   0  0  0  0  0  0  0  0  0  0  0  0
   10.8265  -18.4826   27.8164 O   0  0  0  0  0  0  0  0  0  0  0  0
   10.8381  -16.1980   27.7768 O   0  0  0  0  0  0  0  0  0  0  0  0
  2  3  1  0
  2  1  1  1
  4 11  1  0
  4  2  1  0
  5  4  2  0
  7  8  1  0
  7  6  1  0
  8  9  1  0
 10  9  1  1
 10 11  1  0
 10 12  1  0
 12 17  1  0
 13 12  2  0
 15 14  1  0
 16 15  1  6
 16 18  1  0
 17 16  1  0
 18 19  1  0
 20 18  2  0
M  END
$$$$
