AMS.pdb
     RDKit          3D

 20 19  0  0  1  0  0  0  0  0999 V2000
    7.2491  -16.4332   19.5183 C   0  0  0  0  0  0  0  0  0  0  0  0
    7.2315  -14.9286   19.7965 C   0  0  2  0  0  0  0  0  0  0  0  0
    7.8869  -14.2091   18.7216 N   0  0  0  0  0  0  0  0  0  0  0  0
    7.9190  -14.6235   21.0726 C   0  0  0  0  0  0  0  0  0  0  0  0
    9.1568  -14.4175   21.1016 O   0  0  0  0  0  0  0  0  0  0  0  0
    7.3371  -11.7833   28.2868 C   0  0  0  0  0  0  0  0  0  0  0  0
    6.4107  -12.4424   26.8686 S   0  0  0  0  0  0  0  0  0  0  0  0
    7.5437  -13.3150   25.7756 C   0  0  0  0  0  0  0  0  0  0  0  0
    6.8317  -13.7207   24.5154 C   0  0  0  0  0  0  0  0  0  0  0  0
    7.8232  -14.3174   23.5553 C   0  0  2  0  0  0  0  0  0  0  0  0
    7.1915  -14.5599   22.2760 N   0  0  0  0  0  0  0  0  0  0  0  0
    8.3593  -15.6038   24.1163 C   0  0  0  0  0  0  0  0  0  0  0  0
    7.6324  -16.6311   24.1110 O   0  0  0  0  0  0  0  0  0  0  0  0
   11.6747  -17.1567   23.3745 O   0  0  0  0  0  0  0  0  0  0  0  0
   11.5510  -17.2508   24.7773 C   0  0  0  0  0  0  0  0  0  0  0  0
   10.1173  -16.9605   25.1759 C   0  0  2  0  0  0  0  0  0  0  0  0
    9.6507  -15.7097   24.6518 N   0  0  0  0  0  0  0  0  0  0  0  0
   10.0457  -17.0066   26.6547 C   0  0  0  0  0  0  0  0  0  0  0  0
   10.4826  -18.1964   27.2634 O   0  0  0  0  0  0  0  0  0  0  0  0
    9.6325  -16.0777   27.3612 O   0  0  0  0  0  0  0  0  0  0  0  0
  2  3  1  0
  2  1  1  6
  4 11  1  0
  4  2  1  0
  5  4  2  0
  7  8  1  0
  7  6  1  0
  8  9  1  0
 10  9  1  1
 10 11  1  0
 10 12  1  0
 12 17  1  0
 13 12  2  0
 15 14  1  0
 16 15  1  1
 16 18  1  0
 17 16  1  0
 18 19  1  0
 20 18  2  0
M  END
$$$$
