AMS.pdb
     RDKit          3D

 20 19  0  0  1  0  0  0  0  0999 V2000
    7.5371  -15.0230   18.9822 C   0  0  0  0  0  0  0  0  0  0  0  0
    7.5763  -16.0842   20.0840 C   0  0  2  0  0  0  0  0  0  0  0  0
    6.2325  -16.5150   20.4176 N   0  0  0  0  0  0  0  0  0  0  0  0
    8.2299  -15.5514   21.3019 C   0  0  0  0  0  0  0  0  0  0  0  0
    9.4433  -15.2302   21.2908 O   0  0  0  0  0  0  0  0  0  0  0  0
    7.2773  -11.7439   28.0410 C   0  0  0  0  0  0  0  0  0  0  0  0
    6.4836  -12.4532   26.5677 S   0  0  0  0  0  0  0  0  0  0  0  0
    7.6561  -13.5256   25.7222 C   0  0  0  0  0  0  0  0  0  0  0  0
    7.0443  -14.0594   24.4571 C   0  0  0  0  0  0  0  0  0  0  0  0
    8.0784  -14.8442   23.6985 C   0  0  2  0  0  0  0  0  0  0  0  0
    7.4972  -15.3970   22.4938 N   0  0  0  0  0  0  0  0  0  0  0  0
    8.6119  -15.9488   24.5658 C   0  0  0  0  0  0  0  0  0  0  0  0
    7.8120  -16.7762   25.0750 O   0  0  0  0  0  0  0  0  0  0  0  0
   12.6870  -16.6022   24.9237 O   0  0  0  0  0  0  0  0  0  0  0  0
   11.8181  -17.7142   24.9451 C   0  0  0  0  0  0  0  0  0  0  0  0
   10.4655  -17.2849   25.4786 C   0  0  2  0  0  0  0  0  0  0  0  0
    9.9796  -16.0988   24.8351 N   0  0  0  0  0  0  0  0  0  0  0  0
   10.5968  -17.1104   26.9436 C   0  0  0  0  0  0  0  0  0  0  0  0
   11.0182  -18.2377   27.6707 O   0  0  0  0  0  0  0  0  0  0  0  0
   10.3611  -16.0529   27.5427 O   0  0  0  0  0  0  0  0  0  0  0  0
  2  3  1  0
  2  1  1  6
  4 11  1  0
  4  2  1  0
  5  4  2  0
  7  8  1  0
  7  6  1  0
  8  9  1  0
 10  9  1  1
 10 11  1  0
 10 12  1  0
 12 17  1  0
 13 12  2  0
 15 14  1  0
 16 15  1  6
 16 18  1  0
 17 16  1  0
 18 19  1  0
 20 18  2  0
M  END
$$$$
