YVF.pdb
     RDKit          3D

 31 32  0  0  1  0  0  0  0  0999 V2000
    5.5259  -24.2053   27.0820 O   0  0  0  0  0  0  0  0  0  0  0  0
    5.6768  -22.9501   26.4615 C   0  0  0  0  0  0  0  0  0  0  0  0
    4.8184  -22.5584   25.4525 C   0  0  0  0  0  0  0  0  0  0  0  0
    4.9756  -21.3136   24.8438 C   0  0  0  0  0  0  0  0  0  0  0  0
    5.9784  -20.4615   25.2334 C   0  0  0  0  0  0  0  0  0  0  0  0
    6.1696  -19.1351   24.6053 C   0  0  0  0  0  0  0  0  0  0  0  0
    6.2609  -19.2188   23.0984 C   0  0  2  0  0  0  0  0  0  0  0  0
    6.6483  -20.5781   22.7349 N   0  0  0  0  0  0  0  0  0  0  0  0
    7.2897  -18.2443   22.6555 C   0  0  0  0  0  0  0  0  0  0  0  0
    8.4782  -18.6462   22.5995 O   0  0  0  0  0  0  0  0  0  0  0  0
    6.8280  -20.8620   26.2399 C   0  0  0  0  0  0  0  0  0  0  0  0
    6.6842  -22.1039   26.8588 C   0  0  0  0  0  0  0  0  0  0  0  0
    6.8765  -13.7363   22.3822 C   0  0  0  0  0  0  0  0  0  0  0  0
    7.3089  -14.6872   21.3064 C   0  0  2  0  0  0  0  0  0  0  0  0
    6.1083  -15.0394   20.4545 C   0  0  0  0  0  0  0  0  0  0  0  0
    7.9580  -15.9466   21.8718 C   0  0  2  0  0  0  0  0  0  0  0  0
    6.9799  -16.9031   22.3016 N   0  0  0  0  0  0  0  0  0  0  0  0
    8.9856  -15.6468   22.8681 C   0  0  0  0  0  0  0  0  0  0  0  0
   10.1342  -15.1697   22.5719 O   0  0  0  0  0  0  0  0  0  0  0  0
    8.7776  -15.8674   24.2581 N   0  0  0  0  0  0  0  0  0  0  0  0
    9.8406  -15.6960   25.2324 C   0  0  1  0  0  0  0  0  0  0  0  0
   10.0533  -14.1786   25.3375 C   0  0  0  0  0  0  0  0  0  0  0  0
    8.8685  -13.5238   25.9274 C   0  0  0  0  0  0  0  0  0  0  0  0
    8.9026  -12.9762   27.1984 C   0  0  0  0  0  0  0  0  0  0  0  0
    7.7908  -12.3630   27.7505 C   0  0  0  0  0  0  0  0  0  0  0  0
    6.6526  -12.3221   26.9812 C   0  0  0  0  0  0  0  0  0  0  0  0
    6.6092  -12.8703   25.7017 C   0  0  0  0  0  0  0  0  0  0  0  0
    7.7219  -13.4785   25.1619 C   0  0  0  0  0  0  0  0  0  0  0  0
    9.5284  -16.2889   26.5271 C   0  0  0  0  0  0  0  0  0  0  0  0
    8.3502  -16.9765   26.7361 O   0  0  0  0  0  0  0  0  0  0  0  0
   10.3359  -16.1796   27.4763 O   0  0  0  0  0  0  0  0  0  0  0  0
  2 12  2  0
  2  1  1  0
  3  2  1  0
  4  5  1  0
  4  3  2  0
  5 11  2  0
  6  5  1  0
  7  6  1  0
  7  8  1  1
  9  7  1  0
 10  9  2  0
 11 12  1  0
 14 13  1  1
 14 16  1  0
 15 14  1  0
 16 18  1  0
 16 17  1  1
 17  9  1  0
 18 20  1  0
 19 18  2  0
 20 21  1  0
 21 29  1  0
 21 22  1  1
 23 22  1  0
 24 23  2  0
 25 24  1  0
 26 25  2  0
 26 27  1  0
 27 28  2  0
 28 23  1  0
 29 31  2  0
 29 30  1  0
M  END
$$$$
