YVF.pdb
     RDKit          3D

 31 32  0  0  1  0  0  0  0  0999 V2000
   16.0870  -19.5691   16.0252 O   0  0  0  0  0  0  0  0  0  0  0  0
   15.3682  -18.8894   17.0276 C   0  0  0  0  0  0  0  0  0  0  0  0
   16.0180  -18.0446   17.9065 C   0  0  0  0  0  0  0  0  0  0  0  0
   15.2980  -17.3758   18.8959 C   0  0  0  0  0  0  0  0  0  0  0  0
   13.9410  -17.5434   19.0135 C   0  0  0  0  0  0  0  0  0  0  0  0
   13.1513  -16.8473   20.0537 C   0  0  0  0  0  0  0  0  0  0  0  0
   12.5154  -15.5754   19.5398 C   0  0  2  0  0  0  0  0  0  0  0  0
   13.5703  -14.5938   19.3083 N   0  0  0  0  0  0  0  0  0  0  0  0
   11.5700  -15.0939   20.5785 C   0  0  0  0  0  0  0  0  0  0  0  0
   12.0624  -14.6553   21.6473 O   0  0  0  0  0  0  0  0  0  0  0  0
   13.3038  -18.3876   18.1323 C   0  0  0  0  0  0  0  0  0  0  0  0
   14.0094  -19.0640   17.1371 C   0  0  0  0  0  0  0  0  0  0  0  0
    8.2060  -13.1043   19.5548 C   0  0  0  0  0  0  0  0  0  0  0  0
    7.9486  -14.0853   20.6593 C   0  0  2  0  0  0  0  0  0  0  0  0
    7.0051  -13.4558   21.6617 C   0  0  0  0  0  0  0  0  0  0  0  0
    9.2347  -14.5420   21.3411 C   0  0  2  0  0  0  0  0  0  0  0  0
   10.1594  -15.1135   20.4059 N   0  0  0  0  0  0  0  0  0  0  0  0
    8.9793  -15.3706   22.5185 C   0  0  0  0  0  0  0  0  0  0  0  0
    8.8252  -16.6387   22.4660 O   0  0  0  0  0  0  0  0  0  0  0  0
    8.8828  -14.8169   23.8255 N   0  0  0  0  0  0  0  0  0  0  0  0
    8.7441  -15.6505   25.0065 C   0  0  1  0  0  0  0  0  0  0  0  0
    8.9702  -14.7073   26.1973 C   0  0  0  0  0  0  0  0  0  0  0  0
    7.9408  -13.6491   26.2293 C   0  0  0  0  0  0  0  0  0  0  0  0
    8.1982  -12.3752   25.7525 C   0  0  0  0  0  0  0  0  0  0  0  0
    7.2323  -11.3838   25.7834 C   0  0  0  0  0  0  0  0  0  0  0  0
    6.0073  -11.7204   26.3081 C   0  0  0  0  0  0  0  0  0  0  0  0
    5.7395  -12.9992   26.7899 C   0  0  0  0  0  0  0  0  0  0  0  0
    6.7085  -13.9786   26.7543 C   0  0  0  0  0  0  0  0  0  0  0  0
    7.4507  -16.3186   25.0842 C   0  0  0  0  0  0  0  0  0  0  0  0
    7.2226  -17.3381   25.9860 O   0  0  0  0  0  0  0  0  0  0  0  0
    6.5202  -15.9706   24.3240 O   0  0  0  0  0  0  0  0  0  0  0  0
  2 12  2  0
  2  1  1  0
  3  2  1  0
  4  5  1  0
  4  3  2  0
  5 11  2  0
  6  5  1  0
  7  6  1  0
  7  8  1  1
  9  7  1  0
 10  9  2  0
 11 12  1  0
 14 13  1  6
 14 16  1  0
 15 14  1  0
 16 18  1  0
 16 17  1  6
 17  9  1  0
 18 20  1  0
 19 18  2  0
 20 21  1  0
 21 29  1  0
 21 22  1  1
 23 22  1  0
 24 23  2  0
 25 24  1  0
 26 25  2  0
 26 27  1  0
 27 28  2  0
 28 23  1  0
 29 31  2  0
 29 30  1  0
M  END
$$$$
