YVF.pdb
     RDKit          3D

 31 32  0  0  1  0  0  0  0  0999 V2000
   10.8062  -23.7431   16.6126 O   0  0  0  0  0  0  0  0  0  0  0  0
   10.7992  -22.6201   17.4624 C   0  0  0  0  0  0  0  0  0  0  0  0
    9.6127  -22.1426   17.9844 C   0  0  0  0  0  0  0  0  0  0  0  0
    9.6155  -21.0299   18.8250 C   0  0  0  0  0  0  0  0  0  0  0  0
   10.7884  -20.3939   19.1465 C   0  0  0  0  0  0  0  0  0  0  0  0
   10.8218  -19.2110   20.0353 C   0  0  0  0  0  0  0  0  0  0  0  0
   10.4458  -17.9368   19.3132 C   0  0  2  0  0  0  0  0  0  0  0  0
   11.5588  -17.5491   18.4526 N   0  0  0  0  0  0  0  0  0  0  0  0
   10.1906  -16.8962   20.3411 C   0  0  0  0  0  0  0  0  0  0  0  0
   11.1260  -16.6288   21.1353 O   0  0  0  0  0  0  0  0  0  0  0  0
   11.9648  -20.8783   18.6207 C   0  0  0  0  0  0  0  0  0  0  0  0
   11.9791  -21.9901   17.7784 C   0  0  0  0  0  0  0  0  0  0  0  0
    7.2686  -13.2735   22.1279 C   0  0  0  0  0  0  0  0  0  0  0  0
    7.4717  -14.3778   21.1341 C   0  0  2  0  0  0  0  0  0  0  0  0
    6.1936  -15.1820   21.0295 C   0  0  0  0  0  0  0  0  0  0  0  0
    8.6479  -15.2781   21.4994 C   0  0  2  0  0  0  0  0  0  0  0  0
    8.9512  -16.2096   20.4522 N   0  0  0  0  0  0  0  0  0  0  0  0
    8.4973  -15.8857   22.8210 C   0  0  0  0  0  0  0  0  0  0  0  0
    8.0589  -17.0728   23.0033 O   0  0  0  0  0  0  0  0  0  0  0  0
    8.8327  -15.1893   24.0154 N   0  0  0  0  0  0  0  0  0  0  0  0
    8.6893  -15.7965   25.3267 C   0  0  1  0  0  0  0  0  0  0  0  0
    8.9434  -14.6610   26.3292 C   0  0  0  0  0  0  0  0  0  0  0  0
    7.8907  -13.6302   26.2300 C   0  0  0  0  0  0  0  0  0  0  0  0
    6.6722  -13.7771   26.8704 C   0  0  0  0  0  0  0  0  0  0  0  0
    5.6858  -12.8101   26.7763 C   0  0  0  0  0  0  0  0  0  0  0  0
    5.9699  -11.6986   26.0193 C   0  0  0  0  0  0  0  0  0  0  0  0
    7.1929  -11.5425   25.3717 C   0  0  0  0  0  0  0  0  0  0  0  0
    8.1678  -12.5114   25.4722 C   0  0  0  0  0  0  0  0  0  0  0  0
    7.3845  -16.4142   25.5293 C   0  0  0  0  0  0  0  0  0  0  0  0
    7.1630  -17.3007   26.5636 O   0  0  0  0  0  0  0  0  0  0  0  0
    6.4378  -16.1442   24.7574 O   0  0  0  0  0  0  0  0  0  0  0  0
  2 12  2  0
  2  1  1  0
  3  2  1  0
  4  5  1  0
  4  3  2  0
  5 11  2  0
  6  5  1  0
  7  6  1  0
  7  8  1  6
  9  7  1  0
 10  9  2  0
 11 12  1  0
 14 13  1  1
 14 16  1  0
 15 14  1  0
 16 18  1  0
 16 17  1  6
 17  9  1  0
 18 20  1  0
 19 18  2  0
 20 21  1  0
 21 29  1  0
 21 22  1  1
 23 22  1  0
 24 23  2  0
 25 24  1  0
 26 25  2  0
 26 27  1  0
 27 28  2  0
 28 23  1  0
 29 31  2  0
 29 30  1  0
M  END
$$$$
