YVF.pdb
     RDKit          3D

 31 32  0  0  1  0  0  0  0  0999 V2000
    2.9646  -23.8990   24.1027 O   0  0  0  0  0  0  0  0  0  0  0  0
    3.8482  -22.8167   23.9262 C   0  0  0  0  0  0  0  0  0  0  0  0
    3.4326  -21.6702   23.2774 C   0  0  0  0  0  0  0  0  0  0  0  0
    4.3147  -20.6036   23.1072 C   0  0  0  0  0  0  0  0  0  0  0  0
    5.6020  -20.6731   23.5777 C   0  0  0  0  0  0  0  0  0  0  0  0
    6.5600  -19.5574   23.4111 C   0  0  0  0  0  0  0  0  0  0  0  0
    6.7239  -19.1497   21.9643 C   0  0  2  0  0  0  0  0  0  0  0  0
    7.3131  -20.2677   21.2344 N   0  0  0  0  0  0  0  0  0  0  0  0
    7.6228  -17.9686   21.9291 C   0  0  0  0  0  0  0  0  0  0  0  0
    8.8444  -18.1673   22.1425 O   0  0  0  0  0  0  0  0  0  0  0  0
    6.0055  -21.8204   24.2228 C   0  0  0  0  0  0  0  0  0  0  0  0
    5.1355  -22.8962   24.4011 C   0  0  0  0  0  0  0  0  0  0  0  0
    7.0344  -14.2637   20.0755 C   0  0  0  0  0  0  0  0  0  0  0  0
    7.1781  -14.2026   21.5668 C   0  0  2  0  0  0  0  0  0  0  0  0
    7.9964  -12.9818   21.9291 C   0  0  0  0  0  0  0  0  0  0  0  0
    7.8105  -15.4666   22.1410 C   0  0  2  0  0  0  0  0  0  0  0  0
    7.1561  -16.6517   21.6682 N   0  0  0  0  0  0  0  0  0  0  0  0
    7.9663  -15.4033   23.5936 C   0  0  0  0  0  0  0  0  0  0  0  0
    7.0157  -15.6439   24.4140 O   0  0  0  0  0  0  0  0  0  0  0  0
    9.2048  -15.0649   24.2065 N   0  0  0  0  0  0  0  0  0  0  0  0
    9.3876  -15.1052   25.6466 C   0  0  1  0  0  0  0  0  0  0  0  0
    7.9748  -15.2539   26.2305 C   0  0  0  0  0  0  0  0  0  0  0  0
    7.3539  -13.9308   26.4411 C   0  0  0  0  0  0  0  0  0  0  0  0
    5.9845  -13.7513   26.3467 C   0  0  0  0  0  0  0  0  0  0  0  0
    5.4036  -12.5101   26.5439 C   0  0  0  0  0  0  0  0  0  0  0  0
    6.2465  -11.4647   26.8374 C   0  0  0  0  0  0  0  0  0  0  0  0
    7.6251  -11.6361   26.9344 C   0  0  0  0  0  0  0  0  0  0  0  0
    8.1928  -12.8762   26.7361 C   0  0  0  0  0  0  0  0  0  0  0  0
   10.2676  -16.1838   26.0796 C   0  0  0  0  0  0  0  0  0  0  0  0
   10.8770  -17.0223   25.1686 O   0  0  0  0  0  0  0  0  0  0  0  0
   10.4833  -16.3639   27.2987 O   0  0  0  0  0  0  0  0  0  0  0  0
  2 12  2  0
  2  1  1  0
  3  2  1  0
  4  5  1  0
  4  3  2  0
  5 11  2  0
  6  5  1  0
  7  6  1  0
  7  8  1  6
  9  7  1  0
 10  9  2  0
 11 12  1  0
 14 13  1  6
 14 16  1  0
 15 14  1  0
 16 18  1  0
 16 17  1  1
 17  9  1  0
 18 20  1  0
 19 18  2  0
 20 21  1  0
 21 29  1  0
 21 22  1  1
 23 22  1  0
 24 23  2  0
 25 24  1  0
 26 25  2  0
 26 27  1  0
 27 28  2  0
 28 23  1  0
 29 31  2  0
 29 30  1  0
M  END
$$$$
