YVF.pdb
     RDKit          3D

 31 32  0  0  1  0  0  0  0  0999 V2000
    0.0185  -21.3802   20.9452 O   0  0  0  0  0  0  0  0  0  0  0  0
    1.1402  -20.5533   21.1484 C   0  0  0  0  0  0  0  0  0  0  0  0
    1.4141  -19.5160   20.2782 C   0  0  0  0  0  0  0  0  0  0  0  0
    2.5271  -18.7024   20.4874 C   0  0  0  0  0  0  0  0  0  0  0  0
    3.3643  -18.9159   21.5537 C   0  0  0  0  0  0  0  0  0  0  0  0
    4.5528  -18.0691   21.8004 C   0  0  0  0  0  0  0  0  0  0  0  0
    5.5359  -18.1074   20.6522 C   0  0  2  0  0  0  0  0  0  0  0  0
    6.0139  -19.4779   20.5001 N   0  0  0  0  0  0  0  0  0  0  0  0
    6.6577  -17.1955   20.9904 C   0  0  0  0  0  0  0  0  0  0  0  0
    7.6255  -17.6828   21.6252 O   0  0  0  0  0  0  0  0  0  0  0  0
    3.0818  -19.9523   22.4146 C   0  0  0  0  0  0  0  0  0  0  0  0
    1.9725  -20.7752   22.2194 C   0  0  0  0  0  0  0  0  0  0  0  0
    7.4222  -13.5711   18.9250 C   0  0  0  0  0  0  0  0  0  0  0  0
    7.4853  -13.5184   20.4222 C   0  0  2  0  0  0  0  0  0  0  0  0
    8.5998  -12.5795   20.8314 C   0  0  0  0  0  0  0  0  0  0  0  0
    7.6854  -14.8974   21.0434 C   0  0  2  0  0  0  0  0  0  0  0  0
    6.6707  -15.8214   20.6274 N   0  0  0  0  0  0  0  0  0  0  0  0
    7.8864  -14.8348   22.4904 C   0  0  0  0  0  0  0  0  0  0  0  0
    7.0766  -14.2496   23.2882 O   0  0  0  0  0  0  0  0  0  0  0  0
    9.0136  -15.4291   23.1231 N   0  0  0  0  0  0  0  0  0  0  0  0
    9.4011  -15.0915   24.4812 C   0  0  1  0  0  0  0  0  0  0  0  0
    8.1389  -15.3092   25.3289 C   0  0  0  0  0  0  0  0  0  0  0  0
    7.7341  -16.7291   25.3093 C   0  0  0  0  0  0  0  0  0  0  0  0
    8.4233  -17.6877   26.0321 C   0  0  0  0  0  0  0  0  0  0  0  0
    8.0430  -19.0188   26.0125 C   0  0  0  0  0  0  0  0  0  0  0  0
    6.9513  -19.3460   25.2441 C   0  0  0  0  0  0  0  0  0  0  0  0
    6.2520  -18.3884   24.5138 C   0  0  0  0  0  0  0  0  0  0  0  0
    6.6394  -17.0660   24.5405 C   0  0  0  0  0  0  0  0  0  0  0  0
   10.5226  -15.8854   24.9682 C   0  0  0  0  0  0  0  0  0  0  0  0
   11.0977  -15.6365   26.1978 O   0  0  0  0  0  0  0  0  0  0  0  0
   10.9828  -16.8139   24.2674 O   0  0  0  0  0  0  0  0  0  0  0  0
  2 12  2  0
  2  1  1  0
  3  2  1  0
  4  5  1  0
  4  3  2  0
  5 11  2  0
  6  5  1  0
  7  6  1  0
  7  8  1  1
  9  7  1  0
 10  9  2  0
 11 12  1  0
 14 13  1  6
 14 16  1  0
 15 14  1  0
 16 18  1  0
 16 17  1  1
 17  9  1  0
 18 20  1  0
 19 18  2  0
 20 21  1  0
 21 29  1  0
 21 22  1  1
 23 22  1  0
 24 23  2  0
 25 24  1  0
 26 25  2  0
 26 27  1  0
 27 28  2  0
 28 23  1  0
 29 31  2  0
 29 30  1  0
M  END
$$$$
