YVF.pdb
     RDKit          3D

 31 32  0  0  1  0  0  0  0  0999 V2000
   10.7768  -23.6429   17.1347 O   0  0  0  0  0  0  0  0  0  0  0  0
   10.7893  -22.4802   17.9292 C   0  0  0  0  0  0  0  0  0  0  0  0
   11.7122  -21.4795   17.6941 C   0  0  0  0  0  0  0  0  0  0  0  0
   11.7170  -20.3318   18.4861 C   0  0  0  0  0  0  0  0  0  0  0  0
   10.8116  -20.1767   19.5059 C   0  0  0  0  0  0  0  0  0  0  0  0
   10.7935  -18.9702   20.3628 C   0  0  0  0  0  0  0  0  0  0  0  0
   10.7291  -17.6922   19.5572 C   0  0  2  0  0  0  0  0  0  0  0  0
   12.0415  -17.4541   18.9650 N   0  0  0  0  0  0  0  0  0  0  0  0
   10.3661  -16.5928   20.4867 C   0  0  0  0  0  0  0  0  0  0  0  0
   11.2765  -16.1335   21.2198 O   0  0  0  0  0  0  0  0  0  0  0  0
    9.8965  -21.1802   19.7312 C   0  0  0  0  0  0  0  0  0  0  0  0
    9.8784  -22.3344   18.9481 C   0  0  0  0  0  0  0  0  0  0  0  0
    7.7112  -13.5544   19.8948 C   0  0  0  0  0  0  0  0  0  0  0  0
    7.4342  -14.3118   21.1589 C   0  0  2  0  0  0  0  0  0  0  0  0
    7.0418  -13.3289   22.2411 C   0  0  0  0  0  0  0  0  0  0  0  0
    8.6248  -15.1562   21.6022 C   0  0  2  0  0  0  0  0  0  0  0  0
    9.0526  -16.0566   20.5713 N   0  0  0  0  0  0  0  0  0  0  0  0
    8.4082  -15.7888   22.9026 C   0  0  0  0  0  0  0  0  0  0  0  0
    7.9052  -16.9560   23.0418 O   0  0  0  0  0  0  0  0  0  0  0  0
    8.7467  -15.1415   24.1235 N   0  0  0  0  0  0  0  0  0  0  0  0
    8.6118  -15.8033   25.4090 C   0  0  1  0  0  0  0  0  0  0  0  0
    8.9131  -14.7207   26.4560 C   0  0  0  0  0  0  0  0  0  0  0  0
    7.8491  -13.6968   26.4707 C   0  0  0  0  0  0  0  0  0  0  0  0
    6.6527  -13.9067   27.1348 C   0  0  0  0  0  0  0  0  0  0  0  0
    5.6557  -12.9460   27.1475 C   0  0  0  0  0  0  0  0  0  0  0  0
    5.9065  -11.7755   26.4721 C   0  0  0  0  0  0  0  0  0  0  0  0
    7.1071  -11.5558   25.8014 C   0  0  0  0  0  0  0  0  0  0  0  0
    8.0927  -12.5190   25.7952 C   0  0  0  0  0  0  0  0  0  0  0  0
    7.2956  -16.3973   25.6092 C   0  0  0  0  0  0  0  0  0  0  0  0
    7.0862  -17.3732   26.5622 O   0  0  0  0  0  0  0  0  0  0  0  0
    6.3279  -16.0240   24.9098 O   0  0  0  0  0  0  0  0  0  0  0  0
  2 12  2  0
  2  1  1  0
  3  2  1  0
  4  5  1  0
  4  3  2  0
  5 11  2  0
  6  5  1  0
  7  6  1  0
  7  8  1  1
  9  7  1  0
 10  9  2  0
 11 12  1  0
 14 13  1  6
 14 16  1  0
 15 14  1  0
 16 18  1  0
 16 17  1  6
 17  9  1  0
 18 20  1  0
 19 18  2  0
 20 21  1  0
 21 29  1  0
 21 22  1  1
 23 22  1  0
 24 23  2  0
 25 24  1  0
 26 25  2  0
 26 27  1  0
 27 28  2  0
 28 23  1  0
 29 31  2  0
 29 30  1  0
M  END
$$$$
