YVF.pdb
     RDKit          3D

 31 32  0  0  1  0  0  0  0  0999 V2000
    5.8911  -23.5098   28.2194 O   0  0  0  0  0  0  0  0  0  0  0  0
    6.0221  -22.3485   27.4335 C   0  0  0  0  0  0  0  0  0  0  0  0
    5.2308  -22.1643   26.3163 C   0  0  0  0  0  0  0  0  0  0  0  0
    5.3678  -21.0112   25.5441 C   0  0  0  0  0  0  0  0  0  0  0  0
    6.2843  -20.0457   25.8777 C   0  0  0  0  0  0  0  0  0  0  0  0
    6.4520  -18.8125   25.0768 C   0  0  0  0  0  0  0  0  0  0  0  0
    6.4337  -19.0843   23.5895 C   0  0  2  0  0  0  0  0  0  0  0  0
    6.9903  -20.4132   23.3570 N   0  0  0  0  0  0  0  0  0  0  0  0
    7.2659  -18.0450   22.9323 C   0  0  0  0  0  0  0  0  0  0  0  0
    8.4396  -18.3611   22.6164 O   0  0  0  0  0  0  0  0  0  0  0  0
    7.0676  -20.2397   26.9930 C   0  0  0  0  0  0  0  0  0  0  0  0
    6.9430  -21.3874   27.7759 C   0  0  0  0  0  0  0  0  0  0  0  0
    6.3401  -14.9959   20.4246 C   0  0  0  0  0  0  0  0  0  0  0  0
    6.9585  -14.4877   21.6926 C   0  0  2  0  0  0  0  0  0  0  0  0
    7.9418  -13.3890   21.3504 C   0  0  0  0  0  0  0  0  0  0  0  0
    7.6415  -15.5950   22.4894 C   0  0  2  0  0  0  0  0  0  0  0  0
    6.7881  -16.7352   22.6563 N   0  0  0  0  0  0  0  0  0  0  0  0
    8.2395  -15.1034   23.7299 C   0  0  0  0  0  0  0  0  0  0  0  0
    8.0406  -13.9266   24.1885 O   0  0  0  0  0  0  0  0  0  0  0  0
    9.0977  -15.9112   24.5269 N   0  0  0  0  0  0  0  0  0  0  0  0
    9.5715  -15.4787   25.8296 C   0  0  1  0  0  0  0  0  0  0  0  0
    8.3082  -15.3215   26.6888 C   0  0  0  0  0  0  0  0  0  0  0  0
    7.7257  -13.9750   26.5210 C   0  0  0  0  0  0  0  0  0  0  0  0
    6.4116  -13.8001   26.1221 C   0  0  0  0  0  0  0  0  0  0  0  0
    5.8667  -12.5371   25.9647 C   0  0  0  0  0  0  0  0  0  0  0  0
    6.6879  -11.4653   26.2221 C   0  0  0  0  0  0  0  0  0  0  0  0
    8.0108  -11.6318   26.6238 C   0  0  0  0  0  0  0  0  0  0  0  0
    8.5431  -12.8938   26.7773 C   0  0  0  0  0  0  0  0  0  0  0  0
   10.5204  -16.4090   26.4289 C   0  0  0  0  0  0  0  0  0  0  0  0
   11.1599  -16.1163   27.6163 O   0  0  0  0  0  0  0  0  0  0  0  0
   10.7692  -17.4982   25.8660 O   0  0  0  0  0  0  0  0  0  0  0  0
  2 12  2  0
  2  1  1  0
  3  2  1  0
  4  5  1  0
  4  3  2  0
  5 11  2  0
  6  5  1  0
  7  6  1  0
  7  8  1  1
  9  7  1  0
 10  9  2  0
 11 12  1  0
 14 13  1  6
 14 16  1  0
 15 14  1  0
 16 18  1  0
 16 17  1  1
 17  9  1  0
 18 20  1  0
 19 18  2  0
 20 21  1  0
 21 29  1  0
 21 22  1  1
 23 22  1  0
 24 23  2  0
 25 24  1  0
 26 25  2  0
 26 27  1  0
 27 28  2  0
 28 23  1  0
 29 31  2  0
 29 30  1  0
M  END
$$$$
