YVF.pdb
     RDKit          3D

 31 32  0  0  1  0  0  0  0  0999 V2000
    7.9728  -11.4883   17.7196 O   0  0  0  0  0  0  0  0  0  0  0  0
    7.7583  -12.3668   18.7992 C   0  0  0  0  0  0  0  0  0  0  0  0
    6.5399  -12.9979   18.9590 C   0  0  0  0  0  0  0  0  0  0  0  0
    6.3367  -13.8661   20.0312 C   0  0  0  0  0  0  0  0  0  0  0  0
    7.3360  -14.1075   20.9403 C   0  0  0  0  0  0  0  0  0  0  0  0
    7.1489  -15.0232   22.0878 C   0  0  0  0  0  0  0  0  0  0  0  0
    7.5570  -16.4428   21.7649 C   0  0  2  0  0  0  0  0  0  0  0  0
    6.3779  -17.1671   21.3012 N   0  0  0  0  0  0  0  0  0  0  0  0
    8.0902  -17.0515   23.0097 C   0  0  0  0  0  0  0  0  0  0  0  0
    7.2584  -17.5320   23.8186 O   0  0  0  0  0  0  0  0  0  0  0  0
    8.5462  -13.4733   20.7714 C   0  0  0  0  0  0  0  0  0  0  0  0
    8.7655  -12.6020   19.7043 C   0  0  0  0  0  0  0  0  0  0  0  0
   10.7372  -19.7347   23.2651 C   0  0  0  0  0  0  0  0  0  0  0  0
   11.1474  -18.6533   24.2195 C   0  0  2  0  0  0  0  0  0  0  0  0
   11.6447  -19.2931   25.4980 C   0  0  0  0  0  0  0  0  0  0  0  0
   10.0132  -17.6755   24.5107 C   0  0  2  0  0  0  0  0  0  0  0  0
    9.4788  -17.1062   23.3079 N   0  0  0  0  0  0  0  0  0  0  0  0
   10.3701  -16.6944   25.5346 C   0  0  0  0  0  0  0  0  0  0  0  0
   11.2509  -15.7843   25.3599 O   0  0  0  0  0  0  0  0  0  0  0  0
    9.7537  -16.6823   26.8168 N   0  0  0  0  0  0  0  0  0  0  0  0
   10.2319  -15.8326   27.8929 C   0  0  1  0  0  0  0  0  0  0  0  0
    9.0140  -15.0033   28.3264 C   0  0  0  0  0  0  0  0  0  0  0  0
    8.5678  -14.1178   27.2321 C   0  0  0  0  0  0  0  0  0  0  0  0
    9.1718  -12.8939   27.0002 C   0  0  0  0  0  0  0  0  0  0  0  0
    8.7522  -12.0645   25.9741 C   0  0  0  0  0  0  0  0  0  0  0  0
    7.7101  -12.5099   25.1964 C   0  0  0  0  0  0  0  0  0  0  0  0
    7.0967  -13.7396   25.4224 C   0  0  0  0  0  0  0  0  0  0  0  0
    7.5224  -14.5574   26.4467 C   0  0  0  0  0  0  0  0  0  0  0  0
   10.7967  -16.5857   29.0060 C   0  0  0  0  0  0  0  0  0  0  0  0
   10.6956  -17.9607   29.0668 O   0  0  0  0  0  0  0  0  0  0  0  0
   11.3876  -15.9860   29.9313 O   0  0  0  0  0  0  0  0  0  0  0  0
  2 12  2  0
  2  1  1  0
  3  2  1  0
  4  5  1  0
  4  3  2  0
  5 11  2  0
  6  5  1  0
  7  6  1  0
  7  8  1  1
  9  7  1  0
 10  9  2  0
 11 12  1  0
 14 13  1  6
 14 16  1  0
 15 14  1  0
 16 18  1  0
 16 17  1  6
 17  9  1  0
 18 20  1  0
 19 18  2  0
 20 21  1  0
 21 29  1  0
 21 22  1  1
 23 22  1  0
 24 23  2  0
 25 24  1  0
 26 25  2  0
 26 27  1  0
 27 28  2  0
 28 23  1  0
 29 31  2  0
 29 30  1  0
M  END
$$$$
