YVF.pdb
     RDKit          3D

 31 32  0  0  1  0  0  0  0  0999 V2000
   11.3900  -23.8961   16.6002 O   0  0  0  0  0  0  0  0  0  0  0  0
   11.3544  -22.8316   17.5215 C   0  0  0  0  0  0  0  0  0  0  0  0
   12.5247  -22.3170   18.0448 C   0  0  0  0  0  0  0  0  0  0  0  0
   12.4796  -21.2629   18.9566 C   0  0  0  0  0  0  0  0  0  0  0  0
   11.2806  -20.7215   19.3475 C   0  0  0  0  0  0  0  0  0  0  0  0
   11.2021  -19.6031   20.3136 C   0  0  0  0  0  0  0  0  0  0  0  0
   10.4691  -18.4061   19.7512 C   0  0  2  0  0  0  0  0  0  0  0  0
   11.1977  -17.9276   18.5808 N   0  0  0  0  0  0  0  0  0  0  0  0
   10.4325  -17.3641   20.8082 C   0  0  0  0  0  0  0  0  0  0  0  0
   11.5289  -16.8666   21.1655 O   0  0  0  0  0  0  0  0  0  0  0  0
   10.1206  -21.2420   18.8197 C   0  0  0  0  0  0  0  0  0  0  0  0
   10.1485  -22.2963   17.9067 C   0  0  0  0  0  0  0  0  0  0  0  0
    7.6279  -14.4421   21.1981 C   0  0  0  0  0  0  0  0  0  0  0  0
    7.8546  -15.1904   22.4776 C   0  0  2  0  0  0  0  0  0  0  0  0
    7.8076  -14.2112   23.6309 C   0  0  0  0  0  0  0  0  0  0  0  0
    9.1726  -15.9587   22.4748 C   0  0  2  0  0  0  0  0  0  0  0  0
    9.2251  -16.9223   21.4142 N   0  0  0  0  0  0  0  0  0  0  0  0
    9.5099  -16.4946   23.7928 C   0  0  0  0  0  0  0  0  0  0  0  0
    8.8327  -17.4101   24.3741 O   0  0  0  0  0  0  0  0  0  0  0  0
   10.6321  -16.0290   24.5331 N   0  0  0  0  0  0  0  0  0  0  0  0
   11.0313  -16.6370   25.7900 C   0  0  1  0  0  0  0  0  0  0  0  0
   11.9030  -15.5844   26.4908 C   0  0  0  0  0  0  0  0  0  0  0  0
   11.0629  -14.5640   27.1493 C   0  0  0  0  0  0  0  0  0  0  0  0
   10.9499  -14.5000   28.5276 C   0  0  0  0  0  0  0  0  0  0  0  0
   10.1616  -13.5430   29.1438 C   0  0  0  0  0  0  0  0  0  0  0  0
    9.4967  -12.6599   28.3268 C   0  0  0  0  0  0  0  0  0  0  0  0
    9.6046  -12.7169   26.9396 C   0  0  0  0  0  0  0  0  0  0  0  0
   10.3922  -13.6737   26.3366 C   0  0  0  0  0  0  0  0  0  0  0  0
    9.8980  -17.0366   26.6154 C   0  0  0  0  0  0  0  0  0  0  0  0
    8.6113  -16.6456   26.3054 O   0  0  0  0  0  0  0  0  0  0  0  0
   10.0816  -17.7481   27.6278 O   0  0  0  0  0  0  0  0  0  0  0  0
  2 12  2  0
  2  1  1  0
  3  2  1  0
  4  5  1  0
  4  3  2  0
  5 11  2  0
  6  5  1  0
  7  6  1  0
  7  8  1  6
  9  7  1  0
 10  9  2  0
 11 12  1  0
 14 13  1  6
 14 16  1  0
 15 14  1  0
 16 18  1  0
 16 17  1  6
 17  9  1  0
 18 20  1  0
 19 18  2  0
 20 21  1  0
 21 29  1  0
 21 22  1  1
 23 22  1  0
 24 23  2  0
 25 24  1  0
 26 25  2  0
 26 27  1  0
 27 28  2  0
 28 23  1  0
 29 31  2  0
 29 30  1  0
M  END
$$$$
