YVF.pdb
     RDKit          3D

 31 32  0  0  1  0  0  0  0  0999 V2000
   12.6955  -22.6263   15.9533 O   0  0  0  0  0  0  0  0  0  0  0  0
   12.4271  -21.5391   16.8073 C   0  0  0  0  0  0  0  0  0  0  0  0
   13.4059  -20.6035   17.0810 C   0  0  0  0  0  0  0  0  0  0  0  0
   13.1310  -19.5304   17.9280 C   0  0  0  0  0  0  0  0  0  0  0  0
   11.8923  -19.3853   18.5007 C   0  0  0  0  0  0  0  0  0  0  0  0
   11.5722  -18.2572   19.4036 C   0  0  0  0  0  0  0  0  0  0  0  0
   10.6543  -17.2443   18.7573 C   0  0  2  0  0  0  0  0  0  0  0  0
   11.3851  -16.5793   17.6834 N   0  0  0  0  0  0  0  0  0  0  0  0
   10.2550  -16.2682   19.8024 C   0  0  0  0  0  0  0  0  0  0  0  0
   11.0946  -15.3908   20.1226 O   0  0  0  0  0  0  0  0  0  0  0  0
   10.9244  -20.3235   18.2210 C   0  0  0  0  0  0  0  0  0  0  0  0
   11.1833  -21.4027   17.3759 C   0  0  0  0  0  0  0  0  0  0  0  0
    7.1449  -14.1481   19.6241 C   0  0  0  0  0  0  0  0  0  0  0  0
    7.1651  -14.7494   20.9976 C   0  0  2  0  0  0  0  0  0  0  0  0
    6.7196  -13.7024   21.9958 C   0  0  0  0  0  0  0  0  0  0  0  0
    8.5381  -15.3006   21.3696 C   0  0  2  0  0  0  0  0  0  0  0  0
    8.9836  -16.2947   20.4370 N   0  0  0  0  0  0  0  0  0  0  0  0
    8.6144  -15.7120   22.7707 C   0  0  0  0  0  0  0  0  0  0  0  0
    8.2893  -16.8789   23.1797 O   0  0  0  0  0  0  0  0  0  0  0  0
    9.0623  -14.8305   23.7936 N   0  0  0  0  0  0  0  0  0  0  0  0
    9.2194  -15.2652   25.1702 C   0  0  1  0  0  0  0  0  0  0  0  0
    9.3664  -13.9740   25.9889 C   0  0  0  0  0  0  0  0  0  0  0  0
    8.0949  -13.2235   26.0148 C   0  0  0  0  0  0  0  0  0  0  0  0
    7.7173  -12.4041   24.9648 C   0  0  0  0  0  0  0  0  0  0  0  0
    6.5251  -11.7006   24.9905 C   0  0  0  0  0  0  0  0  0  0  0  0
    5.7336  -11.8519   26.1041 C   0  0  0  0  0  0  0  0  0  0  0  0
    6.1055  -12.6740   27.1649 C   0  0  0  0  0  0  0  0  0  0  0  0
    7.2946  -13.3697   27.1288 C   0  0  0  0  0  0  0  0  0  0  0  0
    8.1062  -16.0800   25.6414 C   0  0  0  0  0  0  0  0  0  0  0  0
    6.9565  -16.2265   24.8922 O   0  0  0  0  0  0  0  0  0  0  0  0
    8.1814  -16.6637   26.7454 O   0  0  0  0  0  0  0  0  0  0  0  0
  2 12  2  0
  2  1  1  0
  3  2  1  0
  4  5  1  0
  4  3  2  0
  5 11  2  0
  6  5  1  0
  7  6  1  0
  7  8  1  6
  9  7  1  0
 10  9  2  0
 11 12  1  0
 14 13  1  6
 14 16  1  0
 15 14  1  0
 16 18  1  0
 16 17  1  6
 17  9  1  0
 18 20  1  0
 19 18  2  0
 20 21  1  0
 21 29  1  0
 21 22  1  1
 23 22  1  0
 24 23  2  0
 25 24  1  0
 26 25  2  0
 26 27  1  0
 27 28  2  0
 28 23  1  0
 29 31  2  0
 29 30  1  0
M  END
$$$$
