YVF.pdb
     RDKit          3D

 31 32  0  0  1  0  0  0  0  0999 V2000
    7.3322  -21.2976   24.8143 O   0  0  0  0  0  0  0  0  0  0  0  0
    8.0163  -20.8226   23.6786 C   0  0  0  0  0  0  0  0  0  0  0  0
    7.4823  -20.9922   22.4159 C   0  0  0  0  0  0  0  0  0  0  0  0
    8.1669  -20.5186   21.2971 C   0  0  0  0  0  0  0  0  0  0  0  0
    9.3745  -19.8799   21.4294 C   0  0  0  0  0  0  0  0  0  0  0  0
   10.1236  -19.3674   20.2603 C   0  0  0  0  0  0  0  0  0  0  0  0
    9.4618  -18.1596   19.6362 C   0  0  2  0  0  0  0  0  0  0  0  0
   10.1977  -17.8043   18.4271 N   0  0  0  0  0  0  0  0  0  0  0  0
    9.5165  -17.0550   20.6269 C   0  0  0  0  0  0  0  0  0  0  0  0
   10.6527  -16.6550   20.9821 O   0  0  0  0  0  0  0  0  0  0  0  0
    9.8972  -19.7163   22.6924 C   0  0  0  0  0  0  0  0  0  0  0  0
    9.2250  -20.1843   23.8215 C   0  0  0  0  0  0  0  0  0  0  0  0
    7.2411  -13.8875   20.3352 C   0  0  0  0  0  0  0  0  0  0  0  0
    7.2460  -14.3441   21.7635 C   0  0  2  0  0  0  0  0  0  0  0  0
    7.3382  -13.1308   22.6639 C   0  0  0  0  0  0  0  0  0  0  0  0
    8.3802  -15.3214   22.0564 C   0  0  2  0  0  0  0  0  0  0  0  0
    8.3518  -16.4506   21.1730 N   0  0  0  0  0  0  0  0  0  0  0  0
    8.4673  -15.6679   23.4743 C   0  0  0  0  0  0  0  0  0  0  0  0
    7.6983  -16.5193   24.0387 O   0  0  0  0  0  0  0  0  0  0  0  0
    9.4278  -15.0740   24.3396 N   0  0  0  0  0  0  0  0  0  0  0  0
    9.5462  -15.4553   25.7358 C   0  0  1  0  0  0  0  0  0  0  0  0
    9.5749  -14.1328   26.5162 C   0  0  0  0  0  0  0  0  0  0  0  0
    8.3564  -13.3421   26.2505 C   0  0  0  0  0  0  0  0  0  0  0  0
    7.1114  -13.9406   26.1597 C   0  0  0  0  0  0  0  0  0  0  0  0
    5.9697  -13.1982   25.9101 C   0  0  0  0  0  0  0  0  0  0  0  0
    6.1273  -11.8414   25.7566 C   0  0  0  0  0  0  0  0  0  0  0  0
    7.3757  -11.2309   25.8463 C   0  0  0  0  0  0  0  0  0  0  0  0
    8.5057  -11.9796   26.0951 C   0  0  0  0  0  0  0  0  0  0  0  0
    8.4641  -16.3236   26.1834 C   0  0  0  0  0  0  0  0  0  0  0  0
    7.3628  -16.5660   25.3879 O   0  0  0  0  0  0  0  0  0  0  0  0
    8.5223  -16.8662   27.3091 O   0  0  0  0  0  0  0  0  0  0  0  0
  2 12  2  0
  2  1  1  0
  3  2  1  0
  4  5  1  0
  4  3  2  0
  5 11  2  0
  6  5  1  0
  7  6  1  0
  7  8  1  6
  9  7  1  0
 10  9  2  0
 11 12  1  0
 14 13  1  6
 14 16  1  0
 15 14  1  0
 16 18  1  0
 16 17  1  6
 17  9  1  0
 18 20  1  0
 19 18  2  0
 20 21  1  0
 21 29  1  0
 21 22  1  1
 23 22  1  0
 24 23  2  0
 25 24  1  0
 26 25  2  0
 26 27  1  0
 27 28  2  0
 28 23  1  0
 29 31  2  0
 29 30  1  0
M  END
$$$$
