YVF.pdb
     RDKit          3D

 31 32  0  0  1  0  0  0  0  0999 V2000
    7.3039  -11.7657   17.0832 O   0  0  0  0  0  0  0  0  0  0  0  0
    7.4841  -12.5527   18.2372 C   0  0  0  0  0  0  0  0  0  0  0  0
    6.4052  -13.1666   18.8433 C   0  0  0  0  0  0  0  0  0  0  0  0
    6.5933  -13.9439   19.9857 C   0  0  0  0  0  0  0  0  0  0  0  0
    7.8443  -14.1118   20.5245 C   0  0  0  0  0  0  0  0  0  0  0  0
    8.0738  -14.9303   21.7360 C   0  0  0  0  0  0  0  0  0  0  0  0
    8.8425  -16.1978   21.4381 C   0  0  2  0  0  0  0  0  0  0  0  0
    8.0076  -17.0584   20.6062 N   0  0  0  0  0  0  0  0  0  0  0  0
    9.1449  -16.8553   22.7344 C   0  0  0  0  0  0  0  0  0  0  0  0
    8.2183  -17.5016   23.2830 O   0  0  0  0  0  0  0  0  0  0  0  0
    8.9122  -13.4955   19.9122 C   0  0  0  0  0  0  0  0  0  0  0  0
    8.7410  -12.7147   18.7690 C   0  0  0  0  0  0  0  0  0  0  0  0
   11.7793  -19.3750   23.4255 C   0  0  0  0  0  0  0  0  0  0  0  0
   11.9546  -18.3250   24.4815 C   0  0  2  0  0  0  0  0  0  0  0  0
   12.2515  -19.0044   25.8012 C   0  0  0  0  0  0  0  0  0  0  0  0
   10.7354  -17.4163   24.6042 C   0  0  2  0  0  0  0  0  0  0  0  0
   10.4191  -16.7783   23.3594 N   0  0  0  0  0  0  0  0  0  0  0  0
   10.8315  -16.5026   25.7419 C   0  0  0  0  0  0  0  0  0  0  0  0
   11.6979  -15.5657   25.8202 O   0  0  0  0  0  0  0  0  0  0  0  0
    9.9550  -16.5923   26.8590 N   0  0  0  0  0  0  0  0  0  0  0  0
   10.0871  -15.7209   28.0130 C   0  0  1  0  0  0  0  0  0  0  0  0
    8.6834  -15.1436   28.2480 C   0  0  0  0  0  0  0  0  0  0  0  0
    8.3014  -14.2337   27.1494 C   0  0  0  0  0  0  0  0  0  0  0  0
    8.8372  -12.9616   27.0447 C   0  0  0  0  0  0  0  0  0  0  0  0
    8.4779  -12.1093   26.0145 C   0  0  0  0  0  0  0  0  0  0  0  0
    7.5663  -12.5821   25.1009 C   0  0  0  0  0  0  0  0  0  0  0  0
    7.0222  -13.8603   25.1984 C   0  0  0  0  0  0  0  0  0  0  0  0
    7.3870  -14.7005   26.2281 C   0  0  0  0  0  0  0  0  0  0  0  0
   10.5922  -16.4110   29.1937 C   0  0  0  0  0  0  0  0  0  0  0  0
   10.7161  -17.7851   29.2236 O   0  0  0  0  0  0  0  0  0  0  0  0
   10.9236  -15.7564   30.2070 O   0  0  0  0  0  0  0  0  0  0  0  0
  2 12  2  0
  2  1  1  0
  3  2  1  0
  4  5  1  0
  4  3  2  0
  5 11  2  0
  6  5  1  0
  7  6  1  0
  7  8  1  6
  9  7  1  0
 10  9  2  0
 11 12  1  0
 14 13  1  6
 14 16  1  0
 15 14  1  0
 16 18  1  0
 16 17  1  6
 17  9  1  0
 18 20  1  0
 19 18  2  0
 20 21  1  0
 21 29  1  0
 21 22  1  1
 23 22  1  0
 24 23  2  0
 25 24  1  0
 26 25  2  0
 26 27  1  0
 27 28  2  0
 28 23  1  0
 29 31  2  0
 29 30  1  0
M  END
$$$$
