YVF.pdb
     RDKit          3D

 31 32  0  0  1  0  0  0  0  0999 V2000
    5.8418  -24.0509   28.2726 O   0  0  0  0  0  0  0  0  0  0  0  0
    6.2350  -22.9274   27.5201 C   0  0  0  0  0  0  0  0  0  0  0  0
    5.2898  -22.1243   26.9119 C   0  0  0  0  0  0  0  0  0  0  0  0
    5.6886  -21.0139   26.1686 C   0  0  0  0  0  0  0  0  0  0  0  0
    7.0176  -20.7010   26.0290 C   0  0  0  0  0  0  0  0  0  0  0  0
    7.4701  -19.5295   25.2460 C   0  0  0  0  0  0  0  0  0  0  0  0
    7.0667  -19.6179   23.7914 C   0  0  2  0  0  0  0  0  0  0  0  0
    7.5652  -20.8784   23.2507 N   0  0  0  0  0  0  0  0  0  0  0  0
    7.6796  -18.4652   23.0842 C   0  0  0  0  0  0  0  0  0  0  0  0
    8.8118  -18.6403   22.5696 O   0  0  0  0  0  0  0  0  0  0  0  0
    7.9509  -21.5082   26.6393 C   0  0  0  0  0  0  0  0  0  0  0  0
    7.5685  -22.6225   27.3862 C   0  0  0  0  0  0  0  0  0  0  0  0
    5.6522  -15.3350   21.1311 C   0  0  0  0  0  0  0  0  0  0  0  0
    6.6733  -14.9215   22.1484 C   0  0  2  0  0  0  0  0  0  0  0  0
    7.3782  -13.6763   21.6547 C   0  0  0  0  0  0  0  0  0  0  0  0
    7.6788  -16.0298   22.4447 C   0  0  2  0  0  0  0  0  0  0  0  0
    7.0411  -17.2002   22.9737 N   0  0  0  0  0  0  0  0  0  0  0  0
    8.8168  -15.5563   23.2315 C   0  0  0  0  0  0  0  0  0  0  0  0
    9.7298  -14.7956   22.7600 O   0  0  0  0  0  0  0  0  0  0  0  0
    8.9918  -15.9133   24.5975 N   0  0  0  0  0  0  0  0  0  0  0  0
   10.0829  -15.3859   25.3975 C   0  0  1  0  0  0  0  0  0  0  0  0
    9.9526  -13.8584   25.3041 C   0  0  0  0  0  0  0  0  0  0  0  0
    8.6952  -13.4015   25.9293 C   0  0  0  0  0  0  0  0  0  0  0  0
    7.6470  -12.9100   25.1703 C   0  0  0  0  0  0  0  0  0  0  0  0
    6.4688  -12.4816   25.7578 C   0  0  0  0  0  0  0  0  0  0  0  0
    6.3861  -12.5659   27.1272 C   0  0  0  0  0  0  0  0  0  0  0  0
    7.4355  -13.0590   27.8986 C   0  0  0  0  0  0  0  0  0  0  0  0
    8.6040  -13.4828   27.3034 C   0  0  0  0  0  0  0  0  0  0  0  0
   10.0513  -15.8474   26.7799 C   0  0  0  0  0  0  0  0  0  0  0  0
    9.0613  -16.6967   27.2305 O   0  0  0  0  0  0  0  0  0  0  0  0
   10.9333  -15.4737   27.5846 O   0  0  0  0  0  0  0  0  0  0  0  0
  2 12  2  0
  2  1  1  0
  3  2  1  0
  4  5  1  0
  4  3  2  0
  5 11  2  0
  6  5  1  0
  7  6  1  0
  7  8  1  6
  9  7  1  0
 10  9  2  0
 11 12  1  0
 14 13  1  6
 14 16  1  0
 15 14  1  0
 16 18  1  0
 16 17  1  1
 17  9  1  0
 18 20  1  0
 19 18  2  0
 20 21  1  0
 21 29  1  0
 21 22  1  1
 23 22  1  0
 24 23  2  0
 25 24  1  0
 26 25  2  0
 26 27  1  0
 27 28  2  0
 28 23  1  0
 29 31  2  0
 29 30  1  0
M  END
$$$$
