YVF.pdb
     RDKit          3D

 31 32  0  0  1  0  0  0  0  0999 V2000
    3.8560  -23.3869   23.8077 O   0  0  0  0  0  0  0  0  0  0  0  0
    4.7939  -22.3562   23.6047 C   0  0  0  0  0  0  0  0  0  0  0  0
    5.1955  -22.0142   22.3280 C   0  0  0  0  0  0  0  0  0  0  0  0
    6.1248  -20.9922   22.1367 C   0  0  0  0  0  0  0  0  0  0  0  0
    6.6533  -20.3127   23.2056 C   0  0  0  0  0  0  0  0  0  0  0  0
    7.6414  -19.2245   23.0329 C   0  0  0  0  0  0  0  0  0  0  0  0
    7.7932  -18.8078   21.5874 C   0  0  2  0  0  0  0  0  0  0  0  0
    8.6129  -19.8035   20.9044 N   0  0  0  0  0  0  0  0  0  0  0  0
    8.4577  -17.4802   21.5696 C   0  0  0  0  0  0  0  0  0  0  0  0
    9.7023  -17.4607   21.4032 O   0  0  0  0  0  0  0  0  0  0  0  0
    6.2461  -20.6617   24.4734 C   0  0  0  0  0  0  0  0  0  0  0  0
    5.3174  -21.6816   24.6817 C   0  0  0  0  0  0  0  0  0  0  0  0
    7.1985  -14.0651   19.8333 C   0  0  0  0  0  0  0  0  0  0  0  0
    7.5131  -13.8610   21.2852 C   0  0  2  0  0  0  0  0  0  0  0  0
    8.1912  -12.5182   21.4539 C   0  0  0  0  0  0  0  0  0  0  0  0
    8.3809  -14.9795   21.8536 C   0  0  2  0  0  0  0  0  0  0  0  0
    7.7471  -16.2600   21.7313 N   0  0  0  0  0  0  0  0  0  0  0  0
    8.8734  -14.6770   23.1968 C   0  0  0  0  0  0  0  0  0  0  0  0
    8.9132  -13.4946   23.6816 O   0  0  0  0  0  0  0  0  0  0  0  0
    9.3502  -15.6915   24.0730 N   0  0  0  0  0  0  0  0  0  0  0  0
    9.1714  -15.6126   25.5119 C   0  0  1  0  0  0  0  0  0  0  0  0
    7.6578  -15.7393   25.7400 C   0  0  0  0  0  0  0  0  0  0  0  0
    7.0693  -14.4294   26.0841 C   0  0  0  0  0  0  0  0  0  0  0  0
    7.8266  -13.4262   26.6642 C   0  0  0  0  0  0  0  0  0  0  0  0
    7.2735  -12.1987   26.9868 C   0  0  0  0  0  0  0  0  0  0  0  0
    5.9399  -12.0204   26.7055 C   0  0  0  0  0  0  0  0  0  0  0  0
    5.1705  -13.0238   26.1220 C   0  0  0  0  0  0  0  0  0  0  0  0
    5.7314  -14.2421   25.8050 C   0  0  0  0  0  0  0  0  0  0  0  0
    9.9146  -16.6367   26.2358 C   0  0  0  0  0  0  0  0  0  0  0  0
   10.6026  -17.6301   25.5693 O   0  0  0  0  0  0  0  0  0  0  0  0
    9.9374  -16.6265   27.4866 O   0  0  0  0  0  0  0  0  0  0  0  0
  2 12  2  0
  2  1  1  0
  3  2  1  0
  4  5  1  0
  4  3  2  0
  5 11  2  0
  6  5  1  0
  7  6  1  0
  7  8  1  6
  9  7  1  0
 10  9  2  0
 11 12  1  0
 14 13  1  6
 14 16  1  0
 15 14  1  0
 16 18  1  0
 16 17  1  1
 17  9  1  0
 18 20  1  0
 19 18  2  0
 20 21  1  0
 21 29  1  0
 21 22  1  6
 23 22  1  0
 24 23  2  0
 25 24  1  0
 26 25  2  0
 26 27  1  0
 27 28  2  0
 28 23  1  0
 29 31  2  0
 29 30  1  0
M  END
$$$$
