YVF.pdb
     RDKit          3D

 31 32  0  0  1  0  0  0  0  0999 V2000
    8.7622  -13.3526   16.0464 O   0  0  0  0  0  0  0  0  0  0  0  0
    8.4035  -13.7681   17.3433 C   0  0  0  0  0  0  0  0  0  0  0  0
    9.0449  -14.8359   17.9405 C   0  0  0  0  0  0  0  0  0  0  0  0
    8.6828  -15.2403   19.2251 C   0  0  0  0  0  0  0  0  0  0  0  0
    7.6901  -14.5896   19.9140 C   0  0  0  0  0  0  0  0  0  0  0  0
    7.2846  -14.9968   21.2779 C   0  0  0  0  0  0  0  0  0  0  0  0
    6.6448  -16.3665   21.3040 C   0  0  2  0  0  0  0  0  0  0  0  0
    5.3065  -16.2611   20.7315 N   0  0  0  0  0  0  0  0  0  0  0  0
    6.5757  -16.8035   22.7212 C   0  0  0  0  0  0  0  0  0  0  0  0
    5.7770  -16.1935   23.4743 O   0  0  0  0  0  0  0  0  0  0  0  0
    7.0577  -13.5268   19.3093 C   0  0  0  0  0  0  0  0  0  0  0  0
    7.4080  -13.1099   18.0250 C   0  0  0  0  0  0  0  0  0  0  0  0
    5.9129  -20.0001   24.6760 C   0  0  0  0  0  0  0  0  0  0  0  0
    7.3073  -19.5607   25.0093 C   0  0  2  0  0  0  0  0  0  0  0  0
    7.5524  -19.7912   26.4851 C   0  0  0  0  0  0  0  0  0  0  0  0
    7.5594  -18.1018   24.6414 C   0  0  2  0  0  0  0  0  0  0  0  0
    7.3660  -17.8646   23.2404 N   0  0  0  0  0  0  0  0  0  0  0  0
    8.8303  -17.6045   25.1667 C   0  0  0  0  0  0  0  0  0  0  0  0
    9.9681  -17.9426   24.6916 O   0  0  0  0  0  0  0  0  0  0  0  0
    8.8923  -16.6957   26.2595 N   0  0  0  0  0  0  0  0  0  0  0  0
   10.1406  -16.0890   26.6865 C   0  0  1  0  0  0  0  0  0  0  0  0
   10.0485  -14.6200   26.2476 C   0  0  0  0  0  0  0  0  0  0  0  0
    8.8275  -13.9885   26.7872 C   0  0  0  0  0  0  0  0  0  0  0  0
    8.8445  -13.2816   27.9773 C   0  0  0  0  0  0  0  0  0  0  0  0
    7.6990  -12.6903   28.4824 C   0  0  0  0  0  0  0  0  0  0  0  0
    6.5450  -12.8363   27.7501 C   0  0  0  0  0  0  0  0  0  0  0  0
    6.5187  -13.5456   26.5520 C   0  0  0  0  0  0  0  0  0  0  0  0
    7.6649  -14.1302   26.0584 C   0  0  0  0  0  0  0  0  0  0  0  0
   10.3727  -16.2110   28.1205 C   0  0  0  0  0  0  0  0  0  0  0  0
    9.4361  -16.7901   28.9524 O   0  0  0  0  0  0  0  0  0  0  0  0
   11.4382  -15.7865   28.6202 O   0  0  0  0  0  0  0  0  0  0  0  0
  2 12  2  0
  2  1  1  0
  3  2  1  0
  4  5  1  0
  4  3  2  0
  5 11  2  0
  6  5  1  0
  7  6  1  0
  7  8  1  1
  9  7  1  0
 10  9  2  0
 11 12  1  0
 14 13  1  1
 14 16  1  0
 15 14  1  0
 16 18  1  0
 16 17  1  6
 17  9  1  0
 18 20  1  0
 19 18  2  0
 20 21  1  0
 21 29  1  0
 21 22  1  1
 23 22  1  0
 24 23  2  0
 25 24  1  0
 26 25  2  0
 26 27  1  0
 27 28  2  0
 28 23  1  0
 29 31  2  0
 29 30  1  0
M  END
$$$$
