YVF.pdb
     RDKit          3D

 31 32  0  0  1  0  0  0  0  0999 V2000
   14.7985  -14.5122   19.7806 O   0  0  0  0  0  0  0  0  0  0  0  0
   13.4179  -14.2340   19.7721 C   0  0  0  0  0  0  0  0  0  0  0  0
   12.8460  -13.5522   18.7155 C   0  0  0  0  0  0  0  0  0  0  0  0
   11.4781  -13.2812   18.7159 C   0  0  0  0  0  0  0  0  0  0  0  0
   10.6812  -13.6840   19.7581 C   0  0  0  0  0  0  0  0  0  0  0  0
    9.2271  -13.4100   19.7858 C   0  0  0  0  0  0  0  0  0  0  0  0
    8.4028  -14.6413   19.4849 C   0  0  2  0  0  0  0  0  0  0  0  0
    7.4171  -14.2981   18.4648 N   0  0  0  0  0  0  0  0  0  0  0  0
    7.7324  -15.0523   20.7443 C   0  0  0  0  0  0  0  0  0  0  0  0
    6.7014  -14.4196   21.0817 O   0  0  0  0  0  0  0  0  0  0  0  0
   11.2617  -14.3627   20.8058 C   0  0  0  0  0  0  0  0  0  0  0  0
   12.6284  -14.6416   20.8207 C   0  0  0  0  0  0  0  0  0  0  0  0
    8.1921  -18.9553   22.4275 C   0  0  0  0  0  0  0  0  0  0  0  0
    7.0700  -17.9873   22.6564 C   0  0  2  0  0  0  0  0  0  0  0  0
    6.0653  -18.1298   21.5333 C   0  0  0  0  0  0  0  0  0  0  0  0
    7.5595  -16.5465   22.7637 C   0  0  2  0  0  0  0  0  0  0  0  0
    8.2091  -16.1136   21.5607 N   0  0  0  0  0  0  0  0  0  0  0  0
    8.3294  -16.3071   23.9836 C   0  0  0  0  0  0  0  0  0  0  0  0
    9.6025  -16.1907   24.0002 O   0  0  0  0  0  0  0  0  0  0  0  0
    7.7078  -16.1846   25.2575 N   0  0  0  0  0  0  0  0  0  0  0  0
    8.4789  -16.0867   26.4841 C   0  0  1  0  0  0  0  0  0  0  0  0
    7.5960  -15.2891   27.4553 C   0  0  0  0  0  0  0  0  0  0  0  0
    7.3591  -13.9235   26.9457 C   0  0  0  0  0  0  0  0  0  0  0  0
    6.1538  -13.5671   26.3655 C   0  0  0  0  0  0  0  0  0  0  0  0
    5.9331  -12.2865   25.8877 C   0  0  0  0  0  0  0  0  0  0  0  0
    6.9631  -11.3854   26.0151 C   0  0  0  0  0  0  0  0  0  0  0  0
    8.1788  -11.7351   26.5974 C   0  0  0  0  0  0  0  0  0  0  0  0
    8.3878  -13.0128   27.0697 C   0  0  0  0  0  0  0  0  0  0  0  0
    8.8468  -17.3867   27.0316 C   0  0  0  0  0  0  0  0  0  0  0  0
    8.3471  -18.5574   26.4984 O   0  0  0  0  0  0  0  0  0  0  0  0
    9.6304  -17.4568   28.0042 O   0  0  0  0  0  0  0  0  0  0  0  0
  2 12  2  0
  2  1  1  0
  3  2  1  0
  4  5  1  0
  4  3  2  0
  5 11  2  0
  6  5  1  0
  7  6  1  0
  7  8  1  6
  9  7  1  0
 10  9  2  0
 11 12  1  0
 14 13  1  6
 14 16  1  0
 15 14  1  0
 16 18  1  0
 16 17  1  6
 17  9  1  0
 18 20  1  0
 19 18  2  0
 20 21  1  0
 21 29  1  0
 21 22  1  1
 23 22  1  0
 24 23  2  0
 25 24  1  0
 26 25  2  0
 26 27  1  0
 27 28  2  0
 28 23  1  0
 29 31  2  0
 29 30  1  0
M  END
$$$$
