NLI.pdb
     RDKit          3D

 25 24  0  0  1  0  0  0  0  0999 V2000
   16.0808  -14.1597  -19.6392 N   0  0  0  0  0  0  0  0  0  0  0  0
   17.4272  -14.1499  -19.0881 C   0  0  0  0  0  0  0  0  0  0  0  0
   18.2176  -15.0136  -19.5233 O   0  0  0  0  0  0  0  0  0  0  0  0
   17.7729  -13.1480  -18.0736 C   0  0  0  0  0  0  0  0  0  0  0  0
   19.1753  -13.2600  -17.5627 C   0  0  2  0  0  0  0  0  0  0  0  0
   19.1500  -14.3912  -16.5528 N   0  0  0  0  0  0  0  0  0  0  0  0
   19.6298  -12.1227  -16.7337 C   0  0  0  0  0  0  0  0  0  0  0  0
   18.8890  -11.7161  -15.7837 O   0  0  0  0  0  0  0  0  0  0  0  0
   22.5733  -11.1631  -13.4406 C   0  0  0  0  0  0  0  0  0  0  0  0
   23.1795  -11.1353  -14.7950 C   0  0  2  0  0  0  0  0  0  0  0  0
   24.6929  -11.0412  -14.6592 C   0  0  0  0  0  0  0  0  0  0  0  0
   22.6263  -10.1429  -15.7404 C   0  0  0  0  0  0  0  0  0  0  0  0
   21.1725  -10.2729  -16.0562 C   0  0  2  0  0  0  0  0  0  0  0  0
   20.8461  -11.4205  -16.8865 N   0  0  0  0  0  0  0  0  0  0  0  0
   20.6871   -8.9945  -16.6312 C   0  0  0  0  0  0  0  0  0  0  0  0
   20.9603   -8.7388  -17.8546 O   0  0  0  0  0  0  0  0  0  0  0  0
   15.7155   -7.3598  -16.5753 C   0  0  0  0  0  0  0  0  0  0  0  0
   17.1491   -7.5406  -16.9359 C   0  0  0  0  0  0  0  0  0  0  0  0
   18.0781   -6.5438  -16.3331 C   0  0  2  0  0  0  0  0  0  0  0  0
   17.6515   -5.1779  -16.8177 C   0  0  0  0  0  0  0  0  0  0  0  0
   19.5404   -6.7902  -16.5946 C   0  0  2  0  0  0  0  0  0  0  0  0
   19.9375   -8.0206  -15.9363 N   0  0  0  0  0  0  0  0  0  0  0  0
   20.3557   -5.6864  -16.0593 C   0  0  0  0  0  0  0  0  0  0  0  0
   20.8831   -5.7991  -14.9354 O   0  0  0  0  0  0  0  0  0  0  0  0
   20.5296   -4.5395  -16.8039 O   0  0  0  0  0  0  0  0  0  0  0  0
  1  2  1  0
  2  4  1  0
  3  2  2  0
  5  4  1  0
  5  6  1  1
  7  8  2  0
  7  5  1  0
 10  9  1  1
 10 11  1  0
 10 12  1  0
 13 12  1  6
 13 14  1  0
 14  7  1  0
 15 13  1  0
 15 22  1  0
 16 15  2  0
 17 18  1  0
 18 19  1  0
 19 21  1  0
 19 20  1  6
 21 22  1  1
 21 23  1  0
 23 24  2  0
 23 25  1  0
M  END
$$$$
