NLI.pdb
     RDKit          3D

 25 24  0  0  1  0  0  0  0  0999 V2000
   29.2965  -17.9534  -16.6017 N   0  0  0  0  0  0  0  0  0  0  0  0
   28.1416  -18.5447  -17.2598 C   0  0  0  0  0  0  0  0  0  0  0  0
   27.9628  -18.2414  -18.4582 O   0  0  0  0  0  0  0  0  0  0  0  0
   27.2706  -19.4440  -16.4949 C   0  0  0  0  0  0  0  0  0  0  0  0
   27.9781  -20.2017  -15.4154 C   0  0  2  0  0  0  0  0  0  0  0  0
   28.4491  -21.4887  -16.0649 N   0  0  0  0  0  0  0  0  0  0  0  0
   27.1054  -20.7086  -14.3344 C   0  0  0  0  0  0  0  0  0  0  0  0
   26.2814  -21.6419  -14.5924 O   0  0  0  0  0  0  0  0  0  0  0  0
   25.4021  -19.8971   -8.3526 C   0  0  0  0  0  0  0  0  0  0  0  0
   25.3306  -20.6285   -9.6419 C   0  0  2  0  0  0  0  0  0  0  0  0
   25.1986  -22.1189   -9.3602 C   0  0  0  0  0  0  0  0  0  0  0  0
   26.3884  -20.3235  -10.6280 C   0  0  0  0  0  0  0  0  0  0  0  0
   26.1125  -20.7317  -12.0378 C   0  0  2  0  0  0  0  0  0  0  0  0
   27.0953  -20.2546  -12.9967 N   0  0  0  0  0  0  0  0  0  0  0  0
   24.7278  -20.3357  -12.3930 C   0  0  0  0  0  0  0  0  0  0  0  0
   24.4890  -19.0975  -12.6091 O   0  0  0  0  0  0  0  0  0  0  0  0
   22.6427  -21.7258  -16.6844 C   0  0  0  0  0  0  0  0  0  0  0  0
   22.9194  -21.0156  -15.4049 C   0  0  0  0  0  0  0  0  0  0  0  0
   22.0040  -21.3656  -14.2826 C   0  0  2  0  0  0  0  0  0  0  0  0
   20.5998  -21.0205  -14.7206 C   0  0  0  0  0  0  0  0  0  0  0  0
   22.3407  -20.7314  -12.9591 C   0  0  2  0  0  0  0  0  0  0  0  0
   23.6335  -21.2191  -12.5165 N   0  0  0  0  0  0  0  0  0  0  0  0
   21.3328  -21.0838  -11.9443 C   0  0  0  0  0  0  0  0  0  0  0  0
   21.3978  -22.1879  -11.3692 O   0  0  0  0  0  0  0  0  0  0  0  0
   20.3278  -20.1915  -11.6382 O   0  0  0  0  0  0  0  0  0  0  0  0
  1  2  1  0
  2  4  1  0
  3  2  2  0
  5  4  1  0
  5  6  1  6
  7  8  2  0
  7  5  1  0
 10  9  1  1
 10 11  1  0
 10 12  1  0
 13 12  1  1
 13 14  1  0
 14  7  1  0
 15 13  1  0
 15 22  1  0
 16 15  2  0
 17 18  1  0
 18 19  1  0
 19 21  1  0
 19 20  1  6
 21 22  1  1
 21 23  1  0
 23 24  2  0
 23 25  1  0
M  END
$$$$
