NLI.pdb
     RDKit          3D

 25 24  0  0  1  0  0  0  0  0999 V2000
   16.6396  -16.1350  -17.3050 N   0  0  0  0  0  0  0  0  0  0  0  0
   16.8682  -15.5520  -15.9919 C   0  0  0  0  0  0  0  0  0  0  0  0
   16.6097  -16.2733  -15.0054 O   0  0  0  0  0  0  0  0  0  0  0  0
   17.3779  -14.1792  -15.9024 C   0  0  0  0  0  0  0  0  0  0  0  0
   17.6164  -13.5322  -17.2309 C   0  0  2  0  0  0  0  0  0  0  0  0
   18.9054  -14.1382  -17.7517 N   0  0  0  0  0  0  0  0  0  0  0  0
   17.9584  -12.0947  -17.1721 C   0  0  0  0  0  0  0  0  0  0  0  0
   19.0867  -11.7097  -17.6138 O   0  0  0  0  0  0  0  0  0  0  0  0
   15.6971   -6.3065  -16.3473 C   0  0  0  0  0  0  0  0  0  0  0  0
   16.7581   -7.2726  -16.7259 C   0  0  2  0  0  0  0  0  0  0  0  0
   17.3200   -6.8844  -18.0866 C   0  0  0  0  0  0  0  0  0  0  0  0
   16.4015   -8.7044  -16.6406 C   0  0  0  0  0  0  0  0  0  0  0  0
   17.5372   -9.6716  -16.7115 C   0  0  2  0  0  0  0  0  0  0  0  0
   17.1319  -11.0668  -16.6659 N   0  0  0  0  0  0  0  0  0  0  0  0
   18.5289   -9.3296  -15.6626 C   0  0  0  0  0  0  0  0  0  0  0  0
   18.2518   -9.6241  -14.4488 O   0  0  0  0  0  0  0  0  0  0  0  0
   23.9786  -10.5067  -14.0980 C   0  0  0  0  0  0  0  0  0  0  0  0
   22.9392   -9.4461  -13.9858 C   0  0  0  0  0  0  0  0  0  0  0  0
   21.8412   -9.5353  -14.9890 C   0  0  2  0  0  0  0  0  0  0  0  0
   22.4696   -9.4190  -16.3580 C   0  0  0  0  0  0  0  0  0  0  0  0
   20.7250   -8.5411  -14.8079 C   0  0  2  0  0  0  0  0  0  0  0  0
   19.7713   -8.6989  -15.8899 N   0  0  0  0  0  0  0  0  0  0  0  0
   21.2475   -7.1642  -14.8390 C   0  0  0  0  0  0  0  0  0  0  0  0
   21.8942   -6.7287  -13.8663 O   0  0  0  0  0  0  0  0  0  0  0  0
   21.0185   -6.3693  -15.9416 O   0  0  0  0  0  0  0  0  0  0  0  0
  1  2  1  0
  2  4  1  0
  3  2  2  0
  5  4  1  0
  5  6  1  1
  7  8  2  0
  7  5  1  0
 10  9  1  6
 10 11  1  0
 10 12  1  0
 13 12  1  1
 13 14  1  0
 14  7  1  0
 15 13  1  0
 15 22  1  0
 16 15  2  0
 17 18  1  0
 18 19  1  0
 19 21  1  0
 19 20  1  6
 21 22  1  6
 21 23  1  0
 23 24  2  0
 23 25  1  0
M  END
$$$$
