NLI.pdb
     RDKit          3D

 25 24  0  0  1  0  0  0  0  0999 V2000
   20.2537  -24.1830   -6.5183 N   0  0  0  0  0  0  0  0  0  0  0  0
   19.8873  -23.7217   -7.8486 C   0  0  0  0  0  0  0  0  0  0  0  0
   18.8995  -24.2709   -8.3803 O   0  0  0  0  0  0  0  0  0  0  0  0
   20.6821  -22.6606   -8.4770 C   0  0  0  0  0  0  0  0  0  0  0  0
   21.7823  -22.1320   -7.6108 C   0  0  2  0  0  0  0  0  0  0  0  0
   21.1203  -21.1392   -6.6747 N   0  0  0  0  0  0  0  0  0  0  0  0
   22.7703  -21.2804   -8.3076 C   0  0  0  0  0  0  0  0  0  0  0  0
   22.3572  -20.3116   -9.0199 O   0  0  0  0  0  0  0  0  0  0  0  0
   26.4703  -18.5192   -7.3068 C   0  0  0  0  0  0  0  0  0  0  0  0
   26.7399  -19.9770   -7.3744 C   0  0  2  0  0  0  0  0  0  0  0  0
   28.1436  -20.2468   -6.8501 C   0  0  0  0  0  0  0  0  0  0  0  0
   26.4777  -20.6325   -8.6730 C   0  0  0  0  0  0  0  0  0  0  0  0
   25.0535  -20.6597   -9.1215 C   0  0  2  0  0  0  0  0  0  0  0  0
   24.1742  -21.4302   -8.2578 N   0  0  0  0  0  0  0  0  0  0  0  0
   25.0010  -21.1058  -10.5353 C   0  0  0  0  0  0  0  0  0  0  0  0
   25.2358  -22.3372  -10.7905 O   0  0  0  0  0  0  0  0  0  0  0  0
   21.6899  -20.7885  -15.4889 C   0  0  0  0  0  0  0  0  0  0  0  0
   23.0675  -20.9907  -14.9603 C   0  0  0  0  0  0  0  0  0  0  0  0
   23.2750  -20.5319  -13.5581 C   0  0  2  0  0  0  0  0  0  0  0  0
   22.9757  -19.0516  -13.5182 C   0  0  0  0  0  0  0  0  0  0  0  0
   24.6306  -20.8366  -12.9778 C   0  0  2  0  0  0  0  0  0  0  0  0
   24.7090  -20.2780  -11.6411 N   0  0  0  0  0  0  0  0  0  0  0  0
   25.6938  -20.2356  -13.8014 C   0  0  0  0  0  0  0  0  0  0  0  0
   26.2335  -19.1744  -13.4319 O   0  0  0  0  0  0  0  0  0  0  0  0
   26.0837  -20.8504  -14.9718 O   0  0  0  0  0  0  0  0  0  0  0  0
  1  2  1  0
  2  4  1  0
  3  2  2  0
  5  4  1  0
  5  6  1  1
  7  8  2  0
  7  5  1  0
 10  9  1  6
 10 11  1  0
 10 12  1  0
 13 12  1  1
 13 14  1  0
 14  7  1  0
 15 13  1  0
 15 22  1  0
 16 15  2  0
 17 18  1  0
 18 19  1  0
 19 21  1  0
 19 20  1  6
 21 22  1  1
 21 23  1  0
 23 24  2  0
 23 25  1  0
M  END
$$$$
