NLI.pdb
     RDKit          3D

 25 24  0  0  1  0  0  0  0  0999 V2000
   28.1593  -18.8296  -18.2856 N   0  0  0  0  0  0  0  0  0  0  0  0
   27.9357  -18.5044  -16.8853 C   0  0  0  0  0  0  0  0  0  0  0  0
   28.6057  -17.5611  -16.4148 O   0  0  0  0  0  0  0  0  0  0  0  0
   26.9574  -19.2865  -16.1213 C   0  0  0  0  0  0  0  0  0  0  0  0
   27.5548  -20.0771  -14.9996 C   0  0  2  0  0  0  0  0  0  0  0  0
   28.2008  -21.2838  -15.6527 N   0  0  0  0  0  0  0  0  0  0  0  0
   26.5742  -20.7114  -14.0922 C   0  0  0  0  0  0  0  0  0  0  0  0
   26.0098  -21.7925  -14.4514 O   0  0  0  0  0  0  0  0  0  0  0  0
   26.2918  -22.2739   -9.6826 C   0  0  0  0  0  0  0  0  0  0  0  0
   26.0857  -20.8092   -9.8043 C   0  0  2  0  0  0  0  0  0  0  0  0
   26.0189  -20.2002   -8.4105 C   0  0  0  0  0  0  0  0  0  0  0  0
   24.9723  -20.3741  -10.6735 C   0  0  0  0  0  0  0  0  0  0  0  0
   25.0543  -20.7880  -12.1061 C   0  0  2  0  0  0  0  0  0  0  0  0
   26.1904  -20.2300  -12.8207 N   0  0  0  0  0  0  0  0  0  0  0  0
   23.7605  -20.4924  -12.7689 C   0  0  0  0  0  0  0  0  0  0  0  0
   23.5046  -19.2788  -13.0826 O   0  0  0  0  0  0  0  0  0  0  0  0
   22.4360  -22.4246  -17.2399 C   0  0  0  0  0  0  0  0  0  0  0  0
   22.4960  -21.5644  -16.0256 C   0  0  0  0  0  0  0  0  0  0  0  0
   21.4028  -21.7940  -15.0397 C   0  0  2  0  0  0  0  0  0  0  0  0
   20.0976  -21.4727  -15.7293 C   0  0  0  0  0  0  0  0  0  0  0  0
   21.5412  -21.0421  -13.7424 C   0  0  2  0  0  0  0  0  0  0  0  0
   22.7719  -21.4478  -13.0899 N   0  0  0  0  0  0  0  0  0  0  0  0
   20.4122  -21.3438  -12.8457 C   0  0  0  0  0  0  0  0  0  0  0  0
   20.3491  -22.4568  -12.2879 O   0  0  0  0  0  0  0  0  0  0  0  0
   19.4362  -20.3947  -12.6298 O   0  0  0  0  0  0  0  0  0  0  0  0
  1  2  1  0
  2  4  1  0
  3  2  2  0
  5  4  1  0
  5  6  1  6
  7  8  2  0
  7  5  1  0
 10  9  1  1
 10 11  1  0
 10 12  1  0
 13 12  1  1
 13 14  1  0
 14  7  1  0
 15 13  1  0
 15 22  1  0
 16 15  2  0
 17 18  1  0
 18 19  1  0
 19 21  1  0
 19 20  1  6
 21 22  1  1
 21 23  1  0
 23 24  2  0
 23 25  1  0
M  END
$$$$
