NLI.pdb
     RDKit          3D

 25 24  0  0  1  0  0  0  0  0999 V2000
   18.8968  -15.3560  -19.8863 N   0  0  0  0  0  0  0  0  0  0  0  0
   18.1278  -14.4552  -19.0414 C   0  0  0  0  0  0  0  0  0  0  0  0
   16.8845  -14.5637  -19.0918 O   0  0  0  0  0  0  0  0  0  0  0  0
   18.8409  -13.4907  -18.1966 C   0  0  0  0  0  0  0  0  0  0  0  0
   20.0401  -14.0595  -17.5049 C   0  0  2  0  0  0  0  0  0  0  0  0
   19.4909  -14.9550  -16.4111 N   0  0  0  0  0  0  0  0  0  0  0  0
   20.8337  -13.0828  -16.7281 C   0  0  0  0  0  0  0  0  0  0  0  0
   20.3228  -12.5598  -15.6880 O   0  0  0  0  0  0  0  0  0  0  0  0
   26.4565  -10.3938  -15.9328 C   0  0  0  0  0  0  0  0  0  0  0  0
   24.9979  -10.5102  -15.6848 C   0  0  2  0  0  0  0  0  0  0  0  0
   24.7573  -10.6269  -14.1860 C   0  0  0  0  0  0  0  0  0  0  0  0
   24.2813  -11.5431  -16.4621 C   0  0  0  0  0  0  0  0  0  0  0  0
   22.8031  -11.6116  -16.2612 C   0  0  2  0  0  0  0  0  0  0  0  0
   22.1485  -12.6602  -17.0259 N   0  0  0  0  0  0  0  0  0  0  0  0
   22.2191  -10.2713  -16.5120 C   0  0  0  0  0  0  0  0  0  0  0  0
   22.2956   -9.7895  -17.6947 O   0  0  0  0  0  0  0  0  0  0  0  0
   17.3988   -9.0439  -16.7042 C   0  0  0  0  0  0  0  0  0  0  0  0
   18.8749   -8.9367  -16.8703 C   0  0  0  0  0  0  0  0  0  0  0  0
   19.5711   -8.1604  -15.8060 C   0  0  2  0  0  0  0  0  0  0  0  0
   19.0084   -6.7585  -15.8280 C   0  0  0  0  0  0  0  0  0  0  0  0
   21.0741   -8.1533  -15.8970 C   0  0  2  0  0  0  0  0  0  0  0  0
   21.5752   -9.4687  -15.5454 N   0  0  0  0  0  0  0  0  0  0  0  0
   21.6450   -7.1677  -14.9629 C   0  0  0  0  0  0  0  0  0  0  0  0
   21.9726   -7.5253  -13.8146 O   0  0  0  0  0  0  0  0  0  0  0  0
   21.8132   -5.8601  -15.3651 O   0  0  0  0  0  0  0  0  0  0  0  0
  1  2  1  0
  2  4  1  0
  3  2  2  0
  5  4  1  0
  5  6  1  1
  7  8  2  0
  7  5  1  0
 10  9  1  1
 10 11  1  0
 10 12  1  0
 13 12  1  6
 13 14  1  0
 14  7  1  0
 15 13  1  0
 15 22  1  0
 16 15  2  0
 17 18  1  0
 18 19  1  0
 19 21  1  0
 19 20  1  6
 21 22  1  1
 21 23  1  0
 23 24  2  0
 23 25  1  0
M  END
$$$$
