NLI.pdb
     RDKit          3D

 25 24  0  0  1  0  0  0  0  0999 V2000
   16.3494  -14.0729  -17.5956 N   0  0  0  0  0  0  0  0  0  0  0  0
   17.0740  -12.8632  -17.9534 C   0  0  0  0  0  0  0  0  0  0  0  0
   16.7651  -12.3244  -19.0371 O   0  0  0  0  0  0  0  0  0  0  0  0
   18.1048  -12.3557  -17.0411 C   0  0  0  0  0  0  0  0  0  0  0  0
   18.9564  -11.2740  -17.6284 C   0  0  2  0  0  0  0  0  0  0  0  0
   19.9959  -11.9883  -18.4705 N   0  0  0  0  0  0  0  0  0  0  0  0
   19.8006  -10.5474  -16.6555 C   0  0  0  0  0  0  0  0  0  0  0  0
   19.2639  -10.0743  -15.6045 O   0  0  0  0  0  0  0  0  0  0  0  0
   23.2184  -11.9517  -14.0449 C   0  0  0  0  0  0  0  0  0  0  0  0
   23.6654  -11.4536  -15.3695 C   0  0  2  0  0  0  0  0  0  0  0  0
   25.1304  -11.8177  -15.5679 C   0  0  0  0  0  0  0  0  0  0  0  0
   23.3832  -10.0331  -15.6649 C   0  0  0  0  0  0  0  0  0  0  0  0
   21.9419   -9.6467  -15.7260 C   0  0  2  0  0  0  0  0  0  0  0  0
   21.1904  -10.3220  -16.7710 N   0  0  0  0  0  0  0  0  0  0  0  0
   21.8414   -8.1692  -15.8129 C   0  0  0  0  0  0  0  0  0  0  0  0
   22.0741   -7.6122  -16.9409 O   0  0  0  0  0  0  0  0  0  0  0  0
   17.9627   -5.3632  -16.3339 C   0  0  0  0  0  0  0  0  0  0  0  0
   19.4018   -5.7437  -16.2891 C   0  0  0  0  0  0  0  0  0  0  0  0
   20.1106   -5.3697  -15.0330 C   0  0  2  0  0  0  0  0  0  0  0  0
   20.0445   -3.8656  -14.9077 C   0  0  0  0  0  0  0  0  0  0  0  0
   21.5262   -5.8709  -14.9222 C   0  0  2  0  0  0  0  0  0  0  0  0
   21.5053   -7.3106  -14.7439 N   0  0  0  0  0  0  0  0  0  0  0  0
   22.2016   -5.2634  -13.7626 C   0  0  0  0  0  0  0  0  0  0  0  0
   22.8488   -4.2082  -13.9099 O   0  0  0  0  0  0  0  0  0  0  0  0
   22.1126   -5.8647  -12.5255 O   0  0  0  0  0  0  0  0  0  0  0  0
  1  2  1  0
  2  4  1  0
  3  2  2  0
  5  4  1  0
  5  6  1  6
  7  8  2  0
  7  5  1  0
 10  9  1  1
 10 11  1  0
 10 12  1  0
 13 12  1  6
 13 14  1  0
 14  7  1  0
 15 13  1  0
 15 22  1  0
 16 15  2  0
 17 18  1  0
 18 19  1  0
 19 21  1  0
 19 20  1  6
 21 22  1  1
 21 23  1  0
 23 24  2  0
 23 25  1  0
M  END
$$$$
