NLI.pdb
     RDKit          3D

 25 24  0  0  1  0  0  0  0  0999 V2000
   18.8499  -27.2387   -4.2322 N   0  0  0  0  0  0  0  0  0  0  0  0
   18.1157  -27.5107   -5.4584 C   0  0  0  0  0  0  0  0  0  0  0  0
   17.7031  -28.6788   -5.6175 O   0  0  0  0  0  0  0  0  0  0  0  0
   17.9066  -26.4211   -6.4184 C   0  0  0  0  0  0  0  0  0  0  0  0
   18.5961  -25.1452   -6.0484 C   0  0  2  0  0  0  0  0  0  0  0  0
   17.7412  -24.5225   -4.9615 N   0  0  0  0  0  0  0  0  0  0  0  0
   18.5714  -24.0976   -7.0920 C   0  0  0  0  0  0  0  0  0  0  0  0
   17.4940  -23.4538   -7.2954 O   0  0  0  0  0  0  0  0  0  0  0  0
   20.5503  -19.9801   -8.4780 C   0  0  0  0  0  0  0  0  0  0  0  0
   21.3743  -21.1882   -8.7308 C   0  0  2  0  0  0  0  0  0  0  0  0
   22.7414  -20.7577   -9.2443 C   0  0  0  0  0  0  0  0  0  0  0  0
   20.7554  -22.2413   -9.5630 C   0  0  0  0  0  0  0  0  0  0  0  0
   19.4829  -22.8272   -9.0454 C   0  0  2  0  0  0  0  0  0  0  0  0
   19.6586  -23.7181   -7.9104 N   0  0  0  0  0  0  0  0  0  0  0  0
   18.7545  -23.4676  -10.1678 C   0  0  0  0  0  0  0  0  0  0  0  0
   19.1310  -24.6293  -10.5491 O   0  0  0  0  0  0  0  0  0  0  0  0
   13.8249  -24.7494  -10.2878 C   0  0  0  0  0  0  0  0  0  0  0  0
   15.2658  -24.7211  -10.6632 C   0  0  0  0  0  0  0  0  0  0  0  0
   15.6095  -23.7738  -11.7607 C   0  0  2  0  0  0  0  0  0  0  0  0
   14.9010  -24.2502  -13.0071 C   0  0  0  0  0  0  0  0  0  0  0  0
   17.0831  -23.5812  -12.0032 C   0  0  2  0  0  0  0  0  0  0  0  0
   17.6647  -22.8991  -10.8624 N   0  0  0  0  0  0  0  0  0  0  0  0
   17.3074  -22.7607  -13.2059 C   0  0  0  0  0  0  0  0  0  0  0  0
   17.6177  -23.3132  -14.2793 O   0  0  0  0  0  0  0  0  0  0  0  0
   17.1720  -21.3908  -13.1356 O   0  0  0  0  0  0  0  0  0  0  0  0
  1  2  1  0
  2  4  1  0
  3  2  2  0
  5  4  1  0
  5  6  1  1
  7  8  2  0
  7  5  1  0
 10  9  1  6
 10 11  1  0
 10 12  1  0
 13 12  1  6
 13 14  1  0
 14  7  1  0
 15 13  1  0
 15 22  1  0
 16 15  2  0
 17 18  1  0
 18 19  1  0
 19 21  1  0
 19 20  1  6
 21 22  1  1
 21 23  1  0
 23 24  2  0
 23 25  1  0
M  END
$$$$
