NLI.pdb
     RDKit          3D

 25 24  0  0  1  0  0  0  0  0999 V2000
   14.7677  -10.0610  -18.8307 N   0  0  0  0  0  0  0  0  0  0  0  0
   14.9362  -10.9113  -17.6623 C   0  0  0  0  0  0  0  0  0  0  0  0
   14.0122  -11.7147  -17.4155 O   0  0  0  0  0  0  0  0  0  0  0  0
   16.1555  -10.7795  -16.8570 C   0  0  0  0  0  0  0  0  0  0  0  0
   17.1507   -9.8114  -17.4160 C   0  0  2  0  0  0  0  0  0  0  0  0
   17.9056  -10.5776  -18.4852 N   0  0  0  0  0  0  0  0  0  0  0  0
   18.2388   -9.4307  -16.4896 C   0  0  0  0  0  0  0  0  0  0  0  0
   17.9481   -8.8182  -15.4141 O   0  0  0  0  0  0  0  0  0  0  0  0
   23.9350  -10.8562  -14.4766 C   0  0  0  0  0  0  0  0  0  0  0  0
   22.7527   -9.9606  -14.5266 C   0  0  2  0  0  0  0  0  0  0  0  0
   22.1963   -9.7945  -13.1192 C   0  0  0  0  0  0  0  0  0  0  0  0
   21.7112  -10.3048  -15.5173 C   0  0  0  0  0  0  0  0  0  0  0  0
   20.6032   -9.3166  -15.6789 C   0  0  2  0  0  0  0  0  0  0  0  0
   19.6147   -9.6916  -16.6764 N   0  0  0  0  0  0  0  0  0  0  0  0
   21.1852   -7.9748  -15.9266 C   0  0  0  0  0  0  0  0  0  0  0  0
   21.8953   -7.8078  -16.9777 O   0  0  0  0  0  0  0  0  0  0  0  0
   18.4278   -3.3661  -15.2503 C   0  0  0  0  0  0  0  0  0  0  0  0
   19.4614   -4.3621  -14.8533 C   0  0  0  0  0  0  0  0  0  0  0  0
   20.4975   -4.6372  -15.8881 C   0  0  2  0  0  0  0  0  0  0  0  0
   19.7839   -5.1511  -17.1165 C   0  0  0  0  0  0  0  0  0  0  0  0
   21.5996   -5.5694  -15.4597 C   0  0  2  0  0  0  0  0  0  0  0  0
   21.0209   -6.8481  -15.0920 N   0  0  0  0  0  0  0  0  0  0  0  0
   22.3152   -5.0244  -14.2933 C   0  0  0  0  0  0  0  0  0  0  0  0
   22.1361   -5.5315  -13.1687 O   0  0  0  0  0  0  0  0  0  0  0  0
   23.1766   -3.9603  -14.4538 O   0  0  0  0  0  0  0  0  0  0  0  0
  1  2  1  0
  2  4  1  0
  3  2  2  0
  5  4  1  0
  5  6  1  6
  7  8  2  0
  7  5  1  0
 10  9  1  1
 10 11  1  0
 10 12  1  0
 13 12  1  6
 13 14  1  0
 14  7  1  0
 15 13  1  0
 15 22  1  0
 16 15  2  0
 17 18  1  0
 18 19  1  0
 19 21  1  0
 19 20  1  6
 21 22  1  1
 21 23  1  0
 23 24  2  0
 23 25  1  0
M  END
$$$$
