NLI.pdb
     RDKit          3D

 25 24  0  0  1  0  0  0  0  0999 V2000
   20.8709  -19.1434  -13.1464 N   0  0  0  0  0  0  0  0  0  0  0  0
   20.7089  -19.6777  -11.8029 C   0  0  0  0  0  0  0  0  0  0  0  0
   19.6312  -19.4239  -11.2248 O   0  0  0  0  0  0  0  0  0  0  0  0
   21.7973  -20.4668  -11.2156 C   0  0  0  0  0  0  0  0  0  0  0  0
   23.0294  -20.5274  -12.0634 C   0  0  2  0  0  0  0  0  0  0  0  0
   22.8510  -21.7432  -12.9521 N   0  0  0  0  0  0  0  0  0  0  0  0
   24.2718  -20.8632  -11.3349 C   0  0  0  0  0  0  0  0  0  0  0  0
   24.3683  -21.9974  -10.7686 O   0  0  0  0  0  0  0  0  0  0  0  0
   28.1307  -22.3099  -12.3839 C   0  0  0  0  0  0  0  0  0  0  0  0
   28.1168  -20.8263  -12.4155 C   0  0  2  0  0  0  0  0  0  0  0  0
   29.3757  -20.3332  -13.1156 C   0  0  0  0  0  0  0  0  0  0  0  0
   27.8745  -20.1455  -11.1262 C   0  0  0  0  0  0  0  0  0  0  0  0
   26.5770  -20.4517  -10.4531 C   0  0  2  0  0  0  0  0  0  0  0  0
   25.4055  -20.0305  -11.2035 N   0  0  0  0  0  0  0  0  0  0  0  0
   26.6043  -19.8981   -9.0771 C   0  0  0  0  0  0  0  0  0  0  0  0
   26.0876  -18.7447   -8.8785 O   0  0  0  0  0  0  0  0  0  0  0  0
   26.4119  -22.5742   -4.1919 C   0  0  0  0  0  0  0  0  0  0  0  0
   26.2596  -21.5435   -5.2561 C   0  0  0  0  0  0  0  0  0  0  0  0
   27.5021  -20.7876   -5.5797 C   0  0  2  0  0  0  0  0  0  0  0  0
   27.9598  -20.1067   -4.3112 C   0  0  0  0  0  0  0  0  0  0  0  0
   27.3792  -19.8093   -6.7177 C   0  0  2  0  0  0  0  0  0  0  0  0
   27.1581  -20.5428   -7.9498 N   0  0  0  0  0  0  0  0  0  0  0  0
   28.6141  -19.0184   -6.8567 C   0  0  0  0  0  0  0  0  0  0  0  0
   29.5553  -19.4616   -7.5435 O   0  0  0  0  0  0  0  0  0  0  0  0
   28.7193  -17.7962   -6.2282 O   0  0  0  0  0  0  0  0  0  0  0  0
  1  2  1  0
  2  4  1  0
  3  2  2  0
  5  4  1  0
  5  6  1  6
  7  8  2  0
  7  5  1  0
 10  9  1  1
 10 11  1  0
 10 12  1  0
 13 12  1  6
 13 14  1  0
 14  7  1  0
 15 13  1  0
 15 22  1  0
 16 15  2  0
 17 18  1  0
 18 19  1  0
 19 21  1  0
 19 20  1  1
 21 22  1  6
 21 23  1  0
 23 24  2  0
 23 25  1  0
M  END
$$$$
