NLI.pdb
     RDKit          3D

 25 24  0  0  1  0  0  0  0  0999 V2000
   20.7834  -19.3323  -13.1771 N   0  0  0  0  0  0  0  0  0  0  0  0
   20.6388  -19.7915  -11.8042 C   0  0  0  0  0  0  0  0  0  0  0  0
   19.5244  -19.6152  -11.2684 O   0  0  0  0  0  0  0  0  0  0  0  0
   21.7857  -20.4216  -11.1409 C   0  0  0  0  0  0  0  0  0  0  0  0
   23.0080  -20.5147  -11.9997 C   0  0  2  0  0  0  0  0  0  0  0  0
   22.8018  -21.7413  -12.8674 N   0  0  0  0  0  0  0  0  0  0  0  0
   24.2524  -20.8586  -11.2783 C   0  0  0  0  0  0  0  0  0  0  0  0
   24.3954  -22.0359  -10.8201 O   0  0  0  0  0  0  0  0  0  0  0  0
   27.8037  -22.3053  -12.3222 C   0  0  0  0  0  0  0  0  0  0  0  0
   27.9778  -20.8316  -12.3020 C   0  0  2  0  0  0  0  0  0  0  0  0
   29.2981  -20.4788  -12.9730 C   0  0  0  0  0  0  0  0  0  0  0  0
   27.8061  -20.1694  -10.9918 C   0  0  0  0  0  0  0  0  0  0  0  0
   26.5097  -20.4174  -10.2931 C   0  0  2  0  0  0  0  0  0  0  0  0
   25.3404  -19.9887  -11.0426 N   0  0  0  0  0  0  0  0  0  0  0  0
   26.5703  -19.8199   -8.9367 C   0  0  0  0  0  0  0  0  0  0  0  0
   26.0552  -18.6619   -8.7619 O   0  0  0  0  0  0  0  0  0  0  0  0
   27.4842  -22.5392   -4.0254 C   0  0  0  0  0  0  0  0  0  0  0  0
   26.9502  -21.6002   -5.0506 C   0  0  0  0  0  0  0  0  0  0  0  0
   27.9191  -20.5729   -5.5257 C   0  0  2  0  0  0  0  0  0  0  0  0
   28.3877  -19.7999   -4.3151 C   0  0  0  0  0  0  0  0  0  0  0  0
   27.4034  -19.6541   -6.6013 C   0  0  2  0  0  0  0  0  0  0  0  0
   27.1545  -20.4268   -7.8038 N   0  0  0  0  0  0  0  0  0  0  0  0
   28.3954  -18.6100   -6.9105 C   0  0  0  0  0  0  0  0  0  0  0  0
   29.3391  -18.8666   -7.6834 O   0  0  0  0  0  0  0  0  0  0  0  0
   28.2725  -17.3591   -6.3445 O   0  0  0  0  0  0  0  0  0  0  0  0
  1  2  1  0
  2  4  1  0
  3  2  2  0
  5  4  1  0
  5  6  1  6
  7  8  2  0
  7  5  1  0
 10  9  1  1
 10 11  1  0
 10 12  1  0
 13 12  1  6
 13 14  1  0
 14  7  1  0
 15 13  1  0
 15 22  1  0
 16 15  2  0
 17 18  1  0
 18 19  1  0
 19 21  1  0
 19 20  1  1
 21 22  1  6
 21 23  1  0
 23 24  2  0
 23 25  1  0
M  END
$$$$
