NLI.pdb
     RDKit          3D

 25 24  0  0  1  0  0  0  0  0999 V2000
   29.3860  -18.8921  -17.6076 N   0  0  0  0  0  0  0  0  0  0  0  0
   27.9387  -18.7471  -17.6358 C   0  0  0  0  0  0  0  0  0  0  0  0
   27.4682  -17.9865  -18.5078 O   0  0  0  0  0  0  0  0  0  0  0  0
   27.1310  -19.4860  -16.6591 C   0  0  0  0  0  0  0  0  0  0  0  0
   27.9383  -20.2754  -15.6766 C   0  0  2  0  0  0  0  0  0  0  0  0
   28.3062  -21.5604  -16.3932 N   0  0  0  0  0  0  0  0  0  0  0  0
   27.1811  -20.7830  -14.5121 C   0  0  0  0  0  0  0  0  0  0  0  0
   26.3822  -21.7589  -14.6727 O   0  0  0  0  0  0  0  0  0  0  0  0
   28.6448  -22.4533  -10.7270 C   0  0  0  0  0  0  0  0  0  0  0  0
   28.3560  -21.0109  -10.5310 C   0  0  2  0  0  0  0  0  0  0  0  0
   28.8932  -20.5773   -9.1741 C   0  0  0  0  0  0  0  0  0  0  0  0
   26.9584  -20.5859  -10.7563 C   0  0  0  0  0  0  0  0  0  0  0  0
   26.4157  -20.8068  -12.1300 C   0  0  2  0  0  0  0  0  0  0  0  0
   27.2600  -20.2855  -13.1922 N   0  0  0  0  0  0  0  0  0  0  0  0
   25.0295  -20.2823  -12.1917 C   0  0  0  0  0  0  0  0  0  0  0  0
   24.8609  -19.0142  -12.1721 O   0  0  0  0  0  0  0  0  0  0  0  0
   21.1456  -19.1231  -15.8765 C   0  0  0  0  0  0  0  0  0  0  0  0
   21.1993  -19.5102  -14.4394 C   0  0  0  0  0  0  0  0  0  0  0  0
   22.4674  -20.1663  -14.0135 C   0  0  2  0  0  0  0  0  0  0  0  0
   22.6257  -21.4219  -14.8386 C   0  0  0  0  0  0  0  0  0  0  0  0
   22.5753  -20.4571  -12.5400 C   0  0  2  0  0  0  0  0  0  0  0  0
   23.8619  -21.0718  -12.2725 N   0  0  0  0  0  0  0  0  0  0  0  0
   21.5134  -21.3857  -12.1160 C   0  0  0  0  0  0  0  0  0  0  0  0
   21.7216  -22.6144  -12.1460 O   0  0  0  0  0  0  0  0  0  0  0  0
   20.3000  -20.8901  -11.6893 O   0  0  0  0  0  0  0  0  0  0  0  0
  1  2  1  0
  2  4  1  0
  3  2  2  0
  5  4  1  0
  5  6  1  6
  7  8  2  0
  7  5  1  0
 10  9  1  1
 10 11  1  0
 10 12  1  0
 13 12  1  1
 13 14  1  0
 14  7  1  0
 15 13  1  0
 15 22  1  0
 16 15  2  0
 17 18  1  0
 18 19  1  0
 19 21  1  0
 19 20  1  6
 21 22  1  6
 21 23  1  0
 23 24  2  0
 23 25  1  0
M  END
$$$$
