FAT.pdb
     RDKit          3D

 24 24  0  0  1  0  0  0  0  0999 V2000
    6.6588  -16.3838   25.8519 N   0  0  0  0  0  0  0  0  0  0  0  0
    6.9610  -15.3849   24.8596 C   0  0  1  0  0  0  0  0  0  0  0  0
    7.9885  -14.3880   25.3532 C   0  0  0  0  0  0  0  0  0  0  0  0
    7.2515  -13.4080   26.2211 C   0  0  0  0  0  0  0  0  0  0  0  0
    7.7518  -13.0694   27.4706 C   0  0  0  0  0  0  0  0  0  0  0  0
    7.0860  -12.1702   28.2792 C   0  0  0  0  0  0  0  0  0  0  0  0
    5.9114  -11.6312   27.7884 C   0  0  0  0  0  0  0  0  0  0  0  0
    5.4097  -11.9647   26.5466 C   0  0  0  0  0  0  0  0  0  0  0  0
    6.0776  -12.8636   25.7410 C   0  0  0  0  0  0  0  0  0  0  0  0
    7.4451  -16.0756   23.6374 C   0  0  0  0  0  0  0  0  0  0  0  0
    7.7709  -17.2881   23.6537 O   0  0  0  0  0  0  0  0  0  0  0  0
    7.9158  -15.1846   19.9634 C   0  0  0  0  0  0  0  0  0  0  0  0
    8.1439  -15.9935   21.2202 C   0  0  2  0  0  0  0  0  0  0  0  0
    7.5658  -15.4017   22.3831 N   0  0  0  0  0  0  0  0  0  0  0  0
    9.6182  -16.1502   21.3910 C   0  0  0  0  0  0  0  0  0  0  0  0
   10.4369  -15.3627   20.8545 O   0  0  0  0  0  0  0  0  0  0  0  0
   11.7893  -15.9136   24.4551 C   0  0  0  0  0  0  0  0  0  0  0  0
   11.9950  -17.2921   23.8460 C   0  0  1  0  0  0  0  0  0  0  0  0
   11.1563  -18.1552   24.5557 O   0  0  0  0  0  0  0  0  0  0  0  0
   11.5878  -17.3354   22.4021 C   0  0  2  0  0  0  0  0  0  0  0  0
   10.1921  -17.1995   22.1711 N   0  0  0  0  0  0  0  0  0  0  0  0
   12.1432  -18.5926   21.7898 C   0  0  0  0  0  0  0  0  0  0  0  0
   11.3044  -19.5981   21.3311 O   0  0  0  0  0  0  0  0  0  0  0  0
   13.3801  -18.7861   21.6676 O   0  0  0  0  0  0  0  0  0  0  0  0
  2  1  1  1
  3  2  1  0
  4  3  1  0
  5  4  2  0
  6  5  1  0
  7  6  2  0
  7  8  1  0
  8  9  2  0
  9  4  1  0
 10  2  1  0
 10 11  2  0
 13 12  1  6
 13 14  1  0
 13 15  1  0
 14 10  1  0
 15 16  2  0
 15 21  1  0
 18 17  1  1
 18 19  1  0
 18 20  1  0
 20 22  1  0
 20 21  1  1
 22 24  2  0
 22 23  1  0
M  END
$$$$
