FAT.pdb
     RDKit          3D

 24 24  0  0  1  0  0  0  0  0999 V2000
    8.4577  -14.8885   24.9117 N   0  0  0  0  0  0  0  0  0  0  0  0
    7.3028  -15.7016   24.6312 C   0  0  1  0  0  0  0  0  0  0  0  0
    6.0861  -15.2458   25.4090 C   0  0  0  0  0  0  0  0  0  0  0  0
    6.5014  -14.0221   26.1750 C   0  0  0  0  0  0  0  0  0  0  0  0
    7.6209  -14.0590   26.9945 C   0  0  0  0  0  0  0  0  0  0  0  0
    8.0150  -12.9424   27.7042 C   0  0  0  0  0  0  0  0  0  0  0  0
    7.2488  -11.8009   27.5596 C   0  0  0  0  0  0  0  0  0  0  0  0
    6.1347  -11.7592   26.7459 C   0  0  0  0  0  0  0  0  0  0  0  0
    5.7436  -12.8767   26.0380 C   0  0  0  0  0  0  0  0  0  0  0  0
    7.0414  -15.6493   23.1702 C   0  0  0  0  0  0  0  0  0  0  0  0
    6.1403  -16.3438   22.6391 O   0  0  0  0  0  0  0  0  0  0  0  0
    7.7646  -13.3651   20.3107 C   0  0  0  0  0  0  0  0  0  0  0  0
    7.5934  -14.7540   20.8830 C   0  0  2  0  0  0  0  0  0  0  0  0
    7.7969  -14.8103   22.2944 N   0  0  0  0  0  0  0  0  0  0  0  0
    8.5571  -15.6506   20.1795 C   0  0  0  0  0  0  0  0  0  0  0  0
    8.5870  -15.7421   18.9270 O   0  0  0  0  0  0  0  0  0  0  0  0
   12.4905  -15.9953   20.9740 C   0  0  0  0  0  0  0  0  0  0  0  0
   11.7987  -17.3492   20.9272 C   0  0  1  0  0  0  0  0  0  0  0  0
   11.5720  -17.7114   22.2573 O   0  0  0  0  0  0  0  0  0  0  0  0
   10.4692  -17.2776   20.2346 C   0  0  2  0  0  0  0  0  0  0  0  0
    9.5032  -16.4590   20.8799 N   0  0  0  0  0  0  0  0  0  0  0  0
    9.9697  -18.6806   20.0199 C   0  0  0  0  0  0  0  0  0  0  0  0
   10.6388  -19.5595   19.1804 O   0  0  0  0  0  0  0  0  0  0  0  0
    8.9338  -19.1148   20.5863 O   0  0  0  0  0  0  0  0  0  0  0  0
  2  1  1  6
  3  2  1  0
  4  3  1  0
  5  4  2  0
  6  5  1  0
  7  6  2  0
  7  8  1  0
  8  9  2  0
  9  4  1  0
 10  2  1  0
 10 11  2  0
 13 12  1  6
 13 14  1  0
 13 15  1  0
 14 10  1  0
 15 16  2  0
 15 21  1  0
 18 17  1  1
 18 19  1  0
 18 20  1  0
 20 22  1  0
 20 21  1  1
 22 24  2  0
 22 23  1  0
M  END
$$$$
