FAT.pdb
     RDKit          3D

 24 24  0  0  1  0  0  0  0  0999 V2000
    5.6410  -18.1178   21.0787 N   0  0  0  0  0  0  0  0  0  0  0  0
    6.4437  -16.9304   21.2179 C   0  0  1  0  0  0  0  0  0  0  0  0
    5.6158  -15.6685   21.0940 C   0  0  0  0  0  0  0  0  0  0  0  0
    6.5874  -14.5265   21.0018 C   0  0  0  0  0  0  0  0  0  0  0  0
    7.2096  -14.2359   19.7958 C   0  0  0  0  0  0  0  0  0  0  0  0
    8.1045  -13.1895   19.6956 C   0  0  0  0  0  0  0  0  0  0  0  0
    8.3464  -12.4553   20.8416 C   0  0  0  0  0  0  0  0  0  0  0  0
    7.7302  -12.7403   22.0434 C   0  0  0  0  0  0  0  0  0  0  0  0
    6.8365  -13.7866   22.1401 C   0  0  0  0  0  0  0  0  0  0  0  0
    7.1263  -16.9827   22.5358 C   0  0  0  0  0  0  0  0  0  0  0  0
    6.4787  -17.0740   23.6075 O   0  0  0  0  0  0  0  0  0  0  0  0
   10.5548  -17.9313   23.6575 C   0  0  0  0  0  0  0  0  0  0  0  0
    9.2506  -17.1965   23.8696 C   0  0  2  0  0  0  0  0  0  0  0  0
    8.5494  -16.9324   22.6551 N   0  0  0  0  0  0  0  0  0  0  0  0
    9.5646  -15.9220   24.5800 C   0  0  0  0  0  0  0  0  0  0  0  0
   10.5747  -15.2325   24.2930 O   0  0  0  0  0  0  0  0  0  0  0  0
    7.6042  -12.5282   25.5767 C   0  0  0  0  0  0  0  0  0  0  0  0
    8.0116  -13.3585   26.7844 C   0  0  1  0  0  0  0  0  0  0  0  0
    6.8845  -14.1058   27.1352 O   0  0  0  0  0  0  0  0  0  0  0  0
    9.1194  -14.3174   26.4597 C   0  0  2  0  0  0  0  0  0  0  0  0
    8.7422  -15.4054   25.6269 N   0  0  0  0  0  0  0  0  0  0  0  0
    9.7396  -14.7806   27.7500 C   0  0  0  0  0  0  0  0  0  0  0  0
   10.2301  -13.8720   28.6768 O   0  0  0  0  0  0  0  0  0  0  0  0
    9.8401  -15.9998   28.0430 O   0  0  0  0  0  0  0  0  0  0  0  0
  2  1  1  1
  3  2  1  0
  4  3  1  0
  5  4  2  0
  6  5  1  0
  7  6  2  0
  7  8  1  0
  8  9  2  0
  9  4  1  0
 10  2  1  0
 10 11  2  0
 13 12  1  6
 13 14  1  0
 13 15  1  0
 14 10  1  0
 15 16  2  0
 15 21  1  0
 18 17  1  6
 18 19  1  0
 18 20  1  0
 20 22  1  0
 20 21  1  1
 22 24  2  0
 22 23  1  0
M  END
$$$$
