FAT.pdb
     RDKit          3D

 24 24  0  0  1  0  0  0  0  0999 V2000
    6.6345  -16.7627   25.7963 N   0  0  0  0  0  0  0  0  0  0  0  0
    6.8615  -15.6568   24.9024 C   0  0  1  0  0  0  0  0  0  0  0  0
    8.0338  -14.8045   25.3412 C   0  0  0  0  0  0  0  0  0  0  0  0
    7.4670  -13.7004   26.1876 C   0  0  0  0  0  0  0  0  0  0  0  0
    7.9940  -13.4457   27.4460 C   0  0  0  0  0  0  0  0  0  0  0  0
    7.4839  -12.4343   28.2351 C   0  0  0  0  0  0  0  0  0  0  0  0
    6.4357  -11.6977   27.7158 C   0  0  0  0  0  0  0  0  0  0  0  0
    5.9081  -11.9470   26.4649 C   0  0  0  0  0  0  0  0  0  0  0  0
    6.4202  -12.9584   25.6790 C   0  0  0  0  0  0  0  0  0  0  0  0
    7.0893  -16.2003   23.5392 C   0  0  0  0  0  0  0  0  0  0  0  0
    7.1041  -17.4363   23.3191 O   0  0  0  0  0  0  0  0  0  0  0  0
    7.3135  -14.7646   20.0268 C   0  0  0  0  0  0  0  0  0  0  0  0
    7.4870  -15.8349   21.0804 C   0  0  2  0  0  0  0  0  0  0  0  0
    7.3027  -15.3508   22.4102 N   0  0  0  0  0  0  0  0  0  0  0  0
    8.8559  -16.4068   20.9171 C   0  0  0  0  0  0  0  0  0  0  0  0
    9.2579  -16.8656   19.8189 O   0  0  0  0  0  0  0  0  0  0  0  0
   12.3389  -15.0396   22.6775 C   0  0  0  0  0  0  0  0  0  0  0  0
   12.1010  -16.5320   22.8496 C   0  0  1  0  0  0  0  0  0  0  0  0
   11.5879  -16.6935   24.1389 O   0  0  0  0  0  0  0  0  0  0  0  0
   11.0835  -17.0550   21.8782 C   0  0  2  0  0  0  0  0  0  0  0  0
    9.7934  -16.4699   21.9923 N   0  0  0  0  0  0  0  0  0  0  0  0
   11.0380  -18.5540   21.9995 C   0  0  0  0  0  0  0  0  0  0  0  0
   12.1423  -19.3329   21.6846 O   0  0  0  0  0  0  0  0  0  0  0  0
   10.0074  -19.1618   22.3879 O   0  0  0  0  0  0  0  0  0  0  0  0
  2  1  1  1
  3  2  1  0
  4  3  1  0
  5  4  2  0
  6  5  1  0
  7  6  2  0
  7  8  1  0
  8  9  2  0
  9  4  1  0
 10  2  1  0
 10 11  2  0
 13 12  1  6
 13 14  1  0
 13 15  1  0
 14 10  1  0
 15 16  2  0
 15 21  1  0
 18 17  1  6
 18 19  1  0
 18 20  1  0
 20 22  1  0
 20 21  1  1
 22 24  2  0
 22 23  1  0
M  END
$$$$
