FAT.pdb
     RDKit          3D

 24 24  0  0  1  0  0  0  0  0999 V2000
    6.1238  -17.9356   23.3561 N   0  0  0  0  0  0  0  0  0  0  0  0
    6.7703  -16.7763   23.9146 C   0  0  1  0  0  0  0  0  0  0  0  0
    6.2187  -16.4220   25.2796 C   0  0  0  0  0  0  0  0  0  0  0  0
    6.7592  -15.0623   25.6198 C   0  0  0  0  0  0  0  0  0  0  0  0
    6.9744  -14.7088   26.9446 C   0  0  0  0  0  0  0  0  0  0  0  0
    7.4708  -13.4631   27.2726 C   0  0  0  0  0  0  0  0  0  0  0  0
    7.7392  -12.5970   26.2292 C   0  0  0  0  0  0  0  0  0  0  0  0
    7.5269  -12.9437   24.9102 C   0  0  0  0  0  0  0  0  0  0  0  0
    7.0307  -14.1893   24.5858 C   0  0  0  0  0  0  0  0  0  0  0  0
    8.2280  -17.0497   23.9926 C   0  0  0  0  0  0  0  0  0  0  0  0
    8.6695  -18.1324   24.4499 O   0  0  0  0  0  0  0  0  0  0  0  0
   11.3842  -15.4515   22.6368 C   0  0  0  0  0  0  0  0  0  0  0  0
   10.6084  -16.3407   23.5819 C   0  0  2  0  0  0  0  0  0  0  0  0
    9.2019  -16.1006   23.5538 N   0  0  0  0  0  0  0  0  0  0  0  0
   11.1499  -16.1164   24.9545 C   0  0  0  0  0  0  0  0  0  0  0  0
   12.3789  -16.1898   25.2044 O   0  0  0  0  0  0  0  0  0  0  0  0
   10.0419  -13.0873   27.2645 C   0  0  0  0  0  0  0  0  0  0  0  0
   10.0501  -14.3831   28.0610 C   0  0  1  0  0  0  0  0  0  0  0  0
    8.7149  -14.7824   28.1596 O   0  0  0  0  0  0  0  0  0  0  0  0
   10.8072  -15.4711   27.3571 C   0  0  2  0  0  0  0  0  0  0  0  0
   10.3115  -15.8053   26.0678 N   0  0  0  0  0  0  0  0  0  0  0  0
   10.8729  -16.6683   28.2662 C   0  0  0  0  0  0  0  0  0  0  0  0
   11.4776  -16.5901   29.5125 O   0  0  0  0  0  0  0  0  0  0  0  0
   10.3876  -17.7821   27.9401 O   0  0  0  0  0  0  0  0  0  0  0  0
  2  1  1  1
  3  2  1  0
  4  3  1  0
  5  4  2  0
  6  5  1  0
  7  6  2  0
  7  8  1  0
  8  9  2  0
  9  4  1  0
 10  2  1  0
 10 11  2  0
 13 12  1  6
 13 14  1  0
 13 15  1  0
 14 10  1  0
 15 16  2  0
 15 21  1  0
 18 17  1  6
 18 19  1  0
 18 20  1  0
 20 22  1  0
 20 21  1  6
 22 24  2  0
 22 23  1  0
M  END
$$$$
