FAT.pdb
     RDKit          3D

 24 24  0  0  1  0  0  0  0  0999 V2000
    7.8188  -12.7859   23.8779 N   0  0  0  0  0  0  0  0  0  0  0  0
    7.8099  -14.2150   23.7009 C   0  0  1  0  0  0  0  0  0  0  0  0
    8.6243  -14.6424   22.4979 C   0  0  0  0  0  0  0  0  0  0  0  0
    7.9329  -14.0769   21.2901 C   0  0  0  0  0  0  0  0  0  0  0  0
    8.4206  -12.9291   20.6810 C   0  0  0  0  0  0  0  0  0  0  0  0
    7.7961  -12.3979   19.5704 C   0  0  0  0  0  0  0  0  0  0  0  0
    6.6755  -13.0578   19.1015 C   0  0  0  0  0  0  0  0  0  0  0  0
    6.1866  -14.1995   19.7037 C   0  0  0  0  0  0  0  0  0  0  0  0
    6.8130  -14.7277   20.8134 C   0  0  0  0  0  0  0  0  0  0  0  0
    8.3373  -14.8401   24.9404 C   0  0  0  0  0  0  0  0  0  0  0  0
    8.5503  -14.1646   25.9772 O   0  0  0  0  0  0  0  0  0  0  0  0
    6.4637  -17.1598   25.7144 C   0  0  0  0  0  0  0  0  0  0  0  0
    7.9631  -17.1341   25.9074 C   0  0  2  0  0  0  0  0  0  0  0  0
    8.6295  -16.2366   25.0203 N   0  0  0  0  0  0  0  0  0  0  0  0
    8.4636  -18.5270   25.7155 C   0  0  0  0  0  0  0  0  0  0  0  0
    7.9779  -19.5003   26.3439 O   0  0  0  0  0  0  0  0  0  0  0  0
   11.2873  -19.7956   22.7473 C   0  0  0  0  0  0  0  0  0  0  0  0
   11.7788  -19.5932   24.1725 C   0  0  1  0  0  0  0  0  0  0  0  0
   12.3459  -18.3168   24.2060 O   0  0  0  0  0  0  0  0  0  0  0  0
   10.6538  -19.6254   25.1653 C   0  0  2  0  0  0  0  0  0  0  0  0
    9.5217  -18.8432   24.8102 N   0  0  0  0  0  0  0  0  0  0  0  0
   11.2012  -19.2489   26.5153 C   0  0  0  0  0  0  0  0  0  0  0  0
   12.1342  -20.0486   27.1595 O   0  0  0  0  0  0  0  0  0  0  0  0
   10.8409  -18.2028   27.1141 O   0  0  0  0  0  0  0  0  0  0  0  0
  2  1  1  1
  3  2  1  0
  4  3  1  0
  5  4  2  0
  6  5  1  0
  7  6  2  0
  7  8  1  0
  8  9  2  0
  9  4  1  0
 10  2  1  0
 10 11  2  0
 13 12  1  6
 13 14  1  0
 13 15  1  0
 14 10  1  0
 15 16  2  0
 15 21  1  0
 18 17  1  6
 18 19  1  0
 18 20  1  0
 20 22  1  0
 20 21  1  6
 22 24  2  0
 22 23  1  0
M  END
$$$$
