FAT.pdb
     RDKit          3D

 24 24  0  0  1  0  0  0  0  0999 V2000
    5.6687  -17.9437   25.1393 N   0  0  0  0  0  0  0  0  0  0  0  0
    6.2005  -16.6055   25.1563 C   0  0  1  0  0  0  0  0  0  0  0  0
    6.6618  -16.1963   26.5393 C   0  0  0  0  0  0  0  0  0  0  0  0
    6.5908  -14.6965   26.5879 C   0  0  0  0  0  0  0  0  0  0  0  0
    5.3637  -14.0535   26.5046 C   0  0  0  0  0  0  0  0  0  0  0  0
    5.2826  -12.6760   26.5480 C   0  0  0  0  0  0  0  0  0  0  0  0
    6.4692  -11.9787   26.6770 C   0  0  0  0  0  0  0  0  0  0  0  0
    7.6920  -12.6135   26.7602 C   0  0  0  0  0  0  0  0  0  0  0  0
    7.7695  -13.9901   26.7164 C   0  0  0  0  0  0  0  0  0  0  0  0
    7.3242  -16.5397   24.1875 C   0  0  0  0  0  0  0  0  0  0  0  0
    8.1553  -17.4747   24.0814 O   0  0  0  0  0  0  0  0  0  0  0  0
    8.3983  -14.1314   21.4295 C   0  0  0  0  0  0  0  0  0  0  0  0
    8.4798  -15.3835   22.2730 C   0  0  2  0  0  0  0  0  0  0  0  0
    7.5195  -15.4148   23.3282 N   0  0  0  0  0  0  0  0  0  0  0  0
    9.8647  -15.4637   22.8236 C   0  0  0  0  0  0  0  0  0  0  0  0
   10.8779  -15.4303   22.0817 O   0  0  0  0  0  0  0  0  0  0  0  0
   10.9628  -14.5378   26.8951 C   0  0  0  0  0  0  0  0  0  0  0  0
   11.4835  -15.8200   26.2639 C   0  0  1  0  0  0  0  0  0  0  0  0
   10.6267  -16.8361   26.6944 O   0  0  0  0  0  0  0  0  0  0  0  0
   11.4274  -15.7721   24.7650 C   0  0  2  0  0  0  0  0  0  0  0  0
   10.1277  -15.5830   24.2220 N   0  0  0  0  0  0  0  0  0  0  0  0
   12.0918  -17.0096   24.2253 C   0  0  0  0  0  0  0  0  0  0  0  0
   13.4336  -17.2666   24.4671 O   0  0  0  0  0  0  0  0  0  0  0  0
   11.4667  -17.8576   23.5378 O   0  0  0  0  0  0  0  0  0  0  0  0
  2  1  1  1
  3  2  1  0
  4  3  1  0
  5  4  2  0
  6  5  1  0
  7  6  2  0
  7  8  1  0
  8  9  2  0
  9  4  1  0
 10  2  1  0
 10 11  2  0
 13 12  1  1
 13 14  1  0
 13 15  1  0
 14 10  1  0
 15 16  2  0
 15 21  1  0
 18 17  1  1
 18 19  1  0
 18 20  1  0
 20 22  1  0
 20 21  1  1
 22 24  2  0
 22 23  1  0
M  END
$$$$
