FAT.pdb
     RDKit          3D

 24 24  0  0  1  0  0  0  0  0999 V2000
    5.9489  -17.1481   22.4804 N   0  0  0  0  0  0  0  0  0  0  0  0
    7.1096  -16.2957   22.4762 C   0  0  1  0  0  0  0  0  0  0  0  0
    6.7427  -14.8373   22.6540 C   0  0  0  0  0  0  0  0  0  0  0  0
    7.2075  -14.1250   21.4158 C   0  0  0  0  0  0  0  0  0  0  0  0
    7.7676  -14.8419   20.3677 C   0  0  0  0  0  0  0  0  0  0  0  0
    8.1991  -14.2012   19.2235 C   0  0  0  0  0  0  0  0  0  0  0  0
    8.0472  -12.8281   19.1748 C   0  0  0  0  0  0  0  0  0  0  0  0
    7.4908  -12.1106   20.2144 C   0  0  0  0  0  0  0  0  0  0  0  0
    7.0607  -12.7539   21.3564 C   0  0  0  0  0  0  0  0  0  0  0  0
    8.0191  -16.7440   23.5612 C   0  0  0  0  0  0  0  0  0  0  0  0
    7.5969  -16.9644   24.7229 O   0  0  0  0  0  0  0  0  0  0  0  0
   11.6151  -17.9430   23.7911 C   0  0  0  0  0  0  0  0  0  0  0  0
   10.3139  -17.4139   24.3504 C   0  0  2  0  0  0  0  0  0  0  0  0
    9.4166  -16.9477   23.3433 N   0  0  0  0  0  0  0  0  0  0  0  0
   10.6493  -16.3141   25.3019 C   0  0  0  0  0  0  0  0  0  0  0  0
   11.2888  -15.2948   24.9409 O   0  0  0  0  0  0  0  0  0  0  0  0
    9.1539  -13.5252   26.7253 C   0  0  0  0  0  0  0  0  0  0  0  0
    9.5385  -14.3610   27.9366 C   0  0  1  0  0  0  0  0  0  0  0  0
    8.3940  -15.0824   28.2851 O   0  0  0  0  0  0  0  0  0  0  0  0
   10.6261  -15.3450   27.6185 C   0  0  2  0  0  0  0  0  0  0  0  0
   10.2674  -16.3477   26.6774 N   0  0  0  0  0  0  0  0  0  0  0  0
   11.1264  -15.9335   28.9098 C   0  0  0  0  0  0  0  0  0  0  0  0
   11.6645  -15.1288   29.9037 O   0  0  0  0  0  0  0  0  0  0  0  0
   11.0795  -17.1687   29.1434 O   0  0  0  0  0  0  0  0  0  0  0  0
  2  1  1  1
  3  2  1  0
  4  3  1  0
  5  4  2  0
  6  5  1  0
  7  6  2  0
  7  8  1  0
  8  9  2  0
  9  4  1  0
 10  2  1  0
 10 11  2  0
 13 12  1  6
 13 14  1  0
 13 15  1  0
 14 10  1  0
 15 16  2  0
 15 21  1  0
 18 17  1  6
 18 19  1  0
 18 20  1  0
 20 22  1  0
 20 21  1  6
 22 24  2  0
 22 23  1  0
M  END
$$$$
