FAT.pdb
     RDKit          3D

 24 24  0  0  1  0  0  0  0  0999 V2000
    6.4600  -15.8148   24.5456 N   0  0  0  0  0  0  0  0  0  0  0  0
    7.5211  -15.7329   25.5156 C   0  0  1  0  0  0  0  0  0  0  0  0
    7.0714  -15.0534   26.7920 C   0  0  0  0  0  0  0  0  0  0  0  0
    6.7576  -13.6294   26.4311 C   0  0  0  0  0  0  0  0  0  0  0  0
    7.7514  -12.8027   25.9261 C   0  0  0  0  0  0  0  0  0  0  0  0
    7.4780  -11.4920   25.5897 C   0  0  0  0  0  0  0  0  0  0  0  0
    6.1818  -11.0501   25.7786 C   0  0  0  0  0  0  0  0  0  0  0  0
    5.1899  -11.8683   26.2804 C   0  0  0  0  0  0  0  0  0  0  0  0
    5.4665  -13.1775   26.6156 C   0  0  0  0  0  0  0  0  0  0  0  0
    8.0019  -17.1098   25.7956 C   0  0  0  0  0  0  0  0  0  0  0  0
    8.8574  -17.3384   26.6857 O   0  0  0  0  0  0  0  0  0  0  0  0
    7.2102  -20.6339   24.6090 C   0  0  0  0  0  0  0  0  0  0  0  0
    8.1014  -19.5434   25.1590 C   0  0  2  0  0  0  0  0  0  0  0  0
    7.5197  -18.2433   25.0713 N   0  0  0  0  0  0  0  0  0  0  0  0
    9.3880  -19.5928   24.4043 C   0  0  0  0  0  0  0  0  0  0  0  0
   10.1812  -20.5617   24.5053 O   0  0  0  0  0  0  0  0  0  0  0  0
    9.6014  -18.0528   20.5861 C   0  0  0  0  0  0  0  0  0  0  0  0
   10.8357  -17.7692   21.4286 C   0  0  1  0  0  0  0  0  0  0  0  0
   10.7059  -16.4496   21.8688 O   0  0  0  0  0  0  0  0  0  0  0  0
   10.9069  -18.6551   22.6379 C   0  0  2  0  0  0  0  0  0  0  0  0
    9.7999  -18.5477   23.5226 N   0  0  0  0  0  0  0  0  0  0  0  0
   12.2157  -18.4017   23.3355 C   0  0  0  0  0  0  0  0  0  0  0  0
   13.4242  -18.7063   22.7258 O   0  0  0  0  0  0  0  0  0  0  0  0
   12.2721  -17.9075   24.4910 O   0  0  0  0  0  0  0  0  0  0  0  0
  2  1  1  6
  3  2  1  0
  4  3  1  0
  5  4  2  0
  6  5  1  0
  7  6  2  0
  7  8  1  0
  8  9  2  0
  9  4  1  0
 10  2  1  0
 10 11  2  0
 13 12  1  6
 13 14  1  0
 13 15  1  0
 14 10  1  0
 15 16  2  0
 15 21  1  0
 18 17  1  6
 18 19  1  0
 18 20  1  0
 20 22  1  0
 20 21  1  1
 22 24  2  0
 22 23  1  0
M  END
$$$$
