FAT.pdb
     RDKit          3D

 24 24  0  0  1  0  0  0  0  0999 V2000
    5.3544  -17.1523   24.0048 N   0  0  0  0  0  0  0  0  0  0  0  0
    6.3615  -16.1910   24.3727 C   0  0  1  0  0  0  0  0  0  0  0  0
    6.3914  -15.9448   25.8666 C   0  0  0  0  0  0  0  0  0  0  0  0
    6.8405  -14.5240   26.0572 C   0  0  0  0  0  0  0  0  0  0  0  0
    8.1932  -14.2259   26.1437 C   0  0  0  0  0  0  0  0  0  0  0  0
    8.6210  -12.9250   26.3186 C   0  0  0  0  0  0  0  0  0  0  0  0
    7.6474  -11.9473   26.4021 C   0  0  0  0  0  0  0  0  0  0  0  0
    6.3009  -12.2386   26.3166 C   0  0  0  0  0  0  0  0  0  0  0  0
    5.8768  -13.5396   26.1419 C   0  0  0  0  0  0  0  0  0  0  0  0
    7.6766  -16.6908   23.8970 C   0  0  0  0  0  0  0  0  0  0  0  0
    8.0628  -17.8599   24.1426 O   0  0  0  0  0  0  0  0  0  0  0  0
   10.4961  -15.3445   21.7123 C   0  0  0  0  0  0  0  0  0  0  0  0
    9.8417  -16.3160   22.6683 C   0  0  2  0  0  0  0  0  0  0  0  0
    8.5691  -15.8727   23.1380 N   0  0  0  0  0  0  0  0  0  0  0  0
   10.7791  -16.5201   23.8115 C   0  0  0  0  0  0  0  0  0  0  0  0
   11.1869  -15.5630   24.5157 O   0  0  0  0  0  0  0  0  0  0  0  0
   12.2932  -19.1528   27.5777 C   0  0  0  0  0  0  0  0  0  0  0  0
   11.4181  -18.9648   26.3478 C   0  0  1  0  0  0  0  0  0  0  0  0
   10.2447  -18.3563   26.8002 O   0  0  0  0  0  0  0  0  0  0  0  0
   12.0532  -18.0520   25.3399 C   0  0  2  0  0  0  0  0  0  0  0  0
   11.2715  -17.8094   24.1782 N   0  0  0  0  0  0  0  0  0  0  0  0
   13.4162  -18.5928   25.0023 C   0  0  0  0  0  0  0  0  0  0  0  0
   14.5403  -18.1997   25.7144 O   0  0  0  0  0  0  0  0  0  0  0  0
   13.5955  -19.4169   24.0690 O   0  0  0  0  0  0  0  0  0  0  0  0
  2  1  1  1
  3  2  1  0
  4  3  1  0
  5  4  2  0
  6  5  1  0
  7  6  2  0
  7  8  1  0
  8  9  2  0
  9  4  1  0
 10  2  1  0
 10 11  2  0
 13 12  1  6
 13 14  1  0
 13 15  1  0
 14 10  1  0
 15 16  2  0
 15 21  1  0
 18 17  1  1
 18 19  1  0
 18 20  1  0
 20 22  1  0
 20 21  1  6
 22 24  2  0
 22 23  1  0
M  END
$$$$
