FAT.pdb
     RDKit          3D

 24 24  0  0  1  0  0  0  0  0999 V2000
    7.6875  -15.0790   20.6494 N   0  0  0  0  0  0  0  0  0  0  0  0
    7.8531  -14.6525   22.0148 C   0  0  1  0  0  0  0  0  0  0  0  0
    6.5356  -14.2609   22.6503 C   0  0  0  0  0  0  0  0  0  0  0  0
    6.8526  -13.8032   24.0455 C   0  0  0  0  0  0  0  0  0  0  0  0
    7.6312  -12.6723   24.2484 C   0  0  0  0  0  0  0  0  0  0  0  0
    7.9307  -12.2394   25.5246 C   0  0  0  0  0  0  0  0  0  0  0  0
    7.4229  -12.9790   26.5763 C   0  0  0  0  0  0  0  0  0  0  0  0
    6.6482  -14.1043   26.3798 C   0  0  0  0  0  0  0  0  0  0  0  0
    6.3508  -14.5342   25.1032 C   0  0  0  0  0  0  0  0  0  0  0  0
    8.4931  -15.7578   22.7726 C   0  0  0  0  0  0  0  0  0  0  0  0
    7.8990  -16.8453   22.9749 O   0  0  0  0  0  0  0  0  0  0  0  0
   11.5904  -17.3328   23.1954 C   0  0  0  0  0  0  0  0  0  0  0  0
   10.4779  -16.7008   24.0009 C   0  0  2  0  0  0  0  0  0  0  0  0
    9.8124  -15.6445   23.3096 N   0  0  0  0  0  0  0  0  0  0  0  0
   11.0752  -16.1986   25.2731 C   0  0  0  0  0  0  0  0  0  0  0  0
   12.0379  -15.3915   25.2823 O   0  0  0  0  0  0  0  0  0  0  0  0
   10.6091  -13.7812   27.7684 C   0  0  0  0  0  0  0  0  0  0  0  0
   10.5061  -15.1048   28.5109 C   0  0  1  0  0  0  0  0  0  0  0  0
    9.1443  -15.4124   28.5613 O   0  0  0  0  0  0  0  0  0  0  0  0
   11.2042  -16.2148   27.7809 C   0  0  2  0  0  0  0  0  0  0  0  0
   10.5945  -16.6000   26.5564 N   0  0  0  0  0  0  0  0  0  0  0  0
   11.3636  -17.3764   28.7240 C   0  0  0  0  0  0  0  0  0  0  0  0
   12.0991  -17.2545   29.8941 O   0  0  0  0  0  0  0  0  0  0  0  0
   10.8426  -18.4984   28.4958 O   0  0  0  0  0  0  0  0  0  0  0  0
  2  1  1  6
  3  2  1  0
  4  3  1  0
  5  4  2  0
  6  5  1  0
  7  6  2  0
  7  8  1  0
  8  9  2  0
  9  4  1  0
 10  2  1  0
 10 11  2  0
 13 12  1  6
 13 14  1  0
 13 15  1  0
 14 10  1  0
 15 16  2  0
 15 21  1  0
 18 17  1  6
 18 19  1  0
 18 20  1  0
 20 22  1  0
 20 21  1  6
 22 24  2  0
 22 23  1  0
M  END
$$$$
