FAT.pdb
     RDKit          3D

 24 24  0  0  1  0  0  0  0  0999 V2000
    8.2926  -15.3360   21.3846 N   0  0  0  0  0  0  0  0  0  0  0  0
    8.1664  -14.6463   22.6424 C   0  0  1  0  0  0  0  0  0  0  0  0
    6.7293  -14.2764   22.9445 C   0  0  0  0  0  0  0  0  0  0  0  0
    6.7676  -13.3236   24.1052 C   0  0  0  0  0  0  0  0  0  0  0  0
    7.4771  -12.1346   24.0083 C   0  0  0  0  0  0  0  0  0  0  0  0
    7.5212  -11.2490   25.0664 C   0  0  0  0  0  0  0  0  0  0  0  0
    6.8324  -11.6012   26.2120 C   0  0  0  0  0  0  0  0  0  0  0  0
    6.1254  -12.7823   26.3133 C   0  0  0  0  0  0  0  0  0  0  0  0
    6.0834  -13.6651   25.2542 C   0  0  0  0  0  0  0  0  0  0  0  0
    8.7185  -15.5201   23.7088 C   0  0  0  0  0  0  0  0  0  0  0  0
    8.5155  -15.2807   24.9245 O   0  0  0  0  0  0  0  0  0  0  0  0
   11.0010  -18.5644   23.8783 C   0  0  0  0  0  0  0  0  0  0  0  0
    9.9643  -17.5956   24.4001 C   0  0  2  0  0  0  0  0  0  0  0  0
    9.5063  -16.6744   23.4110 N   0  0  0  0  0  0  0  0  0  0  0  0
   10.5717  -16.8667   25.5522 C   0  0  0  0  0  0  0  0  0  0  0  0
   11.4398  -15.9731   25.3903 O   0  0  0  0  0  0  0  0  0  0  0  0
   10.4028  -14.6141   29.7361 C   0  0  0  0  0  0  0  0  0  0  0  0
    9.7665  -15.4089   28.6060 C   0  0  1  0  0  0  0  0  0  0  0  0
    9.4505  -14.4790   27.6124 O   0  0  0  0  0  0  0  0  0  0  0  0
   10.7176  -16.4093   28.0171 C   0  0  2  0  0  0  0  0  0  0  0  0
   10.2083  -17.1355   26.9067 N   0  0  0  0  0  0  0  0  0  0  0  0
   11.1923  -17.3182   29.1183 C   0  0  0  0  0  0  0  0  0  0  0  0
   10.9714  -18.6869   29.0639 O   0  0  0  0  0  0  0  0  0  0  0  0
   11.8043  -16.8822   30.1272 O   0  0  0  0  0  0  0  0  0  0  0  0
  2  1  1  6
  3  2  1  0
  4  3  1  0
  5  4  2  0
  6  5  1  0
  7  6  2  0
  7  8  1  0
  8  9  2  0
  9  4  1  0
 10  2  1  0
 10 11  2  0
 13 12  1  6
 13 14  1  0
 13 15  1  0
 14 10  1  0
 15 16  2  0
 15 21  1  0
 18 17  1  1
 18 19  1  0
 18 20  1  0
 20 22  1  0
 20 21  1  6
 22 24  2  0
 22 23  1  0
M  END
$$$$
