LEE.pdb
     RDKit          3D

 27 26  0  0  1  0  0  0  0  0999 V2000
   24.3154  -29.0360   -2.4289 C   0  0  0  0  0  0  0  0  0  0  0  0
   24.1866  -30.4546   -2.9163 C   0  0  1  0  0  0  0  0  0  0  0  0
   24.5237  -30.5257   -4.4098 C   0  0  0  0  0  0  0  0  0  0  0  0
   25.0433  -31.3753   -2.1198 C   0  0  0  0  0  0  0  0  0  0  0  0
   24.9570  -32.8097   -2.5571 C   0  0  2  0  0  0  0  0  0  0  0  0
   23.6008  -33.1887   -2.9072 N   0  0  0  0  0  0  0  0  0  0  0  0
   25.5024  -33.7053   -1.4931 C   0  0  0  0  0  0  0  0  0  0  0  0
   24.9286  -33.6292   -0.3763 O   0  0  0  0  0  0  0  0  0  0  0  0
   26.5771  -34.5948   -1.6559 N   0  0  0  0  0  0  0  0  0  0  0  0
   27.0463  -35.4349   -0.5640 C   0  0  1  0  0  0  0  0  0  0  0  0
   27.8435  -36.5889   -1.0480 C   0  0  0  0  0  0  0  0  0  0  0  0
   28.3330  -37.4711    0.0623 C   0  0  0  0  0  0  0  0  0  0  0  0
   27.8889  -38.8965   -0.1720 C   0  0  0  0  0  0  0  0  0  0  0  0
   27.7835  -39.3711   -1.3213 O   0  0  0  0  0  0  0  0  0  0  0  0
   27.8857  -34.5815    0.3271 C   0  0  0  0  0  0  0  0  0  0  0  0
   28.7566  -33.7864   -0.1039 O   0  0  0  0  0  0  0  0  0  0  0  0
   27.5977  -39.6782    0.9147 O   0  0  0  0  0  0  0  0  0  0  0  0
   27.7332  -34.6297    1.7516 N   0  0  0  0  0  0  0  0  0  0  0  0
   28.5873  -33.7582    2.5673 C   0  0  1  0  0  0  0  0  0  0  0  0
   27.8221  -33.2797    3.7843 C   0  0  0  0  0  0  0  0  0  0  0  0
   28.6057  -32.3579    4.6564 C   0  0  0  0  0  0  0  0  0  0  0  0
   27.7253  -32.0108    5.8338 C   0  0  0  0  0  0  0  0  0  0  0  0
   26.6617  -32.6064    6.0742 O   0  0  0  0  0  0  0  0  0  0  0  0
   29.8198  -34.4848    2.8694 C   0  0  0  0  0  0  0  0  0  0  0  0
   29.8032  -35.7321    2.9840 O   0  0  0  0  0  0  0  0  0  0  0  0
   28.1213  -30.9869    6.6784 O   0  0  0  0  0  0  0  0  0  0  0  0
   31.0053  -33.8141    3.0295 O   0  0  0  0  0  0  0  0  0  0  0  0
  2  1  1  1
  2  3  1  0
  4  2  1  0
  4  5  1  0
  5  7  1  0
  5  6  1  1
  7  8  2  0
  9 10  1  0
  9  7  1  0
 11 12  1  0
 10 11  1  6
 12 13  1  0
 13 17  1  0
 13 14  2  0
 15 16  2  0
 15 10  1  0
 18 15  1  0
 19 24  1  0
 19 18  1  0
 19 20  1  1
 21 22  1  0
 21 20  1  0
 22 23  2  0
 24 27  1  0
 25 24  2  0
 26 22  1  0
M  END
$$$$
