LEE.pdb
     RDKit          3D

 27 26  0  0  1  0  0  0  0  0999 V2000
   27.6766  -13.1143  -15.9155 C   0  0  0  0  0  0  0  0  0  0  0  0
   26.2789  -13.6516  -16.0715 C   0  0  1  0  0  0  0  0  0  0  0  0
   25.9263  -14.5432  -14.8757 C   0  0  0  0  0  0  0  0  0  0  0  0
   25.2948  -12.5469  -16.2364 C   0  0  0  0  0  0  0  0  0  0  0  0
   23.8799  -13.0200  -16.4110 C   0  0  2  0  0  0  0  0  0  0  0  0
   23.7436  -13.9137  -17.5459 N   0  0  0  0  0  0  0  0  0  0  0  0
   22.9590  -11.8508  -16.5400 C   0  0  0  0  0  0  0  0  0  0  0  0
   22.9448  -11.2963  -17.6690 O   0  0  0  0  0  0  0  0  0  0  0  0
   22.1378  -11.3501  -15.5165 N   0  0  0  0  0  0  0  0  0  0  0  0
   21.1736  -10.2878  -15.7609 C   0  0  1  0  0  0  0  0  0  0  0  0
   19.8692  -10.5539  -15.1059 C   0  0  0  0  0  0  0  0  0  0  0  0
   19.0332  -11.5548  -15.8475 C   0  0  0  0  0  0  0  0  0  0  0  0
   17.7192  -11.7671  -15.1317 C   0  0  0  0  0  0  0  0  0  0  0  0
   17.6137  -12.5606  -14.1743 O   0  0  0  0  0  0  0  0  0  0  0  0
   21.7571   -9.0230  -15.2252 C   0  0  0  0  0  0  0  0  0  0  0  0
   22.4732   -8.9791  -14.1948 O   0  0  0  0  0  0  0  0  0  0  0  0
   16.6225  -11.0634  -15.5544 O   0  0  0  0  0  0  0  0  0  0  0  0
   21.5228   -7.7685  -15.8779 N   0  0  0  0  0  0  0  0  0  0  0  0
   22.0826   -6.5571  -15.2667 C   0  0  1  0  0  0  0  0  0  0  0  0
   22.1060   -5.4320  -16.2811 C   0  0  0  0  0  0  0  0  0  0  0  0
   22.6948   -4.1669  -15.7544 C   0  0  0  0  0  0  0  0  0  0  0  0
   22.6675   -3.1646  -16.8842 C   0  0  0  0  0  0  0  0  0  0  0  0
   22.3022   -3.4605  -18.0343 O   0  0  0  0  0  0  0  0  0  0  0  0
   21.3203   -6.2675  -14.0530 C   0  0  0  0  0  0  0  0  0  0  0  0
   20.1178   -6.6082  -13.9686 O   0  0  0  0  0  0  0  0  0  0  0  0
   23.0661   -1.8635  -16.6257 O   0  0  0  0  0  0  0  0  0  0  0  0
   21.9086   -5.6229  -12.9951 O   0  0  0  0  0  0  0  0  0  0  0  0
  2  1  1  1
  2  3  1  0
  4  2  1  0
  4  5  1  0
  5  7  1  0
  5  6  1  6
  7  8  2  0
  9 10  1  0
  9  7  1  0
 11 12  1  0
 10 11  1  1
 12 13  1  0
 13 17  1  0
 13 14  2  0
 15 16  2  0
 15 10  1  0
 18 15  1  0
 19 24  1  0
 19 18  1  0
 19 20  1  6
 21 22  1  0
 21 20  1  0
 22 23  2  0
 24 27  1  0
 25 24  2  0
 26 22  1  0
M  END
$$$$
