LEE.pdb
     RDKit          3D

 27 26  0  0  1  0  0  0  0  0999 V2000
   29.6669  -19.9134  -11.5286 C   0  0  0  0  0  0  0  0  0  0  0  0
   28.4764  -20.8325  -11.5953 C   0  0  1  0  0  0  0  0  0  0  0  0
   28.7858  -22.1413  -10.8601 C   0  0  0  0  0  0  0  0  0  0  0  0
   27.2591  -20.1741  -11.0468 C   0  0  0  0  0  0  0  0  0  0  0  0
   25.9983  -20.9619  -11.2612 C   0  0  2  0  0  0  0  0  0  0  0  0
   26.2750  -22.3419  -11.6138 N   0  0  0  0  0  0  0  0  0  0  0  0
   25.1526  -20.3053  -12.3031 C   0  0  0  0  0  0  0  0  0  0  0  0
   24.6799  -19.1832  -11.9869 O   0  0  0  0  0  0  0  0  0  0  0  0
   24.8627  -20.8431  -13.5677 N   0  0  0  0  0  0  0  0  0  0  0  0
   24.0552  -20.1201  -14.5390 C   0  0  1  0  0  0  0  0  0  0  0  0
   24.5899  -20.2471  -15.9172 C   0  0  0  0  0  0  0  0  0  0  0  0
   23.7961  -19.4738  -16.9284 C   0  0  0  0  0  0  0  0  0  0  0  0
   24.3630  -19.6927  -18.3122 C   0  0  0  0  0  0  0  0  0  0  0  0
   24.5739  -18.7427  -19.0934 O   0  0  0  0  0  0  0  0  0  0  0  0
   22.6749  -20.6845  -14.4807 C   0  0  0  0  0  0  0  0  0  0  0  0
   22.4294  -21.8650  -14.1309 O   0  0  0  0  0  0  0  0  0  0  0  0
   24.6491  -20.9729  -18.7071 O   0  0  0  0  0  0  0  0  0  0  0  0
   21.5366  -19.8858  -14.8288 N   0  0  0  0  0  0  0  0  0  0  0  0
   20.2073  -20.5014  -14.7372 C   0  0  1  0  0  0  0  0  0  0  0  0
   19.3935  -19.8122  -13.6610 C   0  0  0  0  0  0  0  0  0  0  0  0
   18.1410  -19.1836  -14.1716 C   0  0  0  0  0  0  0  0  0  0  0  0
   17.0454  -19.5230  -13.1886 C   0  0  0  0  0  0  0  0  0  0  0  0
   17.1578  -19.3297  -11.9665 O   0  0  0  0  0  0  0  0  0  0  0  0
   19.6028  -20.4759  -16.0683 C   0  0  0  0  0  0  0  0  0  0  0  0
   20.0406  -19.6940  -16.9437 O   0  0  0  0  0  0  0  0  0  0  0  0
   15.8687  -20.0718  -13.6712 O   0  0  0  0  0  0  0  0  0  0  0  0
   18.5540  -21.3045  -16.3758 O   0  0  0  0  0  0  0  0  0  0  0  0
  2  1  1  1
  2  3  1  0
  4  2  1  0
  4  5  1  0
  5  7  1  0
  5  6  1  6
  7  8  2  0
  9 10  1  0
  9  7  1  0
 11 12  1  0
 10 11  1  6
 12 13  1  0
 13 17  1  0
 13 14  2  0
 15 16  2  0
 15 10  1  0
 18 15  1  0
 19 24  1  0
 19 18  1  0
 19 20  1  1
 21 22  1  0
 21 20  1  0
 22 23  2  0
 24 27  1  0
 25 24  2  0
 26 22  1  0
M  END
$$$$
