LEE.pdb
     RDKit          3D

 27 26  0  0  1  0  0  0  0  0999 V2000
   17.6941  -15.1679  -15.0800 C   0  0  0  0  0  0  0  0  0  0  0  0
   17.6564  -13.8482  -15.8036 C   0  0  1  0  0  0  0  0  0  0  0  0
   16.2361  -13.2733  -15.7664 C   0  0  0  0  0  0  0  0  0  0  0  0
   18.6457  -12.8943  -15.2316 C   0  0  0  0  0  0  0  0  0  0  0  0
   18.6603  -11.5572  -15.9159 C   0  0  2  0  0  0  0  0  0  0  0  0
   18.7907  -11.6866  -17.3551 N   0  0  0  0  0  0  0  0  0  0  0  0
   19.7525  -10.7052  -15.3565 C   0  0  0  0  0  0  0  0  0  0  0  0
   19.7180  -10.5313  -14.1112 O   0  0  0  0  0  0  0  0  0  0  0  0
   20.7784  -10.1079  -16.1071 N   0  0  0  0  0  0  0  0  0  0  0  0
   21.8094   -9.2939  -15.4805 C   0  0  1  0  0  0  0  0  0  0  0  0
   23.1632   -9.6072  -16.0004 C   0  0  0  0  0  0  0  0  0  0  0  0
   23.7444  -10.8575  -15.4089 C   0  0  0  0  0  0  0  0  0  0  0  0
   25.1184  -11.1144  -15.9833 C   0  0  0  0  0  0  0  0  0  0  0  0
   25.5805  -10.4242  -16.9147 O   0  0  0  0  0  0  0  0  0  0  0  0
   21.4813   -7.8650  -15.7596 C   0  0  0  0  0  0  0  0  0  0  0  0
   20.9171   -7.4828  -16.8141 O   0  0  0  0  0  0  0  0  0  0  0  0
   25.8668  -12.1348  -15.4585 O   0  0  0  0  0  0  0  0  0  0  0  0
   21.8016   -6.8367  -14.8137 N   0  0  0  0  0  0  0  0  0  0  0  0
   21.3216   -5.4763  -15.0839 C   0  0  1  0  0  0  0  0  0  0  0  0
   19.8147   -5.4834  -15.2413 C   0  0  0  0  0  0  0  0  0  0  0  0
   19.2266   -4.1231  -15.4088 C   0  0  0  0  0  0  0  0  0  0  0  0
   17.7290   -4.2988  -15.4989 C   0  0  0  0  0  0  0  0  0  0  0  0
   17.1797   -5.4115  -15.4385 O   0  0  0  0  0  0  0  0  0  0  0  0
   21.8193   -4.6007  -14.0238 C   0  0  0  0  0  0  0  0  0  0  0  0
   22.3637   -5.0898  -13.0071 O   0  0  0  0  0  0  0  0  0  0  0  0
   16.9378   -3.1726  -15.6552 O   0  0  0  0  0  0  0  0  0  0  0  0
   21.6987   -3.2385  -14.1280 O   0  0  0  0  0  0  0  0  0  0  0  0
  2  1  1  1
  2  3  1  0
  4  2  1  0
  4  5  1  0
  5  7  1  0
  5  6  1  6
  7  8  2  0
  9 10  1  0
  9  7  1  0
 11 12  1  0
 10 11  1  6
 12 13  1  0
 13 17  1  0
 13 14  2  0
 15 16  2  0
 15 10  1  0
 18 15  1  0
 19 24  1  0
 19 18  1  0
 19 20  1  1
 21 22  1  0
 21 20  1  0
 22 23  2  0
 24 27  1  0
 25 24  2  0
 26 22  1  0
M  END
$$$$
