LEE.pdb
     RDKit          3D

 27 26  0  0  1  0  0  0  0  0999 V2000
   15.3888  -10.9677  -17.3387 C   0  0  0  0  0  0  0  0  0  0  0  0
   16.6976  -11.7117  -17.3285 C   0  0  1  0  0  0  0  0  0  0  0  0
   17.0656  -12.1396  -18.7535 C   0  0  0  0  0  0  0  0  0  0  0  0
   17.7756  -10.8922  -16.7100 C   0  0  0  0  0  0  0  0  0  0  0  0
   19.1066  -11.5865  -16.6571 C   0  0  2  0  0  0  0  0  0  0  0  0
   19.0812  -12.7402  -15.7775 N   0  0  0  0  0  0  0  0  0  0  0  0
   20.1722  -10.6247  -16.2436 C   0  0  0  0  0  0  0  0  0  0  0  0
   20.1624  -10.2969  -15.0291 O   0  0  0  0  0  0  0  0  0  0  0  0
   21.1489  -10.0831  -17.0951 N   0  0  0  0  0  0  0  0  0  0  0  0
   22.1588   -9.1554  -16.6076 C   0  0  1  0  0  0  0  0  0  0  0  0
   23.3512   -9.1116  -17.4894 C   0  0  0  0  0  0  0  0  0  0  0  0
   24.4342   -8.2139  -16.9679 C   0  0  0  0  0  0  0  0  0  0  0  0
   25.5822   -8.1598  -17.9494 C   0  0  0  0  0  0  0  0  0  0  0  0
   25.9501   -9.1682  -18.5859 O   0  0  0  0  0  0  0  0  0  0  0  0
   21.5299   -7.8036  -16.5440 C   0  0  0  0  0  0  0  0  0  0  0  0
   20.7734   -7.3547  -17.4399 O   0  0  0  0  0  0  0  0  0  0  0  0
   26.2275   -6.9660  -18.1366 O   0  0  0  0  0  0  0  0  0  0  0  0
   21.7646   -6.9329  -15.4296 N   0  0  0  0  0  0  0  0  0  0  0  0
   21.0526   -5.6500  -15.3939 C   0  0  1  0  0  0  0  0  0  0  0  0
   19.5601   -5.8916  -15.2962 C   0  0  0  0  0  0  0  0  0  0  0  0
   18.7685   -4.6481  -15.0695 C   0  0  0  0  0  0  0  0  0  0  0  0
   17.3211   -5.0631  -14.9488 C   0  0  0  0  0  0  0  0  0  0  0  0
   16.9664   -6.2530  -14.9035 O   0  0  0  0  0  0  0  0  0  0  0  0
   21.6128   -4.8503  -14.3054 C   0  0  0  0  0  0  0  0  0  0  0  0
   22.1369   -5.4127  -13.3164 O   0  0  0  0  0  0  0  0  0  0  0  0
   16.3516   -4.0759  -14.8862 O   0  0  0  0  0  0  0  0  0  0  0  0
   21.5734   -3.4802  -14.3526 O   0  0  0  0  0  0  0  0  0  0  0  0
  2  1  1  6
  2  3  1  0
  4  2  1  0
  4  5  1  0
  5  7  1  0
  5  6  1  1
  7  8  2  0
  9 10  1  0
  9  7  1  0
 11 12  1  0
 10 11  1  6
 12 13  1  0
 13 17  1  0
 13 14  2  0
 15 16  2  0
 15 10  1  0
 18 15  1  0
 19 24  1  0
 19 18  1  0
 19 20  1  1
 21 22  1  0
 21 20  1  0
 22 23  2  0
 24 27  1  0
 25 24  2  0
 26 22  1  0
M  END
$$$$
