LEE.pdb
     RDKit          3D

 27 26  0  0  1  0  0  0  0  0999 V2000
   11.8599   -9.0842   -8.4212 C   0  0  0  0  0  0  0  0  0  0  0  0
   11.8337   -9.9904   -9.6232 C   0  0  1  0  0  0  0  0  0  0  0  0
   10.9216   -9.3981  -10.7032 C   0  0  0  0  0  0  0  0  0  0  0  0
   13.2076  -10.2323  -10.1427 C   0  0  0  0  0  0  0  0  0  0  0  0
   13.2426  -11.0672  -11.3908 C   0  0  2  0  0  0  0  0  0  0  0  0
   12.9676  -12.4650  -11.1155 N   0  0  0  0  0  0  0  0  0  0  0  0
   14.5593  -10.9088  -12.0786 C   0  0  0  0  0  0  0  0  0  0  0  0
   15.5125  -11.5585  -11.5768 O   0  0  0  0  0  0  0  0  0  0  0  0
   14.7911  -10.1087  -13.2094 N   0  0  0  0  0  0  0  0  0  0  0  0
   16.0792  -10.0973  -13.8867 C   0  0  1  0  0  0  0  0  0  0  0  0
   15.9742  -10.5457  -15.2972 C   0  0  0  0  0  0  0  0  0  0  0  0
   15.7663  -12.0256  -15.4287 C   0  0  0  0  0  0  0  0  0  0  0  0
   17.0905  -12.7475  -15.3310 C   0  0  0  0  0  0  0  0  0  0  0  0
   18.1250  -12.2968  -15.8639 O   0  0  0  0  0  0  0  0  0  0  0  0
   16.5957   -8.6979  -13.8405 C   0  0  0  0  0  0  0  0  0  0  0  0
   15.8545   -7.6968  -13.6836 O   0  0  0  0  0  0  0  0  0  0  0  0
   17.1432  -13.9266  -14.6357 O   0  0  0  0  0  0  0  0  0  0  0  0
   17.9963   -8.4242  -13.9755 N   0  0  0  0  0  0  0  0  0  0  0  0
   18.4405   -7.0294  -13.8687 C   0  0  1  0  0  0  0  0  0  0  0  0
   19.9183   -6.9832  -13.5379 C   0  0  0  0  0  0  0  0  0  0  0  0
   20.4644   -5.5988  -13.4409 C   0  0  0  0  0  0  0  0  0  0  0  0
   21.9383   -5.7271  -13.1357 C   0  0  0  0  0  0  0  0  0  0  0  0
   22.6946   -4.7445  -13.0569 O   0  0  0  0  0  0  0  0  0  0  0  0
   18.0709   -6.3396  -15.1039 C   0  0  0  0  0  0  0  0  0  0  0  0
   17.9922   -6.9753  -16.1805 O   0  0  0  0  0  0  0  0  0  0  0  0
   22.4660   -6.9920  -12.9360 O   0  0  0  0  0  0  0  0  0  0  0  0
   17.8054   -4.9941  -15.1007 O   0  0  0  0  0  0  0  0  0  0  0  0
  2  1  1  1
  2  3  1  0
  4  2  1  0
  4  5  1  0
  5  7  1  0
  5  6  1  1
  7  8  2  0
  9 10  1  0
  9  7  1  0
 11 12  1  0
 10 11  1  6
 12 13  1  0
 13 17  1  0
 13 14  2  0
 15 16  2  0
 15 10  1  0
 18 15  1  0
 19 24  1  0
 19 18  1  0
 19 20  1  6
 21 22  1  0
 21 20  1  0
 22 23  2  0
 24 27  1  0
 25 24  2  0
 26 22  1  0
M  END
$$$$
