LEE.pdb
     RDKit          3D

 27 26  0  0  1  0  0  0  0  0999 V2000
   16.0540  -16.4650  -17.2488 C   0  0  0  0  0  0  0  0  0  0  0  0
   16.5936  -15.7402  -16.0446 C   0  0  1  0  0  0  0  0  0  0  0  0
   17.5389  -16.6592  -15.2628 C   0  0  0  0  0  0  0  0  0  0  0  0
   17.2679  -14.4730  -16.4388 C   0  0  0  0  0  0  0  0  0  0  0  0
   17.3919  -13.4812  -15.3175 C   0  0  2  0  0  0  0  0  0  0  0  0
   16.4226  -13.7278  -14.2664 N   0  0  0  0  0  0  0  0  0  0  0  0
   17.2629  -12.0896  -15.8453 C   0  0  0  0  0  0  0  0  0  0  0  0
   17.9591  -11.8301  -16.8603 O   0  0  0  0  0  0  0  0  0  0  0  0
   16.4426  -11.0891  -15.2987 N   0  0  0  0  0  0  0  0  0  0  0  0
   16.3599   -9.7614  -15.8889 C   0  0  1  0  0  0  0  0  0  0  0  0
   14.9567   -9.3087  -16.0550 C   0  0  0  0  0  0  0  0  0  0  0  0
   14.2011  -10.1029  -17.0792 C   0  0  0  0  0  0  0  0  0  0  0  0
   14.5579   -9.6309  -18.4699 C   0  0  0  0  0  0  0  0  0  0  0  0
   14.9383   -8.4629  -18.6896 O   0  0  0  0  0  0  0  0  0  0  0  0
   17.0873   -8.8242  -14.9835 C   0  0  0  0  0  0  0  0  0  0  0  0
   16.9444   -8.8241  -13.7361 O   0  0  0  0  0  0  0  0  0  0  0  0
   14.4571  -10.5188  -19.5082 O   0  0  0  0  0  0  0  0  0  0  0  0
   18.0064   -7.8571  -15.5078 N   0  0  0  0  0  0  0  0  0  0  0  0
   18.6903   -6.9698  -14.5595 C   0  0  1  0  0  0  0  0  0  0  0  0
   20.1762   -6.9472  -14.8549 C   0  0  0  0  0  0  0  0  0  0  0  0
   20.8599   -8.2419  -14.5709 C   0  0  0  0  0  0  0  0  0  0  0  0
   22.3182   -8.0553  -14.9180 C   0  0  0  0  0  0  0  0  0  0  0  0
   23.1917   -8.8839  -14.6116 O   0  0  0  0  0  0  0  0  0  0  0  0
   18.0389   -5.6617  -14.6116 C   0  0  0  0  0  0  0  0  0  0  0  0
   17.2609   -5.3829  -15.5530 O   0  0  0  0  0  0  0  0  0  0  0  0
   22.6948   -6.9134  -15.6058 O   0  0  0  0  0  0  0  0  0  0  0  0
   18.2686   -4.7269  -13.6347 O   0  0  0  0  0  0  0  0  0  0  0  0
  2  1  1  6
  2  3  1  0
  4  2  1  0
  4  5  1  0
  5  7  1  0
  5  6  1  1
  7  8  2  0
  9 10  1  0
  9  7  1  0
 11 12  1  0
 10 11  1  1
 12 13  1  0
 13 17  1  0
 13 14  2  0
 15 16  2  0
 15 10  1  0
 18 15  1  0
 19 24  1  0
 19 18  1  0
 19 20  1  6
 21 22  1  0
 21 20  1  0
 22 23  2  0
 24 27  1  0
 25 24  2  0
 26 22  1  0
M  END
$$$$
