LEE.pdb
     RDKit          3D

 27 26  0  0  1  0  0  0  0  0999 V2000
   25.0348  -14.5273  -15.7609 C   0  0  0  0  0  0  0  0  0  0  0  0
   23.5377  -14.4014  -15.8574 C   0  0  1  0  0  0  0  0  0  0  0  0
   22.8953  -14.7746  -14.5167 C   0  0  0  0  0  0  0  0  0  0  0  0
   23.1412  -13.0332  -16.2896 C   0  0  0  0  0  0  0  0  0  0  0  0
   21.6565  -12.8053  -16.2847 C   0  0  2  0  0  0  0  0  0  0  0  0
   20.9787  -13.6287  -17.2686 N   0  0  0  0  0  0  0  0  0  0  0  0
   21.3577  -11.3582  -16.5045 C   0  0  0  0  0  0  0  0  0  0  0  0
   21.6816  -10.9049  -17.6323 O   0  0  0  0  0  0  0  0  0  0  0  0
   20.7595  -10.5031  -15.5645 N   0  0  0  0  0  0  0  0  0  0  0  0
   20.3280   -9.1593  -15.9194 C   0  0  1  0  0  0  0  0  0  0  0  0
   18.9342   -8.8869  -15.4899 C   0  0  0  0  0  0  0  0  0  0  0  0
   18.4744   -7.5007  -15.8333 C   0  0  0  0  0  0  0  0  0  0  0  0
   17.0388   -7.3075  -15.4022 C   0  0  0  0  0  0  0  0  0  0  0  0
   16.5216   -6.1741  -15.3304 O   0  0  0  0  0  0  0  0  0  0  0  0
   21.2569   -8.2010  -15.2515 C   0  0  0  0  0  0  0  0  0  0  0  0
   21.7071   -8.3751  -14.0925 O   0  0  0  0  0  0  0  0  0  0  0  0
   16.2962   -8.4141  -15.0850 O   0  0  0  0  0  0  0  0  0  0  0  0
   21.6901   -7.0082  -15.9180 N   0  0  0  0  0  0  0  0  0  0  0  0
   22.6461   -6.1376  -15.2235 C   0  0  1  0  0  0  0  0  0  0  0  0
   23.5068   -5.4077  -16.2344 C   0  0  0  0  0  0  0  0  0  0  0  0
   24.5146   -4.5000  -15.6142 C   0  0  0  0  0  0  0  0  0  0  0  0
   25.3583   -3.9453  -16.7377 C   0  0  0  0  0  0  0  0  0  0  0  0
   25.0245   -2.9463  -17.3966 O   0  0  0  0  0  0  0  0  0  0  0  0
   21.8941   -5.2664  -14.3216 C   0  0  0  0  0  0  0  0  0  0  0  0
   20.7292   -4.9114  -14.6152 O   0  0  0  0  0  0  0  0  0  0  0  0
   26.5520   -4.5776  -17.0444 O   0  0  0  0  0  0  0  0  0  0  0  0
   22.4505   -4.8288  -13.1469 O   0  0  0  0  0  0  0  0  0  0  0  0
  2  1  1  1
  2  3  1  0
  4  2  1  0
  4  5  1  0
  5  7  1  0
  5  6  1  6
  7  8  2  0
  9 10  1  0
  9  7  1  0
 11 12  1  0
 10 11  1  1
 12 13  1  0
 13 17  1  0
 13 14  2  0
 15 16  2  0
 15 10  1  0
 18 15  1  0
 19 24  1  0
 19 18  1  0
 19 20  1  6
 21 22  1  0
 21 20  1  0
 22 23  2  0
 24 27  1  0
 25 24  2  0
 26 22  1  0
M  END
$$$$
