LEE.pdb
     RDKit          3D

 27 26  0  0  1  0  0  0  0  0999 V2000
   27.7722  -18.5942   -6.5188 C   0  0  0  0  0  0  0  0  0  0  0  0
   27.6143  -19.8558   -7.3249 C   0  0  1  0  0  0  0  0  0  0  0  0
   26.8701  -20.9120   -6.5004 C   0  0  0  0  0  0  0  0  0  0  0  0
   26.9229  -19.5851   -8.6151 C   0  0  0  0  0  0  0  0  0  0  0  0
   26.8060  -20.7916   -9.5021 C   0  0  2  0  0  0  0  0  0  0  0  0
   28.1048  -21.2804   -9.9258 N   0  0  0  0  0  0  0  0  0  0  0  0
   25.9431  -20.4813  -10.6814 C   0  0  0  0  0  0  0  0  0  0  0  0
   26.3827  -19.5904  -11.4530 O   0  0  0  0  0  0  0  0  0  0  0  0
   24.7159  -21.0995  -10.9718 N   0  0  0  0  0  0  0  0  0  0  0  0
   24.0237  -20.8705  -12.2313 C   0  0  1  0  0  0  0  0  0  0  0  0
   24.0899  -22.0498  -13.1292 C   0  0  0  0  0  0  0  0  0  0  0  0
   25.4605  -22.2818  -13.6936 C   0  0  0  0  0  0  0  0  0  0  0  0
   25.4425  -23.4658  -14.6326 C   0  0  0  0  0  0  0  0  0  0  0  0
   25.4438  -23.3211  -15.8721 O   0  0  0  0  0  0  0  0  0  0  0  0
   22.5995  -20.5628  -11.9087 C   0  0  0  0  0  0  0  0  0  0  0  0
   22.0265  -20.9721  -10.8693 O   0  0  0  0  0  0  0  0  0  0  0  0
   25.4250  -24.7262  -14.0961 O   0  0  0  0  0  0  0  0  0  0  0  0
   21.7993  -19.7655  -12.7912 N   0  0  0  0  0  0  0  0  0  0  0  0
   20.3916  -19.5462  -12.4381 C   0  0  1  0  0  0  0  0  0  0  0  0
   19.7936  -18.4854  -13.3395 C   0  0  0  0  0  0  0  0  0  0  0  0
   20.0623  -17.0922  -12.8798 C   0  0  0  0  0  0  0  0  0  0  0  0
   19.4175  -16.1653  -13.8832 C   0  0  0  0  0  0  0  0  0  0  0  0
   18.2823  -15.6870  -13.7212 O   0  0  0  0  0  0  0  0  0  0  0  0
   19.7070  -20.8376  -12.4798 C   0  0  0  0  0  0  0  0  0  0  0  0
   20.0836  -21.7242  -13.2806 O   0  0  0  0  0  0  0  0  0  0  0  0
   20.1218  -15.8364  -15.0297 O   0  0  0  0  0  0  0  0  0  0  0  0
   18.6491  -21.0952  -11.6459 O   0  0  0  0  0  0  0  0  0  0  0  0
  2  1  1  1
  2  3  1  0
  4  2  1  0
  4  5  1  0
  5  7  1  0
  5  6  1  6
  7  8  2  0
  9 10  1  0
  9  7  1  0
 11 12  1  0
 10 11  1  6
 12 13  1  0
 13 17  1  0
 13 14  2  0
 15 16  2  0
 15 10  1  0
 18 15  1  0
 19 24  1  0
 19 18  1  0
 19 20  1  6
 21 22  1  0
 21 20  1  0
 22 23  2  0
 24 27  1  0
 25 24  2  0
 26 22  1  0
M  END
$$$$
