LEE.pdb
     RDKit          3D

 27 26  0  0  1  0  0  0  0  0999 V2000
   26.1614  -14.3397  -19.0195 C   0  0  0  0  0  0  0  0  0  0  0  0
   25.9140  -14.7262  -17.5857 C   0  0  1  0  0  0  0  0  0  0  0  0
   25.2808  -13.5522  -16.8307 C   0  0  0  0  0  0  0  0  0  0  0  0
   25.0701  -15.9493  -17.4977 C   0  0  0  0  0  0  0  0  0  0  0  0
   25.8514  -17.2037  -17.2291 C   0  0  2  0  0  0  0  0  0  0  0  0
   26.7565  -17.5218  -18.3176 N   0  0  0  0  0  0  0  0  0  0  0  0
   24.9212  -18.3413  -16.9601 C   0  0  0  0  0  0  0  0  0  0  0  0
   24.2233  -18.7115  -17.9391 O   0  0  0  0  0  0  0  0  0  0  0  0
   24.7820  -18.9993  -15.7272 N   0  0  0  0  0  0  0  0  0  0  0  0
   23.9182  -20.1605  -15.5736 C   0  0  1  0  0  0  0  0  0  0  0  0
   24.5448  -21.2188  -14.7437 C   0  0  0  0  0  0  0  0  0  0  0  0
   23.6533  -22.4076  -14.5369 C   0  0  0  0  0  0  0  0  0  0  0  0
   24.3499  -23.4365  -13.6766 C   0  0  0  0  0  0  0  0  0  0  0  0
   25.4788  -23.2277  -13.1873 O   0  0  0  0  0  0  0  0  0  0  0  0
   22.6558  -19.6957  -14.9276 C   0  0  0  0  0  0  0  0  0  0  0  0
   22.6345  -18.9314  -13.9318 O   0  0  0  0  0  0  0  0  0  0  0  0
   23.7143  -24.6256  -13.4346 O   0  0  0  0  0  0  0  0  0  0  0  0
   21.3770  -20.1091  -15.4262 N   0  0  0  0  0  0  0  0  0  0  0  0
   20.1761  -19.5958  -14.7564 C   0  0  1  0  0  0  0  0  0  0  0  0
   19.3941  -18.7122  -15.7067 C   0  0  0  0  0  0  0  0  0  0  0  0
   18.1209  -18.1943  -15.1277 C   0  0  0  0  0  0  0  0  0  0  0  0
   17.4371  -17.3949  -16.2118 C   0  0  0  0  0  0  0  0  0  0  0  0
   17.1640  -17.8724  -17.3258 O   0  0  0  0  0  0  0  0  0  0  0  0
   19.4278  -20.7363  -14.2298 C   0  0  0  0  0  0  0  0  0  0  0  0
   19.5942  -21.8779  -14.7179 O   0  0  0  0  0  0  0  0  0  0  0  0
   17.1017  -16.0764  -15.9515 O   0  0  0  0  0  0  0  0  0  0  0  0
   18.5386  -20.5730  -13.1985 O   0  0  0  0  0  0  0  0  0  0  0  0
  2  1  1  6
  2  3  1  0
  4  2  1  0
  4  5  1  0
  5  7  1  0
  5  6  1  6
  7  8  2  0
  9 10  1  0
  9  7  1  0
 11 12  1  0
 10 11  1  1
 12 13  1  0
 13 17  1  0
 13 14  2  0
 15 16  2  0
 15 10  1  0
 18 15  1  0
 19 24  1  0
 19 18  1  0
 19 20  1  6
 21 22  1  0
 21 20  1  0
 22 23  2  0
 24 27  1  0
 25 24  2  0
 26 22  1  0
M  END
$$$$
