LEE.pdb
     RDKit          3D

 27 26  0  0  1  0  0  0  0  0999 V2000
   24.1496  -31.5765   -7.9636 C   0  0  0  0  0  0  0  0  0  0  0  0
   25.2729  -32.5515   -8.1962 C   0  0  1  0  0  0  0  0  0  0  0  0
   26.5196  -31.8045   -8.6831 C   0  0  0  0  0  0  0  0  0  0  0  0
   25.5575  -33.3446   -6.9690 C   0  0  0  0  0  0  0  0  0  0  0  0
   26.7518  -34.2467   -7.0968 C   0  0  2  0  0  0  0  0  0  0  0  0
   26.5806  -35.2257   -8.1539 N   0  0  0  0  0  0  0  0  0  0  0  0
   27.0326  -34.9161   -5.7911 C   0  0  0  0  0  0  0  0  0  0  0  0
   26.1735  -35.7564   -5.4191 O   0  0  0  0  0  0  0  0  0  0  0  0
   28.1551  -34.6746   -4.9822 N   0  0  0  0  0  0  0  0  0  0  0  0
   28.3963  -35.4324   -3.7634 C   0  0  1  0  0  0  0  0  0  0  0  0
   29.8415  -35.5317   -3.4425 C   0  0  0  0  0  0  0  0  0  0  0  0
   30.5437  -36.6035   -4.2228 C   0  0  0  0  0  0  0  0  0  0  0  0
   30.6144  -37.8762   -3.4108 C   0  0  0  0  0  0  0  0  0  0  0  0
   30.9724  -37.8734   -2.2153 O   0  0  0  0  0  0  0  0  0  0  0  0
   27.6813  -34.7346   -2.6548 C   0  0  0  0  0  0  0  0  0  0  0  0
   27.5952  -33.4848   -2.5720 O   0  0  0  0  0  0  0  0  0  0  0  0
   30.2732  -39.0576   -4.0147 O   0  0  0  0  0  0  0  0  0  0  0  0
   27.0430  -35.4762   -1.6072 N   0  0  0  0  0  0  0  0  0  0  0  0
   26.3085  -34.7278   -0.5803 C   0  0  1  0  0  0  0  0  0  0  0  0
   24.8959  -35.2631   -0.4643 C   0  0  0  0  0  0  0  0  0  0  0  0
   24.0965  -34.6073    0.6106 C   0  0  0  0  0  0  0  0  0  0  0  0
   22.7608  -35.3113    0.6578 C   0  0  0  0  0  0  0  0  0  0  0  0
   21.6802  -34.6984    0.6731 O   0  0  0  0  0  0  0  0  0  0  0  0
   27.0829  -34.7785    0.6590 C   0  0  0  0  0  0  0  0  0  0  0  0
   28.0113  -35.6097    0.7876 O   0  0  0  0  0  0  0  0  0  0  0  0
   22.7420  -36.6960    0.6853 O   0  0  0  0  0  0  0  0  0  0  0  0
   26.8058  -33.9203    1.6922 O   0  0  0  0  0  0  0  0  0  0  0  0
  2  1  1  1
  2  3  1  0
  4  2  1  0
  4  5  1  0
  5  7  1  0
  5  6  1  6
  7  8  2  0
  9 10  1  0
  9  7  1  0
 11 12  1  0
 10 11  1  1
 12 13  1  0
 13 17  1  0
 13 14  2  0
 15 16  2  0
 15 10  1  0
 18 15  1  0
 19 24  1  0
 19 18  1  0
 19 20  1  1
 21 22  1  0
 21 20  1  0
 22 23  2  0
 24 27  1  0
 25 24  2  0
 26 22  1  0
M  END
$$$$
