LEE.pdb
     RDKit          3D

 27 26  0  0  1  0  0  0  0  0999 V2000
   28.2896  -18.6713   -6.1975 C   0  0  0  0  0  0  0  0  0  0  0  0
   28.1806  -19.9123   -7.0428 C   0  0  1  0  0  0  0  0  0  0  0  0
   27.6273  -21.0688   -6.2027 C   0  0  0  0  0  0  0  0  0  0  0  0
   27.3449  -19.6673   -8.2501 C   0  0  0  0  0  0  0  0  0  0  0  0
   27.2212  -20.8626   -9.1513 C   0  0  2  0  0  0  0  0  0  0  0  0
   28.5172  -21.3545   -9.5799 N   0  0  0  0  0  0  0  0  0  0  0  0
   26.3610  -20.5331  -10.3273 C   0  0  0  0  0  0  0  0  0  0  0  0
   26.6391  -19.4563  -10.9153 O   0  0  0  0  0  0  0  0  0  0  0  0
   25.2994  -21.3217  -10.8004 N   0  0  0  0  0  0  0  0  0  0  0  0
   24.6808  -21.0743  -12.0943 C   0  0  1  0  0  0  0  0  0  0  0  0
   24.9553  -22.1634  -13.0637 C   0  0  0  0  0  0  0  0  0  0  0  0
   24.3575  -21.9100  -14.4162 C   0  0  0  0  0  0  0  0  0  0  0  0
   24.7790  -22.9932  -15.3822 C   0  0  0  0  0  0  0  0  0  0  0  0
   25.4256  -22.7344  -16.4177 O   0  0  0  0  0  0  0  0  0  0  0  0
   23.2098  -20.9580  -11.8711 C   0  0  0  0  0  0  0  0  0  0  0  0
   22.5959  -21.6036  -10.9865 O   0  0  0  0  0  0  0  0  0  0  0  0
   24.4363  -24.2896  -15.1018 O   0  0  0  0  0  0  0  0  0  0  0  0
   22.4091  -20.0819  -12.6750 N   0  0  0  0  0  0  0  0  0  0  0  0
   20.9547  -20.1011  -12.4783 C   0  0  1  0  0  0  0  0  0  0  0  0
   20.3205  -18.9358  -13.2101 C   0  0  0  0  0  0  0  0  0  0  0  0
   20.2881  -19.1086  -14.6911 C   0  0  0  0  0  0  0  0  0  0  0  0
   19.5883  -17.8971  -15.2607 C   0  0  0  0  0  0  0  0  0  0  0  0
   19.0278  -17.0491  -14.5463 O   0  0  0  0  0  0  0  0  0  0  0  0
   20.4596  -21.4163  -12.8822 C   0  0  0  0  0  0  0  0  0  0  0  0
   21.1186  -22.1181  -13.6838 O   0  0  0  0  0  0  0  0  0  0  0  0
   19.5719  -17.7265  -16.6352 O   0  0  0  0  0  0  0  0  0  0  0  0
   19.2734  -21.8979  -12.3905 O   0  0  0  0  0  0  0  0  0  0  0  0
  2  1  1  1
  2  3  1  0
  4  2  1  0
  4  5  1  0
  5  7  1  0
  5  6  1  6
  7  8  2  0
  9 10  1  0
  9  7  1  0
 11 12  1  0
 10 11  1  6
 12 13  1  0
 13 17  1  0
 13 14  2  0
 15 16  2  0
 15 10  1  0
 18 15  1  0
 19 24  1  0
 19 18  1  0
 19 20  1  6
 21 22  1  0
 21 20  1  0
 22 23  2  0
 24 27  1  0
 25 24  2  0
 26 22  1  0
M  END
$$$$
