LEE.pdb
     RDKit          3D

 27 26  0  0  1  0  0  0  0  0999 V2000
   27.9361  -17.5745  -17.7410 C   0  0  0  0  0  0  0  0  0  0  0  0
   28.0730  -18.8200  -16.9064 C   0  0  1  0  0  0  0  0  0  0  0  0
   29.3110  -18.7132  -16.0091 C   0  0  0  0  0  0  0  0  0  0  0  0
   26.8413  -19.0690  -16.1083 C   0  0  0  0  0  0  0  0  0  0  0  0
   26.8912  -20.3342  -15.3002 C   0  0  2  0  0  0  0  0  0  0  0  0
   27.4449  -21.4401  -16.0588 N   0  0  0  0  0  0  0  0  0  0  0  0
   25.5294  -20.6699  -14.7860 C   0  0  0  0  0  0  0  0  0  0  0  0
   24.8466  -21.4292  -15.5206 O   0  0  0  0  0  0  0  0  0  0  0  0
   24.9834  -20.2074  -13.5774 N   0  0  0  0  0  0  0  0  0  0  0  0
   23.6680  -20.6309  -13.1212 C   0  0  1  0  0  0  0  0  0  0  0  0
   23.4544  -20.3413  -11.6818 C   0  0  0  0  0  0  0  0  0  0  0  0
   22.1160  -20.8002  -11.1829 C   0  0  0  0  0  0  0  0  0  0  0  0
   21.9859  -20.5137   -9.7047 C   0  0  0  0  0  0  0  0  0  0  0  0
   22.9052  -19.9723   -9.0573 O   0  0  0  0  0  0  0  0  0  0  0  0
   22.6552  -19.8994  -13.9375 C   0  0  0  0  0  0  0  0  0  0  0  0
   22.7279  -18.6701  -14.1822 O   0  0  0  0  0  0  0  0  0  0  0  0
   20.8227  -20.8622   -9.0705 O   0  0  0  0  0  0  0  0  0  0  0  0
   21.5249  -20.5823  -14.4949 N   0  0  0  0  0  0  0  0  0  0  0  0
   20.5768  -19.8041  -15.3011 C   0  0  1  0  0  0  0  0  0  0  0  0
   20.6543  -20.2393  -16.7503 C   0  0  0  0  0  0  0  0  0  0  0  0
   19.6622  -19.5579  -17.6310 C   0  0  0  0  0  0  0  0  0  0  0  0
   19.8434  -20.1247  -19.0195 C   0  0  0  0  0  0  0  0  0  0  0  0
   20.6625  -21.0233  -19.2752 O   0  0  0  0  0  0  0  0  0  0  0  0
   19.2523  -19.9349  -14.6957 C   0  0  0  0  0  0  0  0  0  0  0  0
   19.0148  -20.8702  -13.8969 O   0  0  0  0  0  0  0  0  0  0  0  0
   19.0640  -19.6210  -20.0478 O   0  0  0  0  0  0  0  0  0  0  0  0
   18.2568  -19.0392  -14.9917 O   0  0  0  0  0  0  0  0  0  0  0  0
  2  1  1  1
  2  3  1  0
  4  2  1  0
  4  5  1  0
  5  7  1  0
  5  6  1  6
  7  8  2  0
  9 10  1  0
  9  7  1  0
 11 12  1  0
 10 11  1  1
 12 13  1  0
 13 17  1  0
 13 14  2  0
 15 16  2  0
 15 10  1  0
 18 15  1  0
 19 24  1  0
 19 18  1  0
 19 20  1  6
 21 22  1  0
 21 20  1  0
 22 23  2  0
 24 27  1  0
 25 24  2  0
 26 22  1  0
M  END
$$$$
