QAV.pdb
     RDKit          3D

 22 21  0  0  1  0  0  0  0  0999 V2000
   14.9051  -14.6061  -16.0805 N   0  0  0  0  0  0  0  0  0  0  0  0
   14.8726  -14.5755  -17.5148 C   0  0  0  0  0  0  0  0  0  0  0  0
   13.9373  -15.1906  -18.0592 O   0  0  0  0  0  0  0  0  0  0  0  0
   15.9231  -13.8423  -18.2118 C   0  0  0  0  0  0  0  0  0  0  0  0
   16.9061  -13.1005  -17.3557 C   0  0  0  0  0  0  0  0  0  0  0  0
   18.2943  -13.3332  -17.8158 C   0  0  2  0  0  0  0  0  0  0  0  0
   18.7429  -14.6764  -17.5884 N   0  0  0  0  0  0  0  0  0  0  0  0
   19.2761  -12.4037  -17.1910 C   0  0  0  0  0  0  0  0  0  0  0  0
   19.4453  -12.4145  -15.9478 O   0  0  0  0  0  0  0  0  0  0  0  0
   21.9646  -10.1164  -18.3645 C   0  0  0  0  0  0  0  0  0  0  0  0
   20.9947  -10.5947  -17.2812 C   0  0  2  0  0  0  0  0  0  0  0  0
   20.0543  -11.4796  -17.9401 N   0  0  0  0  0  0  0  0  0  0  0  0
   20.3331   -9.4579  -16.6141 C   0  0  0  0  0  0  0  0  0  0  0  0
   19.3399   -8.9481  -17.1923 O   0  0  0  0  0  0  0  0  0  0  0  0
   21.0643   -8.4858  -12.5376 C   0  0  0  0  0  0  0  0  0  0  0  0
   19.8288   -8.0910  -13.3095 C   0  0  2  0  0  0  0  0  0  0  0  0
   18.8149   -9.2101  -13.2368 C   0  0  0  0  0  0  0  0  0  0  0  0
   20.1592   -7.7503  -14.7631 C   0  0  2  0  0  0  0  0  0  0  0  0
   20.7357   -8.9052  -15.3773 N   0  0  0  0  0  0  0  0  0  0  0  0
   21.0379   -6.5602  -14.8313 C   0  0  0  0  0  0  0  0  0  0  0  0
   20.5737   -5.4250  -14.5656 O   0  0  0  0  0  0  0  0  0  0  0  0
   22.3747   -6.6550  -15.1832 O   0  0  0  0  0  0  0  0  0  0  0  0
  1  2  1  0
  2  3  2  0
  2  4  1  0
  4  5  1  0
  5  6  1  0
  6  8  1  0
  6  7  1  1
  8  9  2  0
 11 10  1  6
 11 13  1  0
 12  8  1  0
 12 11  1  0
 13 14  2  0
 16 15  1  1
 16 18  1  0
 17 16  1  0
 18 20  1  0
 18 19  1  1
 19 13  1  0
 20 21  2  0
 20 22  1  0
M  END
$$$$
