QAV.pdb
     RDKit          3D

 22 21  0  0  1  0  0  0  0  0999 V2000
   14.4706  -14.4450  -13.6800 N   0  0  0  0  0  0  0  0  0  0  0  0
   15.5236  -13.5410  -14.0451 C   0  0  0  0  0  0  0  0  0  0  0  0
   16.6867  -13.9581  -13.8940 O   0  0  0  0  0  0  0  0  0  0  0  0
   15.1555  -12.2240  -14.5520 C   0  0  0  0  0  0  0  0  0  0  0  0
   16.2509  -11.2021  -14.6252 C   0  0  0  0  0  0  0  0  0  0  0  0
   16.4328  -10.7155  -16.0120 C   0  0  2  0  0  0  0  0  0  0  0  0
   16.8742  -11.7405  -16.9128 N   0  0  0  0  0  0  0  0  0  0  0  0
   17.3841   -9.5733  -16.1060 C   0  0  0  0  0  0  0  0  0  0  0  0
   18.5485   -9.7617  -16.5341 O   0  0  0  0  0  0  0  0  0  0  0  0
   17.1354   -5.8687  -15.8928 C   0  0  0  0  0  0  0  0  0  0  0  0
   17.9688   -7.1516  -15.9405 C   0  0  2  0  0  0  0  0  0  0  0  0
   17.0420   -8.2461  -15.7292 N   0  0  0  0  0  0  0  0  0  0  0  0
   19.0527   -7.1243  -14.9408 C   0  0  0  0  0  0  0  0  0  0  0  0
   18.7697   -7.4934  -13.7727 O   0  0  0  0  0  0  0  0  0  0  0  0
   23.1257   -6.9771  -16.0311 C   0  0  0  0  0  0  0  0  0  0  0  0
   22.6086   -7.4433  -14.6919 C   0  0  2  0  0  0  0  0  0  0  0  0
   22.2343   -8.9054  -14.7818 C   0  0  0  0  0  0  0  0  0  0  0  0
   21.4175   -6.6049  -14.2264 C   0  0  2  0  0  0  0  0  0  0  0  0
   20.3795   -6.7144  -15.2031 N   0  0  0  0  0  0  0  0  0  0  0  0
   21.8324   -5.2050  -13.9786 C   0  0  0  0  0  0  0  0  0  0  0  0
   21.5602   -4.3146  -14.8199 O   0  0  0  0  0  0  0  0  0  0  0  0
   22.5208   -4.8359  -12.8342 O   0  0  0  0  0  0  0  0  0  0  0  0
  1  2  1  0
  2  3  2  0
  2  4  1  0
  4  5  1  0
  5  6  1  0
  6  8  1  0
  6  7  1  6
  8  9  2  0
 11 10  1  1
 11 13  1  0
 12  8  1  0
 12 11  1  0
 13 14  2  0
 16 15  1  6
 16 18  1  0
 17 16  1  0
 18 20  1  0
 18 19  1  6
 19 13  1  0
 20 21  2  0
 20 22  1  0
M  END
$$$$
