QAV.pdb
     RDKit          3D

 22 21  0  0  1  0  0  0  0  0999 V2000
   18.3146  -14.2001  -14.4661 N   0  0  0  0  0  0  0  0  0  0  0  0
   17.3043  -15.1458  -14.8459 C   0  0  0  0  0  0  0  0  0  0  0  0
   17.6265  -16.3473  -14.7975 O   0  0  0  0  0  0  0  0  0  0  0  0
   16.0018  -14.6344  -15.2567 C   0  0  0  0  0  0  0  0  0  0  0  0
   15.7943  -13.1535  -15.1401 C   0  0  0  0  0  0  0  0  0  0  0  0
   15.1173  -12.8095  -13.8688 C   0  0  2  0  0  0  0  0  0  0  0  0
   13.7358  -13.1942  -13.8469 N   0  0  0  0  0  0  0  0  0  0  0  0
   15.2007  -11.3590  -13.5411 C   0  0  0  0  0  0  0  0  0  0  0  0
   14.5685  -10.5236  -14.2317 O   0  0  0  0  0  0  0  0  0  0  0  0
   16.6222   -9.2664  -10.8020 C   0  0  0  0  0  0  0  0  0  0  0  0
   16.0606   -9.4248  -12.2170 C   0  0  2  0  0  0  0  0  0  0  0  0
   15.9751  -10.8508  -12.4628 N   0  0  0  0  0  0  0  0  0  0  0  0
   16.9004   -8.7269  -13.2084 C   0  0  0  0  0  0  0  0  0  0  0  0
   17.8965   -9.3473  -13.6595 O   0  0  0  0  0  0  0  0  0  0  0  0
   15.4243   -5.3917  -15.2460 C   0  0  0  0  0  0  0  0  0  0  0  0
   16.5476   -6.2488  -15.7770 C   0  0  2  0  0  0  0  0  0  0  0  0
   15.9670   -7.4174  -16.5405 C   0  0  0  0  0  0  0  0  0  0  0  0
   17.4634   -6.7348  -14.6530 C   0  0  2  0  0  0  0  0  0  0  0  0
   16.6646   -7.4170  -13.6835 N   0  0  0  0  0  0  0  0  0  0  0  0
   18.2277   -5.6035  -14.0792 C   0  0  0  0  0  0  0  0  0  0  0  0
   17.7791   -4.9889  -13.0812 O   0  0  0  0  0  0  0  0  0  0  0  0
   19.4387   -5.1917  -14.6117 O   0  0  0  0  0  0  0  0  0  0  0  0
  1  2  1  0
  2  3  2  0
  2  4  1  0
  4  5  1  0
  5  6  1  0
  6  8  1  0
  6  7  1  6
  8  9  2  0
 11 10  1  1
 11 13  1  0
 12  8  1  0
 12 11  1  0
 13 14  2  0
 16 15  1  1
 16 18  1  0
 17 16  1  0
 18 20  1  0
 18 19  1  1
 19 13  1  0
 20 21  2  0
 20 22  1  0
M  END
$$$$
