QAV.pdb
     RDKit          3D

 22 21  0  0  1  0  0  0  0  0999 V2000
   21.7186  -19.2662  -13.3450 N   0  0  0  0  0  0  0  0  0  0  0  0
   22.4079  -20.1893  -14.2005 C   0  0  0  0  0  0  0  0  0  0  0  0
   22.6227  -19.8075  -15.3658 O   0  0  0  0  0  0  0  0  0  0  0  0
   22.7928  -21.4834  -13.6490 C   0  0  0  0  0  0  0  0  0  0  0  0
   23.3692  -21.4790  -12.2644 C   0  0  0  0  0  0  0  0  0  0  0  0
   24.5916  -20.6456  -12.1995 C   0  0  2  0  0  0  0  0  0  0  0  0
   25.3206  -20.6218  -13.4345 N   0  0  0  0  0  0  0  0  0  0  0  0
   25.5245  -21.0672  -11.1177 C   0  0  0  0  0  0  0  0  0  0  0  0
   25.0740  -21.5993  -10.0745 O   0  0  0  0  0  0  0  0  0  0  0  0
   29.2231  -21.0023  -10.5399 C   0  0  0  0  0  0  0  0  0  0  0  0
   27.7808  -21.1615  -10.0528 C   0  0  2  0  0  0  0  0  0  0  0  0
   26.9335  -20.8980  -11.1991 N   0  0  0  0  0  0  0  0  0  0  0  0
   27.4961  -20.2639   -8.9177 C   0  0  0  0  0  0  0  0  0  0  0  0
   27.0229  -19.1299   -9.1836 O   0  0  0  0  0  0  0  0  0  0  0  0
   28.2126  -21.3310   -4.6755 C   0  0  0  0  0  0  0  0  0  0  0  0
   27.0930  -20.4937   -5.2443 C   0  0  2  0  0  0  0  0  0  0  0  0
   25.9301  -21.3908   -5.6030 C   0  0  0  0  0  0  0  0  0  0  0  0
   27.5544  -19.6895   -6.4603 C   0  0  2  0  0  0  0  0  0  0  0  0
   27.7170  -20.5881   -7.5601 N   0  0  0  0  0  0  0  0  0  0  0  0
   28.7876  -18.9325   -6.1454 C   0  0  0  0  0  0  0  0  0  0  0  0
   29.8940  -19.3303   -6.5842 O   0  0  0  0  0  0  0  0  0  0  0  0
   28.7651  -17.7830   -5.3720 O   0  0  0  0  0  0  0  0  0  0  0  0
  1  2  1  0
  2  3  2  0
  2  4  1  0
  4  5  1  0
  5  6  1  0
  6  8  1  0
  6  7  1  6
  8  9  2  0
 11 10  1  6
 11 13  1  0
 12  8  1  0
 12 11  1  0
 13 14  2  0
 16 15  1  6
 16 18  1  0
 17 16  1  0
 18 20  1  0
 18 19  1  6
 19 13  1  0
 20 21  2  0
 20 22  1  0
M  END
$$$$
