QAV.pdb
     RDKit          3D

 22 21  0  0  1  0  0  0  0  0999 V2000
   24.5719  -22.1088   -8.9575 N   0  0  0  0  0  0  0  0  0  0  0  0
   23.7627  -21.0335   -9.4558 C   0  0  0  0  0  0  0  0  0  0  0  0
   22.6257  -20.9230   -8.9613 O   0  0  0  0  0  0  0  0  0  0  0  0
   24.3243  -20.1708  -10.4890 C   0  0  0  0  0  0  0  0  0  0  0  0
   25.6322  -20.5999  -11.0847 C   0  0  0  0  0  0  0  0  0  0  0  0
   25.4199  -21.4303  -12.2923 C   0  0  2  0  0  0  0  0  0  0  0  0
   26.5503  -22.2524  -12.6137 N   0  0  0  0  0  0  0  0  0  0  0  0
   25.0738  -20.6252  -13.4966 C   0  0  0  0  0  0  0  0  0  0  0  0
   25.9558  -19.9361  -14.0638 O   0  0  0  0  0  0  0  0  0  0  0  0
   22.1174  -20.3749  -15.7648 C   0  0  0  0  0  0  0  0  0  0  0  0
   23.5257  -19.9548  -15.3372 C   0  0  2  0  0  0  0  0  0  0  0  0
   23.7679  -20.5901  -14.0569 N   0  0  0  0  0  0  0  0  0  0  0  0
   23.6518  -18.4867  -15.2756 C   0  0  0  0  0  0  0  0  0  0  0  0
   23.1897  -17.9101  -14.2583 O   0  0  0  0  0  0  0  0  0  0  0  0
   26.7735  -16.3721  -15.6765 C   0  0  0  0  0  0  0  0  0  0  0  0
   25.7481  -15.8489  -16.6527 C   0  0  2  0  0  0  0  0  0  0  0  0
   25.8656  -14.3443  -16.7430 C   0  0  0  0  0  0  0  0  0  0  0  0
   24.3305  -16.2605  -16.2533 C   0  0  2  0  0  0  0  0  0  0  0  0
   24.2523  -17.6877  -16.2747 N   0  0  0  0  0  0  0  0  0  0  0  0
   23.3331  -15.6138  -17.1366 C   0  0  0  0  0  0  0  0  0  0  0  0
   22.9219  -14.4578  -16.8732 O   0  0  0  0  0  0  0  0  0  0  0  0
   22.8291  -16.2477  -18.2608 O   0  0  0  0  0  0  0  0  0  0  0  0
  1  2  1  0
  2  3  2  0
  2  4  1  0
  4  5  1  0
  5  6  1  0
  6  8  1  0
  6  7  1  6
  8  9  2  0
 11 10  1  1
 11 13  1  0
 12  8  1  0
 12 11  1  0
 13 14  2  0
 16 15  1  1
 16 18  1  0
 17 16  1  0
 18 20  1  0
 18 19  1  6
 19 13  1  0
 20 21  2  0
 20 22  1  0
M  END
$$$$
