QAV.pdb
     RDKit          3D

 22 21  0  0  1  0  0  0  0  0999 V2000
   26.0786  -15.3375  -15.4204 N   0  0  0  0  0  0  0  0  0  0  0  0
   25.6876  -14.0886  -16.0091 C   0  0  0  0  0  0  0  0  0  0  0  0
   26.5604  -13.2021  -16.0544 O   0  0  0  0  0  0  0  0  0  0  0  0
   24.3194  -13.9555  -16.4964 C   0  0  0  0  0  0  0  0  0  0  0  0
   23.8749  -12.5759  -16.8822 C   0  0  0  0  0  0  0  0  0  0  0  0
   22.4434  -12.5647  -17.2611 C   0  0  2  0  0  0  0  0  0  0  0  0
   22.1915  -13.2023  -18.5208 N   0  0  0  0  0  0  0  0  0  0  0  0
   21.8675  -11.1920  -17.3121 C   0  0  0  0  0  0  0  0  0  0  0  0
   22.3555  -10.3367  -18.0897 O   0  0  0  0  0  0  0  0  0  0  0  0
   18.7864   -9.5088  -16.1360 C   0  0  0  0  0  0  0  0  0  0  0  0
   20.2421   -9.4344  -16.6030 C   0  0  2  0  0  0  0  0  0  0  0  0
   20.7678  -10.7822  -16.5101 N   0  0  0  0  0  0  0  0  0  0  0  0
   21.0139   -8.4671  -15.8006 C   0  0  0  0  0  0  0  0  0  0  0  0
   21.6098   -8.9061  -14.7843 O   0  0  0  0  0  0  0  0  0  0  0  0
   23.2240   -4.0401  -15.4941 C   0  0  0  0  0  0  0  0  0  0  0  0
   22.4203   -5.0718  -16.2478 C   0  0  2  0  0  0  0  0  0  0  0  0
   21.3121   -4.3824  -17.0111 C   0  0  0  0  0  0  0  0  0  0  0  0
   21.8527   -6.1374  -15.3094 C   0  0  2  0  0  0  0  0  0  0  0  0
   21.1293   -7.0893  -16.0930 N   0  0  0  0  0  0  0  0  0  0  0  0
   21.0259   -5.5119  -14.2519 C   0  0  0  0  0  0  0  0  0  0  0  0
   21.5798   -4.9653  -13.2674 O   0  0  0  0  0  0  0  0  0  0  0  0
   19.6415   -5.5076  -14.3100 O   0  0  0  0  0  0  0  0  0  0  0  0
  1  2  1  0
  2  3  2  0
  2  4  1  0
  4  5  1  0
  5  6  1  0
  6  8  1  0
  6  7  1  6
  8  9  2  0
 11 10  1  1
 11 13  1  0
 12  8  1  0
 12 11  1  0
 13 14  2  0
 16 15  1  1
 16 18  1  0
 17 16  1  0
 18 20  1  0
 18 19  1  6
 19 13  1  0
 20 21  2  0
 20 22  1  0
M  END
$$$$
