QAV.pdb
     RDKit          3D

 22 21  0  0  1  0  0  0  0  0999 V2000
   25.9727  -22.0345  -10.3193 N   0  0  0  0  0  0  0  0  0  0  0  0
   25.5884  -20.6520  -10.3364 C   0  0  0  0  0  0  0  0  0  0  0  0
   24.7261  -20.3082   -9.5070 O   0  0  0  0  0  0  0  0  0  0  0  0
   26.2240  -19.7727  -11.3110 C   0  0  0  0  0  0  0  0  0  0  0  0
   27.0184  -20.4360  -12.3967 C   0  0  0  0  0  0  0  0  0  0  0  0
   26.1314  -21.1423  -13.3492 C   0  0  2  0  0  0  0  0  0  0  0  0
   26.7814  -22.2311  -14.0193 N   0  0  0  0  0  0  0  0  0  0  0  0
   25.5539  -20.2391  -14.3831 C   0  0  0  0  0  0  0  0  0  0  0  0
   26.3109  -19.6390  -15.1839 O   0  0  0  0  0  0  0  0  0  0  0  0
   22.1420  -19.3972  -15.6379 C   0  0  0  0  0  0  0  0  0  0  0  0
   23.6471  -19.1316  -15.5542 C   0  0  2  0  0  0  0  0  0  0  0  0
   24.1577  -20.0102  -14.5204 N   0  0  0  0  0  0  0  0  0  0  0  0
   23.9261  -17.7096  -15.2800 C   0  0  0  0  0  0  0  0  0  0  0  0
   23.7545  -17.3047  -14.1021 O   0  0  0  0  0  0  0  0  0  0  0  0
   26.9602  -15.6960  -15.4859 C   0  0  0  0  0  0  0  0  0  0  0  0
   25.9645  -14.9862  -16.3707 C   0  0  2  0  0  0  0  0  0  0  0  0
   26.1639  -13.4924  -16.2500 C   0  0  0  0  0  0  0  0  0  0  0  0
   24.5267  -15.3726  -16.0217 C   0  0  2  0  0  0  0  0  0  0  0  0
   24.3703  -16.7761  -16.2435 N   0  0  0  0  0  0  0  0  0  0  0  0
   23.5658  -14.5545  -16.7966 C   0  0  0  0  0  0  0  0  0  0  0  0
   23.2428  -14.9033  -17.9580 O   0  0  0  0  0  0  0  0  0  0  0  0
   23.0011  -13.4000  -16.2788 O   0  0  0  0  0  0  0  0  0  0  0  0
  1  2  1  0
  2  3  2  0
  2  4  1  0
  4  5  1  0
  5  6  1  0
  6  8  1  0
  6  7  1  6
  8  9  2  0
 11 10  1  1
 11 13  1  0
 12  8  1  0
 12 11  1  0
 13 14  2  0
 16 15  1  1
 16 18  1  0
 17 16  1  0
 18 20  1  0
 18 19  1  6
 19 13  1  0
 20 21  2  0
 20 22  1  0
M  END
$$$$
