QAV.pdb
     RDKit          3D

 22 21  0  0  1  0  0  0  0  0999 V2000
   12.3054  -12.6829  -12.7139 N   0  0  0  0  0  0  0  0  0  0  0  0
   13.2094  -13.3297  -13.6215 C   0  0  0  0  0  0  0  0  0  0  0  0
   12.7206  -14.2085  -14.3553 O   0  0  0  0  0  0  0  0  0  0  0  0
   14.6082  -12.9174  -13.6106 C   0  0  0  0  0  0  0  0  0  0  0  0
   14.9792  -11.8247  -12.6524 C   0  0  0  0  0  0  0  0  0  0  0  0
   16.4208  -11.5000  -12.7481 C   0  0  2  0  0  0  0  0  0  0  0  0
   17.2682  -12.5845  -12.3447 N   0  0  0  0  0  0  0  0  0  0  0  0
   16.7982  -10.2965  -11.9559 C   0  0  0  0  0  0  0  0  0  0  0  0
   16.9572  -10.3884  -10.7146 O   0  0  0  0  0  0  0  0  0  0  0  0
   18.0319   -6.8687  -12.6093 C   0  0  0  0  0  0  0  0  0  0  0  0
   17.2869   -7.8602  -11.7122 C   0  0  2  0  0  0  0  0  0  0  0  0
   16.9942   -9.0148  -12.5384 N   0  0  0  0  0  0  0  0  0  0  0  0
   16.0734   -7.2531  -11.1342 C   0  0  0  0  0  0  0  0  0  0  0  0
   15.0472   -7.2124  -11.8593 O   0  0  0  0  0  0  0  0  0  0  0  0
   16.0547   -5.7513   -7.1058 C   0  0  0  0  0  0  0  0  0  0  0  0
   14.8294   -6.3429   -7.7592 C   0  0  2  0  0  0  0  0  0  0  0  0
   14.7646   -7.8221   -7.4536 C   0  0  0  0  0  0  0  0  0  0  0  0
   14.8242   -6.0989   -9.2688 C   0  0  2  0  0  0  0  0  0  0  0  0
   15.9847   -6.7171   -9.8296 N   0  0  0  0  0  0  0  0  0  0  0  0
   14.7434   -4.6493   -9.5608 C   0  0  0  0  0  0  0  0  0  0  0  0
   13.6577   -4.0400   -9.4032 O   0  0  0  0  0  0  0  0  0  0  0  0
   15.8392   -3.9294  -10.0088 O   0  0  0  0  0  0  0  0  0  0  0  0
  1  2  1  0
  2  3  2  0
  2  4  1  0
  4  5  1  0
  5  6  1  0
  6  8  1  0
  6  7  1  1
  8  9  2  0
 11 10  1  6
 11 13  1  0
 12  8  1  0
 12 11  1  0
 13 14  2  0
 16 15  1  6
 16 18  1  0
 17 16  1  0
 18 20  1  0
 18 19  1  1
 19 13  1  0
 20 21  2  0
 20 22  1  0
M  END
$$$$
