QAV.pdb
     RDKit          3D

 22 21  0  0  1  0  0  0  0  0999 V2000
   21.2977  -22.6571  -12.2765 N   0  0  0  0  0  0  0  0  0  0  0  0
   21.5565  -21.5096  -13.0984 C   0  0  0  0  0  0  0  0  0  0  0  0
   20.5952  -21.0758  -13.7598 O   0  0  0  0  0  0  0  0  0  0  0  0
   22.9044  -20.9527  -13.0985 C   0  0  0  0  0  0  0  0  0  0  0  0
   23.9158  -21.6409  -12.2306 C   0  0  0  0  0  0  0  0  0  0  0  0
   23.8025  -21.1928  -10.8238 C   0  0  2  0  0  0  0  0  0  0  0  0
   22.9391  -20.0588  -10.6640 N   0  0  0  0  0  0  0  0  0  0  0  0
   25.1199  -20.8633  -10.2120 C   0  0  0  0  0  0  0  0  0  0  0  0
   26.0537  -21.7008  -10.2472 O   0  0  0  0  0  0  0  0  0  0  0  0
   26.8105  -17.7970   -8.9932 C   0  0  0  0  0  0  0  0  0  0  0  0
   26.7121  -19.3230   -9.0605 C   0  0  2  0  0  0  0  0  0  0  0  0
   25.3897  -19.6225   -9.5732 N   0  0  0  0  0  0  0  0  0  0  0  0
   26.9623  -19.9350   -7.7422 C   0  0  0  0  0  0  0  0  0  0  0  0
   25.9592  -20.2501   -7.0527 O   0  0  0  0  0  0  0  0  0  0  0  0
   30.6128  -21.6304   -6.5970 C   0  0  0  0  0  0  0  0  0  0  0  0
   30.0335  -20.6006   -5.6577 C   0  0  2  0  0  0  0  0  0  0  0  0
   30.3837  -20.9692   -4.2339 C   0  0  0  0  0  0  0  0  0  0  0  0
   28.5195  -20.4720   -5.8293 C   0  0  2  0  0  0  0  0  0  0  0  0
   28.2435  -20.1903   -7.2033 N   0  0  0  0  0  0  0  0  0  0  0  0
   27.9773  -19.4463   -4.9089 C   0  0  0  0  0  0  0  0  0  0  0  0
   27.2420  -19.7914   -3.9524 O   0  0  0  0  0  0  0  0  0  0  0  0
   28.2560  -18.0983   -5.0673 O   0  0  0  0  0  0  0  0  0  0  0  0
  1  2  1  0
  2  3  2  0
  2  4  1  0
  4  5  1  0
  5  6  1  0
  6  8  1  0
  6  7  1  6
  8  9  2  0
 11 10  1  1
 11 13  1  0
 12  8  1  0
 12 11  1  0
 13 14  2  0
 16 15  1  6
 16 18  1  0
 17 16  1  0
 18 20  1  0
 18 19  1  6
 19 13  1  0
 20 21  2  0
 20 22  1  0
M  END
$$$$
