QAV.pdb
     RDKit          3D

 22 21  0  0  1  0  0  0  0  0999 V2000
   18.4130  -17.8392  -14.6382 N   0  0  0  0  0  0  0  0  0  0  0  0
   18.6130  -17.0088  -15.7912 C   0  0  0  0  0  0  0  0  0  0  0  0
   19.6560  -17.2079  -16.4410 O   0  0  0  0  0  0  0  0  0  0  0  0
   17.5980  -16.0095  -16.1045 C   0  0  0  0  0  0  0  0  0  0  0  0
   18.0866  -14.7119  -16.6764 C   0  0  0  0  0  0  0  0  0  0  0  0
   16.9613  -13.7809  -16.9209 C   0  0  2  0  0  0  0  0  0  0  0  0
   16.1586  -14.1550  -18.0491 N   0  0  0  0  0  0  0  0  0  0  0  0
   17.4051  -12.3722  -17.1135 C   0  0  0  0  0  0  0  0  0  0  0  0
   17.9411  -12.0267  -18.1941 O   0  0  0  0  0  0  0  0  0  0  0  0
   16.4836   -9.1115  -16.0892 C   0  0  0  0  0  0  0  0  0  0  0  0
   17.6933  -10.0088  -16.3618 C   0  0  2  0  0  0  0  0  0  0  0  0
   17.2534  -11.3685  -16.1184 N   0  0  0  0  0  0  0  0  0  0  0  0
   18.8447   -9.6257  -15.5235 C   0  0  0  0  0  0  0  0  0  0  0  0
   18.8948  -10.1005  -14.3604 O   0  0  0  0  0  0  0  0  0  0  0  0
   22.0881   -7.2538  -17.0811 C   0  0  0  0  0  0  0  0  0  0  0  0
   22.2302   -8.2374  -15.9451 C   0  0  2  0  0  0  0  0  0  0  0  0
   22.5833   -9.5976  -16.5027 C   0  0  0  0  0  0  0  0  0  0  0  0
   20.9570   -8.3095  -15.1014 C   0  0  2  0  0  0  0  0  0  0  0  0
   19.8892   -8.7671  -15.9344 N   0  0  0  0  0  0  0  0  0  0  0  0
   20.6768   -6.9995  -14.4701 C   0  0  0  0  0  0  0  0  0  0  0  0
   19.8903   -6.1943  -15.0250 O   0  0  0  0  0  0  0  0  0  0  0  0
   21.2598   -6.6239  -13.2707 O   0  0  0  0  0  0  0  0  0  0  0  0
  1  2  1  0
  2  3  2  0
  2  4  1  0
  4  5  1  0
  5  6  1  0
  6  8  1  0
  6  7  1  6
  8  9  2  0
 11 10  1  1
 11 13  1  0
 12  8  1  0
 12 11  1  0
 13 14  2  0
 16 15  1  6
 16 18  1  0
 17 16  1  0
 18 20  1  0
 18 19  1  6
 19 13  1  0
 20 21  2  0
 20 22  1  0
M  END
$$$$
