TNP.pdb
     RDKit          3D

 23 23  0  0  1  0  0  0  0  0999 V2000
    8.1825  -12.8374   18.2390 C   0  0  0  0  0  0  0  0  0  0  0  0
    7.5505  -13.4003   19.4763 C   0  0  1  0  0  0  0  0  0  0  0  0
    6.6359  -14.4203   19.2047 O   0  0  0  0  0  0  0  0  0  0  0  0
    8.5320  -13.8034   20.5338 C   0  0  2  0  0  0  0  0  0  0  0  0
    9.3704  -14.8586   20.0663 N   0  0  0  0  0  0  0  0  0  0  0  0
    7.9098  -14.0808   21.8480 C   0  0  0  0  0  0  0  0  0  0  0  0
    7.3621  -13.1307   22.4632 O   0  0  0  0  0  0  0  0  0  0  0  0
    6.4252  -16.6998   26.1658 N   0  0  0  0  0  0  0  0  0  0  0  0
    6.8179  -17.6376   25.1872 C   0  0  0  0  0  0  0  0  0  0  0  0
    6.7186  -18.8570   25.4642 O   0  0  0  0  0  0  0  0  0  0  0  0
    7.3201  -17.1497   23.9019 C   0  0  0  0  0  0  0  0  0  0  0  0
    7.3564  -15.6461   23.7692 C   0  0  2  0  0  0  0  0  0  0  0  0
    7.9045  -15.3697   22.4429 N   0  0  0  0  0  0  0  0  0  0  0  0
    8.2646  -15.1321   24.8296 C   0  0  0  0  0  0  0  0  0  0  0  0
    9.4965  -15.4054   24.6970 O   0  0  0  0  0  0  0  0  0  0  0  0
    7.8626  -14.3873   25.9323 N   0  0  0  0  0  0  0  0  0  0  0  0
    6.5030  -14.0607   26.3075 C   0  0  0  0  0  0  0  0  0  0  0  0
    6.5903  -12.6590   26.9123 C   0  0  0  0  0  0  0  0  0  0  0  0
    8.0078  -12.5319   27.3944 C   0  0  0  0  0  0  0  0  0  0  0  0
    8.7150  -13.7813   26.9248 C   0  0  1  0  0  0  0  0  0  0  0  0
    8.9812  -14.7234   28.0316 C   0  0  0  0  0  0  0  0  0  0  0  0
    9.7506  -14.3636   28.9510 O   0  0  0  0  0  0  0  0  0  0  0  0
    8.3719  -15.9629   28.0093 O   0  0  0  0  0  0  0  0  0  0  0  0
  2  1  1  6
  2  3  1  0
  4  6  1  0
  4  2  1  0
  4  5  1  6
  6 13  1  0
  7  6  2  0
  8  9  1  0
  9 11  1  0
 10  9  2  0
 12 11  1  1
 12 13  1  0
 12 14  1  0
 14 16  1  0
 15 14  2  0
 16 20  1  0
 16 17  1  0
 17 18  1  0
 19 18  1  0
 20 21  1  1
 20 19  1  0
 21 23  1  0
 22 21  2  0
M  END
$$$$
