TNP.pdb
     RDKit          3D

 23 23  0  0  1  0  0  0  0  0999 V2000
   10.2899  -14.6355   18.6991 C   0  0  0  0  0  0  0  0  0  0  0  0
    9.6978  -14.4067   20.0571 C   0  0  1  0  0  0  0  0  0  0  0  0
   10.2000  -13.2644   20.6847 O   0  0  0  0  0  0  0  0  0  0  0  0
    8.2004  -14.4404   20.0836 C   0  0  2  0  0  0  0  0  0  0  0  0
    7.6592  -13.4236   19.2422 N   0  0  0  0  0  0  0  0  0  0  0  0
    7.6297  -14.4434   21.4495 C   0  0  0  0  0  0  0  0  0  0  0  0
    7.0594  -13.4015   21.8620 O   0  0  0  0  0  0  0  0  0  0  0  0
    6.6220  -18.6311   22.1696 N   0  0  0  0  0  0  0  0  0  0  0  0
    6.0826  -17.8091   23.1820 C   0  0  0  0  0  0  0  0  0  0  0  0
    4.8352  -17.7689   23.3080 O   0  0  0  0  0  0  0  0  0  0  0  0
    6.9956  -17.0456   24.0338 C   0  0  0  0  0  0  0  0  0  0  0  0
    7.1358  -15.5891   23.6610 C   0  0  2  0  0  0  0  0  0  0  0  0
    7.6981  -15.5687   22.3122 N   0  0  0  0  0  0  0  0  0  0  0  0
    8.0804  -14.9748   24.6324 C   0  0  0  0  0  0  0  0  0  0  0  0
    9.3154  -15.0842   24.3631 O   0  0  0  0  0  0  0  0  0  0  0  0
    7.7084  -14.3020   25.7906 N   0  0  0  0  0  0  0  0  0  0  0  0
    6.3619  -14.1145   26.2883 C   0  0  0  0  0  0  0  0  0  0  0  0
    6.3732  -12.7283   26.9337 C   0  0  0  0  0  0  0  0  0  0  0  0
    7.8093  -12.4831   27.3013 C   0  0  0  0  0  0  0  0  0  0  0  0
    8.5841  -13.6473   26.7304 C   0  0  1  0  0  0  0  0  0  0  0  0
    9.0284  -14.5912   27.7768 C   0  0  0  0  0  0  0  0  0  0  0  0
    8.4929  -15.7214   27.8288 O   0  0  0  0  0  0  0  0  0  0  0  0
   10.0157  -14.1909   28.6560 O   0  0  0  0  0  0  0  0  0  0  0  0
  2  1  1  6
  2  3  1  0
  4  6  1  0
  4  2  1  0
  4  5  1  6
  6 13  1  0
  7  6  2  0
  8  9  1  0
  9 11  1  0
 10  9  2  0
 12 11  1  1
 12 13  1  0
 12 14  1  0
 14 16  1  0
 15 14  2  0
 16 20  1  0
 16 17  1  0
 17 18  1  0
 19 18  1  0
 20 21  1  1
 20 19  1  0
 21 23  1  0
 22 21  2  0
M  END
$$$$
