TNP.pdb
     RDKit          3D

 23 23  0  0  1  0  0  0  0  0999 V2000
   10.6269  -14.0618   21.0043 C   0  0  0  0  0  0  0  0  0  0  0  0
    9.7431  -13.2770   20.0823 C   0  0  1  0  0  0  0  0  0  0  0  0
   10.3185  -13.0631   18.8277 O   0  0  0  0  0  0  0  0  0  0  0  0
    8.3495  -13.8146   19.9682 C   0  0  2  0  0  0  0  0  0  0  0  0
    7.5878  -13.0451   19.0394 N   0  0  0  0  0  0  0  0  0  0  0  0
    7.6759  -14.0026   21.2729 C   0  0  0  0  0  0  0  0  0  0  0  0
    7.1519  -13.0020   21.8255 O   0  0  0  0  0  0  0  0  0  0  0  0
    6.0739  -16.3417   25.7110 N   0  0  0  0  0  0  0  0  0  0  0  0
    6.3114  -17.3348   24.7369 C   0  0  0  0  0  0  0  0  0  0  0  0
    6.0617  -18.5272   25.0358 O   0  0  0  0  0  0  0  0  0  0  0  0
    6.8346  -16.9325   23.4305 C   0  0  0  0  0  0  0  0  0  0  0  0
    7.0262  -15.4446   23.2593 C   0  0  2  0  0  0  0  0  0  0  0  0
    7.5960  -15.2604   21.9262 N   0  0  0  0  0  0  0  0  0  0  0  0
    7.9859  -15.0007   24.3058 C   0  0  0  0  0  0  0  0  0  0  0  0
    9.2045  -15.2977   24.1148 O   0  0  0  0  0  0  0  0  0  0  0  0
    7.6443  -14.2963   25.4545 N   0  0  0  0  0  0  0  0  0  0  0  0
    6.3070  -13.9877   25.9154 C   0  0  0  0  0  0  0  0  0  0  0  0
    6.4254  -12.6077   26.5633 C   0  0  0  0  0  0  0  0  0  0  0  0
    7.8672  -12.4926   26.9706 C   0  0  0  0  0  0  0  0  0  0  0  0
    8.5493  -13.7224   26.4191 C   0  0  1  0  0  0  0  0  0  0  0  0
    8.8777  -14.7016   27.4758 C   0  0  0  0  0  0  0  0  0  0  0  0
    8.2954  -15.8097   27.4659 O   0  0  0  0  0  0  0  0  0  0  0  0
    9.8130  -14.3576   28.4322 O   0  0  0  0  0  0  0  0  0  0  0  0
  2  1  1  1
  2  3  1  0
  4  6  1  0
  4  2  1  0
  4  5  1  6
  6 13  1  0
  7  6  2  0
  8  9  1  0
  9 11  1  0
 10  9  2  0
 12 11  1  1
 12 13  1  0
 12 14  1  0
 14 16  1  0
 15 14  2  0
 16 20  1  0
 16 17  1  0
 17 18  1  0
 19 18  1  0
 20 21  1  1
 20 19  1  0
 21 23  1  0
 22 21  2  0
M  END
$$$$
