TNP.pdb
     RDKit          3D

 23 23  0  0  1  0  0  0  0  0999 V2000
    9.8311  -14.1985   18.3131 C   0  0  0  0  0  0  0  0  0  0  0  0
    9.4256  -14.1189   19.7541 C   0  0  1  0  0  0  0  0  0  0  0  0
   10.1046  -13.1207   20.4564 O   0  0  0  0  0  0  0  0  0  0  0  0
    7.9451  -14.0375   19.9680 C   0  0  2  0  0  0  0  0  0  0  0  0
    7.4121  -12.8645   19.3559 N   0  0  0  0  0  0  0  0  0  0  0  0
    7.5385  -14.2036   21.3816 C   0  0  0  0  0  0  0  0  0  0  0  0
    7.0771  -13.2063   21.9928 O   0  0  0  0  0  0  0  0  0  0  0  0
    5.6108  -18.2381   25.2583 N   0  0  0  0  0  0  0  0  0  0  0  0
    6.8209  -17.5513   25.0227 C   0  0  0  0  0  0  0  0  0  0  0  0
    7.5720  -17.3252   26.0016 O   0  0  0  0  0  0  0  0  0  0  0  0
    7.1437  -17.1362   23.6568 C   0  0  0  0  0  0  0  0  0  0  0  0
    7.1647  -15.6420   23.4404 C   0  0  2  0  0  0  0  0  0  0  0  0
    7.6465  -15.4371   22.0760 N   0  0  0  0  0  0  0  0  0  0  0  0
    8.1199  -15.0677   24.4259 C   0  0  0  0  0  0  0  0  0  0  0  0
    9.3527  -15.2464   24.1851 O   0  0  0  0  0  0  0  0  0  0  0  0
    7.7599  -14.3623   25.5683 N   0  0  0  0  0  0  0  0  0  0  0  0
    6.4164  -14.1320   26.0562 C   0  0  0  0  0  0  0  0  0  0  0  0
    6.4588  -12.7334   26.6729 C   0  0  0  0  0  0  0  0  0  0  0  0
    7.8991  -12.5153   27.0416 C   0  0  0  0  0  0  0  0  0  0  0  0
    8.6476  -13.7095   26.4982 C   0  0  1  0  0  0  0  0  0  0  0  0
    9.0649  -14.6419   27.5658 C   0  0  0  0  0  0  0  0  0  0  0  0
    8.5403  -15.7777   27.6062 O   0  0  0  0  0  0  0  0  0  0  0  0
   10.0160  -14.2253   28.4766 O   0  0  0  0  0  0  0  0  0  0  0  0
  2  1  1  6
  2  3  1  0
  4  6  1  0
  4  2  1  0
  4  5  1  1
  6 13  1  0
  7  6  2  0
  8  9  1  0
  9 11  1  0
 10  9  2  0
 12 11  1  1
 12 13  1  0
 12 14  1  0
 14 16  1  0
 15 14  2  0
 16 20  1  0
 16 17  1  0
 17 18  1  0
 19 18  1  0
 20 21  1  1
 20 19  1  0
 21 23  1  0
 22 21  2  0
M  END
$$$$
