TNP.pdb
     RDKit          3D

 23 23  0  0  1  0  0  0  0  0999 V2000
    8.7760  -12.0989   20.1457 C   0  0  0  0  0  0  0  0  0  0  0  0
    8.4871  -13.0614   19.0334 C   0  0  1  0  0  0  0  0  0  0  0  0
    9.2305  -12.7999   17.8802 O   0  0  0  0  0  0  0  0  0  0  0  0
    8.5753  -14.5021   19.4345 C   0  0  2  0  0  0  0  0  0  0  0  0
    8.2194  -15.3506   18.3445 N   0  0  0  0  0  0  0  0  0  0  0  0
    7.8531  -14.8156   20.6880 C   0  0  0  0  0  0  0  0  0  0  0  0
    6.6078  -14.9816   20.6358 O   0  0  0  0  0  0  0  0  0  0  0  0
    7.2811  -18.4599   21.6749 N   0  0  0  0  0  0  0  0  0  0  0  0
    6.8459  -17.4552   22.5651 C   0  0  0  0  0  0  0  0  0  0  0  0
    5.6149  -17.2266   22.6417 O   0  0  0  0  0  0  0  0  0  0  0  0
    7.8427  -16.7296   23.3539 C   0  0  0  0  0  0  0  0  0  0  0  0
    7.8030  -15.2287   23.1929 C   0  0  2  0  0  0  0  0  0  0  0  0
    8.5036  -14.9368   21.9440 N   0  0  0  0  0  0  0  0  0  0  0  0
    8.5292  -14.6421   24.3513 C   0  0  0  0  0  0  0  0  0  0  0  0
    9.7963  -14.6822   24.3004 O   0  0  0  0  0  0  0  0  0  0  0  0
    7.9252  -14.0642   25.4620 N   0  0  0  0  0  0  0  0  0  0  0  0
    6.5048  -13.8950   25.6851 C   0  0  0  0  0  0  0  0  0  0  0  0
    6.3826  -12.5696   26.4379 C   0  0  0  0  0  0  0  0  0  0  0  0
    7.7113  -12.3835   27.1144 C   0  0  0  0  0  0  0  0  0  0  0  0
    8.5872  -13.5087   26.6162 C   0  0  1  0  0  0  0  0  0  0  0  0
    8.8042  -14.5469   27.6450 C   0  0  0  0  0  0  0  0  0  0  0  0
    8.2221  -15.6475   27.5158 O   0  0  0  0  0  0  0  0  0  0  0  0
    9.6395  -14.2636   28.7080 O   0  0  0  0  0  0  0  0  0  0  0  0
  2  1  1  1
  2  3  1  0
  4  6  1  0
  4  2  1  0
  4  5  1  6
  6 13  1  0
  7  6  2  0
  8  9  1  0
  9 11  1  0
 10  9  2  0
 12 11  1  1
 12 13  1  0
 12 14  1  0
 14 16  1  0
 15 14  2  0
 16 20  1  0
 16 17  1  0
 17 18  1  0
 19 18  1  0
 20 21  1  1
 20 19  1  0
 21 23  1  0
 22 21  2  0
M  END
$$$$
