TNP.pdb
     RDKit          3D

 23 23  0  0  1  0  0  0  0  0999 V2000
    8.6171  -12.7726   20.5270 C   0  0  0  0  0  0  0  0  0  0  0  0
    7.9952  -13.7829   19.6106 C   0  0  1  0  0  0  0  0  0  0  0  0
    8.5592  -13.7789   18.3328 O   0  0  0  0  0  0  0  0  0  0  0  0
    7.9282  -15.1659   20.1824 C   0  0  2  0  0  0  0  0  0  0  0  0
    7.3263  -16.0657   19.2535 N   0  0  0  0  0  0  0  0  0  0  0  0
    7.3275  -15.2221   21.5341 C   0  0  0  0  0  0  0  0  0  0  0  0
    6.1357  -14.8470   21.6754 O   0  0  0  0  0  0  0  0  0  0  0  0
    5.5763  -17.2738   22.7694 N   0  0  0  0  0  0  0  0  0  0  0  0
    6.3410  -17.8989   23.7774 C   0  0  0  0  0  0  0  0  0  0  0  0
    6.0803  -19.0925   24.0618 O   0  0  0  0  0  0  0  0  0  0  0  0
    7.3964  -17.1327   24.4415 C   0  0  0  0  0  0  0  0  0  0  0  0
    7.4792  -15.6832   24.0265 C   0  0  2  0  0  0  0  0  0  0  0  0
    8.0366  -15.6800   22.6755 N   0  0  0  0  0  0  0  0  0  0  0  0
    8.4019  -15.0051   24.9762 C   0  0  0  0  0  0  0  0  0  0  0  0
    9.6426  -15.1283   24.7410 O   0  0  0  0  0  0  0  0  0  0  0  0
    8.0042  -14.2603   26.0805 N   0  0  0  0  0  0  0  0  0  0  0  0
    6.6459  -13.9370   26.4632 C   0  0  0  0  0  0  0  0  0  0  0  0
    6.7329  -12.5345   27.0662 C   0  0  0  0  0  0  0  0  0  0  0  0
    8.1528  -12.4031   27.5400 C   0  0  0  0  0  0  0  0  0  0  0  0
    8.8607  -13.6510   27.0676 C   0  0  1  0  0  0  0  0  0  0  0  0
    9.1358  -14.5913   28.1737 C   0  0  0  0  0  0  0  0  0  0  0  0
    8.5072  -15.6732   28.2089 O   0  0  0  0  0  0  0  0  0  0  0  0
   10.0743  -14.2411   29.1247 O   0  0  0  0  0  0  0  0  0  0  0  0
  2  1  1  1
  2  3  1  0
  4  6  1  0
  4  2  1  0
  4  5  1  6
  6 13  1  0
  7  6  2  0
  8  9  1  0
  9 11  1  0
 10  9  2  0
 12 11  1  1
 12 13  1  0
 12 14  1  0
 14 16  1  0
 15 14  2  0
 16 20  1  0
 16 17  1  0
 17 18  1  0
 19 18  1  0
 20 21  1  1
 20 19  1  0
 21 23  1  0
 22 21  2  0
M  END
$$$$
