TNP.pdb
     RDKit          3D

 23 23  0  0  1  0  0  0  0  0999 V2000
   10.9150  -14.3267   18.5615 C   0  0  0  0  0  0  0  0  0  0  0  0
   10.2036  -14.1967   19.8746 C   0  0  1  0  0  0  0  0  0  0  0  0
   10.7408  -13.1965   20.6881 O   0  0  0  0  0  0  0  0  0  0  0  0
    8.7157  -14.0724   19.7530 C   0  0  2  0  0  0  0  0  0  0  0  0
    8.3689  -12.9483   18.9462 N   0  0  0  0  0  0  0  0  0  0  0  0
    8.0078  -14.1084   21.0525 C   0  0  0  0  0  0  0  0  0  0  0  0
    7.5012  -13.0430   21.4878 O   0  0  0  0  0  0  0  0  0  0  0  0
    6.8578  -18.3528   21.5144 N   0  0  0  0  0  0  0  0  0  0  0  0
    6.1886  -17.4820   22.4007 C   0  0  0  0  0  0  0  0  0  0  0  0
    4.9494  -17.3407   22.2667 O   0  0  0  0  0  0  0  0  0  0  0  0
    6.9643  -16.7876   23.4294 C   0  0  0  0  0  0  0  0  0  0  0  0
    7.2334  -15.3304   23.1393 C   0  0  2  0  0  0  0  0  0  0  0  0
    7.8761  -15.2906   21.8274 N   0  0  0  0  0  0  0  0  0  0  0  0
    8.1603  -14.8355   24.1926 C   0  0  0  0  0  0  0  0  0  0  0  0
    9.3926  -15.0830   24.0200 O   0  0  0  0  0  0  0  0  0  0  0  0
    7.7748  -14.1338   25.3290 N   0  0  0  0  0  0  0  0  0  0  0  0
    6.4393  -13.6794   25.6545 C   0  0  0  0  0  0  0  0  0  0  0  0
    6.6448  -12.3471   26.3764 C   0  0  0  0  0  0  0  0  0  0  0  0
    8.0338  -12.4237   26.9445 C   0  0  0  0  0  0  0  0  0  0  0  0
    8.6246  -13.7084   26.4134 C   0  0  1  0  0  0  0  0  0  0  0  0
    8.7117  -14.7559   27.4519 C   0  0  0  0  0  0  0  0  0  0  0  0
    7.9125  -15.7179   27.3992 O   0  0  0  0  0  0  0  0  0  0  0  0
    9.6698  -14.6337   28.4393 O   0  0  0  0  0  0  0  0  0  0  0  0
  2  1  1  6
  2  3  1  0
  4  6  1  0
  4  2  1  0
  4  5  1  1
  6 13  1  0
  7  6  2  0
  8  9  1  0
  9 11  1  0
 10  9  2  0
 12 11  1  1
 12 13  1  0
 12 14  1  0
 14 16  1  0
 15 14  2  0
 16 20  1  0
 16 17  1  0
 17 18  1  0
 19 18  1  0
 20 21  1  1
 20 19  1  0
 21 23  1  0
 22 21  2  0
M  END
$$$$
