TNP.pdb
     RDKit          3D

 23 23  0  0  1  0  0  0  0  0999 V2000
    8.7065  -12.7455   20.4271 C   0  0  0  0  0  0  0  0  0  0  0  0
    8.0725  -13.7852   19.5528 C   0  0  1  0  0  0  0  0  0  0  0  0
    8.6565  -13.8613   18.2864 O   0  0  0  0  0  0  0  0  0  0  0  0
    7.9598  -15.1349   20.1930 C   0  0  2  0  0  0  0  0  0  0  0  0
    7.3824  -16.0743   19.2881 N   0  0  0  0  0  0  0  0  0  0  0  0
    7.3030  -15.1109   21.5194 C   0  0  0  0  0  0  0  0  0  0  0  0
    6.1478  -14.6221   21.6064 O   0  0  0  0  0  0  0  0  0  0  0  0
    5.6641  -17.1746   22.4679 N   0  0  0  0  0  0  0  0  0  0  0  0
    6.2094  -17.7696   23.6255 C   0  0  0  0  0  0  0  0  0  0  0  0
    5.8879  -18.9531   23.8887 O   0  0  0  0  0  0  0  0  0  0  0  0
    7.1193  -16.9852   24.4616 C   0  0  0  0  0  0  0  0  0  0  0  0
    7.3048  -15.5533   24.0197 C   0  0  2  0  0  0  0  0  0  0  0  0
    7.9190  -15.6146   22.6950 N   0  0  0  0  0  0  0  0  0  0  0  0
    8.2242  -14.9071   24.9947 C   0  0  0  0  0  0  0  0  0  0  0  0
    9.4622  -14.9612   24.7225 O   0  0  0  0  0  0  0  0  0  0  0  0
    7.8259  -14.2605   26.1591 N   0  0  0  0  0  0  0  0  0  0  0  0
    6.4829  -14.1916   26.6951 C   0  0  0  0  0  0  0  0  0  0  0  0
    6.3865  -12.8044   27.3312 C   0  0  0  0  0  0  0  0  0  0  0  0
    7.8044  -12.4265   27.6547 C   0  0  0  0  0  0  0  0  0  0  0  0
    8.6652  -13.5206   27.0685 C   0  0  1  0  0  0  0  0  0  0  0  0
    9.2234  -14.4108   28.1073 C   0  0  0  0  0  0  0  0  0  0  0  0
    9.9997  -13.9223   28.9592 O   0  0  0  0  0  0  0  0  0  0  0  0
    8.8680  -15.7456   28.0987 O   0  0  0  0  0  0  0  0  0  0  0  0
  2  1  1  1
  2  3  1  0
  4  6  1  0
  4  2  1  0
  4  5  1  6
  6 13  1  0
  7  6  2  0
  8  9  1  0
  9 11  1  0
 10  9  2  0
 12 11  1  1
 12 13  1  0
 12 14  1  0
 14 16  1  0
 15 14  2  0
 16 20  1  0
 16 17  1  0
 17 18  1  0
 19 18  1  0
 20 21  1  1
 20 19  1  0
 21 23  1  0
 22 21  2  0
M  END
$$$$
