TNP.pdb
     RDKit          3D

 23 23  0  0  1  0  0  0  0  0999 V2000
   10.6636  -13.9662   18.3425 C   0  0  0  0  0  0  0  0  0  0  0  0
   10.0708  -13.9543   19.7193 C   0  0  1  0  0  0  0  0  0  0  0  0
   10.6400  -12.9854   20.5487 O   0  0  0  0  0  0  0  0  0  0  0  0
    8.5742  -13.8906   19.7389 C   0  0  2  0  0  0  0  0  0  0  0  0
    8.1114  -12.7222   19.0641 N   0  0  0  0  0  0  0  0  0  0  0  0
    7.9893  -14.0653   21.0875 C   0  0  0  0  0  0  0  0  0  0  0  0
    7.4342  -13.0769   21.6316 O   0  0  0  0  0  0  0  0  0  0  0  0
    5.6784  -18.2948   24.6367 N   0  0  0  0  0  0  0  0  0  0  0  0
    6.7828  -17.4179   24.5840 C   0  0  0  0  0  0  0  0  0  0  0  0
    7.2857  -17.0355   25.6678 O   0  0  0  0  0  0  0  0  0  0  0  0
    7.2890  -16.9965   23.2770 C   0  0  0  0  0  0  0  0  0  0  0  0
    7.4049  -15.5016   23.0981 C   0  0  2  0  0  0  0  0  0  0  0  0
    8.0276  -15.2972   21.7919 N   0  0  0  0  0  0  0  0  0  0  0  0
    8.2863  -14.9951   24.1844 C   0  0  0  0  0  0  0  0  0  0  0  0
    9.5291  -15.2106   24.0477 O   0  0  0  0  0  0  0  0  0  0  0  0
    7.8487  -14.3150   25.3150 N   0  0  0  0  0  0  0  0  0  0  0  0
    6.4781  -14.0029   25.6613 C   0  0  0  0  0  0  0  0  0  0  0  0
    6.5498  -12.6404   26.3517 C   0  0  0  0  0  0  0  0  0  0  0  0
    7.9499  -12.5512   26.8899 C   0  0  0  0  0  0  0  0  0  0  0  0
    8.6681  -13.7747   26.3713 C   0  0  1  0  0  0  0  0  0  0  0  0
    8.8911  -14.7829   27.4283 C   0  0  0  0  0  0  0  0  0  0  0  0
    8.2586  -15.8615   27.3687 O   0  0  0  0  0  0  0  0  0  0  0  0
    9.7873  -14.4971   28.4397 O   0  0  0  0  0  0  0  0  0  0  0  0
  2  1  1  6
  2  3  1  0
  4  6  1  0
  4  2  1  0
  4  5  1  1
  6 13  1  0
  7  6  2  0
  8  9  1  0
  9 11  1  0
 10  9  2  0
 12 11  1  1
 12 13  1  0
 12 14  1  0
 14 16  1  0
 15 14  2  0
 16 20  1  0
 16 17  1  0
 17 18  1  0
 19 18  1  0
 20 21  1  1
 20 19  1  0
 21 23  1  0
 22 21  2  0
M  END
$$$$
