TNP.pdb
     RDKit          3D

 23 23  0  0  1  0  0  0  0  0999 V2000
    8.5699  -12.5745   20.2150 C   0  0  0  0  0  0  0  0  0  0  0  0
    8.0813  -13.6304   19.2698 C   0  0  1  0  0  0  0  0  0  0  0  0
    8.7133  -13.5817   18.0252 O   0  0  0  0  0  0  0  0  0  0  0  0
    8.0917  -15.0145   19.8427 C   0  0  2  0  0  0  0  0  0  0  0  0
    7.6734  -15.9664   18.8661 N   0  0  0  0  0  0  0  0  0  0  0  0
    7.3692  -15.1311   21.1294 C   0  0  0  0  0  0  0  0  0  0  0  0
    6.1677  -15.5012   21.1096 O   0  0  0  0  0  0  0  0  0  0  0  0
    7.4700  -18.3329   25.5398 N   0  0  0  0  0  0  0  0  0  0  0  0
    6.7495  -17.3089   24.8887 C   0  0  0  0  0  0  0  0  0  0  0  0
    5.6610  -16.9408   25.3919 O   0  0  0  0  0  0  0  0  0  0  0  0
    7.3001  -16.7260   23.6643 C   0  0  0  0  0  0  0  0  0  0  0  0
    7.3854  -15.2185   23.6670 C   0  0  2  0  0  0  0  0  0  0  0  0
    7.9722  -14.8437   22.3820 N   0  0  0  0  0  0  0  0  0  0  0  0
    8.2843  -14.8302   24.7872 C   0  0  0  0  0  0  0  0  0  0  0  0
    9.4747  -15.2653   24.7307 O   0  0  0  0  0  0  0  0  0  0  0  0
    7.9152  -14.0384   25.8685 N   0  0  0  0  0  0  0  0  0  0  0  0
    6.5733  -13.6247   26.2206 C   0  0  0  0  0  0  0  0  0  0  0  0
    6.7362  -12.2172   26.7954 C   0  0  0  0  0  0  0  0  0  0  0  0
    8.1537  -12.1620   27.2910 C   0  0  0  0  0  0  0  0  0  0  0  0
    8.7913  -13.4608   26.8572 C   0  0  1  0  0  0  0  0  0  0  0  0
    8.9906  -14.3915   27.9875 C   0  0  0  0  0  0  0  0  0  0  0  0
    9.7523  -14.0464   28.9190 O   0  0  0  0  0  0  0  0  0  0  0  0
    8.3299  -15.6045   27.9730 O   0  0  0  0  0  0  0  0  0  0  0  0
  2  1  1  1
  2  3  1  0
  4  6  1  0
  4  2  1  0
  4  5  1  6
  6 13  1  0
  7  6  2  0
  8  9  1  0
  9 11  1  0
 10  9  2  0
 12 11  1  6
 12 13  1  0
 12 14  1  0
 14 16  1  0
 15 14  2  0
 16 20  1  0
 16 17  1  0
 17 18  1  0
 19 18  1  0
 20 21  1  1
 20 19  1  0
 21 23  1  0
 22 21  2  0
M  END
$$$$
