TNP.pdb
     RDKit          3D

 23 23  0  0  1  0  0  0  0  0999 V2000
    8.5468  -12.6840   20.3709 C   0  0  0  0  0  0  0  0  0  0  0  0
    8.0217  -13.6967   19.3984 C   0  0  1  0  0  0  0  0  0  0  0  0
    8.6548  -13.6367   18.1549 O   0  0  0  0  0  0  0  0  0  0  0  0
    7.9842  -15.0952   19.9341 C   0  0  2  0  0  0  0  0  0  0  0  0
    7.4439  -15.9911   18.9644 N   0  0  0  0  0  0  0  0  0  0  0  0
    7.3426  -15.2058   21.2635 C   0  0  0  0  0  0  0  0  0  0  0  0
    6.1090  -14.9792   21.3533 O   0  0  0  0  0  0  0  0  0  0  0  0
    6.6792  -18.8415   22.6767 N   0  0  0  0  0  0  0  0  0  0  0  0
    6.3495  -17.8170   23.5895 C   0  0  0  0  0  0  0  0  0  0  0  0
    5.1374  -17.6237   23.8480 O   0  0  0  0  0  0  0  0  0  0  0  0
    7.4285  -17.0312   24.1899 C   0  0  0  0  0  0  0  0  0  0  0  0
    7.4593  -15.5805   23.7721 C   0  0  2  0  0  0  0  0  0  0  0  0
    8.0575  -15.5556   22.4390 N   0  0  0  0  0  0  0  0  0  0  0  0
    8.3212  -14.8595   24.7472 C   0  0  0  0  0  0  0  0  0  0  0  0
    9.5741  -14.9871   24.5934 O   0  0  0  0  0  0  0  0  0  0  0  0
    7.8555  -14.0711   25.7932 N   0  0  0  0  0  0  0  0  0  0  0  0
    6.4833  -13.6800   26.0381 C   0  0  0  0  0  0  0  0  0  0  0  0
    6.5768  -12.2681   26.6178 C   0  0  0  0  0  0  0  0  0  0  0  0
    7.9502  -12.1867   27.2218 C   0  0  0  0  0  0  0  0  0  0  0  0
    8.6420  -13.4754   26.8446 C   0  0  1  0  0  0  0  0  0  0  0  0
    8.7686  -14.3992   27.9909 C   0  0  0  0  0  0  0  0  0  0  0  0
    9.5045  -14.0674   28.9476 O   0  0  0  0  0  0  0  0  0  0  0  0
    8.0714  -15.5912   27.9629 O   0  0  0  0  0  0  0  0  0  0  0  0
  2  1  1  1
  2  3  1  0
  4  6  1  0
  4  2  1  0
  4  5  1  6
  6 13  1  0
  7  6  2  0
  8  9  1  0
  9 11  1  0
 10  9  2  0
 12 11  1  1
 12 13  1  0
 12 14  1  0
 14 16  1  0
 15 14  2  0
 16 20  1  0
 16 17  1  0
 17 18  1  0
 19 18  1  0
 20 21  1  1
 20 19  1  0
 21 23  1  0
 22 21  2  0
M  END
$$$$
