TNP.pdb
     RDKit          3D

 23 23  0  0  1  0  0  0  0  0999 V2000
    8.9383  -12.6228   20.4590 C   0  0  0  0  0  0  0  0  0  0  0  0
    8.2869  -13.4480   19.3904 C   0  0  1  0  0  0  0  0  0  0  0  0
    8.9328  -13.3485   18.1561 O   0  0  0  0  0  0  0  0  0  0  0  0
    8.0524  -14.8755   19.7795 C   0  0  2  0  0  0  0  0  0  0  0  0
    7.4786  -15.6046   18.6960 N   0  0  0  0  0  0  0  0  0  0  0  0
    7.3147  -15.0312   21.0534 C   0  0  0  0  0  0  0  0  0  0  0  0
    6.0971  -15.3416   21.0057 O   0  0  0  0  0  0  0  0  0  0  0  0
    6.6005  -16.6444   25.8986 N   0  0  0  0  0  0  0  0  0  0  0  0
    6.9212  -17.4492   24.7846 C   0  0  0  0  0  0  0  0  0  0  0  0
    6.8255  -18.6938   24.9080 O   0  0  0  0  0  0  0  0  0  0  0  0
    7.3480  -16.8009   23.5438 C   0  0  0  0  0  0  0  0  0  0  0  0
    7.3195  -15.2916   23.5792 C   0  0  2  0  0  0  0  0  0  0  0  0
    7.9204  -14.8457   22.3238 N   0  0  0  0  0  0  0  0  0  0  0  0
    8.1474  -14.8625   24.7385 C   0  0  0  0  0  0  0  0  0  0  0  0
    9.3678  -15.2087   24.7178 O   0  0  0  0  0  0  0  0  0  0  0  0
    7.6833  -14.1222   25.8197 N   0  0  0  0  0  0  0  0  0  0  0  0
    6.3041  -13.8024   26.1220 C   0  0  0  0  0  0  0  0  0  0  0  0
    6.3525  -12.4019   26.7338 C   0  0  0  0  0  0  0  0  0  0  0  0
    7.7415  -12.2699   27.2917 C   0  0  0  0  0  0  0  0  0  0  0  0
    8.4785  -13.5150   26.8580 C   0  0  1  0  0  0  0  0  0  0  0  0
    8.6890  -14.4588   27.9753 C   0  0  0  0  0  0  0  0  0  0  0  0
    8.0493  -15.5347   27.9776 O   0  0  0  0  0  0  0  0  0  0  0  0
    9.5819  -14.1182   28.9726 O   0  0  0  0  0  0  0  0  0  0  0  0
  2  1  1  1
  2  3  1  0
  4  6  1  0
  4  2  1  0
  4  5  1  6
  6 13  1  0
  7  6  2  0
  8  9  1  0
  9 11  1  0
 10  9  2  0
 12 11  1  6
 12 13  1  0
 12 14  1  0
 14 16  1  0
 15 14  2  0
 16 20  1  0
 16 17  1  0
 17 18  1  0
 19 18  1  0
 20 21  1  1
 20 19  1  0
 21 23  1  0
 22 21  2  0
M  END
$$$$
