TNP.pdb
     RDKit          3D

 23 23  0  0  1  0  0  0  0  0999 V2000
   11.3495  -20.0135   18.3228 C   0  0  0  0  0  0  0  0  0  0  0  0
   11.0703  -18.9645   19.3567 C   0  0  1  0  0  0  0  0  0  0  0  0
   11.8375  -19.1220   20.5131 O   0  0  0  0  0  0  0  0  0  0  0  0
   11.1350  -17.5615   18.8356 C   0  0  2  0  0  0  0  0  0  0  0  0
   12.4500  -17.2561   18.3748 N   0  0  0  0  0  0  0  0  0  0  0  0
   10.5875  -16.5537   19.7716 C   0  0  0  0  0  0  0  0  0  0  0  0
   11.3738  -15.9997   20.5815 O   0  0  0  0  0  0  0  0  0  0  0  0
    8.6411  -13.2676   18.9018 N   0  0  0  0  0  0  0  0  0  0  0  0
    7.3815  -13.8223   19.2136 C   0  0  0  0  0  0  0  0  0  0  0  0
    6.3792  -13.4005   18.5883 O   0  0  0  0  0  0  0  0  0  0  0  0
    7.3008  -14.8574   20.2452 C   0  0  0  0  0  0  0  0  0  0  0  0
    8.6337  -15.2997   20.7999 C   0  0  2  0  0  0  0  0  0  0  0  0
    9.2165  -16.1862   19.7948 N   0  0  0  0  0  0  0  0  0  0  0  0
    8.3619  -16.0423   22.0600 C   0  0  0  0  0  0  0  0  0  0  0  0
    8.5487  -17.2968   22.0258 O   0  0  0  0  0  0  0  0  0  0  0  0
    7.9270  -15.4659   23.2478 N   0  0  0  0  0  0  0  0  0  0  0  0
    7.4912  -14.0985   23.4379 C   0  0  0  0  0  0  0  0  0  0  0  0
    7.9667  -13.7284   24.8433 C   0  0  0  0  0  0  0  0  0  0  0  0
    8.0861  -15.0381   25.5701 C   0  0  0  0  0  0  0  0  0  0  0  0
    7.8265  -16.1073   24.5352 C   0  0  1  0  0  0  0  0  0  0  0  0
    6.5013  -16.7390   24.7031 C   0  0  0  0  0  0  0  0  0  0  0  0
    5.6190  -16.5149   23.8439 O   0  0  0  0  0  0  0  0  0  0  0  0
    6.2872  -17.5511   25.7998 O   0  0  0  0  0  0  0  0  0  0  0  0
  2  1  1  6
  2  3  1  0
  4  6  1  0
  4  2  1  0
  4  5  1  1
  6 13  1  0
  7  6  2  0
  8  9  1  0
  9 11  1  0
 10  9  2  0
 12 11  1  6
 12 13  1  0
 12 14  1  0
 14 16  1  0
 15 14  2  0
 16 20  1  0
 16 17  1  0
 17 18  1  0
 19 18  1  0
 20 21  1  1
 20 19  1  0
 21 23  1  0
 22 21  2  0
M  END
$$$$
