TNP.pdb
     RDKit          3D

 23 23  0  0  1  0  0  0  0  0999 V2000
    3.2201  -19.2569   19.9529 C   0  0  0  0  0  0  0  0  0  0  0  0
    3.5825  -18.7088   21.3002 C   0  0  1  0  0  0  0  0  0  0  0  0
    2.5382  -18.0002   21.8987 O   0  0  0  0  0  0  0  0  0  0  0  0
    4.1705  -19.7225   22.2335 C   0  0  2  0  0  0  0  0  0  0  0  0
    3.2020  -20.7121   22.5764 N   0  0  0  0  0  0  0  0  0  0  0  0
    4.8489  -19.1275   23.4069 C   0  0  0  0  0  0  0  0  0  0  0  0
    4.2168  -19.0570   24.4916 O   0  0  0  0  0  0  0  0  0  0  0  0
   10.1641  -17.8748   23.3457 N   0  0  0  0  0  0  0  0  0  0  0  0
    8.9560  -18.5905   23.4858 C   0  0  0  0  0  0  0  0  0  0  0  0
    8.6350  -19.3915   22.5754 O   0  0  0  0  0  0  0  0  0  0  0  0
    8.1371  -18.3684   24.6784 C   0  0  0  0  0  0  0  0  0  0  0  0
    6.7670  -17.7958   24.4043 C   0  0  2  0  0  0  0  0  0  0  0  0
    6.1791  -18.6338   23.3613 N   0  0  0  0  0  0  0  0  0  0  0  0
    6.9612  -16.4052   23.9125 C   0  0  0  0  0  0  0  0  0  0  0  0
    6.9172  -16.2412   22.6552 O   0  0  0  0  0  0  0  0  0  0  0  0
    7.1819  -15.2964   24.7214 N   0  0  0  0  0  0  0  0  0  0  0  0
    7.3324  -15.2912   26.1613 C   0  0  0  0  0  0  0  0  0  0  0  0
    6.6843  -13.9836   26.6174 C   0  0  0  0  0  0  0  0  0  0  0  0
    6.7591  -13.0758   25.4224 C   0  0  0  0  0  0  0  0  0  0  0  0
    7.2996  -13.9240   24.2954 C   0  0  1  0  0  0  0  0  0  0  0  0
    8.7032  -13.5953   23.9708 C   0  0  0  0  0  0  0  0  0  0  0  0
    8.9616  -12.4565   23.5201 O   0  0  0  0  0  0  0  0  0  0  0  0
    9.6745  -14.5555   24.1769 O   0  0  0  0  0  0  0  0  0  0  0  0
  2  1  1  6
  2  3  1  0
  4  6  1  0
  4  2  1  0
  4  5  1  1
  6 13  1  0
  7  6  2  0
  8  9  1  0
  9 11  1  0
 10  9  2  0
 12 11  1  6
 12 13  1  0
 12 14  1  0
 14 16  1  0
 15 14  2  0
 16 20  1  0
 16 17  1  0
 17 18  1  0
 19 18  1  0
 20 21  1  1
 20 19  1  0
 21 23  1  0
 22 21  2  0
M  END
$$$$
