TNP.pdb
     RDKit          3D

 23 23  0  0  1  0  0  0  0  0999 V2000
    8.2801  -12.8787   18.0588 C   0  0  0  0  0  0  0  0  0  0  0  0
    7.6399  -13.4671   19.2799 C   0  0  1  0  0  0  0  0  0  0  0  0
    6.8743  -14.6013   19.0004 O   0  0  0  0  0  0  0  0  0  0  0  0
    8.5908  -13.7059   20.4126 C   0  0  2  0  0  0  0  0  0  0  0  0
    9.5651  -14.6841   20.0539 N   0  0  0  0  0  0  0  0  0  0  0  0
    7.9208  -13.9843   21.7029 C   0  0  0  0  0  0  0  0  0  0  0  0
    7.2240  -13.0762   22.2236 O   0  0  0  0  0  0  0  0  0  0  0  0
    6.4868  -16.5588   26.0716 N   0  0  0  0  0  0  0  0  0  0  0  0
    6.8028  -17.4937   25.0628 C   0  0  0  0  0  0  0  0  0  0  0  0
    6.6161  -18.7102   25.3054 O   0  0  0  0  0  0  0  0  0  0  0  0
    7.3306  -17.0063   23.7876 C   0  0  0  0  0  0  0  0  0  0  0  0
    7.4158  -15.5030   23.6742 C   0  0  2  0  0  0  0  0  0  0  0  0
    8.0302  -15.2290   22.3768 N   0  0  0  0  0  0  0  0  0  0  0  0
    8.2903  -15.0268   24.7797 C   0  0  0  0  0  0  0  0  0  0  0  0
    9.5049  -15.3902   24.7333 O   0  0  0  0  0  0  0  0  0  0  0  0
    7.8745  -14.2262   25.8374 N   0  0  0  0  0  0  0  0  0  0  0  0
    6.5290  -13.7559   26.0904 C   0  0  0  0  0  0  0  0  0  0  0  0
    6.7087  -12.3605   26.6894 C   0  0  0  0  0  0  0  0  0  0  0  0
    8.0853  -12.3711   27.2918 C   0  0  0  0  0  0  0  0  0  0  0  0
    8.6970  -13.6941   26.8954 C   0  0  1  0  0  0  0  0  0  0  0  0
    8.7685  -14.6398   28.0285 C   0  0  0  0  0  0  0  0  0  0  0  0
    7.9952  -15.6241   28.0355 O   0  0  0  0  0  0  0  0  0  0  0  0
    9.6844  -14.4019   29.0348 O   0  0  0  0  0  0  0  0  0  0  0  0
  2  1  1  6
  2  3  1  0
  4  6  1  0
  4  2  1  0
  4  5  1  6
  6 13  1  0
  7  6  2  0
  8  9  1  0
  9 11  1  0
 10  9  2  0
 12 11  1  1
 12 13  1  0
 12 14  1  0
 14 16  1  0
 15 14  2  0
 16 20  1  0
 16 17  1  0
 17 18  1  0
 19 18  1  0
 20 21  1  1
 20 19  1  0
 21 23  1  0
 22 21  2  0
M  END
$$$$
