TNP.pdb
     RDKit          3D

 23 23  0  0  1  0  0  0  0  0999 V2000
   10.1446  -12.8646   21.1252 C   0  0  0  0  0  0  0  0  0  0  0  0
    9.1776  -12.8238   19.9804 C   0  0  1  0  0  0  0  0  0  0  0  0
    9.7991  -12.5954   18.7506 O   0  0  0  0  0  0  0  0  0  0  0  0
    8.2501  -13.9988   19.9227 C   0  0  2  0  0  0  0  0  0  0  0  0
    7.3615  -13.8843   18.8128 N   0  0  0  0  0  0  0  0  0  0  0  0
    7.5630  -14.2776   21.2039 C   0  0  0  0  0  0  0  0  0  0  0  0
    6.6413  -13.5042   21.5693 O   0  0  0  0  0  0  0  0  0  0  0  0
    5.7736  -17.4253   25.4497 N   0  0  0  0  0  0  0  0  0  0  0  0
    7.1291  -17.4048   25.0576 C   0  0  0  0  0  0  0  0  0  0  0  0
    7.9958  -17.7085   25.9121 O   0  0  0  0  0  0  0  0  0  0  0  0
    7.4613  -17.0330   23.6816 C   0  0  0  0  0  0  0  0  0  0  0  0
    7.3811  -15.5532   23.3918 C   0  0  2  0  0  0  0  0  0  0  0  0
    7.8986  -15.3774   22.0364 N   0  0  0  0  0  0  0  0  0  0  0  0
    8.2534  -14.8631   24.3799 C   0  0  0  0  0  0  0  0  0  0  0  0
    9.4970  -14.8613   24.1287 O   0  0  0  0  0  0  0  0  0  0  0  0
    7.8064  -14.2323   25.5352 N   0  0  0  0  0  0  0  0  0  0  0  0
    6.4340  -14.1112   25.9798 C   0  0  0  0  0  0  0  0  0  0  0  0
    6.3609  -12.7406   26.6539 C   0  0  0  0  0  0  0  0  0  0  0  0
    7.7693  -12.4452   27.0863 C   0  0  0  0  0  0  0  0  0  0  0  0
    8.6148  -13.5636   26.5243 C   0  0  1  0  0  0  0  0  0  0  0  0
    9.0547  -14.5119   27.5686 C   0  0  0  0  0  0  0  0  0  0  0  0
    8.5366  -15.6510   27.5984 O   0  0  0  0  0  0  0  0  0  0  0  0
   10.0192  -14.1059   28.4702 O   0  0  0  0  0  0  0  0  0  0  0  0
  2  1  1  1
  2  3  1  0
  4  6  1  0
  4  2  1  0
  4  5  1  6
  6 13  1  0
  7  6  2  0
  8  9  1  0
  9 11  1  0
 10  9  2  0
 12 11  1  1
 12 13  1  0
 12 14  1  0
 14 16  1  0
 15 14  2  0
 16 20  1  0
 16 17  1  0
 17 18  1  0
 19 18  1  0
 20 21  1  1
 20 19  1  0
 21 23  1  0
 22 21  2  0
M  END
$$$$
