TNP.pdb
     RDKit          3D

 23 23  0  0  1  0  0  0  0  0999 V2000
    9.3094  -12.7360   21.0915 C   0  0  0  0  0  0  0  0  0  0  0  0
    8.3282  -13.0964   20.0171 C   0  0  1  0  0  0  0  0  0  0  0  0
    8.8480  -12.9397   18.7302 O   0  0  0  0  0  0  0  0  0  0  0  0
    7.6917  -14.4404   20.1976 C   0  0  2  0  0  0  0  0  0  0  0  0
    6.7256  -14.6809   19.1760 N   0  0  0  0  0  0  0  0  0  0  0  0
    7.1769  -14.6757   21.5654 C   0  0  0  0  0  0  0  0  0  0  0  0
    6.1098  -14.1065   21.9093 O   0  0  0  0  0  0  0  0  0  0  0  0
    7.5766  -18.4904   26.1240 N   0  0  0  0  0  0  0  0  0  0  0  0
    6.8109  -17.4927   25.4840 C   0  0  0  0  0  0  0  0  0  0  0  0
    5.8743  -16.9626   26.1285 O   0  0  0  0  0  0  0  0  0  0  0  0
    7.1407  -17.1232   24.1067 C   0  0  0  0  0  0  0  0  0  0  0  0
    7.4143  -15.6531   23.8969 C   0  0  2  0  0  0  0  0  0  0  0  0
    7.8339  -15.5141   22.5038 N   0  0  0  0  0  0  0  0  0  0  0  0
    8.5199  -15.2750   24.8178 C   0  0  0  0  0  0  0  0  0  0  0  0
    9.6744  -15.7082   24.5194 O   0  0  0  0  0  0  0  0  0  0  0  0
    8.3759  -14.4944   25.9590 N   0  0  0  0  0  0  0  0  0  0  0  0
    7.1377  -13.9820   26.5069 C   0  0  0  0  0  0  0  0  0  0  0  0
    7.5027  -12.6148   27.0863 C   0  0  0  0  0  0  0  0  0  0  0  0
    8.9744  -12.6972   27.3778 C   0  0  0  0  0  0  0  0  0  0  0  0
    9.4283  -14.0287   26.8275 C   0  0  1  0  0  0  0  0  0  0  0  0
    9.6992  -15.0129   27.8958 C   0  0  0  0  0  0  0  0  0  0  0  0
    8.9495  -16.0106   27.9936 O   0  0  0  0  0  0  0  0  0  0  0  0
   10.7673  -14.7949   28.7440 O   0  0  0  0  0  0  0  0  0  0  0  0
  2  1  1  1
  2  3  1  0
  4  6  1  0
  4  2  1  0
  4  5  1  6
  6 13  1  0
  7  6  2  0
  8  9  1  0
  9 11  1  0
 10  9  2  0
 12 11  1  1
 12 13  1  0
 12 14  1  0
 14 16  1  0
 15 14  2  0
 16 20  1  0
 16 17  1  0
 17 18  1  0
 19 18  1  0
 20 21  1  1
 20 19  1  0
 21 23  1  0
 22 21  2  0
M  END
$$$$
