KKV.pdb
     RDKit          3D

 26 25  0  0  1  0  0  0  0  0999 V2000
   19.2217  -25.7668  -10.9914 N   0  0  0  0  0  0  0  0  0  0  0  0
   19.1937  -24.8527   -9.8853 C   0  0  1  0  0  0  0  0  0  0  0  0
   18.6474  -23.4846  -10.2559 C   0  0  0  0  0  0  0  0  0  0  0  0
   19.2936  -22.8659  -11.4404 C   0  0  0  0  0  0  0  0  0  0  0  0
   18.7287  -23.2153  -12.7705 C   0  0  0  0  0  0  0  0  0  0  0  0
   19.3631  -22.4572  -13.9140 C   0  0  0  0  0  0  0  0  0  0  0  0
   19.0867  -21.0264  -13.8157 N   0  0  0  0  0  0  0  0  0  0  0  0
   18.3670  -25.4427   -8.8049 C   0  0  0  0  0  0  0  0  0  0  0  0
   17.4296  -26.2190   -9.1036 O   0  0  0  0  0  0  0  0  0  0  0  0
   18.6147  -25.1469   -7.4375 N   0  0  0  0  0  0  0  0  0  0  0  0
   17.7816  -25.7469   -6.4427 C   0  0  1  0  0  0  0  0  0  0  0  0
   18.4641  -25.8166   -5.0939 C   0  0  0  0  0  0  0  0  0  0  0  0
   17.5293  -26.5444   -4.1508 C   0  0  0  0  0  0  0  0  0  0  0  0
   18.2648  -26.6931   -2.8322 C   0  0  0  0  0  0  0  0  0  0  0  0
   17.5116  -27.5839   -1.8640 C   0  0  0  0  0  0  0  0  0  0  0  0
   18.2142  -27.6954   -0.5978 N   0  0  0  0  0  0  0  0  0  0  0  0
   16.4977  -25.0273   -6.3583 C   0  0  0  0  0  0  0  0  0  0  0  0
   16.4806  -23.7794   -6.3985 O   0  0  0  0  0  0  0  0  0  0  0  0
   11.7474  -24.8482   -7.2921 C   0  0  0  0  0  0  0  0  0  0  0  0
   13.0623  -25.5975   -7.2556 C   0  0  2  0  0  0  0  0  0  0  0  0
   12.7815  -27.0247   -6.8379 C   0  0  0  0  0  0  0  0  0  0  0  0
   14.0180  -24.9352   -6.2753 C   0  0  2  0  0  0  0  0  0  0  0  0
   15.2458  -25.6998   -6.2301 N   0  0  0  0  0  0  0  0  0  0  0  0
   13.4058  -24.8200   -4.9268 C   0  0  0  0  0  0  0  0  0  0  0  0
   12.5989  -23.7553   -4.6193 O   0  0  0  0  0  0  0  0  0  0  0  0
   13.6027  -25.6819   -4.0316 O   0  0  0  0  0  0  0  0  0  0  0  0
  2  3  1  0
  2  1  1  6
  3  4  1  0
  4  5  1  0
  5  6  1  0
  6  7  1  0
  8  2  1  0
  8  9  2  0
 10  8  1  0
 11 10  1  0
 11 17  1  0
 11 12  1  1
 13 12  1  0
 13 14  1  0
 15 14  1  0
 16 15  1  0
 17 23  1  0
 18 17  2  0
 20 21  1  1
 20 19  1  0
 20 22  1  0
 22 24  1  0
 22 23  1  1
 24 26  2  0
 24 25  1  0
M  END
$$$$
