KKV.pdb
     RDKit          3D

 26 25  0  0  1  0  0  0  0  0999 V2000
   16.4843  -13.1524    4.8645 N   0  0  0  0  0  0  0  0  0  0  0  0
   17.3895  -14.2613    4.7602 C   0  0  1  0  0  0  0  0  0  0  0  0
   18.8290  -13.8871    5.0687 C   0  0  0  0  0  0  0  0  0  0  0  0
   18.9926  -12.5663    5.7260 C   0  0  0  0  0  0  0  0  0  0  0  0
   20.3777  -12.1658    6.0890 C   0  0  0  0  0  0  0  0  0  0  0  0
   20.4446  -10.8944    6.9038 C   0  0  0  0  0  0  0  0  0  0  0  0
   21.8203  -10.5834    7.2836 N   0  0  0  0  0  0  0  0  0  0  0  0
   16.9418  -15.3262    5.6898 C   0  0  0  0  0  0  0  0  0  0  0  0
   16.1493  -15.0385    6.6169 O   0  0  0  0  0  0  0  0  0  0  0  0
   17.3923  -16.6667    5.5520 N   0  0  0  0  0  0  0  0  0  0  0  0
   16.8512  -17.6660    6.4195 C   0  0  1  0  0  0  0  0  0  0  0  0
   16.0325  -18.6920    5.6664 C   0  0  0  0  0  0  0  0  0  0  0  0
   15.3730  -19.5875    6.6939 C   0  0  0  0  0  0  0  0  0  0  0  0
   14.5464  -20.6018    5.9260 C   0  0  0  0  0  0  0  0  0  0  0  0
   13.7965  -21.5367    6.8544 C   0  0  0  0  0  0  0  0  0  0  0  0
   12.8690  -22.3765    6.1169 N   0  0  0  0  0  0  0  0  0  0  0  0
   17.9330  -18.3040    7.1916 C   0  0  0  0  0  0  0  0  0  0  0  0
   19.0805  -18.3827    6.7057 O   0  0  0  0  0  0  0  0  0  0  0  0
   20.5449  -18.9934   10.9748 C   0  0  0  0  0  0  0  0  0  0  0  0
   19.3853  -18.4086   10.1970 C   0  0  2  0  0  0  0  0  0  0  0  0
   18.3080  -18.0107   11.1826 C   0  0  0  0  0  0  0  0  0  0  0  0
   18.8482  -19.4298    9.2063 C   0  0  2  0  0  0  0  0  0  0  0  0
   17.7303  -18.8481    8.4949 N   0  0  0  0  0  0  0  0  0  0  0  0
   18.4536  -20.6859    9.8941 C   0  0  0  0  0  0  0  0  0  0  0  0
   19.3262  -21.7406    9.9678 O   0  0  0  0  0  0  0  0  0  0  0  0
   17.3217  -20.8252   10.4257 O   0  0  0  0  0  0  0  0  0  0  0  0
  2  3  1  0
  2  1  1  1
  3  4  1  0
  4  5  1  0
  5  6  1  0
  6  7  1  0
  8  2  1  0
  8  9  2  0
 10  8  1  0
 11 10  1  0
 11 17  1  0
 11 12  1  6
 13 12  1  0
 13 14  1  0
 15 14  1  0
 16 15  1  0
 17 23  1  0
 18 17  2  0
 20 21  1  1
 20 19  1  0
 20 22  1  0
 22 24  1  0
 22 23  1  1
 24 26  2  0
 24 25  1  0
M  END
$$$$
