KKV.pdb
     RDKit          3D

 26 25  0  0  1  0  0  0  0  0999 V2000
   27.5129  -22.7060  -15.8761 N   0  0  0  0  0  0  0  0  0  0  0  0
   27.3605  -21.4752  -15.1539 C   0  0  1  0  0  0  0  0  0  0  0  0
   27.3030  -20.2562  -16.0585 C   0  0  0  0  0  0  0  0  0  0  0  0
   28.5706  -19.9610  -16.7721 C   0  0  0  0  0  0  0  0  0  0  0  0
   28.6618  -20.4062  -18.1877 C   0  0  0  0  0  0  0  0  0  0  0  0
   29.9059  -19.9195  -18.8948 C   0  0  0  0  0  0  0  0  0  0  0  0
   29.9542  -20.4057  -20.2713 N   0  0  0  0  0  0  0  0  0  0  0  0
   26.1210  -21.5526  -14.3437 C   0  0  0  0  0  0  0  0  0  0  0  0
   25.1521  -22.2256  -14.7667 O   0  0  0  0  0  0  0  0  0  0  0  0
   26.0080  -20.8800  -13.0972 N   0  0  0  0  0  0  0  0  0  0  0  0
   24.7832  -20.9866  -12.3675 C   0  0  1  0  0  0  0  0  0  0  0  0
   24.9414  -20.5627  -10.9235 C   0  0  0  0  0  0  0  0  0  0  0  0
   23.5781  -20.6592  -10.2716 C   0  0  0  0  0  0  0  0  0  0  0  0
   23.7996  -21.1896   -8.8676 C   0  0  0  0  0  0  0  0  0  0  0  0
   22.5056  -21.2599   -8.0809 C   0  0  0  0  0  0  0  0  0  0  0  0
   22.7498  -21.6442   -6.7017 N   0  0  0  0  0  0  0  0  0  0  0  0
   23.7249  -20.2126  -13.0415 C   0  0  0  0  0  0  0  0  0  0  0  0
   23.8942  -18.9970  -13.2712 O   0  0  0  0  0  0  0  0  0  0  0  0
   22.3964  -20.6222  -16.3349 C   0  0  0  0  0  0  0  0  0  0  0  0
   21.1621  -20.5830  -15.4593 C   0  0  2  0  0  0  0  0  0  0  0  0
   20.1073  -19.7598  -16.1663 C   0  0  0  0  0  0  0  0  0  0  0  0
   21.4955  -19.9715  -14.1074 C   0  0  2  0  0  0  0  0  0  0  0  0
   22.4895  -20.7954  -13.4537 N   0  0  0  0  0  0  0  0  0  0  0  0
   20.2774  -19.8307  -13.2690 C   0  0  0  0  0  0  0  0  0  0  0  0
   19.5814  -18.6498  -13.2485 O   0  0  0  0  0  0  0  0  0  0  0  0
   19.8468  -20.7755  -12.5584 O   0  0  0  0  0  0  0  0  0  0  0  0
  2  3  1  0
  2  1  1  6
  3  4  1  0
  4  5  1  0
  5  6  1  0
  6  7  1  0
  8  2  1  0
  8  9  2  0
 10  8  1  0
 11 10  1  0
 11 17  1  0
 11 12  1  1
 13 12  1  0
 13 14  1  0
 15 14  1  0
 16 15  1  0
 17 23  1  0
 18 17  2  0
 20 21  1  6
 20 19  1  0
 20 22  1  0
 22 24  1  0
 22 23  1  1
 24 26  2  0
 24 25  1  0
M  END
$$$$
