KKV.pdb
     RDKit          3D

 26 25  0  0  1  0  0  0  0  0999 V2000
   25.4660  -19.9264   -9.0764 N   0  0  0  0  0  0  0  0  0  0  0  0
   24.7341  -20.7771   -9.9710 C   0  0  1  0  0  0  0  0  0  0  0  0
   23.2347  -20.7461   -9.7305 C   0  0  0  0  0  0  0  0  0  0  0  0
   22.7538  -21.7264   -8.7250 C   0  0  0  0  0  0  0  0  0  0  0  0
   21.3171  -22.1035   -8.7910 C   0  0  0  0  0  0  0  0  0  0  0  0
   20.4155  -21.1890   -7.9938 C   0  0  0  0  0  0  0  0  0  0  0  0
   19.5474  -21.9519   -7.1006 N   0  0  0  0  0  0  0  0  0  0  0  0
   25.0236  -20.3591  -11.3640 C   0  0  0  0  0  0  0  0  0  0  0  0
   25.1744  -19.1418  -11.6208 O   0  0  0  0  0  0  0  0  0  0  0  0
   25.1337  -21.3094  -12.4145 N   0  0  0  0  0  0  0  0  0  0  0  0
   25.4776  -20.8495  -13.7237 C   0  0  1  0  0  0  0  0  0  0  0  0
   26.5416  -21.7106  -14.3691 C   0  0  0  0  0  0  0  0  0  0  0  0
   26.8282  -21.1268  -15.7365 C   0  0  0  0  0  0  0  0  0  0  0  0
   27.8442  -22.0385  -16.3986 C   0  0  0  0  0  0  0  0  0  0  0  0
   28.3533  -21.4609  -17.7045 C   0  0  0  0  0  0  0  0  0  0  0  0
   29.3212  -22.3461  -18.3283 N   0  0  0  0  0  0  0  0  0  0  0  0
   24.2691  -20.7691  -14.5643 C   0  0  0  0  0  0  0  0  0  0  0  0
   23.3871  -21.6480  -14.4706 O   0  0  0  0  0  0  0  0  0  0  0  0
   22.0621  -17.5969  -15.0506 C   0  0  0  0  0  0  0  0  0  0  0  0
   22.3977  -18.2014  -16.3973 C   0  0  2  0  0  0  0  0  0  0  0  0
   21.1753  -18.0911  -17.2826 C   0  0  0  0  0  0  0  0  0  0  0  0
   22.8054  -19.6573  -16.2333 C   0  0  2  0  0  0  0  0  0  0  0  0
   24.0518  -19.7143  -15.5002 N   0  0  0  0  0  0  0  0  0  0  0  0
   22.9254  -20.3308  -17.5519 C   0  0  0  0  0  0  0  0  0  0  0  0
   21.9383  -21.1733  -17.9935 O   0  0  0  0  0  0  0  0  0  0  0  0
   23.9220  -20.1553  -18.2996 O   0  0  0  0  0  0  0  0  0  0  0  0
  2  3  1  0
  2  1  1  1
  3  4  1  0
  4  5  1  0
  5  6  1  0
  6  7  1  0
  8  2  1  0
  8  9  2  0
 10  8  1  0
 11 10  1  0
 11 17  1  0
 11 12  1  6
 13 12  1  0
 13 14  1  0
 15 14  1  0
 16 15  1  0
 17 23  1  0
 18 17  2  0
 20 21  1  6
 20 19  1  0
 20 22  1  0
 22 24  1  0
 22 23  1  6
 24 26  2  0
 24 25  1  0
M  END
$$$$
