KKV.pdb
     RDKit          3D

 26 25  0  0  1  0  0  0  0  0999 V2000
   20.3437  -15.4693  -17.3701 N   0  0  0  0  0  0  0  0  0  0  0  0
   19.4875  -14.7105  -18.2366 C   0  0  1  0  0  0  0  0  0  0  0  0
   18.0165  -15.0487  -18.0670 C   0  0  0  0  0  0  0  0  0  0  0  0
   17.7578  -16.3117  -17.3313 C   0  0  0  0  0  0  0  0  0  0  0  0
   16.3350  -16.6554  -17.0702 C   0  0  0  0  0  0  0  0  0  0  0  0
   16.1548  -17.9669  -16.3406 C   0  0  0  0  0  0  0  0  0  0  0  0
   15.4714  -17.7708  -15.0647 N   0  0  0  0  0  0  0  0  0  0  0  0
   19.7009  -13.2679  -17.9675 C   0  0  0  0  0  0  0  0  0  0  0  0
   20.8438  -12.7774  -18.1208 O   0  0  0  0  0  0  0  0  0  0  0  0
   18.6368  -12.4294  -17.5393 N   0  0  0  0  0  0  0  0  0  0  0  0
   18.8786  -11.0267  -17.4056 C   0  0  1  0  0  0  0  0  0  0  0  0
   17.6037  -10.2170  -17.5007 C   0  0  0  0  0  0  0  0  0  0  0  0
   17.9764   -8.7619  -17.3093 C   0  0  0  0  0  0  0  0  0  0  0  0
   16.6830   -7.9696  -17.3421 C   0  0  0  0  0  0  0  0  0  0  0  0
   16.9327   -6.4781  -17.2357 C   0  0  0  0  0  0  0  0  0  0  0  0
   15.6867   -5.7329  -17.2765 N   0  0  0  0  0  0  0  0  0  0  0  0
   19.5942  -10.7555  -16.1456 C   0  0  0  0  0  0  0  0  0  0  0  0
   19.1797  -11.2495  -15.0764 O   0  0  0  0  0  0  0  0  0  0  0  0
   23.4953  -10.2179  -13.5281 C   0  0  0  0  0  0  0  0  0  0  0  0
   22.8161  -10.3290  -14.8764 C   0  0  2  0  0  0  0  0  0  0  0  0
   23.6620   -9.5942  -15.8936 C   0  0  0  0  0  0  0  0  0  0  0  0
   21.4202   -9.7286  -14.8131 C   0  0  2  0  0  0  0  0  0  0  0  0
   20.7626   -9.9388  -16.0849 N   0  0  0  0  0  0  0  0  0  0  0  0
   21.4741   -8.2851  -14.4672 C   0  0  0  0  0  0  0  0  0  0  0  0
   21.2450   -7.3324  -15.4259 O   0  0  0  0  0  0  0  0  0  0  0  0
   21.7280   -7.8903  -13.2998 O   0  0  0  0  0  0  0  0  0  0  0  0
  2  3  1  0
  2  1  1  1
  3  4  1  0
  4  5  1  0
  5  6  1  0
  6  7  1  0
  8  2  1  0
  8  9  2  0
 10  8  1  0
 11 10  1  0
 11 17  1  0
 11 12  1  1
 13 12  1  0
 13 14  1  0
 15 14  1  0
 16 15  1  0
 17 23  1  0
 18 17  2  0
 20 21  1  6
 20 19  1  0
 20 22  1  0
 22 24  1  0
 22 23  1  6
 24 26  2  0
 24 25  1  0
M  END
$$$$
