KKV.pdb
     RDKit          3D

 26 25  0  0  1  0  0  0  0  0999 V2000
   19.4013  -15.8564  -18.2583 N   0  0  0  0  0  0  0  0  0  0  0  0
   18.4505  -14.8497  -17.8813 C   0  0  1  0  0  0  0  0  0  0  0  0
   17.2986  -15.3965  -17.0559 C   0  0  0  0  0  0  0  0  0  0  0  0
   16.5599  -16.5132  -17.6966 C   0  0  0  0  0  0  0  0  0  0  0  0
   15.4308  -17.0986  -16.9266 C   0  0  0  0  0  0  0  0  0  0  0  0
   14.7328  -18.2306  -17.6448 C   0  0  0  0  0  0  0  0  0  0  0  0
   13.6739  -18.8055  -16.8191 N   0  0  0  0  0  0  0  0  0  0  0  0
   19.1568  -13.7959  -17.1136 C   0  0  0  0  0  0  0  0  0  0  0  0
   18.7934  -13.5425  -15.9414 O   0  0  0  0  0  0  0  0  0  0  0  0
   20.2376  -13.0668  -17.6786 N   0  0  0  0  0  0  0  0  0  0  0  0
   20.8111  -11.9949  -16.9263 C   0  0  1  0  0  0  0  0  0  0  0  0
   22.2991  -11.8616  -17.1674 C   0  0  0  0  0  0  0  0  0  0  0  0
   22.9767  -13.0200  -16.4661 C   0  0  0  0  0  0  0  0  0  0  0  0
   24.4528  -12.9363  -16.8068 C   0  0  0  0  0  0  0  0  0  0  0  0
   25.2166  -14.1458  -16.3050 C   0  0  0  0  0  0  0  0  0  0  0  0
   26.5820  -14.1471  -16.8000 N   0  0  0  0  0  0  0  0  0  0  0  0
   20.1042  -10.7355  -17.2223 C   0  0  0  0  0  0  0  0  0  0  0  0
   19.6290  -10.5421  -18.3607 O   0  0  0  0  0  0  0  0  0  0  0  0
   17.0110   -7.6182  -17.3531 C   0  0  0  0  0  0  0  0  0  0  0  0
   17.7890   -8.8617  -16.9787 C   0  0  2  0  0  0  0  0  0  0  0  0
   17.0946   -9.5179  -15.8050 C   0  0  0  0  0  0  0  0  0  0  0  0
   19.2196   -8.4970  -16.6136 C   0  0  2  0  0  0  0  0  0  0  0  0
   19.9321   -9.7036  -16.2521 N   0  0  0  0  0  0  0  0  0  0  0  0
   19.2531   -7.5017  -15.5115 C   0  0  0  0  0  0  0  0  0  0  0  0
   18.9716   -6.1829  -15.7583 O   0  0  0  0  0  0  0  0  0  0  0  0
   19.5366   -7.8277  -14.3298 O   0  0  0  0  0  0  0  0  0  0  0  0
  2  3  1  0
  2  1  1  1
  3  4  1  0
  4  5  1  0
  5  6  1  0
  6  7  1  0
  8  2  1  0
  8  9  2  0
 10  8  1  0
 11 10  1  0
 11 17  1  0
 11 12  1  6
 13 12  1  0
 13 14  1  0
 15 14  1  0
 16 15  1  0
 17 23  1  0
 18 17  2  0
 20 21  1  1
 20 19  1  0
 20 22  1  0
 22 24  1  0
 22 23  1  1
 24 26  2  0
 24 25  1  0
M  END
$$$$
