KKV.pdb
     RDKit          3D

 26 25  0  0  1  0  0  0  0  0999 V2000
   17.5339  -14.2493  -17.3381 N   0  0  0  0  0  0  0  0  0  0  0  0
   18.7141  -14.5575  -16.5819 C   0  0  1  0  0  0  0  0  0  0  0  0
   19.3235  -15.8998  -16.9483 C   0  0  0  0  0  0  0  0  0  0  0  0
   18.3348  -16.9881  -17.1512 C   0  0  0  0  0  0  0  0  0  0  0  0
   18.2159  -17.9962  -16.0648 C   0  0  0  0  0  0  0  0  0  0  0  0
   17.2315  -19.1014  -16.3717 C   0  0  0  0  0  0  0  0  0  0  0  0
   17.0784  -20.0025  -15.2324 N   0  0  0  0  0  0  0  0  0  0  0  0
   19.7108  -13.4818  -16.8013 C   0  0  0  0  0  0  0  0  0  0  0  0
   20.8201  -13.5452  -16.2219 O   0  0  0  0  0  0  0  0  0  0  0  0
   19.4350  -12.3799  -17.6549 N   0  0  0  0  0  0  0  0  0  0  0  0
   20.4024  -11.3324  -17.7589 C   0  0  1  0  0  0  0  0  0  0  0  0
   20.2020  -10.4927  -19.0018 C   0  0  0  0  0  0  0  0  0  0  0  0
   21.5622   -9.9804  -19.4260 C   0  0  0  0  0  0  0  0  0  0  0  0
   21.3377   -9.0831  -20.6286 C   0  0  0  0  0  0  0  0  0  0  0  0
   22.6405   -8.5258  -21.1673 C   0  0  0  0  0  0  0  0  0  0  0  0
   22.4089   -7.6619  -22.3116 N   0  0  0  0  0  0  0  0  0  0  0  0
   20.3806  -10.5022  -16.5408 C   0  0  0  0  0  0  0  0  0  0  0  0
   19.2892  -10.1344  -16.0586 O   0  0  0  0  0  0  0  0  0  0  0  0
   23.7991   -9.9820  -14.1095 C   0  0  0  0  0  0  0  0  0  0  0  0
   22.3751   -9.9069  -13.6012 C   0  0  2  0  0  0  0  0  0  0  0  0
   21.9212  -11.3093  -13.2584 C   0  0  0  0  0  0  0  0  0  0  0  0
   21.4696   -9.2996  -14.6615 C   0  0  2  0  0  0  0  0  0  0  0  0
   21.5703  -10.0887  -15.8703 N   0  0  0  0  0  0  0  0  0  0  0  0
   21.8216   -7.8790  -14.9154 C   0  0  0  0  0  0  0  0  0  0  0  0
   21.5258   -6.9140  -13.9877 O   0  0  0  0  0  0  0  0  0  0  0  0
   22.3950   -7.5153  -15.9747 O   0  0  0  0  0  0  0  0  0  0  0  0
  2  3  1  0
  2  1  1  6
  3  4  1  0
  4  5  1  0
  5  6  1  0
  6  7  1  0
  8  2  1  0
  8  9  2  0
 10  8  1  0
 11 10  1  0
 11 17  1  0
 11 12  1  6
 13 12  1  0
 13 14  1  0
 15 14  1  0
 16 15  1  0
 17 23  1  0
 18 17  2  0
 20 21  1  6
 20 19  1  0
 20 22  1  0
 22 24  1  0
 22 23  1  6
 24 26  2  0
 24 25  1  0
M  END
$$$$
