KKV.pdb
     RDKit          3D

 26 25  0  0  1  0  0  0  0  0999 V2000
   27.8261  -21.6969  -18.2878 N   0  0  0  0  0  0  0  0  0  0  0  0
   27.8658  -22.2870  -16.9801 C   0  0  1  0  0  0  0  0  0  0  0  0
   29.2641  -22.7009  -16.5549 C   0  0  0  0  0  0  0  0  0  0  0  0
   29.4903  -24.1678  -16.5336 C   0  0  0  0  0  0  0  0  0  0  0  0
   29.0789  -24.9267  -17.7442 C   0  0  0  0  0  0  0  0  0  0  0  0
   30.0837  -25.9715  -18.1722 C   0  0  0  0  0  0  0  0  0  0  0  0
   29.6885  -26.5987  -19.4307 N   0  0  0  0  0  0  0  0  0  0  0  0
   27.3167  -21.3139  -16.0053 C   0  0  0  0  0  0  0  0  0  0  0  0
   28.0938  -20.5183  -15.4280 O   0  0  0  0  0  0  0  0  0  0  0  0
   25.9274  -21.2641  -15.7114 N   0  0  0  0  0  0  0  0  0  0  0  0
   25.4626  -20.3161  -14.7476 C   0  0  1  0  0  0  0  0  0  0  0  0
   24.4789  -19.3328  -15.3437 C   0  0  0  0  0  0  0  0  0  0  0  0
   25.2149  -18.5445  -16.4066 C   0  0  0  0  0  0  0  0  0  0  0  0
   24.2172  -17.5657  -16.9967 C   0  0  0  0  0  0  0  0  0  0  0  0
   24.8264  -16.7466  -18.1175 C   0  0  0  0  0  0  0  0  0  0  0  0
   23.8760  -15.7791  -18.6372 N   0  0  0  0  0  0  0  0  0  0  0  0
   24.8839  -21.0180  -13.5874 C   0  0  0  0  0  0  0  0  0  0  0  0
   24.1745  -22.0303  -13.7637 O   0  0  0  0  0  0  0  0  0  0  0  0
   24.8938  -19.4847   -9.5029 C   0  0  0  0  0  0  0  0  0  0  0  0
   25.1397  -20.9364   -9.8545 C   0  0  2  0  0  0  0  0  0  0  0  0
   26.6331  -21.1455   -9.9812 C   0  0  0  0  0  0  0  0  0  0  0  0
   24.4414  -21.2872  -11.1593 C   0  0  2  0  0  0  0  0  0  0  0  0
   25.0983  -20.5892  -12.2435 N   0  0  0  0  0  0  0  0  0  0  0  0
   22.9960  -20.9500  -11.0997 C   0  0  0  0  0  0  0  0  0  0  0  0
   22.1108  -21.7953  -10.4822 O   0  0  0  0  0  0  0  0  0  0  0  0
   22.5387  -19.8928  -11.6059 O   0  0  0  0  0  0  0  0  0  0  0  0
  2  3  1  0
  2  1  1  6
  3  4  1  0
  4  5  1  0
  5  6  1  0
  6  7  1  0
  8  2  1  0
  8  9  2  0
 10  8  1  0
 11 10  1  0
 11 17  1  0
 11 12  1  6
 13 12  1  0
 13 14  1  0
 15 14  1  0
 16 15  1  0
 17 23  1  0
 18 17  2  0
 20 21  1  6
 20 19  1  0
 20 22  1  0
 22 24  1  0
 22 23  1  6
 24 26  2  0
 24 25  1  0
M  END
$$$$
