KKV.pdb
     RDKit          3D

 26 25  0  0  1  0  0  0  0  0999 V2000
   26.4768  -22.1064  -11.2043 N   0  0  0  0  0  0  0  0  0  0  0  0
   25.5133  -21.0643  -10.9914 C   0  0  1  0  0  0  0  0  0  0  0  0
   25.8773  -20.1415   -9.8411 C   0  0  0  0  0  0  0  0  0  0  0  0
   25.2632  -20.5095   -8.5408 C   0  0  0  0  0  0  0  0  0  0  0  0
   23.8412  -20.9427   -8.5703 C   0  0  0  0  0  0  0  0  0  0  0  0
   23.2620  -21.2072   -7.1994 C   0  0  0  0  0  0  0  0  0  0  0  0
   21.8362  -21.5136   -7.2796 N   0  0  0  0  0  0  0  0  0  0  0  0
   25.3853  -20.2760  -12.2407 C   0  0  0  0  0  0  0  0  0  0  0  0
   24.6816  -19.2390  -12.2429 O   0  0  0  0  0  0  0  0  0  0  0  0
   26.0438  -20.6710  -13.4362 N   0  0  0  0  0  0  0  0  0  0  0  0
   25.9487  -19.8251  -14.5847 C   0  0  1  0  0  0  0  0  0  0  0  0
   27.1574  -19.9504  -15.4866 C   0  0  0  0  0  0  0  0  0  0  0  0
   27.0092  -18.9214  -16.5875 C   0  0  0  0  0  0  0  0  0  0  0  0
   28.2345  -19.0470  -17.4733 C   0  0  0  0  0  0  0  0  0  0  0  0
   28.2865  -17.9534  -18.5219 C   0  0  0  0  0  0  0  0  0  0  0  0
   29.4916  -18.0541  -19.3263 N   0  0  0  0  0  0  0  0  0  0  0  0
   24.7006  -20.1066  -15.3172 C   0  0  0  0  0  0  0  0  0  0  0  0
   24.3774  -21.2871  -15.5641 O   0  0  0  0  0  0  0  0  0  0  0  0
   21.9089  -17.0394  -16.3255 C   0  0  0  0  0  0  0  0  0  0  0  0
   21.5012  -18.4636  -16.0141 C   0  0  2  0  0  0  0  0  0  0  0  0
   21.2574  -18.5702  -14.5243 C   0  0  0  0  0  0  0  0  0  0  0  0
   22.5944  -19.4296  -16.4440 C   0  0  2  0  0  0  0  0  0  0  0  0
   23.8240  -19.0751  -15.7683 N   0  0  0  0  0  0  0  0  0  0  0  0
   22.7684  -19.4181  -17.9192 C   0  0  0  0  0  0  0  0  0  0  0  0
   21.9359  -20.1540  -18.7222 O   0  0  0  0  0  0  0  0  0  0  0  0
   23.6720  -18.7430  -18.4766 O   0  0  0  0  0  0  0  0  0  0  0  0
  2  3  1  0
  2  1  1  6
  3  4  1  0
  4  5  1  0
  5  6  1  0
  6  7  1  0
  8  2  1  0
  8  9  2  0
 10  8  1  0
 11 10  1  0
 11 17  1  0
 11 12  1  6
 13 12  1  0
 13 14  1  0
 15 14  1  0
 16 15  1  0
 17 23  1  0
 18 17  2  0
 20 21  1  1
 20 19  1  0
 20 22  1  0
 22 24  1  0
 22 23  1  1
 24 26  2  0
 24 25  1  0
M  END
$$$$
