KKV.pdb
     RDKit          3D

 26 25  0  0  1  0  0  0  0  0999 V2000
   21.3446  -26.5940  -12.9116 N   0  0  0  0  0  0  0  0  0  0  0  0
   20.1254  -25.9748  -12.4758 C   0  0  1  0  0  0  0  0  0  0  0  0
   19.0012  -26.0923  -13.4905 C   0  0  0  0  0  0  0  0  0  0  0  0
   19.0371  -25.0715  -14.5675 C   0  0  0  0  0  0  0  0  0  0  0  0
   18.7041  -23.6756  -14.1789 C   0  0  0  0  0  0  0  0  0  0  0  0
   18.6715  -22.7153  -15.3457 C   0  0  0  0  0  0  0  0  0  0  0  0
   18.4188  -21.3485  -14.8969 N   0  0  0  0  0  0  0  0  0  0  0  0
   19.7089  -26.5989  -11.1969 C   0  0  0  0  0  0  0  0  0  0  0  0
   20.0132  -27.7930  -10.9687 O   0  0  0  0  0  0  0  0  0  0  0  0
   18.9717  -25.8720  -10.2238 N   0  0  0  0  0  0  0  0  0  0  0  0
   18.6027  -26.5292   -9.0090 C   0  0  1  0  0  0  0  0  0  0  0  0
   18.1706  -25.5497   -7.9395 C   0  0  0  0  0  0  0  0  0  0  0  0
   17.8189  -26.3533   -6.7053 C   0  0  0  0  0  0  0  0  0  0  0  0
   17.5293  -25.3555   -5.5998 C   0  0  0  0  0  0  0  0  0  0  0  0
   17.1208  -26.0435   -4.3122 C   0  0  0  0  0  0  0  0  0  0  0  0
   16.6996  -25.0784   -3.3118 N   0  0  0  0  0  0  0  0  0  0  0  0
   17.5541  -27.5307   -9.2752 C   0  0  0  0  0  0  0  0  0  0  0  0
   16.5620  -27.2230   -9.9680 O   0  0  0  0  0  0  0  0  0  0  0  0
   17.3764  -31.3976  -10.8349 C   0  0  0  0  0  0  0  0  0  0  0  0
   17.1909  -31.1680   -9.3502 C   0  0  2  0  0  0  0  0  0  0  0  0
   16.2960  -32.2629   -8.8110 C   0  0  0  0  0  0  0  0  0  0  0  0
   16.5680  -29.8028   -9.1029 C   0  0  2  0  0  0  0  0  0  0  0  0
   17.6172  -28.8635   -8.7696 N   0  0  0  0  0  0  0  0  0  0  0  0
   15.5437  -29.8688   -8.0292 C   0  0  0  0  0  0  0  0  0  0  0  0
   14.2565  -30.2401   -8.3196 O   0  0  0  0  0  0  0  0  0  0  0  0
   15.8161  -29.5906   -6.8327 O   0  0  0  0  0  0  0  0  0  0  0  0
  2  3  1  0
  2  1  1  6
  3  4  1  0
  4  5  1  0
  5  6  1  0
  6  7  1  0
  8  2  1  0
  8  9  2  0
 10  8  1  0
 11 10  1  0
 11 17  1  0
 11 12  1  1
 13 12  1  0
 13 14  1  0
 15 14  1  0
 16 15  1  0
 17 23  1  0
 18 17  2  0
 20 21  1  6
 20 19  1  0
 20 22  1  0
 22 24  1  0
 22 23  1  1
 24 26  2  0
 24 25  1  0
M  END
$$$$
