IIY.pdb
     RDKit          3D

 29 29  0  0  1  0  0  0  0  0999 V2000
   26.5105  -18.2830  -17.2889 C   0  0  0  0  0  0  0  0  0  0  0  0
   26.8239  -18.9612  -15.9431 C   0  0  0  0  0  0  0  0  0  0  0  0
   27.3862  -20.3158  -16.1874 C   0  0  2  0  0  0  0  0  0  0  0  0
   26.4901  -21.0821  -17.1346 C   0  0  0  0  0  0  0  0  0  0  0  0
   27.7405  -21.0877  -14.9645 C   0  0  2  0  0  0  0  0  0  0  0  0
   28.3779  -22.3434  -15.4140 N   0  0  0  0  0  0  0  0  0  0  0  0
   26.6138  -21.4624  -14.0965 C   0  0  0  0  0  0  0  0  0  0  0  0
   25.9974  -22.5409  -14.3234 O   0  0  0  0  0  0  0  0  0  0  0  0
   26.6635  -20.5925   -8.7968 C   0  0  0  0  0  0  0  0  0  0  0  0
   26.5350  -21.2946  -10.1656 C   0  0  0  0  0  0  0  0  0  0  0  0
   25.3091  -20.7487  -10.7934 C   0  0  2  0  0  0  0  0  0  0  0  0
   24.1587  -20.9692   -9.8301 C   0  0  0  0  0  0  0  0  0  0  0  0
   24.9871  -21.1918  -12.1796 C   0  0  2  0  0  0  0  0  0  0  0  0
   26.1374  -20.7081  -12.9929 N   0  0  0  0  0  0  0  0  0  0  0  0
   23.7362  -20.6129  -12.7171 C   0  0  0  0  0  0  0  0  0  0  0  0
   23.5940  -19.3473  -12.7103 O   0  0  0  0  0  0  0  0  0  0  0  0
   16.2610  -18.9019  -16.9025 O   0  0  0  0  0  0  0  0  0  0  0  0
   17.4748  -19.4239  -16.4741 C   0  0  0  0  0  0  0  0  0  0  0  0
   17.5995  -20.7422  -16.0551 C   0  0  0  0  0  0  0  0  0  0  0  0
   18.8088  -21.2180  -15.6413 C   0  0  0  0  0  0  0  0  0  0  0  0
   19.9358  -20.4361  -15.6190 C   0  0  0  0  0  0  0  0  0  0  0  0
   21.2460  -20.9513  -15.1680 C   0  0  0  0  0  0  0  0  0  0  0  0
   21.4209  -20.7893  -13.6846 C   0  0  2  0  0  0  0  0  0  0  0  0
   22.6801  -21.3834  -13.2466 N   0  0  0  0  0  0  0  0  0  0  0  0
   20.2738  -21.3096  -12.9502 C   0  0  0  0  0  0  0  0  0  0  0  0
   20.0908  -22.5069  -12.6539 O   0  0  0  0  0  0  0  0  0  0  0  0
   19.8241  -19.1194  -16.0346 C   0  0  0  0  0  0  0  0  0  0  0  0
   18.6089  -18.6341  -16.4525 C   0  0  0  0  0  0  0  0  0  0  0  0
   19.2645  -20.4244  -12.5191 O   0  0  0  0  0  0  0  0  0  0  0  0
  2  1  1  0
  3  5  1  0
  3  2  1  0
  3  4  1  1
  5  6  1  6
  7  5  1  0
  7  8  2  0
  9 10  1  0
 11 10  1  0
 11 13  1  0
 11 12  1  1
 13 14  1  6
 14  7  1  0
 15 24  1  0
 15 13  1  0
 16 15  2  0
 17 18  1  0
 18 28  2  0
 19 20  2  0
 19 18  1  0
 20 21  1  0
 21 22  1  0
 21 27  2  0
 23 22  1  6
 23 24  1  0
 23 25  1  0
 25 29  1  0
 26 25  2  0
 28 27  1  0
M  END
$$$$
