IIY.pdb
     RDKit          3D

 29 29  0  0  1  0  0  0  0  0999 V2000
   14.7222  -29.0708  -12.8365 C   0  0  0  0  0  0  0  0  0  0  0  0
   16.0554  -29.8177  -12.6520 C   0  0  0  0  0  0  0  0  0  0  0  0
   16.8349  -29.1816  -11.5572 C   0  0  2  0  0  0  0  0  0  0  0  0
   16.0046  -29.1353  -10.2938 C   0  0  0  0  0  0  0  0  0  0  0  0
   17.4567  -27.8721  -11.8965 C   0  0  2  0  0  0  0  0  0  0  0  0
   18.5401  -28.1446  -12.8645 N   0  0  0  0  0  0  0  0  0  0  0  0
   18.0574  -27.1393  -10.7716 C   0  0  0  0  0  0  0  0  0  0  0  0
   19.1709  -27.5220  -10.3152 O   0  0  0  0  0  0  0  0  0  0  0  0
   18.6761  -21.9907  -10.7573 C   0  0  0  0  0  0  0  0  0  0  0  0
   18.9148  -23.5066  -10.5903 C   0  0  0  0  0  0  0  0  0  0  0  0
   18.1958  -23.9019   -9.3568 C   0  0  2  0  0  0  0  0  0  0  0  0
   18.6934  -23.0191   -8.2285 C   0  0  0  0  0  0  0  0  0  0  0  0
   18.1921  -25.3473   -8.9926 C   0  0  2  0  0  0  0  0  0  0  0  0
   17.4916  -26.0073  -10.1295 N   0  0  0  0  0  0  0  0  0  0  0  0
   17.4678  -25.6461   -7.7378 C   0  0  0  0  0  0  0  0  0  0  0  0
   16.2227  -25.3862   -7.6720 O   0  0  0  0  0  0  0  0  0  0  0  0
   15.7391  -27.5303    0.7157 O   0  0  0  0  0  0  0  0  0  0  0  0
   16.3340  -27.4557   -0.5372 C   0  0  0  0  0  0  0  0  0  0  0  0
   17.2301  -26.4464   -0.8648 C   0  0  0  0  0  0  0  0  0  0  0  0
   17.7936  -26.4070   -2.1061 C   0  0  0  0  0  0  0  0  0  0  0  0
   17.5098  -27.3408   -3.0702 C   0  0  0  0  0  0  0  0  0  0  0  0
   18.1187  -27.2965   -4.4166 C   0  0  0  0  0  0  0  0  0  0  0  0
   17.3674  -26.3710   -5.3311 C   0  0  2  0  0  0  0  0  0  0  0  0
   18.0756  -26.2112   -6.5973 N   0  0  0  0  0  0  0  0  0  0  0  0
   17.0840  -25.0944   -4.6860 C   0  0  0  0  0  0  0  0  0  0  0  0
   16.0089  -24.7897   -4.1330 O   0  0  0  0  0  0  0  0  0  0  0  0
   16.6174  -28.3524   -2.7554 C   0  0  0  0  0  0  0  0  0  0  0  0
   16.0464  -28.3977   -1.5069 C   0  0  0  0  0  0  0  0  0  0  0  0
   18.0762  -24.0929   -4.6604 O   0  0  0  0  0  0  0  0  0  0  0  0
  2  1  1  0
  3  5  1  0
  3  2  1  0
  3  4  1  1
  5  6  1  6
  7  5  1  0
  7  8  2  0
  9 10  1  0
 11 10  1  0
 11 13  1  0
 11 12  1  1
 13 14  1  6
 14  7  1  0
 15 24  1  0
 15 13  1  0
 16 15  2  0
 17 18  1  0
 18 28  2  0
 19 20  2  0
 19 18  1  0
 20 21  1  0
 21 22  1  0
 21 27  2  0
 23 22  1  1
 23 24  1  0
 23 25  1  0
 25 29  1  0
 26 25  2  0
 28 27  1  0
M  END
$$$$
