IIY.pdb
     RDKit          3D

 29 29  0  0  1  0  0  0  0  0999 V2000
   12.5539  -12.2690  -11.0730 C   0  0  0  0  0  0  0  0  0  0  0  0
   13.9224  -12.1631  -11.7697 C   0  0  0  0  0  0  0  0  0  0  0  0
   14.7284  -11.0936  -11.1236 C   0  0  2  0  0  0  0  0  0  0  0  0
   13.9232   -9.8154  -11.0501 C   0  0  0  0  0  0  0  0  0  0  0  0
   16.0912  -10.8944  -11.6889 C   0  0  2  0  0  0  0  0  0  0  0  0
   16.8363  -12.1536  -11.4782 N   0  0  0  0  0  0  0  0  0  0  0  0
   16.8847   -9.8163  -11.0794 C   0  0  0  0  0  0  0  0  0  0  0  0
   17.3952  -10.0003   -9.9391 O   0  0  0  0  0  0  0  0  0  0  0  0
   21.1891   -7.7712  -12.8291 C   0  0  0  0  0  0  0  0  0  0  0  0
   20.0398   -8.3483  -11.9752 C   0  0  0  0  0  0  0  0  0  0  0  0
   19.0877   -7.2336  -11.7613 C   0  0  2  0  0  0  0  0  0  0  0  0
   19.8811   -6.0335  -11.2813 C   0  0  0  0  0  0  0  0  0  0  0  0
   17.8891   -7.5015  -10.9167 C   0  0  2  0  0  0  0  0  0  0  0  0
   17.1427   -8.5503  -11.6662 N   0  0  0  0  0  0  0  0  0  0  0  0
   17.0137   -6.3236  -10.7299 C   0  0  0  0  0  0  0  0  0  0  0  0
   16.4311   -5.8255  -11.7471 O   0  0  0  0  0  0  0  0  0  0  0  0
   11.1601   -8.5456   -7.8246 O   0  0  0  0  0  0  0  0  0  0  0  0
   12.1657   -7.5879   -7.8504 C   0  0  0  0  0  0  0  0  0  0  0  0
   13.3108   -7.7055   -7.0734 C   0  0  0  0  0  0  0  0  0  0  0  0
   14.2763   -6.7437   -7.1263 C   0  0  0  0  0  0  0  0  0  0  0  0
   14.1666   -5.6380   -7.9311 C   0  0  0  0  0  0  0  0  0  0  0  0
   15.2121   -4.5942   -7.9863 C   0  0  0  0  0  0  0  0  0  0  0  0
   15.8904   -4.5640   -9.3265 C   0  0  2  0  0  0  0  0  0  0  0  0
   16.7776   -5.7126   -9.4808 N   0  0  0  0  0  0  0  0  0  0  0  0
   16.5752   -3.2965   -9.5516 C   0  0  0  0  0  0  0  0  0  0  0  0
   17.8117   -3.1365   -9.5555 O   0  0  0  0  0  0  0  0  0  0  0  0
   13.0289   -5.5095   -8.7108 C   0  0  0  0  0  0  0  0  0  0  0  0
   12.0528   -6.4747   -8.6620 C   0  0  0  0  0  0  0  0  0  0  0  0
   15.8191   -2.1303   -9.7888 O   0  0  0  0  0  0  0  0  0  0  0  0
  2  1  1  0
  3  5  1  0
  3  2  1  0
  3  4  1  6
  5  6  1  1
  7  5  1  0
  7  8  2  0
  9 10  1  0
 11 10  1  0
 11 13  1  0
 11 12  1  1
 13 14  1  6
 14  7  1  0
 15 24  1  0
 15 13  1  0
 16 15  2  0
 17 18  1  0
 18 28  2  0
 19 20  2  0
 19 18  1  0
 20 21  1  0
 21 22  1  0
 21 27  2  0
 23 22  1  1
 23 24  1  0
 23 25  1  0
 25 29  1  0
 26 25  2  0
 28 27  1  0
M  END
$$$$
