IIY.pdb
     RDKit          3D

 29 29  0  0  1  0  0  0  0  0999 V2000
   30.4954  -20.4207  -13.7467 C   0  0  0  0  0  0  0  0  0  0  0  0
   29.0739  -20.0449  -13.2911 C   0  0  0  0  0  0  0  0  0  0  0  0
   28.2381  -19.7274  -14.4792 C   0  0  2  0  0  0  0  0  0  0  0  0
   28.9542  -18.7282  -15.3603 C   0  0  0  0  0  0  0  0  0  0  0  0
   26.8308  -19.3425  -14.1827 C   0  0  2  0  0  0  0  0  0  0  0  0
   26.8760  -18.0452  -13.4756 N   0  0  0  0  0  0  0  0  0  0  0  0
   26.0800  -20.2742  -13.3274 C   0  0  0  0  0  0  0  0  0  0  0  0
   25.8180  -21.4304  -13.7625 O   0  0  0  0  0  0  0  0  0  0  0  0
   26.2790  -20.2479   -7.9057 C   0  0  0  0  0  0  0  0  0  0  0  0
   26.2911  -20.8518   -9.3264 C   0  0  0  0  0  0  0  0  0  0  0  0
   24.9266  -20.6537   -9.8682 C   0  0  2  0  0  0  0  0  0  0  0  0
   23.9593  -21.4002   -8.9698 C   0  0  0  0  0  0  0  0  0  0  0  0
   24.7078  -20.9475  -11.3131 C   0  0  2  0  0  0  0  0  0  0  0  0
   25.6079  -19.9934  -12.0190 N   0  0  0  0  0  0  0  0  0  0  0  0
   23.3165  -20.7257  -11.7645 C   0  0  0  0  0  0  0  0  0  0  0  0
   22.8439  -19.5434  -11.7356 O   0  0  0  0  0  0  0  0  0  0  0  0
   22.8000  -18.4344  -18.0164 O   0  0  0  0  0  0  0  0  0  0  0  0
   22.3198  -19.3025  -17.0442 C   0  0  0  0  0  0  0  0  0  0  0  0
   21.2817  -18.9481  -16.1923 C   0  0  0  0  0  0  0  0  0  0  0  0
   20.8379  -19.8285  -15.2501 C   0  0  0  0  0  0  0  0  0  0  0  0
   21.3824  -21.0788  -15.1005 C   0  0  0  0  0  0  0  0  0  0  0  0
   20.9030  -22.0321  -14.0772 C   0  0  0  0  0  0  0  0  0  0  0  0
   21.1079  -21.4984  -12.6879 C   0  0  2  0  0  0  0  0  0  0  0  0
   22.4717  -21.7528  -12.2344 N   0  0  0  0  0  0  0  0  0  0  0  0
   20.1071  -22.0161  -11.7623 C   0  0  0  0  0  0  0  0  0  0  0  0
   20.3467  -22.7236  -10.7640 O   0  0  0  0  0  0  0  0  0  0  0  0
   22.4185  -21.4439  -15.9444 C   0  0  0  0  0  0  0  0  0  0  0  0
   22.8701  -20.5618  -16.8955 C   0  0  0  0  0  0  0  0  0  0  0  0
   18.7452  -21.7179  -11.9729 O   0  0  0  0  0  0  0  0  0  0  0  0
  2  1  1  0
  3  5  1  0
  3  2  1  0
  3  4  1  1
  5  6  1  1
  7  5  1  0
  7  8  2  0
  9 10  1  0
 11 10  1  0
 11 13  1  0
 11 12  1  1
 13 14  1  6
 14  7  1  0
 15 24  1  0
 15 13  1  0
 16 15  2  0
 17 18  1  0
 18 28  2  0
 19 20  2  0
 19 18  1  0
 20 21  1  0
 21 22  1  0
 21 27  2  0
 23 22  1  6
 23 24  1  0
 23 25  1  0
 25 29  1  0
 26 25  2  0
 28 27  1  0
M  END
$$$$
