IIY.pdb
     RDKit          3D

 29 29  0  0  1  0  0  0  0  0999 V2000
   18.8500  -20.7682  -15.5739 C   0  0  0  0  0  0  0  0  0  0  0  0
   20.3432  -20.8883  -15.2197 C   0  0  0  0  0  0  0  0  0  0  0  0
   20.6540  -20.0024  -14.0667 C   0  0  2  0  0  0  0  0  0  0  0  0
   20.2067  -18.5893  -14.3679 C   0  0  0  0  0  0  0  0  0  0  0  0
   22.0537  -20.0782  -13.5651 C   0  0  2  0  0  0  0  0  0  0  0  0
   22.8532  -20.7503  -14.6112 N   0  0  0  0  0  0  0  0  0  0  0  0
   22.2463  -20.8375  -12.3203 C   0  0  0  0  0  0  0  0  0  0  0  0
   22.2619  -22.0993  -12.3679 O   0  0  0  0  0  0  0  0  0  0  0  0
   25.7643  -19.7788   -8.5860 C   0  0  0  0  0  0  0  0  0  0  0  0
   24.8859  -20.5984   -9.5553 C   0  0  0  0  0  0  0  0  0  0  0  0
   23.5220  -20.5941   -8.9766 C   0  0  2  0  0  0  0  0  0  0  0  0
   23.5959  -21.2548   -7.6136 C   0  0  0  0  0  0  0  0  0  0  0  0
   22.4144  -21.1348   -9.8148 C   0  0  2  0  0  0  0  0  0  0  0  0
   22.4238  -20.2737  -11.0302 N   0  0  0  0  0  0  0  0  0  0  0  0
   21.0840  -21.0528   -9.1730 C   0  0  0  0  0  0  0  0  0  0  0  0
   20.3170  -20.0816   -9.4741 O   0  0  0  0  0  0  0  0  0  0  0  0
   13.6192  -24.9040  -10.0798 O   0  0  0  0  0  0  0  0  0  0  0  0
   14.9374  -24.4769   -9.9842 C   0  0  0  0  0  0  0  0  0  0  0  0
   16.0022  -25.3675  -10.0304 C   0  0  0  0  0  0  0  0  0  0  0  0
   17.2831  -24.9093   -9.9331 C   0  0  0  0  0  0  0  0  0  0  0  0
   17.5763  -23.5769   -9.7881 C   0  0  0  0  0  0  0  0  0  0  0  0
   18.9647  -23.0807   -9.6799 C   0  0  0  0  0  0  0  0  0  0  0  0
   19.2527  -22.5440   -8.3066 C   0  0  2  0  0  0  0  0  0  0  0  0
   20.6039  -21.9961   -8.2407 N   0  0  0  0  0  0  0  0  0  0  0  0
   19.0072  -23.5471   -7.2772 C   0  0  0  0  0  0  0  0  0  0  0  0
   17.9600  -23.6519   -6.6087 O   0  0  0  0  0  0  0  0  0  0  0  0
   16.5226  -22.6790   -9.7406 C   0  0  0  0  0  0  0  0  0  0  0  0
   15.2303  -23.1340   -9.8380 C   0  0  0  0  0  0  0  0  0  0  0  0
   20.0060  -24.4967   -6.9796 O   0  0  0  0  0  0  0  0  0  0  0  0
  2  1  1  0
  3  5  1  0
  3  2  1  0
  3  4  1  6
  5  6  1  6
  7  5  1  0
  7  8  2  0
  9 10  1  0
 11 10  1  0
 11 13  1  0
 11 12  1  1
 13 14  1  6
 14  7  1  0
 15 24  1  0
 15 13  1  0
 16 15  2  0
 17 18  1  0
 18 28  2  0
 19 20  2  0
 19 18  1  0
 20 21  1  0
 21 22  1  0
 21 27  2  0
 23 22  1  6
 23 24  1  0
 23 25  1  0
 25 29  1  0
 26 25  2  0
 28 27  1  0
M  END
$$$$
