IIY.pdb
     RDKit          3D

 29 29  0  0  1  0  0  0  0  0999 V2000
   29.6371  -20.7386   -9.2952 C   0  0  0  0  0  0  0  0  0  0  0  0
   28.3906  -21.1369  -10.1057 C   0  0  0  0  0  0  0  0  0  0  0  0
   27.2297  -20.3172   -9.6683 C   0  0  2  0  0  0  0  0  0  0  0  0
   27.0040  -20.4954   -8.1834 C   0  0  0  0  0  0  0  0  0  0  0  0
   25.9892  -20.4902  -10.4732 C   0  0  2  0  0  0  0  0  0  0  0  0
   25.6305  -21.9230  -10.4142 N   0  0  0  0  0  0  0  0  0  0  0  0
   26.0947  -20.1300  -11.8953 C   0  0  0  0  0  0  0  0  0  0  0  0
   26.2183  -18.9138  -12.2122 O   0  0  0  0  0  0  0  0  0  0  0  0
   29.4107  -21.7122  -15.4825 C   0  0  0  0  0  0  0  0  0  0  0  0
   28.4479  -20.8694  -14.6190 C   0  0  0  0  0  0  0  0  0  0  0  0
   27.0824  -21.1862  -15.0986 C   0  0  2  0  0  0  0  0  0  0  0  0
   27.0458  -20.9293  -16.5928 C   0  0  0  0  0  0  0  0  0  0  0  0
   25.9358  -20.5585  -14.3823 C   0  0  2  0  0  0  0  0  0  0  0  0
   26.0724  -21.0439  -12.9807 N   0  0  0  0  0  0  0  0  0  0  0  0
   24.6116  -20.9585  -14.9069 C   0  0  0  0  0  0  0  0  0  0  0  0
   24.3182  -22.1971  -14.9501 O   0  0  0  0  0  0  0  0  0  0  0  0
   16.8511  -20.4244  -11.5567 O   0  0  0  0  0  0  0  0  0  0  0  0
   18.1574  -20.3027  -12.0128 C   0  0  0  0  0  0  0  0  0  0  0  0
   18.7003  -19.0736  -12.3640 C   0  0  0  0  0  0  0  0  0  0  0  0
   19.9875  -18.9949  -12.8078 C   0  0  0  0  0  0  0  0  0  0  0  0
   20.7911  -20.1004  -12.9264 C   0  0  0  0  0  0  0  0  0  0  0  0
   22.1856  -20.0153  -13.4099 C   0  0  0  0  0  0  0  0  0  0  0  0
   22.2540  -20.0815  -14.9093 C   0  0  2  0  0  0  0  0  0  0  0  0
   23.6404  -20.0434  -15.3638 N   0  0  0  0  0  0  0  0  0  0  0  0
   21.4356  -19.0459  -15.5289 C   0  0  0  0  0  0  0  0  0  0  0  0
   21.7962  -17.8705  -15.7361 O   0  0  0  0  0  0  0  0  0  0  0  0
   20.2609  -21.3321  -12.5790 C   0  0  0  0  0  0  0  0  0  0  0  0
   18.9651  -21.4181  -12.1314 C   0  0  0  0  0  0  0  0  0  0  0  0
   20.1235  -19.3524  -15.9442 O   0  0  0  0  0  0  0  0  0  0  0  0
  2  1  1  0
  3  5  1  0
  3  2  1  0
  3  4  1  1
  5  6  1  6
  7  5  1  0
  7  8  2  0
  9 10  1  0
 11 10  1  0
 11 13  1  0
 11 12  1  6
 13 14  1  1
 14  7  1  0
 15 24  1  0
 15 13  1  0
 16 15  2  0
 17 18  1  0
 18 28  2  0
 19 20  2  0
 19 18  1  0
 20 21  1  0
 21 22  1  0
 21 27  2  0
 23 22  1  1
 23 24  1  0
 23 25  1  0
 25 29  1  0
 26 25  2  0
 28 27  1  0
M  END
$$$$
