IIY.pdb
     RDKit          3D

 29 29  0  0  1  0  0  0  0  0999 V2000
   19.4839  -21.9826  -18.5384 C   0  0  0  0  0  0  0  0  0  0  0  0
   19.8262  -21.2507  -17.2282 C   0  0  0  0  0  0  0  0  0  0  0  0
   21.1734  -21.6716  -16.7605 C   0  0  2  0  0  0  0  0  0  0  0  0
   21.2513  -23.1811  -16.7064 C   0  0  0  0  0  0  0  0  0  0  0  0
   21.6461  -21.0166  -15.5098 C   0  0  2  0  0  0  0  0  0  0  0  0
   21.5684  -19.5568  -15.7289 N   0  0  0  0  0  0  0  0  0  0  0  0
   23.0294  -21.3204  -15.1127 C   0  0  0  0  0  0  0  0  0  0  0  0
   23.2996  -22.4682  -14.6610 O   0  0  0  0  0  0  0  0  0  0  0  0
   27.3931  -19.8880  -17.8621 C   0  0  0  0  0  0  0  0  0  0  0  0
   26.3578  -20.7153  -17.0705 C   0  0  0  0  0  0  0  0  0  0  0  0
   26.4168  -20.2203  -15.6754 C   0  0  2  0  0  0  0  0  0  0  0  0
   27.8605  -20.2990  -15.2175 C   0  0  0  0  0  0  0  0  0  0  0  0
   25.4712  -20.8174  -14.6901 C   0  0  2  0  0  0  0  0  0  0  0  0
   24.1254  -20.4224  -15.1917 N   0  0  0  0  0  0  0  0  0  0  0  0
   25.6433  -20.3083  -13.3117 C   0  0  0  0  0  0  0  0  0  0  0  0
   25.3812  -19.0850  -13.0729 O   0  0  0  0  0  0  0  0  0  0  0  0
   28.0446  -19.5257   -4.8529 O   0  0  0  0  0  0  0  0  0  0  0  0
   27.7325  -20.0397   -6.1049 C   0  0  0  0  0  0  0  0  0  0  0  0
   26.4416  -20.4303   -6.4366 C   0  0  0  0  0  0  0  0  0  0  0  0
   26.1747  -20.9306   -7.6769 C   0  0  0  0  0  0  0  0  0  0  0  0
   27.1457  -21.0697   -8.6361 C   0  0  0  0  0  0  0  0  0  0  0  0
   26.8567  -21.6146   -9.9796 C   0  0  0  0  0  0  0  0  0  0  0  0
   26.4095  -20.5375  -10.9267 C   0  0  2  0  0  0  0  0  0  0  0  0
   26.0806  -21.1029  -12.2315 N   0  0  0  0  0  0  0  0  0  0  0  0
   27.3903  -19.4622  -11.0164 C   0  0  0  0  0  0  0  0  0  0  0  0
   27.2567  -18.3227  -10.5284 O   0  0  0  0  0  0  0  0  0  0  0  0
   28.4372  -20.6836   -8.3171 C   0  0  0  0  0  0  0  0  0  0  0  0
   28.7126  -20.1789   -7.0696 C   0  0  0  0  0  0  0  0  0  0  0  0
   28.6034  -19.6830  -11.7004 O   0  0  0  0  0  0  0  0  0  0  0  0
  2  1  1  0
  3  5  1  0
  3  2  1  0
  3  4  1  1
  5  6  1  6
  7  5  1  0
  7  8  2  0
  9 10  1  0
 11 10  1  0
 11 13  1  0
 11 12  1  1
 13 14  1  6
 14  7  1  0
 15 24  1  0
 15 13  1  0
 16 15  2  0
 17 18  1  0
 18 28  2  0
 19 20  2  0
 19 18  1  0
 20 21  1  0
 21 22  1  0
 21 27  2  0
 23 22  1  1
 23 24  1  0
 23 25  1  0
 25 29  1  0
 26 25  2  0
 28 27  1  0
M  END
$$$$
