IIY.pdb
     RDKit          3D

 29 29  0  0  1  0  0  0  0  0999 V2000
   30.5085  -21.0170  -18.7197 C   0  0  0  0  0  0  0  0  0  0  0  0
   29.2546  -20.2922  -18.1985 C   0  0  0  0  0  0  0  0  0  0  0  0
   28.7881  -20.9431  -16.9457 C   0  0  2  0  0  0  0  0  0  0  0  0
   28.7833  -22.4458  -17.1172 C   0  0  0  0  0  0  0  0  0  0  0  0
   27.5119  -20.4139  -16.3908 C   0  0  2  0  0  0  0  0  0  0  0  0
   27.7162  -18.9729  -16.1321 N   0  0  0  0  0  0  0  0  0  0  0  0
   27.0644  -21.0198  -15.1275 C   0  0  0  0  0  0  0  0  0  0  0  0
   26.4992  -22.1488  -15.1553 O   0  0  0  0  0  0  0  0  0  0  0  0
   29.5651  -20.4556  -10.4373 C   0  0  0  0  0  0  0  0  0  0  0  0
   28.8036  -21.2047  -11.5518 C   0  0  0  0  0  0  0  0  0  0  0  0
   27.4124  -20.6970  -11.5109 C   0  0  2  0  0  0  0  0  0  0  0  0
   26.8145  -21.0934  -10.1748 C   0  0  0  0  0  0  0  0  0  0  0  0
   26.5211  -21.0316  -12.6579 C   0  0  2  0  0  0  0  0  0  0  0  0
   27.2117  -20.4431  -13.8392 N   0  0  0  0  0  0  0  0  0  0  0  0
   25.1647  -20.4509  -12.5505 C   0  0  0  0  0  0  0  0  0  0  0  0
   25.0364  -19.1840  -12.5771 O   0  0  0  0  0  0  0  0  0  0  0  0
   20.2123  -16.1675  -16.3951 O   0  0  0  0  0  0  0  0  0  0  0  0
   20.7009  -17.3234  -15.7998 C   0  0  0  0  0  0  0  0  0  0  0  0
   22.0626  -17.5783  -15.7010 C   0  0  0  0  0  0  0  0  0  0  0  0
   22.5036  -18.7251  -15.1091 C   0  0  0  0  0  0  0  0  0  0  0  0
   21.6439  -19.6620  -14.5940 C   0  0  0  0  0  0  0  0  0  0  0  0
   22.1222  -20.9063  -13.9549 C   0  0  0  0  0  0  0  0  0  0  0  0
   22.6570  -20.6469  -12.5751 C   0  0  2  0  0  0  0  0  0  0  0  0
   23.9901  -21.2213  -12.4230 N   0  0  0  0  0  0  0  0  0  0  0  0
   21.7312  -21.1068  -11.5467 C   0  0  0  0  0  0  0  0  0  0  0  0
   20.5880  -20.6498  -11.3500 O   0  0  0  0  0  0  0  0  0  0  0  0
   20.2834  -19.4190  -14.6866 C   0  0  0  0  0  0  0  0  0  0  0  0
   19.8327  -18.2658  -15.2816 C   0  0  0  0  0  0  0  0  0  0  0  0
   22.1164  -22.1513  -10.6814 O   0  0  0  0  0  0  0  0  0  0  0  0
  2  1  1  0
  3  5  1  0
  3  2  1  0
  3  4  1  6
  5  6  1  1
  7  5  1  0
  7  8  2  0
  9 10  1  0
 11 10  1  0
 11 13  1  0
 11 12  1  1
 13 14  1  6
 14  7  1  0
 15 24  1  0
 15 13  1  0
 16 15  2  0
 17 18  1  0
 18 28  2  0
 19 20  2  0
 19 18  1  0
 20 21  1  0
 21 22  1  0
 21 27  2  0
 23 22  1  6
 23 24  1  0
 23 25  1  0
 25 29  1  0
 26 25  2  0
 28 27  1  0
M  END
$$$$
