IIY.pdb
     RDKit          3D

 29 29  0  0  1  0  0  0  0  0999 V2000
   15.6812  -14.2582  -16.1500 C   0  0  0  0  0  0  0  0  0  0  0  0
   16.2488  -12.9404  -16.7073 C   0  0  0  0  0  0  0  0  0  0  0  0
   17.2917  -12.4182  -15.7850 C   0  0  2  0  0  0  0  0  0  0  0  0
   16.7405  -12.3348  -14.3790 C   0  0  0  0  0  0  0  0  0  0  0  0
   17.9607  -11.1634  -16.2260 C   0  0  2  0  0  0  0  0  0  0  0  0
   18.5183  -11.4191  -17.5709 N   0  0  0  0  0  0  0  0  0  0  0  0
   19.0707  -10.6995  -15.3798 C   0  0  0  0  0  0  0  0  0  0  0  0
   18.8889  -10.5919  -14.1347 O   0  0  0  0  0  0  0  0  0  0  0  0
   24.1985  -12.1487  -15.8585 C   0  0  0  0  0  0  0  0  0  0  0  0
   22.8432  -11.8110  -15.2011 C   0  0  0  0  0  0  0  0  0  0  0  0
   22.6672  -10.3477  -15.3519 C   0  0  2  0  0  0  0  0  0  0  0  0
   23.8621   -9.6696  -14.7098 C   0  0  0  0  0  0  0  0  0  0  0  0
   21.3707   -9.7590  -14.9111 C   0  0  2  0  0  0  0  0  0  0  0  0
   20.3675  -10.3517  -15.8391 N   0  0  0  0  0  0  0  0  0  0  0  0
   21.3168   -8.2844  -15.0168 C   0  0  0  0  0  0  0  0  0  0  0  0
   21.1322   -7.7582  -16.1618 O   0  0  0  0  0  0  0  0  0  0  0  0
   17.0552   -6.3606   -9.3539 O   0  0  0  0  0  0  0  0  0  0  0  0
   17.7463   -6.1823  -10.5455 C   0  0  0  0  0  0  0  0  0  0  0  0
   17.7490   -7.1481  -11.5436 C   0  0  0  0  0  0  0  0  0  0  0  0
   18.4399   -6.9360  -12.7001 C   0  0  0  0  0  0  0  0  0  0  0  0
   19.1501   -5.7849  -12.9295 C   0  0  0  0  0  0  0  0  0  0  0  0
   19.9013   -5.5564  -14.1822 C   0  0  0  0  0  0  0  0  0  0  0  0
   21.3405   -5.9647  -14.0441 C   0  0  2  0  0  0  0  0  0  0  0  0
   21.4546   -7.4140  -13.9154 N   0  0  0  0  0  0  0  0  0  0  0  0
   21.9961   -5.2548  -12.9522 C   0  0  0  0  0  0  0  0  0  0  0  0
   22.4599   -5.7854  -11.9236 O   0  0  0  0  0  0  0  0  0  0  0  0
   19.1551   -4.8142  -11.9413 C   0  0  0  0  0  0  0  0  0  0  0  0
   18.4612   -5.0216  -10.7742 C   0  0  0  0  0  0  0  0  0  0  0  0
   22.1407   -3.8540  -13.0213 O   0  0  0  0  0  0  0  0  0  0  0  0
  2  1  1  0
  3  5  1  0
  3  2  1  0
  3  4  1  1
  5  6  1  6
  7  5  1  0
  7  8  2  0
  9 10  1  0
 11 10  1  0
 11 13  1  0
 11 12  1  1
 13 14  1  6
 14  7  1  0
 15 24  1  0
 15 13  1  0
 16 15  2  0
 17 18  1  0
 18 28  2  0
 19 20  2  0
 19 18  1  0
 20 21  1  0
 21 22  1  0
 21 27  2  0
 23 22  1  1
 23 24  1  0
 23 25  1  0
 25 29  1  0
 26 25  2  0
 28 27  1  0
M  END
$$$$
