IIY.pdb
     RDKit          3D

 29 29  0  0  1  0  0  0  0  0999 V2000
   28.2265  -18.1153  -18.0958 C   0  0  0  0  0  0  0  0  0  0  0  0
   28.7674  -18.9936  -16.9532 C   0  0  0  0  0  0  0  0  0  0  0  0
   27.6421  -19.4279  -16.0838 C   0  0  2  0  0  0  0  0  0  0  0  0
   26.8612  -18.2218  -15.6114 C   0  0  0  0  0  0  0  0  0  0  0  0
   28.0126  -20.3541  -14.9786 C   0  0  2  0  0  0  0  0  0  0  0  0
   28.6242  -21.5478  -15.6000 N   0  0  0  0  0  0  0  0  0  0  0  0
   26.9001  -20.8261  -14.1402 C   0  0  0  0  0  0  0  0  0  0  0  0
   26.2128  -21.8108  -14.5310 O   0  0  0  0  0  0  0  0  0  0  0  0
   27.1370  -20.4108   -8.7851 C   0  0  0  0  0  0  0  0  0  0  0  0
   26.9176  -21.1077  -10.1450 C   0  0  0  0  0  0  0  0  0  0  0  0
   25.6801  -20.5222  -10.7112 C   0  0  2  0  0  0  0  0  0  0  0  0
   24.5374  -20.8598   -9.7729 C   0  0  0  0  0  0  0  0  0  0  0  0
   25.3601  -20.8276  -12.1346 C   0  0  2  0  0  0  0  0  0  0  0  0
   26.5120  -20.2672  -12.8949 N   0  0  0  0  0  0  0  0  0  0  0  0
   24.1103  -20.1984  -12.6149 C   0  0  0  0  0  0  0  0  0  0  0  0
   24.0897  -18.9383  -12.7989 O   0  0  0  0  0  0  0  0  0  0  0  0
   18.5080  -17.5442  -18.3501 O   0  0  0  0  0  0  0  0  0  0  0  0
   19.4662  -18.1622  -17.5569 C   0  0  0  0  0  0  0  0  0  0  0  0
   19.6012  -19.5437  -17.5117 C   0  0  0  0  0  0  0  0  0  0  0  0
   20.5546  -20.1133  -16.7201 C   0  0  0  0  0  0  0  0  0  0  0  0
   21.4077  -19.3671  -15.9472 C   0  0  0  0  0  0  0  0  0  0  0  0
   22.4393  -19.9848  -15.0871 C   0  0  0  0  0  0  0  0  0  0  0  0
   21.8758  -20.3893  -13.7545 C   0  0  2  0  0  0  0  0  0  0  0  0
   22.9269  -20.9153  -12.8891 N   0  0  0  0  0  0  0  0  0  0  0  0
   20.7607  -21.3168  -13.9038 C   0  0  0  0  0  0  0  0  0  0  0  0
   20.8644  -22.5338  -14.1544 O   0  0  0  0  0  0  0  0  0  0  0  0
   21.2828  -17.9880  -15.9838 C   0  0  0  0  0  0  0  0  0  0  0  0
   20.3246  -17.4081  -16.7790 C   0  0  0  0  0  0  0  0  0  0  0  0
   19.4398  -20.8446  -13.7614 O   0  0  0  0  0  0  0  0  0  0  0  0
  2  1  1  0
  3  5  1  0
  3  2  1  0
  3  4  1  1
  5  6  1  6
  7  5  1  0
  7  8  2  0
  9 10  1  0
 11 10  1  0
 11 13  1  0
 11 12  1  1
 13 14  1  6
 14  7  1  0
 15 24  1  0
 15 13  1  0
 16 15  2  0
 17 18  1  0
 18 28  2  0
 19 20  2  0
 19 18  1  0
 20 21  1  0
 21 22  1  0
 21 27  2  0
 23 22  1  6
 23 24  1  0
 23 25  1  0
 25 29  1  0
 26 25  2  0
 28 27  1  0
M  END
$$$$
