IIY.pdb
     RDKit          3D

 29 29  0  0  1  0  0  0  0  0999 V2000
   25.0771  -12.9828  -15.9820 C   0  0  0  0  0  0  0  0  0  0  0  0
   26.1311  -13.9788  -16.4983 C   0  0  0  0  0  0  0  0  0  0  0  0
   25.7351  -15.3618  -16.1224 C   0  0  2  0  0  0  0  0  0  0  0  0
   25.4823  -15.4382  -14.6332 C   0  0  0  0  0  0  0  0  0  0  0  0
   26.6358  -16.4386  -16.6185 C   0  0  2  0  0  0  0  0  0  0  0  0
   26.6856  -16.3179  -18.0909 N   0  0  0  0  0  0  0  0  0  0  0  0
   26.2159  -17.8145  -16.3123 C   0  0  0  0  0  0  0  0  0  0  0  0
   25.2103  -18.2952  -16.9059 O   0  0  0  0  0  0  0  0  0  0  0  0
   29.3379  -21.8716  -16.5698 C   0  0  0  0  0  0  0  0  0  0  0  0
   28.0775  -20.9882  -16.6886 C   0  0  0  0  0  0  0  0  0  0  0  0
   27.4745  -20.9493  -15.3359 C   0  0  2  0  0  0  0  0  0  0  0  0
   27.1865  -22.3780  -14.9167 C   0  0  0  0  0  0  0  0  0  0  0  0
   26.3081  -20.0455  -15.1255 C   0  0  2  0  0  0  0  0  0  0  0  0
   26.8511  -18.6833  -15.3873 N   0  0  0  0  0  0  0  0  0  0  0  0
   25.7556  -20.0916  -13.7539 C   0  0  0  0  0  0  0  0  0  0  0  0
   26.5534  -19.9781  -12.7676 O   0  0  0  0  0  0  0  0  0  0  0  0
   27.9862  -20.8151   -7.3551 O   0  0  0  0  0  0  0  0  0  0  0  0
   26.9777  -20.5571   -8.2748 C   0  0  0  0  0  0  0  0  0  0  0  0
   26.5196  -19.2689   -8.5189 C   0  0  0  0  0  0  0  0  0  0  0  0
   25.5273  -19.0560   -9.4299 C   0  0  0  0  0  0  0  0  0  0  0  0
   24.9459  -20.0800  -10.1339 C   0  0  0  0  0  0  0  0  0  0  0  0
   23.8684  -19.8492  -11.1194 C   0  0  0  0  0  0  0  0  0  0  0  0
   23.9097  -20.8619  -12.2284 C   0  0  2  0  0  0  0  0  0  0  0  0
   24.3840  -20.2511  -13.4662 N   0  0  0  0  0  0  0  0  0  0  0  0
   22.6234  -21.5286  -12.3930 C   0  0  0  0  0  0  0  0  0  0  0  0
   21.9657  -21.5739  -13.4513 O   0  0  0  0  0  0  0  0  0  0  0  0
   25.3944  -21.3694   -9.8991 C   0  0  0  0  0  0  0  0  0  0  0  0
   26.3936  -21.5906   -8.9828 C   0  0  0  0  0  0  0  0  0  0  0  0
   22.0371  -22.1893  -11.2940 O   0  0  0  0  0  0  0  0  0  0  0  0
  2  1  1  0
  3  5  1  0
  3  2  1  0
  3  4  1  1
  5  6  1  6
  7  5  1  0
  7  8  2  0
  9 10  1  0
 11 10  1  0
 11 13  1  0
 11 12  1  6
 13 14  1  1
 14  7  1  0
 15 24  1  0
 15 13  1  0
 16 15  2  0
 17 18  1  0
 18 28  2  0
 19 20  2  0
 19 18  1  0
 20 21  1  0
 21 22  1  0
 21 27  2  0
 23 22  1  1
 23 24  1  0
 23 25  1  0
 25 29  1  0
 26 25  2  0
 28 27  1  0
M  END
$$$$
