IIY.pdb
     RDKit          3D

 29 29  0  0  1  0  0  0  0  0999 V2000
   19.8873  -11.5219  -23.0399 C   0  0  0  0  0  0  0  0  0  0  0  0
   20.5472  -12.1900  -21.8203 C   0  0  0  0  0  0  0  0  0  0  0  0
   20.4878  -11.2682  -20.6551 C   0  0  2  0  0  0  0  0  0  0  0  0
   21.1136   -9.9397  -21.0172 C   0  0  0  0  0  0  0  0  0  0  0  0
   21.0022  -11.8272  -19.3747 C   0  0  2  0  0  0  0  0  0  0  0  0
   20.2659  -13.0841  -19.1235 N   0  0  0  0  0  0  0  0  0  0  0  0
   20.8220  -10.9770  -18.1880 C   0  0  0  0  0  0  0  0  0  0  0  0
   19.6806  -10.9057  -17.6526 O   0  0  0  0  0  0  0  0  0  0  0  0
   23.9482  -11.3821  -14.1532 C   0  0  0  0  0  0  0  0  0  0  0  0
   22.6429  -11.2157  -14.9605 C   0  0  0  0  0  0  0  0  0  0  0  0
   22.5973   -9.7951  -15.3786 C   0  0  2  0  0  0  0  0  0  0  0  0
   22.5852   -8.9438  -14.1236 C   0  0  0  0  0  0  0  0  0  0  0  0
   21.5409   -9.3950  -16.3511 C   0  0  2  0  0  0  0  0  0  0  0  0
   21.8374  -10.2061  -17.5648 N   0  0  0  0  0  0  0  0  0  0  0  0
   21.5697   -7.9597  -16.7084 C   0  0  0  0  0  0  0  0  0  0  0  0
   22.6277   -7.4788  -17.2293 O   0  0  0  0  0  0  0  0  0  0  0  0
   15.0469   -7.0829  -19.8380 O   0  0  0  0  0  0  0  0  0  0  0  0
   16.3276   -6.6855  -19.4758 C   0  0  0  0  0  0  0  0  0  0  0  0
   16.5850   -5.4228  -18.9580 C   0  0  0  0  0  0  0  0  0  0  0  0
   17.8566   -5.0697  -18.6139 C   0  0  0  0  0  0  0  0  0  0  0  0
   18.9198   -5.9245  -18.7589 C   0  0  0  0  0  0  0  0  0  0  0  0
   20.2985   -5.5406  -18.3884 C   0  0  0  0  0  0  0  0  0  0  0  0
   20.5304   -5.6778  -16.9104 C   0  0  2  0  0  0  0  0  0  0  0  0
   20.4846   -7.0806  -16.5100 N   0  0  0  0  0  0  0  0  0  0  0  0
   19.6073   -4.8490  -16.1442 C   0  0  0  0  0  0  0  0  0  0  0  0
   18.7492   -5.2750  -15.3462 O   0  0  0  0  0  0  0  0  0  0  0  0
   18.6756   -7.1869  -19.2744 C   0  0  0  0  0  0  0  0  0  0  0  0
   17.3972   -7.5487  -19.6229 C   0  0  0  0  0  0  0  0  0  0  0  0
   19.6521   -3.4467  -16.2841 O   0  0  0  0  0  0  0  0  0  0  0  0
  2  1  1  0
  3  5  1  0
  3  2  1  0
  3  4  1  6
  5  6  1  1
  7  5  1  0
  7  8  2  0
  9 10  1  0
 11 10  1  0
 11 13  1  0
 11 12  1  1
 13 14  1  6
 14  7  1  0
 15 24  1  0
 15 13  1  0
 16 15  2  0
 17 18  1  0
 18 28  2  0
 19 20  2  0
 19 18  1  0
 20 21  1  0
 21 22  1  0
 21 27  2  0
 23 22  1  6
 23 24  1  0
 23 25  1  0
 25 29  1  0
 26 25  2  0
 28 27  1  0
M  END
$$$$
