IIY.pdb
     RDKit          3D

 29 29  0  0  1  0  0  0  0  0999 V2000
   28.1427  -17.8239  -17.5494 C   0  0  0  0  0  0  0  0  0  0  0  0
   28.7317  -18.8062  -16.5210 C   0  0  0  0  0  0  0  0  0  0  0  0
   27.6491  -19.3039  -15.6316 C   0  0  2  0  0  0  0  0  0  0  0  0
   26.9007  -18.1362  -15.0283 C   0  0  0  0  0  0  0  0  0  0  0  0
   28.0693  -20.3137  -14.6215 C   0  0  2  0  0  0  0  0  0  0  0  0
   28.6326  -21.4611  -15.3639 N   0  0  0  0  0  0  0  0  0  0  0  0
   26.9992  -20.8402  -13.7606 C   0  0  0  0  0  0  0  0  0  0  0  0
   26.2344  -21.7376  -14.2127 O   0  0  0  0  0  0  0  0  0  0  0  0
   27.2260  -20.4038   -8.3099 C   0  0  0  0  0  0  0  0  0  0  0  0
   27.0594  -21.1385   -9.6573 C   0  0  0  0  0  0  0  0  0  0  0  0
   25.8229  -20.5985  -10.2691 C   0  0  2  0  0  0  0  0  0  0  0  0
   24.6648  -20.9430   -9.3524 C   0  0  0  0  0  0  0  0  0  0  0  0
   25.5481  -20.9454  -11.6925 C   0  0  2  0  0  0  0  0  0  0  0  0
   26.7345  -20.4271  -12.4291 N   0  0  0  0  0  0  0  0  0  0  0  0
   24.3258  -20.3140  -12.2367 C   0  0  0  0  0  0  0  0  0  0  0  0
   24.3779  -19.0968  -12.6077 O   0  0  0  0  0  0  0  0  0  0  0  0
   18.1969  -18.0546  -17.6888 O   0  0  0  0  0  0  0  0  0  0  0  0
   19.2403  -18.5501  -16.9175 C   0  0  0  0  0  0  0  0  0  0  0  0
   20.0975  -17.7113  -16.2171 C   0  0  0  0  0  0  0  0  0  0  0  0
   21.1108  -18.2361  -15.4703 C   0  0  0  0  0  0  0  0  0  0  0  0
   21.3286  -19.5873  -15.3761 C   0  0  0  0  0  0  0  0  0  0  0  0
   22.4287  -20.1559  -14.5686 C   0  0  0  0  0  0  0  0  0  0  0  0
   21.9893  -20.4387  -13.1601 C   0  0  2  0  0  0  0  0  0  0  0  0
   23.0928  -20.9845  -12.3761 N   0  0  0  0  0  0  0  0  0  0  0  0
   20.8076  -21.2924  -13.1289 C   0  0  0  0  0  0  0  0  0  0  0  0
   20.8125  -22.5339  -13.2441 O   0  0  0  0  0  0  0  0  0  0  0  0
   20.4801  -20.4342  -16.0702 C   0  0  0  0  0  0  0  0  0  0  0  0
   19.4577  -19.9120  -16.8242 C   0  0  0  0  0  0  0  0  0  0  0  0
   19.5346  -20.7115  -12.9560 O   0  0  0  0  0  0  0  0  0  0  0  0
  2  1  1  0
  3  5  1  0
  3  2  1  0
  3  4  1  1
  5  6  1  6
  7  5  1  0
  7  8  2  0
  9 10  1  0
 11 10  1  0
 11 13  1  0
 11 12  1  1
 13 14  1  6
 14  7  1  0
 15 24  1  0
 15 13  1  0
 16 15  2  0
 17 18  1  0
 18 28  2  0
 19 20  2  0
 19 18  1  0
 20 21  1  0
 21 22  1  0
 21 27  2  0
 23 22  1  6
 23 24  1  0
 23 25  1  0
 25 29  1  0
 26 25  2  0
 28 27  1  0
M  END
$$$$
