IIY.pdb
     RDKit          3D

 29 29  0  0  1  0  0  0  0  0999 V2000
   28.4392  -19.0964  -18.9251 C   0  0  0  0  0  0  0  0  0  0  0  0
   27.3089  -18.9339  -17.8929 C   0  0  0  0  0  0  0  0  0  0  0  0
   26.0164  -19.3468  -18.5011 C   0  0  2  0  0  0  0  0  0  0  0  0
   25.7580  -18.5432  -19.7561 C   0  0  0  0  0  0  0  0  0  0  0  0
   24.8539  -19.3688  -17.5711 C   0  0  2  0  0  0  0  0  0  0  0  0
   24.7559  -18.0229  -16.9677 N   0  0  0  0  0  0  0  0  0  0  0  0
   24.9396  -20.3330  -16.4637 C   0  0  0  0  0  0  0  0  0  0  0  0
   24.9352  -21.5685  -16.7248 O   0  0  0  0  0  0  0  0  0  0  0  0
   28.0880  -19.7986  -12.2365 C   0  0  0  0  0  0  0  0  0  0  0  0
   27.3530  -20.4185  -13.4442 C   0  0  0  0  0  0  0  0  0  0  0  0
   25.9496  -20.6170  -13.0128 C   0  0  2  0  0  0  0  0  0  0  0  0
   25.9636  -21.5205  -11.7948 C   0  0  0  0  0  0  0  0  0  0  0  0
   24.9668  -21.0602  -14.0421 C   0  0  2  0  0  0  0  0  0  0  0  0
   25.0315  -20.0008  -15.0871 N   0  0  0  0  0  0  0  0  0  0  0  0
   23.5790  -21.1612  -13.5395 C   0  0  0  0  0  0  0  0  0  0  0  0
   23.1944  -20.3516  -12.6347 O   0  0  0  0  0  0  0  0  0  0  0  0
   15.0627  -21.0981  -12.5597 O   0  0  0  0  0  0  0  0  0  0  0  0
   16.4317  -21.0287  -12.7840 C   0  0  0  0  0  0  0  0  0  0  0  0
   17.3463  -21.0109  -11.7390 C   0  0  0  0  0  0  0  0  0  0  0  0
   18.6832  -20.9421  -11.9998 C   0  0  0  0  0  0  0  0  0  0  0  0
   19.1792  -20.8883  -13.2778 C   0  0  0  0  0  0  0  0  0  0  0  0
   20.6283  -20.8110  -13.5602 C   0  0  0  0  0  0  0  0  0  0  0  0
   21.2735  -22.1667  -13.5054 C   0  0  2  0  0  0  0  0  0  0  0  0
   22.6425  -22.1062  -14.0078 N   0  0  0  0  0  0  0  0  0  0  0  0
   20.4707  -23.1701  -14.1946 C   0  0  0  0  0  0  0  0  0  0  0  0
   19.4799  -23.7545  -13.7137 O   0  0  0  0  0  0  0  0  0  0  0  0
   18.2767  -20.9054  -14.3286 C   0  0  0  0  0  0  0  0  0  0  0  0
   16.9290  -20.9746  -14.0726 C   0  0  0  0  0  0  0  0  0  0  0  0
   20.8039  -23.5413  -15.5134 O   0  0  0  0  0  0  0  0  0  0  0  0
  2  1  1  0
  3  5  1  0
  3  2  1  0
  3  4  1  6
  5  6  1  1
  7  5  1  0
  7  8  2  0
  9 10  1  0
 11 10  1  0
 11 13  1  0
 11 12  1  1
 13 14  1  6
 14  7  1  0
 15 24  1  0
 15 13  1  0
 16 15  2  0
 17 18  1  0
 18 28  2  0
 19 20  2  0
 19 18  1  0
 20 21  1  0
 21 22  1  0
 21 27  2  0
 23 22  1  6
 23 24  1  0
 23 25  1  0
 25 29  1  0
 26 25  2  0
 28 27  1  0
M  END
$$$$
