IIY.pdb
     RDKit          3D

 29 29  0  0  1  0  0  0  0  0999 V2000
   22.7697  -23.0689  -16.5439 C   0  0  0  0  0  0  0  0  0  0  0  0
   23.5710  -22.2264  -15.5352 C   0  0  0  0  0  0  0  0  0  0  0  0
   24.9232  -21.9443  -16.0855 C   0  0  2  0  0  0  0  0  0  0  0  0
   25.6661  -23.2414  -16.3163 C   0  0  0  0  0  0  0  0  0  0  0  0
   25.7211  -20.9402  -15.3294 C   0  0  2  0  0  0  0  0  0  0  0  0
   25.9639  -21.5031  -13.9844 N   0  0  0  0  0  0  0  0  0  0  0  0
   25.0831  -19.6286  -15.1395 C   0  0  0  0  0  0  0  0  0  0  0  0
   24.4124  -19.4193  -14.0901 O   0  0  0  0  0  0  0  0  0  0  0  0
   27.4979  -15.1303  -16.0894 C   0  0  0  0  0  0  0  0  0  0  0  0
   26.6101  -16.1710  -15.3742 C   0  0  0  0  0  0  0  0  0  0  0  0
   25.3286  -16.1972  -16.1171 C   0  0  2  0  0  0  0  0  0  0  0  0
   24.6977  -14.8231  -15.9994 C   0  0  0  0  0  0  0  0  0  0  0  0
   24.3705  -17.2950  -15.8031 C   0  0  2  0  0  0  0  0  0  0  0  0
   25.1507  -18.5401  -16.0474 N   0  0  0  0  0  0  0  0  0  0  0  0
   23.1660  -17.3015  -16.6621 C   0  0  0  0  0  0  0  0  0  0  0  0
   23.1125  -18.1197  -17.6366 O   0  0  0  0  0  0  0  0  0  0  0  0
   15.0979  -19.9338  -16.8352 O   0  0  0  0  0  0  0  0  0  0  0  0
   16.3773  -19.4625  -16.5705 C   0  0  0  0  0  0  0  0  0  0  0  0
   16.6293  -18.5609  -15.5445 C   0  0  0  0  0  0  0  0  0  0  0  0
   17.8999  -18.1212  -15.3157 C   0  0  0  0  0  0  0  0  0  0  0  0
   18.9672  -18.5381  -16.0701 C   0  0  0  0  0  0  0  0  0  0  0  0
   20.3440  -18.0592  -15.8236 C   0  0  0  0  0  0  0  0  0  0  0  0
   20.6851  -16.8874  -16.6996 C   0  0  2  0  0  0  0  0  0  0  0  0
   22.0580  -16.4512  -16.4649 N   0  0  0  0  0  0  0  0  0  0  0  0
   19.7217  -15.8039  -16.5439 C   0  0  0  0  0  0  0  0  0  0  0  0
   18.7291  -15.6120  -17.2737 O   0  0  0  0  0  0  0  0  0  0  0  0
   18.7285  -19.4373  -17.0964 C   0  0  0  0  0  0  0  0  0  0  0  0
   17.4511  -19.8840  -17.3321 C   0  0  0  0  0  0  0  0  0  0  0  0
   19.8847  -14.8738  -15.4968 O   0  0  0  0  0  0  0  0  0  0  0  0
  2  1  1  0
  3  5  1  0
  3  2  1  0
  3  4  1  1
  5  6  1  1
  7  5  1  0
  7  8  2  0
  9 10  1  0
 11 10  1  0
 11 13  1  0
 11 12  1  1
 13 14  1  6
 14  7  1  0
 15 24  1  0
 15 13  1  0
 16 15  2  0
 17 18  1  0
 18 28  2  0
 19 20  2  0
 19 18  1  0
 20 21  1  0
 21 22  1  0
 21 27  2  0
 23 22  1  1
 23 24  1  0
 23 25  1  0
 25 29  1  0
 26 25  2  0
 28 27  1  0
M  END
$$$$
