IIY.pdb
     RDKit          3D

 29 29  0  0  1  0  0  0  0  0999 V2000
   14.6766  -21.4258    1.2915 C   0  0  0  0  0  0  0  0  0  0  0  0
   15.3722  -20.1288    0.8404 C   0  0  0  0  0  0  0  0  0  0  0  0
   16.0378  -19.4896    2.0063 C   0  0  2  0  0  0  0  0  0  0  0  0
   15.0611  -19.3699    3.1549 C   0  0  0  0  0  0  0  0  0  0  0  0
   16.7530  -18.2174    1.7120 C   0  0  2  0  0  0  0  0  0  0  0  0
   17.7228  -18.5047    0.6340 N   0  0  0  0  0  0  0  0  0  0  0  0
   17.5111  -17.6369    2.8308 C   0  0  0  0  0  0  0  0  0  0  0  0
   18.6314  -18.1336    3.1355 O   0  0  0  0  0  0  0  0  0  0  0  0
   17.7667  -12.3617    3.9295 C   0  0  0  0  0  0  0  0  0  0  0  0
   18.2605  -13.8072    3.7067 C   0  0  0  0  0  0  0  0  0  0  0  0
   17.7035  -14.6077    4.8221 C   0  0  2  0  0  0  0  0  0  0  0  0
   18.1795  -13.9853    6.1206 C   0  0  0  0  0  0  0  0  0  0  0  0
   17.9123  -16.0831    4.7849 C   0  0  2  0  0  0  0  0  0  0  0  0
   17.0949  -16.5373    3.6255 N   0  0  0  0  0  0  0  0  0  0  0  0
   17.4537  -16.7829    6.0050 C   0  0  0  0  0  0  0  0  0  0  0  0
   16.2193  -17.0761    6.1161 O   0  0  0  0  0  0  0  0  0  0  0  0
   15.1070  -22.3081   11.9491 O   0  0  0  0  0  0  0  0  0  0  0  0
   15.6388  -21.5636   10.9040 C   0  0  0  0  0  0  0  0  0  0  0  0
   14.8330  -20.8403   10.0343 C   0  0  0  0  0  0  0  0  0  0  0  0
   15.3929  -20.1211    9.0198 C   0  0  0  0  0  0  0  0  0  0  0  0
   16.7485  -20.0777    8.8129 C   0  0  0  0  0  0  0  0  0  0  0  0
   17.3550  -19.3003    7.7114 C   0  0  0  0  0  0  0  0  0  0  0  0
   17.8543  -17.9660    8.1885 C   0  0  2  0  0  0  0  0  0  0  0  0
   18.3084  -17.1539    7.0639 N   0  0  0  0  0  0  0  0  0  0  0  0
   18.8763  -18.1135    9.2180 C   0  0  0  0  0  0  0  0  0  0  0  0
   20.1020  -18.2047    9.0086 O   0  0  0  0  0  0  0  0  0  0  0  0
   17.5626  -20.7951    9.6738 C   0  0  0  0  0  0  0  0  0  0  0  0
   17.0049  -21.5215   10.6976 C   0  0  0  0  0  0  0  0  0  0  0  0
   18.4948  -18.1613   10.5745 O   0  0  0  0  0  0  0  0  0  0  0  0
  2  1  1  0
  3  5  1  0
  3  2  1  0
  3  4  1  1
  5  6  1  6
  7  5  1  0
  7  8  2  0
  9 10  1  0
 11 10  1  0
 11 13  1  0
 11 12  1  1
 13 14  1  6
 14  7  1  0
 15 24  1  0
 15 13  1  0
 16 15  2  0
 17 18  1  0
 18 28  2  0
 19 20  2  0
 19 18  1  0
 20 21  1  0
 21 22  1  0
 21 27  2  0
 23 22  1  6
 23 24  1  0
 23 25  1  0
 25 29  1  0
 26 25  2  0
 28 27  1  0
M  END
$$$$
