NHR.pdb
     RDKit          3D

 30 30  0  0  1  0  0  0  0  0999 V2000
   28.1408  -23.6211  -18.4679 N   0  0  0  0  0  0  0  0  0  0  0  0
   28.6693  -23.0013  -17.3019 C   0  0  0  0  0  0  0  0  0  0  0  0
   29.9150  -22.9120  -17.1518 O   0  0  0  0  0  0  0  0  0  0  0  0
   27.7964  -22.4509  -16.2387 C   0  0  0  0  0  0  0  0  0  0  0  0
   26.3594  -22.8232  -16.6103 C   0  0  2  0  0  0  0  0  0  0  0  0
   25.9131  -21.9879  -17.7116 N   0  0  0  0  0  0  0  0  0  0  0  0
   25.5011  -22.6615  -15.4174 C   0  0  0  0  0  0  0  0  0  0  0  0
   25.7066  -23.4009  -14.4203 O   0  0  0  0  0  0  0  0  0  0  0  0
   24.4724  -21.6879  -15.4099 N   0  0  0  0  0  0  0  0  0  0  0  0
   23.5459  -21.5067  -14.3236 C   0  0  1  0  0  0  0  0  0  0  0  0
   23.2759  -20.0741  -14.0488 C   0  0  0  0  0  0  0  0  0  0  0  0
   22.3415  -19.7815  -12.9509 C   0  0  0  0  0  0  0  0  0  0  0  0
   22.2580  -20.2222  -11.6579 C   0  0  0  0  0  0  0  0  0  0  0  0
   21.1809  -19.6319  -11.0846 N   0  0  0  0  0  0  0  0  0  0  0  0
   20.6107  -18.8459  -11.9978 C   0  0  0  0  0  0  0  0  0  0  0  0
   21.3050  -18.9329  -13.1208 N   0  0  0  0  0  0  0  0  0  0  0  0
   22.2306  -22.0933  -14.7981 C   0  0  0  0  0  0  0  0  0  0  0  0
   21.8558  -22.0095  -15.9921 O   0  0  0  0  0  0  0  0  0  0  0  0
   17.0436  -26.3041   -9.4562 N   0  0  0  0  0  0  0  0  0  0  0  0
   18.2856  -25.6631   -9.6985 C   0  0  0  0  0  0  0  0  0  0  0  0
   19.2689  -25.7203   -8.8595 N   0  0  0  0  0  0  0  0  0  0  0  0
   18.4660  -24.9326  -10.9009 N   0  0  0  0  0  0  0  0  0  0  0  0
   17.4535  -24.8277  -11.9448 C   0  0  0  0  0  0  0  0  0  0  0  0
   18.0253  -23.9743  -13.0456 C   0  0  0  0  0  0  0  0  0  0  0  0
   19.5140  -24.0463  -13.0600 C   0  0  0  0  0  0  0  0  0  0  0  0
   20.1113  -23.2729  -14.1762 C   0  0  2  0  0  0  0  0  0  0  0  0
   21.4316  -22.7478  -13.8336 N   0  0  0  0  0  0  0  0  0  0  0  0
   19.3016  -22.1887  -14.7346 C   0  0  0  0  0  0  0  0  0  0  0  0
   18.6408  -22.2618  -15.9495 O   0  0  0  0  0  0  0  0  0  0  0  0
   19.1558  -21.0833  -14.1170 O   0  0  0  0  0  0  0  0  0  0  0  0
  1  2  1  0
  2  3  2  0
  4  2  1  0
  5  6  1  6
  5  4  1  0
  7  5  1  0
  8  7  2  0
  9  7  1  0
 10  9  1  0
 11 12  1  0
 10 11  1  6
 12 13  2  0
 14 13  1  0
 15 14  1  0
 16 15  2  0
 16 12  1  0
 17 10  1  0
 17 18  2  0
 19 20  1  0
 20 21  2  0
 22 23  1  0
 22 20  1  0
 23 24  1  0
 26 25  1  1
 25 24  1  0
 26 27  1  0
 27 17  1  0
 28 26  1  0
 29 28  1  0
 30 28  2  0
M  END
$$$$
