NHR.pdb
     RDKit          3D

 30 30  0  0  1  0  0  0  0  0999 V2000
   24.9410   -4.4970  -18.7607 N   0  0  0  0  0  0  0  0  0  0  0  0
   26.3331   -4.7776  -18.8403 C   0  0  0  0  0  0  0  0  0  0  0  0
   27.1683   -3.8862  -18.5406 O   0  0  0  0  0  0  0  0  0  0  0  0
   26.8463   -6.0987  -19.2726 C   0  0  0  0  0  0  0  0  0  0  0  0
   28.3472   -5.9304  -19.5187 C   0  0  2  0  0  0  0  0  0  0  0  0
   28.5585   -5.3290  -20.8240 N   0  0  0  0  0  0  0  0  0  0  0  0
   28.9990   -7.2532  -19.4132 C   0  0  0  0  0  0  0  0  0  0  0  0
   29.2841   -7.8726  -20.4706 O   0  0  0  0  0  0  0  0  0  0  0  0
   29.2929   -7.8000  -18.1401 N   0  0  0  0  0  0  0  0  0  0  0  0
   29.9761   -9.0510  -17.9416 C   0  0  1  0  0  0  0  0  0  0  0  0
   30.8065   -9.0486  -16.7122 C   0  0  0  0  0  0  0  0  0  0  0  0
   32.0815   -8.3182  -16.7831 C   0  0  0  0  0  0  0  0  0  0  0  0
   32.7082   -7.6361  -17.7907 C   0  0  0  0  0  0  0  0  0  0  0  0
   33.8820   -7.1620  -17.3064 N   0  0  0  0  0  0  0  0  0  0  0  0
   33.9814   -7.5402  -16.0320 C   0  0  0  0  0  0  0  0  0  0  0  0
   32.9015   -8.2353  -15.7135 N   0  0  0  0  0  0  0  0  0  0  0  0
   28.8909  -10.0838  -17.7073 C   0  0  0  0  0  0  0  0  0  0  0  0
   27.9604   -9.8981  -16.8870 O   0  0  0  0  0  0  0  0  0  0  0  0
   21.4997  -10.8859  -20.4589 N   0  0  0  0  0  0  0  0  0  0  0  0
   21.8708  -12.2535  -20.3976 C   0  0  0  0  0  0  0  0  0  0  0  0
   21.0605  -13.2058  -20.7305 N   0  0  0  0  0  0  0  0  0  0  0  0
   23.1746  -12.5993  -19.9588 N   0  0  0  0  0  0  0  0  0  0  0  0
   24.2508  -11.6328  -19.7760 C   0  0  0  0  0  0  0  0  0  0  0  0
   25.4602  -12.3883  -19.2926 C   0  0  0  0  0  0  0  0  0  0  0  0
   26.6006  -11.4640  -19.0346 C   0  0  0  0  0  0  0  0  0  0  0  0
   27.8164  -12.1750  -18.5687 C   0  0  2  0  0  0  0  0  0  0  0  0
   28.9659  -11.2790  -18.4573 N   0  0  0  0  0  0  0  0  0  0  0  0
   28.2151  -13.3639  -19.3239 C   0  0  0  0  0  0  0  0  0  0  0  0
   27.5818  -14.5918  -19.2270 O   0  0  0  0  0  0  0  0  0  0  0  0
   29.1971  -13.3361  -20.1360 O   0  0  0  0  0  0  0  0  0  0  0  0
  1  2  1  0
  2  3  2  0
  4  2  1  0
  5  6  1  6
  5  4  1  0
  7  5  1  0
  8  7  2  0
  9  7  1  0
 10  9  1  0
 11 12  1  0
 10 11  1  1
 12 13  2  0
 14 13  1  0
 15 14  1  0
 16 15  2  0
 16 12  1  0
 17 10  1  0
 17 18  2  0
 19 20  1  0
 20 21  2  0
 22 23  1  0
 22 20  1  0
 23 24  1  0
 26 25  1  6
 25 24  1  0
 26 27  1  0
 27 17  1  0
 28 26  1  0
 29 28  1  0
 30 28  2  0
M  END
$$$$
