NHR.pdb
     RDKit          3D

 30 30  0  0  1  0  0  0  0  0999 V2000
   27.8508  -14.0421  -18.2864 N   0  0  0  0  0  0  0  0  0  0  0  0
   28.0806  -14.9079  -19.3912 C   0  0  0  0  0  0  0  0  0  0  0  0
   28.3731  -14.4232  -20.5145 O   0  0  0  0  0  0  0  0  0  0  0  0
   27.9844  -16.3814  -19.2699 C   0  0  0  0  0  0  0  0  0  0  0  0
   27.5338  -16.6780  -17.8378 C   0  0  2  0  0  0  0  0  0  0  0  0
   28.6822  -16.6287  -16.9497 N   0  0  0  0  0  0  0  0  0  0  0  0
   26.8760  -18.0018  -17.8094 C   0  0  0  0  0  0  0  0  0  0  0  0
   26.4690  -18.4978  -18.8918 O   0  0  0  0  0  0  0  0  0  0  0  0
   26.7153  -18.6883  -16.5810 N   0  0  0  0  0  0  0  0  0  0  0  0
   26.1368  -20.0009  -16.4641 C   0  0  1  0  0  0  0  0  0  0  0  0
   26.9028  -20.8719  -15.5391 C   0  0  0  0  0  0  0  0  0  0  0  0
   26.4528  -22.2681  -15.4290 C   0  0  0  0  0  0  0  0  0  0  0  0
   26.6183  -23.3649  -16.2308 C   0  0  0  0  0  0  0  0  0  0  0  0
   25.9753  -24.4072  -15.6499 N   0  0  0  0  0  0  0  0  0  0  0  0
   25.4250  -23.9688  -14.5177 C   0  0  0  0  0  0  0  0  0  0  0  0
   25.7095  -22.6838  -14.3812 N   0  0  0  0  0  0  0  0  0  0  0  0
   24.7802  -19.8003  -15.8172 C   0  0  0  0  0  0  0  0  0  0  0  0
   24.6420  -19.1737  -14.7394 O   0  0  0  0  0  0  0  0  0  0  0  0
   19.9524  -24.6002  -12.5472 N   0  0  0  0  0  0  0  0  0  0  0  0
   19.0963  -24.3022  -13.6382 C   0  0  0  0  0  0  0  0  0  0  0  0
   17.8084  -24.2694  -13.5182 N   0  0  0  0  0  0  0  0  0  0  0  0
   19.6628  -24.0275  -14.9094 N   0  0  0  0  0  0  0  0  0  0  0  0
   21.0977  -23.9870  -15.1652 C   0  0  0  0  0  0  0  0  0  0  0  0
   21.5765  -22.5975  -14.8377 C   0  0  0  0  0  0  0  0  0  0  0  0
   21.7215  -21.7765  -16.0731 C   0  0  0  0  0  0  0  0  0  0  0  0
   22.3663  -20.4659  -15.8141 C   0  0  2  0  0  0  0  0  0  0  0  0
   23.6614  -20.3512  -16.4819 N   0  0  0  0  0  0  0  0  0  0  0  0
   22.5205  -20.0724  -14.4126 C   0  0  0  0  0  0  0  0  0  0  0  0
   21.5376  -19.4349  -13.6741 O   0  0  0  0  0  0  0  0  0  0  0  0
   23.6002  -20.2996  -13.7743 O   0  0  0  0  0  0  0  0  0  0  0  0
  1  2  1  0
  2  3  2  0
  4  2  1  0
  5  6  1  1
  5  4  1  0
  7  5  1  0
  8  7  2  0
  9  7  1  0
 10  9  1  0
 11 12  1  0
 10 11  1  1
 12 13  2  0
 14 13  1  0
 15 14  1  0
 16 15  2  0
 16 12  1  0
 17 10  1  0
 17 18  2  0
 19 20  1  0
 20 21  2  0
 22 23  1  0
 22 20  1  0
 23 24  1  0
 26 25  1  1
 25 24  1  0
 26 27  1  0
 27 17  1  0
 28 26  1  0
 29 28  1  0
 30 28  2  0
M  END
$$$$
