NHR.pdb
     RDKit          3D

 30 30  0  0  1  0  0  0  0  0999 V2000
   25.7619  -27.0866  -17.1512 N   0  0  0  0  0  0  0  0  0  0  0  0
   26.7580  -26.1493  -16.7609 C   0  0  0  0  0  0  0  0  0  0  0  0
   27.9725  -26.4087  -16.9605 O   0  0  0  0  0  0  0  0  0  0  0  0
   26.4160  -24.8604  -16.1151 C   0  0  0  0  0  0  0  0  0  0  0  0
   26.7741  -23.7574  -17.1136 C   0  0  2  0  0  0  0  0  0  0  0  0
   28.2190  -23.6413  -17.2079 N   0  0  0  0  0  0  0  0  0  0  0  0
   26.1508  -22.4921  -16.6704 C   0  0  0  0  0  0  0  0  0  0  0  0
   26.6811  -21.8567  -15.7227 O   0  0  0  0  0  0  0  0  0  0  0  0
   24.9806  -22.0152  -17.3102 N   0  0  0  0  0  0  0  0  0  0  0  0
   24.3336  -20.7731  -16.9788 C   0  0  1  0  0  0  0  0  0  0  0  0
   24.0407  -19.9543  -18.1807 C   0  0  0  0  0  0  0  0  0  0  0  0
   23.3854  -18.6580  -17.9477 C   0  0  0  0  0  0  0  0  0  0  0  0
   23.7907  -17.5095  -17.3233 C   0  0  0  0  0  0  0  0  0  0  0  0
   22.7722  -16.6175  -17.3884 N   0  0  0  0  0  0  0  0  0  0  0  0
   21.7613  -17.1972  -18.0357 C   0  0  0  0  0  0  0  0  0  0  0  0
   22.1256  -18.4235  -18.3736 N   0  0  0  0  0  0  0  0  0  0  0  0
   22.9859  -21.1502  -16.3952 C   0  0  0  0  0  0  0  0  0  0  0  0
   22.2582  -22.0308  -16.9133 O   0  0  0  0  0  0  0  0  0  0  0  0
   20.5649  -26.1427  -11.9293 N   0  0  0  0  0  0  0  0  0  0  0  0
   19.3511  -25.4094  -11.8998 C   0  0  0  0  0  0  0  0  0  0  0  0
   18.2108  -25.9686  -11.6531 N   0  0  0  0  0  0  0  0  0  0  0  0
   19.3785  -24.0128  -12.1468 N   0  0  0  0  0  0  0  0  0  0  0  0
   20.5820  -23.2798  -12.5208 C   0  0  0  0  0  0  0  0  0  0  0  0
   20.1916  -21.8388  -12.7166 C   0  0  0  0  0  0  0  0  0  0  0  0
   21.3493  -21.0309  -13.1944 C   0  0  0  0  0  0  0  0  0  0  0  0
   21.2584  -20.7033  -14.6384 C   0  0  2  0  0  0  0  0  0  0  0  0
   22.5738  -20.4653  -15.2298 N   0  0  0  0  0  0  0  0  0  0  0  0
   20.3669  -19.6034  -15.0102 C   0  0  0  0  0  0  0  0  0  0  0  0
   19.0366  -19.7681  -15.3583 O   0  0  0  0  0  0  0  0  0  0  0  0
   20.7767  -18.3967  -15.0367 O   0  0  0  0  0  0  0  0  0  0  0  0
  1  2  1  0
  2  3  2  0
  4  2  1  0
  5  6  1  1
  5  4  1  0
  7  5  1  0
  8  7  2  0
  9  7  1  0
 10  9  1  0
 11 12  1  0
 10 11  1  6
 12 13  2  0
 14 13  1  0
 15 14  1  0
 16 15  2  0
 16 12  1  0
 17 10  1  0
 17 18  2  0
 19 20  1  0
 20 21  2  0
 22 23  1  0
 22 20  1  0
 23 24  1  0
 26 25  1  1
 25 24  1  0
 26 27  1  0
 27 17  1  0
 28 26  1  0
 29 28  1  0
 30 28  2  0
M  END
$$$$
