NHR.pdb
     RDKit          3D

 30 30  0  0  1  0  0  0  0  0999 V2000
   23.4273  -10.1342  -18.8639 N   0  0  0  0  0  0  0  0  0  0  0  0
   22.4418   -9.2616  -19.4027 C   0  0  0  0  0  0  0  0  0  0  0  0
   22.4967   -8.9294  -20.6146 O   0  0  0  0  0  0  0  0  0  0  0  0
   21.3373   -8.7173  -18.5785 C   0  0  0  0  0  0  0  0  0  0  0  0
   21.5151   -9.2875  -17.1697 C   0  0  2  0  0  0  0  0  0  0  0  0
   21.1085  -10.6820  -17.1577 N   0  0  0  0  0  0  0  0  0  0  0  0
   20.7196   -8.4769  -16.2231 C   0  0  0  0  0  0  0  0  0  0  0  0
   19.4720   -8.4199  -16.3765 O   0  0  0  0  0  0  0  0  0  0  0  0
   21.3620   -7.7844  -15.1677 N   0  0  0  0  0  0  0  0  0  0  0  0
   20.6625   -7.0614  -14.1385 C   0  0  1  0  0  0  0  0  0  0  0  0
   21.2429   -7.2963  -12.7936 C   0  0  0  0  0  0  0  0  0  0  0  0
   20.6129   -6.5810  -11.6731 C   0  0  0  0  0  0  0  0  0  0  0  0
   19.5962   -5.6672  -11.6066 C   0  0  0  0  0  0  0  0  0  0  0  0
   19.4299   -5.3219  -10.3065 N   0  0  0  0  0  0  0  0  0  0  0  0
   20.3202   -6.0031   -9.5851 C   0  0  0  0  0  0  0  0  0  0  0  0
   21.0331   -6.7610  -10.4025 N   0  0  0  0  0  0  0  0  0  0  0  0
   20.8885   -5.5920  -14.4371 C   0  0  0  0  0  0  0  0  0  0  0  0
   22.0297   -5.1277  -14.6723 O   0  0  0  0  0  0  0  0  0  0  0  0
   14.7260   -0.8731  -18.3222 N   0  0  0  0  0  0  0  0  0  0  0  0
   15.8418   -1.3298  -19.0694 C   0  0  0  0  0  0  0  0  0  0  0  0
   15.8916   -1.2458  -20.3596 N   0  0  0  0  0  0  0  0  0  0  0  0
   16.9476   -1.8988  -18.3869 N   0  0  0  0  0  0  0  0  0  0  0  0
   17.0207   -2.0377  -16.9374 C   0  0  0  0  0  0  0  0  0  0  0  0
   18.3798   -2.5936  -16.6042 C   0  0  0  0  0  0  0  0  0  0  0  0
   18.5508   -2.7416  -15.1310 C   0  0  0  0  0  0  0  0  0  0  0  0
   19.8618   -3.3320  -14.7659 C   0  0  2  0  0  0  0  0  0  0  0  0
   19.7514   -4.7530  -14.4420 N   0  0  0  0  0  0  0  0  0  0  0  0
   20.6138   -2.6620  -13.7035 C   0  0  0  0  0  0  0  0  0  0  0  0
   21.7424   -1.8896  -13.9219 O   0  0  0  0  0  0  0  0  0  0  0  0
   20.2631   -2.7554  -12.4817 O   0  0  0  0  0  0  0  0  0  0  0  0
  1  2  1  0
  2  3  2  0
  4  2  1  0
  5  6  1  6
  5  4  1  0
  7  5  1  0
  8  7  2  0
  9  7  1  0
 10  9  1  0
 11 12  1  0
 10 11  1  1
 12 13  2  0
 14 13  1  0
 15 14  1  0
 16 15  2  0
 16 12  1  0
 17 10  1  0
 17 18  2  0
 19 20  1  0
 20 21  2  0
 22 23  1  0
 22 20  1  0
 23 24  1  0
 26 25  1  1
 25 24  1  0
 26 27  1  0
 27 17  1  0
 28 26  1  0
 29 28  1  0
 30 28  2  0
M  END
$$$$
