NHR.pdb
     RDKit          3D

 30 30  0  0  1  0  0  0  0  0999 V2000
   19.3871  -22.0143  -12.9780 N   0  0  0  0  0  0  0  0  0  0  0  0
   20.1671  -21.4752  -14.0382 C   0  0  0  0  0  0  0  0  0  0  0  0
   20.0772  -21.9667  -15.1925 O   0  0  0  0  0  0  0  0  0  0  0  0
   21.0987  -20.3416  -13.8323 C   0  0  0  0  0  0  0  0  0  0  0  0
   22.4022  -20.7059  -14.5463 C   0  0  2  0  0  0  0  0  0  0  0  0
   23.1021  -21.7254  -13.7844 N   0  0  0  0  0  0  0  0  0  0  0  0
   23.2179  -19.4828  -14.7032 C   0  0  0  0  0  0  0  0  0  0  0  0
   22.9988  -18.5080  -13.9384 O   0  0  0  0  0  0  0  0  0  0  0  0
   24.2244  -19.4237  -15.6979 N   0  0  0  0  0  0  0  0  0  0  0  0
   25.1043  -18.3002  -15.8845 C   0  0  1  0  0  0  0  0  0  0  0  0
   26.5244  -18.7127  -16.0037 C   0  0  0  0  0  0  0  0  0  0  0  0
   26.7743  -20.1426  -16.2423 C   0  0  0  0  0  0  0  0  0  0  0  0
   25.9434  -21.2129  -16.4349 C   0  0  0  0  0  0  0  0  0  0  0  0
   26.7144  -22.3158  -16.5974 N   0  0  0  0  0  0  0  0  0  0  0  0
   27.9902  -21.9400  -16.5076 C   0  0  0  0  0  0  0  0  0  0  0  0
   28.0307  -20.6348  -16.2941 N   0  0  0  0  0  0  0  0  0  0  0  0
   24.7324  -17.7004  -17.2265 C   0  0  0  0  0  0  0  0  0  0  0  0
   23.9233  -18.2595  -18.0051 O   0  0  0  0  0  0  0  0  0  0  0  0
   19.1971  -12.6784  -19.5233 N   0  0  0  0  0  0  0  0  0  0  0  0
   20.4004  -11.9680  -19.7670 C   0  0  0  0  0  0  0  0  0  0  0  0
   20.4172  -10.8192  -20.3619 N   0  0  0  0  0  0  0  0  0  0  0  0
   21.6338  -12.5281  -19.3460 N   0  0  0  0  0  0  0  0  0  0  0  0
   21.7461  -13.7896  -18.6235 C   0  0  0  0  0  0  0  0  0  0  0  0
   23.2128  -14.0845  -18.4534 C   0  0  0  0  0  0  0  0  0  0  0  0
   23.5319  -15.4760  -18.8813 C   0  0  0  0  0  0  0  0  0  0  0  0
   24.9829  -15.7760  -18.8089 C   0  0  2  0  0  0  0  0  0  0  0  0
   25.3375  -16.4712  -17.5730 N   0  0  0  0  0  0  0  0  0  0  0  0
   25.8992  -14.6501  -18.9976 C   0  0  0  0  0  0  0  0  0  0  0  0
   25.9381  -13.8655  -20.1382 O   0  0  0  0  0  0  0  0  0  0  0  0
   26.7387  -14.3194  -18.0973 O   0  0  0  0  0  0  0  0  0  0  0  0
  1  2  1  0
  2  3  2  0
  4  2  1  0
  5  6  1  1
  5  4  1  0
  7  5  1  0
  8  7  2  0
  9  7  1  0
 10  9  1  0
 11 12  1  0
 10 11  1  6
 12 13  2  0
 14 13  1  0
 15 14  1  0
 16 15  2  0
 16 12  1  0
 17 10  1  0
 17 18  2  0
 19 20  1  0
 20 21  2  0
 22 23  1  0
 22 20  1  0
 23 24  1  0
 26 25  1  1
 25 24  1  0
 26 27  1  0
 27 17  1  0
 28 26  1  0
 29 28  1  0
 30 28  2  0
M  END
$$$$
