NHR.pdb
     RDKit          3D

 30 30  0  0  1  0  0  0  0  0999 V2000
   29.1945  -22.0266  -10.9291 N   0  0  0  0  0  0  0  0  0  0  0  0
   28.8295  -20.9861  -10.0307 C   0  0  0  0  0  0  0  0  0  0  0  0
   29.7082  -20.4439   -9.3124 O   0  0  0  0  0  0  0  0  0  0  0  0
   27.4320  -20.5105   -9.9032 C   0  0  0  0  0  0  0  0  0  0  0  0
   26.6171  -21.2429  -10.9716 C   0  0  2  0  0  0  0  0  0  0  0  0
   27.5163  -21.8066  -11.9634 N   0  0  0  0  0  0  0  0  0  0  0  0
   25.6607  -20.2918  -11.5772 C   0  0  0  0  0  0  0  0  0  0  0  0
   24.8710  -19.6664  -10.8232 O   0  0  0  0  0  0  0  0  0  0  0  0
   25.6458  -20.0967  -12.9799 N   0  0  0  0  0  0  0  0  0  0  0  0
   24.7334  -19.2143  -13.6584 C   0  0  1  0  0  0  0  0  0  0  0  0
   25.4038  -18.4180  -14.7155 C   0  0  0  0  0  0  0  0  0  0  0  0
   24.5512  -17.4973  -15.4833 C   0  0  0  0  0  0  0  0  0  0  0  0
   23.2044  -17.2536  -15.4782 C   0  0  0  0  0  0  0  0  0  0  0  0
   22.9493  -16.3009  -16.4080 N   0  0  0  0  0  0  0  0  0  0  0  0
   24.1070  -15.9625  -16.9755 C   0  0  0  0  0  0  0  0  0  0  0  0
   25.0723  -16.6792  -16.4227 N   0  0  0  0  0  0  0  0  0  0  0  0
   23.7462  -20.1121  -14.3784 C   0  0  0  0  0  0  0  0  0  0  0  0
   24.0862  -21.2120  -14.8765 O   0  0  0  0  0  0  0  0  0  0  0  0
   20.5048  -22.5320   -8.8573 N   0  0  0  0  0  0  0  0  0  0  0  0
   19.4843  -22.8983   -9.7717 C   0  0  0  0  0  0  0  0  0  0  0  0
   18.5714  -23.7669   -9.4781 N   0  0  0  0  0  0  0  0  0  0  0  0
   19.4542  -22.2953  -11.0554 N   0  0  0  0  0  0  0  0  0  0  0  0
   20.5235  -22.4275  -12.0377 C   0  0  0  0  0  0  0  0  0  0  0  0
   20.1572  -21.5738  -13.2227 C   0  0  0  0  0  0  0  0  0  0  0  0
   21.1427  -21.7417  -14.3281 C   0  0  0  0  0  0  0  0  0  0  0  0
   21.3724  -20.4853  -15.0827 C   0  0  2  0  0  0  0  0  0  0  0  0
   22.4105  -19.6596  -14.4686 N   0  0  0  0  0  0  0  0  0  0  0  0
   20.1991  -19.6507  -15.3466 C   0  0  0  0  0  0  0  0  0  0  0  0
   19.0521  -20.1036  -15.9772 O   0  0  0  0  0  0  0  0  0  0  0  0
   20.1661  -18.4239  -15.0024 O   0  0  0  0  0  0  0  0  0  0  0  0
  1  2  1  0
  2  3  2  0
  4  2  1  0
  5  6  1  6
  5  4  1  0
  7  5  1  0
  8  7  2  0
  9  7  1  0
 10  9  1  0
 11 12  1  0
 10 11  1  6
 12 13  2  0
 14 13  1  0
 15 14  1  0
 16 15  2  0
 16 12  1  0
 17 10  1  0
 17 18  2  0
 19 20  1  0
 20 21  2  0
 22 23  1  0
 22 20  1  0
 23 24  1  0
 26 25  1  1
 25 24  1  0
 26 27  1  0
 27 17  1  0
 28 26  1  0
 29 28  1  0
 30 28  2  0
M  END
$$$$
