NHR.pdb
     RDKit          3D

 30 30  0  0  1  0  0  0  0  0999 V2000
   29.9251  -20.5115  -17.7650 N   0  0  0  0  0  0  0  0  0  0  0  0
   28.6360  -20.1729  -17.2682 C   0  0  0  0  0  0  0  0  0  0  0  0
   28.0842  -19.1051  -17.6389 O   0  0  0  0  0  0  0  0  0  0  0  0
   27.9075  -21.0407  -16.3135 C   0  0  0  0  0  0  0  0  0  0  0  0
   27.2031  -20.1123  -15.3217 C   0  0  2  0  0  0  0  0  0  0  0  0
   28.1097  -19.0475  -14.9289 N   0  0  0  0  0  0  0  0  0  0  0  0
   26.7561  -20.9080  -14.1586 C   0  0  0  0  0  0  0  0  0  0  0  0
   26.5358  -22.1368  -14.3157 O   0  0  0  0  0  0  0  0  0  0  0  0
   26.5849  -20.2868  -12.8973 N   0  0  0  0  0  0  0  0  0  0  0  0
   25.9226  -20.9067  -11.7800 C   0  0  1  0  0  0  0  0  0  0  0  0
   26.6440  -20.6806  -10.5035 C   0  0  0  0  0  0  0  0  0  0  0  0
   28.0539  -21.0985  -10.4639 C   0  0  0  0  0  0  0  0  0  0  0  0
   28.8647  -21.7244  -11.3717 C   0  0  0  0  0  0  0  0  0  0  0  0
   30.0854  -21.8798  -10.8033 N   0  0  0  0  0  0  0  0  0  0  0  0
   30.0335  -21.3643   -9.5751 C   0  0  0  0  0  0  0  0  0  0  0  0
   28.8145  -20.8937   -9.3671 N   0  0  0  0  0  0  0  0  0  0  0  0
   24.5929  -20.1920  -11.6373 C   0  0  0  0  0  0  0  0  0  0  0  0
   24.5149  -18.9447  -11.5306 O   0  0  0  0  0  0  0  0  0  0  0  0
   21.6296  -17.8696  -17.8386 N   0  0  0  0  0  0  0  0  0  0  0  0
   20.6336  -18.3629  -16.9574 C   0  0  0  0  0  0  0  0  0  0  0  0
   19.3747  -18.1198  -17.1305 N   0  0  0  0  0  0  0  0  0  0  0  0
   21.0216  -19.1531  -15.8450 N   0  0  0  0  0  0  0  0  0  0  0  0
   22.4056  -19.4899  -15.5339 C   0  0  0  0  0  0  0  0  0  0  0  0
   22.3934  -20.3710  -14.3130 C   0  0  0  0  0  0  0  0  0  0  0  0
   22.0679  -19.5851  -13.0892 C   0  0  0  0  0  0  0  0  0  0  0  0
   22.1078  -20.4083  -11.8557 C   0  0  2  0  0  0  0  0  0  0  0  0
   23.4284  -20.9926  -11.6298 N   0  0  0  0  0  0  0  0  0  0  0  0
   21.0978  -21.4606  -11.7323 C   0  0  0  0  0  0  0  0  0  0  0  0
   21.3918  -22.8119  -11.6572 O   0  0  0  0  0  0  0  0  0  0  0  0
   19.8541  -21.1850  -11.6870 O   0  0  0  0  0  0  0  0  0  0  0  0
  1  2  1  0
  2  3  2  0
  4  2  1  0
  5  6  1  1
  5  4  1  0
  7  5  1  0
  8  7  2  0
  9  7  1  0
 10  9  1  0
 11 12  1  0
 10 11  1  1
 12 13  2  0
 14 13  1  0
 15 14  1  0
 16 15  2  0
 16 12  1  0
 17 10  1  0
 17 18  2  0
 19 20  1  0
 20 21  2  0
 22 23  1  0
 22 20  1  0
 23 24  1  0
 26 25  1  6
 25 24  1  0
 26 27  1  0
 27 17  1  0
 28 26  1  0
 29 28  1  0
 30 28  2  0
M  END
$$$$
