NHR.pdb
     RDKit          3D

 30 30  0  0  1  0  0  0  0  0999 V2000
   28.9290  -20.6197  -19.3173 N   0  0  0  0  0  0  0  0  0  0  0  0
   28.8728  -21.9601  -18.8449 C   0  0  0  0  0  0  0  0  0  0  0  0
   29.3586  -22.8886  -19.5406 O   0  0  0  0  0  0  0  0  0  0  0  0
   28.2517  -22.3117  -17.5465 C   0  0  0  0  0  0  0  0  0  0  0  0
   27.7458  -21.0053  -16.9309 C   0  0  2  0  0  0  0  0  0  0  0  0
   28.8736  -20.2367  -16.4335 N   0  0  0  0  0  0  0  0  0  0  0  0
   26.7844  -21.3262  -15.8544 C   0  0  0  0  0  0  0  0  0  0  0  0
   25.8327  -22.1093  -16.1079 O   0  0  0  0  0  0  0  0  0  0  0  0
   26.9445  -20.7576  -14.5671 N   0  0  0  0  0  0  0  0  0  0  0  0
   26.0192  -20.9528  -13.4822 C   0  0  1  0  0  0  0  0  0  0  0  0
   26.5105  -20.3639  -12.2123 C   0  0  0  0  0  0  0  0  0  0  0  0
   25.6347  -20.5100  -11.0393 C   0  0  0  0  0  0  0  0  0  0  0  0
   25.7092  -21.2843   -9.9132 C   0  0  0  0  0  0  0  0  0  0  0  0
   24.6134  -21.0283   -9.1576 N   0  0  0  0  0  0  0  0  0  0  0  0
   23.8780  -20.1195   -9.7980 C   0  0  0  0  0  0  0  0  0  0  0  0
   24.4881  -19.8053  -10.9293 N   0  0  0  0  0  0  0  0  0  0  0  0
   24.7761  -20.1665  -13.8506 C   0  0  0  0  0  0  0  0  0  0  0  0
   24.8376  -19.0558  -14.4300 O   0  0  0  0  0  0  0  0  0  0  0  0
   20.8774  -19.5294  -19.2190 N   0  0  0  0  0  0  0  0  0  0  0  0
   19.7905  -18.7560  -18.7368 C   0  0  0  0  0  0  0  0  0  0  0  0
   18.7104  -18.5755  -19.4259 N   0  0  0  0  0  0  0  0  0  0  0  0
   19.8809  -18.1565  -17.4543 N   0  0  0  0  0  0  0  0  0  0  0  0
   20.9918  -18.3734  -16.5352 C   0  0  0  0  0  0  0  0  0  0  0  0
   20.9498  -19.8165  -16.1074 C   0  0  0  0  0  0  0  0  0  0  0  0
   22.2603  -20.2451  -15.5415 C   0  0  0  0  0  0  0  0  0  0  0  0
   22.2811  -20.2056  -14.0587 C   0  0  2  0  0  0  0  0  0  0  0  0
   23.5285  -20.7385  -13.5141 N   0  0  0  0  0  0  0  0  0  0  0  0
   21.1557  -20.8358  -13.3664 C   0  0  0  0  0  0  0  0  0  0  0  0
   19.9939  -20.1707  -13.0113 O   0  0  0  0  0  0  0  0  0  0  0  0
   21.1825  -22.0677  -13.0405 O   0  0  0  0  0  0  0  0  0  0  0  0
  1  2  1  0
  2  3  2  0
  4  2  1  0
  5  6  1  1
  5  4  1  0
  7  5  1  0
  8  7  2  0
  9  7  1  0
 10  9  1  0
 11 12  1  0
 10 11  1  1
 12 13  2  0
 14 13  1  0
 15 14  1  0
 16 15  2  0
 16 12  1  0
 17 10  1  0
 17 18  2  0
 19 20  1  0
 20 21  2  0
 22 23  1  0
 22 20  1  0
 23 24  1  0
 26 25  1  6
 25 24  1  0
 26 27  1  0
 27 17  1  0
 28 26  1  0
 29 28  1  0
 30 28  2  0
M  END
$$$$
