NHR.pdb
     RDKit          3D

 30 30  0  0  1  0  0  0  0  0999 V2000
   20.3404  -30.8016  -15.1586 N   0  0  0  0  0  0  0  0  0  0  0  0
   19.9278  -30.9408  -13.8045 C   0  0  0  0  0  0  0  0  0  0  0  0
   18.8900  -30.3537  -13.4041 O   0  0  0  0  0  0  0  0  0  0  0  0
   20.6863  -31.7606  -12.8309 C   0  0  0  0  0  0  0  0  0  0  0  0
   20.6135  -31.0310  -11.4878 C   0  0  2  0  0  0  0  0  0  0  0  0
   21.4062  -29.8156  -11.5542 N   0  0  0  0  0  0  0  0  0  0  0  0
   21.0927  -31.9400  -10.4247 C   0  0  0  0  0  0  0  0  0  0  0  0
   20.8257  -33.1664  -10.5125 O   0  0  0  0  0  0  0  0  0  0  0  0
   21.8382  -31.4270   -9.3351 N   0  0  0  0  0  0  0  0  0  0  0  0
   22.3307  -32.2325   -8.2489 C   0  0  1  0  0  0  0  0  0  0  0  0
   23.7603  -31.9662   -7.9554 C   0  0  0  0  0  0  0  0  0  0  0  0
   24.7436  -32.6403   -8.8174 C   0  0  0  0  0  0  0  0  0  0  0  0
   24.6251  -33.5789   -9.8064 C   0  0  0  0  0  0  0  0  0  0  0  0
   25.8690  -33.8605  -10.2655 N   0  0  0  0  0  0  0  0  0  0  0  0
   26.7365  -33.1166   -9.5794 C   0  0  0  0  0  0  0  0  0  0  0  0
   26.0644  -32.3818   -8.7081 N   0  0  0  0  0  0  0  0  0  0  0  0
   21.5643  -31.7845   -7.0196 C   0  0  0  0  0  0  0  0  0  0  0  0
   21.2404  -30.5867   -6.8363 O   0  0  0  0  0  0  0  0  0  0  0  0
   13.6512  -31.4927   -4.9525 N   0  0  0  0  0  0  0  0  0  0  0  0
   14.3804  -30.9574   -3.8599 C   0  0  0  0  0  0  0  0  0  0  0  0
   13.8265  -30.2171   -2.9549 N   0  0  0  0  0  0  0  0  0  0  0  0
   15.7659  -31.2395   -3.7461 N   0  0  0  0  0  0  0  0  0  0  0  0
   16.6484  -31.4401   -4.8893 C   0  0  0  0  0  0  0  0  0  0  0  0
   17.9932  -31.8562   -4.3552 C   0  0  0  0  0  0  0  0  0  0  0  0
   18.9528  -32.1164   -5.4655 C   0  0  0  0  0  0  0  0  0  0  0  0
   20.3018  -32.4930   -4.9766 C   0  0  2  0  0  0  0  0  0  0  0  0
   21.2225  -32.7787   -6.0753 N   0  0  0  0  0  0  0  0  0  0  0  0
   20.3698  -33.5869   -4.0062 C   0  0  0  0  0  0  0  0  0  0  0  0
   20.0506  -33.4540   -2.6651 O   0  0  0  0  0  0  0  0  0  0  0  0
   20.7388  -34.7575   -4.3502 O   0  0  0  0  0  0  0  0  0  0  0  0
  1  2  1  0
  2  3  2  0
  4  2  1  0
  5  6  1  6
  5  4  1  0
  7  5  1  0
  8  7  2  0
  9  7  1  0
 10  9  1  0
 11 12  1  0
 10 11  1  1
 12 13  2  0
 14 13  1  0
 15 14  1  0
 16 15  2  0
 16 12  1  0
 17 10  1  0
 17 18  2  0
 19 20  1  0
 20 21  2  0
 22 23  1  0
 22 20  1  0
 23 24  1  0
 26 25  1  6
 25 24  1  0
 26 27  1  0
 27 17  1  0
 28 26  1  0
 29 28  1  0
 30 28  2  0
M  END
$$$$
