NHR.pdb
     RDKit          3D

 30 30  0  0  1  0  0  0  0  0999 V2000
   27.2146  -21.9162  -16.9508 N   0  0  0  0  0  0  0  0  0  0  0  0
   25.8126  -21.7246  -16.8066 C   0  0  0  0  0  0  0  0  0  0  0  0
   25.0171  -22.6218  -17.1865 O   0  0  0  0  0  0  0  0  0  0  0  0
   25.2433  -20.4888  -16.2202 C   0  0  0  0  0  0  0  0  0  0  0  0
   24.0933  -20.0563  -17.1325 C   0  0  2  0  0  0  0  0  0  0  0  0
   24.5530  -20.0295  -18.5101 N   0  0  0  0  0  0  0  0  0  0  0  0
   23.6072  -18.7314  -16.6915 C   0  0  0  0  0  0  0  0  0  0  0  0
   23.5157  -18.5012  -15.4579 O   0  0  0  0  0  0  0  0  0  0  0  0
   23.2564  -17.7492  -17.6497 N   0  0  0  0  0  0  0  0  0  0  0  0
   22.8808  -16.4003  -17.3167 C   0  0  1  0  0  0  0  0  0  0  0  0
   24.0182  -15.4552  -17.4347 C   0  0  0  0  0  0  0  0  0  0  0  0
   25.1300  -15.6454  -16.4903 C   0  0  0  0  0  0  0  0  0  0  0  0
   25.2752  -15.3724  -15.1571 C   0  0  0  0  0  0  0  0  0  0  0  0
   26.5261  -15.7429  -14.7892 N   0  0  0  0  0  0  0  0  0  0  0  0
   27.1411  -16.2326  -15.8657 C   0  0  0  0  0  0  0  0  0  0  0  0
   26.3056  -16.1758  -16.8902 N   0  0  0  0  0  0  0  0  0  0  0  0
   21.8779  -15.9765  -18.3720 C   0  0  0  0  0  0  0  0  0  0  0  0
   21.9583  -16.3649  -19.5619 O   0  0  0  0  0  0  0  0  0  0  0  0
   14.6329  -11.2792  -16.9793 N   0  0  0  0  0  0  0  0  0  0  0  0
   15.8726  -10.8003  -17.4749 C   0  0  0  0  0  0  0  0  0  0  0  0
   16.2722   -9.5851  -17.2811 N   0  0  0  0  0  0  0  0  0  0  0  0
   16.7116  -11.6777  -18.2088 N   0  0  0  0  0  0  0  0  0  0  0  0
   16.3971  -13.0793  -18.4586 C   0  0  0  0  0  0  0  0  0  0  0  0
   17.5700  -13.6839  -19.1837 C   0  0  0  0  0  0  0  0  0  0  0  0
   18.6683  -14.0234  -18.2351 C   0  0  0  0  0  0  0  0  0  0  0  0
   19.8444  -14.6198  -18.9147 C   0  0  2  0  0  0  0  0  0  0  0  0
   20.8341  -15.1171  -17.9609 N   0  0  0  0  0  0  0  0  0  0  0  0
   20.5230  -13.7879  -19.9097 C   0  0  0  0  0  0  0  0  0  0  0  0
   20.2214  -13.7952  -21.2614 O   0  0  0  0  0  0  0  0  0  0  0  0
   21.4582  -12.9873  -19.5792 O   0  0  0  0  0  0  0  0  0  0  0  0
  1  2  1  0
  2  3  2  0
  4  2  1  0
  5  6  1  6
  5  4  1  0
  7  5  1  0
  8  7  2  0
  9  7  1  0
 10  9  1  0
 11 12  1  0
 10 11  1  6
 12 13  2  0
 14 13  1  0
 15 14  1  0
 16 15  2  0
 16 12  1  0
 17 10  1  0
 17 18  2  0
 19 20  1  0
 20 21  2  0
 22 23  1  0
 22 20  1  0
 23 24  1  0
 26 25  1  1
 25 24  1  0
 26 27  1  0
 27 17  1  0
 28 26  1  0
 29 28  1  0
 30 28  2  0
M  END
$$$$
