QVT.pdb
     RDKit          3D

 24 23  0  0  1  0  0  0  0  0999 V2000
   22.4444  -21.3169  -11.4667 N   0  0  0  0  0  0  0  0  0  0  0  0
   21.1915  -21.0717  -12.1269 C   0  0  0  0  0  0  0  0  0  0  0  0
   20.1677  -21.1493  -11.4093 O   0  0  0  0  0  0  0  0  0  0  0  0
   21.1735  -20.7511  -13.5663 C   0  0  0  0  0  0  0  0  0  0  0  0
   22.5124  -20.6750  -14.2128 C   0  0  0  0  0  0  0  0  0  0  0  0
   23.2494  -19.3983  -13.9786 C   0  0  2  0  0  0  0  0  0  0  0  0
   22.6651  -18.2813  -14.7122 N   0  0  0  0  0  0  0  0  0  0  0  0
   24.6933  -19.5236  -14.3198 C   0  0  0  0  0  0  0  0  0  0  0  0
   25.1466  -18.9975  -15.3691 O   0  0  0  0  0  0  0  0  0  0  0  0
   27.5398  -21.6538  -11.8989 C   0  0  0  0  0  0  0  0  0  0  0  0
   27.9089  -20.3388  -12.5821 C   0  0  1  0  0  0  0  0  0  0  0  0
   29.3757  -20.4484  -12.9452 C   0  0  0  0  0  0  0  0  0  0  0  0
   27.0320  -20.2442  -13.8154 C   0  0  2  0  0  0  0  0  0  0  0  0
   25.6331  -20.2242  -13.5101 N   0  0  0  0  0  0  0  0  0  0  0  0
   27.3705  -21.3365  -14.7890 C   0  0  0  0  0  0  0  0  0  0  0  0
   26.9874  -22.5194  -14.6037 O   0  0  0  0  0  0  0  0  0  0  0  0
   28.7295  -22.3511  -19.3957 C   0  0  0  0  0  0  0  0  0  0  0  0
   28.6125  -21.3008  -18.3118 C   0  0  1  0  0  0  0  0  0  0  0  0
   27.5356  -20.4850  -18.6564 O   0  0  0  0  0  0  0  0  0  0  0  0
   28.3030  -21.9817  -16.9969 C   0  0  2  0  0  0  0  0  0  0  0  0
   28.1480  -20.9880  -15.9425 N   0  0  0  0  0  0  0  0  0  0  0  0
   29.4072  -22.9187  -16.6946 C   0  0  0  0  0  0  0  0  0  0  0  0
   30.5216  -22.4487  -16.3598 O   0  0  0  0  0  0  0  0  0  0  0  0
   29.2656  -24.2920  -16.7647 O   0  0  0  0  0  0  0  0  0  0  0  0
  2  1  1  0
  3  2  2  0
  4  2  1  0
  5  4  1  0
  6  5  1  0
  6  7  1  6
  8 14  1  0
  8  6  1  0
  9  8  2  0
 11 10  1  6
 11 13  1  0
 12 11  1  0
 13 14  1  1
 15 21  1  0
 15 13  1  0
 16 15  2  0
 18 20  1  0
 18 17  1  6
 19 18  1  0
 20 22  1  0
 20 21  1  1
 22 24  1  0
 23 22  2  0
M  END
$$$$
