QVT.pdb
     RDKit          3D

 24 23  0  0  1  0  0  0  0  0999 V2000
   16.0115  -12.2928  -14.6322 N   0  0  0  0  0  0  0  0  0  0  0  0
   15.3830  -12.9426  -13.5148 C   0  0  0  0  0  0  0  0  0  0  0  0
   15.2465  -14.1844  -13.6067 O   0  0  0  0  0  0  0  0  0  0  0  0
   14.9459  -12.1434  -12.3549 C   0  0  0  0  0  0  0  0  0  0  0  0
   15.2578  -10.6899  -12.4362 C   0  0  0  0  0  0  0  0  0  0  0  0
   14.8146   -9.8874  -11.2584 C   0  0  2  0  0  0  0  0  0  0  0  0
   13.3650   -9.8975  -11.0977 N   0  0  0  0  0  0  0  0  0  0  0  0
   15.3025   -8.4826  -11.3322 C   0  0  0  0  0  0  0  0  0  0  0  0
   14.4896   -7.5345  -11.4863 O   0  0  0  0  0  0  0  0  0  0  0  0
   14.9358   -6.0331  -10.3944 C   0  0  0  0  0  0  0  0  0  0  0  0
   16.4378   -5.9365  -10.1353 C   0  0  1  0  0  0  0  0  0  0  0  0
   16.6687   -6.5317   -8.7612 C   0  0  0  0  0  0  0  0  0  0  0  0
   17.1063   -6.7572  -11.2209 C   0  0  2  0  0  0  0  0  0  0  0  0
   16.6778   -8.1234  -11.2367 N   0  0  0  0  0  0  0  0  0  0  0  0
   18.6007   -6.6469  -11.1215 C   0  0  0  0  0  0  0  0  0  0  0  0
   19.2151   -7.0024  -10.0838 O   0  0  0  0  0  0  0  0  0  0  0  0
   20.9089   -8.5248  -12.9967 C   0  0  0  0  0  0  0  0  0  0  0  0
   21.2542   -7.0934  -13.3481 C   0  0  1  0  0  0  0  0  0  0  0  0
   20.5601   -6.7874  -14.5180 O   0  0  0  0  0  0  0  0  0  0  0  0
   20.7658   -6.1830  -12.2431 C   0  0  2  0  0  0  0  0  0  0  0  0
   19.3100   -6.1212  -12.2516 N   0  0  0  0  0  0  0  0  0  0  0  0
   21.3619   -4.8454  -12.4538 C   0  0  0  0  0  0  0  0  0  0  0  0
   20.6181   -3.9063  -12.8275 O   0  0  0  0  0  0  0  0  0  0  0  0
   22.7050   -4.5837  -12.2569 O   0  0  0  0  0  0  0  0  0  0  0  0
  2  1  1  0
  3  2  2  0
  4  2  1  0
  5  4  1  0
  6  5  1  0
  6  7  1  6
  8 14  1  0
  8  6  1  0
  9  8  2  0
 11 10  1  6
 11 13  1  0
 12 11  1  0
 13 14  1  1
 15 21  1  0
 15 13  1  0
 16 15  2  0
 18 20  1  0
 18 17  1  1
 19 18  1  0
 20 22  1  0
 20 21  1  6
 22 24  1  0
 23 22  2  0
M  END
$$$$
