QVT.pdb
     RDKit          3D

 24 23  0  0  1  0  0  0  0  0999 V2000
   16.9897   -8.5011  -19.2496 N   0  0  0  0  0  0  0  0  0  0  0  0
   15.8211   -9.3027  -19.0096 C   0  0  0  0  0  0  0  0  0  0  0  0
   15.1241   -9.5731  -20.0146 O   0  0  0  0  0  0  0  0  0  0  0  0
   15.5114   -9.7525  -17.6395 C   0  0  0  0  0  0  0  0  0  0  0  0
   16.4623   -9.2877  -16.5925 C   0  0  0  0  0  0  0  0  0  0  0  0
   17.3627  -10.3471  -16.0494 C   0  0  2  0  0  0  0  0  0  0  0  0
   16.6215  -11.4173  -15.3917 N   0  0  0  0  0  0  0  0  0  0  0  0
   18.3733   -9.7852  -15.1113 C   0  0  0  0  0  0  0  0  0  0  0  0
   18.1480   -9.7619  -13.8735 O   0  0  0  0  0  0  0  0  0  0  0  0
   22.3553   -9.9427  -15.7405 C   0  0  0  0  0  0  0  0  0  0  0  0
   21.7519   -9.6610  -14.3661 C   0  0  1  0  0  0  0  0  0  0  0  0
   22.8430   -8.9931  -13.5544 C   0  0  0  0  0  0  0  0  0  0  0  0
   20.5799   -8.7288  -14.6035 C   0  0  2  0  0  0  0  0  0  0  0  0
   19.6251   -9.2520  -15.5336 N   0  0  0  0  0  0  0  0  0  0  0  0
   21.0630   -7.3671  -15.0135 C   0  0  0  0  0  0  0  0  0  0  0  0
   21.6038   -7.1744  -16.1318 O   0  0  0  0  0  0  0  0  0  0  0  0
   19.1657   -4.2814  -15.3958 C   0  0  0  0  0  0  0  0  0  0  0  0
   20.2184   -3.9623  -14.3558 C   0  0  1  0  0  0  0  0  0  0  0  0
   19.6137   -4.1198  -13.1094 O   0  0  0  0  0  0  0  0  0  0  0  0
   21.3484   -4.9608  -14.4756 C   0  0  2  0  0  0  0  0  0  0  0  0
   20.8880   -6.2873  -14.0860 N   0  0  0  0  0  0  0  0  0  0  0  0
   22.4590   -4.5023  -13.6125 C   0  0  0  0  0  0  0  0  0  0  0  0
   22.7170   -5.1486  -12.5682 O   0  0  0  0  0  0  0  0  0  0  0  0
   23.2270   -3.3909  -13.9061 O   0  0  0  0  0  0  0  0  0  0  0  0
  2  1  1  0
  3  2  2  0
  4  2  1  0
  5  4  1  0
  6  5  1  0
  6  7  1  1
  8 14  1  0
  8  6  1  0
  9  8  2  0
 11 10  1  6
 11 13  1  0
 12 11  1  0
 13 14  1  6
 15 21  1  0
 15 13  1  0
 16 15  2  0
 18 20  1  0
 18 17  1  6
 19 18  1  0
 20 22  1  0
 20 21  1  1
 22 24  1  0
 23 22  2  0
M  END
$$$$
