QVT.pdb
     RDKit          3D

 24 23  0  0  1  0  0  0  0  0999 V2000
   16.9848  -10.9769  -19.3821 N   0  0  0  0  0  0  0  0  0  0  0  0
   17.6622  -12.0338  -20.0819 C   0  0  0  0  0  0  0  0  0  0  0  0
   17.0912  -12.4672  -21.1091 O   0  0  0  0  0  0  0  0  0  0  0  0
   18.9519  -12.5380  -19.5743 C   0  0  0  0  0  0  0  0  0  0  0  0
   19.4637  -11.8499  -18.3573 C   0  0  0  0  0  0  0  0  0  0  0  0
   20.7943  -12.3289  -17.8798 C   0  0  2  0  0  0  0  0  0  0  0  0
   20.7899  -13.7549  -17.5734 N   0  0  0  0  0  0  0  0  0  0  0  0
   21.2646  -11.5613  -16.6939 C   0  0  0  0  0  0  0  0  0  0  0  0
   20.7307  -11.7397  -15.5684 O   0  0  0  0  0  0  0  0  0  0  0  0
   25.0834  -10.1145  -16.2876 C   0  0  0  0  0  0  0  0  0  0  0  0
   24.1373  -10.3460  -15.1113 C   0  0  1  0  0  0  0  0  0  0  0  0
   24.6495   -9.4781  -13.9799 C   0  0  0  0  0  0  0  0  0  0  0  0
   22.7653   -9.9026  -15.5805 C   0  0  2  0  0  0  0  0  0  0  0  0
   22.3169  -10.6024  -16.7465 N   0  0  0  0  0  0  0  0  0  0  0  0
   22.7312   -8.4145  -15.7808 C   0  0  0  0  0  0  0  0  0  0  0  0
   23.3589   -7.8668  -16.7222 O   0  0  0  0  0  0  0  0  0  0  0  0
   19.9736   -6.3422  -16.6370 C   0  0  0  0  0  0  0  0  0  0  0  0
   20.4374   -5.7840  -15.3084 C   0  0  1  0  0  0  0  0  0  0  0  0
   19.6415   -6.3707  -14.3254 O   0  0  0  0  0  0  0  0  0  0  0  0
   21.8749   -6.1939  -15.0761 C   0  0  2  0  0  0  0  0  0  0  0  0
   21.9569   -7.6328  -14.8610 N   0  0  0  0  0  0  0  0  0  0  0  0
   22.3817   -5.4454  -13.9050 C   0  0  0  0  0  0  0  0  0  0  0  0
   22.5766   -6.0658  -12.8317 O   0  0  0  0  0  0  0  0  0  0  0  0
   22.6507   -4.0899  -13.9406 O   0  0  0  0  0  0  0  0  0  0  0  0
  2  1  1  0
  3  2  2  0
  4  2  1  0
  5  4  1  0
  6  5  1  0
  6  7  1  1
  8 14  1  0
  8  6  1  0
  9  8  2  0
 11 10  1  6
 11 13  1  0
 12 11  1  0
 13 14  1  6
 15 21  1  0
 15 13  1  0
 16 15  2  0
 18 20  1  0
 18 17  1  6
 19 18  1  0
 20 22  1  0
 20 21  1  1
 22 24  1  0
 23 22  2  0
M  END
$$$$
