QVT.pdb
     RDKit          3D

 24 23  0  0  1  0  0  0  0  0999 V2000
   15.6580   -8.0350  -19.6241 N   0  0  0  0  0  0  0  0  0  0  0  0
   16.2002   -9.1143  -20.4032 C   0  0  0  0  0  0  0  0  0  0  0  0
   15.7012   -9.2759  -21.5407 O   0  0  0  0  0  0  0  0  0  0  0  0
   17.2803   -9.9489  -19.8447 C   0  0  0  0  0  0  0  0  0  0  0  0
   17.7435   -9.5555  -18.4856 C   0  0  0  0  0  0  0  0  0  0  0  0
   18.4509  -10.6305  -17.7294 C   0  0  2  0  0  0  0  0  0  0  0  0
   17.5368  -11.6614  -17.2508 N   0  0  0  0  0  0  0  0  0  0  0  0
   19.2308  -10.0802  -16.5866 C   0  0  0  0  0  0  0  0  0  0  0  0
   18.6734   -9.8728  -15.4777 O   0  0  0  0  0  0  0  0  0  0  0  0
   23.3052   -9.1375  -14.1372 C   0  0  0  0  0  0  0  0  0  0  0  0
   22.6250   -9.9282  -15.2527 C   0  0  1  0  0  0  0  0  0  0  0  0
   22.3711  -11.3136  -14.6944 C   0  0  0  0  0  0  0  0  0  0  0  0
   21.3298   -9.2003  -15.5557 C   0  0  2  0  0  0  0  0  0  0  0  0
   20.6168   -9.7599  -16.6642 N   0  0  0  0  0  0  0  0  0  0  0  0
   21.5811   -7.7316  -15.7438 C   0  0  0  0  0  0  0  0  0  0  0  0
   22.2825   -7.3048  -16.6958 O   0  0  0  0  0  0  0  0  0  0  0  0
   20.1086   -3.1739  -14.8608 C   0  0  0  0  0  0  0  0  0  0  0  0
   19.8984   -4.6571  -14.6428 C   0  0  1  0  0  0  0  0  0  0  0  0
   18.8792   -5.0508  -15.5090 O   0  0  0  0  0  0  0  0  0  0  0  0
   21.1646   -5.3949  -15.0176 C   0  0  2  0  0  0  0  0  0  0  0  0
   20.9939   -6.8255  -14.7998 N   0  0  0  0  0  0  0  0  0  0  0  0
   22.2704   -4.8543  -14.1968 C   0  0  0  0  0  0  0  0  0  0  0  0
   22.3509   -5.1982  -12.9927 O   0  0  0  0  0  0  0  0  0  0  0  0
   23.2211   -3.9852  -14.6987 O   0  0  0  0  0  0  0  0  0  0  0  0
  2  1  1  0
  3  2  2  0
  4  2  1  0
  5  4  1  0
  6  5  1  0
  6  7  1  1
  8 14  1  0
  8  6  1  0
  9  8  2  0
 11 10  1  1
 11 13  1  0
 12 11  1  0
 13 14  1  6
 15 21  1  0
 15 13  1  0
 16 15  2  0
 18 20  1  0
 18 17  1  6
 19 18  1  0
 20 22  1  0
 20 21  1  1
 22 24  1  0
 23 22  2  0
M  END
$$$$
