QVT.pdb
     RDKit          3D

 24 23  0  0  1  0  0  0  0  0999 V2000
   14.2864   -9.9927  -15.8202 N   0  0  0  0  0  0  0  0  0  0  0  0
   14.4526  -11.1340  -16.6778 C   0  0  0  0  0  0  0  0  0  0  0  0
   13.4192  -11.5424  -17.2560 O   0  0  0  0  0  0  0  0  0  0  0  0
   15.7856  -11.7465  -16.8302 C   0  0  0  0  0  0  0  0  0  0  0  0
   16.8679  -11.1098  -16.0304 C   0  0  0  0  0  0  0  0  0  0  0  0
   18.2247  -11.6984  -16.2321 C   0  0  2  0  0  0  0  0  0  0  0  0
   18.2448  -13.1359  -15.9859 N   0  0  0  0  0  0  0  0  0  0  0  0
   19.2489  -11.0287  -15.3838 C   0  0  0  0  0  0  0  0  0  0  0  0
   19.1031  -10.9739  -14.1352 O   0  0  0  0  0  0  0  0  0  0  0  0
   23.7034   -9.4193  -14.3996 C   0  0  0  0  0  0  0  0  0  0  0  0
   22.8185  -10.1891  -15.3777 C   0  0  1  0  0  0  0  0  0  0  0  0
   23.0579  -11.6587  -15.0976 C   0  0  0  0  0  0  0  0  0  0  0  0
   21.3915   -9.7840  -15.0633 C   0  0  2  0  0  0  0  0  0  0  0  0
   20.4271  -10.4227  -15.9073 N   0  0  0  0  0  0  0  0  0  0  0  0
   21.2485   -8.2893  -15.0918 C   0  0  0  0  0  0  0  0  0  0  0  0
   21.9346   -7.5522  -14.3392 O   0  0  0  0  0  0  0  0  0  0  0  0
   18.5261   -6.5616  -17.8712 C   0  0  0  0  0  0  0  0  0  0  0  0
   19.7668   -5.8180  -17.4247 C   0  0  1  0  0  0  0  0  0  0  0  0
   19.4294   -4.4661  -17.3736 O   0  0  0  0  0  0  0  0  0  0  0  0
   20.1423   -6.2764  -16.0329 C   0  0  2  0  0  0  0  0  0  0  0  0
   20.3008   -7.7247  -16.0083 N   0  0  0  0  0  0  0  0  0  0  0  0
   19.0794   -5.8361  -15.1028 C   0  0  0  0  0  0  0  0  0  0  0  0
   18.3350   -6.7032  -14.5845 O   0  0  0  0  0  0  0  0  0  0  0  0
   18.8696   -4.5087  -14.7785 O   0  0  0  0  0  0  0  0  0  0  0  0
  2  1  1  0
  3  2  2  0
  4  2  1  0
  5  4  1  0
  6  5  1  0
  6  7  1  1
  8 14  1  0
  8  6  1  0
  9  8  2  0
 11 10  1  1
 11 13  1  0
 12 11  1  0
 13 14  1  6
 15 21  1  0
 15 13  1  0
 16 15  2  0
 18 20  1  0
 18 17  1  1
 19 18  1  0
 20 22  1  0
 20 21  1  6
 22 24  1  0
 23 22  2  0
M  END
$$$$
