QVT.pdb
     RDKit          3D

 24 23  0  0  1  0  0  0  0  0999 V2000
   28.1579  -23.6422  -17.8381 N   0  0  0  0  0  0  0  0  0  0  0  0
   29.1961  -22.6714  -17.6243 C   0  0  0  0  0  0  0  0  0  0  0  0
   30.0173  -22.5298  -18.5595 O   0  0  0  0  0  0  0  0  0  0  0  0
   29.2413  -21.9155  -16.3587 C   0  0  0  0  0  0  0  0  0  0  0  0
   28.1873  -22.2752  -15.3706 C   0  0  0  0  0  0  0  0  0  0  0  0
   27.0460  -21.3162  -15.2953 C   0  0  2  0  0  0  0  0  0  0  0  0
   27.4824  -19.9639  -14.9660 N   0  0  0  0  0  0  0  0  0  0  0  0
   26.0131  -21.7625  -14.3202 C   0  0  0  0  0  0  0  0  0  0  0  0
   25.4378  -22.8720  -14.4667 O   0  0  0  0  0  0  0  0  0  0  0  0
   26.4087  -21.3654  -10.7322 C   0  0  0  0  0  0  0  0  0  0  0  0
   24.8931  -21.2182  -10.8489 C   0  0  1  0  0  0  0  0  0  0  0  0
   24.5679  -19.8135  -10.3837 C   0  0  0  0  0  0  0  0  0  0  0  0
   24.5627  -21.4131  -12.3159 C   0  0  2  0  0  0  0  0  0  0  0  0
   25.6157  -20.9917  -13.1899 N   0  0  0  0  0  0  0  0  0  0  0  0
   23.2605  -20.7471  -12.6568 C   0  0  0  0  0  0  0  0  0  0  0  0
   23.0885  -19.5152  -12.4739 O   0  0  0  0  0  0  0  0  0  0  0  0
   20.8569  -22.5406  -15.5485 C   0  0  0  0  0  0  0  0  0  0  0  0
   20.9425  -21.0660  -15.2164 C   0  0  1  0  0  0  0  0  0  0  0  0
   19.7595  -20.4824  -15.6681 O   0  0  0  0  0  0  0  0  0  0  0  0
   21.0205  -20.9026  -13.7146 C   0  0  2  0  0  0  0  0  0  0  0  0
   22.2134  -21.5626  -13.2002 N   0  0  0  0  0  0  0  0  0  0  0  0
   19.7914  -21.4787  -13.1262 C   0  0  0  0  0  0  0  0  0  0  0  0
   19.8873  -22.5156  -12.4260 O   0  0  0  0  0  0  0  0  0  0  0  0
   18.5391  -20.9240  -13.3140 O   0  0  0  0  0  0  0  0  0  0  0  0
  2  1  1  0
  3  2  2  0
  4  2  1  0
  5  4  1  0
  6  5  1  0
  6  7  1  1
  8 14  1  0
  8  6  1  0
  9  8  2  0
 11 10  1  6
 11 13  1  0
 12 11  1  0
 13 14  1  6
 15 21  1  0
 15 13  1  0
 16 15  2  0
 18 20  1  0
 18 17  1  1
 19 18  1  0
 20 22  1  0
 20 21  1  1
 22 24  1  0
 23 22  2  0
M  END
$$$$
