QVT.pdb
     RDKit          3D

 24 23  0  0  1  0  0  0  0  0999 V2000
   10.5011  -10.3516   -9.5536 N   0  0  0  0  0  0  0  0  0  0  0  0
   10.2508  -11.5743  -10.2664 C   0  0  0  0  0  0  0  0  0  0  0  0
    9.1042  -12.0617  -10.1362 O   0  0  0  0  0  0  0  0  0  0  0  0
   11.3187  -12.1738  -11.0881 C   0  0  0  0  0  0  0  0  0  0  0  0
   12.6102  -11.4331  -11.0829 C   0  0  0  0  0  0  0  0  0  0  0  0
   13.6293  -11.9444  -12.0461 C   0  0  2  0  0  0  0  0  0  0  0  0
   13.9239  -13.3579  -11.8392 N   0  0  0  0  0  0  0  0  0  0  0  0
   14.8900  -11.1543  -11.9874 C   0  0  0  0  0  0  0  0  0  0  0  0
   15.8035  -11.4735  -11.1830 O   0  0  0  0  0  0  0  0  0  0  0  0
   17.4872  -10.6849  -14.3530 C   0  0  0  0  0  0  0  0  0  0  0  0
   17.1340   -9.2356  -14.0257 C   0  0  1  0  0  0  0  0  0  0  0  0
   16.2724   -8.7418  -15.1701 C   0  0  0  0  0  0  0  0  0  0  0  0
   16.3634   -9.2742  -12.7205 C   0  0  2  0  0  0  0  0  0  0  0  0
   15.1437  -10.0191  -12.8098 N   0  0  0  0  0  0  0  0  0  0  0  0
   16.1261   -7.8833  -12.2061 C   0  0  0  0  0  0  0  0  0  0  0  0
   15.0913   -7.2396  -12.5148 O   0  0  0  0  0  0  0  0  0  0  0  0
   16.1536   -6.6526   -8.6229 C   0  0  0  0  0  0  0  0  0  0  0  0
   17.2112   -5.8777   -9.3797 C   0  0  1  0  0  0  0  0  0  0  0  0
   18.4273   -6.5156   -9.1386 O   0  0  0  0  0  0  0  0  0  0  0  0
   16.9110   -5.9509  -10.8605 C   0  0  2  0  0  0  0  0  0  0  0  0
   17.1204   -7.3082  -11.3475 N   0  0  0  0  0  0  0  0  0  0  0  0
   17.7935   -4.9882  -11.5555 C   0  0  0  0  0  0  0  0  0  0  0  0
   18.7044   -5.4318  -12.2959 O   0  0  0  0  0  0  0  0  0  0  0  0
   17.6589   -3.6185  -11.4250 O   0  0  0  0  0  0  0  0  0  0  0  0
  2  1  1  0
  3  2  2  0
  4  2  1  0
  5  4  1  0
  6  5  1  0
  6  7  1  1
  8 14  1  0
  8  6  1  0
  9  8  2  0
 11 10  1  6
 11 13  1  0
 12 11  1  0
 13 14  1  6
 15 21  1  0
 15 13  1  0
 16 15  2  0
 18 20  1  0
 18 17  1  1
 19 18  1  0
 20 22  1  0
 20 21  1  6
 22 24  1  0
 23 22  2  0
M  END
$$$$
