QVT.pdb
     RDKit          3D

 24 23  0  0  1  0  0  0  0  0999 V2000
   23.4890  -20.3572  -10.2152 N   0  0  0  0  0  0  0  0  0  0  0  0
   24.6303  -20.4482   -9.3463 C   0  0  0  0  0  0  0  0  0  0  0  0
   24.3827  -20.5582   -8.1233 O   0  0  0  0  0  0  0  0  0  0  0  0
   25.9895  -20.4099   -9.9175 C   0  0  0  0  0  0  0  0  0  0  0  0
   26.0500  -20.1862  -11.3882 C   0  0  0  0  0  0  0  0  0  0  0  0
   25.3299  -21.2056  -12.2069 C   0  0  2  0  0  0  0  0  0  0  0  0
   25.9651  -22.5168  -12.1391 N   0  0  0  0  0  0  0  0  0  0  0  0
   25.2018  -20.7819  -13.6285 C   0  0  0  0  0  0  0  0  0  0  0  0
   25.9879  -21.2352  -14.5003 O   0  0  0  0  0  0  0  0  0  0  0  0
   22.4852  -19.1211  -17.3205 C   0  0  0  0  0  0  0  0  0  0  0  0
   22.5317  -19.5536  -15.8566 C   0  0  1  0  0  0  0  0  0  0  0  0
   21.8827  -20.9215  -15.7993 C   0  0  0  0  0  0  0  0  0  0  0  0
   23.9996  -19.6138  -15.4815 C   0  0  2  0  0  0  0  0  0  0  0  0
   24.2137  -19.8642  -14.0880 N   0  0  0  0  0  0  0  0  0  0  0  0
   24.7122  -18.3727  -15.9367 C   0  0  0  0  0  0  0  0  0  0  0  0
   24.4210  -17.2427  -15.4691 O   0  0  0  0  0  0  0  0  0  0  0  0
   28.2940  -17.6188  -15.7559 C   0  0  0  0  0  0  0  0  0  0  0  0
   27.9427  -17.5219  -17.2252 C   0  0  1  0  0  0  0  0  0  0  0  0
   28.2830  -18.7448  -17.8019 O   0  0  0  0  0  0  0  0  0  0  0  0
   26.4498  -17.3202  -17.3629 C   0  0  2  0  0  0  0  0  0  0  0  0
   25.7405  -18.5158  -16.9261 N   0  0  0  0  0  0  0  0  0  0  0  0
   26.1578  -17.0092  -18.7795 C   0  0  0  0  0  0  0  0  0  0  0  0
   25.4724  -17.8221  -19.4459 O   0  0  0  0  0  0  0  0  0  0  0  0
   26.6075  -15.8602  -19.4029 O   0  0  0  0  0  0  0  0  0  0  0  0
  2  1  1  0
  3  2  2  0
  4  2  1  0
  5  4  1  0
  6  5  1  0
  6  7  1  6
  8 14  1  0
  8  6  1  0
  9  8  2  0
 11 10  1  6
 11 13  1  0
 12 11  1  0
 13 14  1  1
 15 21  1  0
 15 13  1  0
 16 15  2  0
 18 20  1  0
 18 17  1  1
 19 18  1  0
 20 22  1  0
 20 21  1  6
 22 24  1  0
 23 22  2  0
M  END
$$$$
