QVT.pdb
     RDKit          3D

 24 23  0  0  1  0  0  0  0  0999 V2000
   19.6547  -13.2565  -21.2834 N   0  0  0  0  0  0  0  0  0  0  0  0
   20.6672  -14.1493  -21.7770 C   0  0  0  0  0  0  0  0  0  0  0  0
   20.4882  -14.5982  -22.9326 O   0  0  0  0  0  0  0  0  0  0  0  0
   21.8270  -14.4807  -20.9284 C   0  0  0  0  0  0  0  0  0  0  0  0
   21.8772  -13.7686  -19.6219 C   0  0  0  0  0  0  0  0  0  0  0  0
   23.1242  -13.9941  -18.8332 C   0  0  2  0  0  0  0  0  0  0  0  0
   23.3093  -15.3979  -18.4830 N   0  0  0  0  0  0  0  0  0  0  0  0
   23.1564  -13.1599  -17.6003 C   0  0  0  0  0  0  0  0  0  0  0  0
   22.5147  -13.5127  -16.5771 O   0  0  0  0  0  0  0  0  0  0  0  0
   26.0898  -10.2314  -16.8756 C   0  0  0  0  0  0  0  0  0  0  0  0
   25.3406  -10.9642  -15.7647 C   0  0  1  0  0  0  0  0  0  0  0  0
   25.3582  -10.0413  -14.5632 C   0  0  0  0  0  0  0  0  0  0  0  0
   23.9322  -11.1849  -16.2810 C   0  0  2  0  0  0  0  0  0  0  0  0
   23.8910  -11.9439  -17.4945 N   0  0  0  0  0  0  0  0  0  0  0  0
   23.2103   -9.8755  -16.4223 C   0  0  0  0  0  0  0  0  0  0  0  0
   23.5154   -9.0547  -17.3243 O   0  0  0  0  0  0  0  0  0  0  0  0
   19.4489   -9.5516  -16.6391 C   0  0  0  0  0  0  0  0  0  0  0  0
   19.9092   -8.6529  -15.5111 C   0  0  1  0  0  0  0  0  0  0  0  0
   19.7256   -9.3664  -14.3274 O   0  0  0  0  0  0  0  0  0  0  0  0
   21.3849   -8.3664  -15.6799 C   0  0  2  0  0  0  0  0  0  0  0  0
   22.1570   -9.5879  -15.4926 N   0  0  0  0  0  0  0  0  0  0  0  0
   21.7671   -7.3322  -14.6934 C   0  0  0  0  0  0  0  0  0  0  0  0
   22.5224   -7.6545  -13.7446 O   0  0  0  0  0  0  0  0  0  0  0  0
   21.3280   -6.0236  -14.7708 O   0  0  0  0  0  0  0  0  0  0  0  0
  2  1  1  0
  3  2  2  0
  4  2  1  0
  5  4  1  0
  6  5  1  0
  6  7  1  1
  8 14  1  0
  8  6  1  0
  9  8  2  0
 11 10  1  6
 11 13  1  0
 12 11  1  0
 13 14  1  6
 15 21  1  0
 15 13  1  0
 16 15  2  0
 18 20  1  0
 18 17  1  6
 19 18  1  0
 20 22  1  0
 20 21  1  1
 22 24  1  0
 23 22  2  0
M  END
$$$$
