SAA.pdb
     RDKit          3D

 17 16  0  0  1  0  0  0  0  0999 V2000
    8.3615  -17.6410   16.1751 O   0  0  0  0  0  0  0  0  0  0  0  0
    7.5487  -16.5866   15.8332 C   0  0  0  0  0  0  0  0  0  0  0  0
    8.2796  -15.2833   15.6885 C   0  0  2  0  0  0  0  0  0  0  0  0
    9.1487  -15.2849   14.5310 N   0  0  0  0  0  0  0  0  0  0  0  0
    8.9775  -14.8534   16.9059 C   0  0  0  0  0  0  0  0  0  0  0  0
   10.1902  -15.0835   17.1431 O   0  0  0  0  0  0  0  0  0  0  0  0
    7.7613  -12.8228   19.8208 C   0  0  0  0  0  0  0  0  0  0  0  0
    8.8009  -13.6638   19.1200 C   0  0  2  0  0  0  0  0  0  0  0  0
    8.2538  -14.1318   17.8874 N   0  0  0  0  0  0  0  0  0  0  0  0
    9.3206  -14.7565   19.9776 C   0  0  0  0  0  0  0  0  0  0  0  0
    8.7309  -15.8670   20.0019 O   0  0  0  0  0  0  0  0  0  0  0  0
   12.4198  -15.5738   21.9782 C   0  0  0  0  0  0  0  0  0  0  0  0
   10.9804  -15.7061   21.6169 C   0  0  2  0  0  0  0  0  0  0  0  0
   10.4746  -14.6339   20.8002 N   0  0  0  0  0  0  0  0  0  0  0  0
   10.1619  -15.9154   22.8378 C   0  0  0  0  0  0  0  0  0  0  0  0
   10.4410  -16.8501   23.6299 O   0  0  0  0  0  0  0  0  0  0  0  0
    9.0891  -15.1051   23.1351 O   0  0  0  0  0  0  0  0  0  0  0  0
  1  2  1  0
  3  2  1  0
  3  4  1  6
  5  3  1  0
  6  5  2  0
  8  7  1  1
  8  9  1  0
  9  5  1  0
 10  8  1  0
 10 14  1  0
 11 10  2  0
 13 12  1  1
 13 14  1  0
 13 15  1  0
 15 17  1  0
 16 15  2  0
M  END
$$$$
