SAA.pdb
     RDKit          3D

 17 16  0  0  1  0  0  0  0  0999 V2000
    8.2119  -18.6743   18.2867 O   0  0  0  0  0  0  0  0  0  0  0  0
    7.5647  -17.4727   18.4492 C   0  0  0  0  0  0  0  0  0  0  0  0
    8.2945  -16.3076   17.8461 C   0  0  2  0  0  0  0  0  0  0  0  0
    9.3256  -16.7418   16.9276 N   0  0  0  0  0  0  0  0  0  0  0  0
    8.7995  -15.3456   18.8328 C   0  0  0  0  0  0  0  0  0  0  0  0
   10.0079  -15.2401   19.1617 O   0  0  0  0  0  0  0  0  0  0  0  0
    7.0164  -12.6732   20.7734 C   0  0  0  0  0  0  0  0  0  0  0  0
    8.2185  -13.5428   20.4944 C   0  0  2  0  0  0  0  0  0  0  0  0
    7.8801  -14.4722   19.4651 N   0  0  0  0  0  0  0  0  0  0  0  0
    8.7439  -14.1960   21.7179 C   0  0  0  0  0  0  0  0  0  0  0  0
    9.1967  -13.4929   22.6572 O   0  0  0  0  0  0  0  0  0  0  0  0
    8.6855  -17.6155   23.3266 C   0  0  0  0  0  0  0  0  0  0  0  0
    9.1905  -16.2261   23.1402 C   0  0  2  0  0  0  0  0  0  0  0  0
    8.7728  -15.6050   21.9104 N   0  0  0  0  0  0  0  0  0  0  0  0
   10.6643  -16.1879   23.3155 C   0  0  0  0  0  0  0  0  0  0  0  0
   11.3957  -15.7385   22.3979 O   0  0  0  0  0  0  0  0  0  0  0  0
   11.2656  -16.6363   24.4703 O   0  0  0  0  0  0  0  0  0  0  0  0
  1  2  1  0
  3  2  1  0
  3  4  1  1
  5  3  1  0
  6  5  2  0
  8  7  1  1
  8  9  1  0
  9  5  1  0
 10  8  1  0
 10 14  1  0
 11 10  2  0
 13 12  1  6
 13 14  1  0
 13 15  1  0
 15 17  1  0
 16 15  2  0
M  END
$$$$
