SAA.pdb
     RDKit          3D

 17 16  0  0  1  0  0  0  0  0999 V2000
   -2.2757  -29.3006   30.3019 O   0  0  0  0  0  0  0  0  0  0  0  0
   -2.7421  -28.0620   29.9310 C   0  0  0  0  0  0  0  0  0  0  0  0
   -2.5774  -27.7683   28.4680 C   0  0  2  0  0  0  0  0  0  0  0  0
   -1.1867  -27.8111   28.0688 N   0  0  0  0  0  0  0  0  0  0  0  0
   -3.2431  -26.5362   28.0292 C   0  0  0  0  0  0  0  0  0  0  0  0
   -2.6962  -25.4046   28.0152 O   0  0  0  0  0  0  0  0  0  0  0  0
   -6.6309  -26.0060   26.5129 C   0  0  0  0  0  0  0  0  0  0  0  0
   -5.3564  -25.4926   27.1383 C   0  0  2  0  0  0  0  0  0  0  0  0
   -4.5884  -26.6079   27.5899 N   0  0  0  0  0  0  0  0  0  0  0  0
   -5.6089  -24.4913   28.2029 C   0  0  0  0  0  0  0  0  0  0  0  0
   -5.7927  -24.8706   29.3878 O   0  0  0  0  0  0  0  0  0  0  0  0
   -5.3231  -20.7889   28.7798 C   0  0  0  0  0  0  0  0  0  0  0  0
   -5.9384  -22.1269   29.0060 C   0  0  2  0  0  0  0  0  0  0  0  0
   -5.6595  -23.0887   27.9717 N   0  0  0  0  0  0  0  0  0  0  0  0
   -7.3938  -21.9857   29.2629 C   0  0  0  0  0  0  0  0  0  0  0  0
   -8.2251  -22.4967   28.4712 O   0  0  0  0  0  0  0  0  0  0  0  0
   -7.8702  -21.3014   30.3588 O   0  0  0  0  0  0  0  0  0  0  0  0
  1  2  1  0
  3  2  1  0
  3  4  1  1
  5  3  1  0
  6  5  2  0
  8  7  1  1
  8  9  1  0
  9  5  1  0
 10  8  1  0
 10 14  1  0
 11 10  2  0
 13 12  1  6
 13 14  1  0
 13 15  1  0
 15 17  1  0
 16 15  2  0
M  END
$$$$
