SAA.pdb
     RDKit          3D

 17 16  0  0  1  0  0  0  0  0999 V2000
   -4.7429  -27.7664   30.2522 O   0  0  0  0  0  0  0  0  0  0  0  0
   -4.9349  -26.4562   30.6203 C   0  0  0  0  0  0  0  0  0  0  0  0
   -4.0615  -25.4865   29.8783 C   0  0  2  0  0  0  0  0  0  0  0  0
   -2.6568  -25.7570   30.0993 N   0  0  0  0  0  0  0  0  0  0  0  0
   -4.3995  -24.0782   30.1156 C   0  0  0  0  0  0  0  0  0  0  0  0
   -4.2629  -23.4959   31.2210 O   0  0  0  0  0  0  0  0  0  0  0  0
   -5.0860  -21.2599   27.8335 C   0  0  0  0  0  0  0  0  0  0  0  0
   -5.3510  -21.9558   29.1467 C   0  0  2  0  0  0  0  0  0  0  0  0
   -4.9140  -23.3106   29.0413 N   0  0  0  0  0  0  0  0  0  0  0  0
   -6.7640  -21.8327   29.5802 C   0  0  0  0  0  0  0  0  0  0  0  0
   -7.2453  -20.6979   29.8297 O   0  0  0  0  0  0  0  0  0  0  0  0
   -9.9008  -23.9104   29.6469 C   0  0  0  0  0  0  0  0  0  0  0  0
   -9.0205  -22.8086   30.1276 C   0  0  2  0  0  0  0  0  0  0  0  0
   -7.6408  -22.9415   29.7388 N   0  0  0  0  0  0  0  0  0  0  0  0
   -9.1756  -22.6301   31.5933 C   0  0  0  0  0  0  0  0  0  0  0  0
   -8.2863  -23.0493   32.3758 O   0  0  0  0  0  0  0  0  0  0  0  0
  -10.2807  -22.0098   32.1319 O   0  0  0  0  0  0  0  0  0  0  0  0
  1  2  1  0
  3  2  1  0
  3  4  1  1
  5  3  1  0
  6  5  2  0
  8  7  1  6
  8  9  1  0
  9  5  1  0
 10  8  1  0
 10 14  1  0
 11 10  2  0
 13 12  1  1
 13 14  1  0
 13 15  1  0
 15 17  1  0
 16 15  2  0
M  END
$$$$
