SAA.pdb
     RDKit          3D

 17 16  0  0  1  0  0  0  0  0999 V2000
   12.6679  -17.7660   22.5209 O   0  0  0  0  0  0  0  0  0  0  0  0
   11.5511  -18.3722   21.9973 C   0  0  0  0  0  0  0  0  0  0  0  0
   10.4392  -17.4157   21.6770 C   0  0  2  0  0  0  0  0  0  0  0  0
   10.7990  -16.5224   20.5964 N   0  0  0  0  0  0  0  0  0  0  0  0
    9.9198  -16.6937   22.8444 C   0  0  0  0  0  0  0  0  0  0  0  0
   10.1116  -15.4705   23.0608 O   0  0  0  0  0  0  0  0  0  0  0  0
    7.4758  -17.8062   25.4501 C   0  0  0  0  0  0  0  0  0  0  0  0
    8.4623  -16.8064   24.8966 C   0  0  2  0  0  0  0  0  0  0  0  0
    9.1509  -17.4049   23.7988 N   0  0  0  0  0  0  0  0  0  0  0  0
    9.3767  -16.2748   25.9363 C   0  0  0  0  0  0  0  0  0  0  0  0
   10.5305  -16.7593   26.0618 O   0  0  0  0  0  0  0  0  0  0  0  0
    9.5649  -13.3194   28.2941 C   0  0  0  0  0  0  0  0  0  0  0  0
    9.9483  -14.6680   27.7898 C   0  0  2  0  0  0  0  0  0  0  0  0
    9.0307  -15.2231   26.8294 N   0  0  0  0  0  0  0  0  0  0  0  0
   10.1958  -15.5899   28.9270 C   0  0  0  0  0  0  0  0  0  0  0  0
    9.4948  -16.6239   29.0628 O   0  0  0  0  0  0  0  0  0  0  0  0
   11.1849  -15.3444   29.8530 O   0  0  0  0  0  0  0  0  0  0  0  0
  1  2  1  0
  3  2  1  0
  3  4  1  6
  5  3  1  0
  6  5  2  0
  8  7  1  1
  8  9  1  0
  9  5  1  0
 10  8  1  0
 10 14  1  0
 11 10  2  0
 13 12  1  1
 13 14  1  0
 13 15  1  0
 15 17  1  0
 16 15  2  0
M  END
$$$$
