SAA.pdb
     RDKit          3D

 17 16  0  0  1  0  0  0  0  0999 V2000
   -2.5343  -20.8851   25.0181 O   0  0  0  0  0  0  0  0  0  0  0  0
   -1.8562  -21.9689   25.5228 C   0  0  0  0  0  0  0  0  0  0  0  0
   -2.4139  -23.2901   25.0789 C   0  0  2  0  0  0  0  0  0  0  0  0
   -2.4550  -23.3938   23.6357 N   0  0  0  0  0  0  0  0  0  0  0  0
   -3.7007  -23.6313   25.6968 C   0  0  0  0  0  0  0  0  0  0  0  0
   -4.8162  -23.4663   25.1417 O   0  0  0  0  0  0  0  0  0  0  0  0
   -4.4563  -25.4195   28.8994 C   0  0  0  0  0  0  0  0  0  0  0  0
   -4.8760  -24.5953   27.7062 C   0  0  2  0  0  0  0  0  0  0  0  0
   -3.7049  -24.1829   27.0020 N   0  0  0  0  0  0  0  0  0  0  0  0
   -5.7589  -23.4636   28.0793 C   0  0  0  0  0  0  0  0  0  0  0  0
   -5.2612  -22.3327   28.3139 O   0  0  0  0  0  0  0  0  0  0  0  0
   -9.4642  -22.6837   28.3346 C   0  0  0  0  0  0  0  0  0  0  0  0
   -8.0151  -22.4810   28.6161 C   0  0  2  0  0  0  0  0  0  0  0  0
   -7.1727  -23.5696   28.1941 N   0  0  0  0  0  0  0  0  0  0  0  0
   -7.8133  -22.1373   30.0462 C   0  0  0  0  0  0  0  0  0  0  0  0
   -7.4346  -23.0187   30.8578 O   0  0  0  0  0  0  0  0  0  0  0  0
   -8.0312  -20.8629   30.5199 O   0  0  0  0  0  0  0  0  0  0  0  0
  1  2  1  0
  3  2  1  0
  3  4  1  6
  5  3  1  0
  6  5  2  0
  8  7  1  1
  8  9  1  0
  9  5  1  0
 10  8  1  0
 10 14  1  0
 11 10  2  0
 13 12  1  1
 13 14  1  0
 13 15  1  0
 15 17  1  0
 16 15  2  0
M  END
$$$$
