SAA.pdb
     RDKit          3D

 17 16  0  0  1  0  0  0  0  0999 V2000
    8.5785  -17.5459   14.8507 O   0  0  0  0  0  0  0  0  0  0  0  0
    7.6767  -16.5290   15.0553 C   0  0  0  0  0  0  0  0  0  0  0  0
    8.2831  -15.1583   14.9705 C   0  0  2  0  0  0  0  0  0  0  0  0
    9.2939  -15.0854   13.9370 N   0  0  0  0  0  0  0  0  0  0  0  0
    8.7654  -14.6398   16.2561 C   0  0  0  0  0  0  0  0  0  0  0  0
    9.9604  -14.7049   16.6401 O   0  0  0  0  0  0  0  0  0  0  0  0
    6.9388  -12.8575   19.0105 C   0  0  0  0  0  0  0  0  0  0  0  0
    8.1418  -13.5817   18.4561 C   0  0  2  0  0  0  0  0  0  0  0  0
    7.8387  -14.0233   17.1329 N   0  0  0  0  0  0  0  0  0  0  0  0
    8.6045  -14.6768   19.3428 C   0  0  0  0  0  0  0  0  0  0  0  0
    8.9787  -14.4168   20.5150 O   0  0  0  0  0  0  0  0  0  0  0  0
    8.2955  -18.3255   19.7942 C   0  0  0  0  0  0  0  0  0  0  0  0
    9.1350  -17.0946   19.8082 C   0  0  2  0  0  0  0  0  0  0  0  0
    8.6568  -16.0427   18.9495 N   0  0  0  0  0  0  0  0  0  0  0  0
   10.5539  -17.4381   19.5377 C   0  0  0  0  0  0  0  0  0  0  0  0
   11.1517  -16.9199   18.5615 O   0  0  0  0  0  0  0  0  0  0  0  0
   11.2474  -18.3207   20.3352 O   0  0  0  0  0  0  0  0  0  0  0  0
  1  2  1  0
  3  2  1  0
  3  4  1  6
  5  3  1  0
  6  5  2  0
  8  7  1  1
  8  9  1  0
  9  5  1  0
 10  8  1  0
 10 14  1  0
 11 10  2  0
 13 12  1  6
 13 14  1  0
 13 15  1  0
 15 17  1  0
 16 15  2  0
M  END
$$$$
