SAA.pdb
     RDKit          3D

 17 16  0  0  1  0  0  0  0  0999 V2000
    7.7274  -19.1339   19.7858 O   0  0  0  0  0  0  0  0  0  0  0  0
    6.7698  -18.1811   19.5320 C   0  0  0  0  0  0  0  0  0  0  0  0
    7.3236  -16.9026   18.9731 C   0  0  2  0  0  0  0  0  0  0  0  0
    7.8432  -17.0866   17.6347 N   0  0  0  0  0  0  0  0  0  0  0  0
    8.2875  -16.2348   19.8557 C   0  0  0  0  0  0  0  0  0  0  0  0
    9.5296  -16.2231   19.6644 O   0  0  0  0  0  0  0  0  0  0  0  0
    7.7743  -14.1462   22.9272 C   0  0  0  0  0  0  0  0  0  0  0  0
    8.6302  -15.0057   22.0283 C   0  0  2  0  0  0  0  0  0  0  0  0
    7.8048  -15.5550   21.0015 N   0  0  0  0  0  0  0  0  0  0  0  0
    9.3870  -16.0364   22.7797 C   0  0  0  0  0  0  0  0  0  0  0  0
    8.8443  -17.1384   23.0495 O   0  0  0  0  0  0  0  0  0  0  0  0
   12.9437  -16.7613   23.7979 C   0  0  0  0  0  0  0  0  0  0  0  0
   11.4641  -16.8833   23.9251 C   0  0  2  0  0  0  0  0  0  0  0  0
   10.7246  -15.8617   23.2309 N   0  0  0  0  0  0  0  0  0  0  0  0
   11.0784  -16.9811   25.3555 C   0  0  0  0  0  0  0  0  0  0  0  0
   10.2527  -16.1681   25.8415 O   0  0  0  0  0  0  0  0  0  0  0  0
   11.6048  -17.9498   26.1803 O   0  0  0  0  0  0  0  0  0  0  0  0
  1  2  1  0
  3  2  1  0
  3  4  1  6
  5  3  1  0
  6  5  2  0
  8  7  1  1
  8  9  1  0
  9  5  1  0
 10  8  1  0
 10 14  1  0
 11 10  2  0
 13 12  1  1
 13 14  1  0
 13 15  1  0
 15 17  1  0
 16 15  2  0
M  END
$$$$
