SAA.pdb
     RDKit          3D

 17 16  0  0  1  0  0  0  0  0999 V2000
   10.0963  -17.2202   17.9214 O   0  0  0  0  0  0  0  0  0  0  0  0
    9.8039  -16.4016   16.8567 C   0  0  0  0  0  0  0  0  0  0  0  0
   10.5081  -15.0766   16.9027 C   0  0  2  0  0  0  0  0  0  0  0  0
   11.8867  -15.1904   16.4766 N   0  0  0  0  0  0  0  0  0  0  0  0
   10.3800  -14.3783   18.1872 C   0  0  0  0  0  0  0  0  0  0  0  0
   11.3177  -14.2411   19.0128 O   0  0  0  0  0  0  0  0  0  0  0  0
    7.4468  -12.5903   19.7052 C   0  0  0  0  0  0  0  0  0  0  0  0
    8.8519  -13.1395   19.7616 C   0  0  2  0  0  0  0  0  0  0  0  0
    9.1265  -13.8167   18.5354 N   0  0  0  0  0  0  0  0  0  0  0  0
    9.0840  -13.9853   20.9576 C   0  0  0  0  0  0  0  0  0  0  0  0
    9.0128  -13.4779   22.1061 O   0  0  0  0  0  0  0  0  0  0  0  0
    9.2462  -17.6160   21.8973 C   0  0  0  0  0  0  0  0  0  0  0  0
    9.6219  -16.1837   22.0629 C   0  0  2  0  0  0  0  0  0  0  0  0
    9.3909  -15.3729   20.8960 N   0  0  0  0  0  0  0  0  0  0  0  0
   11.0180  -16.0730   22.5555 C   0  0  0  0  0  0  0  0  0  0  0  0
   11.8642  -15.4101   21.9048 O   0  0  0  0  0  0  0  0  0  0  0  0
   11.4224  -16.6834   23.7217 O   0  0  0  0  0  0  0  0  0  0  0  0
  1  2  1  0
  3  2  1  0
  3  4  1  1
  5  3  1  0
  6  5  2  0
  8  7  1  6
  8  9  1  0
  9  5  1  0
 10  8  1  0
 10 14  1  0
 11 10  2  0
 13 12  1  6
 13 14  1  0
 13 15  1  0
 15 17  1  0
 16 15  2  0
M  END
$$$$
