SAA.pdb
     RDKit          3D

 17 16  0  0  1  0  0  0  0  0999 V2000
    7.9829  -17.5222   18.4497 O   0  0  0  0  0  0  0  0  0  0  0  0
    8.5796  -17.5058   17.2117 C   0  0  0  0  0  0  0  0  0  0  0  0
    8.7333  -16.1287   16.6339 C   0  0  2  0  0  0  0  0  0  0  0  0
    9.4829  -16.1505   15.3959 N   0  0  0  0  0  0  0  0  0  0  0  0
    9.2578  -15.1397   17.5830 C   0  0  0  0  0  0  0  0  0  0  0  0
   10.4747  -15.0137   17.8710 O   0  0  0  0  0  0  0  0  0  0  0  0
    7.5023  -12.4342   19.5034 C   0  0  0  0  0  0  0  0  0  0  0  0
    8.7144  -13.2787   19.1923 C   0  0  2  0  0  0  0  0  0  0  0  0
    8.3487  -14.2626   18.2250 N   0  0  0  0  0  0  0  0  0  0  0  0
    9.3293  -13.8608   20.4099 C   0  0  0  0  0  0  0  0  0  0  0  0
    9.8207  -13.1038   21.2858 O   0  0  0  0  0  0  0  0  0  0  0  0
    9.3485  -17.0560   22.3444 C   0  0  0  0  0  0  0  0  0  0  0  0
   10.0054  -15.8132   21.8504 C   0  0  2  0  0  0  0  0  0  0  0  0
    9.4053  -15.2581   20.6654 N   0  0  0  0  0  0  0  0  0  0  0  0
   11.4649  -16.0331   21.6898 C   0  0  0  0  0  0  0  0  0  0  0  0
   12.0185  -15.8005   20.5860 O   0  0  0  0  0  0  0  0  0  0  0  0
   12.2443  -16.4914   22.7283 O   0  0  0  0  0  0  0  0  0  0  0  0
  1  2  1  0
  3  2  1  0
  3  4  1  6
  5  3  1  0
  6  5  2  0
  8  7  1  1
  8  9  1  0
  9  5  1  0
 10  8  1  0
 10 14  1  0
 11 10  2  0
 13 12  1  6
 13 14  1  0
 13 15  1  0
 15 17  1  0
 16 15  2  0
M  END
$$$$
