SAA.pdb
     RDKit          3D

 17 16  0  0  1  0  0  0  0  0999 V2000
    8.6934  -17.6810   16.4476 O   0  0  0  0  0  0  0  0  0  0  0  0
    7.8126  -16.6775   16.1218 C   0  0  0  0  0  0  0  0  0  0  0  0
    8.4512  -15.3225   16.0225 C   0  0  2  0  0  0  0  0  0  0  0  0
    9.3441  -15.2358   14.8865 N   0  0  0  0  0  0  0  0  0  0  0  0
    9.0888  -14.8719   17.2652 C   0  0  0  0  0  0  0  0  0  0  0  0
   10.3059  -15.0342   17.5334 O   0  0  0  0  0  0  0  0  0  0  0  0
    7.6826  -12.9802   20.1866 C   0  0  0  0  0  0  0  0  0  0  0  0
    8.7616  -13.8009   19.5223 C   0  0  2  0  0  0  0  0  0  0  0  0
    8.2969  -14.2100   18.2361 N   0  0  0  0  0  0  0  0  0  0  0  0
    9.2133  -14.9347   20.3649 C   0  0  0  0  0  0  0  0  0  0  0  0
    8.6255  -16.0439   20.2887 O   0  0  0  0  0  0  0  0  0  0  0  0
   12.2524  -15.9500   22.2987 C   0  0  0  0  0  0  0  0  0  0  0  0
   10.7877  -15.9840   22.0275 C   0  0  2  0  0  0  0  0  0  0  0  0
   10.2979  -14.8542   21.2818 N   0  0  0  0  0  0  0  0  0  0  0  0
   10.0364  -16.1903   23.2914 C   0  0  0  0  0  0  0  0  0  0  0  0
    9.2109  -15.3267   23.6808 O   0  0  0  0  0  0  0  0  0  0  0  0
   10.2180  -17.3158   24.0635 O   0  0  0  0  0  0  0  0  0  0  0  0
  1  2  1  0
  3  2  1  0
  3  4  1  6
  5  3  1  0
  6  5  2  0
  8  7  1  1
  8  9  1  0
  9  5  1  0
 10  8  1  0
 10 14  1  0
 11 10  2  0
 13 12  1  1
 13 14  1  0
 13 15  1  0
 15 17  1  0
 16 15  2  0
M  END
$$$$
