SAA.pdb
     RDKit          3D

 17 16  0  0  1  0  0  0  0  0999 V2000
   -2.3989  -24.7613   24.4231 O   0  0  0  0  0  0  0  0  0  0  0  0
   -3.4823  -24.7238   25.2680 C   0  0  0  0  0  0  0  0  0  0  0  0
   -3.5436  -25.8809   26.2225 C   0  0  2  0  0  0  0  0  0  0  0  0
   -3.7034  -27.1394   25.5254 N   0  0  0  0  0  0  0  0  0  0  0  0
   -4.5274  -25.7138   27.2988 C   0  0  0  0  0  0  0  0  0  0  0  0
   -5.7609  -25.9150   27.1654 O   0  0  0  0  0  0  0  0  0  0  0  0
   -4.0683  -24.9647   30.9390 C   0  0  0  0  0  0  0  0  0  0  0  0
   -4.9238  -25.0559   29.6985 C   0  0  2  0  0  0  0  0  0  0  0  0
   -4.0757  -25.2997   28.5765 N   0  0  0  0  0  0  0  0  0  0  0  0
   -5.7960  -23.8696   29.5211 C   0  0  0  0  0  0  0  0  0  0  0  0
   -5.3239  -22.8143   29.0260 O   0  0  0  0  0  0  0  0  0  0  0  0
   -9.4541  -22.9206   29.8907 C   0  0  0  0  0  0  0  0  0  0  0  0
   -7.9915  -22.6614   29.7741 C   0  0  2  0  0  0  0  0  0  0  0  0
   -7.1715  -23.8397   29.8824 N   0  0  0  0  0  0  0  0  0  0  0  0
   -7.5803  -21.6020   30.7295 C   0  0  0  0  0  0  0  0  0  0  0  0
   -6.9909  -21.9104   31.7956 O   0  0  0  0  0  0  0  0  0  0  0  0
   -7.8279  -20.2704   30.4812 O   0  0  0  0  0  0  0  0  0  0  0  0
  1  2  1  0
  3  2  1  0
  3  4  1  6
  5  3  1  0
  6  5  2  0
  8  7  1  1
  8  9  1  0
  9  5  1  0
 10  8  1  0
 10 14  1  0
 11 10  2  0
 13 12  1  1
 13 14  1  0
 13 15  1  0
 15 17  1  0
 16 15  2  0
M  END
$$$$
