SAA.pdb
     RDKit          3D

 17 16  0  0  1  0  0  0  0  0999 V2000
   10.9899  -12.7850   19.7200 O   0  0  0  0  0  0  0  0  0  0  0  0
   10.4254  -14.0249   19.9020 C   0  0  0  0  0  0  0  0  0  0  0  0
    8.9467  -14.0584   19.6450 C   0  0  2  0  0  0  0  0  0  0  0  0
    8.5243  -12.9498   18.8156 N   0  0  0  0  0  0  0  0  0  0  0  0
    8.1335  -14.1835   20.8604 C   0  0  0  0  0  0  0  0  0  0  0  0
    7.4190  -13.2622   21.3298 O   0  0  0  0  0  0  0  0  0  0  0  0
    7.4765  -17.1337   23.0772 C   0  0  0  0  0  0  0  0  0  0  0  0
    7.4677  -15.6501   22.7980 C   0  0  2  0  0  0  0  0  0  0  0  0
    8.1424  -15.4144   21.5624 N   0  0  0  0  0  0  0  0  0  0  0  0
    8.0204  -14.8568   23.9227 C   0  0  0  0  0  0  0  0  0  0  0  0
    9.2610  -14.6680   24.0050 O   0  0  0  0  0  0  0  0  0  0  0  0
    6.7587  -12.5097   26.5961 C   0  0  0  0  0  0  0  0  0  0  0  0
    7.7567  -13.4296   25.9813 C   0  0  2  0  0  0  0  0  0  0  0  0
    7.2220  -14.2763   24.9469 N   0  0  0  0  0  0  0  0  0  0  0  0
    8.4569  -14.2059   27.0355 C   0  0  0  0  0  0  0  0  0  0  0  0
    8.3743  -15.4596   27.0533 O   0  0  0  0  0  0  0  0  0  0  0  0
    9.2062  -13.5862   28.0105 O   0  0  0  0  0  0  0  0  0  0  0  0
  1  2  1  0
  3  2  1  0
  3  4  1  1
  5  3  1  0
  6  5  2  0
  8  7  1  1
  8  9  1  0
  9  5  1  0
 10  8  1  0
 10 14  1  0
 11 10  2  0
 13 12  1  1
 13 14  1  0
 13 15  1  0
 15 17  1  0
 16 15  2  0
M  END
$$$$
