YRN.pdb
     RDKit          3D

 32 32  0  0  1  0  0  0  0  0999 V2000
   10.2742  -14.0526   30.9656 O   0  0  0  0  0  0  0  0  0  0  0  0
   10.1984  -14.4875   29.6461 C   0  0  0  0  0  0  0  0  0  0  0  0
    9.6447  -13.6990   28.6584 C   0  0  0  0  0  0  0  0  0  0  0  0
    9.5956  -14.1802   27.3690 C   0  0  0  0  0  0  0  0  0  0  0  0
   10.0781  -15.4117   27.0421 C   0  0  0  0  0  0  0  0  0  0  0  0
   10.0359  -15.9560   25.6538 C   0  0  0  0  0  0  0  0  0  0  0  0
    8.6424  -16.4841   25.3400 C   0  0  2  0  0  0  0  0  0  0  0  0
    8.3075  -17.5896   26.2177 N   0  0  0  0  0  0  0  0  0  0  0  0
    8.6568  -16.9889   23.9246 C   0  0  0  0  0  0  0  0  0  0  0  0
    9.0499  -18.1555   23.6424 O   0  0  0  0  0  0  0  0  0  0  0  0
   10.6363  -16.2142   28.0212 C   0  0  0  0  0  0  0  0  0  0  0  0
   10.6877  -15.7384   29.3103 C   0  0  0  0  0  0  0  0  0  0  0  0
    6.9286  -12.0637   16.7703 N   0  0  0  0  0  0  0  0  0  0  0  0
    7.5904  -13.1788   16.1939 C   0  0  0  0  0  0  0  0  0  0  0  0
    7.7370  -13.2770   14.9191 N   0  0  0  0  0  0  0  0  0  0  0  0
    8.1104  -14.2195   17.0071 N   0  0  0  0  0  0  0  0  0  0  0  0
    7.7779  -14.2296   18.4124 C   0  0  0  0  0  0  0  0  0  0  0  0
    8.4870  -15.3394   19.1749 C   0  0  0  0  0  0  0  0  0  0  0  0
    8.0785  -15.2767   20.6023 C   0  0  0  0  0  0  0  0  0  0  0  0
    8.7792  -16.2709   21.5053 C   0  0  2  0  0  0  0  0  0  0  0  0
    8.2243  -16.1583   22.8571 N   0  0  0  0  0  0  0  0  0  0  0  0
   10.2443  -16.1068   21.5220 C   0  0  0  0  0  0  0  0  0  0  0  0
   10.8850  -15.6440   22.4964 O   0  0  0  0  0  0  0  0  0  0  0  0
    8.1963  -14.0810   14.4448 N   0  0  0  0  0  0  0  0  0  0  0  0
   12.6371  -19.6181   23.4275 C   0  0  0  0  0  0  0  0  0  0  0  0
   12.9920  -18.6183   22.4814 O   0  0  0  0  0  0  0  0  0  0  0  0
   13.9612  -17.8700   22.6879 C   0  0  0  0  0  0  0  0  0  0  0  0
   12.1889  -18.4927   21.2609 C   0  0  2  0  0  0  0  0  0  0  0  0
   12.3087  -17.1796   20.5629 N   0  0  0  0  0  0  0  0  0  0  0  0
   11.0603  -16.4773   20.3886 C   0  0  0  0  0  0  0  0  0  0  0  0
   12.8566  -17.4513   19.1886 O   0  0  0  0  0  0  0  0  0  0  0  0
   12.1000  -18.0705   18.2031 O   0  0  0  0  0  0  0  0  0  0  0  0
  2  1  1  0
  3  2  2  0
  4  3  1  0
  5 11  1  0
  5  4  2  0
  6  5  1  0
  7  6  1  0
  7  8  1  1
  9  7  1  0
  9 21  1  0
 10  9  2  0
 11 12  2  0
 12  2  1  0
 14 13  1  0
 15 14  2  0
 16 14  1  0
 17 16  1  0
 18 17  1  0
 18 19  1  0
 20 19  1  6
 20 21  1  0
 20 22  1  0
 22 23  2  0
 24 25  1  0
 25 26  2  0
 25 27  1  0
 28 30  1  0
 28 27  1  1
 29 22  1  0
 29 28  1  0
 30 32  2  0
 30 31  1  0
M  END
$$$$
