YRN.pdb
     RDKit          3D

 32 32  0  0  1  0  0  0  0  0999 V2000
   10.5076  -14.1979   30.7693 O   0  0  0  0  0  0  0  0  0  0  0  0
    9.9454  -14.5551   29.5477 C   0  0  0  0  0  0  0  0  0  0  0  0
    9.9664  -15.8597   29.0989 C   0  0  0  0  0  0  0  0  0  0  0  0
    9.3948  -16.1563   27.8816 C   0  0  0  0  0  0  0  0  0  0  0  0
    8.8099  -15.1985   27.1091 C   0  0  0  0  0  0  0  0  0  0  0  0
    8.1850  -15.4939   25.7872 C   0  0  0  0  0  0  0  0  0  0  0  0
    8.8782  -16.6819   25.1335 C   0  0  2  0  0  0  0  0  0  0  0  0
   10.3162  -16.4898   25.1235 N   0  0  0  0  0  0  0  0  0  0  0  0
    8.3996  -16.7600   23.7112 C   0  0  0  0  0  0  0  0  0  0  0  0
    7.1716  -16.6999   23.4222 O   0  0  0  0  0  0  0  0  0  0  0  0
    8.7808  -13.8859   27.5453 C   0  0  0  0  0  0  0  0  0  0  0  0
    9.3501  -13.5843   28.7601 C   0  0  0  0  0  0  0  0  0  0  0  0
    8.7852  -11.9918   17.9672 N   0  0  0  0  0  0  0  0  0  0  0  0
    8.8164  -11.9563   19.3854 C   0  0  0  0  0  0  0  0  0  0  0  0
    9.5119  -11.0730   20.0118 N   0  0  0  0  0  0  0  0  0  0  0  0
    8.0810  -12.8949   20.1556 N   0  0  0  0  0  0  0  0  0  0  0  0
    7.2635  -13.8651   19.4655 C   0  0  0  0  0  0  0  0  0  0  0  0
    7.8036  -15.2823   19.5909 C   0  0  0  0  0  0  0  0  0  0  0  0
    8.4171  -15.4440   20.9347 C   0  0  0  0  0  0  0  0  0  0  0  0
    8.9148  -16.8420   21.2390 C   0  0  2  0  0  0  0  0  0  0  0  0
    9.3256  -16.9048   22.6444 N   0  0  0  0  0  0  0  0  0  0  0  0
   10.0092  -17.2742   20.3506 C   0  0  0  0  0  0  0  0  0  0  0  0
    9.9419  -17.2556   19.0979 O   0  0  0  0  0  0  0  0  0  0  0  0
    9.6183  -11.0402   21.0462 N   0  0  0  0  0  0  0  0  0  0  0  0
   12.5609  -15.4222   18.0956 C   0  0  0  0  0  0  0  0  0  0  0  0
   12.9571  -14.9524   19.3774 O   0  0  0  0  0  0  0  0  0  0  0  0
   13.7932  -14.0406   19.4844 C   0  0  0  0  0  0  0  0  0  0  0  0
   12.3569  -15.5685   20.5651 C   0  0  2  0  0  0  0  0  0  0  0  0
   12.4988  -17.0516   20.6427 N   0  0  0  0  0  0  0  0  0  0  0  0
   11.2640  -17.7604   20.8771 C   0  0  0  0  0  0  0  0  0  0  0  0
   13.4073  -17.3546   21.8027 O   0  0  0  0  0  0  0  0  0  0  0  0
   14.7894  -17.2816   21.6945 O   0  0  0  0  0  0  0  0  0  0  0  0
  2  1  1  0
  3  2  2  0
  4  3  1  0
  5 11  1  0
  5  4  2  0
  6  5  1  0
  7  6  1  0
  7  8  1  6
  9  7  1  0
  9 21  1  0
 10  9  2  0
 11 12  2  0
 12  2  1  0
 14 13  1  0
 15 14  2  0
 16 14  1  0
 17 16  1  0
 18 17  1  0
 18 19  1  0
 20 19  1  6
 20 21  1  0
 20 22  1  0
 22 23  2  0
 24 25  1  0
 25 26  2  0
 25 27  1  0
 28 30  1  0
 28 27  1  6
 29 22  1  0
 29 28  1  0
 30 32  2  0
 30 31  1  0
M  END
$$$$
