YRN.pdb
     RDKit          3D

 32 32  0  0  1  0  0  0  0  0999 V2000
    5.7568  -10.9001   28.6483 O   0  0  0  0  0  0  0  0  0  0  0  0
    6.3275  -11.8684   27.8282 C   0  0  0  0  0  0  0  0  0  0  0  0
    5.6391  -12.4034   26.7588 C   0  0  0  0  0  0  0  0  0  0  0  0
    6.2530  -13.3593   25.9803 C   0  0  0  0  0  0  0  0  0  0  0  0
    7.5197  -13.7908   26.2366 C   0  0  0  0  0  0  0  0  0  0  0  0
    8.2061  -14.8251   25.4095 C   0  0  0  0  0  0  0  0  0  0  0  0
    7.2072  -15.8813   24.9560 C   0  0  2  0  0  0  0  0  0  0  0  0
    6.9805  -16.8530   26.0093 N   0  0  0  0  0  0  0  0  0  0  0  0
    7.8041  -16.5925   23.7744 C   0  0  0  0  0  0  0  0  0  0  0  0
    8.3244  -17.7379   23.8853 O   0  0  0  0  0  0  0  0  0  0  0  0
    8.2230  -13.2640   27.3053 C   0  0  0  0  0  0  0  0  0  0  0  0
    7.6145  -12.3092   28.0857 C   0  0  0  0  0  0  0  0  0  0  0  0
    9.2973  -14.2718   17.7458 N   0  0  0  0  0  0  0  0  0  0  0  0
    8.7556  -13.0155   18.1224 C   0  0  0  0  0  0  0  0  0  0  0  0
    9.4650  -11.9432   18.0650 N   0  0  0  0  0  0  0  0  0  0  0  0
    7.4145  -12.9045   18.5740 N   0  0  0  0  0  0  0  0  0  0  0  0
    6.7119  -14.1077   18.9541 C   0  0  0  0  0  0  0  0  0  0  0  0
    7.1819  -14.6639   20.2904 C   0  0  0  0  0  0  0  0  0  0  0  0
    7.8011  -15.9957   20.0639 C   0  0  0  0  0  0  0  0  0  0  0  0
    8.3557  -16.6557   21.3095 C   0  0  2  0  0  0  0  0  0  0  0  0
    7.7984  -15.9883   22.4893 N   0  0  0  0  0  0  0  0  0  0  0  0
    9.8293  -16.6622   21.3552 C   0  0  0  0  0  0  0  0  0  0  0  0
   10.5608  -16.4235   20.3642 O   0  0  0  0  0  0  0  0  0  0  0  0
    9.1275  -11.0040   18.3589 N   0  0  0  0  0  0  0  0  0  0  0  0
   14.8638  -15.8615   21.4132 C   0  0  0  0  0  0  0  0  0  0  0  0
   14.0119  -15.4392   22.4700 O   0  0  0  0  0  0  0  0  0  0  0  0
   14.4899  -14.9853   23.5224 C   0  0  0  0  0  0  0  0  0  0  0  0
   12.5613  -15.5524   22.2877 C   0  0  1  0  0  0  0  0  0  0  0  0
   11.9878  -16.8866   22.6293 N   0  0  0  0  0  0  0  0  0  0  0  0
   10.5473  -16.9516   22.5753 C   0  0  0  0  0  0  0  0  0  0  0  0
   12.3898  -17.1977   24.0451 O   0  0  0  0  0  0  0  0  0  0  0  0
   11.4548  -17.3485   25.0601 O   0  0  0  0  0  0  0  0  0  0  0  0
  2  1  1  0
  3  2  2  0
  4  3  1  0
  5 11  1  0
  5  4  2  0
  6  5  1  0
  7  6  1  0
  7  8  1  1
  9  7  1  0
  9 21  1  0
 10  9  2  0
 11 12  2  0
 12  2  1  0
 14 13  1  0
 15 14  2  0
 16 14  1  0
 17 16  1  0
 18 17  1  0
 18 19  1  0
 20 19  1  6
 20 21  1  0
 20 22  1  0
 22 23  2  0
 24 25  1  0
 25 26  2  0
 25 27  1  0
 28 30  1  0
 28 27  1  6
 29 22  1  0
 29 28  1  0
 30 32  2  0
 30 31  1  0
M  END
$$$$
