YRN.pdb
     RDKit          3D

 32 32  0  0  1  0  0  0  0  0999 V2000
    4.9054  -10.4803   27.9039 O   0  0  0  0  0  0  0  0  0  0  0  0
    5.6355  -11.5395   27.3740 C   0  0  0  0  0  0  0  0  0  0  0  0
    6.0447  -12.5970   28.1602 C   0  0  0  0  0  0  0  0  0  0  0  0
    6.7652  -13.6187   27.5828 C   0  0  0  0  0  0  0  0  0  0  0  0
    7.0848  -13.6143   26.2584 C   0  0  0  0  0  0  0  0  0  0  0  0
    7.8647  -14.7079   25.6095 C   0  0  0  0  0  0  0  0  0  0  0  0
    6.9763  -15.4855   24.6476 C   0  0  2  0  0  0  0  0  0  0  0  0
    6.2211  -16.4997   25.3591 N   0  0  0  0  0  0  0  0  0  0  0  0
    7.8731  -16.1703   23.6550 C   0  0  0  0  0  0  0  0  0  0  0  0
    8.2255  -17.3741   23.8024 O   0  0  0  0  0  0  0  0  0  0  0  0
    6.6818  -12.5610   25.4568 C   0  0  0  0  0  0  0  0  0  0  0  0
    5.9621  -11.5382   26.0285 C   0  0  0  0  0  0  0  0  0  0  0  0
    8.0166  -12.9839   17.4741 N   0  0  0  0  0  0  0  0  0  0  0  0
    8.1033  -14.2218   16.7858 C   0  0  0  0  0  0  0  0  0  0  0  0
    7.2749  -14.5179   15.8464 N   0  0  0  0  0  0  0  0  0  0  0  0
    9.1068  -15.1707   17.1135 N   0  0  0  0  0  0  0  0  0  0  0  0
   10.1431  -14.7868   18.0432 C   0  0  0  0  0  0  0  0  0  0  0  0
   10.2318  -15.7212   19.2411 C   0  0  0  0  0  0  0  0  0  0  0  0
    9.3362  -15.2129   20.3125 C   0  0  0  0  0  0  0  0  0  0  0  0
    9.2543  -16.0959   21.5406 C   0  0  2  0  0  0  0  0  0  0  0  0
    8.3522  -15.4740   22.5139 N   0  0  0  0  0  0  0  0  0  0  0  0
   10.5704  -16.3729   22.1446 C   0  0  0  0  0  0  0  0  0  0  0  0
   11.2367  -15.5266   22.7880 O   0  0  0  0  0  0  0  0  0  0  0  0
    7.3631  -15.3532   15.2325 N   0  0  0  0  0  0  0  0  0  0  0  0
   14.0082  -20.2754   20.6490 C   0  0  0  0  0  0  0  0  0  0  0  0
   12.7870  -20.0047   21.3243 O   0  0  0  0  0  0  0  0  0  0  0  0
   11.6983  -20.2762   20.7923 C   0  0  0  0  0  0  0  0  0  0  0  0
   12.8441  -19.3994   22.6588 C   0  0  1  0  0  0  0  0  0  0  0  0
   12.4320  -17.9667   22.7165 N   0  0  0  0  0  0  0  0  0  0  0  0
   11.1964  -17.6704   22.0327 C   0  0  0  0  0  0  0  0  0  0  0  0
   13.5110  -17.1628   22.0442 O   0  0  0  0  0  0  0  0  0  0  0  0
   14.7708  -17.0057   22.6058 O   0  0  0  0  0  0  0  0  0  0  0  0
  2  1  1  0
  3  2  2  0
  4  3  1  0
  5 11  1  0
  5  4  2  0
  6  5  1  0
  7  6  1  0
  7  8  1  1
  9  7  1  0
  9 21  1  0
 10  9  2  0
 11 12  2  0
 12  2  1  0
 14 13  1  0
 15 14  2  0
 16 14  1  0
 17 16  1  0
 18 17  1  0
 18 19  1  0
 20 19  1  6
 20 21  1  0
 20 22  1  0
 22 23  2  0
 24 25  1  0
 25 26  2  0
 25 27  1  0
 28 30  1  0
 28 27  1  1
 29 22  1  0
 29 28  1  0
 30 32  2  0
 30 31  1  0
M  END
$$$$
