YRN.pdb
     RDKit          3D

 32 32  0  0  1  0  0  0  0  0999 V2000
  -10.7994  -25.3521   19.9585 O   0  0  0  0  0  0  0  0  0  0  0  0
  -10.1500  -25.2842   21.1871 C   0  0  0  0  0  0  0  0  0  0  0  0
  -10.7964  -24.8336   22.3197 C   0  0  0  0  0  0  0  0  0  0  0  0
  -10.1047  -24.7873   23.5096 C   0  0  0  0  0  0  0  0  0  0  0  0
   -8.8012  -25.1737   23.5992 C   0  0  0  0  0  0  0  0  0  0  0  0
   -8.0299  -25.1323   24.8754 C   0  0  0  0  0  0  0  0  0  0  0  0
   -8.0012  -26.5137   25.5156 C   0  0  2  0  0  0  0  0  0  0  0  0
   -9.3336  -26.9098   25.9312 N   0  0  0  0  0  0  0  0  0  0  0  0
   -7.1282  -26.4300   26.7360 C   0  0  0  0  0  0  0  0  0  0  0  0
   -7.5806  -26.0350   27.8470 O   0  0  0  0  0  0  0  0  0  0  0  0
   -8.1392  -25.6280   22.4725 C   0  0  0  0  0  0  0  0  0  0  0  0
   -8.8254  -25.6761   21.2818 C   0  0  0  0  0  0  0  0  0  0  0  0
    0.4900  -29.8528   25.6310 N   0  0  0  0  0  0  0  0  0  0  0  0
    0.1165  -28.8473   24.7019 C   0  0  0  0  0  0  0  0  0  0  0  0
    0.7793  -28.6712   23.6128 N   0  0  0  0  0  0  0  0  0  0  0  0
   -0.9998  -28.0054   24.9466 N   0  0  0  0  0  0  0  0  0  0  0  0
   -1.7332  -28.1718   26.1796 C   0  0  0  0  0  0  0  0  0  0  0  0
   -2.9754  -27.2952   26.2460 C   0  0  0  0  0  0  0  0  0  0  0  0
   -3.6105  -27.4645   27.5788 C   0  0  0  0  0  0  0  0  0  0  0  0
   -4.8457  -26.6168   27.8033 C   0  0  2  0  0  0  0  0  0  0  0  0
   -5.7579  -26.7967   26.6704 N   0  0  0  0  0  0  0  0  0  0  0  0
   -4.5398  -25.1897   28.0116 C   0  0  0  0  0  0  0  0  0  0  0  0
   -3.9494  -24.7416   29.0238 O   0  0  0  0  0  0  0  0  0  0  0  0
    0.5459  -27.9528   22.8974 N   0  0  0  0  0  0  0  0  0  0  0  0
   -3.8566  -20.1247   27.4522 C   0  0  0  0  0  0  0  0  0  0  0  0
   -4.3805  -20.5364   26.1965 O   0  0  0  0  0  0  0  0  0  0  0  0
   -4.4904  -19.7255   25.2624 C   0  0  0  0  0  0  0  0  0  0  0  0
   -4.7862  -21.9359   26.0319 C   0  0  2  0  0  0  0  0  0  0  0  0
   -4.5678  -22.7979   27.2298 N   0  0  0  0  0  0  0  0  0  0  0  0
   -4.9092  -24.1868   27.0391 C   0  0  0  0  0  0  0  0  0  0  0  0
   -5.4536  -22.2733   28.3265 O   0  0  0  0  0  0  0  0  0  0  0  0
   -4.9421  -21.6035   29.4296 O   0  0  0  0  0  0  0  0  0  0  0  0
  2  1  1  0
  3  2  2  0
  4  3  1  0
  5 11  1  0
  5  4  2  0
  6  5  1  0
  7  6  1  0
  7  8  1  1
  9  7  1  0
  9 21  1  0
 10  9  2  0
 11 12  2  0
 12  2  1  0
 14 13  1  0
 15 14  2  0
 16 14  1  0
 17 16  1  0
 18 17  1  0
 18 19  1  0
 20 19  1  6
 20 21  1  0
 20 22  1  0
 22 23  2  0
 24 25  1  0
 25 26  2  0
 25 27  1  0
 28 30  1  0
 28 27  1  6
 29 22  1  0
 29 28  1  0
 30 32  2  0
 30 31  1  0
M  END
$$$$
