YRN.pdb
     RDKit          3D

 32 32  0  0  1  0  0  0  0  0999 V2000
    9.9703  -13.6677   30.6651 O   0  0  0  0  0  0  0  0  0  0  0  0
    9.5475  -13.9075   29.3614 C   0  0  0  0  0  0  0  0  0  0  0  0
    8.3993  -13.3306   28.8589 C   0  0  0  0  0  0  0  0  0  0  0  0
    8.0280  -13.6031   27.5610 C   0  0  0  0  0  0  0  0  0  0  0  0
    8.7622  -14.4255   26.7605 C   0  0  0  0  0  0  0  0  0  0  0  0
    8.3811  -14.7371   25.3523 C   0  0  0  0  0  0  0  0  0  0  0  0
    7.6546  -16.0740   25.2895 C   0  0  2  0  0  0  0  0  0  0  0  0
    8.4408  -17.1110   25.9310 N   0  0  0  0  0  0  0  0  0  0  0  0
    7.4887  -16.4324   23.8395 C   0  0  0  0  0  0  0  0  0  0  0  0
    6.3533  -16.4436   23.2867 O   0  0  0  0  0  0  0  0  0  0  0  0
    9.9160  -15.0115   27.2497 C   0  0  0  0  0  0  0  0  0  0  0  0
   10.2912  -14.7427   28.5451 C   0  0  0  0  0  0  0  0  0  0  0  0
    7.9628  -14.7771   17.2857 N   0  0  0  0  0  0  0  0  0  0  0  0
    7.7198  -13.3882   17.4459 C   0  0  0  0  0  0  0  0  0  0  0  0
    7.9822  -12.5555   16.5004 N   0  0  0  0  0  0  0  0  0  0  0  0
    7.1800  -12.8762   18.6547 N   0  0  0  0  0  0  0  0  0  0  0  0
    7.1308  -13.7412   19.8102 C   0  0  0  0  0  0  0  0  0  0  0  0
    8.4912  -14.3242   20.1646 C   0  0  0  0  0  0  0  0  0  0  0  0
    8.4314  -14.8765   21.5428 C   0  0  0  0  0  0  0  0  0  0  0  0
    8.7394  -16.3561   21.6455 C   0  0  2  0  0  0  0  0  0  0  0  0
    8.6163  -16.7712   23.0457 N   0  0  0  0  0  0  0  0  0  0  0  0
   10.0644  -16.7115   21.1054 C   0  0  0  0  0  0  0  0  0  0  0  0
   10.3991  -16.5449   19.9078 O   0  0  0  0  0  0  0  0  0  0  0  0
    7.9234  -11.5216   16.6005 N   0  0  0  0  0  0  0  0  0  0  0  0
   10.5093  -21.1545   21.0885 C   0  0  0  0  0  0  0  0  0  0  0  0
   11.6153  -20.3429   21.4611 O   0  0  0  0  0  0  0  0  0  0  0  0
   12.2782  -20.6079   22.4772 C   0  0  0  0  0  0  0  0  0  0  0  0
   11.9528  -19.1902   20.6199 C   0  0  2  0  0  0  0  0  0  0  0  0
   12.2489  -17.9331   21.3668 N   0  0  0  0  0  0  0  0  0  0  0  0
   11.0917  -17.2902   21.9408 C   0  0  0  0  0  0  0  0  0  0  0  0
   12.8521  -16.9625   20.3887 O   0  0  0  0  0  0  0  0  0  0  0  0
   14.1083  -16.4049   20.5838 O   0  0  0  0  0  0  0  0  0  0  0  0
  2  1  1  0
  3  2  2  0
  4  3  1  0
  5 11  1  0
  5  4  2  0
  6  5  1  0
  7  6  1  0
  7  8  1  1
  9  7  1  0
  9 21  1  0
 10  9  2  0
 11 12  2  0
 12  2  1  0
 14 13  1  0
 15 14  2  0
 16 14  1  0
 17 16  1  0
 18 17  1  0
 18 19  1  0
 20 19  1  1
 20 21  1  0
 20 22  1  0
 22 23  2  0
 24 25  1  0
 25 26  2  0
 25 27  1  0
 28 30  1  0
 28 27  1  1
 29 22  1  0
 29 28  1  0
 30 32  2  0
 30 31  1  0
M  END
$$$$
