YRN.pdb
     RDKit          3D

 32 32  0  0  1  0  0  0  0  0999 V2000
    6.4152  -10.9171   28.7589 O   0  0  0  0  0  0  0  0  0  0  0  0
    6.5598  -11.7120   27.6261 C   0  0  0  0  0  0  0  0  0  0  0  0
    5.4800  -12.3501   27.0512 C   0  0  0  0  0  0  0  0  0  0  0  0
    5.6812  -13.1247   25.9305 C   0  0  0  0  0  0  0  0  0  0  0  0
    6.9155  -13.2783   25.3744 C   0  0  0  0  0  0  0  0  0  0  0  0
    7.1598  -14.1122   24.1619 C   0  0  0  0  0  0  0  0  0  0  0  0
    7.0181  -15.5893   24.5044 C   0  0  2  0  0  0  0  0  0  0  0  0
    8.0254  -15.9867   25.4699 N   0  0  0  0  0  0  0  0  0  0  0  0
    7.2376  -16.3711   23.2399 C   0  0  0  0  0  0  0  0  0  0  0  0
    6.3045  -16.5636   22.4109 O   0  0  0  0  0  0  0  0  0  0  0  0
    8.0083  -12.6449   25.9393 C   0  0  0  0  0  0  0  0  0  0  0  0
    7.8127  -11.8703   27.0584 C   0  0  0  0  0  0  0  0  0  0  0  0
    8.7731  -15.0320   17.1618 N   0  0  0  0  0  0  0  0  0  0  0  0
    8.0436  -13.8185   17.2554 C   0  0  0  0  0  0  0  0  0  0  0  0
    7.4582  -13.3153   16.2256 N   0  0  0  0  0  0  0  0  0  0  0  0
    7.9380  -13.1234   18.4885 N   0  0  0  0  0  0  0  0  0  0  0  0
    8.7203  -13.5856   19.6111 C   0  0  0  0  0  0  0  0  0  0  0  0
    8.4053  -15.0247   19.9926 C   0  0  0  0  0  0  0  0  0  0  0  0
    9.2036  -15.3881   21.1922 C   0  0  0  0  0  0  0  0  0  0  0  0
    9.1030  -16.8428   21.6023 C   0  0  2  0  0  0  0  0  0  0  0  0
    8.5132  -16.9192   22.9418 N   0  0  0  0  0  0  0  0  0  0  0  0
   10.3961  -17.5495   21.5552 C   0  0  0  0  0  0  0  0  0  0  0  0
   10.9779  -17.8731   20.4918 O   0  0  0  0  0  0  0  0  0  0  0  0
    6.9107  -12.4308   16.2399 N   0  0  0  0  0  0  0  0  0  0  0  0
   14.3815  -17.0301   20.9797 C   0  0  0  0  0  0  0  0  0  0  0  0
   13.9256  -15.9429   21.7741 O   0  0  0  0  0  0  0  0  0  0  0  0
   14.4330  -14.8161   21.6520 C   0  0  0  0  0  0  0  0  0  0  0  0
   12.8461  -16.1836   22.7369 C   0  0  2  0  0  0  0  0  0  0  0  0
   12.4954  -17.6192   22.9411 N   0  0  0  0  0  0  0  0  0  0  0  0
   11.0970  -17.9261   22.7614 C   0  0  0  0  0  0  0  0  0  0  0  0
   12.8435  -17.9675   24.3624 O   0  0  0  0  0  0  0  0  0  0  0  0
   14.1223  -18.3613   24.7324 O   0  0  0  0  0  0  0  0  0  0  0  0
  2  1  1  0
  3  2  2  0
  4  3  1  0
  5 11  1  0
  5  4  2  0
  6  5  1  0
  7  6  1  0
  7  8  1  1
  9  7  1  0
  9 21  1  0
 10  9  2  0
 11 12  2  0
 12  2  1  0
 14 13  1  0
 15 14  2  0
 16 14  1  0
 17 16  1  0
 18 17  1  0
 18 19  1  0
 20 19  1  1
 20 21  1  0
 20 22  1  0
 22 23  2  0
 24 25  1  0
 25 26  2  0
 25 27  1  0
 28 30  1  0
 28 27  1  6
 29 22  1  0
 29 28  1  0
 30 32  2  0
 30 31  1  0
M  END
$$$$
