YRN.pdb
     RDKit          3D

 32 32  0  0  1  0  0  0  0  0999 V2000
   10.4278  -14.9246   31.2875 O   0  0  0  0  0  0  0  0  0  0  0  0
   10.2038  -15.0803   29.9232 C   0  0  0  0  0  0  0  0  0  0  0  0
   10.2180  -16.3252   29.3283 C   0  0  0  0  0  0  0  0  0  0  0  0
    9.9900  -16.4204   27.9735 C   0  0  0  0  0  0  0  0  0  0  0  0
    9.7512  -15.3209   27.2053 C   0  0  0  0  0  0  0  0  0  0  0  0
    9.5024  -15.3973   25.7364 C   0  0  0  0  0  0  0  0  0  0  0  0
    8.0739  -15.8525   25.4697 C   0  0  2  0  0  0  0  0  0  0  0  0
    7.7827  -17.0705   26.2023 N   0  0  0  0  0  0  0  0  0  0  0  0
    7.9573  -16.1430   23.9999 C   0  0  0  0  0  0  0  0  0  0  0  0
    8.2098  -17.2878   23.5299 O   0  0  0  0  0  0  0  0  0  0  0  0
    9.7337  -14.0657   27.7870 C   0  0  0  0  0  0  0  0  0  0  0  0
    9.9608  -13.9651   29.1395 C   0  0  0  0  0  0  0  0  0  0  0  0
    7.0986  -15.6207   16.1355 N   0  0  0  0  0  0  0  0  0  0  0  0
    7.5529  -14.2810   16.2470 C   0  0  0  0  0  0  0  0  0  0  0  0
    7.3741  -13.4382   15.2908 N   0  0  0  0  0  0  0  0  0  0  0  0
    8.2185  -13.8306   17.4170 N   0  0  0  0  0  0  0  0  0  0  0  0
    7.5541  -13.9808   18.6905 C   0  0  0  0  0  0  0  0  0  0  0  0
    8.3517  -13.3855   19.8418 C   0  0  0  0  0  0  0  0  0  0  0  0
    7.6714  -13.7208   21.1198 C   0  0  0  0  0  0  0  0  0  0  0  0
    8.0842  -15.0455   21.7277 C   0  0  2  0  0  0  0  0  0  0  0  0
    7.5562  -15.1271   23.0924 N   0  0  0  0  0  0  0  0  0  0  0  0
    9.5426  -15.2608   21.7135 C   0  0  0  0  0  0  0  0  0  0  0  0
   10.3427  -14.6808   22.4865 O   0  0  0  0  0  0  0  0  0  0  0  0
    7.6666  -12.4406   15.3301 N   0  0  0  0  0  0  0  0  0  0  0  0
   10.6211  -19.5756   21.7567 C   0  0  0  0  0  0  0  0  0  0  0  0
   11.6489  -18.6030   21.8932 O   0  0  0  0  0  0  0  0  0  0  0  0
   12.2183  -18.4359   22.9840 C   0  0  0  0  0  0  0  0  0  0  0  0
   12.0185  -17.8054   20.7195 C   0  0  2  0  0  0  0  0  0  0  0  0
   11.5923  -16.3766   20.7719 N   0  0  0  0  0  0  0  0  0  0  0  0
   10.1632  -16.1774   20.7847 C   0  0  0  0  0  0  0  0  0  0  0  0
   12.1191  -15.7064   19.5325 O   0  0  0  0  0  0  0  0  0  0  0  0
   13.4791  -15.5898   19.2795 O   0  0  0  0  0  0  0  0  0  0  0  0
  2  1  1  0
  3  2  2  0
  4  3  1  0
  5 11  1  0
  5  4  2  0
  6  5  1  0
  7  6  1  0
  7  8  1  1
  9  7  1  0
  9 21  1  0
 10  9  2  0
 11 12  2  0
 12  2  1  0
 14 13  1  0
 15 14  2  0
 16 14  1  0
 17 16  1  0
 18 17  1  0
 18 19  1  0
 20 19  1  1
 20 21  1  0
 20 22  1  0
 22 23  2  0
 24 25  1  0
 25 26  2  0
 25 27  1  0
 28 30  1  0
 28 27  1  1
 29 22  1  0
 29 28  1  0
 30 32  2  0
 30 31  1  0
M  END
$$$$
