YRN.pdb
     RDKit          3D

 32 32  0  0  1  0  0  0  0  0999 V2000
    5.7821  -10.9709   28.9955 O   0  0  0  0  0  0  0  0  0  0  0  0
    6.3316  -11.7597   27.9896 C   0  0  0  0  0  0  0  0  0  0  0  0
    5.6635  -11.9827   26.8032 C   0  0  0  0  0  0  0  0  0  0  0  0
    6.2548  -12.7722   25.8421 C   0  0  0  0  0  0  0  0  0  0  0  0
    7.4797  -13.3384   26.0301 C   0  0  0  0  0  0  0  0  0  0  0  0
    8.1409  -14.1977   25.0056 C   0  0  0  0  0  0  0  0  0  0  0  0
    7.3049  -15.4443   24.7486 C   0  0  2  0  0  0  0  0  0  0  0  0
    7.3303  -16.3213   25.9041 N   0  0  0  0  0  0  0  0  0  0  0  0
    7.9207  -16.1717   23.5867 C   0  0  0  0  0  0  0  0  0  0  0  0
    8.6861  -17.1618   23.7567 O   0  0  0  0  0  0  0  0  0  0  0  0
    8.1622  -13.1241   27.2144 C   0  0  0  0  0  0  0  0  0  0  0  0
    7.5762  -12.3366   28.1774 C   0  0  0  0  0  0  0  0  0  0  0  0
    9.0229  -14.5790   15.3997 N   0  0  0  0  0  0  0  0  0  0  0  0
    8.5040  -13.9453   16.5585 C   0  0  0  0  0  0  0  0  0  0  0  0
    8.9996  -12.8376   16.9871 N   0  0  0  0  0  0  0  0  0  0  0  0
    7.4223  -14.5150   17.2797 N   0  0  0  0  0  0  0  0  0  0  0  0
    7.3622  -15.9517   17.4140 C   0  0  0  0  0  0  0  0  0  0  0  0
    8.1910  -16.4667   18.5819 C   0  0  0  0  0  0  0  0  0  0  0  0
    7.7182  -15.8130   19.8299 C   0  0  0  0  0  0  0  0  0  0  0  0
    8.3391  -16.3533   21.1016 C   0  0  2  0  0  0  0  0  0  0  0  0
    7.6550  -15.7600   22.2539 N   0  0  0  0  0  0  0  0  0  0  0  0
    9.7938  -16.1263   21.1786 C   0  0  0  0  0  0  0  0  0  0  0  0
   10.3145  -15.0542   21.5707 O   0  0  0  0  0  0  0  0  0  0  0  0
    8.6518  -12.3282   17.8249 N   0  0  0  0  0  0  0  0  0  0  0  0
   13.3554  -14.5379   21.6551 C   0  0  0  0  0  0  0  0  0  0  0  0
   13.3804  -15.6210   22.5755 O   0  0  0  0  0  0  0  0  0  0  0  0
   13.9048  -15.4871   23.6931 C   0  0  0  0  0  0  0  0  0  0  0  0
   12.7745  -16.8947   22.1745 C   0  0  2  0  0  0  0  0  0  0  0  0
   12.1613  -16.8976   20.8144 N   0  0  0  0  0  0  0  0  0  0  0  0
   10.7406  -17.1493   20.7979 C   0  0  0  0  0  0  0  0  0  0  0  0
   12.8136  -18.0040   20.0314 O   0  0  0  0  0  0  0  0  0  0  0  0
   12.1706  -19.2091   19.7833 O   0  0  0  0  0  0  0  0  0  0  0  0
  2  1  1  0
  3  2  2  0
  4  3  1  0
  5 11  1  0
  5  4  2  0
  6  5  1  0
  7  6  1  0
  7  8  1  1
  9  7  1  0
  9 21  1  0
 10  9  2  0
 11 12  2  0
 12  2  1  0
 14 13  1  0
 15 14  2  0
 16 14  1  0
 17 16  1  0
 18 17  1  0
 18 19  1  0
 20 19  1  6
 20 21  1  0
 20 22  1  0
 22 23  2  0
 24 25  1  0
 25 26  2  0
 25 27  1  0
 28 30  1  0
 28 27  1  1
 29 22  1  0
 29 28  1  0
 30 32  2  0
 30 31  1  0
M  END
$$$$
