YRN.pdb
     RDKit          3D

 32 32  0  0  1  0  0  0  0  0999 V2000
   10.5818  -14.5447   31.2794 O   0  0  0  0  0  0  0  0  0  0  0  0
   10.5279  -14.8236   29.9173 C   0  0  0  0  0  0  0  0  0  0  0  0
    9.8112  -14.0283   29.0470 C   0  0  0  0  0  0  0  0  0  0  0  0
    9.7926  -14.3515   27.7084 C   0  0  0  0  0  0  0  0  0  0  0  0
   10.4614  -15.4336   27.2204 C   0  0  0  0  0  0  0  0  0  0  0  0
   10.4562  -15.8053   25.7758 C   0  0  0  0  0  0  0  0  0  0  0  0
    9.2230  -16.6386   25.4534 C   0  0  2  0  0  0  0  0  0  0  0  0
    9.2760  -17.9140   26.1431 N   0  0  0  0  0  0  0  0  0  0  0  0
    9.2255  -16.8986   23.9733 C   0  0  0  0  0  0  0  0  0  0  0  0
    9.5491  -18.0239   23.5000 O   0  0  0  0  0  0  0  0  0  0  0  0
   11.1846  -16.2408   28.0805 C   0  0  0  0  0  0  0  0  0  0  0  0
   11.2064  -15.9224   29.4180 C   0  0  0  0  0  0  0  0  0  0  0  0
    8.6688  -13.2546   17.1394 N   0  0  0  0  0  0  0  0  0  0  0  0
    8.4439  -12.5174   18.3308 C   0  0  0  0  0  0  0  0  0  0  0  0
    9.2543  -11.5876   18.6985 N   0  0  0  0  0  0  0  0  0  0  0  0
    7.3179  -12.7840   19.1528 N   0  0  0  0  0  0  0  0  0  0  0  0
    6.7036  -14.0891   19.0805 C   0  0  0  0  0  0  0  0  0  0  0  0
    7.6325  -15.2011   19.5462 C   0  0  0  0  0  0  0  0  0  0  0  0
    7.8413  -15.0687   21.0115 C   0  0  0  0  0  0  0  0  0  0  0  0
    8.7521  -16.1162   21.6180 C   0  0  2  0  0  0  0  0  0  0  0  0
    8.8602  -15.8749   23.0595 N   0  0  0  0  0  0  0  0  0  0  0  0
   10.0852  -16.1595   20.9899 C   0  0  0  0  0  0  0  0  0  0  0  0
   10.2907  -16.5346   19.8104 O   0  0  0  0  0  0  0  0  0  0  0  0
    9.1410  -11.0242   19.5658 N   0  0  0  0  0  0  0  0  0  0  0  0
   14.7278  -14.2223   19.1835 C   0  0  0  0  0  0  0  0  0  0  0  0
   14.6126  -14.3777   20.5918 O   0  0  0  0  0  0  0  0  0  0  0  0
   15.6272  -14.4831   21.2999 C   0  0  0  0  0  0  0  0  0  0  0  0
   13.2720  -14.4103   21.1853 C   0  0  1  0  0  0  0  0  0  0  0  0
   12.5613  -15.7160   21.0594 N   0  0  0  0  0  0  0  0  0  0  0  0
   11.2739  -15.7629   21.7093 C   0  0  0  0  0  0  0  0  0  0  0  0
   13.4235  -16.7602   21.7144 O   0  0  0  0  0  0  0  0  0  0  0  0
   14.6562  -17.1300   21.1941 O   0  0  0  0  0  0  0  0  0  0  0  0
  2  1  1  0
  3  2  2  0
  4  3  1  0
  5 11  1  0
  5  4  2  0
  6  5  1  0
  7  6  1  0
  7  8  1  1
  9  7  1  0
  9 21  1  0
 10  9  2  0
 11 12  2  0
 12  2  1  0
 14 13  1  0
 15 14  2  0
 16 14  1  0
 17 16  1  0
 18 17  1  0
 18 19  1  0
 20 19  1  6
 20 21  1  0
 20 22  1  0
 22 23  2  0
 24 25  1  0
 25 26  2  0
 25 27  1  0
 28 30  1  0
 28 27  1  6
 29 22  1  0
 29 28  1  0
 30 32  2  0
 30 31  1  0
M  END
$$$$
