YRN.pdb
     RDKit          3D

 32 32  0  0  1  0  0  0  0  0999 V2000
    5.2538  -10.6742   28.0289 O   0  0  0  0  0  0  0  0  0  0  0  0
    5.9869  -11.7162   27.4696 C   0  0  0  0  0  0  0  0  0  0  0  0
    6.9643  -12.3752   28.1866 C   0  0  0  0  0  0  0  0  0  0  0  0
    7.6592  -13.3994   27.5828 C   0  0  0  0  0  0  0  0  0  0  0  0
    7.4085  -13.7796   26.2987 C   0  0  0  0  0  0  0  0  0  0  0  0
    8.1475  -14.8847   25.6220 C   0  0  0  0  0  0  0  0  0  0  0  0
    7.1652  -15.8895   25.0350 C   0  0  2  0  0  0  0  0  0  0  0  0
    7.0533  -17.0533   25.8941 N   0  0  0  0  0  0  0  0  0  0  0  0
    7.7086  -16.3313   23.7054 C   0  0  0  0  0  0  0  0  0  0  0  0
    8.2248  -17.4731   23.5481 O   0  0  0  0  0  0  0  0  0  0  0  0
    6.4315  -13.1286   25.5667 C   0  0  0  0  0  0  0  0  0  0  0  0
    5.7347  -12.1051   26.1650 C   0  0  0  0  0  0  0  0  0  0  0  0
    8.8141  -15.3808   15.8089 N   0  0  0  0  0  0  0  0  0  0  0  0
    8.2626  -14.0736   15.8356 C   0  0  0  0  0  0  0  0  0  0  0  0
    8.0675  -13.4136   14.7481 N   0  0  0  0  0  0  0  0  0  0  0  0
    7.9099  -13.4550   17.0635 N   0  0  0  0  0  0  0  0  0  0  0  0
    8.6456  -13.8131   18.2536 C   0  0  0  0  0  0  0  0  0  0  0  0
    8.1874  -15.1360   18.8504 C   0  0  0  0  0  0  0  0  0  0  0  0
    7.6768  -14.8905   20.2242 C   0  0  0  0  0  0  0  0  0  0  0  0
    8.1987  -15.8498   21.2740 C   0  0  2  0  0  0  0  0  0  0  0  0
    7.6549  -15.4669   22.5800 N   0  0  0  0  0  0  0  0  0  0  0  0
    9.6708  -15.9187   21.3161 C   0  0  0  0  0  0  0  0  0  0  0  0
   10.4250  -14.9742   20.9798 O   0  0  0  0  0  0  0  0  0  0  0  0
    7.8384  -12.3993   14.7143 N   0  0  0  0  0  0  0  0  0  0  0  0
   11.7915  -20.9145   22.6867 C   0  0  0  0  0  0  0  0  0  0  0  0
   12.0862  -19.5296   22.5602 O   0  0  0  0  0  0  0  0  0  0  0  0
   12.4339  -18.8657   23.5503 C   0  0  0  0  0  0  0  0  0  0  0  0
   11.9701  -18.9071   21.2376 C   0  0  2  0  0  0  0  0  0  0  0  0
   11.6701  -17.4457   21.2557 N   0  0  0  0  0  0  0  0  0  0  0  0
   10.3603  -17.1090   21.7587 C   0  0  0  0  0  0  0  0  0  0  0  0
   11.7349  -16.9576   19.8344 O   0  0  0  0  0  0  0  0  0  0  0  0
   12.4382  -15.8146   19.4794 O   0  0  0  0  0  0  0  0  0  0  0  0
  2  1  1  0
  3  2  2  0
  4  3  1  0
  5 11  1  0
  5  4  2  0
  6  5  1  0
  7  6  1  0
  7  8  1  1
  9  7  1  0
  9 21  1  0
 10  9  2  0
 11 12  2  0
 12  2  1  0
 14 13  1  0
 15 14  2  0
 16 14  1  0
 17 16  1  0
 18 17  1  0
 18 19  1  0
 20 19  1  6
 20 21  1  0
 20 22  1  0
 22 23  2  0
 24 25  1  0
 25 26  2  0
 25 27  1  0
 28 30  1  0
 28 27  1  1
 29 22  1  0
 29 28  1  0
 30 32  2  0
 30 31  1  0
M  END
$$$$
