YRN.pdb
     RDKit          3D

 32 32  0  0  1  0  0  0  0  0999 V2000
    6.0600  -10.6637   28.5901 O   0  0  0  0  0  0  0  0  0  0  0  0
    6.5405  -11.6599   27.7459 C   0  0  0  0  0  0  0  0  0  0  0  0
    6.2062  -11.6932   26.4076 C   0  0  0  0  0  0  0  0  0  0  0  0
    6.7107  -12.7026   25.6183 C   0  0  0  0  0  0  0  0  0  0  0  0
    7.5296  -13.6682   26.1216 C   0  0  0  0  0  0  0  0  0  0  0  0
    8.0881  -14.7721   25.2882 C   0  0  0  0  0  0  0  0  0  0  0  0
    6.9953  -15.3736   24.4146 C   0  0  2  0  0  0  0  0  0  0  0  0
    6.3991  -16.5249   25.0658 N   0  0  0  0  0  0  0  0  0  0  0  0
    7.6378  -15.8314   23.1355 C   0  0  0  0  0  0  0  0  0  0  0  0
    7.7440  -17.0572   22.8504 O   0  0  0  0  0  0  0  0  0  0  0  0
    7.8739  -13.6486   27.4615 C   0  0  0  0  0  0  0  0  0  0  0  0
    7.3729  -12.6427   28.2540 C   0  0  0  0  0  0  0  0  0  0  0  0
    8.4147  -15.6622   15.0107 N   0  0  0  0  0  0  0  0  0  0  0  0
    8.0650  -14.3955   15.5462 C   0  0  0  0  0  0  0  0  0  0  0  0
    8.4749  -13.3067   14.9960 N   0  0  0  0  0  0  0  0  0  0  0  0
    7.2525  -14.2920   16.7055 N   0  0  0  0  0  0  0  0  0  0  0  0
    7.7031  -14.9240   17.9234 C   0  0  0  0  0  0  0  0  0  0  0  0
    7.5263  -14.0347   19.1457 C   0  0  0  0  0  0  0  0  0  0  0  0
    8.7504  -14.1231   19.9836 C   0  0  0  0  0  0  0  0  0  0  0  0
    8.7760  -15.2935   20.9449 C   0  0  2  0  0  0  0  0  0  0  0  0
    8.1472  -14.8875   22.2049 N   0  0  0  0  0  0  0  0  0  0  0  0
   10.1323  -15.8219   21.1794 C   0  0  0  0  0  0  0  0  0  0  0  0
   10.8691  -16.2833   20.2748 O   0  0  0  0  0  0  0  0  0  0  0  0
    8.2484  -12.3541   15.3477 N   0  0  0  0  0  0  0  0  0  0  0  0
   14.9537  -15.7092   24.7133 C   0  0  0  0  0  0  0  0  0  0  0  0
   14.3903  -15.7802   23.4101 O   0  0  0  0  0  0  0  0  0  0  0  0
   15.0488  -16.2387   22.4623 C   0  0  0  0  0  0  0  0  0  0  0  0
   13.0185  -15.3009   23.2132 C   0  0  2  0  0  0  0  0  0  0  0  0
   12.0593  -16.3298   22.7160 N   0  0  0  0  0  0  0  0  0  0  0  0
   10.7179  -15.8440   22.5002 C   0  0  0  0  0  0  0  0  0  0  0  0
   11.9746  -17.4063   23.7632 O   0  0  0  0  0  0  0  0  0  0  0  0
   13.0622  -18.2056   24.0877 O   0  0  0  0  0  0  0  0  0  0  0  0
  2  1  1  0
  3  2  2  0
  4  3  1  0
  5 11  1  0
  5  4  2  0
  6  5  1  0
  7  6  1  0
  7  8  1  1
  9  7  1  0
  9 21  1  0
 10  9  2  0
 11 12  2  0
 12  2  1  0
 14 13  1  0
 15 14  2  0
 16 14  1  0
 17 16  1  0
 18 17  1  0
 18 19  1  0
 20 19  1  6
 20 21  1  0
 20 22  1  0
 22 23  2  0
 24 25  1  0
 25 26  2  0
 25 27  1  0
 28 30  1  0
 28 27  1  6
 29 22  1  0
 29 28  1  0
 30 32  2  0
 30 31  1  0
M  END
$$$$
