YRN.pdb
     RDKit          3D

 32 32  0  0  1  0  0  0  0  0999 V2000
   10.0937  -13.2414   30.1919 O   0  0  0  0  0  0  0  0  0  0  0  0
    9.7750  -14.2672   29.3075 C   0  0  0  0  0  0  0  0  0  0  0  0
   10.5684  -15.3899   29.1906 C   0  0  0  0  0  0  0  0  0  0  0  0
   10.2049  -16.3744   28.2988 C   0  0  0  0  0  0  0  0  0  0  0  0
    9.0851  -16.2705   27.5298 C   0  0  0  0  0  0  0  0  0  0  0  0
    8.6704  -17.3220   26.5563 C   0  0  0  0  0  0  0  0  0  0  0  0
    7.4385  -16.8663   25.7857 C   0  0  2  0  0  0  0  0  0  0  0  0
    6.2860  -17.6700   26.1470 N   0  0  0  0  0  0  0  0  0  0  0  0
    7.7183  -17.0679   24.3230 C   0  0  0  0  0  0  0  0  0  0  0  0
    7.8889  -18.2201   23.8348 O   0  0  0  0  0  0  0  0  0  0  0  0
    8.2792  -15.1509   27.6356 C   0  0  0  0  0  0  0  0  0  0  0  0
    8.6376  -14.1649   28.5246 C   0  0  0  0  0  0  0  0  0  0  0  0
    6.3951  -12.5098   16.9723 N   0  0  0  0  0  0  0  0  0  0  0  0
    7.6767  -13.0998   16.8208 C   0  0  0  0  0  0  0  0  0  0  0  0
    8.1108  -13.4550   15.6625 N   0  0  0  0  0  0  0  0  0  0  0  0
    8.5182  -13.3160   17.9433 N   0  0  0  0  0  0  0  0  0  0  0  0
    7.9069  -13.5154   19.2365 C   0  0  0  0  0  0  0  0  0  0  0  0
    8.2658  -14.8593   19.8538 C   0  0  0  0  0  0  0  0  0  0  0  0
    7.8682  -14.8503   21.2856 C   0  0  0  0  0  0  0  0  0  0  0  0
    8.2761  -16.0846   22.0634 C   0  0  2  0  0  0  0  0  0  0  0  0
    7.7990  -15.9562   23.4431 N   0  0  0  0  0  0  0  0  0  0  0  0
    9.7282  -16.3377   22.0297 C   0  0  0  0  0  0  0  0  0  0  0  0
   10.5644  -15.7057   22.7192 O   0  0  0  0  0  0  0  0  0  0  0  0
    8.9946  -13.9814   15.5068 N   0  0  0  0  0  0  0  0  0  0  0  0
   14.2964  -19.3786   22.2934 C   0  0  0  0  0  0  0  0  0  0  0  0
   13.4380  -19.4591   21.1632 O   0  0  0  0  0  0  0  0  0  0  0  0
   13.8817  -19.8105   20.0579 C   0  0  0  0  0  0  0  0  0  0  0  0
   12.0220  -19.1183   21.3337 C   0  0  1  0  0  0  0  0  0  0  0  0
   11.7083  -17.6641   21.2219 N   0  0  0  0  0  0  0  0  0  0  0  0
   10.2992  -17.3564   21.1788 C   0  0  0  0  0  0  0  0  0  0  0  0
   12.3055  -17.1750   19.9308 O   0  0  0  0  0  0  0  0  0  0  0  0
   11.5269  -16.6308   18.9186 O   0  0  0  0  0  0  0  0  0  0  0  0
  2  1  1  0
  3  2  2  0
  4  3  1  0
  5 11  1  0
  5  4  2  0
  6  5  1  0
  7  6  1  0
  7  8  1  1
  9  7  1  0
  9 21  1  0
 10  9  2  0
 11 12  2  0
 12  2  1  0
 14 13  1  0
 15 14  2  0
 16 14  1  0
 17 16  1  0
 18 17  1  0
 18 19  1  0
 20 19  1  6
 20 21  1  0
 20 22  1  0
 22 23  2  0
 24 25  1  0
 25 26  2  0
 25 27  1  0
 28 30  1  0
 28 27  1  1
 29 22  1  0
 29 28  1  0
 30 32  2  0
 30 31  1  0
M  END
$$$$
