YRN.pdb
     RDKit          3D

 32 32  0  0  1  0  0  0  0  0999 V2000
   10.2043  -14.0448   30.9532 O   0  0  0  0  0  0  0  0  0  0  0  0
   10.0120  -14.5229   29.6607 C   0  0  0  0  0  0  0  0  0  0  0  0
   10.2443  -15.8445   29.3396 C   0  0  0  0  0  0  0  0  0  0  0  0
   10.0375  -16.2631   28.0440 C   0  0  0  0  0  0  0  0  0  0  0  0
    9.6105  -15.4095   27.0718 C   0  0  0  0  0  0  0  0  0  0  0  0
    9.3801  -15.8378   25.6616 C   0  0  0  0  0  0  0  0  0  0  0  0
    7.8998  -16.1121   25.4324 C   0  0  2  0  0  0  0  0  0  0  0  0
    7.4677  -17.2569   26.2120 N   0  0  0  0  0  0  0  0  0  0  0  0
    7.7184  -16.4338   23.9757 C   0  0  0  0  0  0  0  0  0  0  0  0
    7.7638  -17.6220   23.5500 O   0  0  0  0  0  0  0  0  0  0  0  0
    9.3732  -14.0813   27.3781 C   0  0  0  0  0  0  0  0  0  0  0  0
    9.5781  -13.6582   28.6703 C   0  0  0  0  0  0  0  0  0  0  0  0
    6.3149  -13.6165   16.3071 N   0  0  0  0  0  0  0  0  0  0  0  0
    7.7212  -13.8014   16.2662 C   0  0  0  0  0  0  0  0  0  0  0  0
    8.3307  -14.0102   15.1520 N   0  0  0  0  0  0  0  0  0  0  0  0
    8.4977  -13.7615   17.4537 N   0  0  0  0  0  0  0  0  0  0  0  0
    7.8224  -13.5583   18.7140 C   0  0  0  0  0  0  0  0  0  0  0  0
    8.7567  -13.6902   19.9080 C   0  0  0  0  0  0  0  0  0  0  0  0
    7.9468  -13.9760   21.1207 C   0  0  0  0  0  0  0  0  0  0  0  0
    8.2267  -15.3171   21.7670 C   0  0  2  0  0  0  0  0  0  0  0  0
    7.4889  -15.3990   23.0306 N   0  0  0  0  0  0  0  0  0  0  0  0
    9.6636  -15.5702   21.9788 C   0  0  0  0  0  0  0  0  0  0  0  0
   10.3471  -15.0157   22.8730 O   0  0  0  0  0  0  0  0  0  0  0  0
    9.3608  -14.1257   15.0631 N   0  0  0  0  0  0  0  0  0  0  0  0
   10.3610  -18.6551   20.0475 C   0  0  0  0  0  0  0  0  0  0  0  0
   11.4745  -19.0747   20.8251 O   0  0  0  0  0  0  0  0  0  0  0  0
   11.7515  -20.2806   20.9308 C   0  0  0  0  0  0  0  0  0  0  0  0
   12.2845  -18.0532   21.4964 C   0  0  1  0  0  0  0  0  0  0  0  0
   11.8278  -16.6491   21.2824 N   0  0  0  0  0  0  0  0  0  0  0  0
   10.3991  -16.4972   21.1495 C   0  0  0  0  0  0  0  0  0  0  0  0
   12.4431  -16.1691   19.9964 O   0  0  0  0  0  0  0  0  0  0  0  0
   13.8178  -16.0758   19.8273 O   0  0  0  0  0  0  0  0  0  0  0  0
  2  1  1  0
  3  2  2  0
  4  3  1  0
  5 11  1  0
  5  4  2  0
  6  5  1  0
  7  6  1  0
  7  8  1  1
  9  7  1  0
  9 21  1  0
 10  9  2  0
 11 12  2  0
 12  2  1  0
 14 13  1  0
 15 14  2  0
 16 14  1  0
 17 16  1  0
 18 17  1  0
 18 19  1  0
 20 19  1  1
 20 21  1  0
 20 22  1  0
 22 23  2  0
 24 25  1  0
 25 26  2  0
 25 27  1  0
 28 30  1  0
 28 27  1  1
 29 22  1  0
 29 28  1  0
 30 32  2  0
 30 31  1  0
M  END
$$$$
