YRN.pdb
     RDKit          3D

 32 32  0  0  1  0  0  0  0  0999 V2000
   10.2183  -14.4742   31.2153 O   0  0  0  0  0  0  0  0  0  0  0  0
   10.0334  -14.7749   29.8695 C   0  0  0  0  0  0  0  0  0  0  0  0
    9.5171  -13.8471   28.9884 C   0  0  0  0  0  0  0  0  0  0  0  0
    9.3553  -14.1991   27.6669 C   0  0  0  0  0  0  0  0  0  0  0  0
    9.6905  -15.4366   27.2059 C   0  0  0  0  0  0  0  0  0  0  0  0
    9.5242  -15.8425   25.7802 C   0  0  0  0  0  0  0  0  0  0  0  0
    8.0532  -16.0901   25.4739 C   0  0  2  0  0  0  0  0  0  0  0  0
    7.5743  -17.2587   26.1880 N   0  0  0  0  0  0  0  0  0  0  0  0
    7.9350  -16.3532   23.9990 C   0  0  0  0  0  0  0  0  0  0  0  0
    7.9759  -17.5255   23.5310 O   0  0  0  0  0  0  0  0  0  0  0  0
   10.2095  -16.3780   28.0770 C   0  0  0  0  0  0  0  0  0  0  0  0
   10.3730  -16.0315   29.3976 C   0  0  0  0  0  0  0  0  0  0  0  0
    9.2916  -13.7762   16.7081 N   0  0  0  0  0  0  0  0  0  0  0  0
    7.8834  -13.6031   16.6847 C   0  0  0  0  0  0  0  0  0  0  0  0
    7.1894  -13.9505   15.6580 N   0  0  0  0  0  0  0  0  0  0  0  0
    7.1983  -13.0412   17.7936 N   0  0  0  0  0  0  0  0  0  0  0  0
    7.9598  -12.6868   18.9685 C   0  0  0  0  0  0  0  0  0  0  0  0
    8.5589  -13.8990   19.6667 C   0  0  0  0  0  0  0  0  0  0  0  0
    7.9099  -14.0566   20.9942 C   0  0  0  0  0  0  0  0  0  0  0  0
    8.1905  -15.3763   21.6830 C   0  0  2  0  0  0  0  0  0  0  0  0
    7.7727  -15.2792   23.0844 N   0  0  0  0  0  0  0  0  0  0  0  0
    9.6005  -15.7951   21.5817 C   0  0  0  0  0  0  0  0  0  0  0  0
   10.5245  -15.3154   22.2818 O   0  0  0  0  0  0  0  0  0  0  0  0
    6.1578  -13.8365   15.5854 N   0  0  0  0  0  0  0  0  0  0  0  0
   13.2787  -20.2977   21.2256 C   0  0  0  0  0  0  0  0  0  0  0  0
   12.8156  -19.3339   20.2890 O   0  0  0  0  0  0  0  0  0  0  0  0
   13.5523  -18.9439   19.3685 C   0  0  0  0  0  0  0  0  0  0  0  0
   11.4524  -18.8136   20.4357 C   0  0  1  0  0  0  0  0  0  0  0  0
   11.3637  -17.3432   20.6723 N   0  0  0  0  0  0  0  0  0  0  0  0
   10.0225  -16.8117   20.6456 C   0  0  0  0  0  0  0  0  0  0  0  0
   12.1282  -16.6650   19.5686 O   0  0  0  0  0  0  0  0  0  0  0  0
   13.4049  -16.1554   19.7621 O   0  0  0  0  0  0  0  0  0  0  0  0
  2  1  1  0
  3  2  2  0
  4  3  1  0
  5 11  1  0
  5  4  2  0
  6  5  1  0
  7  6  1  0
  7  8  1  1
  9  7  1  0
  9 21  1  0
 10  9  2  0
 11 12  2  0
 12  2  1  0
 14 13  1  0
 15 14  2  0
 16 14  1  0
 17 16  1  0
 18 17  1  0
 18 19  1  0
 20 19  1  1
 20 21  1  0
 20 22  1  0
 22 23  2  0
 24 25  1  0
 25 26  2  0
 25 27  1  0
 28 30  1  0
 28 27  1  1
 29 22  1  0
 29 28  1  0
 30 32  2  0
 30 31  1  0
M  END
$$$$
