KSM.pdb
     RDKit          3D

 24 23  0  0  1  0  0  0  0  0999 V2000
   -2.5951  -26.2010   25.0618 N   0  0  0  0  0  0  0  0  0  0  0  0
   -3.8886  -25.8350   24.5279 C   0  0  1  0  0  0  0  0  0  0  0  0
   -4.8297  -26.9814   24.6905 C   0  0  0  0  0  0  0  0  0  0  0  0
   -4.2172  -28.3331   24.7092 C   0  0  0  0  0  0  0  0  0  0  0  0
   -5.1357  -29.4838   24.9213 C   0  0  0  0  0  0  0  0  0  0  0  0
   -4.4230  -30.8141   24.8697 C   0  0  0  0  0  0  0  0  0  0  0  0
   -5.3709  -31.8640   25.1886 N   0  0  0  0  0  0  0  0  0  0  0  0
   -4.3840  -24.6707   25.3018 C   0  0  0  0  0  0  0  0  0  0  0  0
   -4.1560  -24.6884   26.5567 O   0  0  0  0  0  0  0  0  0  0  0  0
   -6.3802  -20.2178   25.5576 O   0  0  0  0  0  0  0  0  0  0  0  0
   -5.9544  -21.2859   24.8072 C   0  0  0  0  0  0  0  0  0  0  0  0
   -5.5044  -22.4493   25.6277 C   0  0  2  0  0  0  0  0  0  0  0  0
   -5.0765  -23.5622   24.7748 N   0  0  0  0  0  0  0  0  0  0  0  0
   -6.5850  -22.8787   26.5512 C   0  0  0  0  0  0  0  0  0  0  0  0
   -7.3241  -23.8389   26.2177 O   0  0  0  0  0  0  0  0  0  0  0  0
   -9.2704  -27.0608   31.6571 C   0  0  0  0  0  0  0  0  0  0  0  0
   -8.1300  -26.2995   30.4928 S   0  0  0  0  0  0  0  0  0  0  0  0
   -8.6434  -24.5884   30.0774 C   0  0  0  0  0  0  0  0  0  0  0  0
   -7.6478  -24.0603   29.0984 C   0  0  0  0  0  0  0  0  0  0  0  0
   -7.8749  -22.6407   28.7009 C   0  0  2  0  0  0  0  0  0  0  0  0
   -6.8036  -22.2314   27.8006 N   0  0  0  0  0  0  0  0  0  0  0  0
   -7.9065  -21.7899   29.9181 C   0  0  0  0  0  0  0  0  0  0  0  0
   -8.9880  -21.7963   30.7676 O   0  0  0  0  0  0  0  0  0  0  0  0
   -6.9347  -21.0517   30.1815 O   0  0  0  0  0  0  0  0  0  0  0  0
  2  1  1  1
  2  8  1  0
  3  2  1  0
  4  5  1  0
  4  3  1  0
  5  6  1  0
  7  6  1  0
  8  9  2  0
  8 13  1  0
 10 11  1  0
 12 11  1  6
 13 12  1  0
 14 12  1  0
 14 15  2  0
 16 17  1  0
 17 18  1  0
 18 19  1  0
 20 19  1  1
 20 21  1  0
 21 14  1  0
 22 20  1  0
 23 22  1  0
 24 22  2  0
M  END
$$$$
