KSM.pdb
     RDKit          3D

 24 23  0  0  1  0  0  0  0  0999 V2000
    6.3815  -16.2807   19.8223 N   0  0  0  0  0  0  0  0  0  0  0  0
    7.6974  -15.7438   20.0909 C   0  0  1  0  0  0  0  0  0  0  0  0
    7.6285  -14.2533   20.0955 C   0  0  0  0  0  0  0  0  0  0  0  0
    7.1144  -13.6183   18.8565 C   0  0  0  0  0  0  0  0  0  0  0  0
    8.0402  -12.7033   18.1367 C   0  0  0  0  0  0  0  0  0  0  0  0
    9.1010  -13.4438   17.3578 C   0  0  0  0  0  0  0  0  0  0  0  0
    8.4836  -14.0638   16.2016 N   0  0  0  0  0  0  0  0  0  0  0  0
    8.1183  -16.2267   21.4286 C   0  0  0  0  0  0  0  0  0  0  0  0
    7.1988  -16.3297   22.3068 O   0  0  0  0  0  0  0  0  0  0  0  0
   12.0962  -17.1535   22.7850 O   0  0  0  0  0  0  0  0  0  0  0  0
   11.0017  -17.9200   23.1013 C   0  0  0  0  0  0  0  0  0  0  0  0
    9.7218  -17.1515   23.1226 C   0  0  2  0  0  0  0  0  0  0  0  0
    9.4303  -16.5759   21.8062 N   0  0  0  0  0  0  0  0  0  0  0  0
    9.7732  -16.0916   24.1612 C   0  0  0  0  0  0  0  0  0  0  0  0
   10.2024  -14.9529   23.8474 O   0  0  0  0  0  0  0  0  0  0  0  0
    6.1428  -12.1157   26.4364 C   0  0  0  0  0  0  0  0  0  0  0  0
    7.7419  -12.1916   27.2563 S   0  0  0  0  0  0  0  0  0  0  0  0
    8.0377  -13.8460   27.9911 C   0  0  0  0  0  0  0  0  0  0  0  0
    8.0846  -14.8220   26.8625 C   0  0  0  0  0  0  0  0  0  0  0  0
    9.4548  -15.3119   26.5345 C   0  0  2  0  0  0  0  0  0  0  0  0
    9.3495  -16.3330   25.4992 N   0  0  0  0  0  0  0  0  0  0  0  0
   10.0874  -15.8573   27.7628 C   0  0  0  0  0  0  0  0  0  0  0  0
   10.5205  -15.0299   28.7723 O   0  0  0  0  0  0  0  0  0  0  0  0
   10.2318  -17.0911   27.8880 O   0  0  0  0  0  0  0  0  0  0  0  0
  2  1  1  1
  2  8  1  0
  3  2  1  0
  4  5  1  0
  4  3  1  0
  5  6  1  0
  7  6  1  0
  8  9  2  0
  8 13  1  0
 10 11  1  0
 12 11  1  6
 13 12  1  0
 14 12  1  0
 14 15  2  0
 16 17  1  0
 17 18  1  0
 18 19  1  0
 20 19  1  1
 20 21  1  0
 21 14  1  0
 22 20  1  0
 23 22  1  0
 24 22  2  0
M  END
$$$$
