KSM.pdb
     RDKit          3D

 24 23  0  0  1  0  0  0  0  0999 V2000
   10.3658  -16.9237   17.9831 N   0  0  0  0  0  0  0  0  0  0  0  0
    9.2685  -15.9984   18.1616 C   0  0  1  0  0  0  0  0  0  0  0  0
    8.2221  -16.2728   17.1341 C   0  0  0  0  0  0  0  0  0  0  0  0
    8.4254  -17.4835   16.3002 C   0  0  0  0  0  0  0  0  0  0  0  0
    7.4749  -18.6088   16.5067 C   0  0  0  0  0  0  0  0  0  0  0  0
    6.6849  -18.9388   15.2628 C   0  0  0  0  0  0  0  0  0  0  0  0
    6.6513  -20.3791   15.0998 N   0  0  0  0  0  0  0  0  0  0  0  0
    8.7062  -16.2198   19.5162 C   0  0  0  0  0  0  0  0  0  0  0  0
    7.7345  -15.4658   19.8543 O   0  0  0  0  0  0  0  0  0  0  0  0
    9.9733  -19.0104   22.6371 O   0  0  0  0  0  0  0  0  0  0  0  0
    8.6795  -18.7258   22.2761 C   0  0  0  0  0  0  0  0  0  0  0  0
    8.4981  -17.3396   21.7520 C   0  0  2  0  0  0  0  0  0  0  0  0
    9.1494  -17.1791   20.4484 N   0  0  0  0  0  0  0  0  0  0  0  0
    9.0180  -16.3470   22.7263 C   0  0  0  0  0  0  0  0  0  0  0  0
   10.1246  -15.7955   22.5008 O   0  0  0  0  0  0  0  0  0  0  0  0
    6.9328  -10.8741   27.9111 C   0  0  0  0  0  0  0  0  0  0  0  0
    6.6180  -12.0936   26.6269 S   0  0  0  0  0  0  0  0  0  0  0  0
    8.0952  -13.1368   26.3203 C   0  0  0  0  0  0  0  0  0  0  0  0
    7.7419  -14.0793   25.2179 C   0  0  0  0  0  0  0  0  0  0  0  0
    8.8189  -15.0537   24.8779 C   0  0  2  0  0  0  0  0  0  0  0  0
    8.2962  -16.0059   23.9055 N   0  0  0  0  0  0  0  0  0  0  0  0
    9.2655  -15.7424   26.1159 C   0  0  0  0  0  0  0  0  0  0  0  0
   10.0698  -15.1109   27.0355 O   0  0  0  0  0  0  0  0  0  0  0  0
    8.9070  -16.9185   26.3324 O   0  0  0  0  0  0  0  0  0  0  0  0
  2  1  1  6
  2  8  1  0
  3  2  1  0
  4  5  1  0
  4  3  1  0
  5  6  1  0
  7  6  1  0
  8  9  2  0
  8 13  1  0
 10 11  1  0
 12 11  1  1
 13 12  1  0
 14 12  1  0
 14 15  2  0
 16 17  1  0
 17 18  1  0
 18 19  1  0
 20 19  1  1
 20 21  1  0
 21 14  1  0
 22 20  1  0
 23 22  1  0
 24 22  2  0
M  END
$$$$
