KSM.pdb
     RDKit          3D

 24 23  0  0  1  0  0  0  0  0999 V2000
    6.8315  -21.0756   22.6749 N   0  0  0  0  0  0  0  0  0  0  0  0
    6.2849  -19.8884   23.2943 C   0  0  1  0  0  0  0  0  0  0  0  0
    6.6093  -19.9001   24.7507 C   0  0  0  0  0  0  0  0  0  0  0  0
    7.8028  -20.6872   25.1489 C   0  0  0  0  0  0  0  0  0  0  0  0
    8.0559  -20.8319   26.6075 C   0  0  0  0  0  0  0  0  0  0  0  0
    9.3917  -21.4700   26.9056 C   0  0  0  0  0  0  0  0  0  0  0  0
    9.2082  -22.4801   27.9295 N   0  0  0  0  0  0  0  0  0  0  0  0
    6.9188  -18.7109   22.6527 C   0  0  0  0  0  0  0  0  0  0  0  0
    8.1093  -18.8740   22.2245 O   0  0  0  0  0  0  0  0  0  0  0  0
    4.8121  -15.9392   21.0462 O   0  0  0  0  0  0  0  0  0  0  0  0
    6.1138  -15.5035   21.0162 C   0  0  0  0  0  0  0  0  0  0  0  0
    7.0426  -16.3442   21.8284 C   0  0  2  0  0  0  0  0  0  0  0  0
    6.3252  -17.4447   22.4792 N   0  0  0  0  0  0  0  0  0  0  0  0
    7.7498  -15.5098   22.8327 C   0  0  0  0  0  0  0  0  0  0  0  0
    7.5303  -14.2726   22.8585 O   0  0  0  0  0  0  0  0  0  0  0  0
    6.1339  -11.0177   26.0596 C   0  0  0  0  0  0  0  0  0  0  0  0
    6.8242  -12.6053   26.5478 S   0  0  0  0  0  0  0  0  0  0  0  0
    7.6497  -13.4368   25.1366 C   0  0  0  0  0  0  0  0  0  0  0  0
    8.2832  -14.6779   25.6721 C   0  0  0  0  0  0  0  0  0  0  0  0
    9.3258  -15.2653   24.7816 C   0  0  2  0  0  0  0  0  0  0  0  0
    8.6673  -16.0750   23.7636 N   0  0  0  0  0  0  0  0  0  0  0  0
   10.2609  -16.0836   25.5953 C   0  0  0  0  0  0  0  0  0  0  0  0
   10.2674  -17.4564   25.5133 O   0  0  0  0  0  0  0  0  0  0  0  0
   11.0601  -15.5202   26.3716 O   0  0  0  0  0  0  0  0  0  0  0  0
  2  1  1  6
  2  8  1  0
  3  2  1  0
  4  5  1  0
  4  3  1  0
  5  6  1  0
  7  6  1  0
  8  9  2  0
  8 13  1  0
 10 11  1  0
 12 11  1  1
 13 12  1  0
 14 12  1  0
 14 15  2  0
 16 17  1  0
 17 18  1  0
 18 19  1  0
 20 19  1  1
 20 21  1  0
 21 14  1  0
 22 20  1  0
 23 22  1  0
 24 22  2  0
M  END
$$$$
