KSM.pdb
     RDKit          3D

 24 23  0  0  1  0  0  0  0  0999 V2000
    6.8930  -19.7500   20.2630 N   0  0  0  0  0  0  0  0  0  0  0  0
    6.3675  -18.5342   20.8439 C   0  0  1  0  0  0  0  0  0  0  0  0
    5.7678  -18.8444   22.1745 C   0  0  0  0  0  0  0  0  0  0  0  0
    4.9392  -20.0735   22.2482 C   0  0  0  0  0  0  0  0  0  0  0  0
    4.2848  -20.3652   23.5517 C   0  0  0  0  0  0  0  0  0  0  0  0
    3.5002  -21.6554   23.5329 C   0  0  0  0  0  0  0  0  0  0  0  0
    4.4297  -22.7657   23.4586 N   0  0  0  0  0  0  0  0  0  0  0  0
    7.4981  -17.5897   21.0156 C   0  0  0  0  0  0  0  0  0  0  0  0
    8.6001  -18.0944   21.4132 O   0  0  0  0  0  0  0  0  0  0  0  0
    7.3856  -13.4621   20.2117 O   0  0  0  0  0  0  0  0  0  0  0  0
    8.5863  -14.1266   20.1655 C   0  0  0  0  0  0  0  0  0  0  0  0
    8.6252  -15.3478   21.0236 C   0  0  2  0  0  0  0  0  0  0  0  0
    7.4580  -16.2008   20.7802 N   0  0  0  0  0  0  0  0  0  0  0  0
    8.7112  -14.9693   22.4568 C   0  0  0  0  0  0  0  0  0  0  0  0
    8.9184  -13.7665   22.7568 O   0  0  0  0  0  0  0  0  0  0  0  0
    6.9071  -11.5534   27.3010 C   0  0  0  0  0  0  0  0  0  0  0  0
    5.9912  -12.7690   26.3426 S   0  0  0  0  0  0  0  0  0  0  0  0
    6.7771  -14.4236   26.4373 C   0  0  0  0  0  0  0  0  0  0  0  0
    7.0954  -14.8356   25.0382 C   0  0  0  0  0  0  0  0  0  0  0  0
    8.4023  -15.5390   24.8903 C   0  0  2  0  0  0  0  0  0  0  0  0
    8.5651  -15.9321   23.4958 N   0  0  0  0  0  0  0  0  0  0  0  0
    8.4260  -16.7228   25.7872 C   0  0  0  0  0  0  0  0  0  0  0  0
    8.4387  -18.0023   25.2830 O   0  0  0  0  0  0  0  0  0  0  0  0
    8.4346  -16.5603   27.0250 O   0  0  0  0  0  0  0  0  0  0  0  0
  2  1  1  1
  2  8  1  0
  3  2  1  0
  4  5  1  0
  4  3  1  0
  5  6  1  0
  7  6  1  0
  8  9  2  0
  8 13  1  0
 10 11  1  0
 12 11  1  6
 13 12  1  0
 14 12  1  0
 14 15  2  0
 16 17  1  0
 17 18  1  0
 18 19  1  0
 20 19  1  6
 20 21  1  0
 21 14  1  0
 22 20  1  0
 23 22  1  0
 24 22  2  0
M  END
$$$$
