KSM.pdb
     RDKit          3D

 24 23  0  0  1  0  0  0  0  0999 V2000
    9.5880  -15.2702   18.6255 N   0  0  0  0  0  0  0  0  0  0  0  0
    9.0556  -14.1157   19.3151 C   0  0  1  0  0  0  0  0  0  0  0  0
    7.8601  -13.6113   18.5786 C   0  0  0  0  0  0  0  0  0  0  0  0
    8.0815  -13.2136   17.1660 C   0  0  0  0  0  0  0  0  0  0  0  0
    7.3838  -14.0152   16.1253 C   0  0  0  0  0  0  0  0  0  0  0  0
    7.6137  -13.4839   14.7305 C   0  0  0  0  0  0  0  0  0  0  0  0
    6.9499  -14.3579   13.7830 N   0  0  0  0  0  0  0  0  0  0  0  0
    8.6559  -14.5470   20.6768 C   0  0  0  0  0  0  0  0  0  0  0  0
    8.1677  -13.6443   21.4345 O   0  0  0  0  0  0  0  0  0  0  0  0
    8.6182  -18.5461   22.3766 O   0  0  0  0  0  0  0  0  0  0  0  0
    7.7346  -17.5279   22.6370 C   0  0  0  0  0  0  0  0  0  0  0  0
    8.3518  -16.1703   22.5659 C   0  0  2  0  0  0  0  0  0  0  0  0
    8.7691  -15.8517   21.1971 N   0  0  0  0  0  0  0  0  0  0  0  0
    9.5003  -16.0755   23.5022 C   0  0  0  0  0  0  0  0  0  0  0  0
   10.2322  -17.0831   23.6710 O   0  0  0  0  0  0  0  0  0  0  0  0
    5.6197  -12.4338   26.1759 C   0  0  0  0  0  0  0  0  0  0  0  0
    6.8610  -12.3589   27.4755 S   0  0  0  0  0  0  0  0  0  0  0  0
    8.0508  -13.7485   27.3433 C   0  0  0  0  0  0  0  0  0  0  0  0
    8.4458  -13.8487   25.9071 C   0  0  0  0  0  0  0  0  0  0  0  0
    9.5938  -14.7662   25.6514 C   0  0  2  0  0  0  0  0  0  0  0  0
    9.7916  -14.8752   24.2110 N   0  0  0  0  0  0  0  0  0  0  0  0
    9.3051  -16.0924   26.2547 C   0  0  0  0  0  0  0  0  0  0  0  0
   10.0639  -16.5885   27.2888 O   0  0  0  0  0  0  0  0  0  0  0  0
    8.3556  -16.7761   25.8189 O   0  0  0  0  0  0  0  0  0  0  0  0
  2  1  1  6
  2  8  1  0
  3  2  1  0
  4  5  1  0
  4  3  1  0
  5  6  1  0
  7  6  1  0
  8  9  2  0
  8 13  1  0
 10 11  1  0
 12 11  1  6
 13 12  1  0
 14 12  1  0
 14 15  2  0
 16 17  1  0
 17 18  1  0
 18 19  1  0
 20 19  1  6
 20 21  1  0
 21 14  1  0
 22 20  1  0
 23 22  1  0
 24 22  2  0
M  END
$$$$
