KSM.pdb
     RDKit          3D

 24 23  0  0  1  0  0  0  0  0999 V2000
    6.9606  -16.2585   20.2465 N   0  0  0  0  0  0  0  0  0  0  0  0
    7.9231  -15.5386   21.0510 C   0  0  1  0  0  0  0  0  0  0  0  0
    7.5572  -14.0924   21.0785 C   0  0  0  0  0  0  0  0  0  0  0  0
    7.2795  -13.4627   19.7636 C   0  0  0  0  0  0  0  0  0  0  0  0
    8.3924  -13.4493   18.7768 C   0  0  0  0  0  0  0  0  0  0  0  0
    8.0453  -12.6898   17.5186 C   0  0  0  0  0  0  0  0  0  0  0  0
    9.1231  -12.8530   16.5626 N   0  0  0  0  0  0  0  0  0  0  0  0
    7.8674  -16.0923   22.4259 C   0  0  0  0  0  0  0  0  0  0  0  0
    7.1328  -15.4640   23.2583 O   0  0  0  0  0  0  0  0  0  0  0  0
   10.3184  -19.2493   24.0591 O   0  0  0  0  0  0  0  0  0  0  0  0
    9.0546  -18.9751   24.5206 C   0  0  0  0  0  0  0  0  0  0  0  0
    8.6387  -17.5564   24.3121 C   0  0  2  0  0  0  0  0  0  0  0  0
    8.5487  -17.2377   22.8840 N   0  0  0  0  0  0  0  0  0  0  0  0
    9.5801  -16.6360   24.9988 C   0  0  0  0  0  0  0  0  0  0  0  0
   10.1236  -15.7166   24.3365 O   0  0  0  0  0  0  0  0  0  0  0  0
    7.4460  -12.0095   26.0812 C   0  0  0  0  0  0  0  0  0  0  0  0
    8.8616  -12.0653   27.1896 S   0  0  0  0  0  0  0  0  0  0  0  0
    8.8849  -13.6184   28.1651 C   0  0  0  0  0  0  0  0  0  0  0  0
    8.8778  -14.7469   27.1878 C   0  0  0  0  0  0  0  0  0  0  0  0
   10.0949  -15.6078   27.2393 C   0  0  2  0  0  0  0  0  0  0  0  0
    9.8809  -16.7693   26.3843 N   0  0  0  0  0  0  0  0  0  0  0  0
   10.3473  -16.0162   28.6449 C   0  0  0  0  0  0  0  0  0  0  0  0
   11.1711  -15.2825   29.4662 O   0  0  0  0  0  0  0  0  0  0  0  0
    9.8037  -17.0453   29.0966 O   0  0  0  0  0  0  0  0  0  0  0  0
  2  1  1  6
  2  8  1  0
  3  2  1  0
  4  5  1  0
  4  3  1  0
  5  6  1  0
  7  6  1  0
  8  9  2  0
  8 13  1  0
 10 11  1  0
 12 11  1  6
 13 12  1  0
 14 12  1  0
 14 15  2  0
 16 17  1  0
 17 18  1  0
 18 19  1  0
 20 19  1  1
 20 21  1  0
 21 14  1  0
 22 20  1  0
 23 22  1  0
 24 22  2  0
M  END
$$$$
