ASG.pdb
     RDKit          3D

 16 15  0  0  1  0  0  0  0  0999 V2000
   18.1913  -12.6116  -16.3171 C   0  0  0  0  0  0  0  0  0  0  0  0
   18.6087  -11.3137  -16.9724 C   0  0  2  0  0  0  0  0  0  0  0  0
   19.5171  -11.5070  -18.0569 N   0  0  0  0  0  0  0  0  0  0  0  0
   19.1868  -10.4448  -15.9047 C   0  0  0  0  0  0  0  0  0  0  0  0
   18.5750  -10.2631  -14.8204 O   0  0  0  0  0  0  0  0  0  0  0  0
   22.8678  -10.3643  -14.2655 O   0  0  0  0  0  0  0  0  0  0  0  0
   22.5201   -9.2377  -14.9978 C   0  0  0  0  0  0  0  0  0  0  0  0
   21.0208   -9.0096  -14.9738 C   0  0  2  0  0  0  0  0  0  0  0  0
   20.4430   -9.7845  -16.0534 N   0  0  0  0  0  0  0  0  0  0  0  0
   20.7982   -7.5481  -15.1863 C   0  0  0  0  0  0  0  0  0  0  0  0
   20.7521   -7.0578  -16.3420 O   0  0  0  0  0  0  0  0  0  0  0  0
   20.6384   -6.7169  -14.0482 N   0  0  0  0  0  0  0  0  0  0  0  0
   20.3585   -5.3050  -14.2402 C   0  0  0  0  0  0  0  0  0  0  0  0
   21.6324   -4.5404  -14.1512 C   0  0  0  0  0  0  0  0  0  0  0  0
   21.6700   -3.3001  -14.2723 O   0  0  0  0  0  0  0  0  0  0  0  0
   22.8404   -5.1943  -13.9267 O   0  0  0  0  0  0  0  0  0  0  0  0
  2  1  1  1
  2  3  1  0
  4  2  1  0
  4  5  2  0
  6  7  1  0
  8  7  1  6
  8  9  1  0
  9  4  1  0
 10  8  1  0
 11 10  2  0
 12 10  1  0
 13 12  1  0
 14 13  1  0
 14 16  1  0
 15 14  2  0
M  END
$$$$
