ASG.pdb
     RDKit          3D

 16 15  0  0  1  0  0  0  0  0999 V2000
   21.7778  -11.4297  -19.1637 C   0  0  0  0  0  0  0  0  0  0  0  0
   21.4351  -11.3043  -17.6957 C   0  0  2  0  0  0  0  0  0  0  0  0
   20.4599  -12.2566  -17.2705 N   0  0  0  0  0  0  0  0  0  0  0  0
   20.9853   -9.8995  -17.4646 C   0  0  0  0  0  0  0  0  0  0  0  0
   20.2978   -9.2931  -18.3265 O   0  0  0  0  0  0  0  0  0  0  0  0
   19.3922   -8.8347  -14.1925 O   0  0  0  0  0  0  0  0  0  0  0  0
   19.3124   -8.1747  -15.4109 C   0  0  0  0  0  0  0  0  0  0  0  0
   20.6924   -7.9013  -15.9776 C   0  0  2  0  0  0  0  0  0  0  0  0
   21.3050   -9.1806  -16.2743 N   0  0  0  0  0  0  0  0  0  0  0  0
   21.4604   -7.1725  -14.9241 C   0  0  0  0  0  0  0  0  0  0  0  0
   22.2862   -7.7698  -14.1898 O   0  0  0  0  0  0  0  0  0  0  0  0
   21.2375   -5.7806  -14.7673 N   0  0  0  0  0  0  0  0  0  0  0  0
   22.0033   -5.0518  -13.7718 C   0  0  0  0  0  0  0  0  0  0  0  0
   21.6335   -3.6113  -13.8327 C   0  0  0  0  0  0  0  0  0  0  0  0
   20.8568   -3.1632  -14.6990 O   0  0  0  0  0  0  0  0  0  0  0  0
   22.1499   -2.7047  -12.9116 O   0  0  0  0  0  0  0  0  0  0  0  0
  2  1  1  6
  2  3  1  0
  4  2  1  0
  4  5  2  0
  6  7  1  0
  8  7  1  1
  8  9  1  0
  9  4  1  0
 10  8  1  0
 11 10  2  0
 12 10  1  0
 13 12  1  0
 14 13  1  0
 14 16  1  0
 15 14  2  0
M  END
$$$$
