ASG.pdb
     RDKit          3D

 16 15  0  0  1  0  0  0  0  0999 V2000
   19.1277  -10.2413  -18.0257 C   0  0  0  0  0  0  0  0  0  0  0  0
   20.2037   -9.1791  -17.9782 C   0  0  2  0  0  0  0  0  0  0  0  0
   21.5205   -9.7264  -17.9060 N   0  0  0  0  0  0  0  0  0  0  0  0
   19.9000   -8.2932  -16.8153 C   0  0  0  0  0  0  0  0  0  0  0  0
   18.8109   -7.6666  -16.7498 O   0  0  0  0  0  0  0  0  0  0  0  0
   21.8619   -8.6414  -13.2490 O   0  0  0  0  0  0  0  0  0  0  0  0
   20.6205   -8.0289  -13.3495 C   0  0  0  0  0  0  0  0  0  0  0  0
   20.5086   -7.2237  -14.6300 C   0  0  2  0  0  0  0  0  0  0  0  0
   20.8128   -8.1122  -15.7336 N   0  0  0  0  0  0  0  0  0  0  0  0
   21.5108   -6.1200  -14.5406 C   0  0  0  0  0  0  0  0  0  0  0  0
   22.5848   -6.1615  -15.1907 O   0  0  0  0  0  0  0  0  0  0  0  0
   21.2241   -5.0141  -13.7000 N   0  0  0  0  0  0  0  0  0  0  0  0
   22.1454   -3.8920  -13.6726 C   0  0  0  0  0  0  0  0  0  0  0  0
   21.5174   -2.7305  -14.3596 C   0  0  0  0  0  0  0  0  0  0  0  0
   20.5191   -2.8572  -15.0958 O   0  0  0  0  0  0  0  0  0  0  0  0
   22.0312   -1.4468  -14.2004 O   0  0  0  0  0  0  0  0  0  0  0  0
  2  1  1  1
  2  3  1  0
  4  2  1  0
  4  5  2  0
  6  7  1  0
  8  7  1  1
  8  9  1  0
  9  4  1  0
 10  8  1  0
 11 10  2  0
 12 10  1  0
 13 12  1  0
 14 13  1  0
 14 16  1  0
 15 14  2  0
M  END
$$$$
