ASG.pdb
     RDKit          3D

 16 15  0  0  1  0  0  0  0  0999 V2000
   17.8233  -11.4833  -18.0514 C   0  0  0  0  0  0  0  0  0  0  0  0
   18.6245  -11.5430  -16.7697 C   0  0  2  0  0  0  0  0  0  0  0  0
   17.8503  -11.2141  -15.6159 N   0  0  0  0  0  0  0  0  0  0  0  0
   19.7960  -10.6326  -16.9373 C   0  0  0  0  0  0  0  0  0  0  0  0
   20.6578  -10.8489  -17.8281 O   0  0  0  0  0  0  0  0  0  0  0  0
   21.7958   -6.9201  -17.9448 O   0  0  0  0  0  0  0  0  0  0  0  0
   20.8163   -7.8631  -17.6662 C   0  0  0  0  0  0  0  0  0  0  0  0
   21.0910   -8.5665  -16.3509 C   0  0  2  0  0  0  0  0  0  0  0  0
   19.9983   -9.4874  -16.1105 N   0  0  0  0  0  0  0  0  0  0  0  0
   21.1434   -7.5119  -15.2945 C   0  0  0  0  0  0  0  0  0  0  0  0
   20.0985   -6.9460  -14.8872 O   0  0  0  0  0  0  0  0  0  0  0  0
   22.4067   -7.1585  -14.7553 N   0  0  0  0  0  0  0  0  0  0  0  0
   22.4697   -6.1584  -13.7043 C   0  0  0  0  0  0  0  0  0  0  0  0
   22.3027   -4.8081  -14.3077 C   0  0  0  0  0  0  0  0  0  0  0  0
   22.1311   -4.6465  -15.5320 O   0  0  0  0  0  0  0  0  0  0  0  0
   22.3330   -3.6653  -13.5136 O   0  0  0  0  0  0  0  0  0  0  0  0
  2  1  1  6
  2  3  1  0
  4  2  1  0
  4  5  2  0
  6  7  1  0
  8  7  1  6
  8  9  1  0
  9  4  1  0
 10  8  1  0
 11 10  2  0
 12 10  1  0
 13 12  1  0
 14 13  1  0
 14 16  1  0
 15 14  2  0
M  END
$$$$
