ASG.pdb
     RDKit          3D

 16 15  0  0  1  0  0  0  0  0999 V2000
   18.4156  -12.9900  -16.3154 C   0  0  0  0  0  0  0  0  0  0  0  0
   18.7649  -11.6211  -16.8561 C   0  0  2  0  0  0  0  0  0  0  0  0
   19.2399  -11.6612  -18.2020 N   0  0  0  0  0  0  0  0  0  0  0  0
   19.7660  -11.0199  -15.9257 C   0  0  0  0  0  0  0  0  0  0  0  0
   19.5393  -10.9551  -14.6898 O   0  0  0  0  0  0  0  0  0  0  0  0
   23.6083  -11.4797  -15.2150 O   0  0  0  0  0  0  0  0  0  0  0  0
   23.3241  -10.2567  -15.8064 C   0  0  0  0  0  0  0  0  0  0  0  0
   21.9138   -9.8044  -15.4793 C   0  0  2  0  0  0  0  0  0  0  0  0
   21.0128  -10.4952  -16.3797 N   0  0  0  0  0  0  0  0  0  0  0  0
   21.8657   -8.3285  -15.7033 C   0  0  0  0  0  0  0  0  0  0  0  0
   21.7347   -7.8491  -16.8570 O   0  0  0  0  0  0  0  0  0  0  0  0
   21.9716   -7.4711  -14.5785 N   0  0  0  0  0  0  0  0  0  0  0  0
   21.8854   -6.0350  -14.7762 C   0  0  0  0  0  0  0  0  0  0  0  0
   22.1500   -5.3493  -13.4820 C   0  0  0  0  0  0  0  0  0  0  0  0
   22.3359   -5.9817  -12.4236 O   0  0  0  0  0  0  0  0  0  0  0  0
   22.1991   -3.9602  -13.4097 O   0  0  0  0  0  0  0  0  0  0  0  0
  2  1  1  1
  2  3  1  0
  4  2  1  0
  4  5  2  0
  6  7  1  0
  8  7  1  6
  8  9  1  0
  9  4  1  0
 10  8  1  0
 11 10  2  0
 12 10  1  0
 13 12  1  0
 14 13  1  0
 14 16  1  0
 15 14  2  0
M  END
$$$$
