ASG.pdb
     RDKit          3D

 16 15  0  0  1  0  0  0  0  0999 V2000
   21.7239  -11.4745  -18.9214 C   0  0  0  0  0  0  0  0  0  0  0  0
   22.3166  -11.1289  -17.5732 C   0  0  2  0  0  0  0  0  0  0  0  0
   21.9554  -12.0605  -16.5533 N   0  0  0  0  0  0  0  0  0  0  0  0
   21.8830   -9.7390  -17.2424 C   0  0  0  0  0  0  0  0  0  0  0  0
   22.2346   -8.7666  -17.9593 O   0  0  0  0  0  0  0  0  0  0  0  0
   19.1703   -9.0797  -14.1842 O   0  0  0  0  0  0  0  0  0  0  0  0
   19.1719   -8.2313  -15.2825 C   0  0  0  0  0  0  0  0  0  0  0  0
   20.5625   -8.1035  -15.8744 C   0  0  2  0  0  0  0  0  0  0  0  0
   21.0606   -9.4430  -16.1147 N   0  0  0  0  0  0  0  0  0  0  0  0
   21.4033   -7.3937  -14.8645 C   0  0  0  0  0  0  0  0  0  0  0  0
   22.2665   -8.0074  -14.1890 O   0  0  0  0  0  0  0  0  0  0  0  0
   21.2067   -6.0011  -14.6811 N   0  0  0  0  0  0  0  0  0  0  0  0
   22.0807   -5.2794  -13.7734 C   0  0  0  0  0  0  0  0  0  0  0  0
   21.6429   -3.8586  -13.7038 C   0  0  0  0  0  0  0  0  0  0  0  0
   20.7536   -3.4025  -14.4494 O   0  0  0  0  0  0  0  0  0  0  0  0
   22.2199   -2.9801  -12.7914 O   0  0  0  0  0  0  0  0  0  0  0  0
  2  1  1  6
  2  3  1  0
  4  2  1  0
  4  5  2  0
  6  7  1  0
  8  7  1  1
  8  9  1  0
  9  4  1  0
 10  8  1  0
 11 10  2  0
 12 10  1  0
 13 12  1  0
 14 13  1  0
 14 16  1  0
 15 14  2  0
M  END
$$$$
