ASG.pdb
     RDKit          3D

 16 15  0  0  1  0  0  0  0  0999 V2000
   19.1380  -13.2036  -16.9356 C   0  0  0  0  0  0  0  0  0  0  0  0
   19.5098  -11.9264  -17.6558 C   0  0  2  0  0  0  0  0  0  0  0  0
   20.6759  -12.0669  -18.4678 N   0  0  0  0  0  0  0  0  0  0  0  0
   19.6732  -10.8648  -16.6187 C   0  0  0  0  0  0  0  0  0  0  0  0
   18.7270  -10.5707  -15.8433 O   0  0  0  0  0  0  0  0  0  0  0  0
   22.5624   -8.6165  -13.6114 O   0  0  0  0  0  0  0  0  0  0  0  0
   22.3442   -9.4928  -14.6654 C   0  0  0  0  0  0  0  0  0  0  0  0
   21.0516   -9.1682  -15.3894 C   0  0  2  0  0  0  0  0  0  0  0  0
   20.8902  -10.1388  -16.4533 N   0  0  0  0  0  0  0  0  0  0  0  0
   21.1955   -7.7882  -15.9422 C   0  0  0  0  0  0  0  0  0  0  0  0
   21.8116   -7.5782  -17.0166 O   0  0  0  0  0  0  0  0  0  0  0  0
   20.6182   -6.7097  -15.2244 N   0  0  0  0  0  0  0  0  0  0  0  0
   20.7642   -5.3605  -15.7413 C   0  0  0  0  0  0  0  0  0  0  0  0
   20.1527   -4.4028  -14.7800 C   0  0  0  0  0  0  0  0  0  0  0  0
   19.5200   -4.7855  -13.7761 O   0  0  0  0  0  0  0  0  0  0  0  0
   20.2688   -3.0293  -14.9729 O   0  0  0  0  0  0  0  0  0  0  0  0
  2  1  1  1
  2  3  1  0
  4  2  1  0
  4  5  2  0
  6  7  1  0
  8  7  1  6
  8  9  1  0
  9  4  1  0
 10  8  1  0
 11 10  2  0
 12 10  1  0
 13 12  1  0
 14 13  1  0
 14 16  1  0
 15 14  2  0
M  END
$$$$
