ASG.pdb
     RDKit          3D

 16 15  0  0  1  0  0  0  0  0999 V2000
   19.4744  -13.2180  -16.9192 C   0  0  0  0  0  0  0  0  0  0  0  0
   19.7395  -11.8019  -17.3801 C   0  0  2  0  0  0  0  0  0  0  0  0
   20.5717  -11.7424  -18.5388 N   0  0  0  0  0  0  0  0  0  0  0  0
   20.3324  -11.0643  -16.2252 C   0  0  0  0  0  0  0  0  0  0  0  0
   19.7173  -10.9791  -15.1309 O   0  0  0  0  0  0  0  0  0  0  0  0
   24.2908   -9.8641  -16.2164 O   0  0  0  0  0  0  0  0  0  0  0  0
   23.5974  -10.0410  -15.0271 C   0  0  0  0  0  0  0  0  0  0  0  0
   22.1360   -9.6669  -15.1839 C   0  0  2  0  0  0  0  0  0  0  0  0
   21.6068  -10.4268  -16.2985 N   0  0  0  0  0  0  0  0  0  0  0  0
   22.0884   -8.2010  -15.4659 C   0  0  0  0  0  0  0  0  0  0  0  0
   21.9857   -7.7669  -16.6402 O   0  0  0  0  0  0  0  0  0  0  0  0
   22.1621   -7.3004  -14.3727 N   0  0  0  0  0  0  0  0  0  0  0  0
   22.0392   -5.8754  -14.6238 C   0  0  0  0  0  0  0  0  0  0  0  0
   22.1790   -5.1411  -13.3367 C   0  0  0  0  0  0  0  0  0  0  0  0
   22.2203   -3.8960  -13.2858 O   0  0  0  0  0  0  0  0  0  0  0  0
   22.2696   -5.8301  -12.1307 O   0  0  0  0  0  0  0  0  0  0  0  0
  2  1  1  1
  2  3  1  0
  4  2  1  0
  4  5  2  0
  6  7  1  0
  8  7  1  6
  8  9  1  0
  9  4  1  0
 10  8  1  0
 11 10  2  0
 12 10  1  0
 13 12  1  0
 14 13  1  0
 14 16  1  0
 15 14  2  0
M  END
$$$$
