ASG.pdb
     RDKit          3D

 16 15  0  0  1  0  0  0  0  0999 V2000
   18.0687   -9.1822  -18.5047 C   0  0  0  0  0  0  0  0  0  0  0  0
   19.0259  -10.0026  -17.6687 C   0  0  2  0  0  0  0  0  0  0  0  0
   18.4831  -11.2657  -17.2833 N   0  0  0  0  0  0  0  0  0  0  0  0
   19.4062   -9.1717  -16.4879 C   0  0  0  0  0  0  0  0  0  0  0  0
   18.5345   -8.7739  -15.6725 O   0  0  0  0  0  0  0  0  0  0  0  0
   22.5716   -8.3495  -13.1115 O   0  0  0  0  0  0  0  0  0  0  0  0
   22.2154   -8.9067  -14.3317 C   0  0  0  0  0  0  0  0  0  0  0  0
   21.1205   -8.1003  -15.0036 C   0  0  2  0  0  0  0  0  0  0  0  0
   20.7556   -8.7901  -16.2247 N   0  0  0  0  0  0  0  0  0  0  0  0
   21.6910   -6.7525  -15.3012 C   0  0  0  0  0  0  0  0  0  0  0  0
   22.4306   -6.5644  -16.2991 O   0  0  0  0  0  0  0  0  0  0  0  0
   21.3790   -5.6794  -14.4278 N   0  0  0  0  0  0  0  0  0  0  0  0
   21.9221   -4.3620  -14.7077 C   0  0  0  0  0  0  0  0  0  0  0  0
   21.3418   -3.3832  -13.7483 C   0  0  0  0  0  0  0  0  0  0  0  0
   20.5176   -3.7203  -12.8756 O   0  0  0  0  0  0  0  0  0  0  0  0
   21.7054   -2.0405  -13.7945 O   0  0  0  0  0  0  0  0  0  0  0  0
  2  1  1  1
  2  3  1  0
  4  2  1  0
  4  5  2  0
  6  7  1  0
  8  7  1  6
  8  9  1  0
  9  4  1  0
 10  8  1  0
 11 10  2  0
 12 10  1  0
 13 12  1  0
 14 13  1  0
 14 16  1  0
 15 14  2  0
M  END
$$$$
