ASG.pdb
     RDKit          3D

 16 15  0  0  1  0  0  0  0  0999 V2000
   24.3171  -34.4711   -8.4291 C   0  0  0  0  0  0  0  0  0  0  0  0
   25.0764  -33.1628   -8.4228 C   0  0  2  0  0  0  0  0  0  0  0  0
   25.7405  -32.9010   -9.6594 N   0  0  0  0  0  0  0  0  0  0  0  0
   26.0286  -33.2094   -7.2737 C   0  0  0  0  0  0  0  0  0  0  0  0
   27.2059  -33.6253   -7.4290 O   0  0  0  0  0  0  0  0  0  0  0  0
   24.6942  -32.3236   -3.5101 O   0  0  0  0  0  0  0  0  0  0  0  0
   26.0292  -32.0122   -3.7269 C   0  0  0  0  0  0  0  0  0  0  0  0
   26.6067  -32.8359   -4.8620 C   0  0  2  0  0  0  0  0  0  0  0  0
   25.6616  -32.7920   -5.9596 N   0  0  0  0  0  0  0  0  0  0  0  0
   26.7683  -34.2301   -4.3514 C   0  0  0  0  0  0  0  0  0  0  0  0
   25.9127  -35.1166   -4.5965 O   0  0  0  0  0  0  0  0  0  0  0  0
   27.9166  -34.5368   -3.5774 N   0  0  0  0  0  0  0  0  0  0  0  0
   28.0393  -35.8600   -2.9919 C   0  0  0  0  0  0  0  0  0  0  0  0
   29.3553  -35.9676   -2.3050 C   0  0  0  0  0  0  0  0  0  0  0  0
   30.1792  -35.0318   -2.3022 O   0  0  0  0  0  0  0  0  0  0  0  0
   29.7144  -37.1329   -1.6339 O   0  0  0  0  0  0  0  0  0  0  0  0
  2  1  1  6
  2  3  1  0
  4  2  1  0
  4  5  2  0
  6  7  1  0
  8  7  1  1
  8  9  1  0
  9  4  1  0
 10  8  1  0
 11 10  2  0
 12 10  1  0
 13 12  1  0
 14 13  1  0
 14 16  1  0
 15 14  2  0
M  END
$$$$
