ASG.pdb
     RDKit          3D

 16 15  0  0  1  0  0  0  0  0999 V2000
   17.0731  -10.2375  -17.0091 C   0  0  0  0  0  0  0  0  0  0  0  0
   18.0766   -9.2130  -17.4903 C   0  0  2  0  0  0  0  0  0  0  0  0
   18.8513   -9.6732  -18.5979 N   0  0  0  0  0  0  0  0  0  0  0  0
   18.9309   -8.8473  -16.3217 C   0  0  0  0  0  0  0  0  0  0  0  0
   18.4155   -8.4296  -15.2526 O   0  0  0  0  0  0  0  0  0  0  0  0
   22.1977  -10.7458  -14.6779 O   0  0  0  0  0  0  0  0  0  0  0  0
   22.4083   -9.5023  -15.2573 C   0  0  0  0  0  0  0  0  0  0  0  0
   21.1583   -8.6461  -15.1869 C   0  0  2  0  0  0  0  0  0  0  0  0
   20.3536   -8.9498  -16.3532 N   0  0  0  0  0  0  0  0  0  0  0  0
   21.6042   -7.2207  -15.2016 C   0  0  0  0  0  0  0  0  0  0  0  0
   21.7897   -6.6077  -16.2823 O   0  0  0  0  0  0  0  0  0  0  0  0
   21.8159   -6.5667  -13.9610 N   0  0  0  0  0  0  0  0  0  0  0  0
   22.2394   -5.1776  -13.9597 C   0  0  0  0  0  0  0  0  0  0  0  0
   21.0384   -4.3035  -13.8653 C   0  0  0  0  0  0  0  0  0  0  0  0
   21.1283   -3.0653  -13.7492 O   0  0  0  0  0  0  0  0  0  0  0  0
   19.7578   -4.8472  -13.9040 O   0  0  0  0  0  0  0  0  0  0  0  0
  2  1  1  1
  2  3  1  0
  4  2  1  0
  4  5  2  0
  6  7  1  0
  8  7  1  6
  8  9  1  0
  9  4  1  0
 10  8  1  0
 11 10  2  0
 12 10  1  0
 13 12  1  0
 14 13  1  0
 14 16  1  0
 15 14  2  0
M  END
$$$$
