ASG.pdb
     RDKit          3D

 16 15  0  0  1  0  0  0  0  0999 V2000
   20.1088  -11.8781  -19.4079 C   0  0  0  0  0  0  0  0  0  0  0  0
   21.0805  -11.5535  -18.2950 C   0  0  2  0  0  0  0  0  0  0  0  0
   21.1161  -12.5567  -17.2797 N   0  0  0  0  0  0  0  0  0  0  0  0
   20.6986  -10.2170  -17.7498 C   0  0  0  0  0  0  0  0  0  0  0  0
   20.6885   -9.1987  -18.4888 O   0  0  0  0  0  0  0  0  0  0  0  0
   18.8184   -9.8594  -14.0745 O   0  0  0  0  0  0  0  0  0  0  0  0
   18.6236   -8.9456  -15.1008 C   0  0  0  0  0  0  0  0  0  0  0  0
   19.8987   -8.7320  -15.8938 C   0  0  2  0  0  0  0  0  0  0  0  0
   20.3306  -10.0252  -16.3847 N   0  0  0  0  0  0  0  0  0  0  0  0
   20.9054   -8.1535  -14.9543 C   0  0  0  0  0  0  0  0  0  0  0  0
   21.9390   -8.7915  -14.6339 O   0  0  0  0  0  0  0  0  0  0  0  0
   20.6698   -6.8585  -14.4260 N   0  0  0  0  0  0  0  0  0  0  0  0
   21.6993   -6.2287  -13.6183 C   0  0  0  0  0  0  0  0  0  0  0  0
   22.0622   -4.9200  -14.2273 C   0  0  0  0  0  0  0  0  0  0  0  0
   21.6277   -4.5646  -15.3405 O   0  0  0  0  0  0  0  0  0  0  0  0
   22.9104   -4.0377  -13.5645 O   0  0  0  0  0  0  0  0  0  0  0  0
  2  1  1  6
  2  3  1  0
  4  2  1  0
  4  5  2  0
  6  7  1  0
  8  7  1  1
  8  9  1  0
  9  4  1  0
 10  8  1  0
 11 10  2  0
 12 10  1  0
 13 12  1  0
 14 13  1  0
 14 16  1  0
 15 14  2  0
M  END
$$$$
