ASG.pdb
     RDKit          3D

 16 15  0  0  1  0  0  0  0  0999 V2000
   16.4555   -8.4224  -17.4167 C   0  0  0  0  0  0  0  0  0  0  0  0
   17.3430   -9.3549  -16.6224 C   0  0  2  0  0  0  0  0  0  0  0  0
   16.6094  -10.3748  -15.9439 N   0  0  0  0  0  0  0  0  0  0  0  0
   18.1372   -8.5133  -15.6789 C   0  0  0  0  0  0  0  0  0  0  0  0
   17.5689   -7.8458  -14.7764 O   0  0  0  0  0  0  0  0  0  0  0  0
   22.3816   -7.4052  -13.7016 O   0  0  0  0  0  0  0  0  0  0  0  0
   21.6282   -8.1842  -14.5687 C   0  0  0  0  0  0  0  0  0  0  0  0
   20.3009   -7.5229  -14.8869 C   0  0  2  0  0  0  0  0  0  0  0  0
   19.5594   -8.4218  -15.7483 N   0  0  0  0  0  0  0  0  0  0  0  0
   20.6091   -6.2417  -15.5901 C   0  0  0  0  0  0  0  0  0  0  0  0
   20.8487   -6.2170  -16.8229 O   0  0  0  0  0  0  0  0  0  0  0  0
   20.6261   -5.0428  -14.8324 N   0  0  0  0  0  0  0  0  0  0  0  0
   20.9797   -3.7978  -15.4908 C   0  0  0  0  0  0  0  0  0  0  0  0
   20.8271   -2.6763  -14.5242 C   0  0  0  0  0  0  0  0  0  0  0  0
   20.3712   -2.8487  -13.3766 O   0  0  0  0  0  0  0  0  0  0  0  0
   21.1937   -1.3801  -14.8746 O   0  0  0  0  0  0  0  0  0  0  0  0
  2  1  1  1
  2  3  1  0
  4  2  1  0
  4  5  2  0
  6  7  1  0
  8  7  1  6
  8  9  1  0
  9  4  1  0
 10  8  1  0
 11 10  2  0
 12 10  1  0
 13 12  1  0
 14 13  1  0
 14 16  1  0
 15 14  2  0
M  END
$$$$
