CPT.pdb
     RDKit          3D

 21 21  0  0  1  0  0  0  0  0999 V2000
    5.5343  -18.8696   24.8615 N   0  0  0  0  0  0  0  0  0  0  0  0
    6.3903  -17.7197   24.9569 C   0  0  1  0  0  0  0  0  0  0  0  0
    7.3385  -17.8239   26.1463 C   0  0  0  0  0  0  0  0  0  0  0  0
    8.2880  -16.2654   26.2434 S   0  0  0  0  0  0  0  0  0  0  0  0
    7.1788  -17.5982   23.7105 C   0  0  0  0  0  0  0  0  0  0  0  0
    7.5332  -18.6512   23.0972 O   0  0  0  0  0  0  0  0  0  0  0  0
    7.5681  -16.3471   23.1520 N   0  0  0  0  0  0  0  0  0  0  0  0
    7.3712  -15.0328   23.6989 C   0  0  0  0  0  0  0  0  0  0  0  0
    7.9763  -14.0728   22.7405 C   0  0  0  0  0  0  0  0  0  0  0  0
    8.0126  -14.8120   21.4293 C   0  0  0  0  0  0  0  0  0  0  0  0
    8.2412  -16.2318   21.8854 C   0  0  1  0  0  0  0  0  0  0  0  0
    9.6585  -16.6260   21.9463 C   0  0  0  0  0  0  0  0  0  0  0  0
   10.3506  -16.5742   20.8934 O   0  0  0  0  0  0  0  0  0  0  0  0
   11.8602  -15.3555   21.5241 C   0  0  0  0  0  0  0  0  0  0  0  0
   12.4685  -16.0031   22.7403 C   0  0  1  0  0  0  0  0  0  0  0  0
   12.4954  -15.0935   23.7898 O   0  0  0  0  0  0  0  0  0  0  0  0
   11.7322  -17.2672   23.1344 C   0  0  2  0  0  0  0  0  0  0  0  0
   10.3048  -17.0659   23.1262 N   0  0  0  0  0  0  0  0  0  0  0  0
   12.2128  -17.7960   24.4392 C   0  0  0  0  0  0  0  0  0  0  0  0
   11.4532  -17.7622   25.4387 O   0  0  0  0  0  0  0  0  0  0  0  0
   13.4715  -18.3248   24.5877 O   0  0  0  0  0  0  0  0  0  0  0  0
  2  1  1  6
  3  2  1  0
  4  3  1  0
  5  7  1  0
  5  2  1  0
  6  5  2  0
  7  8  1  0
  9  8  1  0
 10  9  1  0
 11 10  1  0
 11 12  1  1
 11  7  1  0
 12 18  1  0
 13 12  2  0
 15 14  1  6
 15 16  1  0
 17 15  1  0
 17 18  1  1
 19 17  1  0
 19 21  1  0
 20 19  2  0
M  END
$$$$
