CPT.pdb
     RDKit          3D

 21 21  0  0  1  0  0  0  0  0999 V2000
    9.3351  -15.4914   15.2296 N   0  0  0  0  0  0  0  0  0  0  0  0
    8.5253  -15.6732   16.4023 C   0  0  1  0  0  0  0  0  0  0  0  0
    8.1334  -17.1344   16.5919 C   0  0  0  0  0  0  0  0  0  0  0  0
    7.3717  -17.2997   18.2449 S   0  0  0  0  0  0  0  0  0  0  0  0
    9.2796  -15.2102   17.5884 C   0  0  0  0  0  0  0  0  0  0  0  0
   10.4904  -15.5635   17.7285 O   0  0  0  0  0  0  0  0  0  0  0  0
    8.7147  -14.3776   18.5965 N   0  0  0  0  0  0  0  0  0  0  0  0
    7.4059  -13.7848   18.6256 C   0  0  0  0  0  0  0  0  0  0  0  0
    7.3046  -13.0277   19.8995 C   0  0  0  0  0  0  0  0  0  0  0  0
    8.7309  -12.7587   20.2996 C   0  0  0  0  0  0  0  0  0  0  0  0
    9.4306  -13.9917   19.7836 C   0  0  1  0  0  0  0  0  0  0  0  0
    9.5436  -15.0794   20.7695 C   0  0  0  0  0  0  0  0  0  0  0  0
    8.5226  -15.7712   21.0325 O   0  0  0  0  0  0  0  0  0  0  0  0
   12.1280  -17.8438   20.7032 C   0  0  0  0  0  0  0  0  0  0  0  0
   12.0160  -17.3725   22.1293 C   0  0  1  0  0  0  0  0  0  0  0  0
   13.1628  -16.6723   22.4815 O   0  0  0  0  0  0  0  0  0  0  0  0
   10.7754  -16.5313   22.3499 C   0  0  2  0  0  0  0  0  0  0  0  0
   10.7404  -15.4043   21.4516 N   0  0  0  0  0  0  0  0  0  0  0  0
   10.6426  -16.1147   23.7719 C   0  0  0  0  0  0  0  0  0  0  0  0
   10.4657  -16.9863   24.6586 O   0  0  0  0  0  0  0  0  0  0  0  0
   10.7078  -14.7960   24.1499 O   0  0  0  0  0  0  0  0  0  0  0  0
  2  1  1  6
  3  2  1  0
  4  3  1  0
  5  7  1  0
  5  2  1  0
  6  5  2  0
  7  8  1  0
  9  8  1  0
 10  9  1  0
 11 10  1  0
 11 12  1  1
 11  7  1  0
 12 18  1  0
 13 12  2  0
 15 14  1  6
 15 16  1  0
 17 15  1  0
 17 18  1  6
 19 17  1  0
 19 21  1  0
 20 19  2  0
M  END
$$$$
