CPT.pdb
     RDKit          3D

 21 21  0  0  1  0  0  0  0  0999 V2000
    4.9987  -13.5959   26.1942 N   0  0  0  0  0  0  0  0  0  0  0  0
    5.9619  -13.2733   25.1783 C   0  0  1  0  0  0  0  0  0  0  0  0
    6.7774  -12.0399   25.5503 C   0  0  0  0  0  0  0  0  0  0  0  0
    6.0715  -11.3445   27.0859 S   0  0  0  0  0  0  0  0  0  0  0  0
    6.8726  -14.4248   24.9912 C   0  0  0  0  0  0  0  0  0  0  0  0
    6.8815  -15.3537   25.8558 O   0  0  0  0  0  0  0  0  0  0  0  0
    7.7527  -14.5512   23.8785 N   0  0  0  0  0  0  0  0  0  0  0  0
    7.9073  -13.6562   22.7648 C   0  0  0  0  0  0  0  0  0  0  0  0
    8.9640  -14.2315   21.8938 C   0  0  0  0  0  0  0  0  0  0  0  0
    8.9940  -15.6955   22.2441 C   0  0  0  0  0  0  0  0  0  0  0  0
    8.6479  -15.6653   23.7122 C   0  0  1  0  0  0  0  0  0  0  0  0
    9.8157  -15.6070   24.6072 C   0  0  0  0  0  0  0  0  0  0  0  0
   10.7410  -14.7905   24.3481 O   0  0  0  0  0  0  0  0  0  0  0  0
    9.1464  -14.5188   27.8060 C   0  0  0  0  0  0  0  0  0  0  0  0
   10.5627  -14.6279   27.3053 C   0  0  1  0  0  0  0  0  0  0  0  0
   11.4440  -14.2481   28.3096 O   0  0  0  0  0  0  0  0  0  0  0  0
   10.8779  -16.0221   26.8031 C   0  0  2  0  0  0  0  0  0  0  0  0
    9.9701  -16.4191   25.7560 N   0  0  0  0  0  0  0  0  0  0  0  0
   10.9117  -17.0096   27.9153 C   0  0  0  0  0  0  0  0  0  0  0  0
   11.8197  -16.9376   28.7799 O   0  0  0  0  0  0  0  0  0  0  0  0
    9.9737  -18.0062   28.0284 O   0  0  0  0  0  0  0  0  0  0  0  0
  2  1  1  1
  3  2  1  0
  4  3  1  0
  5  7  1  0
  5  2  1  0
  6  5  2  0
  7  8  1  0
  9  8  1  0
 10  9  1  0
 11 10  1  0
 11 12  1  1
 11  7  1  0
 12 18  1  0
 13 12  2  0
 15 14  1  1
 15 16  1  0
 17 15  1  0
 17 18  1  6
 19 17  1  0
 19 21  1  0
 20 19  2  0
M  END
$$$$
