CPT.pdb
     RDKit          3D

 21 21  0  0  1  0  0  0  0  0999 V2000
    5.6578  -18.6372   19.1492 N   0  0  0  0  0  0  0  0  0  0  0  0
    5.6523  -17.7618   20.2883 C   0  0  1  0  0  0  0  0  0  0  0  0
    5.1893  -18.4844   21.5485 C   0  0  0  0  0  0  0  0  0  0  0  0
    3.3664  -18.3745   21.6191 S   0  0  0  0  0  0  0  0  0  0  0  0
    7.0186  -17.2338   20.5000 C   0  0  0  0  0  0  0  0  0  0  0  0
    8.0154  -17.9453   20.1675 O   0  0  0  0  0  0  0  0  0  0  0  0
    7.2816  -15.9528   21.0642 N   0  0  0  0  0  0  0  0  0  0  0  0
    6.3336  -14.9569   21.4822 C   0  0  0  0  0  0  0  0  0  0  0  0
    7.1174  -13.8144   22.0176 C   0  0  0  0  0  0  0  0  0  0  0  0
    8.4796  -13.9581   21.3926 C   0  0  0  0  0  0  0  0  0  0  0  0
    8.6132  -15.4576   21.2929 C   0  0  1  0  0  0  0  0  0  0  0  0
    9.2717  -16.0839   22.4513 C   0  0  0  0  0  0  0  0  0  0  0  0
    8.5870  -16.3303   23.4811 O   0  0  0  0  0  0  0  0  0  0  0  0
   11.3329  -19.2680   22.2035 C   0  0  0  0  0  0  0  0  0  0  0  0
   12.0633  -18.3161   23.1140 C   0  0  1  0  0  0  0  0  0  0  0  0
   13.1852  -17.8167   22.4649 O   0  0  0  0  0  0  0  0  0  0  0  0
   11.1664  -17.1929   23.5928 C   0  0  2  0  0  0  0  0  0  0  0  0
   10.6431  -16.4325   22.4855 N   0  0  0  0  0  0  0  0  0  0  0  0
   11.8568  -16.3272   24.5863 C   0  0  0  0  0  0  0  0  0  0  0  0
   12.1938  -15.1613   24.2635 O   0  0  0  0  0  0  0  0  0  0  0  0
   12.1402  -16.7655   25.8566 O   0  0  0  0  0  0  0  0  0  0  0  0
  2  1  1  6
  3  2  1  0
  4  3  1  0
  5  7  1  0
  5  2  1  0
  6  5  2  0
  7  8  1  0
  9  8  1  0
 10  9  1  0
 11 10  1  0
 11 12  1  1
 11  7  1  0
 12 18  1  0
 13 12  2  0
 15 14  1  6
 15 16  1  0
 17 15  1  0
 17 18  1  6
 19 17  1  0
 19 21  1  0
 20 19  2  0
M  END
$$$$
