CPT.pdb
     RDKit          3D

 21 21  0  0  1  0  0  0  0  0999 V2000
    6.3525  -18.0866   23.2055 N   0  0  0  0  0  0  0  0  0  0  0  0
    6.4916  -17.5497   24.5308 C   0  0  1  0  0  0  0  0  0  0  0  0
    7.0414  -18.5888   25.5017 C   0  0  0  0  0  0  0  0  0  0  0  0
    6.9977  -17.8656   27.1795 S   0  0  0  0  0  0  0  0  0  0  0  0
    7.4054  -16.3864   24.4886 C   0  0  0  0  0  0  0  0  0  0  0  0
    8.4835  -16.4700   23.8245 O   0  0  0  0  0  0  0  0  0  0  0  0
    7.1388  -15.1596   25.1615 N   0  0  0  0  0  0  0  0  0  0  0  0
    6.0578  -14.8579   26.0591 C   0  0  0  0  0  0  0  0  0  0  0  0
    6.2451  -13.4523   26.5013 C   0  0  0  0  0  0  0  0  0  0  0  0
    7.1020  -12.8259   25.4335 C   0  0  0  0  0  0  0  0  0  0  0  0
    7.9636  -13.9902   25.0112 C   0  0  1  0  0  0  0  0  0  0  0  0
    9.2428  -14.0885   25.7338 C   0  0  0  0  0  0  0  0  0  0  0  0
    9.9141  -13.0390   25.9287 O   0  0  0  0  0  0  0  0  0  0  0  0
    9.6487  -13.2493   28.2003 C   0  0  0  0  0  0  0  0  0  0  0  0
   10.2670  -14.5866   28.5133 C   0  0  1  0  0  0  0  0  0  0  0  0
    9.3454  -15.3826   29.1815 O   0  0  0  0  0  0  0  0  0  0  0  0
   10.7796  -15.2771   27.2661 C   0  0  2  0  0  0  0  0  0  0  0  0
    9.7763  -15.3014   26.2312 N   0  0  0  0  0  0  0  0  0  0  0  0
   11.3007  -16.6373   27.5688 C   0  0  0  0  0  0  0  0  0  0  0  0
   12.3284  -16.7627   28.2796 O   0  0  0  0  0  0  0  0  0  0  0  0
   10.6888  -17.7706   27.0920 O   0  0  0  0  0  0  0  0  0  0  0  0
  2  1  1  6
  3  2  1  0
  4  3  1  0
  5  7  1  0
  5  2  1  0
  6  5  2  0
  7  8  1  0
  9  8  1  0
 10  9  1  0
 11 10  1  0
 11 12  1  1
 11  7  1  0
 12 18  1  0
 13 12  2  0
 15 14  1  6
 15 16  1  0
 17 15  1  0
 17 18  1  6
 19 17  1  0
 19 21  1  0
 20 19  2  0
M  END
$$$$
