CPT.pdb
     RDKit          3D

 21 21  0  0  1  0  0  0  0  0999 V2000
    8.3245  -13.9970   21.1496 N   0  0  0  0  0  0  0  0  0  0  0  0
    7.4633  -14.4050   22.2246 C   0  0  1  0  0  0  0  0  0  0  0  0
    6.9671  -15.8340   22.0339 C   0  0  0  0  0  0  0  0  0  0  0  0
    6.1724  -16.3633   23.5922 S   0  0  0  0  0  0  0  0  0  0  0  0
    8.2047  -14.3099   23.5019 C   0  0  0  0  0  0  0  0  0  0  0  0
    9.3940  -14.7486   23.5613 O   0  0  0  0  0  0  0  0  0  0  0  0
    7.6503  -13.7451   24.6861 N   0  0  0  0  0  0  0  0  0  0  0  0
    6.3479  -13.1645   24.8654 C   0  0  0  0  0  0  0  0  0  0  0  0
    6.2566  -12.7428   26.2867 C   0  0  0  0  0  0  0  0  0  0  0  0
    7.6864  -12.5948   26.7348 C   0  0  0  0  0  0  0  0  0  0  0  0
    8.3720  -13.6701   25.9287 C   0  0  1  0  0  0  0  0  0  0  0  0
    8.4747  -14.9679   26.6166 C   0  0  0  0  0  0  0  0  0  0  0  0
    7.5197  -15.7856   26.5196 O   0  0  0  0  0  0  0  0  0  0  0  0
   11.9760  -16.4802   26.2260 C   0  0  0  0  0  0  0  0  0  0  0  0
   10.7293  -17.2996   26.4332 C   0  0  1  0  0  0  0  0  0  0  0  0
   11.0737  -18.6277   26.6500 O   0  0  0  0  0  0  0  0  0  0  0  0
    9.8844  -16.7637   27.5708 C   0  0  2  0  0  0  0  0  0  0  0  0
    9.5913  -15.3637   27.3910 N   0  0  0  0  0  0  0  0  0  0  0  0
   10.5102  -17.0366   28.8927 C   0  0  0  0  0  0  0  0  0  0  0  0
   10.9129  -16.0779   29.5969 O   0  0  0  0  0  0  0  0  0  0  0  0
   10.6631  -18.3143   29.3722 O   0  0  0  0  0  0  0  0  0  0  0  0
  2  1  1  6
  3  2  1  0
  4  3  1  0
  5  7  1  0
  5  2  1  0
  6  5  2  0
  7  8  1  0
  9  8  1  0
 10  9  1  0
 11 10  1  0
 11 12  1  1
 11  7  1  0
 12 18  1  0
 13 12  2  0
 15 14  1  1
 15 16  1  0
 17 15  1  0
 17 18  1  6
 19 17  1  0
 19 21  1  0
 20 19  2  0
M  END
$$$$
