CPT.pdb
     RDKit          3D

 21 21  0  0  1  0  0  0  0  0999 V2000
    8.6253  -16.7327   15.7183 N   0  0  0  0  0  0  0  0  0  0  0  0
    7.8060  -16.4037   16.8516 C   0  0  1  0  0  0  0  0  0  0  0  0
    7.0111  -17.6105   17.3379 C   0  0  0  0  0  0  0  0  0  0  0  0
    5.6659  -17.9148   16.1388 S   0  0  0  0  0  0  0  0  0  0  0  0
    8.6703  -15.9121   17.9477 C   0  0  0  0  0  0  0  0  0  0  0  0
    9.8409  -16.3859   18.0727 O   0  0  0  0  0  0  0  0  0  0  0  0
    8.2561  -14.9220   18.8841 N   0  0  0  0  0  0  0  0  0  0  0  0
    6.9737  -14.2818   18.9879 C   0  0  0  0  0  0  0  0  0  0  0  0
    7.0519  -13.3457   20.1386 C   0  0  0  0  0  0  0  0  0  0  0  0
    8.5228  -13.0765   20.3140 C   0  0  0  0  0  0  0  0  0  0  0  0
    9.1261  -14.3968   19.9029 C   0  0  1  0  0  0  0  0  0  0  0  0
    9.3437  -15.3347   21.0169 C   0  0  0  0  0  0  0  0  0  0  0  0
    8.3773  -16.0387   21.4175 O   0  0  0  0  0  0  0  0  0  0  0  0
   11.6711  -18.8585   23.0230 C   0  0  0  0  0  0  0  0  0  0  0  0
   11.4531  -17.7558   22.0204 C   0  0  1  0  0  0  0  0  0  0  0  0
   10.7386  -18.2459   20.9347 O   0  0  0  0  0  0  0  0  0  0  0  0
   10.7542  -16.5618   22.6378 C   0  0  2  0  0  0  0  0  0  0  0  0
   10.5845  -15.5002   21.6774 N   0  0  0  0  0  0  0  0  0  0  0  0
   11.4509  -16.0953   23.8667 C   0  0  0  0  0  0  0  0  0  0  0  0
   11.0942  -16.5380   24.9866 O   0  0  0  0  0  0  0  0  0  0  0  0
   12.4807  -15.1881   23.8159 O   0  0  0  0  0  0  0  0  0  0  0  0
  2  1  1  6
  3  2  1  0
  4  3  1  0
  5  7  1  0
  5  2  1  0
  6  5  2  0
  7  8  1  0
  9  8  1  0
 10  9  1  0
 11 10  1  0
 11 12  1  1
 11  7  1  0
 12 18  1  0
 13 12  2  0
 15 14  1  1
 15 16  1  0
 17 15  1  0
 17 18  1  6
 19 17  1  0
 19 21  1  0
 20 19  2  0
M  END
$$$$
