CPT.pdb
     RDKit          3D

 21 21  0  0  1  0  0  0  0  0999 V2000
    8.8716  -17.2797   16.4508 N   0  0  0  0  0  0  0  0  0  0  0  0
    7.9731  -16.7824   17.4553 C   0  0  1  0  0  0  0  0  0  0  0  0
    7.0927  -17.8923   18.0191 C   0  0  0  0  0  0  0  0  0  0  0  0
    5.6108  -18.0248   16.9579 S   0  0  0  0  0  0  0  0  0  0  0  0
    8.7604  -16.1764   18.5522 C   0  0  0  0  0  0  0  0  0  0  0  0
    9.8724  -16.6952   18.8756 O   0  0  0  0  0  0  0  0  0  0  0  0
    8.3338  -15.0262   19.2760 N   0  0  0  0  0  0  0  0  0  0  0  0
    7.1022  -14.2987   19.1380 C   0  0  0  0  0  0  0  0  0  0  0  0
    7.1382  -13.1985   20.1353 C   0  0  0  0  0  0  0  0  0  0  0  0
    8.6008  -12.9974   20.4310 C   0  0  0  0  0  0  0  0  0  0  0  0
    9.1359  -14.4013   20.2942 C   0  0  1  0  0  0  0  0  0  0  0  0
    9.1656  -15.1621   21.5544 C   0  0  0  0  0  0  0  0  0  0  0  0
    8.1061  -15.7148   21.9570 O   0  0  0  0  0  0  0  0  0  0  0  0
   10.8614  -18.5765   24.1856 C   0  0  0  0  0  0  0  0  0  0  0  0
   10.8499  -17.5993   23.0395 C   0  0  1  0  0  0  0  0  0  0  0  0
   10.1101  -18.1226   21.9867 O   0  0  0  0  0  0  0  0  0  0  0  0
   10.3172  -16.2443   23.4584 C   0  0  2  0  0  0  0  0  0  0  0  0
   10.3222  -15.3159   22.3556 N   0  0  0  0  0  0  0  0  0  0  0  0
   11.0479  -15.7106   24.6393 C   0  0  0  0  0  0  0  0  0  0  0  0
   12.0129  -14.9254   24.4675 O   0  0  0  0  0  0  0  0  0  0  0  0
   10.6983  -16.0516   25.9229 O   0  0  0  0  0  0  0  0  0  0  0  0
  2  1  1  6
  3  2  1  0
  4  3  1  0
  5  7  1  0
  5  2  1  0
  6  5  2  0
  7  8  1  0
  9  8  1  0
 10  9  1  0
 11 10  1  0
 11 12  1  1
 11  7  1  0
 12 18  1  0
 13 12  2  0
 15 14  1  1
 15 16  1  0
 17 15  1  0
 17 18  1  6
 19 17  1  0
 19 21  1  0
 20 19  2  0
M  END
$$$$
