CPT.pdb
     RDKit          3D

 21 21  0  0  1  0  0  0  0  0999 V2000
    5.4320  -18.3168   18.9694 N   0  0  0  0  0  0  0  0  0  0  0  0
    5.4713  -17.1779   19.8443 C   0  0  1  0  0  0  0  0  0  0  0  0
    4.8675  -17.4971   21.2074 C   0  0  0  0  0  0  0  0  0  0  0  0
    3.1890  -18.1660   20.9335 S   0  0  0  0  0  0  0  0  0  0  0  0
    6.8770  -16.7496   20.0190 C   0  0  0  0  0  0  0  0  0  0  0  0
    7.8028  -17.6130   19.9292 O   0  0  0  0  0  0  0  0  0  0  0  0
    7.2552  -15.4026   20.2860 N   0  0  0  0  0  0  0  0  0  0  0  0
    6.4046  -14.2505   20.4058 C   0  0  0  0  0  0  0  0  0  0  0  0
    7.2864  -13.0940   20.7075 C   0  0  0  0  0  0  0  0  0  0  0  0
    8.6465  -13.5104   20.2138 C   0  0  0  0  0  0  0  0  0  0  0  0
    8.6231  -14.9967   20.4716 C   0  0  1  0  0  0  0  0  0  0  0  0
    9.1707  -15.3916   21.7801 C   0  0  0  0  0  0  0  0  0  0  0  0
    8.4946  -15.1579   22.8186 O   0  0  0  0  0  0  0  0  0  0  0  0
    9.3997  -18.5764   23.1478 C   0  0  0  0  0  0  0  0  0  0  0  0
   10.7946  -18.0282   23.2975 C   0  0  1  0  0  0  0  0  0  0  0  0
   11.6167  -18.5685   22.3169 O   0  0  0  0  0  0  0  0  0  0  0  0
   10.8139  -16.5141   23.2506 C   0  0  2  0  0  0  0  0  0  0  0  0
   10.4245  -16.0254   21.9515 N   0  0  0  0  0  0  0  0  0  0  0  0
   12.1309  -15.9703   23.6786 C   0  0  0  0  0  0  0  0  0  0  0  0
   12.8814  -15.4267   22.8310 O   0  0  0  0  0  0  0  0  0  0  0  0
   12.5564  -16.0440   24.9823 O   0  0  0  0  0  0  0  0  0  0  0  0
  2  1  1  6
  3  2  1  0
  4  3  1  0
  5  7  1  0
  5  2  1  0
  6  5  2  0
  7  8  1  0
  9  8  1  0
 10  9  1  0
 11 10  1  0
 11 12  1  1
 11  7  1  0
 12 18  1  0
 13 12  2  0
 15 14  1  6
 15 16  1  0
 17 15  1  0
 17 18  1  6
 19 17  1  0
 19 21  1  0
 20 19  2  0
M  END
$$$$
