CPT.pdb
     RDKit          3D

 21 21  0  0  1  0  0  0  0  0999 V2000
    8.4388  -14.4552   21.3456 N   0  0  0  0  0  0  0  0  0  0  0  0
    7.5716  -14.4955   22.4903 C   0  0  1  0  0  0  0  0  0  0  0  0
    6.8712  -15.8439   22.6158 C   0  0  0  0  0  0  0  0  0  0  0  0
    5.7643  -16.0360   21.1743 S   0  0  0  0  0  0  0  0  0  0  0  0
    8.3689  -14.2418   23.7111 C   0  0  0  0  0  0  0  0  0  0  0  0
    9.6007  -14.5470   23.7203 O   0  0  0  0  0  0  0  0  0  0  0  0
    7.8234  -13.6655   24.8939 N   0  0  0  0  0  0  0  0  0  0  0  0
    6.5057  -13.1268   25.0909 C   0  0  0  0  0  0  0  0  0  0  0  0
    6.4338  -12.6708   26.5027 C   0  0  0  0  0  0  0  0  0  0  0  0
    7.8678  -12.4604   26.9106 C   0  0  0  0  0  0  0  0  0  0  0  0
    8.5719  -13.5319   26.1155 C   0  0  1  0  0  0  0  0  0  0  0  0
    8.7380  -14.8064   26.8338 C   0  0  0  0  0  0  0  0  0  0  0  0
    7.7442  -15.5738   26.9500 O   0  0  0  0  0  0  0  0  0  0  0  0
   10.6559  -17.5925   25.8138 C   0  0  0  0  0  0  0  0  0  0  0  0
   11.0447  -17.4138   27.2580 C   0  0  1  0  0  0  0  0  0  0  0  0
   12.3285  -16.8892   27.3348 O   0  0  0  0  0  0  0  0  0  0  0  0
   10.0553  -16.5430   28.0050 C   0  0  2  0  0  0  0  0  0  0  0  0
    9.9578  -15.2331   27.4111 N   0  0  0  0  0  0  0  0  0  0  0  0
   10.3741  -16.4743   29.4566 C   0  0  0  0  0  0  0  0  0  0  0  0
   10.6384  -15.3640   29.9806 O   0  0  0  0  0  0  0  0  0  0  0  0
   10.3890  -17.5956   30.2493 O   0  0  0  0  0  0  0  0  0  0  0  0
  2  1  1  6
  3  2  1  0
  4  3  1  0
  5  7  1  0
  5  2  1  0
  6  5  2  0
  7  8  1  0
  9  8  1  0
 10  9  1  0
 11 10  1  0
 11 12  1  1
 11  7  1  0
 12 18  1  0
 13 12  2  0
 15 14  1  6
 15 16  1  0
 17 15  1  0
 17 18  1  6
 19 17  1  0
 19 21  1  0
 20 19  2  0
M  END
$$$$
