CPT.pdb
     RDKit          3D

 21 21  0  0  1  0  0  0  0  0999 V2000
    5.0859  -13.9750   26.1690 N   0  0  0  0  0  0  0  0  0  0  0  0
    6.2983  -13.4590   25.5966 C   0  0  1  0  0  0  0  0  0  0  0  0
    7.2585  -12.9619   26.6715 C   0  0  0  0  0  0  0  0  0  0  0  0
    7.4084  -11.1493   26.4933 S   0  0  0  0  0  0  0  0  0  0  0  0
    6.9544  -14.5263   24.8088 C   0  0  0  0  0  0  0  0  0  0  0  0
    6.9759  -15.7095   25.2670 O   0  0  0  0  0  0  0  0  0  0  0  0
    7.5723  -14.2968   23.5461 N   0  0  0  0  0  0  0  0  0  0  0  0
    7.7233  -13.0504   22.8469 C   0  0  0  0  0  0  0  0  0  0  0  0
    8.4527  -13.3488   21.5879 C   0  0  0  0  0  0  0  0  0  0  0  0
    8.2158  -14.8160   21.3466 C   0  0  0  0  0  0  0  0  0  0  0  0
    8.1512  -15.3507   22.7558 C   0  0  1  0  0  0  0  0  0  0  0  0
    9.4420  -15.8251   23.2818 C   0  0  0  0  0  0  0  0  0  0  0  0
   10.2912  -14.9764   23.6674 O   0  0  0  0  0  0  0  0  0  0  0  0
   10.2622  -18.3931   26.1430 C   0  0  0  0  0  0  0  0  0  0  0  0
   10.9590  -18.7538   24.8573 C   0  0  1  0  0  0  0  0  0  0  0  0
   10.2884  -19.8024   24.2407 O   0  0  0  0  0  0  0  0  0  0  0  0
   11.0800  -17.5636   23.9278 C   0  0  2  0  0  0  0  0  0  0  0  0
    9.7978  -17.1912   23.3843 N   0  0  0  0  0  0  0  0  0  0  0  0
   12.0890  -17.8030   22.8611 C   0  0  0  0  0  0  0  0  0  0  0  0
   11.7109  -17.9475   21.6722 O   0  0  0  0  0  0  0  0  0  0  0  0
   13.4327  -17.8716   23.1366 O   0  0  0  0  0  0  0  0  0  0  0  0
  2  1  1  1
  3  2  1  0
  4  3  1  0
  5  7  1  0
  5  2  1  0
  6  5  2  0
  7  8  1  0
  9  8  1  0
 10  9  1  0
 11 10  1  0
 11 12  1  1
 11  7  1  0
 12 18  1  0
 13 12  2  0
 15 14  1  1
 15 16  1  0
 17 15  1  0
 17 18  1  6
 19 17  1  0
 19 21  1  0
 20 19  2  0
M  END
$$$$
