CPT.pdb
     RDKit          3D

 21 21  0  0  1  0  0  0  0  0999 V2000
    9.2003  -18.0512   18.8283 N   0  0  0  0  0  0  0  0  0  0  0  0
    8.1545  -17.3611   19.5310 C   0  0  1  0  0  0  0  0  0  0  0  0
    7.3528  -18.3096   20.4155 C   0  0  0  0  0  0  0  0  0  0  0  0
    6.5133  -19.5144   19.3275 S   0  0  0  0  0  0  0  0  0  0  0  0
    8.7534  -16.2983   20.3688 C   0  0  0  0  0  0  0  0  0  0  0  0
    9.8653  -16.5142   20.9411 O   0  0  0  0  0  0  0  0  0  0  0  0
    8.1430  -15.0275   20.5718 N   0  0  0  0  0  0  0  0  0  0  0  0
    6.8378  -14.5944   20.1544 C   0  0  0  0  0  0  0  0  0  0  0  0
    6.6765  -13.1959   20.6280 C   0  0  0  0  0  0  0  0  0  0  0  0
    8.0823  -12.6914   20.8183 C   0  0  0  0  0  0  0  0  0  0  0  0
    8.8000  -13.9447   21.2547 C   0  0  1  0  0  0  0  0  0  0  0  0
    8.8565  -14.1314   22.7141 C   0  0  0  0  0  0  0  0  0  0  0  0
    9.5141  -13.3092   23.4081 O   0  0  0  0  0  0  0  0  0  0  0  0
    6.9590  -13.1628   25.2725 C   0  0  0  0  0  0  0  0  0  0  0  0
    7.0201  -14.6557   25.4623 C   0  0  1  0  0  0  0  0  0  0  0  0
    5.8717  -15.2400   24.9433 O   0  0  0  0  0  0  0  0  0  0  0  0
    8.2646  -15.2535   24.8386 C   0  0  2  0  0  0  0  0  0  0  0  0
    8.2118  -15.1887   23.3994 N   0  0  0  0  0  0  0  0  0  0  0  0
    8.5096  -16.6378   25.3254 C   0  0  0  0  0  0  0  0  0  0  0  0
    8.5292  -17.5884   24.5049 O   0  0  0  0  0  0  0  0  0  0  0  0
    8.7169  -16.9125   26.6549 O   0  0  0  0  0  0  0  0  0  0  0  0
  2  1  1  1
  3  2  1  0
  4  3  1  0
  5  7  1  0
  5  2  1  0
  6  5  2  0
  7  8  1  0
  9  8  1  0
 10  9  1  0
 11 10  1  0
 11 12  1  1
 11  7  1  0
 12 18  1  0
 13 12  2  0
 15 14  1  6
 15 16  1  0
 17 15  1  0
 17 18  1  6
 19 17  1  0
 19 21  1  0
 20 19  2  0
M  END
$$$$
