CPT.pdb
     RDKit          3D

 21 21  0  0  1  0  0  0  0  0999 V2000
    8.8734  -15.5679   14.7741 N   0  0  0  0  0  0  0  0  0  0  0  0
    8.2344  -15.6402   16.0588 C   0  0  1  0  0  0  0  0  0  0  0  0
    7.7764  -17.0589   16.3780 C   0  0  0  0  0  0  0  0  0  0  0  0
    7.1157  -17.0638   18.0820 S   0  0  0  0  0  0  0  0  0  0  0  0
    9.1846  -15.1863   17.0986 C   0  0  0  0  0  0  0  0  0  0  0  0
   10.3715  -15.6354   17.0909 O   0  0  0  0  0  0  0  0  0  0  0  0
    8.8368  -14.2596   18.1228 N   0  0  0  0  0  0  0  0  0  0  0  0
    7.5386  -13.7262   18.4319 C   0  0  0  0  0  0  0  0  0  0  0  0
    7.7115  -12.8205   19.5964 C   0  0  0  0  0  0  0  0  0  0  0  0
    9.1683  -12.4407   19.5732 C   0  0  0  0  0  0  0  0  0  0  0  0
    9.8027  -13.6966   19.0288 C   0  0  1  0  0  0  0  0  0  0  0  0
   10.2472  -14.6460   20.0627 C   0  0  0  0  0  0  0  0  0  0  0  0
    9.3813  -15.2021   20.7914 O   0  0  0  0  0  0  0  0  0  0  0  0
   11.2149  -17.8822   19.7794 C   0  0  0  0  0  0  0  0  0  0  0  0
   12.3457  -17.2886   20.5779 C   0  0  1  0  0  0  0  0  0  0  0  0
   13.4466  -17.0920   19.7540 O   0  0  0  0  0  0  0  0  0  0  0  0
   11.9387  -15.9984   21.2597 C   0  0  2  0  0  0  0  0  0  0  0  0
   11.6026  -14.9803   20.2960 N   0  0  0  0  0  0  0  0  0  0  0  0
   12.9769  -15.5358   22.2197 C   0  0  0  0  0  0  0  0  0  0  0  0
   13.6467  -14.5061   21.9588 O   0  0  0  0  0  0  0  0  0  0  0  0
   13.2289  -16.2044   23.3925 O   0  0  0  0  0  0  0  0  0  0  0  0
  2  1  1  6
  3  2  1  0
  4  3  1  0
  5  7  1  0
  5  2  1  0
  6  5  2  0
  7  8  1  0
  9  8  1  0
 10  9  1  0
 11 10  1  0
 11 12  1  1
 11  7  1  0
 12 18  1  0
 13 12  2  0
 15 14  1  6
 15 16  1  0
 17 15  1  0
 17 18  1  6
 19 17  1  0
 19 21  1  0
 20 19  2  0
M  END
$$$$
