CPT.pdb
     RDKit          3D

 21 21  0  0  1  0  0  0  0  0999 V2000
    5.1713  -13.8734   26.3525 N   0  0  0  0  0  0  0  0  0  0  0  0
    6.3567  -13.3805   25.7077 C   0  0  1  0  0  0  0  0  0  0  0  0
    7.3756  -12.8711   26.7211 C   0  0  0  0  0  0  0  0  0  0  0  0
    7.0395  -11.0981   27.0101 S   0  0  0  0  0  0  0  0  0  0  0  0
    6.9620  -14.4694   24.9091 C   0  0  0  0  0  0  0  0  0  0  0  0
    6.9443  -15.6540   25.3640 O   0  0  0  0  0  0  0  0  0  0  0  0
    7.5724  -14.2597   23.6393 N   0  0  0  0  0  0  0  0  0  0  0  0
    7.6709  -13.0344   22.8950 C   0  0  0  0  0  0  0  0  0  0  0  0
    8.4157  -13.3468   21.6484 C   0  0  0  0  0  0  0  0  0  0  0  0
    8.2431  -14.8307   21.4609 C   0  0  0  0  0  0  0  0  0  0  0  0
    8.1984  -15.3158   22.8887 C   0  0  1  0  0  0  0  0  0  0  0  0
    9.5073  -15.7140   23.4328 C   0  0  0  0  0  0  0  0  0  0  0  0
   10.2594  -14.8269   23.9202 O   0  0  0  0  0  0  0  0  0  0  0  0
   10.3713  -17.8990   26.3495 C   0  0  0  0  0  0  0  0  0  0  0  0
   11.0882  -18.4222   25.1326 C   0  0  1  0  0  0  0  0  0  0  0  0
   10.4140  -19.5291   24.6330 O   0  0  0  0  0  0  0  0  0  0  0  0
   11.2464  -17.3554   24.0686 C   0  0  2  0  0  0  0  0  0  0  0  0
    9.9840  -17.0466   23.4449 N   0  0  0  0  0  0  0  0  0  0  0  0
   12.2847  -17.7280   23.0704 C   0  0  0  0  0  0  0  0  0  0  0  0
   11.9391  -18.0355   21.9028 O   0  0  0  0  0  0  0  0  0  0  0  0
   13.6209  -17.7469   23.3871 O   0  0  0  0  0  0  0  0  0  0  0  0
  2  1  1  1
  3  2  1  0
  4  3  1  0
  5  7  1  0
  5  2  1  0
  6  5  2  0
  7  8  1  0
  9  8  1  0
 10  9  1  0
 11 10  1  0
 11 12  1  1
 11  7  1  0
 12 18  1  0
 13 12  2  0
 15 14  1  1
 15 16  1  0
 17 15  1  0
 17 18  1  6
 19 17  1  0
 19 21  1  0
 20 19  2  0
M  END
$$$$
