DCL.pdb
     RDKit          3D

 23 22  0  0  1  0  0  0  0  0999 V2000
    9.3673  -19.5013   20.2996 N   0  0  0  0  0  0  0  0  0  0  0  0
    9.9991  -18.2851   20.8819 C   0  0  1  0  0  0  0  0  0  0  0  0
   10.3002  -17.3943   19.7237 C   0  0  0  0  0  0  0  0  0  0  0  0
   11.6593  -17.5664   19.2408 C   0  0  0  0  0  0  0  0  0  0  0  0
   12.5247  -18.1607   19.9056 O   0  0  0  0  0  0  0  0  0  0  0  0
    8.9283  -17.6815   21.7533 C   0  0  0  0  0  0  0  0  0  0  0  0
    7.8936  -17.2286   21.2424 O   0  0  0  0  0  0  0  0  0  0  0  0
   12.0699  -17.0711   17.9973 O   0  0  0  0  0  0  0  0  0  0  0  0
    9.0652  -17.6113   23.1702 N   0  0  0  0  0  0  0  0  0  0  0  0
    8.0304  -17.0967   24.0426 C   0  0  1  0  0  0  0  0  0  0  0  0
    7.4671  -18.1753   24.9452 C   0  0  0  0  0  0  0  0  0  0  0  0
    8.8599  -19.1158   25.6005 S   0  0  0  0  0  0  0  0  0  0  0  0
    8.7101  -16.1110   24.9611 C   0  0  0  0  0  0  0  0  0  0  0  0
    9.9698  -16.1869   25.0630 O   0  0  0  0  0  0  0  0  0  0  0  0
    5.7340  -11.7449   26.4806 C   0  0  0  0  0  0  0  0  0  0  0  0
    6.8497  -12.5663   25.9627 C   0  0  1  0  0  0  0  0  0  0  0  0
    7.4992  -11.8997   24.7307 C   0  0  0  0  0  0  0  0  0  0  0  0
    7.8847  -13.0581   26.8685 C   0  0  0  0  0  0  0  0  0  0  0  0
    8.7772  -14.1840   26.5228 C   0  0  2  0  0  0  0  0  0  0  0  0
    8.0238  -15.1488   25.6803 N   0  0  0  0  0  0  0  0  0  0  0  0
    9.2785  -14.9907   27.6438 C   0  0  0  0  0  0  0  0  0  0  0  0
    9.0173  -16.3425   27.8340 O   0  0  0  0  0  0  0  0  0  0  0  0
   10.0120  -14.4195   28.5309 O   0  0  0  0  0  0  0  0  0  0  0  0
  2  1  1  6
  2  3  1  0
  3  4  1  0
  4  8  1  0
  5  4  2  0
  6  2  1  0
  7  6  2  0
  9  6  1  0
 10 13  1  0
 10  9  1  0
 10 11  1  1
 12 11  1  0
 13 20  1  0
 14 13  2  0
 16 15  1  1
 16 17  1  0
 18 16  1  0
 19 18  1  1
 20 19  1  0
 21 19  1  0
 21 22  1  0
 23 21  2  0
M  END
$$$$
