DCL.pdb
     RDKit          3D

 23 22  0  0  1  0  0  0  0  0999 V2000
    8.6747  -18.3537   19.2046 N   0  0  0  0  0  0  0  0  0  0  0  0
    9.5898  -17.6673   20.1580 C   0  0  1  0  0  0  0  0  0  0  0  0
   10.1807  -16.5272   19.3986 C   0  0  0  0  0  0  0  0  0  0  0  0
   11.4704  -16.8647   18.8220 C   0  0  0  0  0  0  0  0  0  0  0  0
   12.0790  -17.9032   19.1305 O   0  0  0  0  0  0  0  0  0  0  0  0
    8.6875  -17.1652   21.2553 C   0  0  0  0  0  0  0  0  0  0  0  0
    7.9824  -16.1625   21.0698 O   0  0  0  0  0  0  0  0  0  0  0  0
   12.1004  -16.0367   17.8851 O   0  0  0  0  0  0  0  0  0  0  0  0
    8.6143  -17.8138   22.5223 N   0  0  0  0  0  0  0  0  0  0  0  0
    7.6970  -17.4112   23.5677 C   0  0  1  0  0  0  0  0  0  0  0  0
    7.2071  -18.5966   24.3741 C   0  0  0  0  0  0  0  0  0  0  0  0
    6.0082  -17.9791   25.5721 S   0  0  0  0  0  0  0  0  0  0  0  0
    8.5012  -16.5698   24.5283 C   0  0  0  0  0  0  0  0  0  0  0  0
    9.7343  -16.8349   24.6389 O   0  0  0  0  0  0  0  0  0  0  0  0
    6.7028  -12.9685   24.6612 C   0  0  0  0  0  0  0  0  0  0  0  0
    7.4935  -12.5905   25.8526 C   0  0  1  0  0  0  0  0  0  0  0  0
    6.7509  -11.5292   26.6929 C   0  0  0  0  0  0  0  0  0  0  0  0
    8.0478  -13.6215   26.7264 C   0  0  0  0  0  0  0  0  0  0  0  0
    8.8159  -14.7742   26.2115 C   0  0  2  0  0  0  0  0  0  0  0  0
    7.9540  -15.5424   25.2760 N   0  0  0  0  0  0  0  0  0  0  0  0
    9.2536  -15.7655   27.2037 C   0  0  0  0  0  0  0  0  0  0  0  0
    8.7473  -17.0546   27.3212 O   0  0  0  0  0  0  0  0  0  0  0  0
   10.1703  -15.4327   28.0404 O   0  0  0  0  0  0  0  0  0  0  0  0
  2  1  1  6
  2  3  1  0
  3  4  1  0
  4  8  1  0
  5  4  2  0
  6  2  1  0
  7  6  2  0
  9  6  1  0
 10 13  1  0
 10  9  1  0
 10 11  1  1
 12 11  1  0
 13 20  1  0
 14 13  2  0
 16 15  1  6
 16 17  1  0
 18 16  1  0
 19 18  1  1
 20 19  1  0
 21 19  1  0
 21 22  1  0
 23 21  2  0
M  END
$$$$
