DCL.pdb
     RDKit          3D

 23 22  0  0  1  0  0  0  0  0999 V2000
    8.0828  -18.9551   19.5139 N   0  0  0  0  0  0  0  0  0  0  0  0
    8.0957  -17.4662   19.5374 C   0  0  1  0  0  0  0  0  0  0  0  0
    7.3608  -17.0379   18.3118 C   0  0  0  0  0  0  0  0  0  0  0  0
    8.0083  -17.5005   17.0967 C   0  0  0  0  0  0  0  0  0  0  0  0
    9.0680  -18.1489   17.1203 O   0  0  0  0  0  0  0  0  0  0  0  0
    7.3222  -17.0996   20.7773 C   0  0  0  0  0  0  0  0  0  0  0  0
    6.1837  -16.6186   20.6798 O   0  0  0  0  0  0  0  0  0  0  0  0
    7.4731  -17.2406   15.8293 O   0  0  0  0  0  0  0  0  0  0  0  0
    7.8626  -17.2893   22.0824 N   0  0  0  0  0  0  0  0  0  0  0  0
    7.1020  -17.0719   23.2952 C   0  0  1  0  0  0  0  0  0  0  0  0
    6.8636  -18.3640   24.0495 C   0  0  0  0  0  0  0  0  0  0  0  0
    5.7372  -19.3686   23.0616 S   0  0  0  0  0  0  0  0  0  0  0  0
    7.9775  -16.2321   24.1927 C   0  0  0  0  0  0  0  0  0  0  0  0
    9.2270  -16.2815   23.9948 O   0  0  0  0  0  0  0  0  0  0  0  0
    5.9007  -11.7219   26.5411 C   0  0  0  0  0  0  0  0  0  0  0  0
    6.8380  -12.6494   25.8711 C   0  0  1  0  0  0  0  0  0  0  0  0
    7.6734  -11.9119   24.8024 C   0  0  0  0  0  0  0  0  0  0  0  0
    7.6991  -13.5252   26.6617 C   0  0  0  0  0  0  0  0  0  0  0  0
    8.4149  -14.6784   26.0772 C   0  0  2  0  0  0  0  0  0  0  0  0
    7.4773  -15.4280   25.2013 N   0  0  0  0  0  0  0  0  0  0  0  0
    8.9172  -15.6851   27.0221 C   0  0  0  0  0  0  0  0  0  0  0  0
    8.4698  -16.9986   27.1016 O   0  0  0  0  0  0  0  0  0  0  0  0
    9.8371  -15.3430   27.8515 O   0  0  0  0  0  0  0  0  0  0  0  0
  2  1  1  6
  2  3  1  0
  3  4  1  0
  4  8  1  0
  5  4  2  0
  6  2  1  0
  7  6  2  0
  9  6  1  0
 10 13  1  0
 10  9  1  0
 10 11  1  1
 12 11  1  0
 13 20  1  0
 14 13  2  0
 16 15  1  1
 16 17  1  0
 18 16  1  0
 19 18  1  1
 20 19  1  0
 21 19  1  0
 21 22  1  0
 23 21  2  0
M  END
$$$$
