DCL.pdb
     RDKit          3D

 23 22  0  0  1  0  0  0  0  0999 V2000
    9.1388  -19.4014   19.3588 N   0  0  0  0  0  0  0  0  0  0  0  0
    9.5710  -17.9870   19.5328 C   0  0  1  0  0  0  0  0  0  0  0  0
    9.3949  -17.3452   18.1976 C   0  0  0  0  0  0  0  0  0  0  0  0
   10.5373  -17.5689   17.3288 C   0  0  0  0  0  0  0  0  0  0  0  0
   11.5952  -18.0693   17.7466 O   0  0  0  0  0  0  0  0  0  0  0  0
    8.5994  -17.4134   20.5314 C   0  0  0  0  0  0  0  0  0  0  0  0
    7.5737  -16.8375   20.1399 O   0  0  0  0  0  0  0  0  0  0  0  0
   10.5095  -17.2321   15.9701 O   0  0  0  0  0  0  0  0  0  0  0  0
    8.8216  -17.5109   21.9358 N   0  0  0  0  0  0  0  0  0  0  0  0
    7.8738  -17.0392   22.9235 C   0  0  1  0  0  0  0  0  0  0  0  0
    7.2390  -18.1839   23.6864 C   0  0  0  0  0  0  0  0  0  0  0  0
    8.5669  -19.2811   24.2217 S   0  0  0  0  0  0  0  0  0  0  0  0
    8.6789  -16.2687   23.9410 C   0  0  0  0  0  0  0  0  0  0  0  0
    9.9141  -16.5341   24.0243 O   0  0  0  0  0  0  0  0  0  0  0  0
    6.7121  -11.8983   27.1781 C   0  0  0  0  0  0  0  0  0  0  0  0
    7.0988  -12.9282   26.1895 C   0  0  1  0  0  0  0  0  0  0  0  0
    6.4096  -12.6747   24.8313 C   0  0  0  0  0  0  0  0  0  0  0  0
    8.5065  -13.2582   25.9816 C   0  0  0  0  0  0  0  0  0  0  0  0
    8.9806  -14.6450   25.7928 C   0  0  2  0  0  0  0  0  0  0  0  0
    8.1306  -15.3046   24.7679 N   0  0  0  0  0  0  0  0  0  0  0  0
    8.8978  -15.5307   26.9621 C   0  0  0  0  0  0  0  0  0  0  0  0
    9.6894  -15.4267   28.0998 O   0  0  0  0  0  0  0  0  0  0  0  0
    8.0375  -16.4851   26.9492 O   0  0  0  0  0  0  0  0  0  0  0  0
  2  1  1  6
  2  3  1  0
  3  4  1  0
  4  8  1  0
  5  4  2  0
  6  2  1  0
  7  6  2  0
  9  6  1  0
 10 13  1  0
 10  9  1  0
 10 11  1  1
 12 11  1  0
 13 20  1  0
 14 13  2  0
 16 15  1  1
 16 17  1  0
 18 16  1  0
 19 18  1  1
 20 19  1  0
 21 19  1  0
 21 22  1  0
 23 21  2  0
M  END
$$$$
