DCL.pdb
     RDKit          3D

 23 22  0  0  1  0  0  0  0  0999 V2000
    9.3310  -18.8893   19.4247 N   0  0  0  0  0  0  0  0  0  0  0  0
   10.0658  -18.0965   20.4489 C   0  0  1  0  0  0  0  0  0  0  0  0
   10.7047  -16.9720   19.7055 C   0  0  0  0  0  0  0  0  0  0  0  0
   12.0109  -17.3341   19.1834 C   0  0  0  0  0  0  0  0  0  0  0  0
   12.5961  -18.3726   19.5343 O   0  0  0  0  0  0  0  0  0  0  0  0
    8.9923  -17.5822   21.3726 C   0  0  0  0  0  0  0  0  0  0  0  0
    7.9234  -17.1593   20.9082 O   0  0  0  0  0  0  0  0  0  0  0  0
   12.6839  -16.5315   18.2545 O   0  0  0  0  0  0  0  0  0  0  0  0
    9.1649  -17.5639   22.7872 N   0  0  0  0  0  0  0  0  0  0  0  0
    8.1047  -17.2198   23.7114 C   0  0  1  0  0  0  0  0  0  0  0  0
    7.5871  -18.4357   24.4523 C   0  0  0  0  0  0  0  0  0  0  0  0
    6.2921  -17.8752   25.5760 S   0  0  0  0  0  0  0  0  0  0  0  0
    8.7358  -16.3404   24.7629 C   0  0  0  0  0  0  0  0  0  0  0  0
    9.9671  -16.5142   25.0013 O   0  0  0  0  0  0  0  0  0  0  0  0
    5.8623  -11.9010   26.6332 C   0  0  0  0  0  0  0  0  0  0  0  0
    6.9305  -12.7616   26.0802 C   0  0  1  0  0  0  0  0  0  0  0  0
    7.7707  -11.9950   25.0360 C   0  0  0  0  0  0  0  0  0  0  0  0
    7.8084  -13.5125   26.9742 C   0  0  0  0  0  0  0  0  0  0  0  0
    8.7328  -14.5588   26.4898 C   0  0  2  0  0  0  0  0  0  0  0  0
    8.0353  -15.3728   25.4607 N   0  0  0  0  0  0  0  0  0  0  0  0
    9.1909  -15.5394   27.4835 C   0  0  0  0  0  0  0  0  0  0  0  0
   10.1296  -15.2894   28.4776 O   0  0  0  0  0  0  0  0  0  0  0  0
    8.7025  -16.7272   27.4437 O   0  0  0  0  0  0  0  0  0  0  0  0
  2  1  1  6
  2  3  1  0
  3  4  1  0
  4  8  1  0
  5  4  2  0
  6  2  1  0
  7  6  2  0
  9  6  1  0
 10 13  1  0
 10  9  1  0
 10 11  1  1
 12 11  1  0
 13 20  1  0
 14 13  2  0
 16 15  1  1
 16 17  1  0
 18 16  1  0
 19 18  1  1
 20 19  1  0
 21 19  1  0
 21 22  1  0
 23 21  2  0
M  END
$$$$
