DCL.pdb
     RDKit          3D

 23 22  0  0  1  0  0  0  0  0999 V2000
    8.7680  -16.1971   18.5575 N   0  0  0  0  0  0  0  0  0  0  0  0
    8.4476  -14.8736   19.1601 C   0  0  1  0  0  0  0  0  0  0  0  0
    7.5930  -14.1717   18.1588 C   0  0  0  0  0  0  0  0  0  0  0  0
    8.2286  -14.0966   16.8549 C   0  0  0  0  0  0  0  0  0  0  0  0
    8.3442  -15.0916   16.1196 O   0  0  0  0  0  0  0  0  0  0  0  0
    7.6553  -15.2024   20.3988 C   0  0  0  0  0  0  0  0  0  0  0  0
    6.4702  -14.8499   20.4901 O   0  0  0  0  0  0  0  0  0  0  0  0
    8.7473  -12.8965   16.3537 O   0  0  0  0  0  0  0  0  0  0  0  0
    8.2302  -15.9174   21.4895 N   0  0  0  0  0  0  0  0  0  0  0  0
    7.5118  -16.2118   22.7117 C   0  0  1  0  0  0  0  0  0  0  0  0
    7.3226  -17.7021   22.9084 C   0  0  0  0  0  0  0  0  0  0  0  0
    6.5107  -17.9400   24.5015 S   0  0  0  0  0  0  0  0  0  0  0  0
    8.4062  -15.7623   23.8409 C   0  0  0  0  0  0  0  0  0  0  0  0
    9.6483  -15.9731   23.7158 O   0  0  0  0  0  0  0  0  0  0  0  0
    6.6658  -11.9960   27.6151 C   0  0  0  0  0  0  0  0  0  0  0  0
    7.1174  -12.8772   26.5164 C   0  0  1  0  0  0  0  0  0  0  0  0
    6.6809  -12.3167   25.1456 C   0  0  0  0  0  0  0  0  0  0  0  0
    8.5066  -13.3243   26.4542 C   0  0  0  0  0  0  0  0  0  0  0  0
    8.8872  -14.6859   26.0242 C   0  0  2  0  0  0  0  0  0  0  0  0
    7.9306  -15.1423   24.9826 N   0  0  0  0  0  0  0  0  0  0  0  0
    8.8379  -15.7351   27.0515 C   0  0  0  0  0  0  0  0  0  0  0  0
    9.6055  -15.7545   28.2101 O   0  0  0  0  0  0  0  0  0  0  0  0
    8.0338  -16.7229   26.8815 O   0  0  0  0  0  0  0  0  0  0  0  0
  2  1  1  6
  2  3  1  0
  3  4  1  0
  4  8  1  0
  5  4  2  0
  6  2  1  0
  7  6  2  0
  9  6  1  0
 10 13  1  0
 10  9  1  0
 10 11  1  1
 12 11  1  0
 13 20  1  0
 14 13  2  0
 16 15  1  1
 16 17  1  0
 18 16  1  0
 19 18  1  1
 20 19  1  0
 21 19  1  0
 21 22  1  0
 23 21  2  0
M  END
$$$$
