DCL.pdb
     RDKit          3D

 23 22  0  0  1  0  0  0  0  0999 V2000
    9.6045  -18.6269   20.9500 N   0  0  0  0  0  0  0  0  0  0  0  0
   10.5063  -17.4449   20.8654 C   0  0  1  0  0  0  0  0  0  0  0  0
   10.5067  -17.0408   19.4293 C   0  0  0  0  0  0  0  0  0  0  0  0
   11.2795  -17.9535   18.6050 C   0  0  0  0  0  0  0  0  0  0  0  0
   11.9513  -18.8767   19.0955 O   0  0  0  0  0  0  0  0  0  0  0  0
    9.8365  -16.3951   21.7136 C   0  0  0  0  0  0  0  0  0  0  0  0
   10.2677  -15.2327   21.7191 O   0  0  0  0  0  0  0  0  0  0  0  0
   11.3104  -17.8431   17.2096 O   0  0  0  0  0  0  0  0  0  0  0  0
    8.7041  -16.6961   22.5250 N   0  0  0  0  0  0  0  0  0  0  0  0
    8.0717  -15.7270   23.3953 C   0  0  1  0  0  0  0  0  0  0  0  0
    6.8899  -16.3208   24.1343 C   0  0  0  0  0  0  0  0  0  0  0  0
    6.2353  -15.0427   25.2260 S   0  0  0  0  0  0  0  0  0  0  0  0
    9.0898  -15.3922   24.4576 C   0  0  0  0  0  0  0  0  0  0  0  0
    9.6395  -14.2533   24.3954 O   0  0  0  0  0  0  0  0  0  0  0  0
    9.6305  -13.2914   29.3670 C   0  0  0  0  0  0  0  0  0  0  0  0
   10.4444  -13.9488   28.3216 C   0  0  1  0  0  0  0  0  0  0  0  0
   11.5013  -14.8817   28.9513 C   0  0  0  0  0  0  0  0  0  0  0  0
    9.7971  -14.6159   27.1947 C   0  0  0  0  0  0  0  0  0  0  0  0
   10.3674  -15.8131   26.5426 C   0  0  2  0  0  0  0  0  0  0  0  0
    9.4375  -16.2633   25.4746 N   0  0  0  0  0  0  0  0  0  0  0  0
   10.5499  -16.9977   27.3924 C   0  0  0  0  0  0  0  0  0  0  0  0
   11.7579  -17.4033   27.9475 O   0  0  0  0  0  0  0  0  0  0  0  0
    9.5272  -17.7320   27.6492 O   0  0  0  0  0  0  0  0  0  0  0  0
  2  1  1  6
  2  3  1  0
  3  4  1  0
  4  8  1  0
  5  4  2  0
  6  2  1  0
  7  6  2  0
  9  6  1  0
 10 13  1  0
 10  9  1  0
 10 11  1  1
 12 11  1  0
 13 20  1  0
 14 13  2  0
 16 15  1  1
 16 17  1  0
 18 16  1  0
 19 18  1  1
 20 19  1  0
 21 19  1  0
 21 22  1  0
 23 21  2  0
M  END
$$$$
