DCL.pdb
     RDKit          3D

 23 22  0  0  1  0  0  0  0  0999 V2000
    9.3948  -18.3505   20.3326 N   0  0  0  0  0  0  0  0  0  0  0  0
    8.7374  -17.0538   20.0101 C   0  0  1  0  0  0  0  0  0  0  0  0
    7.8786  -17.3230   18.8203 C   0  0  0  0  0  0  0  0  0  0  0  0
    8.6420  -17.3251   17.5846 C   0  0  0  0  0  0  0  0  0  0  0  0
    9.8457  -17.6316   17.5540 O   0  0  0  0  0  0  0  0  0  0  0  0
    7.8916  -16.7463   21.2185 C   0  0  0  0  0  0  0  0  0  0  0  0
    6.9868  -15.9019   21.1449 O   0  0  0  0  0  0  0  0  0  0  0  0
    8.0624  -16.9810   16.3574 O   0  0  0  0  0  0  0  0  0  0  0  0
    8.0983  -17.4035   22.4661 N   0  0  0  0  0  0  0  0  0  0  0  0
    7.3281  -17.1074   23.6559 C   0  0  1  0  0  0  0  0  0  0  0  0
    7.1659  -18.3273   24.5397 C   0  0  0  0  0  0  0  0  0  0  0  0
    8.8089  -19.0178   24.8176 S   0  0  0  0  0  0  0  0  0  0  0  0
    8.1546  -16.1314   24.4568 C   0  0  0  0  0  0  0  0  0  0  0  0
    9.3862  -16.0470   24.1753 O   0  0  0  0  0  0  0  0  0  0  0  0
    5.9090  -11.6386   26.6094 C   0  0  0  0  0  0  0  0  0  0  0  0
    6.9058  -12.5393   25.9905 C   0  0  1  0  0  0  0  0  0  0  0  0
    7.7453  -11.7891   24.9338 C   0  0  0  0  0  0  0  0  0  0  0  0
    7.7754  -13.3619   26.8276 C   0  0  0  0  0  0  0  0  0  0  0  0
    8.5373  -14.5116   26.2970 C   0  0  2  0  0  0  0  0  0  0  0  0
    7.6292  -15.3427   25.4647 N   0  0  0  0  0  0  0  0  0  0  0  0
    9.0851  -15.4480   27.2879 C   0  0  0  0  0  0  0  0  0  0  0  0
   10.1780  -15.1932   28.1080 O   0  0  0  0  0  0  0  0  0  0  0  0
    8.5286  -16.5989   27.4177 O   0  0  0  0  0  0  0  0  0  0  0  0
  2  1  1  1
  2  3  1  0
  3  4  1  0
  4  8  1  0
  5  4  2  0
  6  2  1  0
  7  6  2  0
  9  6  1  0
 10 13  1  0
 10  9  1  0
 10 11  1  1
 12 11  1  0
 13 20  1  0
 14 13  2  0
 16 15  1  1
 16 17  1  0
 18 16  1  0
 19 18  1  1
 20 19  1  0
 21 19  1  0
 21 22  1  0
 23 21  2  0
M  END
$$$$
