DCL.pdb
     RDKit          3D

 23 22  0  0  1  0  0  0  0  0999 V2000
    9.3327  -18.7589   21.0165 N   0  0  0  0  0  0  0  0  0  0  0  0
   10.7024  -18.2273   21.2591 C   0  0  1  0  0  0  0  0  0  0  0  0
   11.4555  -18.4625   19.9930 C   0  0  0  0  0  0  0  0  0  0  0  0
   10.8573  -19.5135   19.1884 C   0  0  0  0  0  0  0  0  0  0  0  0
    9.8198  -20.1014   19.5379 O   0  0  0  0  0  0  0  0  0  0  0  0
   10.5012  -16.7525   21.4926 C   0  0  0  0  0  0  0  0  0  0  0  0
   11.4759  -15.9865   21.5034 O   0  0  0  0  0  0  0  0  0  0  0  0
   11.4177  -19.9231   17.9725 O   0  0  0  0  0  0  0  0  0  0  0  0
    9.2064  -16.1962   21.7055 N   0  0  0  0  0  0  0  0  0  0  0  0
    8.9803  -14.7903   21.9680 C   0  0  1  0  0  0  0  0  0  0  0  0
    7.5613  -14.3766   21.6356 C   0  0  0  0  0  0  0  0  0  0  0  0
    6.4530  -15.5726   22.4069 S   0  0  0  0  0  0  0  0  0  0  0  0
    9.1160  -14.6168   23.4608 C   0  0  0  0  0  0  0  0  0  0  0  0
    9.7896  -13.6261   23.8705 O   0  0  0  0  0  0  0  0  0  0  0  0
    5.4480  -12.9020   25.8337 C   0  0  0  0  0  0  0  0  0  0  0  0
    6.8782  -13.2682   25.7444 C   0  0  1  0  0  0  0  0  0  0  0  0
    7.7725  -12.1344   26.2907 C   0  0  0  0  0  0  0  0  0  0  0  0
    7.3414  -14.5579   26.2504 C   0  0  0  0  0  0  0  0  0  0  0  0
    8.6204  -15.1666   25.8291 C   0  0  2  0  0  0  0  0  0  0  0  0
    8.5447  -15.4802   24.3785 N   0  0  0  0  0  0  0  0  0  0  0  0
    8.9778  -16.4437   26.4615 C   0  0  0  0  0  0  0  0  0  0  0  0
    9.4014  -16.5920   27.7770 O   0  0  0  0  0  0  0  0  0  0  0  0
    8.9057  -17.5175   25.7593 O   0  0  0  0  0  0  0  0  0  0  0  0
  2  1  1  6
  2  3  1  0
  3  4  1  0
  4  8  1  0
  5  4  2  0
  6  2  1  0
  7  6  2  0
  9  6  1  0
 10 13  1  0
 10  9  1  0
 10 11  1  1
 12 11  1  0
 13 20  1  0
 14 13  2  0
 16 15  1  1
 16 17  1  0
 18 16  1  0
 19 18  1  1
 20 19  1  0
 21 19  1  0
 21 22  1  0
 23 21  2  0
M  END
$$$$
