DCL.pdb
     RDKit          3D

 23 22  0  0  1  0  0  0  0  0999 V2000
   10.9573  -18.6830   19.4558 N   0  0  0  0  0  0  0  0  0  0  0  0
   11.4593  -17.5059   20.2173 C   0  0  1  0  0  0  0  0  0  0  0  0
   11.7856  -16.4726   19.1920 C   0  0  0  0  0  0  0  0  0  0  0  0
   13.0650  -16.7230   18.5516 C   0  0  0  0  0  0  0  0  0  0  0  0
   14.0995  -16.9354   19.2065 O   0  0  0  0  0  0  0  0  0  0  0  0
   10.2874  -17.0701   21.0582 C   0  0  0  0  0  0  0  0  0  0  0  0
    9.4433  -16.2914   20.5913 O   0  0  0  0  0  0  0  0  0  0  0  0
   13.2035  -16.7386   17.1585 O   0  0  0  0  0  0  0  0  0  0  0  0
   10.1116  -17.5295   22.3958 N   0  0  0  0  0  0  0  0  0  0  0  0
    8.9164  -17.2730   23.1720 C   0  0  1  0  0  0  0  0  0  0  0  0
    8.1082  -18.5350   23.3948 C   0  0  0  0  0  0  0  0  0  0  0  0
    9.2288  -19.7881   24.0488 S   0  0  0  0  0  0  0  0  0  0  0  0
    9.3899  -16.8459   24.5397 C   0  0  0  0  0  0  0  0  0  0  0  0
   10.6164  -17.0114   24.8064 O   0  0  0  0  0  0  0  0  0  0  0  0
    7.4516  -12.3893   27.2016 C   0  0  0  0  0  0  0  0  0  0  0  0
    8.4993  -13.4022   26.9484 C   0  0  1  0  0  0  0  0  0  0  0  0
    9.8770  -12.9039   27.4358 C   0  0  0  0  0  0  0  0  0  0  0  0
    8.2965  -14.7899   27.3572 C   0  0  0  0  0  0  0  0  0  0  0  0
    9.1016  -15.9055   26.8176 C   0  0  2  0  0  0  0  0  0  0  0  0
    8.5528  -16.2926   25.4921 N   0  0  0  0  0  0  0  0  0  0  0  0
    9.0964  -17.1526   27.5943 C   0  0  0  0  0  0  0  0  0  0  0  0
    9.9866  -17.4600   28.6166 O   0  0  0  0  0  0  0  0  0  0  0  0
    8.2123  -18.0435   27.3187 O   0  0  0  0  0  0  0  0  0  0  0  0
  2  1  1  6
  2  3  1  0
  3  4  1  0
  4  8  1  0
  5  4  2  0
  6  2  1  0
  7  6  2  0
  9  6  1  0
 10 13  1  0
 10  9  1  0
 10 11  1  1
 12 11  1  0
 13 20  1  0
 14 13  2  0
 16 15  1  1
 16 17  1  0
 18 16  1  0
 19 18  1  1
 20 19  1  0
 21 19  1  0
 21 22  1  0
 23 21  2  0
M  END
$$$$
