DCL.pdb
     RDKit          3D

 23 22  0  0  1  0  0  0  0  0999 V2000
   10.9245  -18.5092   20.8691 N   0  0  0  0  0  0  0  0  0  0  0  0
   10.7409  -17.0476   20.6510 C   0  0  1  0  0  0  0  0  0  0  0  0
   10.3795  -16.8979   19.2113 C   0  0  0  0  0  0  0  0  0  0  0  0
   11.5066  -17.1635   18.3345 C   0  0  0  0  0  0  0  0  0  0  0  0
   11.3622  -17.3563   17.1155 O   0  0  0  0  0  0  0  0  0  0  0  0
    9.5776  -16.6755   21.5333 C   0  0  0  0  0  0  0  0  0  0  0  0
    9.0169  -15.5788   21.3924 O   0  0  0  0  0  0  0  0  0  0  0  0
   12.8204  -17.2171   18.8154 O   0  0  0  0  0  0  0  0  0  0  0  0
    9.0899  -17.5554   22.5429 N   0  0  0  0  0  0  0  0  0  0  0  0
    8.0000  -17.2147   23.4331 C   0  0  1  0  0  0  0  0  0  0  0  0
    7.4440  -18.4365   24.1357 C   0  0  0  0  0  0  0  0  0  0  0  0
    6.0808  -17.8872   25.1814 S   0  0  0  0  0  0  0  0  0  0  0  0
    8.6006  -16.3579   24.5204 C   0  0  0  0  0  0  0  0  0  0  0  0
    9.8487  -16.4531   24.7107 O   0  0  0  0  0  0  0  0  0  0  0  0
    5.8641  -11.8320   26.3215 C   0  0  0  0  0  0  0  0  0  0  0  0
    6.9339  -12.7412   25.8561 C   0  0  1  0  0  0  0  0  0  0  0  0
    7.9715  -11.9801   25.0029 C   0  0  0  0  0  0  0  0  0  0  0  0
    7.6142  -13.6230   26.8013 C   0  0  0  0  0  0  0  0  0  0  0  0
    8.5235  -14.7049   26.3693 C   0  0  2  0  0  0  0  0  0  0  0  0
    7.8554  -15.4913   25.3000 N   0  0  0  0  0  0  0  0  0  0  0  0
    8.8846  -15.7022   27.3859 C   0  0  0  0  0  0  0  0  0  0  0  0
    9.8240  -15.5118   28.3925 O   0  0  0  0  0  0  0  0  0  0  0  0
    8.3027  -16.8475   27.3558 O   0  0  0  0  0  0  0  0  0  0  0  0
  2  1  1  6
  2  3  1  0
  3  4  1  0
  4  8  1  0
  5  4  2  0
  6  2  1  0
  7  6  2  0
  9  6  1  0
 10 13  1  0
 10  9  1  0
 10 11  1  1
 12 11  1  0
 13 20  1  0
 14 13  2  0
 16 15  1  1
 16 17  1  0
 18 16  1  0
 19 18  1  1
 20 19  1  0
 21 19  1  0
 21 22  1  0
 23 21  2  0
M  END
$$$$
