DCL.pdb
     RDKit          3D

 23 22  0  0  1  0  0  0  0  0999 V2000
   10.6957  -18.6515   20.3844 N   0  0  0  0  0  0  0  0  0  0  0  0
   11.4695  -17.5583   21.0353 C   0  0  1  0  0  0  0  0  0  0  0  0
   11.5126  -16.4479   20.0400 C   0  0  0  0  0  0  0  0  0  0  0  0
   12.5475  -16.6494   19.0409 C   0  0  0  0  0  0  0  0  0  0  0  0
   13.4417  -17.5007   19.1806 O   0  0  0  0  0  0  0  0  0  0  0  0
   10.6417  -17.1683   22.2324 C   0  0  0  0  0  0  0  0  0  0  0  0
   10.3503  -15.9788   22.4254 O   0  0  0  0  0  0  0  0  0  0  0  0
   12.5946  -15.8939   17.8631 O   0  0  0  0  0  0  0  0  0  0  0  0
   10.1732  -18.1359   23.1681 N   0  0  0  0  0  0  0  0  0  0  0  0
    9.3859  -17.7950   24.3346 C   0  0  1  0  0  0  0  0  0  0  0  0
    8.4803  -18.9345   24.7552 C   0  0  0  0  0  0  0  0  0  0  0  0
    9.5206  -20.3839   25.0213 S   0  0  0  0  0  0  0  0  0  0  0  0
   10.3693  -17.6178   25.4654 C   0  0  0  0  0  0  0  0  0  0  0  0
   11.5585  -18.0037   25.2654 O   0  0  0  0  0  0  0  0  0  0  0  0
    9.8333  -13.6969   29.5428 C   0  0  0  0  0  0  0  0  0  0  0  0
    9.8153  -14.7883   28.5448 C   0  0  1  0  0  0  0  0  0  0  0  0
    9.0716  -14.3519   27.2641 C   0  0  0  0  0  0  0  0  0  0  0  0
   11.0499  -15.4851   28.1928 C   0  0  0  0  0  0  0  0  0  0  0  0
   11.0692  -16.8889   27.7315 C   0  0  2  0  0  0  0  0  0  0  0  0
   10.0281  -17.0618   26.6854 N   0  0  0  0  0  0  0  0  0  0  0  0
   10.7522  -17.9131   28.7362 C   0  0  0  0  0  0  0  0  0  0  0  0
   11.5145  -18.1859   29.8659 O   0  0  0  0  0  0  0  0  0  0  0  0
    9.6960  -18.6265   28.5730 O   0  0  0  0  0  0  0  0  0  0  0  0
  2  1  1  6
  2  3  1  0
  3  4  1  0
  4  8  1  0
  5  4  2  0
  6  2  1  0
  7  6  2  0
  9  6  1  0
 10 13  1  0
 10  9  1  0
 10 11  1  1
 12 11  1  0
 13 20  1  0
 14 13  2  0
 16 15  1  1
 16 17  1  0
 18 16  1  0
 19 18  1  1
 20 19  1  0
 21 19  1  0
 21 22  1  0
 23 21  2  0
M  END
$$$$
