DCL.pdb
     RDKit          3D

 23 22  0  0  1  0  0  0  0  0999 V2000
   10.9176  -18.8512   18.8440 N   0  0  0  0  0  0  0  0  0  0  0  0
   11.3919  -18.2130   20.1031 C   0  0  1  0  0  0  0  0  0  0  0  0
   12.0775  -16.9561   19.6838 C   0  0  0  0  0  0  0  0  0  0  0  0
   13.5124  -17.1357   19.5475 C   0  0  0  0  0  0  0  0  0  0  0  0
   14.1563  -17.8904   20.2957 O   0  0  0  0  0  0  0  0  0  0  0  0
   10.1321  -17.9022   20.8689 C   0  0  0  0  0  0  0  0  0  0  0  0
    9.0613  -17.7424   20.2648 O   0  0  0  0  0  0  0  0  0  0  0  0
   14.2507  -16.4668   18.5637 O   0  0  0  0  0  0  0  0  0  0  0  0
   10.1274  -17.7830   22.2891 N   0  0  0  0  0  0  0  0  0  0  0  0
    8.9155  -17.6459   23.0696 C   0  0  1  0  0  0  0  0  0  0  0  0
    8.7071  -18.8251   23.9977 C   0  0  0  0  0  0  0  0  0  0  0  0
   10.3034  -19.2205   24.7388 S   0  0  0  0  0  0  0  0  0  0  0  0
    9.1301  -16.4531   23.9687 C   0  0  0  0  0  0  0  0  0  0  0  0
   10.3259  -16.0964   24.1832 O   0  0  0  0  0  0  0  0  0  0  0  0
    7.6137  -11.2711   25.9315 C   0  0  0  0  0  0  0  0  0  0  0  0
    7.1070  -12.5770   26.4063 C   0  0  1  0  0  0  0  0  0  0  0  0
    5.6855  -12.4366   26.9924 C   0  0  0  0  0  0  0  0  0  0  0  0
    7.1774  -13.7528   25.5424 C   0  0  0  0  0  0  0  0  0  0  0  0
    8.3937  -14.5838   25.4248 C   0  0  2  0  0  0  0  0  0  0  0  0
    8.0925  -15.7501   24.5546 N   0  0  0  0  0  0  0  0  0  0  0  0
    8.9046  -15.1769   26.6681 C   0  0  0  0  0  0  0  0  0  0  0  0
    8.5632  -16.4345   27.1517 O   0  0  0  0  0  0  0  0  0  0  0  0
    9.7272  -14.4940   27.3809 O   0  0  0  0  0  0  0  0  0  0  0  0
  2  1  1  6
  2  3  1  0
  3  4  1  0
  4  8  1  0
  5  4  2  0
  6  2  1  0
  7  6  2  0
  9  6  1  0
 10 13  1  0
 10  9  1  0
 10 11  1  1
 12 11  1  0
 13 20  1  0
 14 13  2  0
 16 15  1  6
 16 17  1  0
 18 16  1  0
 19 18  1  1
 20 19  1  0
 21 19  1  0
 21 22  1  0
 23 21  2  0
M  END
$$$$
