NWG.pdb
     RDKit          3D

 27 28  0  0  1  0  0  0  0  0999 V2000
    8.1908  -17.2753   18.3259 N   0  0  0  0  0  0  0  0  0  0  0  0
    7.6069  -16.1087   18.8741 C   0  0  0  0  0  0  0  0  0  0  0  0
    6.8273  -15.4061   18.1968 O   0  0  0  0  0  0  0  0  0  0  0  0
    7.9238  -15.7215   20.2606 C   0  0  0  0  0  0  0  0  0  0  0  0
    8.9776  -16.6684   20.8122 C   0  0  2  0  0  0  0  0  0  0  0  0
    8.2272  -17.8502   21.2568 N   0  0  0  0  0  0  0  0  0  0  0  0
    9.5433  -16.0198   22.0109 C   0  0  0  0  0  0  0  0  0  0  0  0
   10.2362  -14.9660   21.9259 O   0  0  0  0  0  0  0  0  0  0  0  0
    9.3208  -16.5746   23.3271 N   0  0  0  0  0  0  0  0  0  0  0  0
   10.0013  -16.0453   24.4655 C   0  0  1  0  0  0  0  0  0  0  0  0
    9.2179  -15.8993   25.7075 C   0  0  0  0  0  0  0  0  0  0  0  0
    7.8879  -15.3235   25.6352 C   0  0  0  0  0  0  0  0  0  0  0  0
    6.6629  -15.9107   25.4307 C   0  0  0  0  0  0  0  0  0  0  0  0
    5.6916  -14.9539   25.4480 N   0  0  0  0  0  0  0  0  0  0  0  0
    6.2918  -13.7772   25.6604 C   0  0  0  0  0  0  0  0  0  0  0  0
    5.8035  -12.4736   25.7754 C   0  0  0  0  0  0  0  0  0  0  0  0
    6.6265  -11.3907   26.0023 C   0  0  0  0  0  0  0  0  0  0  0  0
    7.9856  -11.5939   26.1215 C   0  0  0  0  0  0  0  0  0  0  0  0
    8.4743  -12.8740   26.0096 C   0  0  0  0  0  0  0  0  0  0  0  0
    7.6315  -13.9727   25.7786 C   0  0  0  0  0  0  0  0  0  0  0  0
   11.3320  -16.7068   24.6814 C   0  0  0  0  0  0  0  0  0  0  0  0
   12.0524  -16.2703   25.6054 O   0  0  0  0  0  0  0  0  0  0  0  0
   11.8104  -17.7862   23.9042 N   0  0  0  0  0  0  0  0  0  0  0  0
   13.0909  -18.4201   24.0794 C   0  0  0  0  0  0  0  0  0  0  0  0
   13.3083  -18.9427   25.4298 C   0  0  0  0  0  0  0  0  0  0  0  0
   12.8585  -20.1933   25.7749 O   0  0  0  0  0  0  0  0  0  0  0  0
   13.9051  -18.2479   26.2721 O   0  0  0  0  0  0  0  0  0  0  0  0
  2  1  1  0
  3  2  2  0
  4  2  1  0
  5  4  1  0
  5  7  1  0
  5  6  1  1
  7  8  2  0
  9  7  1  0
  9 10  1  0
 10 11  1  1
 12 11  1  0
 12 20  1  0
 13 14  1  0
 13 12  2  0
 14 15  1  0
 15 16  1  0
 15 20  2  0
 16 17  2  0
 17 18  1  0
 19 18  2  0
 20 19  1  0
 21 10  1  0
 21 22  2  0
 23 21  1  0
 24 23  1  0
 25 24  1  0
 26 25  1  0
 27 25  2  0
M  END
$$$$
