NWG.pdb
     RDKit          3D

 27 28  0  0  1  0  0  0  0  0999 V2000
    6.6363  -13.4365   18.6856 N   0  0  0  0  0  0  0  0  0  0  0  0
    7.8583  -13.9609   19.1695 C   0  0  0  0  0  0  0  0  0  0  0  0
    8.7202  -14.4031   18.3811 O   0  0  0  0  0  0  0  0  0  0  0  0
    8.1140  -13.9833   20.6210 C   0  0  0  0  0  0  0  0  0  0  0  0
    8.8111  -15.2851   20.9826 C   0  0  2  0  0  0  0  0  0  0  0  0
    7.7258  -16.2614   21.1457 N   0  0  0  0  0  0  0  0  0  0  0  0
    9.4315  -15.0796   22.3056 C   0  0  0  0  0  0  0  0  0  0  0  0
   10.1712  -14.0817   22.5395 O   0  0  0  0  0  0  0  0  0  0  0  0
    9.2105  -16.0203   23.3808 N   0  0  0  0  0  0  0  0  0  0  0  0
    9.9211  -15.8980   24.6134 C   0  0  1  0  0  0  0  0  0  0  0  0
    9.1164  -15.8445   25.8492 C   0  0  0  0  0  0  0  0  0  0  0  0
    7.8062  -15.2222   25.8076 C   0  0  0  0  0  0  0  0  0  0  0  0
    6.5651  -15.7537   25.5536 C   0  0  0  0  0  0  0  0  0  0  0  0
    5.6247  -14.7695   25.6306 N   0  0  0  0  0  0  0  0  0  0  0  0
    6.2600  -13.6305   25.9291 C   0  0  0  0  0  0  0  0  0  0  0  0
    5.8124  -12.3229   26.1312 C   0  0  0  0  0  0  0  0  0  0  0  0
    6.6672  -11.2857   26.4393 C   0  0  0  0  0  0  0  0  0  0  0  0
    8.0179  -11.5407   26.5539 C   0  0  0  0  0  0  0  0  0  0  0  0
    8.4666  -12.8250   26.3564 C   0  0  0  0  0  0  0  0  0  0  0  0
    7.5916  -13.8771   26.0431 C   0  0  0  0  0  0  0  0  0  0  0  0
   11.0684  -16.8631   24.6976 C   0  0  0  0  0  0  0  0  0  0  0  0
   10.9728  -17.8066   25.5126 O   0  0  0  0  0  0  0  0  0  0  0  0
   12.2402  -16.7643   23.9132 N   0  0  0  0  0  0  0  0  0  0  0  0
   13.3375  -17.6950   23.9553 C   0  0  0  0  0  0  0  0  0  0  0  0
   14.4197  -17.3706   23.0237 C   0  0  0  0  0  0  0  0  0  0  0  0
   15.6311  -16.9230   23.4901 O   0  0  0  0  0  0  0  0  0  0  0  0
   14.2402  -17.5012   21.7994 O   0  0  0  0  0  0  0  0  0  0  0  0
  2  1  1  0
  3  2  2  0
  4  2  1  0
  5  4  1  0
  5  7  1  0
  5  6  1  1
  7  8  2  0
  9  7  1  0
  9 10  1  0
 10 11  1  1
 12 11  1  0
 12 20  1  0
 13 14  1  0
 13 12  2  0
 14 15  1  0
 15 16  1  0
 15 20  2  0
 16 17  2  0
 17 18  1  0
 19 18  2  0
 20 19  1  0
 21 10  1  0
 21 22  2  0
 23 21  1  0
 24 23  1  0
 25 24  1  0
 26 25  1  0
 27 25  2  0
M  END
$$$$
