NWG.pdb
     RDKit          3D

 27 28  0  0  1  0  0  0  0  0999 V2000
    8.1548  -17.8972   18.6846 N   0  0  0  0  0  0  0  0  0  0  0  0
    7.7765  -16.5569   18.9355 C   0  0  0  0  0  0  0  0  0  0  0  0
    7.1398  -15.9028   18.0830 O   0  0  0  0  0  0  0  0  0  0  0  0
    8.1391  -15.9288   20.2188 C   0  0  0  0  0  0  0  0  0  0  0  0
    9.0902  -16.8467   20.9699 C   0  0  2  0  0  0  0  0  0  0  0  0
    8.2467  -17.9453   21.4588 N   0  0  0  0  0  0  0  0  0  0  0  0
    9.5676  -16.0917   22.1444 C   0  0  0  0  0  0  0  0  0  0  0  0
   10.2635  -15.0442   22.0170 O   0  0  0  0  0  0  0  0  0  0  0  0
    9.2519  -16.5309   23.4850 N   0  0  0  0  0  0  0  0  0  0  0  0
    9.9607  -16.0080   24.6089 C   0  0  1  0  0  0  0  0  0  0  0  0
    9.1948  -15.8182   25.8560 C   0  0  0  0  0  0  0  0  0  0  0  0
    7.8858  -15.1958   25.7882 C   0  0  0  0  0  0  0  0  0  0  0  0
    6.6574  -15.7168   25.4612 C   0  0  0  0  0  0  0  0  0  0  0  0
    5.7120  -14.7377   25.5426 N   0  0  0  0  0  0  0  0  0  0  0  0
    6.3317  -13.6122   25.9157 C   0  0  0  0  0  0  0  0  0  0  0  0
    5.8728  -12.3150   26.1561 C   0  0  0  0  0  0  0  0  0  0  0  0
    6.7118  -11.2914   26.5433 C   0  0  0  0  0  0  0  0  0  0  0  0
    8.0574  -11.5500   26.7016 C   0  0  0  0  0  0  0  0  0  0  0  0
    8.5171  -12.8241   26.4670 C   0  0  0  0  0  0  0  0  0  0  0  0
    7.6582  -13.8624   26.0730 C   0  0  0  0  0  0  0  0  0  0  0  0
   11.2709  -16.7099   24.8221 C   0  0  0  0  0  0  0  0  0  0  0  0
   12.0871  -16.1854   25.6108 O   0  0  0  0  0  0  0  0  0  0  0  0
   11.6289  -17.9202   24.1856 N   0  0  0  0  0  0  0  0  0  0  0  0
   12.9044  -18.5734   24.3214 C   0  0  0  0  0  0  0  0  0  0  0  0
   13.0031  -19.4305   25.5045 C   0  0  0  0  0  0  0  0  0  0  0  0
   14.1553  -20.1305   25.7648 O   0  0  0  0  0  0  0  0  0  0  0  0
   12.0350  -19.5259   26.2803 O   0  0  0  0  0  0  0  0  0  0  0  0
  2  1  1  0
  3  2  2  0
  4  2  1  0
  5  4  1  0
  5  7  1  0
  5  6  1  1
  7  8  2  0
  9  7  1  0
  9 10  1  0
 10 11  1  1
 12 11  1  0
 12 20  1  0
 13 14  1  0
 13 12  2  0
 14 15  1  0
 15 16  1  0
 15 20  2  0
 16 17  2  0
 17 18  1  0
 19 18  2  0
 20 19  1  0
 21 10  1  0
 21 22  2  0
 23 21  1  0
 24 23  1  0
 25 24  1  0
 26 25  1  0
 27 25  2  0
M  END
$$$$
