NWG.pdb
     RDKit          3D

 27 28  0  0  1  0  0  0  0  0999 V2000
    7.8301  -12.6693   18.1545 N   0  0  0  0  0  0  0  0  0  0  0  0
    7.6555  -13.8373   18.9340 C   0  0  0  0  0  0  0  0  0  0  0  0
    7.2473  -14.8970   18.4141 O   0  0  0  0  0  0  0  0  0  0  0  0
    7.9607  -13.7996   20.3757 C   0  0  0  0  0  0  0  0  0  0  0  0
    8.7195  -15.0609   20.7559 C   0  0  2  0  0  0  0  0  0  0  0  0
    7.6894  -16.1023   20.8654 N   0  0  0  0  0  0  0  0  0  0  0  0
    9.2707  -14.8324   22.1055 C   0  0  0  0  0  0  0  0  0  0  0  0
    9.9124  -13.7803   22.3866 O   0  0  0  0  0  0  0  0  0  0  0  0
    9.0926  -15.8122   23.1534 N   0  0  0  0  0  0  0  0  0  0  0  0
    9.8109  -15.7031   24.3827 C   0  0  1  0  0  0  0  0  0  0  0  0
    9.0362  -15.8607   25.6287 C   0  0  0  0  0  0  0  0  0  0  0  0
    7.7554  -15.1894   25.7488 C   0  0  0  0  0  0  0  0  0  0  0  0
    6.4740  -15.6624   25.6015 C   0  0  0  0  0  0  0  0  0  0  0  0
    5.5877  -14.6489   25.8168 N   0  0  0  0  0  0  0  0  0  0  0  0
    6.2965  -13.5492   26.0966 C   0  0  0  0  0  0  0  0  0  0  0  0
    5.9261  -12.2369   26.3993 C   0  0  0  0  0  0  0  0  0  0  0  0
    6.8499  -11.2473   26.6616 C   0  0  0  0  0  0  0  0  0  0  0  0
    8.1936  -11.5569   26.6256 C   0  0  0  0  0  0  0  0  0  0  0  0
    8.5665  -12.8463   26.3284 C   0  0  0  0  0  0  0  0  0  0  0  0
    7.6214  -13.8497   26.0623 C   0  0  0  0  0  0  0  0  0  0  0  0
   11.0752  -16.5132   24.3675 C   0  0  0  0  0  0  0  0  0  0  0  0
   11.0005  -17.7097   24.7226 O   0  0  0  0  0  0  0  0  0  0  0  0
   12.3339  -16.0017   23.9774 N   0  0  0  0  0  0  0  0  0  0  0  0
   13.5727  -16.7320   24.0414 C   0  0  0  0  0  0  0  0  0  0  0  0
   13.9645  -17.3379   22.7673 C   0  0  0  0  0  0  0  0  0  0  0  0
   14.9219  -16.7481   21.9792 O   0  0  0  0  0  0  0  0  0  0  0  0
   13.4254  -18.3957   22.3950 O   0  0  0  0  0  0  0  0  0  0  0  0
  2  1  1  0
  3  2  2  0
  4  2  1  0
  5  4  1  0
  5  7  1  0
  5  6  1  1
  7  8  2  0
  9  7  1  0
  9 10  1  0
 10 11  1  1
 12 11  1  0
 12 20  1  0
 13 14  1  0
 13 12  2  0
 14 15  1  0
 15 16  1  0
 15 20  2  0
 16 17  2  0
 17 18  1  0
 19 18  2  0
 20 19  1  0
 21 10  1  0
 21 22  2  0
 23 21  1  0
 24 23  1  0
 25 24  1  0
 26 25  1  0
 27 25  2  0
M  END
$$$$
