NWG.pdb
     RDKit          3D

 27 28  0  0  1  0  0  0  0  0999 V2000
    9.6790  -14.9773   18.6531 N   0  0  0  0  0  0  0  0  0  0  0  0
    9.2970  -15.8745   19.6785 C   0  0  0  0  0  0  0  0  0  0  0  0
    8.7498  -16.9630   19.4034 O   0  0  0  0  0  0  0  0  0  0  0  0
    9.5501  -15.5177   21.0862 C   0  0  0  0  0  0  0  0  0  0  0  0
   10.0296  -16.7521   21.8330 C   0  0  2  0  0  0  0  0  0  0  0  0
    8.8464  -17.6170   21.9308 N   0  0  0  0  0  0  0  0  0  0  0  0
   10.3770  -16.3123   23.1981 C   0  0  0  0  0  0  0  0  0  0  0  0
   11.2529  -15.4240   23.4021 O   0  0  0  0  0  0  0  0  0  0  0  0
    9.7218  -16.8887   24.3506 N   0  0  0  0  0  0  0  0  0  0  0  0
   10.1293  -16.5353   25.6728 C   0  0  1  0  0  0  0  0  0  0  0  0
    9.0646  -16.1770   26.6297 C   0  0  0  0  0  0  0  0  0  0  0  0
    7.8431  -15.5755   26.1281 C   0  0  0  0  0  0  0  0  0  0  0  0
    6.6801  -16.1469   25.6716 C   0  0  0  0  0  0  0  0  0  0  0  0
    5.8051  -15.1671   25.3064 N   0  0  0  0  0  0  0  0  0  0  0  0
    6.4042  -13.9916   25.5281 C   0  0  0  0  0  0  0  0  0  0  0  0
    5.9907  -12.6700   25.3451 C   0  0  0  0  0  0  0  0  0  0  0  0
    6.7940  -11.5923   25.6528 C   0  0  0  0  0  0  0  0  0  0  0  0
    8.0559  -11.8193   26.1614 C   0  0  0  0  0  0  0  0  0  0  0  0
    8.4705  -13.1171   26.3446 C   0  0  0  0  0  0  0  0  0  0  0  0
    7.6482  -14.2105   26.0295 C   0  0  0  0  0  0  0  0  0  0  0  0
   11.1225  -17.5120   26.2336 C   0  0  0  0  0  0  0  0  0  0  0  0
   11.4914  -17.3476   27.4169 O   0  0  0  0  0  0  0  0  0  0  0  0
   11.6586  -18.5973   25.5035 N   0  0  0  0  0  0  0  0  0  0  0  0
   12.5071  -19.6199   26.0569 C   0  0  0  0  0  0  0  0  0  0  0  0
   13.9258  -19.2582   26.0794 C   0  0  0  0  0  0  0  0  0  0  0  0
   14.3465  -18.0523   25.5750 O   0  0  0  0  0  0  0  0  0  0  0  0
   14.7573  -20.0499   26.5590 O   0  0  0  0  0  0  0  0  0  0  0  0
  2  1  1  0
  3  2  2  0
  4  2  1  0
  5  4  1  0
  5  7  1  0
  5  6  1  1
  7  8  2  0
  9  7  1  0
  9 10  1  0
 10 11  1  1
 12 11  1  0
 12 20  1  0
 13 14  1  0
 13 12  2  0
 14 15  1  0
 15 16  1  0
 15 20  2  0
 16 17  2  0
 17 18  1  0
 19 18  2  0
 20 19  1  0
 21 10  1  0
 21 22  2  0
 23 21  1  0
 24 23  1  0
 25 24  1  0
 26 25  1  0
 27 25  2  0
M  END
$$$$
