NWG.pdb
     RDKit          3D

 27 28  0  0  1  0  0  0  0  0999 V2000
    5.7040  -16.1861   19.2471 N   0  0  0  0  0  0  0  0  0  0  0  0
    7.0942  -15.9219   19.2425 C   0  0  0  0  0  0  0  0  0  0  0  0
    7.7917  -16.1895   18.2416 O   0  0  0  0  0  0  0  0  0  0  0  0
    7.7229  -15.3232   20.4337 C   0  0  0  0  0  0  0  0  0  0  0  0
    8.8466  -16.2293   20.9107 C   0  0  2  0  0  0  0  0  0  0  0  0
    8.1831  -17.4817   21.2966 N   0  0  0  0  0  0  0  0  0  0  0  0
    9.3933  -15.6160   22.1364 C   0  0  0  0  0  0  0  0  0  0  0  0
    9.8940  -14.4554   22.1265 O   0  0  0  0  0  0  0  0  0  0  0  0
    9.3729  -16.3294   23.3936 N   0  0  0  0  0  0  0  0  0  0  0  0
   10.1508  -15.8753   24.5017 C   0  0  1  0  0  0  0  0  0  0  0  0
    9.4495  -15.7053   25.7889 C   0  0  0  0  0  0  0  0  0  0  0  0
    8.0768  -15.2351   25.7839 C   0  0  0  0  0  0  0  0  0  0  0  0
    6.8945  -15.9112   25.6038 C   0  0  0  0  0  0  0  0  0  0  0  0
    5.8528  -15.0356   25.6883 N   0  0  0  0  0  0  0  0  0  0  0  0
    6.3667  -13.8220   25.9186 C   0  0  0  0  0  0  0  0  0  0  0  0
    5.7827  -12.5655   26.0949 C   0  0  0  0  0  0  0  0  0  0  0  0
    6.5265  -11.4281   26.3285 C   0  0  0  0  0  0  0  0  0  0  0  0
    7.9009  -11.5263   26.3919 C   0  0  0  0  0  0  0  0  0  0  0  0
    8.4836  -12.7594   26.2194 C   0  0  0  0  0  0  0  0  0  0  0  0
    7.7211  -13.9140   25.9819 C   0  0  0  0  0  0  0  0  0  0  0  0
   11.4418  -16.6319   24.6284 C   0  0  0  0  0  0  0  0  0  0  0  0
   11.3995  -17.7648   25.1558 O   0  0  0  0  0  0  0  0  0  0  0  0
   12.6908  -16.1378   24.1882 N   0  0  0  0  0  0  0  0  0  0  0  0
   13.9343  -16.8581   24.2714 C   0  0  0  0  0  0  0  0  0  0  0  0
   15.0853  -16.1040   23.7706 C   0  0  0  0  0  0  0  0  0  0  0  0
   15.0291  -15.4723   22.5527 O   0  0  0  0  0  0  0  0  0  0  0  0
   16.1230  -16.0352   24.4537 O   0  0  0  0  0  0  0  0  0  0  0  0
  2  1  1  0
  3  2  2  0
  4  2  1  0
  5  4  1  0
  5  7  1  0
  5  6  1  1
  7  8  2  0
  9  7  1  0
  9 10  1  0
 10 11  1  1
 12 11  1  0
 12 20  1  0
 13 14  1  0
 13 12  2  0
 14 15  1  0
 15 16  1  0
 15 20  2  0
 16 17  2  0
 17 18  1  0
 19 18  2  0
 20 19  1  0
 21 10  1  0
 21 22  2  0
 23 21  1  0
 24 23  1  0
 25 24  1  0
 26 25  1  0
 27 25  2  0
M  END
$$$$
