NWG.pdb
     RDKit          3D

 27 28  0  0  1  0  0  0  0  0999 V2000
    8.3413  -18.9863   18.8007 N   0  0  0  0  0  0  0  0  0  0  0  0
    7.9142  -17.6417   18.6907 C   0  0  0  0  0  0  0  0  0  0  0  0
    7.1591  -17.2856   17.7619 O   0  0  0  0  0  0  0  0  0  0  0  0
    8.3670  -16.6530   19.6859 C   0  0  0  0  0  0  0  0  0  0  0  0
    7.8206  -17.0369   21.0517 C   0  0  2  0  0  0  0  0  0  0  0  0
    6.3847  -16.7356   20.9818 N   0  0  0  0  0  0  0  0  0  0  0  0
    8.4263  -16.1086   22.0258 C   0  0  0  0  0  0  0  0  0  0  0  0
    8.6521  -14.8999   21.7328 O   0  0  0  0  0  0  0  0  0  0  0  0
    8.7823  -16.5572   23.3531 N   0  0  0  0  0  0  0  0  0  0  0  0
    9.7834  -15.8746   24.1088 C   0  0  1  0  0  0  0  0  0  0  0  0
    9.3583  -15.2518   25.3772 C   0  0  0  0  0  0  0  0  0  0  0  0
    7.9584  -14.9164   25.5602 C   0  0  0  0  0  0  0  0  0  0  0  0
    6.8285  -15.6933   25.4771 C   0  0  0  0  0  0  0  0  0  0  0  0
    5.7303  -14.9275   25.7353 N   0  0  0  0  0  0  0  0  0  0  0  0
    6.1575  -13.6832   25.9786 C   0  0  0  0  0  0  0  0  0  0  0  0
    5.4887  -12.4993   26.2983 C   0  0  0  0  0  0  0  0  0  0  0  0
    6.1504  -11.3088   26.5137 C   0  0  0  0  0  0  0  0  0  0  0  0
    7.5256  -11.2771   26.4113 C   0  0  0  0  0  0  0  0  0  0  0  0
    8.1913  -12.4381   26.0970 C   0  0  0  0  0  0  0  0  0  0  0  0
    7.5123  -13.6473   25.8789 C   0  0  0  0  0  0  0  0  0  0  0  0
   11.0379  -16.6890   24.2426 C   0  0  0  0  0  0  0  0  0  0  0  0
   11.1804  -17.3660   25.2841 O   0  0  0  0  0  0  0  0  0  0  0  0
   12.0575  -16.7317   23.2645 N   0  0  0  0  0  0  0  0  0  0  0  0
   13.4433  -16.4287   23.5091 C   0  0  0  0  0  0  0  0  0  0  0  0
   14.2890  -16.5429   22.3192 C   0  0  0  0  0  0  0  0  0  0  0  0
   14.4353  -17.7495   21.6804 O   0  0  0  0  0  0  0  0  0  0  0  0
   14.8805  -15.5387   21.8834 O   0  0  0  0  0  0  0  0  0  0  0  0
  2  1  1  0
  3  2  2  0
  4  2  1  0
  5  4  1  0
  5  7  1  0
  5  6  1  6
  7  8  2  0
  9  7  1  0
  9 10  1  0
 10 11  1  1
 12 11  1  0
 12 20  1  0
 13 14  1  0
 13 12  2  0
 14 15  1  0
 15 16  1  0
 15 20  2  0
 16 17  2  0
 17 18  1  0
 19 18  2  0
 20 19  1  0
 21 10  1  0
 21 22  2  0
 23 21  1  0
 24 23  1  0
 25 24  1  0
 26 25  1  0
 27 25  2  0
M  END
$$$$
