NWG.pdb
     RDKit          3D

 27 28  0  0  1  0  0  0  0  0999 V2000
    7.6757  -13.7602   18.2360 N   0  0  0  0  0  0  0  0  0  0  0  0
    7.3617  -14.7575   19.1896 C   0  0  0  0  0  0  0  0  0  0  0  0
    6.7374  -15.7863   18.8556 O   0  0  0  0  0  0  0  0  0  0  0  0
    7.7784  -14.5771   20.5919 C   0  0  0  0  0  0  0  0  0  0  0  0
    8.9589  -15.4906   20.8808 C   0  0  2  0  0  0  0  0  0  0  0  0
    8.3982  -16.8481   20.8645 N   0  0  0  0  0  0  0  0  0  0  0  0
    9.3903  -15.2006   22.2618 C   0  0  0  0  0  0  0  0  0  0  0  0
    9.7523  -14.0406   22.6100 O   0  0  0  0  0  0  0  0  0  0  0  0
    9.4124  -16.2418   23.2643 N   0  0  0  0  0  0  0  0  0  0  0  0
    9.8899  -15.9735   24.5831 C   0  0  1  0  0  0  0  0  0  0  0  0
    8.9555  -16.2208   25.6982 C   0  0  0  0  0  0  0  0  0  0  0  0
    7.7150  -15.4701   25.7543 C   0  0  0  0  0  0  0  0  0  0  0  0
    6.4176  -15.8567   25.5204 C   0  0  0  0  0  0  0  0  0  0  0  0
    5.5860  -14.7917   25.7024 N   0  0  0  0  0  0  0  0  0  0  0  0
    6.3447  -13.7449   26.0468 C   0  0  0  0  0  0  0  0  0  0  0  0
    6.0405  -12.4165   26.3534 C   0  0  0  0  0  0  0  0  0  0  0  0
    7.0075  -11.4933   26.6912 C   0  0  0  0  0  0  0  0  0  0  0  0
    8.3284  -11.8885   26.7301 C   0  0  0  0  0  0  0  0  0  0  0  0
    8.6362  -13.1942   26.4297 C   0  0  0  0  0  0  0  0  0  0  0  0
    7.6475  -14.1298   26.0865 C   0  0  0  0  0  0  0  0  0  0  0  0
   11.2538  -16.5572   24.8156 C   0  0  0  0  0  0  0  0  0  0  0  0
   11.6332  -16.6884   25.9997 O   0  0  0  0  0  0  0  0  0  0  0  0
   12.1243  -16.9627   23.7784 N   0  0  0  0  0  0  0  0  0  0  0  0
   13.4129  -17.5722   23.9792 C   0  0  0  0  0  0  0  0  0  0  0  0
   14.0545  -18.0127   22.7389 C   0  0  0  0  0  0  0  0  0  0  0  0
   14.4524  -19.3178   22.5846 O   0  0  0  0  0  0  0  0  0  0  0  0
   14.2414  -17.1980   21.8172 O   0  0  0  0  0  0  0  0  0  0  0  0
  2  1  1  0
  3  2  2  0
  4  2  1  0
  5  4  1  0
  5  7  1  0
  5  6  1  1
  7  8  2  0
  9  7  1  0
  9 10  1  0
 10 11  1  1
 12 11  1  0
 12 20  1  0
 13 14  1  0
 13 12  2  0
 14 15  1  0
 15 16  1  0
 15 20  2  0
 16 17  2  0
 17 18  1  0
 19 18  2  0
 20 19  1  0
 21 10  1  0
 21 22  2  0
 23 21  1  0
 24 23  1  0
 25 24  1  0
 26 25  1  0
 27 25  2  0
M  END
$$$$
