NWG.pdb
     RDKit          3D

 27 28  0  0  1  0  0  0  0  0999 V2000
    8.2838  -12.7016   16.0305 N   0  0  0  0  0  0  0  0  0  0  0  0
    7.7467  -13.7674   16.7909 C   0  0  0  0  0  0  0  0  0  0  0  0
    7.3404  -14.8085   16.2331 O   0  0  0  0  0  0  0  0  0  0  0  0
    7.6681  -13.6446   18.2577 C   0  0  0  0  0  0  0  0  0  0  0  0
    8.8262  -14.4058   18.8827 C   0  0  2  0  0  0  0  0  0  0  0  0
    8.5536  -15.8181   18.5852 N   0  0  0  0  0  0  0  0  0  0  0  0
    8.7122  -14.2255   20.3428 C   0  0  0  0  0  0  0  0  0  0  0  0
    8.8779  -13.0946   20.8828 O   0  0  0  0  0  0  0  0  0  0  0  0
    8.4060  -15.3446   21.2051 N   0  0  0  0  0  0  0  0  0  0  0  0
    8.3771  -15.1847   22.6238 C   0  0  1  0  0  0  0  0  0  0  0  0
    7.0632  -15.3010   23.2854 C   0  0  0  0  0  0  0  0  0  0  0  0
    6.9595  -14.9934   24.6997 C   0  0  0  0  0  0  0  0  0  0  0  0
    6.7561  -15.8098   25.7858 C   0  0  0  0  0  0  0  0  0  0  0  0
    6.7362  -15.0573   26.9226 N   0  0  0  0  0  0  0  0  0  0  0  0
    6.9242  -13.7825   26.5629 C   0  0  0  0  0  0  0  0  0  0  0  0
    6.9983  -12.5946   27.2941 C   0  0  0  0  0  0  0  0  0  0  0  0
    7.2061  -11.3686   26.6980 C   0  0  0  0  0  0  0  0  0  0  0  0
    7.3470  -11.3040   25.3274 C   0  0  0  0  0  0  0  0  0  0  0  0
    7.2752  -12.4686   24.6005 C   0  0  0  0  0  0  0  0  0  0  0  0
    7.0636  -13.7140   25.2128 C   0  0  0  0  0  0  0  0  0  0  0  0
    9.4516  -15.9861   23.3007 C   0  0  0  0  0  0  0  0  0  0  0  0
    9.4804  -15.9765   24.5507 O   0  0  0  0  0  0  0  0  0  0  0  0
   10.4237  -16.7436   22.6083 N   0  0  0  0  0  0  0  0  0  0  0  0
   11.4575  -17.5236   23.2368 C   0  0  0  0  0  0  0  0  0  0  0  0
   12.7532  -16.8441   23.2953 C   0  0  0  0  0  0  0  0  0  0  0  0
   13.4710  -16.6104   22.1483 O   0  0  0  0  0  0  0  0  0  0  0  0
   13.2081  -16.4757   24.3933 O   0  0  0  0  0  0  0  0  0  0  0  0
  2  1  1  0
  3  2  2  0
  4  2  1  0
  5  4  1  0
  5  7  1  0
  5  6  1  1
  7  8  2  0
  9  7  1  0
  9 10  1  0
 10 11  1  1
 12 11  1  0
 12 20  1  0
 13 14  1  0
 13 12  2  0
 14 15  1  0
 15 16  1  0
 15 20  2  0
 16 17  2  0
 17 18  1  0
 19 18  2  0
 20 19  1  0
 21 10  1  0
 21 22  2  0
 23 21  1  0
 24 23  1  0
 25 24  1  0
 26 25  1  0
 27 25  2  0
M  END
$$$$
