NWG.pdb
     RDKit          3D

 27 28  0  0  1  0  0  0  0  0999 V2000
    5.7116  -15.1244   19.4624 N   0  0  0  0  0  0  0  0  0  0  0  0
    7.1262  -15.1247   19.5005 C   0  0  0  0  0  0  0  0  0  0  0  0
    7.7918  -15.4694   18.5014 O   0  0  0  0  0  0  0  0  0  0  0  0
    7.8188  -14.7121   20.7345 C   0  0  0  0  0  0  0  0  0  0  0  0
    8.8076  -15.7952   21.1350 C   0  0  2  0  0  0  0  0  0  0  0  0
    7.9761  -16.9546   21.4843 N   0  0  0  0  0  0  0  0  0  0  0  0
    9.4683  -15.3295   22.3696 C   0  0  0  0  0  0  0  0  0  0  0  0
   10.1267  -14.2510   22.3988 O   0  0  0  0  0  0  0  0  0  0  0  0
    9.3819  -16.0987   23.5905 N   0  0  0  0  0  0  0  0  0  0  0  0
   10.2204  -15.7928   24.7052 C   0  0  1  0  0  0  0  0  0  0  0  0
    9.5577  -15.5934   26.0085 C   0  0  0  0  0  0  0  0  0  0  0  0
    8.1601  -15.2038   26.0333 C   0  0  0  0  0  0  0  0  0  0  0  0
    7.0173  -15.9380   25.8279 C   0  0  0  0  0  0  0  0  0  0  0  0
    5.9276  -15.1292   25.9594 N   0  0  0  0  0  0  0  0  0  0  0  0
    6.3726  -13.9001   26.2440 C   0  0  0  0  0  0  0  0  0  0  0  0
    5.7186  -12.6892   26.4828 C   0  0  0  0  0  0  0  0  0  0  0  0
    6.3975  -11.5228   26.7660 C   0  0  0  0  0  0  0  0  0  0  0  0
    7.7758  -11.5440   26.8171 C   0  0  0  0  0  0  0  0  0  0  0  0
    8.4271  -12.7318   26.5832 C   0  0  0  0  0  0  0  0  0  0  0  0
    7.7305  -13.9162   26.2955 C   0  0  0  0  0  0  0  0  0  0  0  0
   11.4086  -16.7079   24.7812 C   0  0  0  0  0  0  0  0  0  0  0  0
   11.2472  -17.8223   25.3248 O   0  0  0  0  0  0  0  0  0  0  0  0
   12.6879  -16.3814   24.2766 N   0  0  0  0  0  0  0  0  0  0  0  0
   13.8331  -17.2527   24.3159 C   0  0  0  0  0  0  0  0  0  0  0  0
   15.0593  -16.6354   23.8063 C   0  0  0  0  0  0  0  0  0  0  0  0
   15.9497  -16.0399   24.6654 O   0  0  0  0  0  0  0  0  0  0  0  0
   15.2964  -16.6501   22.5850 O   0  0  0  0  0  0  0  0  0  0  0  0
  2  1  1  0
  3  2  2  0
  4  2  1  0
  5  4  1  0
  5  7  1  0
  5  6  1  1
  7  8  2  0
  9  7  1  0
  9 10  1  0
 10 11  1  1
 12 11  1  0
 12 20  1  0
 13 14  1  0
 13 12  2  0
 14 15  1  0
 15 16  1  0
 15 20  2  0
 16 17  2  0
 17 18  1  0
 19 18  2  0
 20 19  1  0
 21 10  1  0
 21 22  2  0
 23 21  1  0
 24 23  1  0
 25 24  1  0
 26 25  1  0
 27 25  2  0
M  END
$$$$
