NWG.pdb
     RDKit          3D

 27 28  0  0  1  0  0  0  0  0999 V2000
    7.1066  -18.4185   19.5139 N   0  0  0  0  0  0  0  0  0  0  0  0
    6.3563  -17.2660   19.8472 C   0  0  0  0  0  0  0  0  0  0  0  0
    5.1932  -17.1149   19.4177 O   0  0  0  0  0  0  0  0  0  0  0  0
    6.9568  -16.2344   20.7121 C   0  0  0  0  0  0  0  0  0  0  0  0
    8.4411  -16.5221   20.8713 C   0  0  2  0  0  0  0  0  0  0  0  0
    8.5168  -17.9580   21.1714 N   0  0  0  0  0  0  0  0  0  0  0  0
    8.8877  -15.7894   22.0718 C   0  0  0  0  0  0  0  0  0  0  0  0
    9.0006  -14.5305   22.0723 O   0  0  0  0  0  0  0  0  0  0  0  0
    9.2122  -16.4947   23.2913 N   0  0  0  0  0  0  0  0  0  0  0  0
    9.8790  -15.8276   24.3634 C   0  0  1  0  0  0  0  0  0  0  0  0
    9.1773  -15.7749   25.6605 C   0  0  0  0  0  0  0  0  0  0  0  0
    7.8301  -15.2381   25.7088 C   0  0  0  0  0  0  0  0  0  0  0  0
    6.6125  -15.8433   25.5120 C   0  0  0  0  0  0  0  0  0  0  0  0
    5.6176  -14.9239   25.6669 N   0  0  0  0  0  0  0  0  0  0  0  0
    6.1956  -13.7528   25.9576 C   0  0  0  0  0  0  0  0  0  0  0  0
    5.6784  -12.4817   26.2178 C   0  0  0  0  0  0  0  0  0  0  0  0
    6.4821  -11.3981   26.5031 C   0  0  0  0  0  0  0  0  0  0  0  0
    7.8507  -11.5675   26.5347 C   0  0  0  0  0  0  0  0  0  0  0  0
    8.3678  -12.8155   26.2798 C   0  0  0  0  0  0  0  0  0  0  0  0
    7.5445  -13.9150   25.9900 C   0  0  0  0  0  0  0  0  0  0  0  0
   11.3131  -16.2558   24.4852 C   0  0  0  0  0  0  0  0  0  0  0  0
   11.7502  -16.4960   25.6318 O   0  0  0  0  0  0  0  0  0  0  0  0
   12.1882  -16.4006   23.3846 N   0  0  0  0  0  0  0  0  0  0  0  0
   13.5792  -16.7574   23.4829 C   0  0  0  0  0  0  0  0  0  0  0  0
   14.2671  -16.8037   22.1911 C   0  0  0  0  0  0  0  0  0  0  0  0
   14.8455  -15.6737   21.6677 O   0  0  0  0  0  0  0  0  0  0  0  0
   14.3278  -17.8755   21.5620 O   0  0  0  0  0  0  0  0  0  0  0  0
  2  1  1  0
  3  2  2  0
  4  2  1  0
  5  4  1  0
  5  7  1  0
  5  6  1  1
  7  8  2  0
  9  7  1  0
  9 10  1  0
 10 11  1  1
 12 11  1  0
 12 20  1  0
 13 14  1  0
 13 12  2  0
 14 15  1  0
 15 16  1  0
 15 20  2  0
 16 17  2  0
 17 18  1  0
 19 18  2  0
 20 19  1  0
 21 10  1  0
 21 22  2  0
 23 21  1  0
 24 23  1  0
 25 24  1  0
 26 25  1  0
 27 25  2  0
M  END
$$$$
