NWG.pdb
     RDKit          3D

 27 28  0  0  1  0  0  0  0  0999 V2000
    6.6719  -13.7333   19.2649 N   0  0  0  0  0  0  0  0  0  0  0  0
    7.8677  -14.4196   19.5833 C   0  0  0  0  0  0  0  0  0  0  0  0
    8.4499  -15.1189   18.7277 O   0  0  0  0  0  0  0  0  0  0  0  0
    8.4304  -14.3051   20.9409 C   0  0  0  0  0  0  0  0  0  0  0  0
    9.0151  -15.6472   21.3511 C   0  0  2  0  0  0  0  0  0  0  0  0
    7.8498  -16.5082   21.5926 N   0  0  0  0  0  0  0  0  0  0  0  0
    9.6920  -15.4360   22.6452 C   0  0  0  0  0  0  0  0  0  0  0  0
   10.6900  -14.6675   22.7500 O   0  0  0  0  0  0  0  0  0  0  0  0
    9.2309  -16.1070   23.8398 N   0  0  0  0  0  0  0  0  0  0  0  0
    9.9418  -15.9732   25.0710 C   0  0  1  0  0  0  0  0  0  0  0  0
    9.1453  -15.6712   26.2761 C   0  0  0  0  0  0  0  0  0  0  0  0
    7.8437  -15.0492   26.1198 C   0  0  0  0  0  0  0  0  0  0  0  0
    6.6243  -15.5857   25.7845 C   0  0  0  0  0  0  0  0  0  0  0  0
    5.6832  -14.5993   25.7661 N   0  0  0  0  0  0  0  0  0  0  0  0
    6.2967  -13.4539   26.0851 C   0  0  0  0  0  0  0  0  0  0  0  0
    5.8383  -12.1416   26.2214 C   0  0  0  0  0  0  0  0  0  0  0  0
    6.6697  -11.0979   26.5692 C   0  0  0  0  0  0  0  0  0  0  0  0
    8.0071  -11.3510   26.7926 C   0  0  0  0  0  0  0  0  0  0  0  0
    8.4664  -12.6400   26.6605 C   0  0  0  0  0  0  0  0  0  0  0  0
    7.6151  -13.6986   26.3063 C   0  0  0  0  0  0  0  0  0  0  0  0
   10.9228  -17.0913   25.2769 C   0  0  0  0  0  0  0  0  0  0  0  0
   11.9407  -16.8497   25.9616 O   0  0  0  0  0  0  0  0  0  0  0  0
   10.7600  -18.3902   24.7436 N   0  0  0  0  0  0  0  0  0  0  0  0
   11.6245  -19.5068   25.0230 C   0  0  0  0  0  0  0  0  0  0  0  0
   11.1624  -20.7683   24.4405 C   0  0  0  0  0  0  0  0  0  0  0  0
   11.8326  -21.9399   24.6922 O   0  0  0  0  0  0  0  0  0  0  0  0
   10.1544  -20.7789   23.7110 O   0  0  0  0  0  0  0  0  0  0  0  0
  2  1  1  0
  3  2  2  0
  4  2  1  0
  5  4  1  0
  5  7  1  0
  5  6  1  1
  7  8  2  0
  9  7  1  0
  9 10  1  0
 10 11  1  1
 12 11  1  0
 12 20  1  0
 13 14  1  0
 13 12  2  0
 14 15  1  0
 15 16  1  0
 15 20  2  0
 16 17  2  0
 17 18  1  0
 19 18  2  0
 20 19  1  0
 21 10  1  0
 21 22  2  0
 23 21  1  0
 24 23  1  0
 25 24  1  0
 26 25  1  0
 27 25  2  0
M  END
$$$$
