TTG.pdb
     RDKit          3D

 19 18  0  0  1  0  0  0  0  0999 V2000
    8.9601  -17.7772   16.4697 C   0  0  0  0  0  0  0  0  0  0  0  0
    8.9669  -16.5888   15.5227 C   0  0  1  0  0  0  0  0  0  0  0  0
    8.5518  -16.9303   14.2578 O   0  0  0  0  0  0  0  0  0  0  0  0
    8.2216  -15.4136   16.1118 C   0  0  2  0  0  0  0  0  0  0  0  0
    8.1236  -14.3886   15.0837 N   0  0  0  0  0  0  0  0  0  0  0  0
    8.8878  -14.8192   17.2759 C   0  0  0  0  0  0  0  0  0  0  0  0
    9.8995  -14.0769   17.2142 O   0  0  0  0  0  0  0  0  0  0  0  0
    7.4457  -12.6754   19.8395 C   0  0  0  0  0  0  0  0  0  0  0  0
    7.9200  -13.9149   20.5738 C   0  0  1  0  0  0  0  0  0  0  0  0
    6.8698  -14.7462   20.8881 O   0  0  0  0  0  0  0  0  0  0  0  0
    9.0125  -14.5917   19.7709 C   0  0  2  0  0  0  0  0  0  0  0  0
    8.3704  -15.0880   18.5707 N   0  0  0  0  0  0  0  0  0  0  0  0
    9.5670  -15.6924   20.5938 C   0  0  0  0  0  0  0  0  0  0  0  0
    8.9084  -16.7648   20.7440 O   0  0  0  0  0  0  0  0  0  0  0  0
   10.8259  -15.6249   21.2457 N   0  0  0  0  0  0  0  0  0  0  0  0
   11.3336  -16.6849   22.0908 C   0  0  0  0  0  0  0  0  0  0  0  0
   12.6359  -16.3881   22.6798 C   0  0  0  0  0  0  0  0  0  0  0  0
   13.2313  -15.3384   22.3600 O   0  0  0  0  0  0  0  0  0  0  0  0
   13.2311  -17.2400   23.5855 O   0  0  0  0  0  0  0  0  0  0  0  0
  2  4  1  0
  2  3  1  0
  2  1  1  1
  4  5  1  6
  6  4  1  0
  6 12  1  0
  7  6  2  0
  9  8  1  6
 10  9  1  0
 11 12  1  6
 11  9  1  0
 13 14  2  0
 13 11  1  0
 15 13  1  0
 16 15  1  0
 16 17  1  0
 17 19  1  0
 18 17  2  0
M  END
$$$$
