TTG.pdb
     RDKit          3D

 19 18  0  0  1  0  0  0  0  0999 V2000
    7.5142  -16.9485   14.5304 C   0  0  0  0  0  0  0  0  0  0  0  0
    8.3214  -16.4956   15.7356 C   0  0  1  0  0  0  0  0  0  0  0  0
    9.6688  -16.7093   15.5684 O   0  0  0  0  0  0  0  0  0  0  0  0
    7.9736  -15.0782   16.1277 C   0  0  2  0  0  0  0  0  0  0  0  0
    8.2984  -14.2134   15.0037 N   0  0  0  0  0  0  0  0  0  0  0  0
    8.7160  -14.5930   17.2964 C   0  0  0  0  0  0  0  0  0  0  0  0
    9.7727  -13.9161   17.2368 O   0  0  0  0  0  0  0  0  0  0  0  0
    7.4469  -12.5232   20.0203 C   0  0  0  0  0  0  0  0  0  0  0  0
    7.8940  -13.8183   20.6709 C   0  0  1  0  0  0  0  0  0  0  0  0
    6.8214  -14.6222   20.9806 O   0  0  0  0  0  0  0  0  0  0  0  0
    8.9281  -14.4947   19.7939 C   0  0  2  0  0  0  0  0  0  0  0  0
    8.2245  -14.8977   18.5933 N   0  0  0  0  0  0  0  0  0  0  0  0
    9.4625  -15.6606   20.5363 C   0  0  0  0  0  0  0  0  0  0  0  0
    8.8692  -16.7786   20.4721 O   0  0  0  0  0  0  0  0  0  0  0  0
   10.6312  -15.6084   21.3399 N   0  0  0  0  0  0  0  0  0  0  0  0
   11.1428  -16.7537   22.0624 C   0  0  0  0  0  0  0  0  0  0  0  0
   12.2607  -16.4348   22.9452 C   0  0  0  0  0  0  0  0  0  0  0  0
   12.7335  -15.2792   22.9468 O   0  0  0  0  0  0  0  0  0  0  0  0
   12.8132  -17.3798   23.7831 O   0  0  0  0  0  0  0  0  0  0  0  0
  2  4  1  0
  2  3  1  0
  2  1  1  6
  4  5  1  6
  6  4  1  0
  6 12  1  0
  7  6  2  0
  9  8  1  6
 10  9  1  0
 11 12  1  6
 11  9  1  0
 13 14  2  0
 13 11  1  0
 15 13  1  0
 16 15  1  0
 16 17  1  0
 17 19  1  0
 18 17  2  0
M  END
$$$$
