TTG.pdb
     RDKit          3D

 19 18  0  0  1  0  0  0  0  0999 V2000
   10.1029  -19.5149   21.1832 C   0  0  0  0  0  0  0  0  0  0  0  0
   10.6609  -19.0327   19.8546 C   0  0  1  0  0  0  0  0  0  0  0  0
   10.9042  -20.0700   18.9863 O   0  0  0  0  0  0  0  0  0  0  0  0
    9.8060  -17.9340   19.2668 C   0  0  2  0  0  0  0  0  0  0  0  0
   10.2824  -17.6740   17.9169 N   0  0  0  0  0  0  0  0  0  0  0  0
    9.8712  -16.6744   20.0161 C   0  0  0  0  0  0  0  0  0  0  0  0
   10.8963  -15.9541   20.1084 O   0  0  0  0  0  0  0  0  0  0  0  0
    6.9177  -13.8733   20.2285 C   0  0  0  0  0  0  0  0  0  0  0  0
    7.2711  -14.5449   21.5417 C   0  0  1  0  0  0  0  0  0  0  0  0
    6.3737  -15.5393   21.8559 O   0  0  0  0  0  0  0  0  0  0  0  0
    8.7106  -15.0162   21.4979 C   0  0  2  0  0  0  0  0  0  0  0  0
    8.7075  -16.2194   20.6907 N   0  0  0  0  0  0  0  0  0  0  0  0
    9.1435  -15.2877   22.8889 C   0  0  0  0  0  0  0  0  0  0  0  0
    9.1921  -14.3435   23.7329 O   0  0  0  0  0  0  0  0  0  0  0  0
    9.5192  -16.5746   23.3549 N   0  0  0  0  0  0  0  0  0  0  0  0
    9.9796  -16.8204   24.7052 C   0  0  0  0  0  0  0  0  0  0  0  0
   11.4090  -17.1039   24.7915 C   0  0  0  0  0  0  0  0  0  0  0  0
   12.0991  -17.1110   23.7510 O   0  0  0  0  0  0  0  0  0  0  0  0
   12.0229  -17.3657   25.9977 O   0  0  0  0  0  0  0  0  0  0  0  0
  2  4  1  0
  2  3  1  0
  2  1  1  1
  4  5  1  6
  6  4  1  0
  6 12  1  0
  7  6  2  0
  9  8  1  6
 10  9  1  0
 11 12  1  6
 11  9  1  0
 13 14  2  0
 13 11  1  0
 15 13  1  0
 16 15  1  0
 16 17  1  0
 17 19  1  0
 18 17  2  0
M  END
$$$$
