TTG.pdb
     RDKit          3D

 19 18  0  0  1  0  0  0  0  0999 V2000
    8.7589  -16.8221   16.9848 C   0  0  0  0  0  0  0  0  0  0  0  0
    8.8589  -15.3836   16.5056 C   0  0  1  0  0  0  0  0  0  0  0  0
    8.5435  -15.2566   15.1739 O   0  0  0  0  0  0  0  0  0  0  0  0
    8.0843  -14.4500   17.4067 C   0  0  2  0  0  0  0  0  0  0  0  0
    8.1107  -13.1262   16.8036 N   0  0  0  0  0  0  0  0  0  0  0  0
    8.6444  -14.3387   18.7581 C   0  0  0  0  0  0  0  0  0  0  0  0
    9.6056  -13.5924   19.0703 O   0  0  0  0  0  0  0  0  0  0  0  0
    7.9157  -15.4299   23.4996 C   0  0  0  0  0  0  0  0  0  0  0  0
    7.4373  -15.3822   22.0611 C   0  0  1  0  0  0  0  0  0  0  0  0
    6.3975  -14.4948   21.9057 O   0  0  0  0  0  0  0  0  0  0  0  0
    8.6132  -15.1078   21.1455 C   0  0  2  0  0  0  0  0  0  0  0  0
    8.0765  -15.1190   19.7998 N   0  0  0  0  0  0  0  0  0  0  0  0
    9.6102  -16.1850   21.3494 C   0  0  0  0  0  0  0  0  0  0  0  0
    9.3900  -17.3467   20.8932 O   0  0  0  0  0  0  0  0  0  0  0  0
   10.8343  -15.9978   22.0430 N   0  0  0  0  0  0  0  0  0  0  0  0
   11.7572  -17.0785   22.3187 C   0  0  0  0  0  0  0  0  0  0  0  0
   12.9325  -16.6625   23.0779 C   0  0  0  0  0  0  0  0  0  0  0  0
   13.1714  -15.4459   23.2250 O   0  0  0  0  0  0  0  0  0  0  0  0
   13.7922  -17.5811   23.6412 O   0  0  0  0  0  0  0  0  0  0  0  0
  2  4  1  0
  2  3  1  0
  2  1  1  1
  4  5  1  6
  6  4  1  0
  6 12  1  0
  7  6  2  0
  9  8  1  1
 10  9  1  0
 11 12  1  6
 11  9  1  0
 13 14  2  0
 13 11  1  0
 15 13  1  0
 16 15  1  0
 16 17  1  0
 17 19  1  0
 18 17  2  0
M  END
$$$$
