TTG.pdb
     RDKit          3D

 19 18  0  0  1  0  0  0  0  0999 V2000
    8.6491  -18.6198   16.9049 C   0  0  0  0  0  0  0  0  0  0  0  0
    8.7944  -17.7005   15.7037 C   0  0  1  0  0  0  0  0  0  0  0  0
    8.3259  -18.2780   14.5479 O   0  0  0  0  0  0  0  0  0  0  0  0
    8.2090  -16.3357   15.9834 C   0  0  2  0  0  0  0  0  0  0  0  0
    8.2625  -15.5674   14.7490 N   0  0  0  0  0  0  0  0  0  0  0  0
    8.9366  -15.5838   17.0117 C   0  0  0  0  0  0  0  0  0  0  0  0
   10.0597  -15.0479   16.8398 O   0  0  0  0  0  0  0  0  0  0  0  0
    7.6586  -12.7839   19.2090 C   0  0  0  0  0  0  0  0  0  0  0  0
    8.0390  -13.9474   20.1046 C   0  0  1  0  0  0  0  0  0  0  0  0
    6.9281  -14.6353   20.5351 O   0  0  0  0  0  0  0  0  0  0  0  0
    9.0577  -14.8184   19.3975 C   0  0  2  0  0  0  0  0  0  0  0  0
    8.3495  -15.4395   18.2967 N   0  0  0  0  0  0  0  0  0  0  0  0
    9.5524  -15.8214   20.3697 C   0  0  0  0  0  0  0  0  0  0  0  0
    8.9062  -16.8957   20.5557 O   0  0  0  0  0  0  0  0  0  0  0  0
   10.7388  -15.6554   21.1307 N   0  0  0  0  0  0  0  0  0  0  0  0
   11.2171  -16.6466   22.0712 C   0  0  0  0  0  0  0  0  0  0  0  0
   12.4556  -16.2640   22.7424 C   0  0  0  0  0  0  0  0  0  0  0  0
   13.0490  -15.2226   22.3926 O   0  0  0  0  0  0  0  0  0  0  0  0
   12.9925  -17.0250   23.7587 O   0  0  0  0  0  0  0  0  0  0  0  0
  2  4  1  0
  2  3  1  0
  2  1  1  1
  4  5  1  6
  6  4  1  0
  6 12  1  0
  7  6  2  0
  9  8  1  6
 10  9  1  0
 11 12  1  6
 11  9  1  0
 13 14  2  0
 13 11  1  0
 15 13  1  0
 16 15  1  0
 16 17  1  0
 17 19  1  0
 18 17  2  0
M  END
$$$$
