TTG.pdb
     RDKit          3D

 19 18  0  0  1  0  0  0  0  0999 V2000
    5.9100  -18.0565   22.5132 C   0  0  0  0  0  0  0  0  0  0  0  0
    7.1369  -17.4932   21.8157 C   0  0  1  0  0  0  0  0  0  0  0  0
    8.2336  -18.3102   21.9534 O   0  0  0  0  0  0  0  0  0  0  0  0
    6.8311  -17.1204   20.3835 C   0  0  2  0  0  0  0  0  0  0  0  0
    6.4159  -18.3291   19.6883 N   0  0  0  0  0  0  0  0  0  0  0  0
    7.9808  -16.5613   19.6637 C   0  0  0  0  0  0  0  0  0  0  0  0
    8.7475  -17.2257   18.9228 O   0  0  0  0  0  0  0  0  0  0  0  0
    7.6529  -13.2353   17.9571 C   0  0  0  0  0  0  0  0  0  0  0  0
    8.9325  -13.1566   18.7676 C   0  0  1  0  0  0  0  0  0  0  0  0
    8.7900  -12.3237   19.8533 O   0  0  0  0  0  0  0  0  0  0  0  0
    9.3891  -14.5554   19.1297 C   0  0  2  0  0  0  0  0  0  0  0  0
    8.2646  -15.1766   19.7995 N   0  0  0  0  0  0  0  0  0  0  0  0
   10.5641  -14.4336   20.0245 C   0  0  0  0  0  0  0  0  0  0  0  0
   10.3974  -14.2603   21.2688 O   0  0  0  0  0  0  0  0  0  0  0  0
   11.9063  -14.5003   19.5678 N   0  0  0  0  0  0  0  0  0  0  0  0
   13.0460  -14.4247   20.4571 C   0  0  0  0  0  0  0  0  0  0  0  0
   14.3303  -14.4831   19.7656 C   0  0  0  0  0  0  0  0  0  0  0  0
   14.3573  -14.6815   18.5332 O   0  0  0  0  0  0  0  0  0  0  0  0
   15.5224  -14.3245   20.4393 O   0  0  0  0  0  0  0  0  0  0  0  0
  2  4  1  0
  2  3  1  0
  2  1  1  6
  4  5  1  6
  6  4  1  0
  6 12  1  0
  7  6  2  0
  9  8  1  1
 10  9  1  0
 11 12  1  1
 11  9  1  0
 13 14  2  0
 13 11  1  0
 15 13  1  0
 16 15  1  0
 16 17  1  0
 17 19  1  0
 18 17  2  0
M  END
$$$$
