TTG.pdb
     RDKit          3D

 19 18  0  0  1  0  0  0  0  0999 V2000
   -1.5458  -28.5954   29.0156 C   0  0  0  0  0  0  0  0  0  0  0  0
   -2.2635  -27.2956   29.3392 C   0  0  1  0  0  0  0  0  0  0  0  0
   -2.4862  -27.1470   30.6874 O   0  0  0  0  0  0  0  0  0  0  0  0
   -1.5710  -26.1131   28.7023 C   0  0  2  0  0  0  0  0  0  0  0  0
   -0.2150  -26.0566   29.2266 N   0  0  0  0  0  0  0  0  0  0  0  0
   -2.2176  -24.8282   28.9909 C   0  0  0  0  0  0  0  0  0  0  0  0
   -1.9571  -24.1090   29.9874 O   0  0  0  0  0  0  0  0  0  0  0  0
   -2.4321  -21.9304   26.7012 C   0  0  0  0  0  0  0  0  0  0  0  0
   -3.8578  -22.3536   26.9993 C   0  0  1  0  0  0  0  0  0  0  0  0
   -4.4017  -23.0620   25.9527 O   0  0  0  0  0  0  0  0  0  0  0  0
   -3.9005  -23.0927   28.3215 C   0  0  2  0  0  0  0  0  0  0  0  0
   -3.2087  -24.3455   28.0958 N   0  0  0  0  0  0  0  0  0  0  0  0
   -5.3229  -23.3059   28.6783 C   0  0  0  0  0  0  0  0  0  0  0  0
   -5.9024  -24.3853   28.3541 O   0  0  0  0  0  0  0  0  0  0  0  0
   -6.1051  -22.3528   29.3814 N   0  0  0  0  0  0  0  0  0  0  0  0
   -7.4899  -22.5784   29.7377 C   0  0  0  0  0  0  0  0  0  0  0  0
   -8.1026  -21.4538   30.4383 C   0  0  0  0  0  0  0  0  0  0  0  0
   -7.4123  -20.4508   30.7144 O   0  0  0  0  0  0  0  0  0  0  0  0
   -9.4310  -21.4679   30.8062 O   0  0  0  0  0  0  0  0  0  0  0  0
  2  4  1  0
  2  3  1  0
  2  1  1  1
  4  5  1  1
  6  4  1  0
  6 12  1  0
  7  6  2  0
  9  8  1  6
 10  9  1  0
 11 12  1  6
 11  9  1  0
 13 14  2  0
 13 11  1  0
 15 13  1  0
 16 15  1  0
 16 17  1  0
 17 19  1  0
 18 17  2  0
M  END
$$$$
