TTG.pdb
     RDKit          3D

 19 18  0  0  1  0  0  0  0  0999 V2000
    7.8375  -15.8277   15.3600 C   0  0  0  0  0  0  0  0  0  0  0  0
    8.5554  -15.6122   16.6818 C   0  0  1  0  0  0  0  0  0  0  0  0
    9.9077  -15.4320   16.5150 O   0  0  0  0  0  0  0  0  0  0  0  0
    7.8919  -14.5255   17.4958 C   0  0  2  0  0  0  0  0  0  0  0  0
    7.8997  -13.3069   16.7008 N   0  0  0  0  0  0  0  0  0  0  0  0
    8.5755  -14.2396   18.7620 C   0  0  0  0  0  0  0  0  0  0  0  0
    9.4260  -13.3288   18.9211 O   0  0  0  0  0  0  0  0  0  0  0  0
    7.0913  -13.6774   22.1906 C   0  0  0  0  0  0  0  0  0  0  0  0
    7.9287  -14.9411   22.2363 C   0  0  1  0  0  0  0  0  0  0  0  0
    7.1416  -16.0684   22.1873 O   0  0  0  0  0  0  0  0  0  0  0  0
    8.9843  -14.8884   21.1504 C   0  0  2  0  0  0  0  0  0  0  0  0
    8.2699  -15.0344   19.8984 N   0  0  0  0  0  0  0  0  0  0  0  0
    9.9290  -16.0071   21.3788 C   0  0  0  0  0  0  0  0  0  0  0  0
    9.6893  -17.1495   20.8852 O   0  0  0  0  0  0  0  0  0  0  0  0
   11.1222  -15.8817   22.1369 N   0  0  0  0  0  0  0  0  0  0  0  0
   12.0169  -16.9918   22.3878 C   0  0  0  0  0  0  0  0  0  0  0  0
   13.2223  -16.6155   23.1201 C   0  0  0  0  0  0  0  0  0  0  0  0
   13.4302  -15.4137   23.3873 O   0  0  0  0  0  0  0  0  0  0  0  0
   14.1441  -17.5558   23.5278 O   0  0  0  0  0  0  0  0  0  0  0  0
  2  4  1  0
  2  3  1  0
  2  1  1  6
  4  5  1  6
  6  4  1  0
  6 12  1  0
  7  6  2  0
  9  8  1  6
 10  9  1  0
 11 12  1  6
 11  9  1  0
 13 14  2  0
 13 11  1  0
 15 13  1  0
 16 15  1  0
 16 17  1  0
 17 19  1  0
 18 17  2  0
M  END
$$$$
