TTG.pdb
     RDKit          3D

 19 18  0  0  1  0  0  0  0  0999 V2000
    7.7048  -17.8623   14.5457 C   0  0  0  0  0  0  0  0  0  0  0  0
    8.6195  -17.2903   15.6159 C   0  0  1  0  0  0  0  0  0  0  0  0
    9.8587  -17.8847   15.6120 O   0  0  0  0  0  0  0  0  0  0  0  0
    8.6675  -15.7815   15.5474 C   0  0  2  0  0  0  0  0  0  0  0  0
    9.3555  -15.4137   14.3193 N   0  0  0  0  0  0  0  0  0  0  0  0
    9.3878  -15.1652   16.6671 C   0  0  0  0  0  0  0  0  0  0  0  0
   10.5879  -14.7962   16.6237 O   0  0  0  0  0  0  0  0  0  0  0  0
    7.7304  -12.4284   18.6663 C   0  0  0  0  0  0  0  0  0  0  0  0
    8.2281  -13.4620   19.6585 C   0  0  1  0  0  0  0  0  0  0  0  0
    7.1921  -14.2105   20.1676 O   0  0  0  0  0  0  0  0  0  0  0  0
    9.3215  -14.2929   19.0181 C   0  0  2  0  0  0  0  0  0  0  0  0
    8.7008  -14.9626   17.8932 N   0  0  0  0  0  0  0  0  0  0  0  0
    9.8125  -15.2575   20.0303 C   0  0  0  0  0  0  0  0  0  0  0  0
    9.4416  -16.4685   19.9836 O   0  0  0  0  0  0  0  0  0  0  0  0
   10.6985  -14.9059   21.0818 N   0  0  0  0  0  0  0  0  0  0  0  0
   11.2370  -15.8726   22.0151 C   0  0  0  0  0  0  0  0  0  0  0  0
   12.6944  -15.8551   22.0971 C   0  0  0  0  0  0  0  0  0  0  0  0
   13.3502  -15.2013   21.2596 O   0  0  0  0  0  0  0  0  0  0  0  0
   13.3719  -16.5447   23.0797 O   0  0  0  0  0  0  0  0  0  0  0  0
  2  4  1  0
  2  3  1  0
  2  1  1  6
  4  5  1  6
  6  4  1  0
  6 12  1  0
  7  6  2  0
  9  8  1  6
 10  9  1  0
 11 12  1  6
 11  9  1  0
 13 14  2  0
 13 11  1  0
 15 13  1  0
 16 15  1  0
 16 17  1  0
 17 19  1  0
 18 17  2  0
M  END
$$$$
