TTG.pdb
     RDKit          3D

 19 18  0  0  1  0  0  0  0  0999 V2000
    0.4797  -26.2933   30.1133 C   0  0  0  0  0  0  0  0  0  0  0  0
   -0.9348  -25.7528   29.9867 C   0  0  1  0  0  0  0  0  0  0  0  0
   -0.9963  -24.6428   29.1785 O   0  0  0  0  0  0  0  0  0  0  0  0
   -1.9062  -26.8434   29.5987 C   0  0  2  0  0  0  0  0  0  0  0  0
   -1.5398  -27.3138   28.2715 N   0  0  0  0  0  0  0  0  0  0  0  0
   -3.3022  -26.3953   29.5463 C   0  0  0  0  0  0  0  0  0  0  0  0
   -3.9504  -26.2101   28.4862 O   0  0  0  0  0  0  0  0  0  0  0  0
   -7.4481  -26.2448   32.1146 C   0  0  0  0  0  0  0  0  0  0  0  0
   -5.9785  -26.5877   31.9622 C   0  0  1  0  0  0  0  0  0  0  0  0
   -5.7857  -27.9468   31.8710 O   0  0  0  0  0  0  0  0  0  0  0  0
   -5.3956  -25.8111   30.7988 C   0  0  2  0  0  0  0  0  0  0  0  0
   -3.9869  -26.1482   30.7656 N   0  0  0  0  0  0  0  0  0  0  0  0
   -5.6103  -24.3685   31.0610 C   0  0  0  0  0  0  0  0  0  0  0  0
   -4.8243  -23.7409   31.8321 O   0  0  0  0  0  0  0  0  0  0  0  0
   -6.6702  -23.6179   30.4886 N   0  0  0  0  0  0  0  0  0  0  0  0
   -6.8400  -22.1976   30.7111 C   0  0  0  0  0  0  0  0  0  0  0  0
   -8.0161  -21.6402   30.0502 C   0  0  0  0  0  0  0  0  0  0  0  0
   -8.6494  -22.3368   29.2301 O   0  0  0  0  0  0  0  0  0  0  0  0
   -8.4505  -20.3575   30.3076 O   0  0  0  0  0  0  0  0  0  0  0  0
  2  4  1  0
  2  3  1  0
  2  1  1  6
  4  5  1  6
  6  4  1  0
  6 12  1  0
  7  6  2  0
  9  8  1  6
 10  9  1  0
 11 12  1  1
 11  9  1  0
 13 14  2  0
 13 11  1  0
 15 13  1  0
 16 15  1  0
 16 17  1  0
 17 19  1  0
 18 17  2  0
M  END
$$$$
