TTG.pdb
     RDKit          3D

 19 18  0  0  1  0  0  0  0  0999 V2000
   10.1687  -12.5245   19.5832 C   0  0  0  0  0  0  0  0  0  0  0  0
    8.7364  -12.5761   19.0784 C   0  0  1  0  0  0  0  0  0  0  0  0
    8.5397  -11.7607   17.9896 O   0  0  0  0  0  0  0  0  0  0  0  0
    8.2818  -14.0010   18.8624 C   0  0  2  0  0  0  0  0  0  0  0  0
    6.8883  -13.9648   18.4453 N   0  0  0  0  0  0  0  0  0  0  0  0
    8.3682  -14.8342   20.0668 C   0  0  0  0  0  0  0  0  0  0  0  0
    7.5953  -14.7411   21.0529 O   0  0  0  0  0  0  0  0  0  0  0  0
    8.4216  -18.5257   20.0188 C   0  0  0  0  0  0  0  0  0  0  0  0
    9.6976  -18.0933   20.7155 C   0  0  1  0  0  0  0  0  0  0  0  0
   10.7887  -18.2115   19.8859 O   0  0  0  0  0  0  0  0  0  0  0  0
    9.5156  -16.7016   21.2868 C   0  0  2  0  0  0  0  0  0  0  0  0
    9.3876  -15.8197   20.1445 N   0  0  0  0  0  0  0  0  0  0  0  0
   10.7141  -16.3818   22.0975 C   0  0  0  0  0  0  0  0  0  0  0  0
   11.6018  -15.6037   21.6362 O   0  0  0  0  0  0  0  0  0  0  0  0
   10.9425  -16.9043   23.3972 N   0  0  0  0  0  0  0  0  0  0  0  0
   12.0788  -16.5259   24.2104 C   0  0  0  0  0  0  0  0  0  0  0  0
   12.1615  -17.2548   25.4725 C   0  0  0  0  0  0  0  0  0  0  0  0
   11.2762  -18.0862   25.7622 O   0  0  0  0  0  0  0  0  0  0  0  0
   13.1964  -17.0498   26.3597 O   0  0  0  0  0  0  0  0  0  0  0  0
  2  4  1  0
  2  3  1  0
  2  1  1  6
  4  5  1  1
  6  4  1  0
  6 12  1  0
  7  6  2  0
  9  8  1  6
 10  9  1  0
 11 12  1  6
 11  9  1  0
 13 14  2  0
 13 11  1  0
 15 13  1  0
 16 15  1  0
 16 17  1  0
 17 19  1  0
 18 17  2  0
M  END
$$$$
