RCA.pdb
     RDKit          3D

 23 22  0  0  1  0  0  0  0  0999 V2000
    8.1407  -19.7907   18.7322 N   0  0  0  0  0  0  0  0  0  0  0  0
    7.0231  -18.9214   18.7755 C   0  0  0  0  0  0  0  0  0  0  0  0
    6.5975  -18.4069   17.6678 N   0  0  0  0  0  0  0  0  0  0  0  0
    6.4130  -18.6463   20.0204 N   0  0  0  0  0  0  0  0  0  0  0  0
    7.2184  -18.6918   21.2453 C   0  0  0  0  0  0  0  0  0  0  0  0
    7.8926  -17.3709   21.3543 C   0  0  0  0  0  0  0  0  0  0  0  0
    6.9374  -16.3043   21.7866 C   0  0  0  0  0  0  0  0  0  0  0  0
    7.5921  -14.9770   21.7376 C   0  0  2  0  0  0  0  0  0  0  0  0
    8.5840  -14.9917   20.6858 N   0  0  0  0  0  0  0  0  0  0  0  0
    8.2665  -14.5993   23.0071 C   0  0  0  0  0  0  0  0  0  0  0  0
    9.4732  -14.8251   23.2545 O   0  0  0  0  0  0  0  0  0  0  0  0
    5.8289  -17.7209   17.5934 N   0  0  0  0  0  0  0  0  0  0  0  0
    7.5258  -13.9452   24.0126 C   0  0  2  0  0  0  0  0  0  0  0  0
    8.0533  -13.4561   25.2516 C   0  0  0  0  0  0  0  0  0  0  0  0
    7.1572  -12.4881   25.9640 S   0  0  0  0  0  0  0  0  0  0  0  0
    5.8177  -13.3080   26.8639 C   0  0  0  0  0  0  0  0  0  0  0  0
    8.4437  -14.5907   26.0928 O   0  0  0  0  0  0  0  0  0  0  0  0
    7.7469  -15.6302   26.1394 C   0  0  0  0  0  0  0  0  0  0  0  0
   11.4209  -16.1083   27.3561 C   0  0  2  0  0  0  0  0  0  0  0  0
   10.0218  -15.6332   27.7001 N   0  0  0  0  0  0  0  0  0  0  0  0
    9.6217  -14.5345   26.8734 C   0  0  0  0  0  0  0  0  0  0  0  0
   10.0057  -15.2063   29.1176 O   0  0  0  0  0  0  0  0  0  0  0  0
   10.3246  -16.0744   30.1484 O   0  0  0  0  0  0  0  0  0  0  0  0
  2  1  1  0
  2  4  1  0
  3  2  2  0
  5  4  1  0
  6  5  1  0
  7  6  1  0
  7  8  1  0
  8 10  1  0
  8  9  1  6
 10 12  1  0
 11 10  2  0
 12 13  1  0
 13 16  1  0
 13 14  1  6
 15 14  1  0
 16 17  2  0
 16 20  1  0
 19 18  1  6
 19 21  1  0
 20 19  1  0
 21 23  2  0
 21 22  1  0
M  END
$$$$
