RCA.pdb
     RDKit          3D

 23 22  0  0  1  0  0  0  0  0999 V2000
    6.2898  -19.3790   23.4002 N   0  0  0  0  0  0  0  0  0  0  0  0
    5.7166  -19.9736   22.2495 C   0  0  0  0  0  0  0  0  0  0  0  0
    4.7523  -20.8210   22.4074 N   0  0  0  0  0  0  0  0  0  0  0  0
    6.2140  -19.6237   20.9736 N   0  0  0  0  0  0  0  0  0  0  0  0
    7.2539  -18.5957   20.8609 C   0  0  0  0  0  0  0  0  0  0  0  0
    6.5525  -17.2846   20.8772 C   0  0  0  0  0  0  0  0  0  0  0  0
    7.5131  -16.1494   20.7183 C   0  0  0  0  0  0  0  0  0  0  0  0
    7.0401  -14.9660   21.4723 C   0  0  2  0  0  0  0  0  0  0  0  0
    7.0710  -13.8180   20.5939 N   0  0  0  0  0  0  0  0  0  0  0  0
    7.8632  -14.6564   22.6706 C   0  0  0  0  0  0  0  0  0  0  0  0
    8.9804  -14.0923   22.6275 O   0  0  0  0  0  0  0  0  0  0  0  0
    4.2631  -21.3075   21.6387 N   0  0  0  0  0  0  0  0  0  0  0  0
    7.3807  -15.0086   23.9476 C   0  0  2  0  0  0  0  0  0  0  0  0
    8.0875  -14.8376   25.1820 C   0  0  0  0  0  0  0  0  0  0  0  0
    7.3558  -14.0195   26.2033 S   0  0  0  0  0  0  0  0  0  0  0  0
    6.5970  -12.5358   25.4971 C   0  0  0  0  0  0  0  0  0  0  0  0
    8.4937  -16.1496   25.6928 O   0  0  0  0  0  0  0  0  0  0  0  0
    7.6443  -17.0308   25.9580 C   0  0  0  0  0  0  0  0  0  0  0  0
   11.7198  -18.0150   26.0934 C   0  0  2  0  0  0  0  0  0  0  0  0
   10.2753  -17.7077   26.4404 N   0  0  0  0  0  0  0  0  0  0  0  0
    9.8606  -16.4490   25.8978 C   0  0  0  0  0  0  0  0  0  0  0  0
   10.1441  -17.6687   27.9145 O   0  0  0  0  0  0  0  0  0  0  0  0
   10.4302  -18.7688   28.7055 O   0  0  0  0  0  0  0  0  0  0  0  0
  2  1  1  0
  2  4  1  0
  3  2  2  0
  5  4  1  0
  6  5  1  0
  7  6  1  0
  7  8  1  0
  8 10  1  0
  8  9  1  6
 10 12  1  0
 11 10  2  0
 12 13  1  0
 13 16  1  0
 13 14  1  6
 15 14  1  0
 16 17  2  0
 16 20  1  0
 19 18  1  6
 19 21  1  0
 20 19  1  0
 21 23  2  0
 21 22  1  0
M  END
$$$$
