RCA.pdb
     RDKit          3D

 23 22  0  0  1  0  0  0  0  0999 V2000
    8.0271  -15.4664   13.2365 N   0  0  0  0  0  0  0  0  0  0  0  0
    7.7488  -16.7828   13.6795 C   0  0  0  0  0  0  0  0  0  0  0  0
    6.7414  -17.4082   13.1631 N   0  0  0  0  0  0  0  0  0  0  0  0
    8.5763  -17.3665   14.6655 N   0  0  0  0  0  0  0  0  0  0  0  0
    9.4311  -16.5078   15.4919 C   0  0  0  0  0  0  0  0  0  0  0  0
    8.5279  -15.8039   16.4407 C   0  0  0  0  0  0  0  0  0  0  0  0
    9.2968  -14.9316   17.3813 C   0  0  0  0  0  0  0  0  0  0  0  0
    8.3742  -14.2328   18.3051 C   0  0  2  0  0  0  0  0  0  0  0  0
    7.9881  -12.9751   17.7056 N   0  0  0  0  0  0  0  0  0  0  0  0
    8.9688  -13.9494   19.6375 C   0  0  0  0  0  0  0  0  0  0  0  0
    9.7997  -13.0381   19.8554 O   0  0  0  0  0  0  0  0  0  0  0  0
    6.4468  -18.3645   13.4193 N   0  0  0  0  0  0  0  0  0  0  0  0
    8.5920  -14.7398   20.7423 C   0  0  2  0  0  0  0  0  0  0  0  0
    9.1284  -14.6315   22.0664 C   0  0  0  0  0  0  0  0  0  0  0  0
    8.1782  -14.0528   23.0712 S   0  0  0  0  0  0  0  0  0  0  0  0
    6.5512  -14.8448   23.0317 C   0  0  0  0  0  0  0  0  0  0  0  0
    9.6661  -15.9309   22.4785 O   0  0  0  0  0  0  0  0  0  0  0  0
    9.1016  -16.9983   22.1463 C   0  0  0  0  0  0  0  0  0  0  0  0
   12.9736  -17.1395   23.5953 C   0  0  2  0  0  0  0  0  0  0  0  0
   11.4621  -17.2625   23.5565 N   0  0  0  0  0  0  0  0  0  0  0  0
   10.8398  -16.0063   23.2639 C   0  0  0  0  0  0  0  0  0  0  0  0
   10.9953  -17.7403   24.8777 O   0  0  0  0  0  0  0  0  0  0  0  0
   11.4157  -18.9471   25.4113 O   0  0  0  0  0  0  0  0  0  0  0  0
  2  1  1  0
  2  4  1  0
  3  2  2  0
  5  4  1  0
  6  5  1  0
  7  6  1  0
  7  8  1  0
  8 10  1  0
  8  9  1  6
 10 12  1  0
 11 10  2  0
 12 13  1  0
 13 16  1  0
 13 14  1  6
 15 14  1  0
 16 17  2  0
 16 20  1  0
 19 18  1  6
 19 21  1  0
 20 19  1  0
 21 23  2  0
 21 22  1  0
M  END
$$$$
