RCA.pdb
     RDKit          3D

 23 22  0  0  1  0  0  0  0  0999 V2000
    8.2668  -12.6034   17.7217 N   0  0  0  0  0  0  0  0  0  0  0  0
    7.6499  -13.0751   18.9064 C   0  0  0  0  0  0  0  0  0  0  0  0
    7.6847  -12.3269   19.9608 N   0  0  0  0  0  0  0  0  0  0  0  0
    7.0201  -14.3404   18.8976 N   0  0  0  0  0  0  0  0  0  0  0  0
    6.9711  -15.1313   20.1317 C   0  0  0  0  0  0  0  0  0  0  0  0
    8.3772  -15.4887   20.4581 C   0  0  0  0  0  0  0  0  0  0  0  0
    8.4506  -16.3709   21.6636 C   0  0  0  0  0  0  0  0  0  0  0  0
    8.0275  -15.6268   22.8719 C   0  0  2  0  0  0  0  0  0  0  0  0
    7.7478  -14.2591   22.4957 N   0  0  0  0  0  0  0  0  0  0  0  0
    9.0506  -15.6123   23.9499 C   0  0  0  0  0  0  0  0  0  0  0  0
   10.2794  -15.7519   23.7527 O   0  0  0  0  0  0  0  0  0  0  0  0
    7.3856  -12.6231   20.9041 N   0  0  0  0  0  0  0  0  0  0  0  0
    8.6405  -15.4320   25.2866 C   0  0  1  0  0  0  0  0  0  0  0  0
    9.5106  -15.3557   26.4223 C   0  0  0  0  0  0  0  0  0  0  0  0
    9.1238  -14.3117   27.4264 S   0  0  0  0  0  0  0  0  0  0  0  0
    8.8099  -12.6974   26.6706 C   0  0  0  0  0  0  0  0  0  0  0  0
    9.6494  -16.6882   27.0159 O   0  0  0  0  0  0  0  0  0  0  0  0
    8.6426  -17.3701   27.3153 C   0  0  0  0  0  0  0  0  0  0  0  0
   12.4786  -19.1103   27.4383 C   0  0  2  0  0  0  0  0  0  0  0  0
   11.0900  -18.5769   27.7361 N   0  0  0  0  0  0  0  0  0  0  0  0
   10.9302  -17.2343   27.2641 C   0  0  0  0  0  0  0  0  0  0  0  0
   10.8797  -18.6054   29.2013 O   0  0  0  0  0  0  0  0  0  0  0  0
   10.7990  -19.7940   29.9073 O   0  0  0  0  0  0  0  0  0  0  0  0
  2  1  1  0
  2  4  1  0
  3  2  2  0
  5  4  1  0
  6  5  1  0
  7  6  1  0
  7  8  1  0
  8 10  1  0
  8  9  1  6
 10 12  1  0
 11 10  2  0
 12 13  1  0
 13 16  1  0
 13 14  1  6
 15 14  1  0
 16 17  2  0
 16 20  1  0
 19 18  1  6
 19 21  1  0
 20 19  1  0
 21 23  2  0
 21 22  1  0
M  END
$$$$
