RCA.pdb
     RDKit          3D

 23 22  0  0  1  0  0  0  0  0999 V2000
    7.3130  -13.4572   16.5231 N   0  0  0  0  0  0  0  0  0  0  0  0
    8.2538  -14.5134   16.4467 C   0  0  0  0  0  0  0  0  0  0  0  0
    8.9314  -14.6592   15.3547 N   0  0  0  0  0  0  0  0  0  0  0  0
    8.4205  -15.3685   17.5597 N   0  0  0  0  0  0  0  0  0  0  0  0
    7.4590  -15.3105   18.6656 C   0  0  0  0  0  0  0  0  0  0  0  0
    8.0191  -14.3572   19.6600 C   0  0  0  0  0  0  0  0  0  0  0  0
    8.1170  -14.9785   21.0169 C   0  0  0  0  0  0  0  0  0  0  0  0
    7.6488  -14.0290   22.0523 C   0  0  2  0  0  0  0  0  0  0  0  0
    7.5745  -12.7092   21.4665 N   0  0  0  0  0  0  0  0  0  0  0  0
    8.5377  -13.9601   23.2415 C   0  0  0  0  0  0  0  0  0  0  0  0
    9.6678  -13.4203   23.2423 O   0  0  0  0  0  0  0  0  0  0  0  0
    9.5613  -15.4526   15.1532 N   0  0  0  0  0  0  0  0  0  0  0  0
    8.1075  -14.5298   24.4572 C   0  0  1  0  0  0  0  0  0  0  0  0
    8.8450  -14.5282   25.6855 C   0  0  0  0  0  0  0  0  0  0  0  0
    8.3517  -13.5403   26.6996 S   0  0  0  0  0  0  0  0  0  0  0  0
    9.2523  -13.6384   28.2665 C   0  0  0  0  0  0  0  0  0  0  0  0
    8.9116  -15.8942   26.2117 O   0  0  0  0  0  0  0  0  0  0  0  0
    7.8701  -16.5261   26.5022 C   0  0  0  0  0  0  0  0  0  0  0  0
   11.4320  -18.6099   26.3355 C   0  0  2  0  0  0  0  0  0  0  0  0
   10.2469  -17.8635   26.9185 N   0  0  0  0  0  0  0  0  0  0  0  0
   10.1602  -16.5303   26.4032 C   0  0  0  0  0  0  0  0  0  0  0  0
   10.4044  -17.8070   28.3895 O   0  0  0  0  0  0  0  0  0  0  0  0
   10.4286  -18.9515   29.1688 O   0  0  0  0  0  0  0  0  0  0  0  0
  2  1  1  0
  2  4  1  0
  3  2  2  0
  5  4  1  0
  6  5  1  0
  7  6  1  0
  7  8  1  0
  8 10  1  0
  8  9  1  6
 10 12  1  0
 11 10  2  0
 12 13  1  0
 13 16  1  0
 13 14  1  1
 15 14  1  0
 16 17  2  0
 16 20  1  0
 19 18  1  6
 19 21  1  0
 20 19  1  0
 21 23  2  0
 21 22  1  0
M  END
$$$$
