RCA.pdb
     RDKit          3D

 23 22  0  0  1  0  0  0  0  0999 V2000
    7.6019  -12.6584   16.9386 N   0  0  0  0  0  0  0  0  0  0  0  0
    7.1939  -13.8584   17.5710 C   0  0  0  0  0  0  0  0  0  0  0  0
    7.2136  -14.9552   16.8858 N   0  0  0  0  0  0  0  0  0  0  0  0
    6.7813  -13.8185   18.9223 N   0  0  0  0  0  0  0  0  0  0  0  0
    6.4465  -15.0684   19.6125 C   0  0  0  0  0  0  0  0  0  0  0  0
    7.7068  -15.8533   19.6956 C   0  0  0  0  0  0  0  0  0  0  0  0
    8.0670  -16.1594   21.1145 C   0  0  0  0  0  0  0  0  0  0  0  0
    9.2517  -15.3718   21.5257 C   0  0  2  0  0  0  0  0  0  0  0  0
   10.3876  -15.8073   20.7443 N   0  0  0  0  0  0  0  0  0  0  0  0
    9.5935  -15.5194   22.9646 C   0  0  0  0  0  0  0  0  0  0  0  0
   10.5927  -16.1447   23.3877 O   0  0  0  0  0  0  0  0  0  0  0  0
    6.9651  -15.8867   17.2568 N   0  0  0  0  0  0  0  0  0  0  0  0
    8.7587  -14.9290   23.9352 C   0  0  2  0  0  0  0  0  0  0  0  0
    8.9540  -14.9932   25.3530 C   0  0  0  0  0  0  0  0  0  0  0  0
    8.0465  -14.0978   26.1417 S   0  0  0  0  0  0  0  0  0  0  0  0
    6.3201  -14.6398   26.0992 C   0  0  0  0  0  0  0  0  0  0  0  0
    8.8879  -16.3910   25.7878 O   0  0  0  0  0  0  0  0  0  0  0  0
    7.9827  -17.1530   25.3776 C   0  0  0  0  0  0  0  0  0  0  0  0
   10.7913  -19.1438   26.4091 C   0  0  2  0  0  0  0  0  0  0  0  0
    9.7904  -18.2676   27.1386 N   0  0  0  0  0  0  0  0  0  0  0  0
    9.8503  -16.9109   26.6844 C   0  0  0  0  0  0  0  0  0  0  0  0
   10.0966  -18.3096   28.5865 O   0  0  0  0  0  0  0  0  0  0  0  0
   10.0830  -19.4935   29.3047 O   0  0  0  0  0  0  0  0  0  0  0  0
  2  1  1  0
  2  4  1  0
  3  2  2  0
  5  4  1  0
  6  5  1  0
  7  6  1  0
  7  8  1  0
  8 10  1  0
  8  9  1  6
 10 12  1  0
 11 10  2  0
 12 13  1  0
 13 16  1  0
 13 14  1  6
 15 14  1  0
 16 17  2  0
 16 20  1  0
 19 18  1  6
 19 21  1  0
 20 19  1  0
 21 23  2  0
 21 22  1  0
M  END
$$$$
