RCA.pdb
     RDKit          3D

 23 22  0  0  1  0  0  0  0  0999 V2000
   10.7503  -19.6559   19.4925 N   0  0  0  0  0  0  0  0  0  0  0  0
    9.9418  -20.3014   18.5249 C   0  0  0  0  0  0  0  0  0  0  0  0
   10.0887  -21.5740   18.3469 N   0  0  0  0  0  0  0  0  0  0  0  0
    9.0064  -19.5382   17.7898 N   0  0  0  0  0  0  0  0  0  0  0  0
    7.8364  -18.9766   18.4728 C   0  0  0  0  0  0  0  0  0  0  0  0
    8.3606  -18.0584   19.5184 C   0  0  0  0  0  0  0  0  0  0  0  0
    7.2520  -17.4548   20.3206 C   0  0  0  0  0  0  0  0  0  0  0  0
    7.4786  -16.0024   20.4998 C   0  0  2  0  0  0  0  0  0  0  0  0
    8.0899  -15.4803   19.2981 N   0  0  0  0  0  0  0  0  0  0  0  0
    8.3616  -15.6758   21.6499 C   0  0  0  0  0  0  0  0  0  0  0  0
    9.6128  -15.6986   21.6023 O   0  0  0  0  0  0  0  0  0  0  0  0
    9.5853  -22.1322   17.6384 N   0  0  0  0  0  0  0  0  0  0  0  0
    7.7815  -15.3147   22.8831 C   0  0  2  0  0  0  0  0  0  0  0  0
    8.4995  -14.9148   24.0566 C   0  0  0  0  0  0  0  0  0  0  0  0
    7.7039  -14.0746   25.0098 S   0  0  0  0  0  0  0  0  0  0  0  0
    6.1207  -14.8308   25.4543 C   0  0  0  0  0  0  0  0  0  0  0  0
    9.0810  -16.0987   24.6950 O   0  0  0  0  0  0  0  0  0  0  0  0
    8.4540  -17.1818   24.7404 C   0  0  0  0  0  0  0  0  0  0  0  0
   12.5072  -17.1870   25.5305 C   0  0  2  0  0  0  0  0  0  0  0  0
   11.0115  -17.2173   25.7826 N   0  0  0  0  0  0  0  0  0  0  0  0
   10.3692  -16.0419   25.2761 C   0  0  0  0  0  0  0  0  0  0  0  0
   10.7826  -17.3056   27.2426 O   0  0  0  0  0  0  0  0  0  0  0  0
   11.2601  -18.3644   27.9968 O   0  0  0  0  0  0  0  0  0  0  0  0
  2  1  1  0
  2  4  1  0
  3  2  2  0
  5  4  1  0
  6  5  1  0
  7  6  1  0
  7  8  1  0
  8 10  1  0
  8  9  1  6
 10 12  1  0
 11 10  2  0
 12 13  1  0
 13 16  1  0
 13 14  1  6
 15 14  1  0
 16 17  2  0
 16 20  1  0
 19 18  1  6
 19 21  1  0
 20 19  1  0
 21 23  2  0
 21 22  1  0
M  END
$$$$
