RCA.pdb
     RDKit          3D

 23 22  0  0  1  0  0  0  0  0999 V2000
    9.3512  -15.2301   17.3749 N   0  0  0  0  0  0  0  0  0  0  0  0
    8.4840  -14.2314   16.8679 C   0  0  0  0  0  0  0  0  0  0  0  0
    8.1597  -14.2723   15.6165 N   0  0  0  0  0  0  0  0  0  0  0  0
    8.0040  -13.2288   17.7409 N   0  0  0  0  0  0  0  0  0  0  0  0
    8.0070  -13.4688   19.1877 C   0  0  0  0  0  0  0  0  0  0  0  0
    6.6488  -13.9655   19.5342 C   0  0  0  0  0  0  0  0  0  0  0  0
    6.4799  -14.1065   21.0135 C   0  0  0  0  0  0  0  0  0  0  0  0
    7.6592  -14.7799   21.6039 C   0  0  2  0  0  0  0  0  0  0  0  0
    7.7203  -16.1316   21.0943 N   0  0  0  0  0  0  0  0  0  0  0  0
    7.6259  -14.8441   23.0884 C   0  0  0  0  0  0  0  0  0  0  0  0
    7.4672  -13.8477   23.8303 O   0  0  0  0  0  0  0  0  0  0  0  0
    7.6321  -13.5362   15.1198 N   0  0  0  0  0  0  0  0  0  0  0  0
    7.7802  -16.0910   23.7278 C   0  0  1  0  0  0  0  0  0  0  0  0
    7.6555  -16.3272   25.1354 C   0  0  0  0  0  0  0  0  0  0  0  0
    7.4013  -17.7588   25.5004 S   0  0  0  0  0  0  0  0  0  0  0  0
    8.9106  -18.7578   25.5036 C   0  0  0  0  0  0  0  0  0  0  0  0
    8.8197  -15.7651   25.8253 O   0  0  0  0  0  0  0  0  0  0  0  0
    9.9666  -15.8474   25.3291 C   0  0  0  0  0  0  0  0  0  0  0  0
    9.5158  -13.2688   28.4237 C   0  0  2  0  0  0  0  0  0  0  0  0
    9.8038  -14.6190   27.7949 N   0  0  0  0  0  0  0  0  0  0  0  0
    8.6711  -15.1147   27.0724 C   0  0  0  0  0  0  0  0  0  0  0  0
   10.1502  -15.5746   28.8713 O   0  0  0  0  0  0  0  0  0  0  0  0
   11.2874  -15.4243   29.6470 O   0  0  0  0  0  0  0  0  0  0  0  0
  2  1  1  0
  2  4  1  0
  3  2  2  0
  5  4  1  0
  6  5  1  0
  7  6  1  0
  7  8  1  0
  8 10  1  0
  8  9  1  6
 10 12  1  0
 11 10  2  0
 12 13  1  0
 13 16  1  0
 13 14  1  6
 15 14  1  0
 16 17  2  0
 16 20  1  0
 19 18  1  6
 19 21  1  0
 20 19  1  0
 21 23  2  0
 21 22  1  0
M  END
$$$$
