RCA.pdb
     RDKit          3D

 23 22  0  0  1  0  0  0  0  0999 V2000
    8.6187  -12.2556   17.3392 N   0  0  0  0  0  0  0  0  0  0  0  0
    7.7703  -13.2129   16.7307 C   0  0  0  0  0  0  0  0  0  0  0  0
    7.7619  -13.2992   15.4403 N   0  0  0  0  0  0  0  0  0  0  0  0
    6.9654  -14.0379   17.5487 N   0  0  0  0  0  0  0  0  0  0  0  0
    7.2218  -14.0949   18.9916 C   0  0  0  0  0  0  0  0  0  0  0  0
    8.5538  -14.7351   19.1568 C   0  0  0  0  0  0  0  0  0  0  0  0
    8.9889  -14.7290   20.5877 C   0  0  0  0  0  0  0  0  0  0  0  0
    8.6978  -16.0362   21.2194 C   0  0  2  0  0  0  0  0  0  0  0  0
    7.8974  -16.8207   20.3060 N   0  0  0  0  0  0  0  0  0  0  0  0
    7.9604  -15.9244   22.5050 C   0  0  0  0  0  0  0  0  0  0  0  0
    6.7159  -15.8154   22.5928 O   0  0  0  0  0  0  0  0  0  0  0  0
    7.2427  -14.0103   14.9002 N   0  0  0  0  0  0  0  0  0  0  0  0
    8.6815  -15.9390   23.7164 C   0  0  1  0  0  0  0  0  0  0  0  0
    8.1118  -16.0747   25.0240 C   0  0  0  0  0  0  0  0  0  0  0  0
    7.2090  -17.2609   25.1832 S   0  0  0  0  0  0  0  0  0  0  0  0
    6.8200  -17.6158   26.9149 C   0  0  0  0  0  0  0  0  0  0  0  0
    9.1821  -16.0395   26.0242 O   0  0  0  0  0  0  0  0  0  0  0  0
   10.1254  -16.8626   25.9900 C   0  0  0  0  0  0  0  0  0  0  0  0
   10.0655  -13.7898   28.9271 C   0  0  2  0  0  0  0  0  0  0  0  0
   10.2325  -14.9885   28.0123 N   0  0  0  0  0  0  0  0  0  0  0  0
    9.1716  -15.0701   27.0540 C   0  0  0  0  0  0  0  0  0  0  0  0
   10.2348  -16.2154   28.8409 O   0  0  0  0  0  0  0  0  0  0  0  0
   11.3697  -16.6491   29.5055 O   0  0  0  0  0  0  0  0  0  0  0  0
  2  1  1  0
  2  4  1  0
  3  2  2  0
  5  4  1  0
  6  5  1  0
  7  6  1  0
  7  8  1  0
  8 10  1  0
  8  9  1  6
 10 12  1  0
 11 10  2  0
 12 13  1  0
 13 16  1  0
 13 14  1  1
 15 14  1  0
 16 17  2  0
 16 20  1  0
 19 18  1  6
 19 21  1  0
 20 19  1  0
 21 23  2  0
 21 22  1  0
M  END
$$$$
