RCA.pdb
     RDKit          3D

 23 22  0  0  1  0  0  0  0  0999 V2000
    7.0226  -14.6597   16.5753 N   0  0  0  0  0  0  0  0  0  0  0  0
    8.1349  -13.8731   16.1875 C   0  0  0  0  0  0  0  0  0  0  0  0
    8.4419  -13.8138   14.9325 N   0  0  0  0  0  0  0  0  0  0  0  0
    8.8687  -13.1826   17.1787 N   0  0  0  0  0  0  0  0  0  0  0  0
    8.2536  -12.9257   18.4850 C   0  0  0  0  0  0  0  0  0  0  0  0
    8.3674  -14.1902   19.2592 C   0  0  0  0  0  0  0  0  0  0  0  0
    7.7918  -14.0437   20.6318 C   0  0  0  0  0  0  0  0  0  0  0  0
    8.5549  -14.8643   21.5998 C   0  0  2  0  0  0  0  0  0  0  0  0
    7.9384  -16.1695   21.6832 N   0  0  0  0  0  0  0  0  0  0  0  0
    8.5993  -14.2832   22.9671 C   0  0  0  0  0  0  0  0  0  0  0  0
    9.3057  -13.3006   23.2891 O   0  0  0  0  0  0  0  0  0  0  0  0
    9.2068  -13.2419   14.5390 N   0  0  0  0  0  0  0  0  0  0  0  0
    7.8072  -14.8538   23.9842 C   0  0  1  0  0  0  0  0  0  0  0  0
    7.7342  -14.3955   25.3397 C   0  0  0  0  0  0  0  0  0  0  0  0
    6.4329  -14.6931   26.0220 S   0  0  0  0  0  0  0  0  0  0  0  0
    5.3429  -13.2508   26.1080 C   0  0  0  0  0  0  0  0  0  0  0  0
    8.8918  -14.8992   26.0838 O   0  0  0  0  0  0  0  0  0  0  0  0
    9.5576  -15.8721   25.6615 C   0  0  0  0  0  0  0  0  0  0  0  0
   10.6721  -13.9173   29.2691 C   0  0  2  0  0  0  0  0  0  0  0  0
   10.4066  -14.7748   28.0461 N   0  0  0  0  0  0  0  0  0  0  0  0
    9.2827  -14.2935   27.3006 C   0  0  0  0  0  0  0  0  0  0  0  0
   10.1364  -16.1601   28.4931 O   0  0  0  0  0  0  0  0  0  0  0  0
   11.1480  -17.0019   28.9240 O   0  0  0  0  0  0  0  0  0  0  0  0
  2  1  1  0
  2  4  1  0
  3  2  2  0
  5  4  1  0
  6  5  1  0
  7  6  1  0
  7  8  1  0
  8 10  1  0
  8  9  1  1
 10 12  1  0
 11 10  2  0
 12 13  1  0
 13 16  1  0
 13 14  1  1
 15 14  1  0
 16 17  2  0
 16 20  1  0
 19 18  1  6
 19 21  1  0
 20 19  1  0
 21 23  2  0
 21 22  1  0
M  END
$$$$
