RCA.pdb
     RDKit          3D

 23 22  0  0  1  0  0  0  0  0999 V2000
    7.7354  -24.4155   16.2181 N   0  0  0  0  0  0  0  0  0  0  0  0
    8.2776  -23.7124   17.3218 C   0  0  0  0  0  0  0  0  0  0  0  0
    8.9041  -24.3826   18.2335 N   0  0  0  0  0  0  0  0  0  0  0  0
    8.1174  -22.3098   17.3904 N   0  0  0  0  0  0  0  0  0  0  0  0
    8.7652  -21.5609   18.4722 C   0  0  0  0  0  0  0  0  0  0  0  0
    8.4268  -20.1294   18.2537 C   0  0  0  0  0  0  0  0  0  0  0  0
    9.0817  -19.2519   19.2724 C   0  0  0  0  0  0  0  0  0  0  0  0
    8.7830  -17.8286   18.9934 C   0  0  2  0  0  0  0  0  0  0  0  0
    9.1270  -17.5473   17.6176 N   0  0  0  0  0  0  0  0  0  0  0  0
    9.5311  -16.8827   19.8622 C   0  0  0  0  0  0  0  0  0  0  0  0
   10.5795  -16.2916   19.5160 O   0  0  0  0  0  0  0  0  0  0  0  0
    9.2925  -23.9775   19.1007 N   0  0  0  0  0  0  0  0  0  0  0  0
    9.0535  -16.6157   21.1615 C   0  0  2  0  0  0  0  0  0  0  0  0
    9.6506  -15.7127   22.0999 C   0  0  0  0  0  0  0  0  0  0  0  0
    8.6680  -14.8676   22.8535 S   0  0  0  0  0  0  0  0  0  0  0  0
    7.0320  -14.8400   22.0797 C   0  0  0  0  0  0  0  0  0  0  0  0
   10.5507  -16.4585   22.9836 O   0  0  0  0  0  0  0  0  0  0  0  0
   10.2203  -17.5722   23.4514 C   0  0  0  0  0  0  0  0  0  0  0  0
   14.1761  -16.1488   23.9099 C   0  0  2  0  0  0  0  0  0  0  0  0
   12.7744  -16.7098   24.0574 N   0  0  0  0  0  0  0  0  0  0  0  0
   11.8178  -15.9329   23.3280 C   0  0  0  0  0  0  0  0  0  0  0  0
   12.4137  -16.7020   25.4932 O   0  0  0  0  0  0  0  0  0  0  0  0
   13.1018  -17.4596   26.4262 O   0  0  0  0  0  0  0  0  0  0  0  0
  2  1  1  0
  2  4  1  0
  3  2  2  0
  5  4  1  0
  6  5  1  0
  7  6  1  0
  7  8  1  0
  8 10  1  0
  8  9  1  6
 10 12  1  0
 11 10  2  0
 12 13  1  0
 13 16  1  0
 13 14  1  6
 15 14  1  0
 16 17  2  0
 16 20  1  0
 19 18  1  6
 19 21  1  0
 20 19  1  0
 21 23  2  0
 21 22  1  0
M  END
$$$$
