RCA.pdb
     RDKit          3D

 23 22  0  0  1  0  0  0  0  0999 V2000
    8.2642  -17.9454   15.5033 N   0  0  0  0  0  0  0  0  0  0  0  0
    7.3495  -17.0563   14.8874 C   0  0  0  0  0  0  0  0  0  0  0  0
    7.1408  -17.1678   13.6159 N   0  0  0  0  0  0  0  0  0  0  0  0
    6.6984  -16.0821   15.6778 N   0  0  0  0  0  0  0  0  0  0  0  0
    7.4980  -15.1013   16.4192 C   0  0  0  0  0  0  0  0  0  0  0  0
    8.2734  -15.8687   17.4297 C   0  0  0  0  0  0  0  0  0  0  0  0
    9.1440  -14.9694   18.2483 C   0  0  0  0  0  0  0  0  0  0  0  0
    8.3144  -14.0771   19.0899 C   0  0  2  0  0  0  0  0  0  0  0  0
    8.2666  -12.7722   18.4690 N   0  0  0  0  0  0  0  0  0  0  0  0
    8.8318  -13.9144   20.4737 C   0  0  0  0  0  0  0  0  0  0  0  0
    9.8027  -13.1844   20.7784 O   0  0  0  0  0  0  0  0  0  0  0  0
    6.4998  -16.5704   13.0690 N   0  0  0  0  0  0  0  0  0  0  0  0
    8.2102  -14.6136   21.5283 C   0  0  2  0  0  0  0  0  0  0  0  0
    8.7063  -14.7138   22.8686 C   0  0  0  0  0  0  0  0  0  0  0  0
    7.7334  -14.2736   23.9208 S   0  0  0  0  0  0  0  0  0  0  0  0
    6.7439  -12.8485   23.4055 C   0  0  0  0  0  0  0  0  0  0  0  0
    9.2124  -16.0699   23.0971 O   0  0  0  0  0  0  0  0  0  0  0  0
    8.6717  -17.0610   22.5553 C   0  0  0  0  0  0  0  0  0  0  0  0
   12.3523  -17.6410   23.8029 C   0  0  2  0  0  0  0  0  0  0  0  0
   10.8718  -17.5988   24.1313 N   0  0  0  0  0  0  0  0  0  0  0  0
   10.3278  -16.2882   23.9389 C   0  0  0  0  0  0  0  0  0  0  0  0
   10.6927  -17.9967   25.5460 O   0  0  0  0  0  0  0  0  0  0  0  0
   11.0615  -19.2491   26.0077 O   0  0  0  0  0  0  0  0  0  0  0  0
  2  1  1  0
  2  4  1  0
  3  2  2  0
  5  4  1  0
  6  5  1  0
  7  6  1  0
  7  8  1  0
  8 10  1  0
  8  9  1  6
 10 12  1  0
 11 10  2  0
 12 13  1  0
 13 16  1  0
 13 14  1  6
 15 14  1  0
 16 17  2  0
 16 20  1  0
 19 18  1  6
 19 21  1  0
 20 19  1  0
 21 23  2  0
 21 22  1  0
M  END
$$$$
