RCA.pdb
     RDKit          3D

 23 22  0  0  1  0  0  0  0  0999 V2000
    9.5853  -13.0719   18.7285 N   0  0  0  0  0  0  0  0  0  0  0  0
    8.5027  -13.2183   17.8268 C   0  0  0  0  0  0  0  0  0  0  0  0
    8.7016  -12.9581   16.5756 N   0  0  0  0  0  0  0  0  0  0  0  0
    7.2479  -13.6416   18.3208 N   0  0  0  0  0  0  0  0  0  0  0  0
    7.0553  -13.7952   19.7665 C   0  0  0  0  0  0  0  0  0  0  0  0
    7.5747  -15.1433   20.1189 C   0  0  0  0  0  0  0  0  0  0  0  0
    6.6658  -15.8454   21.0770 C   0  0  0  0  0  0  0  0  0  0  0  0
    7.4389  -16.3805   22.2210 C   0  0  2  0  0  0  0  0  0  0  0  0
    6.5867  -17.2722   22.9754 N   0  0  0  0  0  0  0  0  0  0  0  0
    7.9423  -15.3286   23.1425 C   0  0  0  0  0  0  0  0  0  0  0  0
    8.7410  -14.4246   22.8058 O   0  0  0  0  0  0  0  0  0  0  0  0
    7.9775  -13.0083   15.8406 N   0  0  0  0  0  0  0  0  0  0  0  0
    7.5105  -15.3240   24.4845 C   0  0  1  0  0  0  0  0  0  0  0  0
    7.8772  -14.3559   25.4749 C   0  0  0  0  0  0  0  0  0  0  0  0
    6.7265  -13.5639   26.0189 S   0  0  0  0  0  0  0  0  0  0  0  0
    7.2192  -12.4372   27.3470 C   0  0  0  0  0  0  0  0  0  0  0  0
    8.6604  -15.0115   26.5257 O   0  0  0  0  0  0  0  0  0  0  0  0
    8.2370  -16.0408   27.0999 C   0  0  0  0  0  0  0  0  0  0  0  0
   12.1238  -14.5553   27.9510 C   0  0  2  0  0  0  0  0  0  0  0  0
   10.7374  -15.1665   27.8758 N   0  0  0  0  0  0  0  0  0  0  0  0
    9.9171  -14.4924   26.9150 C   0  0  0  0  0  0  0  0  0  0  0  0
   10.1059  -15.0649   29.2110 O   0  0  0  0  0  0  0  0  0  0  0  0
   10.5822  -15.7710   30.3029 O   0  0  0  0  0  0  0  0  0  0  0  0
  2  1  1  0
  2  4  1  0
  3  2  2  0
  5  4  1  0
  6  5  1  0
  7  6  1  0
  7  8  1  0
  8 10  1  0
  8  9  1  1
 10 12  1  0
 11 10  2  0
 12 13  1  0
 13 16  1  0
 13 14  1  1
 15 14  1  0
 16 17  2  0
 16 20  1  0
 19 18  1  6
 19 21  1  0
 20 19  1  0
 21 23  2  0
 21 22  1  0
M  END
$$$$
