RCA.pdb
     RDKit          3D

 23 22  0  0  1  0  0  0  0  0999 V2000
    9.5128  -18.3696   17.6552 N   0  0  0  0  0  0  0  0  0  0  0  0
    8.1011  -18.2535   17.6437 C   0  0  0  0  0  0  0  0  0  0  0  0
    7.4931  -18.2251   16.5025 N   0  0  0  0  0  0  0  0  0  0  0  0
    7.4070  -18.1732   18.8723 N   0  0  0  0  0  0  0  0  0  0  0  0
    8.0623  -17.5623   20.0335 C   0  0  0  0  0  0  0  0  0  0  0  0
    8.0973  -16.0984   19.7745 C   0  0  0  0  0  0  0  0  0  0  0  0
    8.6893  -15.3537   20.9285 C   0  0  0  0  0  0  0  0  0  0  0  0
    7.7801  -14.2677   21.3606 C   0  0  2  0  0  0  0  0  0  0  0  0
    7.7029  -13.2843   20.3035 N   0  0  0  0  0  0  0  0  0  0  0  0
    8.2219  -13.5811   22.6025 C   0  0  0  0  0  0  0  0  0  0  0  0
    9.1741  -12.7692   22.6545 O   0  0  0  0  0  0  0  0  0  0  0  0
    6.4730  -18.1175   16.3805 N   0  0  0  0  0  0  0  0  0  0  0  0
    7.5452  -13.8412   23.8116 C   0  0  2  0  0  0  0  0  0  0  0  0
    7.8580  -13.2606   25.0835 C   0  0  0  0  0  0  0  0  0  0  0  0
    6.6626  -12.7984   25.8612 S   0  0  0  0  0  0  0  0  0  0  0  0
    5.6030  -14.1661   26.3927 C   0  0  0  0  0  0  0  0  0  0  0  0
    8.7042  -14.1854   25.8425 O   0  0  0  0  0  0  0  0  0  0  0  0
    8.7555  -15.4020   25.5501 C   0  0  0  0  0  0  0  0  0  0  0  0
   11.0972  -13.8639   28.7502 C   0  0  2  0  0  0  0  0  0  0  0  0
   10.3420  -14.6014   27.6606 N   0  0  0  0  0  0  0  0  0  0  0  0
    9.4845  -13.7203   26.9266 C   0  0  0  0  0  0  0  0  0  0  0  0
    9.5242  -15.6623   28.2911 O   0  0  0  0  0  0  0  0  0  0  0  0
   10.0986  -16.7444   28.9369 O   0  0  0  0  0  0  0  0  0  0  0  0
  2  1  1  0
  2  4  1  0
  3  2  2  0
  5  4  1  0
  6  5  1  0
  7  6  1  0
  7  8  1  0
  8 10  1  0
  8  9  1  6
 10 12  1  0
 11 10  2  0
 12 13  1  0
 13 16  1  0
 13 14  1  6
 15 14  1  0
 16 17  2  0
 16 20  1  0
 19 18  1  6
 19 21  1  0
 20 19  1  0
 21 23  2  0
 21 22  1  0
M  END
$$$$
