RCA.pdb
     RDKit          3D

 23 22  0  0  1  0  0  0  0  0999 V2000
    8.5983  -12.9362   16.2442 N   0  0  0  0  0  0  0  0  0  0  0  0
    8.0745  -14.2521   16.2694 C   0  0  0  0  0  0  0  0  0  0  0  0
    8.1854  -14.9814   15.2070 N   0  0  0  0  0  0  0  0  0  0  0  0
    7.4516  -14.7225   17.4477 N   0  0  0  0  0  0  0  0  0  0  0  0
    7.6054  -13.9688   18.6964 C   0  0  0  0  0  0  0  0  0  0  0  0
    8.6221  -14.6948   19.5030 C   0  0  0  0  0  0  0  0  0  0  0  0
    8.9500  -13.9558   20.7613 C   0  0  0  0  0  0  0  0  0  0  0  0
    8.5798  -14.7655   21.9446 C   0  0  2  0  0  0  0  0  0  0  0  0
    7.3932  -15.5282   21.6273 N   0  0  0  0  0  0  0  0  0  0  0  0
    8.2995  -13.9528   23.1571 C   0  0  0  0  0  0  0  0  0  0  0  0
    8.1879  -12.7055   23.1551 O   0  0  0  0  0  0  0  0  0  0  0  0
    7.8114  -15.9391   15.1076 N   0  0  0  0  0  0  0  0  0  0  0  0
    8.1451  -14.6002   24.3998 C   0  0  1  0  0  0  0  0  0  0  0  0
    7.7750  -13.9658   25.6299 C   0  0  0  0  0  0  0  0  0  0  0  0
    6.6146  -13.0237   25.5131 S   0  0  0  0  0  0  0  0  0  0  0  0
    5.7751  -12.7496   27.0930 C   0  0  0  0  0  0  0  0  0  0  0  0
    7.5726  -14.9882   26.6600 O   0  0  0  0  0  0  0  0  0  0  0  0
    7.3234  -14.6704   27.8454 C   0  0  0  0  0  0  0  0  0  0  0  0
    7.7773  -18.7427   26.8495 C   0  0  2  0  0  0  0  0  0  0  0  0
    8.1079  -17.3288   27.2891 N   0  0  0  0  0  0  0  0  0  0  0  0
    7.6551  -16.3621   26.3346 C   0  0  0  0  0  0  0  0  0  0  0  0
    9.5764  -17.2142   27.4381 O   0  0  0  0  0  0  0  0  0  0  0  0
   10.2857  -17.9969   28.3337 O   0  0  0  0  0  0  0  0  0  0  0  0
  2  1  1  0
  2  4  1  0
  3  2  2  0
  5  4  1  0
  6  5  1  0
  7  6  1  0
  7  8  1  0
  8 10  1  0
  8  9  1  6
 10 12  1  0
 11 10  2  0
 12 13  1  0
 13 16  1  0
 13 14  1  6
 15 14  1  0
 16 17  2  0
 16 20  1  0
 19 18  1  1
 19 21  1  0
 20 19  1  0
 21 23  2  0
 21 22  1  0
M  END
$$$$
