LRN.pdb
     RDKit          3D

 28 27  0  0  1  0  0  0  0  0999 V2000
   24.3420  -17.3728  -20.7599 C   0  0  0  0  0  0  0  0  0  0  0  0
   25.0061  -18.6778  -20.5151 C   0  0  2  0  0  0  0  0  0  0  0  0
   25.2545  -19.4505  -21.8042 C   0  0  0  0  0  0  0  0  0  0  0  0
   24.3641  -19.4983  -19.4780 C   0  0  0  0  0  0  0  0  0  0  0  0
   23.9382  -18.8921  -18.2029 C   0  0  2  0  0  0  0  0  0  0  0  0
   25.1059  -18.1364  -17.6363 N   0  0  0  0  0  0  0  0  0  0  0  0
   23.3400  -19.7191  -17.1680 C   0  0  0  0  0  0  0  0  0  0  0  0
   22.5891  -20.7095  -17.4766 O   0  0  0  0  0  0  0  0  0  0  0  0
   25.5447  -20.4893   -8.8501 N   0  0  0  0  0  0  0  0  0  0  0  0
   26.0320  -20.9082  -10.1088 C   0  0  0  0  0  0  0  0  0  0  0  0
   27.2874  -21.1579  -10.2951 N   0  0  0  0  0  0  0  0  0  0  0  0
   25.1553  -21.0754  -11.2333 N   0  0  0  0  0  0  0  0  0  0  0  0
   23.7204  -20.8507  -11.1161 C   0  0  0  0  0  0  0  0  0  0  0  0
   23.0130  -21.0965  -12.4109 C   0  0  0  0  0  0  0  0  0  0  0  0
   23.6059  -20.2557  -13.4881 C   0  0  0  0  0  0  0  0  0  0  0  0
   22.9047  -20.4405  -14.8030 C   0  0  2  0  0  0  0  0  0  0  0  0
   23.5329  -19.5037  -15.7736 N   0  0  0  0  0  0  0  0  0  0  0  0
   21.5046  -19.9926  -14.7127 C   0  0  0  0  0  0  0  0  0  0  0  0
   21.2730  -18.7332  -14.6265 O   0  0  0  0  0  0  0  0  0  0  0  0
   27.6487  -21.4105  -11.2474 N   0  0  0  0  0  0  0  0  0  0  0  0
   16.8331  -18.9542  -17.3792 C   0  0  0  0  0  0  0  0  0  0  0  0
   17.4295  -19.2802  -16.1086 O   0  0  0  0  0  0  0  0  0  0  0  0
   16.9528  -18.7311  -15.0944 C   0  0  0  0  0  0  0  0  0  0  0  0
   18.5438  -20.2194  -16.0582 C   0  0  2  0  0  0  0  0  0  0  0  0
   19.0621  -20.3472  -14.6355 N   0  0  0  0  0  0  0  0  0  0  0  0
   20.4333  -20.8938  -14.7277 C   0  0  0  0  0  0  0  0  0  0  0  0
   18.2789  -21.2919  -13.8208 O   0  0  0  0  0  0  0  0  0  0  0  0
   18.4498  -22.5375  -14.0061 O   0  0  0  0  0  0  0  0  0  0  0  0
  2  1  1  6
  2  3  1  0
  4  2  1  0
  5  4  1  0
  5  6  1  1
  7  5  1  0
  8  7  2  0
  9 10  1  0
 10 11  2  0
 12 13  1  0
 12 10  1  0
 13 14  1  0
 15 14  1  0
 16 15  1  1
 16 17  1  0
 17  7  1  0
 18 16  1  0
 18 19  2  0
 20 21  1  0
 21 22  2  0
 24 23  1  6
 23 21  1  0
 24 25  1  0
 25 18  1  0
 26 24  1  0
 27 26  2  0
 28 26  1  0
M  END
$$$$
