LRN.pdb
     RDKit          3D

 28 27  0  0  1  0  0  0  0  0999 V2000
   26.3761  -18.3784  -19.0695 C   0  0  0  0  0  0  0  0  0  0  0  0
   25.7106  -19.5576  -19.6782 C   0  0  2  0  0  0  0  0  0  0  0  0
   24.6556  -19.1606  -20.7029 C   0  0  0  0  0  0  0  0  0  0  0  0
   25.2130  -20.5408  -18.7052 C   0  0  0  0  0  0  0  0  0  0  0  0
   26.0762  -21.0040  -17.6029 C   0  0  2  0  0  0  0  0  0  0  0  0
   27.0315  -22.0211  -18.1586 N   0  0  0  0  0  0  0  0  0  0  0  0
   25.4820  -21.5078  -16.3758 C   0  0  0  0  0  0  0  0  0  0  0  0
   25.0931  -22.7250  -16.2906 O   0  0  0  0  0  0  0  0  0  0  0  0
   26.3904  -20.5347   -7.7634 N   0  0  0  0  0  0  0  0  0  0  0  0
   27.1096  -20.7232   -8.9653 C   0  0  0  0  0  0  0  0  0  0  0  0
   28.3440  -21.1094   -8.9571 N   0  0  0  0  0  0  0  0  0  0  0  0
   26.5012  -20.4954  -10.2455 N   0  0  0  0  0  0  0  0  0  0  0  0
   25.0617  -20.3135  -10.3794 C   0  0  0  0  0  0  0  0  0  0  0  0
   24.5140  -21.0666  -11.5500 C   0  0  0  0  0  0  0  0  0  0  0  0
   25.1875  -20.6279  -12.8040 C   0  0  0  0  0  0  0  0  0  0  0  0
   24.6463  -21.3319  -14.0150 C   0  0  2  0  0  0  0  0  0  0  0  0
   25.2899  -20.7168  -15.2074 N   0  0  0  0  0  0  0  0  0  0  0  0
   23.2112  -21.0472  -14.1834 C   0  0  0  0  0  0  0  0  0  0  0  0
   22.8714  -20.0261  -14.8828 O   0  0  0  0  0  0  0  0  0  0  0  0
   28.8771  -21.2216   -9.8541 N   0  0  0  0  0  0  0  0  0  0  0  0
   18.3225  -20.6481  -13.2712 C   0  0  0  0  0  0  0  0  0  0  0  0
   19.3341  -19.6301  -13.4007 O   0  0  0  0  0  0  0  0  0  0  0  0
   18.9933  -18.4517  -13.1713 C   0  0  0  0  0  0  0  0  0  0  0  0
   20.6883  -20.0085  -13.7867 C   0  0  2  0  0  0  0  0  0  0  0  0
   20.8061  -21.5203  -13.8844 N   0  0  0  0  0  0  0  0  0  0  0  0
   22.2208  -21.8572  -13.6149 C   0  0  0  0  0  0  0  0  0  0  0  0
   20.4920  -22.0360  -15.2279 O   0  0  0  0  0  0  0  0  0  0  0  0
   19.5560  -22.8874  -15.3461 O   0  0  0  0  0  0  0  0  0  0  0  0
  2  1  1  1
  2  3  1  0
  4  2  1  0
  5  4  1  0
  5  6  1  6
  7  5  1  0
  8  7  2  0
  9 10  1  0
 10 11  2  0
 12 13  1  0
 12 10  1  0
 13 14  1  0
 15 14  1  0
 16 15  1  1
 16 17  1  0
 17  7  1  0
 18 16  1  0
 18 19  2  0
 20 21  1  0
 21 22  2  0
 24 23  1  1
 23 21  1  0
 24 25  1  0
 25 18  1  0
 26 24  1  0
 27 26  2  0
 28 26  1  0
M  END
$$$$
