LRN.pdb
     RDKit          3D

 28 27  0  0  1  0  0  0  0  0999 V2000
   27.0936  -19.5764   -4.8678 C   0  0  0  0  0  0  0  0  0  0  0  0
   28.1298  -20.1434   -5.7671 C   0  0  2  0  0  0  0  0  0  0  0  0
   29.5414  -19.7857   -5.3199 C   0  0  0  0  0  0  0  0  0  0  0  0
   27.9035  -19.8766   -7.1949 C   0  0  0  0  0  0  0  0  0  0  0  0
   26.6181  -20.2284   -7.8263 C   0  0  2  0  0  0  0  0  0  0  0  0
   26.2917  -21.6462   -7.4538 N   0  0  0  0  0  0  0  0  0  0  0  0
   26.4346  -20.0419   -9.2561 C   0  0  0  0  0  0  0  0  0  0  0  0
   26.0167  -18.9239   -9.7202 O   0  0  0  0  0  0  0  0  0  0  0  0
   31.2438  -22.7161   -9.4773 N   0  0  0  0  0  0  0  0  0  0  0  0
   31.6422  -22.3814  -10.7913 C   0  0  0  0  0  0  0  0  0  0  0  0
   32.4944  -23.1058  -11.4409 N   0  0  0  0  0  0  0  0  0  0  0  0
   31.1178  -21.2250  -11.4611 N   0  0  0  0  0  0  0  0  0  0  0  0
   29.7649  -20.7485  -11.2045 C   0  0  0  0  0  0  0  0  0  0  0  0
   28.9693  -20.6323  -12.4658 C   0  0  0  0  0  0  0  0  0  0  0  0
   27.7251  -21.4452  -12.3653 C   0  0  0  0  0  0  0  0  0  0  0  0
   26.6185  -20.7054  -11.6704 C   0  0  2  0  0  0  0  0  0  0  0  0
   26.6955  -21.0521  -10.2253 N   0  0  0  0  0  0  0  0  0  0  0  0
   25.3044  -21.2121  -12.1008 C   0  0  0  0  0  0  0  0  0  0  0  0
   24.7114  -22.0743  -11.3576 O   0  0  0  0  0  0  0  0  0  0  0  0
   32.8914  -22.7770  -12.3550 N   0  0  0  0  0  0  0  0  0  0  0  0
   20.4674  -21.3284  -12.7373 C   0  0  0  0  0  0  0  0  0  0  0  0
   21.1670  -20.1436  -12.3093 O   0  0  0  0  0  0  0  0  0  0  0  0
   20.4788  -19.1379  -12.0402 C   0  0  0  0  0  0  0  0  0  0  0  0
   22.6215  -20.1652  -12.2093 C   0  0  1  0  0  0  0  0  0  0  0  0
   23.2205  -20.9099  -13.3907 N   0  0  0  0  0  0  0  0  0  0  0  0
   24.6893  -20.7758  -13.2804 C   0  0  0  0  0  0  0  0  0  0  0  0
   22.8347  -20.3327  -14.6898 O   0  0  0  0  0  0  0  0  0  0  0  0
   23.4263  -19.2793  -15.0841 O   0  0  0  0  0  0  0  0  0  0  0  0
  2  1  1  1
  2  3  1  0
  4  2  1  0
  5  4  1  0
  5  6  1  6
  7  5  1  0
  8  7  2  0
  9 10  1  0
 10 11  2  0
 12 13  1  0
 12 10  1  0
 13 14  1  0
 15 14  1  0
 16 15  1  6
 16 17  1  0
 17  7  1  0
 18 16  1  0
 18 19  2  0
 20 21  1  0
 21 22  2  0
 24 23  1  1
 23 21  1  0
 24 25  1  0
 25 18  1  0
 26 24  1  0
 27 26  2  0
 28 26  1  0
M  END
$$$$
