LRN.pdb
     RDKit          3D

 28 27  0  0  1  0  0  0  0  0999 V2000
   14.5973  -21.2517  -11.5161 C   0  0  0  0  0  0  0  0  0  0  0  0
   15.4529  -20.4280  -10.6253 C   0  0  2  0  0  0  0  0  0  0  0  0
   14.6810  -19.2857   -9.9774 C   0  0  0  0  0  0  0  0  0  0  0  0
   16.7131  -19.9839  -11.2380 C   0  0  0  0  0  0  0  0  0  0  0  0
   17.6033  -20.9537  -11.9028 C   0  0  2  0  0  0  0  0  0  0  0  0
   17.7718  -22.1317  -10.9865 N   0  0  0  0  0  0  0  0  0  0  0  0
   18.9016  -20.5282  -12.3991 C   0  0  0  0  0  0  0  0  0  0  0  0
   19.0158  -19.4605  -13.0967 O   0  0  0  0  0  0  0  0  0  0  0  0
   25.6087  -23.5561  -14.4996 N   0  0  0  0  0  0  0  0  0  0  0  0
   26.4323  -22.4999  -14.0486 C   0  0  0  0  0  0  0  0  0  0  0  0
   27.4491  -22.0976  -14.7395 N   0  0  0  0  0  0  0  0  0  0  0  0
   26.1754  -21.8282  -12.8061 N   0  0  0  0  0  0  0  0  0  0  0  0
   24.9038  -21.9797  -12.1109 C   0  0  0  0  0  0  0  0  0  0  0  0
   23.7756  -21.3677  -12.8790 C   0  0  0  0  0  0  0  0  0  0  0  0
   22.5056  -21.4879  -12.1100 C   0  0  0  0  0  0  0  0  0  0  0  0
   21.3782  -20.7342  -12.7549 C   0  0  2  0  0  0  0  0  0  0  0  0
   20.1118  -21.2391  -12.1586 N   0  0  0  0  0  0  0  0  0  0  0  0
   21.2745  -21.0766  -14.1835 C   0  0  0  0  0  0  0  0  0  0  0  0
   20.7570  -22.2070  -14.5023 O   0  0  0  0  0  0  0  0  0  0  0  0
   28.0592  -21.3178  -14.3920 N   0  0  0  0  0  0  0  0  0  0  0  0
   18.0611  -19.9515  -18.3456 C   0  0  0  0  0  0  0  0  0  0  0  0
   19.2383  -20.6635  -17.9170 O   0  0  0  0  0  0  0  0  0  0  0  0
   19.7679  -21.4407  -18.7373 C   0  0  0  0  0  0  0  0  0  0  0  0
   19.7544  -20.4526  -16.5697 C   0  0  2  0  0  0  0  0  0  0  0  0
   21.2738  -20.4719  -16.5777 N   0  0  0  0  0  0  0  0  0  0  0  0
   21.7120  -20.2074  -15.1901 C   0  0  0  0  0  0  0  0  0  0  0  0
   21.8579  -19.4138  -17.4197 O   0  0  0  0  0  0  0  0  0  0  0  0
   22.1761  -19.6989  -18.6166 O   0  0  0  0  0  0  0  0  0  0  0  0
  2  1  1  6
  2  3  1  0
  4  2  1  0
  5  4  1  0
  5  6  1  1
  7  5  1  0
  8  7  2  0
  9 10  1  0
 10 11  2  0
 12 13  1  0
 12 10  1  0
 13 14  1  0
 15 14  1  0
 16 15  1  1
 16 17  1  0
 17  7  1  0
 18 16  1  0
 18 19  2  0
 20 21  1  0
 21 22  2  0
 24 23  1  1
 23 21  1  0
 24 25  1  0
 25 18  1  0
 26 24  1  0
 27 26  2  0
 28 26  1  0
M  END
$$$$
