LRN.pdb
     RDKit          3D

 28 27  0  0  1  0  0  0  0  0999 V2000
   15.9572  -14.3638  -11.4875 C   0  0  0  0  0  0  0  0  0  0  0  0
   16.2095  -13.7831  -12.8303 C   0  0  2  0  0  0  0  0  0  0  0  0
   17.0769  -14.6870  -13.6970 C   0  0  0  0  0  0  0  0  0  0  0  0
   16.6861  -12.3927  -12.8084 C   0  0  0  0  0  0  0  0  0  0  0  0
   15.9211  -11.3516  -12.0973 C   0  0  2  0  0  0  0  0  0  0  0  0
   14.5394  -11.3096  -12.6845 N   0  0  0  0  0  0  0  0  0  0  0  0
   16.4513  -10.0023  -11.9932 C   0  0  0  0  0  0  0  0  0  0  0  0
   17.6120   -9.7938  -11.4940 O   0  0  0  0  0  0  0  0  0  0  0  0
   16.2247   -8.4451  -18.8330 N   0  0  0  0  0  0  0  0  0  0  0  0
   17.5004   -8.7257  -18.2935 C   0  0  0  0  0  0  0  0  0  0  0  0
   18.4266   -9.2774  -19.0082 N   0  0  0  0  0  0  0  0  0  0  0  0
   17.8232   -8.4097  -16.9308 N   0  0  0  0  0  0  0  0  0  0  0  0
   16.8395   -7.8117  -16.0376 C   0  0  0  0  0  0  0  0  0  0  0  0
   17.4150   -7.5333  -14.6854 C   0  0  0  0  0  0  0  0  0  0  0  0
   16.3712   -6.9604  -13.7905 C   0  0  0  0  0  0  0  0  0  0  0  0
   16.4427   -7.5251  -12.4009 C   0  0  2  0  0  0  0  0  0  0  0  0
   15.7482   -8.8410  -12.4231 N   0  0  0  0  0  0  0  0  0  0  0  0
   15.6515   -6.7070  -11.4662 C   0  0  0  0  0  0  0  0  0  0  0  0
   14.3718   -6.7882  -11.5197 O   0  0  0  0  0  0  0  0  0  0  0  0
   19.3798   -9.4550  -18.6070 N   0  0  0  0  0  0  0  0  0  0  0  0
   15.5686   -7.8500   -7.5119 C   0  0  0  0  0  0  0  0  0  0  0  0
   14.8805   -6.6412   -7.8879 O   0  0  0  0  0  0  0  0  0  0  0  0
   13.6330   -6.6728   -7.9012 C   0  0  0  0  0  0  0  0  0  0  0  0
   15.6523   -5.4527   -8.2312 C   0  0  2  0  0  0  0  0  0  0  0  0
   15.3736   -5.0391   -9.6666 N   0  0  0  0  0  0  0  0  0  0  0  0
   16.2526   -5.8609  -10.5266 C   0  0  0  0  0  0  0  0  0  0  0  0
   15.7091   -3.6301   -9.9346 O   0  0  0  0  0  0  0  0  0  0  0  0
   16.7727   -3.3733  -10.5810 O   0  0  0  0  0  0  0  0  0  0  0  0
  2  1  1  1
  2  3  1  0
  4  2  1  0
  5  4  1  0
  5  6  1  6
  7  5  1  0
  8  7  2  0
  9 10  1  0
 10 11  2  0
 12 13  1  0
 12 10  1  0
 13 14  1  0
 15 14  1  0
 16 15  1  6
 16 17  1  0
 17  7  1  0
 18 16  1  0
 18 19  2  0
 20 21  1  0
 21 22  2  0
 24 23  1  6
 23 21  1  0
 24 25  1  0
 25 18  1  0
 26 24  1  0
 27 26  2  0
 28 26  1  0
M  END
$$$$
