LRN.pdb
     RDKit          3D

 28 27  0  0  1  0  0  0  0  0999 V2000
   17.0219  -16.0960  -18.3381 C   0  0  0  0  0  0  0  0  0  0  0  0
   18.1618  -15.1450  -18.3510 C   0  0  2  0  0  0  0  0  0  0  0  0
   19.4195  -15.7587  -18.9529 C   0  0  0  0  0  0  0  0  0  0  0  0
   18.4147  -14.4861  -17.0615 C   0  0  0  0  0  0  0  0  0  0  0  0
   19.5393  -13.5441  -16.9115 C   0  0  2  0  0  0  0  0  0  0  0  0
   20.7440  -14.3268  -16.4735 N   0  0  0  0  0  0  0  0  0  0  0  0
   19.3924  -12.3622  -16.0783 C   0  0  0  0  0  0  0  0  0  0  0  0
   19.5360  -12.4371  -14.8080 O   0  0  0  0  0  0  0  0  0  0  0  0
   23.3546   -4.8797  -15.5595 N   0  0  0  0  0  0  0  0  0  0  0  0
   22.2550   -4.6989  -14.6904 C   0  0  0  0  0  0  0  0  0  0  0  0
   22.0882   -3.5948  -14.0373 N   0  0  0  0  0  0  0  0  0  0  0  0
   21.2765   -5.7311  -14.4959 N   0  0  0  0  0  0  0  0  0  0  0  0
   21.3096   -6.9634  -15.2729 C   0  0  0  0  0  0  0  0  0  0  0  0
   20.1031   -7.8107  -15.0205 C   0  0  0  0  0  0  0  0  0  0  0  0
   20.1787   -9.0642  -15.8215 C   0  0  0  0  0  0  0  0  0  0  0  0
   18.9635   -9.9276  -15.6403 C   0  0  2  0  0  0  0  0  0  0  0  0
   19.0872  -11.0681  -16.5882 N   0  0  0  0  0  0  0  0  0  0  0  0
   17.7505   -9.2158  -16.0773 C   0  0  0  0  0  0  0  0  0  0  0  0
   17.6652   -8.8568  -17.3065 O   0  0  0  0  0  0  0  0  0  0  0  0
   21.2270   -3.4389  -13.4583 N   0  0  0  0  0  0  0  0  0  0  0  0
   13.3645  -10.8245  -14.1235 C   0  0  0  0  0  0  0  0  0  0  0  0
   13.8652   -9.9734  -15.1729 O   0  0  0  0  0  0  0  0  0  0  0  0
   13.8716  -10.4363  -16.3317 C   0  0  0  0  0  0  0  0  0  0  0  0
   14.3351   -8.6321  -14.8468 C   0  0  2  0  0  0  0  0  0  0  0  0
   15.5027   -8.2502  -15.7412 N   0  0  0  0  0  0  0  0  0  0  0  0
   16.6976   -8.9328  -15.1990 C   0  0  0  0  0  0  0  0  0  0  0  0
   15.7910   -6.8059  -15.7252 O   0  0  0  0  0  0  0  0  0  0  0  0
   16.2786   -6.2974  -14.6676 O   0  0  0  0  0  0  0  0  0  0  0  0
  2  1  1  1
  2  3  1  0
  4  2  1  0
  5  4  1  0
  5  6  1  1
  7  5  1  0
  8  7  2  0
  9 10  1  0
 10 11  2  0
 12 13  1  0
 12 10  1  0
 13 14  1  0
 15 14  1  0
 16 15  1  6
 16 17  1  0
 17  7  1  0
 18 16  1  0
 18 19  2  0
 20 21  1  0
 21 22  2  0
 24 23  1  6
 23 21  1  0
 24 25  1  0
 25 18  1  0
 26 24  1  0
 27 26  2  0
 28 26  1  0
M  END
$$$$
