LRN.pdb
     RDKit          3D

 28 27  0  0  1  0  0  0  0  0999 V2000
   14.5985  -24.2517    0.2876 C   0  0  0  0  0  0  0  0  0  0  0  0
   14.6642  -22.9533   -0.4291 C   0  0  2  0  0  0  0  0  0  0  0  0
   15.0898  -23.1166   -1.8827 C   0  0  0  0  0  0  0  0  0  0  0  0
   15.4311  -21.9134    0.2719 C   0  0  0  0  0  0  0  0  0  0  0  0
   15.2294  -21.6804    1.7141 C   0  0  2  0  0  0  0  0  0  0  0  0
   13.7981  -21.2757    1.9222 N   0  0  0  0  0  0  0  0  0  0  0  0
   16.1061  -20.7716    2.4340 C   0  0  0  0  0  0  0  0  0  0  0  0
   17.3781  -20.9058    2.3722 O   0  0  0  0  0  0  0  0  0  0  0  0
   17.5961  -12.6004    3.4409 N   0  0  0  0  0  0  0  0  0  0  0  0
   18.1225  -13.0930    4.6564 C   0  0  0  0  0  0  0  0  0  0  0  0
   18.9376  -12.3877    5.3715 N   0  0  0  0  0  0  0  0  0  0  0  0
   17.7747  -14.3956    5.1498 N   0  0  0  0  0  0  0  0  0  0  0  0
   16.9442  -15.3047    4.3707 C   0  0  0  0  0  0  0  0  0  0  0  0
   16.7463  -16.6120    5.0699 C   0  0  0  0  0  0  0  0  0  0  0  0
   15.9104  -17.5197    4.2356 C   0  0  0  0  0  0  0  0  0  0  0  0
   16.6297  -18.7901    3.8840 C   0  0  2  0  0  0  0  0  0  0  0  0
   15.6388  -19.6942    3.2395 N   0  0  0  0  0  0  0  0  0  0  0  0
   17.0441  -19.5068    5.1020 C   0  0  0  0  0  0  0  0  0  0  0  0
   16.1821  -20.2521    5.6925 O   0  0  0  0  0  0  0  0  0  0  0  0
   19.2928  -12.7468    6.2913 N   0  0  0  0  0  0  0  0  0  0  0  0
   21.6768  -21.0409    8.5940 C   0  0  0  0  0  0  0  0  0  0  0  0
   20.4158  -21.3742    7.9814 O   0  0  0  0  0  0  0  0  0  0  0  0
   19.7105  -22.2309    8.5523 C   0  0  0  0  0  0  0  0  0  0  0  0
   20.0212  -20.7114    6.7441 C   0  0  2  0  0  0  0  0  0  0  0  0
   18.6392  -20.0972    6.8923 N   0  0  0  0  0  0  0  0  0  0  0  0
   18.3407  -19.4043    5.6201 C   0  0  0  0  0  0  0  0  0  0  0  0
   18.5720  -19.0825    7.9579 O   0  0  0  0  0  0  0  0  0  0  0  0
   18.7417  -17.8627    7.6442 O   0  0  0  0  0  0  0  0  0  0  0  0
  2  1  1  1
  2  3  1  0
  4  2  1  0
  5  4  1  0
  5  6  1  6
  7  5  1  0
  8  7  2  0
  9 10  1  0
 10 11  2  0
 12 13  1  0
 12 10  1  0
 13 14  1  0
 15 14  1  0
 16 15  1  1
 16 17  1  0
 17  7  1  0
 18 16  1  0
 18 19  2  0
 20 21  1  0
 21 22  2  0
 24 23  1  6
 23 21  1  0
 24 25  1  0
 25 18  1  0
 26 24  1  0
 27 26  2  0
 28 26  1  0
M  END
$$$$
