LRN.pdb
     RDKit          3D

 28 27  0  0  1  0  0  0  0  0999 V2000
   28.8718  -18.7167   -6.2980 C   0  0  0  0  0  0  0  0  0  0  0  0
   28.3256  -20.0281   -5.8672 C   0  0  2  0  0  0  0  0  0  0  0  0
   29.4036  -20.9469   -5.3065 C   0  0  0  0  0  0  0  0  0  0  0  0
   27.4823  -20.6919   -6.8718 C   0  0  0  0  0  0  0  0  0  0  0  0
   26.4500  -19.9319   -7.6008 C   0  0  2  0  0  0  0  0  0  0  0  0
   25.6636  -19.1383   -6.5972 N   0  0  0  0  0  0  0  0  0  0  0  0
   25.5415  -20.6196   -8.5033 C   0  0  0  0  0  0  0  0  0  0  0  0
   25.9756  -21.5151   -9.3093 O   0  0  0  0  0  0  0  0  0  0  0  0
   19.6257  -24.4107   -6.1241 N   0  0  0  0  0  0  0  0  0  0  0  0
   19.0949  -24.1219   -7.4017 C   0  0  0  0  0  0  0  0  0  0  0  0
   17.9064  -24.5052   -7.7387 N   0  0  0  0  0  0  0  0  0  0  0  0
   19.8508  -23.3905   -8.3788 N   0  0  0  0  0  0  0  0  0  0  0  0
   21.2856  -23.1851   -8.2292 C   0  0  0  0  0  0  0  0  0  0  0  0
   21.6095  -21.7671   -7.8804 C   0  0  0  0  0  0  0  0  0  0  0  0
   21.8829  -20.9832   -9.1171 C   0  0  0  0  0  0  0  0  0  0  0  0
   23.3139  -21.0986   -9.5574 C   0  0  2  0  0  0  0  0  0  0  0  0
   24.1420  -20.3633   -8.5635 N   0  0  0  0  0  0  0  0  0  0  0  0
   23.5283  -20.3754  -10.8222 C   0  0  0  0  0  0  0  0  0  0  0  0
   23.7012  -19.1045  -10.7747 O   0  0  0  0  0  0  0  0  0  0  0  0
   17.5554  -24.3665   -8.7179 N   0  0  0  0  0  0  0  0  0  0  0  0
   24.2064  -19.1385  -15.7154 C   0  0  0  0  0  0  0  0  0  0  0  0
   24.9328  -20.3509  -15.4347 O   0  0  0  0  0  0  0  0  0  0  0  0
   25.7245  -20.7595  -16.3085 C   0  0  0  0  0  0  0  0  0  0  0  0
   24.7190  -21.0389  -14.1670 C   0  0  1  0  0  0  0  0  0  0  0  0
   23.8023  -20.2222  -13.2716 N   0  0  0  0  0  0  0  0  0  0  0  0
   23.5572  -21.0320  -12.0584 C   0  0  0  0  0  0  0  0  0  0  0  0
   22.4881  -19.9578  -13.8821 O   0  0  0  0  0  0  0  0  0  0  0  0
   21.5510  -20.7939  -13.6878 O   0  0  0  0  0  0  0  0  0  0  0  0
  2  1  1  6
  2  3  1  0
  4  2  1  0
  5  4  1  0
  5  6  1  1
  7  5  1  0
  8  7  2  0
  9 10  1  0
 10 11  2  0
 12 13  1  0
 12 10  1  0
 13 14  1  0
 15 14  1  0
 16 15  1  1
 16 17  1  0
 17  7  1  0
 18 16  1  0
 18 19  2  0
 20 21  1  0
 21 22  2  0
 24 23  1  1
 23 21  1  0
 24 25  1  0
 25 18  1  0
 26 24  1  0
 27 26  2  0
 28 26  1  0
M  END
$$$$
