LRN.pdb
     RDKit          3D

 28 27  0  0  1  0  0  0  0  0999 V2000
   27.9928  -20.1205  -13.4494 C   0  0  0  0  0  0  0  0  0  0  0  0
   27.8548  -20.2309  -14.9234 C   0  0  2  0  0  0  0  0  0  0  0  0
   28.6094  -19.1305  -15.6584 C   0  0  0  0  0  0  0  0  0  0  0  0
   26.4692  -20.3774  -15.3920 C   0  0  0  0  0  0  0  0  0  0  0  0
   25.5613  -21.3455  -14.7491 C   0  0  2  0  0  0  0  0  0  0  0  0
   26.0071  -22.7265  -15.1364 N   0  0  0  0  0  0  0  0  0  0  0  0
   24.1239  -21.2254  -14.9287 C   0  0  0  0  0  0  0  0  0  0  0  0
   23.5902  -21.4275  -16.0751 O   0  0  0  0  0  0  0  0  0  0  0  0
   18.5142  -24.5232  -13.5921 N   0  0  0  0  0  0  0  0  0  0  0  0
   19.2494  -25.2673  -12.6419 C   0  0  0  0  0  0  0  0  0  0  0  0
   19.1897  -26.5589  -12.6066 N   0  0  0  0  0  0  0  0  0  0  0  0
   20.0941  -24.6224  -11.6767 N   0  0  0  0  0  0  0  0  0  0  0  0
   20.3009  -23.1801  -11.6935 C   0  0  0  0  0  0  0  0  0  0  0  0
   20.8489  -22.7137  -13.0047 C   0  0  0  0  0  0  0  0  0  0  0  0
   21.0101  -21.2329  -12.9969 C   0  0  0  0  0  0  0  0  0  0  0  0
   21.7738  -20.7389  -14.1917 C   0  0  2  0  0  0  0  0  0  0  0  0
   23.2218  -20.8847  -13.8809 N   0  0  0  0  0  0  0  0  0  0  0  0
   21.5798  -19.2899  -14.3697 C   0  0  0  0  0  0  0  0  0  0  0  0
   22.3398  -18.4892  -13.7152 O   0  0  0  0  0  0  0  0  0  0  0  0
   19.7054  -27.1000  -11.8701 N   0  0  0  0  0  0  0  0  0  0  0  0
   23.1477  -15.9067  -18.1047 C   0  0  0  0  0  0  0  0  0  0  0  0
   22.5024  -16.0063  -16.8201 O   0  0  0  0  0  0  0  0  0  0  0  0
   22.1980  -14.9399  -16.2480 C   0  0  0  0  0  0  0  0  0  0  0  0
   22.2358  -17.3218  -16.2506 C   0  0  2  0  0  0  0  0  0  0  0  0
   20.8004  -17.4025  -15.7584 N   0  0  0  0  0  0  0  0  0  0  0  0
   20.6057  -18.7706  -15.2309 C   0  0  0  0  0  0  0  0  0  0  0  0
   19.8122  -17.2143  -16.8343 O   0  0  0  0  0  0  0  0  0  0  0  0
   19.7549  -16.0843  -17.4130 O   0  0  0  0  0  0  0  0  0  0  0  0
  2  1  1  1
  2  3  1  0
  4  2  1  0
  5  4  1  0
  5  6  1  6
  7  5  1  0
  8  7  2  0
  9 10  1  0
 10 11  2  0
 12 13  1  0
 12 10  1  0
 13 14  1  0
 15 14  1  0
 16 15  1  1
 16 17  1  0
 17  7  1  0
 18 16  1  0
 18 19  2  0
 20 21  1  0
 21 22  2  0
 24 23  1  1
 23 21  1  0
 24 25  1  0
 25 18  1  0
 26 24  1  0
 27 26  2  0
 28 26  1  0
M  END
$$$$
