LRN.pdb
     RDKit          3D

 28 27  0  0  1  0  0  0  0  0999 V2000
   10.2008   -9.3820  -10.1597 C   0  0  0  0  0  0  0  0  0  0  0  0
   11.0078   -9.8186  -11.3268 C   0  0  2  0  0  0  0  0  0  0  0  0
   10.1465  -10.1039  -12.5505 C   0  0  0  0  0  0  0  0  0  0  0  0
   11.9549  -10.9044  -11.0355 C   0  0  0  0  0  0  0  0  0  0  0  0
   12.8293  -11.4380  -12.0963 C   0  0  2  0  0  0  0  0  0  0  0  0
   13.1173  -12.8774  -11.7789 N   0  0  0  0  0  0  0  0  0  0  0  0
   14.0661  -10.7527  -12.4332 C   0  0  0  0  0  0  0  0  0  0  0  0
   15.0498  -10.7408  -11.6134 O   0  0  0  0  0  0  0  0  0  0  0  0
   17.4259  -14.3296  -17.8169 N   0  0  0  0  0  0  0  0  0  0  0  0
   18.0311  -14.4427  -16.5448 C   0  0  0  0  0  0  0  0  0  0  0  0
   18.5597  -15.5545  -16.1478 N   0  0  0  0  0  0  0  0  0  0  0  0
   18.0861  -13.3294  -15.6400 N   0  0  0  0  0  0  0  0  0  0  0  0
   17.4467  -12.0598  -15.9602 C   0  0  0  0  0  0  0  0  0  0  0  0
   16.9185  -11.3809  -14.7366 C   0  0  0  0  0  0  0  0  0  0  0  0
   16.1972  -10.1329  -15.1121 C   0  0  0  0  0  0  0  0  0  0  0  0
   15.6049   -9.4390  -13.9195 C   0  0  2  0  0  0  0  0  0  0  0  0
   14.2786  -10.0620  -13.6602 N   0  0  0  0  0  0  0  0  0  0  0  0
   15.2960   -8.0342  -14.2359 C   0  0  0  0  0  0  0  0  0  0  0  0
   14.1181   -7.7506  -14.6594 O   0  0  0  0  0  0  0  0  0  0  0  0
   18.9878  -15.6342  -15.1930 N   0  0  0  0  0  0  0  0  0  0  0  0
   15.1077   -3.0793  -14.8759 C   0  0  0  0  0  0  0  0  0  0  0  0
   14.3865   -3.8114  -13.8658 O   0  0  0  0  0  0  0  0  0  0  0  0
   13.5164   -3.1915  -13.2208 C   0  0  0  0  0  0  0  0  0  0  0  0
   14.6948   -5.2188  -13.6414 C   0  0  1  0  0  0  0  0  0  0  0  0
   15.8661   -5.6471  -14.5095 N   0  0  0  0  0  0  0  0  0  0  0  0
   16.2400   -7.0121  -14.0797 C   0  0  0  0  0  0  0  0  0  0  0  0
   17.0572   -4.8000  -14.3271 O   0  0  0  0  0  0  0  0  0  0  0  0
   17.9796   -5.2103  -13.5552 O   0  0  0  0  0  0  0  0  0  0  0  0
  2  1  1  1
  2  3  1  0
  4  2  1  0
  5  4  1  0
  5  6  1  1
  7  5  1  0
  8  7  2  0
  9 10  1  0
 10 11  2  0
 12 13  1  0
 12 10  1  0
 13 14  1  0
 15 14  1  0
 16 15  1  6
 16 17  1  0
 17  7  1  0
 18 16  1  0
 18 19  2  0
 20 21  1  0
 21 22  2  0
 24 23  1  6
 23 21  1  0
 24 25  1  0
 25 18  1  0
 26 24  1  0
 27 26  2  0
 28 26  1  0
M  END
$$$$
