IYT.pdb
     RDKit          3D

 28 28  0  0  1  0  0  0  0  0999 V2000
   28.7804  -17.2017  -16.8460 C   0  0  0  0  0  0  0  0  0  0  0  0
   28.9988  -18.5206  -16.1551 C   0  0  0  0  0  0  0  0  0  0  0  0
   27.7513  -18.9912  -15.4330 C   0  0  2  0  0  0  0  0  0  0  0  0
   27.2320  -17.9775  -14.4597 C   0  0  0  0  0  0  0  0  0  0  0  0
   28.0524  -20.3197  -14.8188 C   0  0  2  0  0  0  0  0  0  0  0  0
   28.6112  -21.1800  -15.8442 N   0  0  0  0  0  0  0  0  0  0  0  0
   26.8682  -20.9374  -14.1702 C   0  0  0  0  0  0  0  0  0  0  0  0
   25.9685  -21.4498  -14.8853 O   0  0  0  0  0  0  0  0  0  0  0  0
   27.7491  -18.6579   -6.8277 O   0  0  0  0  0  0  0  0  0  0  0  0
   27.3272  -19.5383   -7.8189 C   0  0  0  0  0  0  0  0  0  0  0  0
   28.2226  -20.2640   -8.5768 C   0  0  0  0  0  0  0  0  0  0  0  0
   27.7593  -21.1253   -9.5488 C   0  0  0  0  0  0  0  0  0  0  0  0
   26.4225  -21.3135   -9.8199 C   0  0  0  0  0  0  0  0  0  0  0  0
   25.9330  -22.2320  -10.8558 C   0  0  0  0  0  0  0  0  0  0  0  0
   25.5054  -21.6384  -12.1450 C   0  0  2  0  0  0  0  0  0  0  0  0
   26.6860  -20.9861  -12.7735 N   0  0  0  0  0  0  0  0  0  0  0  0
   24.4445  -20.6624  -12.1681 C   0  0  0  0  0  0  0  0  0  0  0  0
   24.7437  -19.4124  -12.2575 O   0  0  0  0  0  0  0  0  0  0  0  0
   25.5376  -20.5704   -9.0424 C   0  0  0  0  0  0  0  0  0  0  0  0
   25.9758  -19.6998   -8.0613 C   0  0  0  0  0  0  0  0  0  0  0  0
   21.4671  -20.8706  -15.2627 C   0  0  0  0  0  0  0  0  0  0  0  0
   22.5412  -20.2260  -14.4147 C   0  0  1  0  0  0  0  0  0  0  0  0
   22.6827  -18.9115  -14.8784 O   0  0  0  0  0  0  0  0  0  0  0  0
   22.1110  -20.1737  -12.9578 C   0  0  2  0  0  0  0  0  0  0  0  0
   23.0347  -20.8860  -12.1096 N   0  0  0  0  0  0  0  0  0  0  0  0
   20.7505  -20.6868  -12.7689 C   0  0  0  0  0  0  0  0  0  0  0  0
   20.4758  -21.7809  -11.9910 O   0  0  0  0  0  0  0  0  0  0  0  0
   19.7853  -20.1125  -13.3362 O   0  0  0  0  0  0  0  0  0  0  0  0
  2  3  1  0
  2  1  1  0
  3  4  1  1
  5  3  1  0
  5  6  1  6
  7  5  1  0
  8  7  2  0
  9 10  1  0
 10 11  2  0
 10 20  1  0
 11 12  1  0
 12 13  2  0
 13 14  1  0
 15 14  1  1
 15 16  1  0
 16  7  1  0
 17 15  1  0
 17 18  2  0
 19 13  1  0
 20 19  2  0
 22 24  1  0
 22 21  1  6
 23 22  1  0
 24 25  1  1
 25 17  1  0
 26 24  1  0
 27 26  1  0
 28 26  2  0
M  END
$$$$
