IYT.pdb
     RDKit          3D

 28 28  0  0  1  0  0  0  0  0999 V2000
   20.9853  -30.1239  -11.8600 C   0  0  0  0  0  0  0  0  0  0  0  0
   21.7500  -30.0066  -10.5692 C   0  0  0  0  0  0  0  0  0  0  0  0
   22.7077  -31.1660  -10.3750 C   0  0  2  0  0  0  0  0  0  0  0  0
   22.0424  -32.4975  -10.5453 C   0  0  0  0  0  0  0  0  0  0  0  0
   23.3761  -30.9897   -9.0502 C   0  0  2  0  0  0  0  0  0  0  0  0
   24.1308  -29.7516   -9.0815 N   0  0  0  0  0  0  0  0  0  0  0  0
   24.2319  -32.1443   -8.6774 C   0  0  0  0  0  0  0  0  0  0  0  0
   23.7387  -33.3019   -8.6678 O   0  0  0  0  0  0  0  0  0  0  0  0
   26.2744  -35.6353  -14.1224 O   0  0  0  0  0  0  0  0  0  0  0  0
   26.5716  -35.0638  -12.8893 C   0  0  0  0  0  0  0  0  0  0  0  0
   26.3762  -35.7447  -11.7056 C   0  0  0  0  0  0  0  0  0  0  0  0
   26.6849  -35.1387  -10.5061 C   0  0  0  0  0  0  0  0  0  0  0  0
   27.1901  -33.8614  -10.4102 C   0  0  0  0  0  0  0  0  0  0  0  0
   27.5180  -33.2197   -9.1308 C   0  0  0  0  0  0  0  0  0  0  0  0
   26.4644  -33.2023   -8.0883 C   0  0  2  0  0  0  0  0  0  0  0  0
   25.5913  -32.0210   -8.3262 N   0  0  0  0  0  0  0  0  0  0  0  0
   26.8344  -33.1572   -6.6956 C   0  0  0  0  0  0  0  0  0  0  0  0
   27.5816  -32.1953   -6.2756 O   0  0  0  0  0  0  0  0  0  0  0  0
   27.3789  -33.1938  -11.6178 C   0  0  0  0  0  0  0  0  0  0  0  0
   27.0775  -33.7784  -12.8344 C   0  0  0  0  0  0  0  0  0  0  0  0
   25.0116  -32.5085   -3.6040 C   0  0  0  0  0  0  0  0  0  0  0  0
   25.8011  -33.7668   -3.3186 C   0  0  1  0  0  0  0  0  0  0  0  0
   24.9236  -34.8423   -3.5095 O   0  0  0  0  0  0  0  0  0  0  0  0
   26.9511  -33.9097   -4.3023 C   0  0  2  0  0  0  0  0  0  0  0  0
   26.4723  -34.0653   -5.6538 N   0  0  0  0  0  0  0  0  0  0  0  0
   27.8405  -35.0204   -3.9487 C   0  0  0  0  0  0  0  0  0  0  0  0
   28.5937  -35.0270   -2.8040 O   0  0  0  0  0  0  0  0  0  0  0  0
   27.9283  -36.0145   -4.7150 O   0  0  0  0  0  0  0  0  0  0  0  0
  2  3  1  0
  2  1  1  0
  3  4  1  1
  5  3  1  0
  5  6  1  6
  7  5  1  0
  8  7  2  0
  9 10  1  0
 10 11  2  0
 10 20  1  0
 11 12  1  0
 12 13  2  0
 13 14  1  0
 15 14  1  6
 15 16  1  0
 16  7  1  0
 17 15  1  0
 17 18  2  0
 19 13  1  0
 20 19  2  0
 22 24  1  0
 22 21  1  6
 23 22  1  0
 24 25  1  6
 25 17  1  0
 26 24  1  0
 27 26  1  0
 28 26  2  0
M  END
$$$$
