IYT.pdb
     RDKit          3D

 28 28  0  0  1  0  0  0  0  0999 V2000
   30.6228  -20.2106  -20.0640 C   0  0  0  0  0  0  0  0  0  0  0  0
   29.4269  -19.5436  -19.4396 C   0  0  0  0  0  0  0  0  0  0  0  0
   28.7530  -20.4385  -18.4178 C   0  0  2  0  0  0  0  0  0  0  0  0
   28.4684  -21.8093  -18.9511 C   0  0  0  0  0  0  0  0  0  0  0  0
   27.5422  -19.7236  -17.9121 C   0  0  2  0  0  0  0  0  0  0  0  0
   27.9143  -18.3552  -17.6082 N   0  0  0  0  0  0  0  0  0  0  0  0
   26.9217  -20.3957  -16.7425 C   0  0  0  0  0  0  0  0  0  0  0  0
   26.5318  -21.5874  -16.8491 O   0  0  0  0  0  0  0  0  0  0  0  0
   23.7292  -21.2670   -8.3428 O   0  0  0  0  0  0  0  0  0  0  0  0
   24.3884  -20.9033   -9.5127 C   0  0  0  0  0  0  0  0  0  0  0  0
   23.8722  -19.9587  -10.3752 C   0  0  0  0  0  0  0  0  0  0  0  0
   24.5602  -19.6292  -11.5239 C   0  0  0  0  0  0  0  0  0  0  0  0
   25.7636  -20.1981  -11.8761 C   0  0  0  0  0  0  0  0  0  0  0  0
   26.4934  -19.8442  -13.1001 C   0  0  0  0  0  0  0  0  0  0  0  0
   26.0000  -20.4152  -14.3759 C   0  0  2  0  0  0  0  0  0  0  0  0
   26.7385  -19.7679  -15.4940 N   0  0  0  0  0  0  0  0  0  0  0  0
   24.6004  -20.3227  -14.7092 C   0  0  0  0  0  0  0  0  0  0  0  0
   24.1699  -19.2762  -15.3254 O   0  0  0  0  0  0  0  0  0  0  0  0
   26.2649  -21.1488  -10.9903 C   0  0  0  0  0  0  0  0  0  0  0  0
   25.5952  -21.4976   -9.8317 C   0  0  0  0  0  0  0  0  0  0  0  0
   20.1929  -21.7851  -16.0599 C   0  0  0  0  0  0  0  0  0  0  0  0
   21.6842  -21.9470  -15.8644 C   0  0  1  0  0  0  0  0  0  0  0  0
   22.2888  -21.5825  -17.0746 O   0  0  0  0  0  0  0  0  0  0  0  0
   22.1852  -21.0078  -14.7794 C   0  0  2  0  0  0  0  0  0  0  0  0
   23.5643  -21.2714  -14.4497 N   0  0  0  0  0  0  0  0  0  0  0  0
   21.3545  -21.0710  -13.5729 C   0  0  0  0  0  0  0  0  0  0  0  0
   20.4140  -20.1205  -13.2738 O   0  0  0  0  0  0  0  0  0  0  0  0
   21.4979  -22.0284  -12.7691 O   0  0  0  0  0  0  0  0  0  0  0  0
  2  3  1  0
  2  1  1  0
  3  4  1  6
  5  3  1  0
  5  6  1  1
  7  5  1  0
  8  7  2  0
  9 10  1  0
 10 11  2  0
 10 20  1  0
 11 12  1  0
 12 13  2  0
 13 14  1  0
 15 14  1  1
 15 16  1  0
 16  7  1  0
 17 15  1  0
 17 18  2  0
 19 13  1  0
 20 19  2  0
 22 24  1  0
 22 21  1  6
 23 22  1  0
 24 25  1  1
 25 17  1  0
 26 24  1  0
 27 26  1  0
 28 26  2  0
M  END
$$$$
