IYT.pdb
     RDKit          3D

 28 28  0  0  1  0  0  0  0  0999 V2000
   16.7739  -15.5287  -15.4780 C   0  0  0  0  0  0  0  0  0  0  0  0
   17.7988  -15.4107  -16.5737 C   0  0  0  0  0  0  0  0  0  0  0  0
   18.7548  -14.2595  -16.3286 C   0  0  2  0  0  0  0  0  0  0  0  0
   18.0446  -12.9733  -16.0357 C   0  0  0  0  0  0  0  0  0  0  0  0
   19.6867  -14.1833  -17.4941 C   0  0  2  0  0  0  0  0  0  0  0  0
   20.3738  -15.4550  -17.6125 N   0  0  0  0  0  0  0  0  0  0  0  0
   20.6421  -13.0509  -17.3959 C   0  0  0  0  0  0  0  0  0  0  0  0
   21.6592  -13.1617  -16.6633 O   0  0  0  0  0  0  0  0  0  0  0  0
   25.5804  -14.5070  -21.2817 O   0  0  0  0  0  0  0  0  0  0  0  0
   24.6993  -13.5365  -20.8156 C   0  0  0  0  0  0  0  0  0  0  0  0
   23.3709  -13.5210  -21.1870 C   0  0  0  0  0  0  0  0  0  0  0  0
   22.5335  -12.5397  -20.7003 C   0  0  0  0  0  0  0  0  0  0  0  0
   22.9489  -11.5455  -19.8429 C   0  0  0  0  0  0  0  0  0  0  0  0
   22.0538  -10.5023  -19.3265 C   0  0  0  0  0  0  0  0  0  0  0  0
   21.4572  -10.7192  -17.9871 C   0  0  2  0  0  0  0  0  0  0  0  0
   20.4765  -11.8339  -18.0874 N   0  0  0  0  0  0  0  0  0  0  0  0
   20.7729   -9.6377  -17.3232 C   0  0  0  0  0  0  0  0  0  0  0  0
   19.6313   -9.2464  -17.7746 O   0  0  0  0  0  0  0  0  0  0  0  0
   24.2936  -11.5815  -19.4821 C   0  0  0  0  0  0  0  0  0  0  0  0
   25.1548  -12.5545  -19.9558 C   0  0  0  0  0  0  0  0  0  0  0  0
   19.1562   -9.4879  -14.1013 C   0  0  0  0  0  0  0  0  0  0  0  0
   19.9987   -8.2323  -14.1426 C   0  0  1  0  0  0  0  0  0  0  0  0
   21.1806   -8.5198  -13.4473 O   0  0  0  0  0  0  0  0  0  0  0  0
   20.3625   -7.8808  -15.5760 C   0  0  2  0  0  0  0  0  0  0  0  0
   21.1909   -8.8987  -16.1742 N   0  0  0  0  0  0  0  0  0  0  0  0
   21.0187   -6.5731  -15.6704 C   0  0  0  0  0  0  0  0  0  0  0  0
   20.3804   -5.4026  -15.3543 O   0  0  0  0  0  0  0  0  0  0  0  0
   22.2147   -6.5042  -16.0555 O   0  0  0  0  0  0  0  0  0  0  0  0
  2  3  1  0
  2  1  1  0
  3  4  1  6
  5  3  1  0
  5  6  1  1
  7  5  1  0
  8  7  2  0
  9 10  1  0
 10 11  2  0
 10 20  1  0
 11 12  1  0
 12 13  2  0
 13 14  1  0
 15 14  1  6
 15 16  1  0
 16  7  1  0
 17 15  1  0
 17 18  2  0
 19 13  1  0
 20 19  2  0
 22 24  1  0
 22 21  1  6
 23 22  1  0
 24 25  1  1
 25 17  1  0
 26 24  1  0
 27 26  1  0
 28 26  2  0
M  END
$$$$
