IYT.pdb
     RDKit          3D

 28 28  0  0  1  0  0  0  0  0999 V2000
   28.3008  -20.9968  -19.7257 C   0  0  0  0  0  0  0  0  0  0  0  0
   28.4520  -21.9390  -18.5620 C   0  0  0  0  0  0  0  0  0  0  0  0
   27.3243  -21.7822  -17.5606 C   0  0  2  0  0  0  0  0  0  0  0  0
   27.1231  -20.3591  -17.1376 C   0  0  0  0  0  0  0  0  0  0  0  0
   27.5873  -22.7183  -16.4259 C   0  0  2  0  0  0  0  0  0  0  0  0
   27.6224  -24.0705  -16.9492 N   0  0  0  0  0  0  0  0  0  0  0  0
   26.6007  -22.5819  -15.3247 C   0  0  0  0  0  0  0  0  0  0  0  0
   25.4587  -23.0952  -15.4505 O   0  0  0  0  0  0  0  0  0  0  0  0
   23.5208  -20.4565   -7.1091 O   0  0  0  0  0  0  0  0  0  0  0  0
   24.2700  -20.7490   -8.2442 C   0  0  0  0  0  0  0  0  0  0  0  0
   24.3589  -22.0304   -8.7471 C   0  0  0  0  0  0  0  0  0  0  0  0
   25.1133  -22.2743   -9.8752 C   0  0  0  0  0  0  0  0  0  0  0  0
   25.8036  -21.2937  -10.5520 C   0  0  0  0  0  0  0  0  0  0  0  0
   26.6056  -21.5574  -11.7533 C   0  0  0  0  0  0  0  0  0  0  0  0
   25.8749  -21.7994  -13.0201 C   0  0  2  0  0  0  0  0  0  0  0  0
   26.8702  -21.8984  -14.1219 N   0  0  0  0  0  0  0  0  0  0  0  0
   24.8752  -20.8593  -13.4620 C   0  0  0  0  0  0  0  0  0  0  0  0
   25.2422  -19.6816  -13.8341 O   0  0  0  0  0  0  0  0  0  0  0  0
   25.6990  -20.0084  -10.0259 C   0  0  0  0  0  0  0  0  0  0  0  0
   24.9492  -19.7366   -8.8960 C   0  0  0  0  0  0  0  0  0  0  0  0
   21.8135  -21.3254  -15.9759 C   0  0  0  0  0  0  0  0  0  0  0  0
   22.4188  -20.0167  -15.5183 C   0  0  1  0  0  0  0  0  0  0  0  0
   21.5118  -19.0097  -15.8740 O   0  0  0  0  0  0  0  0  0  0  0  0
   22.5781  -20.0023  -14.0068 C   0  0  2  0  0  0  0  0  0  0  0  0
   23.4628  -21.0501  -13.5600 N   0  0  0  0  0  0  0  0  0  0  0  0
   21.2874  -20.1008  -13.3182 C   0  0  0  0  0  0  0  0  0  0  0  0
   21.0408  -21.0302  -12.3420 O   0  0  0  0  0  0  0  0  0  0  0  0
   20.3582  -19.3091  -13.6233 O   0  0  0  0  0  0  0  0  0  0  0  0
  2  3  1  0
  2  1  1  0
  3  4  1  1
  5  3  1  0
  5  6  1  6
  7  5  1  0
  8  7  2  0
  9 10  1  0
 10 11  2  0
 10 20  1  0
 11 12  1  0
 12 13  2  0
 13 14  1  0
 15 14  1  1
 15 16  1  0
 16  7  1  0
 17 15  1  0
 17 18  2  0
 19 13  1  0
 20 19  2  0
 22 24  1  0
 22 21  1  1
 23 22  1  0
 24 25  1  1
 25 17  1  0
 26 24  1  0
 27 26  1  0
 28 26  2  0
M  END
$$$$
