IYT.pdb
     RDKit          3D

 28 28  0  0  1  0  0  0  0  0999 V2000
   27.3321  -18.0649  -20.5611 C   0  0  0  0  0  0  0  0  0  0  0  0
   26.2800  -17.7215  -19.5414 C   0  0  0  0  0  0  0  0  0  0  0  0
   25.7375  -18.9591  -18.8536 C   0  0  2  0  0  0  0  0  0  0  0  0
   25.3319  -20.0263  -19.8237 C   0  0  0  0  0  0  0  0  0  0  0  0
   24.6399  -18.5280  -17.9359 C   0  0  2  0  0  0  0  0  0  0  0  0
   25.1640  -17.5110  -17.0445 N   0  0  0  0  0  0  0  0  0  0  0  0
   24.0383  -19.6586  -17.1846 C   0  0  0  0  0  0  0  0  0  0  0  0
   23.5399  -20.6256  -17.8169 O   0  0  0  0  0  0  0  0  0  0  0  0
   28.2096  -24.8239  -16.9058 O   0  0  0  0  0  0  0  0  0  0  0  0
   27.3080  -23.9903  -16.2518 C   0  0  0  0  0  0  0  0  0  0  0  0
   27.5741  -22.6533  -16.0413 C   0  0  0  0  0  0  0  0  0  0  0  0
   26.6510  -21.8642  -15.3882 C   0  0  0  0  0  0  0  0  0  0  0  0
   25.4461  -22.3377  -14.9191 C   0  0  0  0  0  0  0  0  0  0  0  0
   24.4654  -21.4941  -14.2243 C   0  0  0  0  0  0  0  0  0  0  0  0
   23.4007  -20.8706  -15.0457 C   0  0  2  0  0  0  0  0  0  0  0  0
   23.9902  -19.7166  -15.7772 N   0  0  0  0  0  0  0  0  0  0  0  0
   22.2026  -20.3782  -14.4128 C   0  0  0  0  0  0  0  0  0  0  0  0
   22.3052  -19.6576  -13.3497 O   0  0  0  0  0  0  0  0  0  0  0  0
   25.1996  -23.6901  -15.1431 C   0  0  0  0  0  0  0  0  0  0  0  0
   26.1083  -24.5035  -15.7953 C   0  0  0  0  0  0  0  0  0  0  0  0
   19.9276  -17.7411  -14.7757 C   0  0  0  0  0  0  0  0  0  0  0  0
   19.0203  -18.9484  -14.6895 C   0  0  1  0  0  0  0  0  0  0  0  0
   18.7228  -19.3209  -16.0070 O   0  0  0  0  0  0  0  0  0  0  0  0
   19.7372  -20.1076  -14.0168 C   0  0  2  0  0  0  0  0  0  0  0  0
   20.8453  -20.5753  -14.8127 N   0  0  0  0  0  0  0  0  0  0  0  0
   18.8257  -21.2159  -13.7160 C   0  0  0  0  0  0  0  0  0  0  0  0
   17.8174  -21.1127  -12.7939 O   0  0  0  0  0  0  0  0  0  0  0  0
   18.9604  -22.3124  -14.3185 O   0  0  0  0  0  0  0  0  0  0  0  0
  2  3  1  0
  2  1  1  0
  3  4  1  6
  5  3  1  0
  5  6  1  1
  7  5  1  0
  8  7  2  0
  9 10  1  0
 10 11  2  0
 10 20  1  0
 11 12  1  0
 12 13  2  0
 13 14  1  0
 15 14  1  1
 15 16  1  0
 16  7  1  0
 17 15  1  0
 17 18  2  0
 19 13  1  0
 20 19  2  0
 22 24  1  0
 22 21  1  6
 23 22  1  0
 24 25  1  6
 25 17  1  0
 26 24  1  0
 27 26  1  0
 28 26  2  0
M  END
$$$$
