IYT.pdb
     RDKit          3D

 28 28  0  0  1  0  0  0  0  0999 V2000
   24.5322  -17.7962  -19.6401 C   0  0  0  0  0  0  0  0  0  0  0  0
   23.5223  -18.7091  -18.9987 C   0  0  0  0  0  0  0  0  0  0  0  0
   23.6730  -18.7439  -17.4904 C   0  0  2  0  0  0  0  0  0  0  0  0
   25.0879  -18.9794  -17.0580 C   0  0  0  0  0  0  0  0  0  0  0  0
   22.7033  -19.7480  -16.9572 C   0  0  2  0  0  0  0  0  0  0  0  0
   21.3717  -19.3712  -17.3913 N   0  0  0  0  0  0  0  0  0  0  0  0
   22.7778  -19.8954  -15.4816 C   0  0  0  0  0  0  0  0  0  0  0  0
   22.4962  -18.9133  -14.7471 O   0  0  0  0  0  0  0  0  0  0  0  0
   16.8066  -20.5205  -13.0821 O   0  0  0  0  0  0  0  0  0  0  0  0
   18.1349  -20.9337  -13.0565 C   0  0  0  0  0  0  0  0  0  0  0  0
   18.7097  -21.6016  -14.1177 C   0  0  0  0  0  0  0  0  0  0  0  0
   20.0302  -21.9924  -14.0487 C   0  0  0  0  0  0  0  0  0  0  0  0
   20.8356  -21.7523  -12.9579 C   0  0  0  0  0  0  0  0  0  0  0  0
   22.2417  -22.1699  -12.8884 C   0  0  0  0  0  0  0  0  0  0  0  0
   23.2626  -21.2042  -13.3597 C   0  0  2  0  0  0  0  0  0  0  0  0
   23.1525  -21.0928  -14.8395 N   0  0  0  0  0  0  0  0  0  0  0  0
   24.6564  -21.4381  -13.0748 C   0  0  0  0  0  0  0  0  0  0  0  0
   25.2092  -22.5235  -13.4948 O   0  0  0  0  0  0  0  0  0  0  0  0
   20.2336  -21.0768  -11.8991 C   0  0  0  0  0  0  0  0  0  0  0  0
   18.9114  -20.6739  -11.9427 C   0  0  0  0  0  0  0  0  0  0  0  0
   28.0509  -20.6830  -13.9535 C   0  0  0  0  0  0  0  0  0  0  0  0
   28.0054  -20.4044  -12.4674 C   0  0  1  0  0  0  0  0  0  0  0  0
   27.8379  -19.0207  -12.3242 O   0  0  0  0  0  0  0  0  0  0  0  0
   26.8116  -21.0973  -11.8311 C   0  0  2  0  0  0  0  0  0  0  0  0
   25.5673  -20.5985  -12.3632 N   0  0  0  0  0  0  0  0  0  0  0  0
   26.8224  -20.9771  -10.3699 C   0  0  0  0  0  0  0  0  0  0  0  0
   27.8468  -21.4581   -9.5973 O   0  0  0  0  0  0  0  0  0  0  0  0
   25.8611  -20.4133   -9.7855 O   0  0  0  0  0  0  0  0  0  0  0  0
  2  3  1  0
  2  1  1  0
  3  4  1  6
  5  3  1  0
  5  6  1  1
  7  5  1  0
  8  7  2  0
  9 10  1  0
 10 11  2  0
 10 20  1  0
 11 12  1  0
 12 13  2  0
 13 14  1  0
 15 14  1  6
 15 16  1  0
 16  7  1  0
 17 15  1  0
 17 18  2  0
 19 13  1  0
 20 19  2  0
 22 24  1  0
 22 21  1  6
 23 22  1  0
 24 25  1  6
 25 17  1  0
 26 24  1  0
 27 26  1  0
 28 26  2  0
M  END
$$$$
