IYT.pdb
     RDKit          3D

 28 28  0  0  1  0  0  0  0  0999 V2000
   25.9375  -19.2297  -19.3038 C   0  0  0  0  0  0  0  0  0  0  0  0
   24.5045  -19.0254  -18.8922 C   0  0  0  0  0  0  0  0  0  0  0  0
   24.1696  -19.7847  -17.6232 C   0  0  2  0  0  0  0  0  0  0  0  0
   24.5569  -21.2300  -17.6973 C   0  0  0  0  0  0  0  0  0  0  0  0
   22.7224  -19.5615  -17.3256 C   0  0  2  0  0  0  0  0  0  0  0  0
   22.4724  -18.1328  -17.3229 N   0  0  0  0  0  0  0  0  0  0  0  0
   22.2900  -20.1962  -16.0548 C   0  0  0  0  0  0  0  0  0  0  0  0
   22.4539  -21.4334  -15.8944 O   0  0  0  0  0  0  0  0  0  0  0  0
   25.7796  -21.2369   -9.1573 O   0  0  0  0  0  0  0  0  0  0  0  0
   24.7659  -20.7647   -9.9849 C   0  0  0  0  0  0  0  0  0  0  0  0
   23.4339  -20.9883   -9.7042 C   0  0  0  0  0  0  0  0  0  0  0  0
   22.4625  -20.5014  -10.5530 C   0  0  0  0  0  0  0  0  0  0  0  0
   22.7434  -19.7860  -11.6954 C   0  0  0  0  0  0  0  0  0  0  0  0
   21.7059  -19.2689  -12.5966 C   0  0  0  0  0  0  0  0  0  0  0  0
   21.2870  -20.1378  -13.7221 C   0  0  2  0  0  0  0  0  0  0  0  0
   21.6948  -19.4831  -14.9947 N   0  0  0  0  0  0  0  0  0  0  0  0
   19.8979  -20.4913  -13.8767 C   0  0  0  0  0  0  0  0  0  0  0  0
   19.0564  -19.5853  -14.2387 O   0  0  0  0  0  0  0  0  0  0  0  0
   24.0944  -19.5729  -11.9581 C   0  0  0  0  0  0  0  0  0  0  0  0
   25.0886  -20.0502  -11.1235 C   0  0  0  0  0  0  0  0  0  0  0  0
   18.0041  -24.4604  -13.7578 C   0  0  0  0  0  0  0  0  0  0  0  0
   17.6109  -23.2860  -14.6263 C   0  0  1  0  0  0  0  0  0  0  0  0
   16.2322  -23.3971  -14.8501 O   0  0  0  0  0  0  0  0  0  0  0  0
   17.8720  -21.9756  -13.9019 C   0  0  2  0  0  0  0  0  0  0  0  0
   19.2822  -21.7659  -13.6837 N   0  0  0  0  0  0  0  0  0  0  0  0
   17.1454  -21.8972  -12.6309 C   0  0  0  0  0  0  0  0  0  0  0  0
   15.7768  -21.8856  -12.5627 O   0  0  0  0  0  0  0  0  0  0  0  0
   17.7875  -21.8372  -11.5504 O   0  0  0  0  0  0  0  0  0  0  0  0
  2  3  1  0
  2  1  1  0
  3  4  1  6
  5  3  1  0
  5  6  1  1
  7  5  1  0
  8  7  2  0
  9 10  1  0
 10 11  2  0
 10 20  1  0
 11 12  1  0
 12 13  2  0
 13 14  1  0
 15 14  1  1
 15 16  1  0
 16  7  1  0
 17 15  1  0
 17 18  2  0
 19 13  1  0
 20 19  2  0
 22 24  1  0
 22 21  1  1
 23 22  1  0
 24 25  1  1
 25 17  1  0
 26 24  1  0
 27 26  1  0
 28 26  2  0
M  END
$$$$
