IYT.pdb
     RDKit          3D

 28 28  0  0  1  0  0  0  0  0999 V2000
   25.6022  -14.0571  -15.1436 C   0  0  0  0  0  0  0  0  0  0  0  0
   24.2034  -13.7447  -15.6026 C   0  0  0  0  0  0  0  0  0  0  0  0
   24.0679  -12.3036  -16.0543 C   0  0  2  0  0  0  0  0  0  0  0  0
   24.5692  -11.3298  -15.0321 C   0  0  0  0  0  0  0  0  0  0  0  0
   22.6452  -12.0817  -16.4535 C   0  0  2  0  0  0  0  0  0  0  0  0
   22.2442  -13.1632  -17.3327 N   0  0  0  0  0  0  0  0  0  0  0  0
   22.4219  -10.7542  -17.0800 C   0  0  0  0  0  0  0  0  0  0  0  0
   23.0911  -10.4290  -18.0948 O   0  0  0  0  0  0  0  0  0  0  0  0
   18.3709   -4.0367  -20.9823 O   0  0  0  0  0  0  0  0  0  0  0  0
   18.8866   -5.1742  -20.3694 C   0  0  0  0  0  0  0  0  0  0  0  0
   20.1337   -5.6704  -20.6878 C   0  0  0  0  0  0  0  0  0  0  0  0
   20.6047   -6.8011  -20.0546 C   0  0  0  0  0  0  0  0  0  0  0  0
   19.8906   -7.4869  -19.0976 C   0  0  0  0  0  0  0  0  0  0  0  0
   20.3959   -8.6906  -18.4253 C   0  0  0  0  0  0  0  0  0  0  0  0
   21.2748   -8.4945  -17.2479 C   0  0  2  0  0  0  0  0  0  0  0  0
   21.4869   -9.8162  -16.5980 N   0  0  0  0  0  0  0  0  0  0  0  0
   20.8775   -7.5879  -16.1997 C   0  0  0  0  0  0  0  0  0  0  0  0
   20.0751   -8.0035  -15.2813 O   0  0  0  0  0  0  0  0  0  0  0  0
   18.6348   -6.9675  -18.7928 C   0  0  0  0  0  0  0  0  0  0  0  0
   18.1387   -5.8352  -19.4128 C   0  0  0  0  0  0  0  0  0  0  0  0
   22.2138   -6.7428  -13.2727 C   0  0  0  0  0  0  0  0  0  0  0  0
   21.8890   -5.3657  -13.8076 C   0  0  1  0  0  0  0  0  0  0  0  0
   23.0634   -4.8767  -14.3948 O   0  0  0  0  0  0  0  0  0  0  0  0
   20.8180   -5.4500  -14.8829 C   0  0  2  0  0  0  0  0  0  0  0  0
   21.2659   -6.2258  -16.0133 N   0  0  0  0  0  0  0  0  0  0  0  0
   20.3761   -4.1228  -15.3221 C   0  0  0  0  0  0  0  0  0  0  0  0
   20.5394   -3.6788  -16.6081 O   0  0  0  0  0  0  0  0  0  0  0  0
   19.8236   -3.3478  -14.4991 O   0  0  0  0  0  0  0  0  0  0  0  0
  2  3  1  0
  2  1  1  0
  3  4  1  1
  5  3  1  0
  5  6  1  6
  7  5  1  0
  8  7  2  0
  9 10  1  0
 10 11  2  0
 10 20  1  0
 11 12  1  0
 12 13  2  0
 13 14  1  0
 15 14  1  6
 15 16  1  0
 16  7  1  0
 17 15  1  0
 17 18  2  0
 19 13  1  0
 20 19  2  0
 22 24  1  0
 22 21  1  6
 23 22  1  0
 24 25  1  6
 25 17  1  0
 26 24  1  0
 27 26  1  0
 28 26  2  0
M  END
$$$$
