IYT.pdb
     RDKit          3D

 28 28  0  0  1  0  0  0  0  0999 V2000
   25.0439  -14.5855  -18.2185 C   0  0  0  0  0  0  0  0  0  0  0  0
   24.8131  -13.2421  -17.5808 C   0  0  0  0  0  0  0  0  0  0  0  0
   23.4460  -12.6835  -17.9242 C   0  0  2  0  0  0  0  0  0  0  0  0
   23.1669  -12.7071  -19.3960 C   0  0  0  0  0  0  0  0  0  0  0  0
   23.3402  -11.3249  -17.3110 C   0  0  2  0  0  0  0  0  0  0  0  0
   23.8204  -11.4027  -15.9447 N   0  0  0  0  0  0  0  0  0  0  0  0
   21.9659  -10.7668  -17.3783 C   0  0  0  0  0  0  0  0  0  0  0  0
   21.3647  -10.7351  -18.4833 O   0  0  0  0  0  0  0  0  0  0  0  0
   16.5505  -15.0705  -17.7343 O   0  0  0  0  0  0  0  0  0  0  0  0
   17.1650  -13.9601  -17.1642 C   0  0  0  0  0  0  0  0  0  0  0  0
   18.0455  -14.0775  -16.1088 C   0  0  0  0  0  0  0  0  0  0  0  0
   18.6314  -12.9493  -15.5750 C   0  0  0  0  0  0  0  0  0  0  0  0
   18.3878  -11.6764  -16.0402 C   0  0  0  0  0  0  0  0  0  0  0  0
   19.0141  -10.4773  -15.4692 C   0  0  0  0  0  0  0  0  0  0  0  0
   19.9074   -9.6899  -16.3519 C   0  0  2  0  0  0  0  0  0  0  0  0
   21.2788  -10.2597  -16.2570 N   0  0  0  0  0  0  0  0  0  0  0  0
   20.0452   -8.2692  -16.1492 C   0  0  0  0  0  0  0  0  0  0  0  0
   20.7180   -7.8422  -15.1367 O   0  0  0  0  0  0  0  0  0  0  0  0
   17.4959  -11.5828  -17.1058 C   0  0  0  0  0  0  0  0  0  0  0  0
   16.8945  -12.6982  -17.6596 C   0  0  0  0  0  0  0  0  0  0  0  0
   18.8200   -5.0009  -18.7808 C   0  0  0  0  0  0  0  0  0  0  0  0
   20.0137   -4.9841  -17.8519 C   0  0  1  0  0  0  0  0  0  0  0  0
   20.1921   -3.6529  -17.4527 O   0  0  0  0  0  0  0  0  0  0  0  0
   19.7374   -5.8201  -16.6129 C   0  0  2  0  0  0  0  0  0  0  0  0
   19.5244   -7.2063  -16.9492 N   0  0  0  0  0  0  0  0  0  0  0  0
   18.5995   -5.3041  -15.8457 C   0  0  0  0  0  0  0  0  0  0  0  0
   18.5977   -4.0578  -15.2763 O   0  0  0  0  0  0  0  0  0  0  0  0
   17.5763   -6.0206  -15.6937 O   0  0  0  0  0  0  0  0  0  0  0  0
  2  3  1  0
  2  1  1  0
  3  4  1  6
  5  3  1  0
  5  6  1  1
  7  5  1  0
  8  7  2  0
  9 10  1  0
 10 11  2  0
 10 20  1  0
 11 12  1  0
 12 13  2  0
 13 14  1  0
 15 14  1  1
 15 16  1  0
 16  7  1  0
 17 15  1  0
 17 18  2  0
 19 13  1  0
 20 19  2  0
 22 24  1  0
 22 21  1  6
 23 22  1  0
 24 25  1  6
 25 17  1  0
 26 24  1  0
 27 26  1  0
 28 26  2  0
M  END
$$$$
