IYT.pdb
     RDKit          3D

 28 28  0  0  1  0  0  0  0  0999 V2000
   24.6988  -17.7191  -16.3593 C   0  0  0  0  0  0  0  0  0  0  0  0
   25.9348  -18.5555  -16.1661 C   0  0  0  0  0  0  0  0  0  0  0  0
   26.7398  -18.1011  -14.9642 C   0  0  2  0  0  0  0  0  0  0  0  0
   27.7394  -17.0394  -15.3083 C   0  0  0  0  0  0  0  0  0  0  0  0
   27.3405  -19.3141  -14.3313 C   0  0  2  0  0  0  0  0  0  0  0  0
   28.1305  -20.0064  -15.3314 N   0  0  0  0  0  0  0  0  0  0  0  0
   26.3254  -20.2081  -13.7189 C   0  0  0  0  0  0  0  0  0  0  0  0
   26.0992  -21.3327  -14.2363 O   0  0  0  0  0  0  0  0  0  0  0  0
   30.3671  -21.4928   -8.8757 O   0  0  0  0  0  0  0  0  0  0  0  0
   29.0444  -21.3490   -9.2824 C   0  0  0  0  0  0  0  0  0  0  0  0
   28.5458  -22.0123  -10.3844 C   0  0  0  0  0  0  0  0  0  0  0  0
   27.2279  -21.8399  -10.7511 C   0  0  0  0  0  0  0  0  0  0  0  0
   26.3518  -21.0252  -10.0693 C   0  0  0  0  0  0  0  0  0  0  0  0
   24.9488  -20.8445  -10.4628 C   0  0  0  0  0  0  0  0  0  0  0  0
   24.6466  -20.8191  -11.9137 C   0  0  2  0  0  0  0  0  0  0  0  0
   25.5840  -19.8676  -12.5696 N   0  0  0  0  0  0  0  0  0  0  0  0
   23.3252  -20.4600  -12.3648 C   0  0  0  0  0  0  0  0  0  0  0  0
   22.9942  -19.2157  -12.4101 O   0  0  0  0  0  0  0  0  0  0  0  0
   26.8776  -20.3661   -8.9607 C   0  0  0  0  0  0  0  0  0  0  0  0
   28.1955  -20.5214   -8.5714 C   0  0  0  0  0  0  0  0  0  0  0  0
   21.7977  -20.0976  -15.4267 C   0  0  0  0  0  0  0  0  0  0  0  0
   20.7684  -20.9234  -14.6873 C   0  0  1  0  0  0  0  0  0  0  0  0
   20.9754  -22.2559  -15.0677 O   0  0  0  0  0  0  0  0  0  0  0  0
   20.9788  -20.8183  -13.1856 C   0  0  2  0  0  0  0  0  0  0  0  0
   22.2728  -21.3236  -12.7981 N   0  0  0  0  0  0  0  0  0  0  0  0
   19.9218  -21.5025  -12.4345 C   0  0  0  0  0  0  0  0  0  0  0  0
   18.6073  -21.1204  -12.4956 O   0  0  0  0  0  0  0  0  0  0  0  0
   20.2152  -22.4808  -11.6995 O   0  0  0  0  0  0  0  0  0  0  0  0
  2  3  1  0
  2  1  1  0
  3  4  1  6
  5  3  1  0
  5  6  1  6
  7  5  1  0
  8  7  2  0
  9 10  1  0
 10 11  2  0
 10 20  1  0
 11 12  1  0
 12 13  2  0
 13 14  1  0
 15 14  1  1
 15 16  1  0
 16  7  1  0
 17 15  1  0
 17 18  2  0
 19 13  1  0
 20 19  2  0
 22 24  1  0
 22 21  1  6
 23 22  1  0
 24 25  1  6
 25 17  1  0
 26 24  1  0
 27 26  1  0
 28 26  2  0
M  END
$$$$
