IYT.pdb
     RDKit          3D

 28 28  0  0  1  0  0  0  0  0999 V2000
   28.7530  -25.6872  -17.4958 C   0  0  0  0  0  0  0  0  0  0  0  0
   29.6016  -26.8624  -17.0916 C   0  0  0  0  0  0  0  0  0  0  0  0
   28.8914  -28.1797  -17.3352 C   0  0  2  0  0  0  0  0  0  0  0  0
   27.5360  -28.2299  -16.6990 C   0  0  0  0  0  0  0  0  0  0  0  0
   29.8048  -29.2789  -16.8988 C   0  0  2  0  0  0  0  0  0  0  0  0
   30.9950  -29.2384  -17.7265 N   0  0  0  0  0  0  0  0  0  0  0  0
   29.1578  -30.6149  -16.9336 C   0  0  0  0  0  0  0  0  0  0  0  0
   29.0870  -31.2394  -18.0238 O   0  0  0  0  0  0  0  0  0  0  0  0
   33.1451  -35.5216  -18.5915 O   0  0  0  0  0  0  0  0  0  0  0  0
   32.1493  -35.0240  -17.7572 C   0  0  0  0  0  0  0  0  0  0  0  0
   32.4210  -34.0968  -16.7726 C   0  0  0  0  0  0  0  0  0  0  0  0
   31.4023  -33.6310  -15.9685 C   0  0  0  0  0  0  0  0  0  0  0  0
   30.0939  -34.0429  -16.0878 C   0  0  0  0  0  0  0  0  0  0  0  0
   29.0118  -33.5442  -15.2297 C   0  0  0  0  0  0  0  0  0  0  0  0
   28.0336  -32.6125  -15.8398 C   0  0  2  0  0  0  0  0  0  0  0  0
   28.6064  -31.2397  -15.7969 N   0  0  0  0  0  0  0  0  0  0  0  0
   26.7027  -32.5120  -15.2949 C   0  0  0  0  0  0  0  0  0  0  0  0
   26.5426  -32.0131  -14.1178 O   0  0  0  0  0  0  0  0  0  0  0  0
   29.8438  -34.9790  -17.0883 C   0  0  0  0  0  0  0  0  0  0  0  0
   30.8470  -35.4624  -17.9084 C   0  0  0  0  0  0  0  0  0  0  0  0
   21.7729  -32.2096  -15.5645 C   0  0  0  0  0  0  0  0  0  0  0  0
   23.0664  -32.5796  -16.2559 C   0  0  1  0  0  0  0  0  0  0  0  0
   23.3641  -31.5313  -17.1366 O   0  0  0  0  0  0  0  0  0  0  0  0
   24.1979  -32.6903  -15.2471 C   0  0  2  0  0  0  0  0  0  0  0  0
   25.4673  -32.8983  -15.8995 N   0  0  0  0  0  0  0  0  0  0  0  0
   23.9540  -33.7498  -14.2634 C   0  0  0  0  0  0  0  0  0  0  0  0
   23.4491  -33.4959  -13.0151 O   0  0  0  0  0  0  0  0  0  0  0  0
   24.2131  -34.9449  -14.5600 O   0  0  0  0  0  0  0  0  0  0  0  0
  2  3  1  0
  2  1  1  0
  3  4  1  1
  5  3  1  0
  5  6  1  6
  7  5  1  0
  8  7  2  0
  9 10  1  0
 10 11  2  0
 10 20  1  0
 11 12  1  0
 12 13  2  0
 13 14  1  0
 15 14  1  1
 15 16  1  0
 16  7  1  0
 17 15  1  0
 17 18  2  0
 19 13  1  0
 20 19  2  0
 22 24  1  0
 22 21  1  1
 23 22  1  0
 24 25  1  6
 25 17  1  0
 26 24  1  0
 27 26  1  0
 28 26  2  0
M  END
$$$$
