IYT.pdb
     RDKit          3D

 28 28  0  0  1  0  0  0  0  0999 V2000
   26.3675  -18.9578  -20.9162 C   0  0  0  0  0  0  0  0  0  0  0  0
   27.5581  -19.1133  -20.0090 C   0  0  0  0  0  0  0  0  0  0  0  0
   27.2476  -20.0021  -18.8203 C   0  0  2  0  0  0  0  0  0  0  0  0
   26.8142  -21.3774  -19.2268 C   0  0  0  0  0  0  0  0  0  0  0  0
   26.2574  -19.2859  -17.9605 C   0  0  2  0  0  0  0  0  0  0  0  0
   26.7676  -17.9559  -17.6883 N   0  0  0  0  0  0  0  0  0  0  0  0
   25.9431  -20.0196  -16.7085 C   0  0  0  0  0  0  0  0  0  0  0  0
   25.4392  -21.1707  -16.7761 O   0  0  0  0  0  0  0  0  0  0  0  0
   25.1647  -21.1143   -7.7834 O   0  0  0  0  0  0  0  0  0  0  0  0
   25.5485  -20.7969   -9.0824 C   0  0  0  0  0  0  0  0  0  0  0  0
   25.8402  -19.5024   -9.4593 C   0  0  0  0  0  0  0  0  0  0  0  0
   26.2167  -19.2339  -10.7583 C   0  0  0  0  0  0  0  0  0  0  0  0
   26.3234  -20.2018  -11.7318 C   0  0  0  0  0  0  0  0  0  0  0  0
   26.7250  -19.9119  -13.1141 C   0  0  0  0  0  0  0  0  0  0  0  0
   25.7364  -20.1903  -14.1829 C   0  0  2  0  0  0  0  0  0  0  0  0
   26.1794  -19.4951  -15.4218 N   0  0  0  0  0  0  0  0  0  0  0  0
   24.3531  -19.8319  -13.9912 C   0  0  0  0  0  0  0  0  0  0  0  0
   23.9547  -18.6579  -14.3418 O   0  0  0  0  0  0  0  0  0  0  0  0
   26.0241  -21.5007  -11.3282 C   0  0  0  0  0  0  0  0  0  0  0  0
   25.6441  -21.7972  -10.0319 C   0  0  0  0  0  0  0  0  0  0  0  0
   21.4324  -21.0754  -15.6733 C   0  0  0  0  0  0  0  0  0  0  0  0
   21.4167  -19.8415  -14.7984 C   0  0  1  0  0  0  0  0  0  0  0  0
   20.0772  -19.4458  -14.6878 O   0  0  0  0  0  0  0  0  0  0  0  0
   21.9337  -20.1676  -13.4067 C   0  0  2  0  0  0  0  0  0  0  0  0
   23.2997  -20.6287  -13.4466 N   0  0  0  0  0  0  0  0  0  0  0  0
   21.0869  -21.1503  -12.7234 C   0  0  0  0  0  0  0  0  0  0  0  0
   19.7547  -20.9368  -12.4838 O   0  0  0  0  0  0  0  0  0  0  0  0
   21.5865  -22.2377  -12.3344 O   0  0  0  0  0  0  0  0  0  0  0  0
  2  3  1  0
  2  1  1  0
  3  4  1  6
  5  3  1  0
  5  6  1  1
  7  5  1  0
  8  7  2  0
  9 10  1  0
 10 11  2  0
 10 20  1  0
 11 12  1  0
 12 13  2  0
 13 14  1  0
 15 14  1  1
 15 16  1  0
 16  7  1  0
 17 15  1  0
 17 18  2  0
 19 13  1  0
 20 19  2  0
 22 24  1  0
 22 21  1  6
 23 22  1  0
 24 25  1  6
 25 17  1  0
 26 24  1  0
 27 26  1  0
 28 26  2  0
M  END
$$$$
