AWV.pdb
     RDKit          3D

 27 28  0  0  1  0  0  0  0  0999 V2000
    8.0811  -13.2633   18.1881 C   0  0  0  0  0  0  0  0  0  0  0  0
    8.6018  -14.5491   18.7932 C   0  0  2  0  0  0  0  0  0  0  0  0
    7.7232  -15.6620   18.5272 N   0  0  0  0  0  0  0  0  0  0  0  0
    8.7840  -14.4201   20.2585 C   0  0  0  0  0  0  0  0  0  0  0  0
    9.5344  -13.5647   20.7873 O   0  0  0  0  0  0  0  0  0  0  0  0
    8.0849  -15.2949   21.1239 N   0  0  0  0  0  0  0  0  0  0  0  0
    8.1692  -15.0601   22.6034 C   0  0  1  0  0  0  0  0  0  0  0  0
    6.8146  -15.1186   23.1560 C   0  0  0  0  0  0  0  0  0  0  0  0
    6.6865  -14.9424   24.6210 C   0  0  0  0  0  0  0  0  0  0  0  0
    6.4730  -15.7890   25.6399 C   0  0  0  0  0  0  0  0  0  0  0  0
    6.5215  -15.1268   26.8141 N   0  0  0  0  0  0  0  0  0  0  0  0
    6.7683  -13.8285   26.6069 C   0  0  0  0  0  0  0  0  0  0  0  0
    6.9118  -12.7378   27.4714 C   0  0  0  0  0  0  0  0  0  0  0  0
    7.1668  -11.4959   26.9345 C   0  0  0  0  0  0  0  0  0  0  0  0
    7.2771  -11.3400   25.5732 C   0  0  0  0  0  0  0  0  0  0  0  0
    7.1308  -12.4426   24.7213 C   0  0  0  0  0  0  0  0  0  0  0  0
    6.8755  -13.6844   25.2589 C   0  0  0  0  0  0  0  0  0  0  0  0
    9.0909  -16.1778   22.9785 C   0  0  0  0  0  0  0  0  0  0  0  0
    8.8418  -17.2645   22.3276 O   0  0  0  0  0  0  0  0  0  0  0  0
   12.4619  -16.7292   22.1452 C   0  0  0  0  0  0  0  0  0  0  0  0
   12.3870  -17.1452   23.6152 C   0  0  1  0  0  0  0  0  0  0  0  0
   13.1053  -16.0712   24.3912 C   0  0  0  0  0  0  0  0  0  0  0  0
   10.9689  -17.3685   24.0332 C   0  0  2  0  0  0  0  0  0  0  0  0
   10.1194  -16.1975   23.8974 N   0  0  0  0  0  0  0  0  0  0  0  0
   10.9092  -17.7994   25.4625 C   0  0  0  0  0  0  0  0  0  0  0  0
   11.5263  -18.9517   25.8846 O   0  0  0  0  0  0  0  0  0  0  0  0
   10.2962  -17.1095   26.2824 O   0  0  0  0  0  0  0  0  0  0  0  0
  2  1  1  1
  3  2  1  0
  4  2  1  0
  4  5  2  0
  6  4  1  0
  7  6  1  0
  7  8  1  1
  9  8  1  0
  9 17  1  0
 10 11  1  0
 10  9  2  0
 11 12  1  0
 12 13  1  0
 12 17  2  0
 13 14  2  0
 14 15  1  0
 16 15  2  0
 17 16  1  0
 18  7  1  0
 19 18  2  0
 21 20  1  6
 21 23  1  0
 22 21  1  0
 23 25  1  0
 23 24  1  1
 24 18  1  0
 25 26  1  0
 27 25  2  0
M  END
$$$$
