AWV.pdb
     RDKit          3D

 27 28  0  0  1  0  0  0  0  0999 V2000
   12.6705  -17.8093   21.2968 C   0  0  0  0  0  0  0  0  0  0  0  0
   11.3525  -17.2893   20.7647 C   0  0  2  0  0  0  0  0  0  0  0  0
   11.5153  -16.6013   19.5071 N   0  0  0  0  0  0  0  0  0  0  0  0
   10.7040  -16.3736   21.7332 C   0  0  0  0  0  0  0  0  0  0  0  0
   10.7906  -15.1237   21.6646 O   0  0  0  0  0  0  0  0  0  0  0  0
    9.9428  -16.9148   22.7965 N   0  0  0  0  0  0  0  0  0  0  0  0
    9.1822  -15.9755   23.6855 C   0  0  1  0  0  0  0  0  0  0  0  0
    7.8079  -16.4664   23.8041 C   0  0  0  0  0  0  0  0  0  0  0  0
    6.8914  -15.6761   24.6580 C   0  0  0  0  0  0  0  0  0  0  0  0
    5.8035  -15.9840   25.3808 C   0  0  0  0  0  0  0  0  0  0  0  0
    5.3700  -14.8994   26.0555 N   0  0  0  0  0  0  0  0  0  0  0  0
    6.1557  -13.8472   25.8002 C   0  0  0  0  0  0  0  0  0  0  0  0
    6.1380  -12.5184   26.2383 C   0  0  0  0  0  0  0  0  0  0  0  0
    7.1092  -11.6569   25.7800 C   0  0  0  0  0  0  0  0  0  0  0  0
    8.0745  -12.1027   24.9089 C   0  0  0  0  0  0  0  0  0  0  0  0
    8.0782  -13.4364   24.4801 C   0  0  0  0  0  0  0  0  0  0  0  0
    7.1063  -14.2977   24.9386 C   0  0  0  0  0  0  0  0  0  0  0  0
   10.0290  -16.0607   24.9164 C   0  0  0  0  0  0  0  0  0  0  0  0
   11.0014  -16.9006   24.7912 O   0  0  0  0  0  0  0  0  0  0  0  0
   11.0593  -13.2956   27.8339 C   0  0  0  0  0  0  0  0  0  0  0  0
   10.7315  -14.7005   28.3426 C   0  0  1  0  0  0  0  0  0  0  0  0
    9.3892  -14.5976   29.0201 C   0  0  0  0  0  0  0  0  0  0  0  0
   10.7889  -15.6963   27.2287 C   0  0  2  0  0  0  0  0  0  0  0  0
    9.9024  -15.3947   26.1176 N   0  0  0  0  0  0  0  0  0  0  0  0
   10.4300  -17.0577   27.7286 C   0  0  0  0  0  0  0  0  0  0  0  0
    9.2541  -17.6641   27.3595 O   0  0  0  0  0  0  0  0  0  0  0  0
   11.2022  -17.6523   28.4863 O   0  0  0  0  0  0  0  0  0  0  0  0
  2  1  1  1
  3  2  1  0
  4  2  1  0
  4  5  2  0
  6  4  1  0
  7  6  1  0
  7  8  1  1
  9  8  1  0
  9 17  1  0
 10 11  1  0
 10  9  2  0
 11 12  1  0
 12 13  1  0
 12 17  2  0
 13 14  2  0
 14 15  1  0
 16 15  2  0
 17 16  1  0
 18  7  1  0
 19 18  2  0
 21 20  1  6
 21 23  1  0
 22 21  1  0
 23 25  1  0
 23 24  1  6
 24 18  1  0
 25 26  1  0
 27 25  2  0
M  END
$$$$
