AWV.pdb
     RDKit          3D

 27 28  0  0  1  0  0  0  0  0999 V2000
    7.0172  -14.6918   20.1433 C   0  0  0  0  0  0  0  0  0  0  0  0
    7.8402  -15.8714   20.6145 C   0  0  2  0  0  0  0  0  0  0  0  0
    7.0093  -16.9874   20.9961 N   0  0  0  0  0  0  0  0  0  0  0  0
    8.7048  -15.5019   21.7602 C   0  0  0  0  0  0  0  0  0  0  0  0
    9.5255  -14.5533   21.7269 O   0  0  0  0  0  0  0  0  0  0  0  0
    8.6162  -16.2424   22.9630 N   0  0  0  0  0  0  0  0  0  0  0  0
    9.4423  -15.8063   24.1371 C   0  0  1  0  0  0  0  0  0  0  0  0
    8.6819  -16.0744   25.3592 C   0  0  0  0  0  0  0  0  0  0  0  0
    7.4349  -15.2981   25.5496 C   0  0  0  0  0  0  0  0  0  0  0  0
    6.1319  -15.6171   25.5174 C   0  0  0  0  0  0  0  0  0  0  0  0
    5.3812  -14.5441   25.8408 N   0  0  0  0  0  0  0  0  0  0  0  0
    6.1626  -13.4888   26.0961 C   0  0  0  0  0  0  0  0  0  0  0  0
    5.8862  -12.1681   26.4664 C   0  0  0  0  0  0  0  0  0  0  0  0
    6.9375  -11.3000   26.6580 C   0  0  0  0  0  0  0  0  0  0  0  0
    8.2313  -11.7316   26.4868 C   0  0  0  0  0  0  0  0  0  0  0  0
    8.4910  -13.0574   26.1159 C   0  0  0  0  0  0  0  0  0  0  0  0
    7.4390  -13.9252   25.9242 C   0  0  0  0  0  0  0  0  0  0  0  0
   10.6579  -16.6490   23.9100 C   0  0  0  0  0  0  0  0  0  0  0  0
   10.3660  -17.8423   23.5130 O   0  0  0  0  0  0  0  0  0  0  0  0
   13.6391  -16.3200   21.5888 C   0  0  0  0  0  0  0  0  0  0  0  0
   14.1485  -16.7861   22.9537 C   0  0  1  0  0  0  0  0  0  0  0  0
   14.8765  -15.6101   23.5525 C   0  0  0  0  0  0  0  0  0  0  0  0
   13.0253  -17.3107   23.7897 C   0  0  2  0  0  0  0  0  0  0  0  0
   11.9901  -16.3315   24.0740 N   0  0  0  0  0  0  0  0  0  0  0  0
   13.5407  -17.8082   25.1009 C   0  0  0  0  0  0  0  0  0  0  0  0
   13.1534  -17.2277   26.2841 O   0  0  0  0  0  0  0  0  0  0  0  0
   14.3281  -18.7586   25.1258 O   0  0  0  0  0  0  0  0  0  0  0  0
  2  1  1  1
  3  2  1  0
  4  2  1  0
  4  5  2  0
  6  4  1  0
  7  6  1  0
  7  8  1  1
  9  8  1  0
  9 17  1  0
 10 11  1  0
 10  9  2  0
 11 12  1  0
 12 13  1  0
 12 17  2  0
 13 14  2  0
 14 15  1  0
 16 15  2  0
 17 16  1  0
 18  7  1  0
 19 18  2  0
 21 20  1  6
 21 23  1  0
 22 21  1  0
 23 25  1  0
 23 24  1  1
 24 18  1  0
 25 26  1  0
 27 25  2  0
M  END
$$$$
