AWV.pdb
     RDKit          3D

 27 28  0  0  1  0  0  0  0  0999 V2000
   12.3721  -17.7608   21.3738 C   0  0  0  0  0  0  0  0  0  0  0  0
   10.9266  -17.3575   21.1771 C   0  0  2  0  0  0  0  0  0  0  0  0
   10.7285  -16.6622   19.9286 N   0  0  0  0  0  0  0  0  0  0  0  0
   10.4513  -16.4976   22.2869 C   0  0  0  0  0  0  0  0  0  0  0  0
   10.7225  -15.2759   22.3772 O   0  0  0  0  0  0  0  0  0  0  0  0
    9.6488  -17.0622   23.3067 N   0  0  0  0  0  0  0  0  0  0  0  0
    9.0472  -16.1497   24.3346 C   0  0  1  0  0  0  0  0  0  0  0  0
    7.7094  -16.6459   24.6631 C   0  0  0  0  0  0  0  0  0  0  0  0
    6.6923  -15.6294   25.0179 C   0  0  0  0  0  0  0  0  0  0  0  0
    5.3610  -15.6698   25.1812 C   0  0  0  0  0  0  0  0  0  0  0  0
    4.9049  -14.4680   25.5899 N   0  0  0  0  0  0  0  0  0  0  0  0
    5.9171  -13.6015   25.7091 C   0  0  0  0  0  0  0  0  0  0  0  0
    5.9781  -12.2567   26.0907 C   0  0  0  0  0  0  0  0  0  0  0  0
    7.2032  -11.6288   26.1111 C   0  0  0  0  0  0  0  0  0  0  0  0
    8.3400  -12.3182   25.7620 C   0  0  0  0  0  0  0  0  0  0  0  0
    8.2617  -13.6645   25.3824 C   0  0  0  0  0  0  0  0  0  0  0  0
    7.0359  -14.2920   25.3619 C   0  0  0  0  0  0  0  0  0  0  0  0
   10.0841  -16.2685   25.4071 C   0  0  0  0  0  0  0  0  0  0  0  0
   11.0020  -17.1282   25.1152 O   0  0  0  0  0  0  0  0  0  0  0  0
   11.3477  -13.5068   28.2182 C   0  0  0  0  0  0  0  0  0  0  0  0
   11.3493  -14.9604   28.6946 C   0  0  1  0  0  0  0  0  0  0  0  0
   10.2142  -15.0794   29.6788 C   0  0  0  0  0  0  0  0  0  0  0  0
   11.2650  -15.9002   27.5347 C   0  0  2  0  0  0  0  0  0  0  0  0
   10.1744  -15.6144   26.6181 N   0  0  0  0  0  0  0  0  0  0  0  0
   11.0883  -17.3042   28.0141 C   0  0  0  0  0  0  0  0  0  0  0  0
   12.1266  -17.9957   28.5889 O   0  0  0  0  0  0  0  0  0  0  0  0
    9.9905  -17.8559   27.8945 O   0  0  0  0  0  0  0  0  0  0  0  0
  2  1  1  1
  3  2  1  0
  4  2  1  0
  4  5  2  0
  6  4  1  0
  7  6  1  0
  7  8  1  1
  9  8  1  0
  9 17  1  0
 10 11  1  0
 10  9  2  0
 11 12  1  0
 12 13  1  0
 12 17  2  0
 13 14  2  0
 14 15  1  0
 16 15  2  0
 17 16  1  0
 18  7  1  0
 19 18  2  0
 21 20  1  6
 21 23  1  0
 22 21  1  0
 23 25  1  0
 23 24  1  6
 24 18  1  0
 25 26  1  0
 27 25  2  0
M  END
$$$$
