AWV.pdb
     RDKit          3D

 27 28  0  0  1  0  0  0  0  0999 V2000
    6.9494  -14.6430   20.2338 C   0  0  0  0  0  0  0  0  0  0  0  0
    7.6918  -15.8889   20.6668 C   0  0  2  0  0  0  0  0  0  0  0  0
    6.7902  -16.9233   21.1125 N   0  0  0  0  0  0  0  0  0  0  0  0
    8.6564  -15.5916   21.7521 C   0  0  0  0  0  0  0  0  0  0  0  0
    9.5386  -14.7034   21.6663 O   0  0  0  0  0  0  0  0  0  0  0  0
    8.5970  -16.3342   22.9555 N   0  0  0  0  0  0  0  0  0  0  0  0
    9.4091  -15.8678   24.1277 C   0  0  1  0  0  0  0  0  0  0  0  0
    8.6512  -16.1419   25.3501 C   0  0  0  0  0  0  0  0  0  0  0  0
    7.4315  -15.3312   25.5715 C   0  0  0  0  0  0  0  0  0  0  0  0
    6.1212  -15.6191   25.5993 C   0  0  0  0  0  0  0  0  0  0  0  0
    5.4096  -14.5208   25.9264 N   0  0  0  0  0  0  0  0  0  0  0  0
    6.2252  -13.4791   26.1245 C   0  0  0  0  0  0  0  0  0  0  0  0
    5.9951  -12.1438   26.4734 C   0  0  0  0  0  0  0  0  0  0  0  0
    7.0734  -11.2974   26.6014 C   0  0  0  0  0  0  0  0  0  0  0  0
    8.3486  -11.7642   26.3890 C   0  0  0  0  0  0  0  0  0  0  0  0
    8.5619  -13.1043   26.0403 C   0  0  0  0  0  0  0  0  0  0  0  0
    7.4830  -13.9505   25.9121 C   0  0  0  0  0  0  0  0  0  0  0  0
   10.6445  -16.6842   23.9123 C   0  0  0  0  0  0  0  0  0  0  0  0
   10.3808  -17.8982   23.5608 O   0  0  0  0  0  0  0  0  0  0  0  0
   14.6849  -15.4355   23.5517 C   0  0  0  0  0  0  0  0  0  0  0  0
   14.1473  -16.7331   22.9460 C   0  0  1  0  0  0  0  0  0  0  0  0
   15.3327  -17.6539   22.8101 C   0  0  0  0  0  0  0  0  0  0  0  0
   13.0279  -17.2817   23.7716 C   0  0  2  0  0  0  0  0  0  0  0  0
   11.9695  -16.3248   24.0461 N   0  0  0  0  0  0  0  0  0  0  0  0
   13.5415  -17.7682   25.0875 C   0  0  0  0  0  0  0  0  0  0  0  0
   14.3757  -18.8567   25.1672 O   0  0  0  0  0  0  0  0  0  0  0  0
   13.2137  -17.1836   26.1241 O   0  0  0  0  0  0  0  0  0  0  0  0
  2  1  1  1
  3  2  1  0
  4  2  1  0
  4  5  2  0
  6  4  1  0
  7  6  1  0
  7  8  1  1
  9  8  1  0
  9 17  1  0
 10 11  1  0
 10  9  2  0
 11 12  1  0
 12 13  1  0
 12 17  2  0
 13 14  2  0
 14 15  1  0
 16 15  2  0
 17 16  1  0
 18  7  1  0
 19 18  2  0
 21 20  1  1
 21 23  1  0
 22 21  1  0
 23 25  1  0
 23 24  1  1
 24 18  1  0
 25 26  1  0
 27 25  2  0
M  END
$$$$
