AWV.pdb
     RDKit          3D

 27 28  0  0  1  0  0  0  0  0999 V2000
   12.9236  -18.1043   21.4484 C   0  0  0  0  0  0  0  0  0  0  0  0
   11.5343  -17.6015   21.1200 C   0  0  2  0  0  0  0  0  0  0  0  0
   11.4744  -17.0098   19.8056 N   0  0  0  0  0  0  0  0  0  0  0  0
   11.0717  -16.6068   22.1166 C   0  0  0  0  0  0  0  0  0  0  0  0
   11.3115  -15.3784   22.0272 O   0  0  0  0  0  0  0  0  0  0  0  0
   10.3188  -17.0422   23.2331 N   0  0  0  0  0  0  0  0  0  0  0  0
    9.6308  -16.0128   24.0806 C   0  0  1  0  0  0  0  0  0  0  0  0
    8.1868  -16.2402   23.9982 C   0  0  0  0  0  0  0  0  0  0  0  0
    7.3353  -15.0429   23.8106 C   0  0  0  0  0  0  0  0  0  0  0  0
    6.5357  -14.6220   22.8186 C   0  0  0  0  0  0  0  0  0  0  0  0
    5.9081  -13.4831   23.1773 N   0  0  0  0  0  0  0  0  0  0  0  0
    6.2723  -13.1196   24.4121 C   0  0  0  0  0  0  0  0  0  0  0  0
    5.9188  -12.0399   25.2289 C   0  0  0  0  0  0  0  0  0  0  0  0
    6.4834  -11.9438   26.4809 C   0  0  0  0  0  0  0  0  0  0  0  0
    7.3764  -12.8956   26.9122 C   0  0  0  0  0  0  0  0  0  0  0  0
    7.7197  -13.9706   26.0820 C   0  0  0  0  0  0  0  0  0  0  0  0
    7.1548  -14.0661   24.8296 C   0  0  0  0  0  0  0  0  0  0  0  0
   10.2776  -16.3056   25.3979 C   0  0  0  0  0  0  0  0  0  0  0  0
   10.9896  -17.3822   25.3715 O   0  0  0  0  0  0  0  0  0  0  0  0
   11.4000  -13.6386   28.2775 C   0  0  0  0  0  0  0  0  0  0  0  0
   11.0450  -15.0174   28.8366 C   0  0  1  0  0  0  0  0  0  0  0  0
    9.7606  -14.8394   29.6048 C   0  0  0  0  0  0  0  0  0  0  0  0
   10.9767  -16.0336   27.7419 C   0  0  2  0  0  0  0  0  0  0  0  0
   10.2046  -15.6094   26.5864 N   0  0  0  0  0  0  0  0  0  0  0  0
   10.3661  -17.3008   28.2455 C   0  0  0  0  0  0  0  0  0  0  0  0
   11.0456  -18.1233   29.1107 O   0  0  0  0  0  0  0  0  0  0  0  0
    9.2301  -17.6176   27.8806 O   0  0  0  0  0  0  0  0  0  0  0  0
  2  1  1  1
  3  2  1  0
  4  2  1  0
  4  5  2  0
  6  4  1  0
  7  6  1  0
  7  8  1  1
  9  8  1  0
  9 17  1  0
 10 11  1  0
 10  9  2  0
 11 12  1  0
 12 13  1  0
 12 17  2  0
 13 14  2  0
 14 15  1  0
 16 15  2  0
 17 16  1  0
 18  7  1  0
 19 18  2  0
 21 20  1  6
 21 23  1  0
 22 21  1  0
 23 25  1  0
 23 24  1  6
 24 18  1  0
 25 26  1  0
 27 25  2  0
M  END
$$$$
