AWV.pdb
     RDKit          3D

 27 28  0  0  1  0  0  0  0  0999 V2000
    8.9740  -18.4846   18.9647 C   0  0  0  0  0  0  0  0  0  0  0  0
    8.3901  -17.0887   18.9289 C   0  0  2  0  0  0  0  0  0  0  0  0
    8.9152  -16.3152   17.8301 N   0  0  0  0  0  0  0  0  0  0  0  0
    8.6501  -16.3632   20.1949 C   0  0  0  0  0  0  0  0  0  0  0  0
    9.5384  -15.4853   20.3167 O   0  0  0  0  0  0  0  0  0  0  0  0
    7.8681  -16.6590   21.3369 N   0  0  0  0  0  0  0  0  0  0  0  0
    8.1199  -15.8875   22.5988 C   0  0  1  0  0  0  0  0  0  0  0  0
    6.8581  -15.7853   23.3346 C   0  0  0  0  0  0  0  0  0  0  0  0
    6.9503  -15.3962   24.7607 C   0  0  0  0  0  0  0  0  0  0  0  0
    7.1040  -16.0873   25.9006 C   0  0  0  0  0  0  0  0  0  0  0  0
    7.2106  -15.2427   26.9469 N   0  0  0  0  0  0  0  0  0  0  0  0
    7.1317  -13.9737   26.5312 C   0  0  0  0  0  0  0  0  0  0  0  0
    7.1836  -12.7476   27.2033 C   0  0  0  0  0  0  0  0  0  0  0  0
    7.0677  -11.5863   26.4729 C   0  0  0  0  0  0  0  0  0  0  0  0
    6.9047  -11.6400   25.1091 C   0  0  0  0  0  0  0  0  0  0  0  0
    6.8549  -12.8759   24.4513 C   0  0  0  0  0  0  0  0  0  0  0  0
    6.9706  -14.0372   25.1824 C   0  0  0  0  0  0  0  0  0  0  0  0
    9.1790  -16.7510   23.2087 C   0  0  0  0  0  0  0  0  0  0  0  0
    8.9654  -18.0091   23.0132 O   0  0  0  0  0  0  0  0  0  0  0  0
   13.0712  -15.5862   24.3282 C   0  0  0  0  0  0  0  0  0  0  0  0
   12.7001  -16.9634   23.7758 C   0  0  1  0  0  0  0  0  0  0  0  0
   13.8014  -17.8977   24.2065 C   0  0  0  0  0  0  0  0  0  0  0  0
   11.3330  -17.3669   24.2275 C   0  0  2  0  0  0  0  0  0  0  0  0
   10.2982  -16.3912   23.9302 N   0  0  0  0  0  0  0  0  0  0  0  0
   11.3191  -17.5958   25.7039 C   0  0  0  0  0  0  0  0  0  0  0  0
   10.6507  -16.7444   26.5496 O   0  0  0  0  0  0  0  0  0  0  0  0
   11.9170  -18.5671   26.1762 O   0  0  0  0  0  0  0  0  0  0  0  0
  2  1  1  1
  3  2  1  0
  4  2  1  0
  4  5  2  0
  6  4  1  0
  7  6  1  0
  7  8  1  1
  9  8  1  0
  9 17  1  0
 10 11  1  0
 10  9  2  0
 11 12  1  0
 12 13  1  0
 12 17  2  0
 13 14  2  0
 14 15  1  0
 16 15  2  0
 17 16  1  0
 18  7  1  0
 19 18  2  0
 21 20  1  1
 21 23  1  0
 22 21  1  0
 23 25  1  0
 23 24  1  1
 24 18  1  0
 25 26  1  0
 27 25  2  0
M  END
$$$$
