AWV.pdb
     RDKit          3D

 27 28  0  0  1  0  0  0  0  0999 V2000
   12.5739  -17.9982   21.2870 C   0  0  0  0  0  0  0  0  0  0  0  0
   11.4137  -17.1906   20.7462 C   0  0  2  0  0  0  0  0  0  0  0  0
   11.7886  -16.4258   19.5817 N   0  0  0  0  0  0  0  0  0  0  0  0
   10.8735  -16.2687   21.7733 C   0  0  0  0  0  0  0  0  0  0  0  0
   11.1353  -15.0419   21.8048 O   0  0  0  0  0  0  0  0  0  0  0  0
   10.0162  -16.7760   22.7786 N   0  0  0  0  0  0  0  0  0  0  0  0
    9.3365  -15.8058   23.6993 C   0  0  1  0  0  0  0  0  0  0  0  0
    7.8953  -16.0599   23.6522 C   0  0  0  0  0  0  0  0  0  0  0  0
    7.0563  -15.3077   24.6134 C   0  0  0  0  0  0  0  0  0  0  0  0
    6.2805  -15.6704   25.6465 C   0  0  0  0  0  0  0  0  0  0  0  0
    5.7835  -14.5780   26.2622 N   0  0  0  0  0  0  0  0  0  0  0  0
    6.2149  -13.4655   25.6573 C   0  0  0  0  0  0  0  0  0  0  0  0
    5.9946  -12.1050   25.8987 C   0  0  0  0  0  0  0  0  0  0  0  0
    6.5956  -11.1802   25.0747 C   0  0  0  0  0  0  0  0  0  0  0  0
    7.3960  -11.5949   24.0369 C   0  0  0  0  0  0  0  0  0  0  0  0
    7.6065  -12.9610   23.8089 C   0  0  0  0  0  0  0  0  0  0  0  0
    7.0048  -13.8857   24.6332 C   0  0  0  0  0  0  0  0  0  0  0  0
   10.0326  -16.1504   24.9783 C   0  0  0  0  0  0  0  0  0  0  0  0
   10.7281  -17.2343   24.8870 O   0  0  0  0  0  0  0  0  0  0  0  0
   10.9351  -13.5169   27.9567 C   0  0  0  0  0  0  0  0  0  0  0  0
   10.9251  -14.9706   28.4325 C   0  0  1  0  0  0  0  0  0  0  0  0
    9.7489  -15.0973   29.3663 C   0  0  0  0  0  0  0  0  0  0  0  0
   10.8975  -15.9105   27.2699 C   0  0  2  0  0  0  0  0  0  0  0  0
   10.0181  -15.4935   26.1911 N   0  0  0  0  0  0  0  0  0  0  0  0
   10.4529  -17.2679   27.7084 C   0  0  0  0  0  0  0  0  0  0  0  0
   11.2743  -18.0799   28.4519 O   0  0  0  0  0  0  0  0  0  0  0  0
    9.3273  -17.6702   27.4000 O   0  0  0  0  0  0  0  0  0  0  0  0
  2  1  1  1
  3  2  1  0
  4  2  1  0
  4  5  2  0
  6  4  1  0
  7  6  1  0
  7  8  1  1
  9  8  1  0
  9 17  1  0
 10 11  1  0
 10  9  2  0
 11 12  1  0
 12 13  1  0
 12 17  2  0
 13 14  2  0
 14 15  1  0
 16 15  2  0
 17 16  1  0
 18  7  1  0
 19 18  2  0
 21 20  1  6
 21 23  1  0
 22 21  1  0
 23 25  1  0
 23 24  1  6
 24 18  1  0
 25 26  1  0
 27 25  2  0
M  END
$$$$
