AWV.pdb
     RDKit          3D

 27 28  0  0  1  0  0  0  0  0999 V2000
    7.1356  -14.4659   20.3880 C   0  0  0  0  0  0  0  0  0  0  0  0
    7.8709  -15.7155   20.8224 C   0  0  2  0  0  0  0  0  0  0  0  0
    6.9630  -16.7964   21.1200 N   0  0  0  0  0  0  0  0  0  0  0  0
    8.7168  -15.4569   22.0117 C   0  0  0  0  0  0  0  0  0  0  0  0
    9.5682  -14.5368   22.0654 O   0  0  0  0  0  0  0  0  0  0  0  0
    8.5729  -16.2766   23.1565 N   0  0  0  0  0  0  0  0  0  0  0  0
    9.3256  -15.9096   24.4014 C   0  0  1  0  0  0  0  0  0  0  0  0
    8.4404  -16.1113   25.5501 C   0  0  0  0  0  0  0  0  0  0  0  0
    7.2792  -15.1988   25.6625 C   0  0  0  0  0  0  0  0  0  0  0  0
    5.9572  -15.3584   25.4973 C   0  0  0  0  0  0  0  0  0  0  0  0
    5.3082  -14.2155   25.8008 N   0  0  0  0  0  0  0  0  0  0  0  0
    6.1785  -13.2708   26.1748 C   0  0  0  0  0  0  0  0  0  0  0  0
    6.0227  -11.9406   26.5796 C   0  0  0  0  0  0  0  0  0  0  0  0
    7.1442  -11.2118   26.9059 C   0  0  0  0  0  0  0  0  0  0  0  0
    8.3897  -11.7886   26.8330 C   0  0  0  0  0  0  0  0  0  0  0  0
    8.5285  -13.1220   26.4259 C   0  0  0  0  0  0  0  0  0  0  0  0
    7.4063  -13.8504   26.0993 C   0  0  0  0  0  0  0  0  0  0  0  0
   10.4818  -16.8515   24.2773 C   0  0  0  0  0  0  0  0  0  0  0  0
   10.1352  -18.0009   23.8025 O   0  0  0  0  0  0  0  0  0  0  0  0
   13.8417  -16.6152   22.4255 C   0  0  0  0  0  0  0  0  0  0  0  0
   14.0725  -17.2518   23.7971 C   0  0  1  0  0  0  0  0  0  0  0  0
   14.8014  -16.2205   24.6197 C   0  0  0  0  0  0  0  0  0  0  0  0
   12.7821  -17.7190   24.3906 C   0  0  2  0  0  0  0  0  0  0  0  0
   11.8089  -16.6608   24.6012 N   0  0  0  0  0  0  0  0  0  0  0  0
   13.0235  -18.3725   25.7123 C   0  0  0  0  0  0  0  0  0  0  0  0
   13.8127  -19.4917   25.8190 O   0  0  0  0  0  0  0  0  0  0  0  0
   12.5071  -17.9006   26.7294 O   0  0  0  0  0  0  0  0  0  0  0  0
  2  1  1  1
  3  2  1  0
  4  2  1  0
  4  5  2  0
  6  4  1  0
  7  6  1  0
  7  8  1  1
  9  8  1  0
  9 17  1  0
 10 11  1  0
 10  9  2  0
 11 12  1  0
 12 13  1  0
 12 17  2  0
 13 14  2  0
 14 15  1  0
 16 15  2  0
 17 16  1  0
 18  7  1  0
 19 18  2  0
 21 20  1  6
 21 23  1  0
 22 21  1  0
 23 25  1  0
 23 24  1  1
 24 18  1  0
 25 26  1  0
 27 25  2  0
M  END
$$$$
