AWV.pdb
     RDKit          3D

 27 28  0  0  1  0  0  0  0  0999 V2000
   12.6880  -18.9877   21.8372 C   0  0  0  0  0  0  0  0  0  0  0  0
   11.6973  -18.1457   21.0624 C   0  0  2  0  0  0  0  0  0  0  0  0
   12.2608  -17.6524   19.8293 N   0  0  0  0  0  0  0  0  0  0  0  0
   11.2217  -16.9957   21.8675 C   0  0  0  0  0  0  0  0  0  0  0  0
   11.6458  -15.8248   21.7147 O   0  0  0  0  0  0  0  0  0  0  0  0
   10.2391  -17.2060   22.8641 N   0  0  0  0  0  0  0  0  0  0  0  0
    9.6048  -16.0098   23.5105 C   0  0  1  0  0  0  0  0  0  0  0  0
    8.1625  -16.0650   23.2643 C   0  0  0  0  0  0  0  0  0  0  0  0
    7.4263  -14.7820   23.3387 C   0  0  0  0  0  0  0  0  0  0  0  0
    6.7004  -14.0788   22.4559 C   0  0  0  0  0  0  0  0  0  0  0  0
    6.1636  -12.9947   23.0525 N   0  0  0  0  0  0  0  0  0  0  0  0
    6.5165  -12.9498   24.3420 C   0  0  0  0  0  0  0  0  0  0  0  0
    6.2320  -12.0504   25.3753 C   0  0  0  0  0  0  0  0  0  0  0  0
    6.7605  -12.2876   26.6243 C   0  0  0  0  0  0  0  0  0  0  0  0
    7.5515  -13.3902   26.8429 C   0  0  0  0  0  0  0  0  0  0  0  0
    7.8267  -14.2813   25.7974 C   0  0  0  0  0  0  0  0  0  0  0  0
    7.2981  -14.0434   24.5483 C   0  0  0  0  0  0  0  0  0  0  0  0
   10.0487  -16.2282   24.9228 C   0  0  0  0  0  0  0  0  0  0  0  0
   10.5443  -17.4056   25.1096 O   0  0  0  0  0  0  0  0  0  0  0  0
    9.3646  -14.0494   28.5129 C   0  0  0  0  0  0  0  0  0  0  0  0
   10.7840  -14.5148   28.1836 C   0  0  1  0  0  0  0  0  0  0  0  0
   11.4332  -14.8438   29.5033 C   0  0  0  0  0  0  0  0  0  0  0  0
   10.7594  -15.6459   27.2060 C   0  0  2  0  0  0  0  0  0  0  0  0
    9.9885  -15.3746   26.0046 N   0  0  0  0  0  0  0  0  0  0  0  0
   10.1816  -16.8693   27.8398 C   0  0  0  0  0  0  0  0  0  0  0  0
   10.9828  -17.7905   28.4693 O   0  0  0  0  0  0  0  0  0  0  0  0
    8.9624  -17.0588   27.8003 O   0  0  0  0  0  0  0  0  0  0  0  0
  2  1  1  1
  3  2  1  0
  4  2  1  0
  4  5  2  0
  6  4  1  0
  7  6  1  0
  7  8  1  1
  9  8  1  0
  9 17  1  0
 10 11  1  0
 10  9  2  0
 11 12  1  0
 12 13  1  0
 12 17  2  0
 13 14  2  0
 14 15  1  0
 16 15  2  0
 17 16  1  0
 18  7  1  0
 19 18  2  0
 21 20  1  1
 21 23  1  0
 22 21  1  0
 23 25  1  0
 23 24  1  6
 24 18  1  0
 25 26  1  0
 27 25  2  0
M  END
$$$$
