AWV.pdb
     RDKit          3D

 27 28  0  0  1  0  0  0  0  0999 V2000
   12.8669  -17.5626   21.3090 C   0  0  0  0  0  0  0  0  0  0  0  0
   11.4741  -17.1626   20.8720 C   0  0  2  0  0  0  0  0  0  0  0  0
   11.4790  -16.5320   19.5744 N   0  0  0  0  0  0  0  0  0  0  0  0
   10.8453  -16.2439   21.8505 C   0  0  0  0  0  0  0  0  0  0  0  0
   11.0414  -15.0046   21.8573 O   0  0  0  0  0  0  0  0  0  0  0  0
    9.9754  -16.7694   22.8354 N   0  0  0  0  0  0  0  0  0  0  0  0
    9.2234  -15.8129   23.7132 C   0  0  1  0  0  0  0  0  0  0  0  0
    7.8136  -16.2083   23.7220 C   0  0  0  0  0  0  0  0  0  0  0  0
    6.9112  -15.4316   24.6029 C   0  0  0  0  0  0  0  0  0  0  0  0
    5.9468  -15.7722   25.4716 C   0  0  0  0  0  0  0  0  0  0  0  0
    5.4701  -14.6740   26.0929 N   0  0  0  0  0  0  0  0  0  0  0  0
    6.1032  -13.5796   25.6558 C   0  0  0  0  0  0  0  0  0  0  0  0
    5.9854  -12.2220   25.9731 C   0  0  0  0  0  0  0  0  0  0  0  0
    6.8014  -11.3183   25.3305 C   0  0  0  0  0  0  0  0  0  0  0  0
    7.7122  -11.7508   24.3963 C   0  0  0  0  0  0  0  0  0  0  0  0
    7.8177  -13.1139   24.0901 C   0  0  0  0  0  0  0  0  0  0  0  0
    7.0010  -14.0173   24.7330 C   0  0  0  0  0  0  0  0  0  0  0  0
    9.9777  -16.0056   24.9912 C   0  0  0  0  0  0  0  0  0  0  0  0
   10.8162  -16.9853   24.9283 O   0  0  0  0  0  0  0  0  0  0  0  0
   10.9739  -13.2475   27.8959 C   0  0  0  0  0  0  0  0  0  0  0  0
   10.7048  -14.6588   28.4209 C   0  0  1  0  0  0  0  0  0  0  0  0
    9.3933  -14.5873   29.1600 C   0  0  0  0  0  0  0  0  0  0  0  0
   10.7347  -15.6554   27.3066 C   0  0  2  0  0  0  0  0  0  0  0  0
    9.8878  -15.3086   26.1781 N   0  0  0  0  0  0  0  0  0  0  0  0
   10.2974  -16.9973   27.7967 C   0  0  0  0  0  0  0  0  0  0  0  0
   11.0826  -17.7338   28.6498 O   0  0  0  0  0  0  0  0  0  0  0  0
    9.2108  -17.4556   27.4317 O   0  0  0  0  0  0  0  0  0  0  0  0
  2  1  1  1
  3  2  1  0
  4  2  1  0
  4  5  2  0
  6  4  1  0
  7  6  1  0
  7  8  1  1
  9  8  1  0
  9 17  1  0
 10 11  1  0
 10  9  2  0
 11 12  1  0
 12 13  1  0
 12 17  2  0
 13 14  2  0
 14 15  1  0
 16 15  2  0
 17 16  1  0
 18  7  1  0
 19 18  2  0
 21 20  1  6
 21 23  1  0
 22 21  1  0
 23 25  1  0
 23 24  1  6
 24 18  1  0
 25 26  1  0
 27 25  2  0
M  END
$$$$
