AWV.pdb
     RDKit          3D

 27 28  0  0  1  0  0  0  0  0999 V2000
   12.6715  -17.8527   21.2924 C   0  0  0  0  0  0  0  0  0  0  0  0
   11.4580  -17.1127   20.7723 C   0  0  2  0  0  0  0  0  0  0  0  0
   11.7629  -16.3470   19.5882 N   0  0  0  0  0  0  0  0  0  0  0  0
   10.8988  -16.2043   21.8013 C   0  0  0  0  0  0  0  0  0  0  0  0
   11.1074  -14.9671   21.8155 O   0  0  0  0  0  0  0  0  0  0  0  0
   10.0846  -16.7378   22.8287 N   0  0  0  0  0  0  0  0  0  0  0  0
    9.3618  -15.7881   23.7379 C   0  0  1  0  0  0  0  0  0  0  0  0
    7.9279  -16.0720   23.6529 C   0  0  0  0  0  0  0  0  0  0  0  0
    7.0571  -15.3969   24.6427 C   0  0  0  0  0  0  0  0  0  0  0  0
    6.2852  -15.8364   25.6485 C   0  0  0  0  0  0  0  0  0  0  0  0
    5.7481  -14.7932   26.3140 N   0  0  0  0  0  0  0  0  0  0  0  0
    6.1480  -13.6382   25.7704 C   0  0  0  0  0  0  0  0  0  0  0  0
    5.8817  -12.2995   26.0783 C   0  0  0  0  0  0  0  0  0  0  0  0
    6.4591  -11.3152   25.3081 C   0  0  0  0  0  0  0  0  0  0  0  0
    7.2808  -11.6506   24.2585 C   0  0  0  0  0  0  0  0  0  0  0  0
    7.5374  -12.9959   23.9635 C   0  0  0  0  0  0  0  0  0  0  0  0
    6.9594  -13.9801   24.7341 C   0  0  0  0  0  0  0  0  0  0  0  0
   10.0327  -16.1266   25.0320 C   0  0  0  0  0  0  0  0  0  0  0  0
   10.7931  -17.1657   24.9385 O   0  0  0  0  0  0  0  0  0  0  0  0
   11.4141  -13.5652   27.7962 C   0  0  0  0  0  0  0  0  0  0  0  0
   10.9676  -14.8873   28.4227 C   0  0  1  0  0  0  0  0  0  0  0  0
    9.7358  -14.5720   29.2320 C   0  0  0  0  0  0  0  0  0  0  0  0
   10.7683  -15.9329   27.3726 C   0  0  2  0  0  0  0  0  0  0  0  0
    9.9382  -15.5047   26.2595 N   0  0  0  0  0  0  0  0  0  0  0  0
   10.1306  -17.1484   27.9627 C   0  0  0  0  0  0  0  0  0  0  0  0
   10.8124  -17.9536   28.8423 O   0  0  0  0  0  0  0  0  0  0  0  0
    8.9697  -17.4371   27.6579 O   0  0  0  0  0  0  0  0  0  0  0  0
  2  1  1  1
  3  2  1  0
  4  2  1  0
  4  5  2  0
  6  4  1  0
  7  6  1  0
  7  8  1  1
  9  8  1  0
  9 17  1  0
 10 11  1  0
 10  9  2  0
 11 12  1  0
 12 13  1  0
 12 17  2  0
 13 14  2  0
 14 15  1  0
 16 15  2  0
 17 16  1  0
 18  7  1  0
 19 18  2  0
 21 20  1  6
 21 23  1  0
 22 21  1  0
 23 25  1  0
 23 24  1  6
 24 18  1  0
 25 26  1  0
 27 25  2  0
M  END
$$$$
