AWV.pdb
     RDKit          3D

 27 28  0  0  1  0  0  0  0  0999 V2000
   12.5737  -17.7194   21.0266 C   0  0  0  0  0  0  0  0  0  0  0  0
   11.1642  -17.3316   20.6349 C   0  0  2  0  0  0  0  0  0  0  0  0
   11.1174  -16.7308   19.3241 N   0  0  0  0  0  0  0  0  0  0  0  0
   10.5715  -16.3917   21.6159 C   0  0  0  0  0  0  0  0  0  0  0  0
   10.6076  -15.1444   21.4844 O   0  0  0  0  0  0  0  0  0  0  0  0
    9.9263  -16.9053   22.7661 N   0  0  0  0  0  0  0  0  0  0  0  0
    9.1776  -15.9553   23.6537 C   0  0  1  0  0  0  0  0  0  0  0  0
    7.8129  -16.4595   23.8191 C   0  0  0  0  0  0  0  0  0  0  0  0
    6.8817  -15.6123   24.5993 C   0  0  0  0  0  0  0  0  0  0  0  0
    5.7557  -15.8631   25.2848 C   0  0  0  0  0  0  0  0  0  0  0  0
    5.3223  -14.7414   25.8957 N   0  0  0  0  0  0  0  0  0  0  0  0
    6.1461  -13.7203   25.6339 C   0  0  0  0  0  0  0  0  0  0  0  0
    6.1448  -12.3748   26.0174 C   0  0  0  0  0  0  0  0  0  0  0  0
    7.1575  -11.5571   25.5688 C   0  0  0  0  0  0  0  0  0  0  0  0
    8.1475  -12.0621   24.7599 C   0  0  0  0  0  0  0  0  0  0  0  0
    8.1343  -13.4119   24.3851 C   0  0  0  0  0  0  0  0  0  0  0  0
    7.1208  -14.2293   24.8339 C   0  0  0  0  0  0  0  0  0  0  0  0
   10.0569  -16.0030   24.8635 C   0  0  0  0  0  0  0  0  0  0  0  0
   11.0965  -16.7488   24.6909 O   0  0  0  0  0  0  0  0  0  0  0  0
   10.9824  -13.1802   27.7133 C   0  0  0  0  0  0  0  0  0  0  0  0
   10.7900  -14.5970   28.2568 C   0  0  1  0  0  0  0  0  0  0  0  0
    9.4814  -14.5842   29.0045 C   0  0  0  0  0  0  0  0  0  0  0  0
   10.8639  -15.6042   27.1541 C   0  0  2  0  0  0  0  0  0  0  0  0
    9.9002  -15.3884   26.0883 N   0  0  0  0  0  0  0  0  0  0  0  0
   10.6356  -16.9801   27.6898 C   0  0  0  0  0  0  0  0  0  0  0  0
   11.5608  -17.5902   28.5014 O   0  0  0  0  0  0  0  0  0  0  0  0
    9.5975  -17.5826   27.4012 O   0  0  0  0  0  0  0  0  0  0  0  0
  2  1  1  1
  3  2  1  0
  4  2  1  0
  4  5  2  0
  6  4  1  0
  7  6  1  0
  7  8  1  1
  9  8  1  0
  9 17  1  0
 10 11  1  0
 10  9  2  0
 11 12  1  0
 12 13  1  0
 12 17  2  0
 13 14  2  0
 14 15  1  0
 16 15  2  0
 17 16  1  0
 18  7  1  0
 19 18  2  0
 21 20  1  6
 21 23  1  0
 22 21  1  0
 23 25  1  0
 23 24  1  6
 24 18  1  0
 25 26  1  0
 27 25  2  0
M  END
$$$$
