HMP.pdb
     RDKit          3D

 26 27  0  0  1  0  0  0  0  0999 V2000
   10.8172  -15.9888   20.5268 N   0  0  0  0  0  0  0  0  0  0  0  0
    9.8878  -16.6200   21.4510 C   0  0  1  0  0  0  0  0  0  0  0  0
   10.2478  -18.0286   21.7646 C   0  0  0  0  0  0  0  0  0  0  0  0
    9.6626  -18.9074   20.7067 C   0  0  0  0  0  0  0  0  0  0  0  0
    9.2457  -18.5551   19.4408 C   0  0  0  0  0  0  0  0  0  0  0  0
    8.7811  -19.6689   18.8181 N   0  0  0  0  0  0  0  0  0  0  0  0
    8.9208  -20.6592   19.6982 C   0  0  0  0  0  0  0  0  0  0  0  0
    9.4527  -20.2168   20.8467 N   0  0  0  0  0  0  0  0  0  0  0  0
    9.8538  -15.8084   22.6708 C   0  0  0  0  0  0  0  0  0  0  0  0
   10.8780  -15.1897   23.0894 O   0  0  0  0  0  0  0  0  0  0  0  0
    5.4257  -11.4700   26.2188 C   0  0  0  0  0  0  0  0  0  0  0  0
    7.1019  -12.1847   26.1995 S   0  0  0  0  0  0  0  0  0  0  0  0
    6.9807  -14.0213   26.2966 C   0  0  0  0  0  0  0  0  0  0  0  0
    7.2380  -14.5775   24.9431 C   0  0  0  0  0  0  0  0  0  0  0  0
    8.6554  -15.0057   24.6641 C   0  0  2  0  0  0  0  0  0  0  0  0
    8.6694  -15.6882   23.4203 N   0  0  0  0  0  0  0  0  0  0  0  0
    9.3500  -15.6897   25.7252 C   0  0  0  0  0  0  0  0  0  0  0  0
    9.7622  -16.8807   25.3820 O   0  0  0  0  0  0  0  0  0  0  0  0
    9.6664  -15.3260   27.0523 N   0  0  0  0  0  0  0  0  0  0  0  0
    9.2308  -14.3110   27.9380 C   0  0  0  0  0  0  0  0  0  0  0  0
   10.4239  -13.9947   28.7988 C   0  0  0  0  0  0  0  0  0  0  0  0
   11.4954  -14.9875   28.4057 C   0  0  0  0  0  0  0  0  0  0  0  0
   10.6641  -16.1009   27.8182 C   0  0  1  0  0  0  0  0  0  0  0  0
   10.0320  -16.8569   28.9108 C   0  0  0  0  0  0  0  0  0  0  0  0
    8.6721  -16.9573   29.1472 O   0  0  0  0  0  0  0  0  0  0  0  0
   10.7629  -17.4963   29.7429 O   0  0  0  0  0  0  0  0  0  0  0  0
  2  1  1  6
  2  9  1  0
  3  2  1  0
  4  3  1  0
  5  4  2  0
  6  5  1  0
  7  6  1  0
  7  8  2  0
  8  4  1  0
  9 10  2  0
 12 11  1  0
 13 12  1  0
 14 13  1  0
 15 14  1  1
 16  9  1  0
 16 15  1  0
 17 15  1  0
 18 17  2  0
 19 17  1  0
 19 23  1  0
 20 21  1  0
 20 19  1  0
 21 22  1  0
 23 22  1  0
 24 25  1  0
 23 24  1  1
 26 24  2  0
M  END
$$$$
