HMP.pdb
     RDKit          3D

 26 27  0  0  1  0  0  0  0  0999 V2000
   10.8200  -16.4437   20.5023 N   0  0  0  0  0  0  0  0  0  0  0  0
    9.8283  -16.9139   21.4570 C   0  0  1  0  0  0  0  0  0  0  0  0
   10.0114  -18.3427   21.8278 C   0  0  0  0  0  0  0  0  0  0  0  0
    9.5511  -19.1855   20.6825 C   0  0  0  0  0  0  0  0  0  0  0  0
    8.4381  -19.0097   19.8883 C   0  0  0  0  0  0  0  0  0  0  0  0
    8.4063  -20.0089   18.9693 N   0  0  0  0  0  0  0  0  0  0  0  0
    9.4787  -20.7599   19.2154 C   0  0  0  0  0  0  0  0  0  0  0  0
   10.1832  -20.2767   20.2488 N   0  0  0  0  0  0  0  0  0  0  0  0
    9.9096  -16.0551   22.6418 C   0  0  0  0  0  0  0  0  0  0  0  0
   11.0076  -15.5527   23.0277 O   0  0  0  0  0  0  0  0  0  0  0  0
    5.7175  -11.2413   26.9381 C   0  0  0  0  0  0  0  0  0  0  0  0
    5.6601  -12.8899   26.1638 S   0  0  0  0  0  0  0  0  0  0  0  0
    7.3646  -13.5882   26.0938 C   0  0  0  0  0  0  0  0  0  0  0  0
    7.4952  -14.3734   24.8392 C   0  0  0  0  0  0  0  0  0  0  0  0
    8.8404  -15.0061   24.5937 C   0  0  2  0  0  0  0  0  0  0  0  0
    8.7581  -15.7571   23.3928 N   0  0  0  0  0  0  0  0  0  0  0  0
    9.4386  -15.7136   25.6973 C   0  0  0  0  0  0  0  0  0  0  0  0
    9.7907  -16.9339   25.3917 O   0  0  0  0  0  0  0  0  0  0  0  0
    9.7132  -15.3475   27.0330 N   0  0  0  0  0  0  0  0  0  0  0  0
    9.2532  -14.3283   27.9013 C   0  0  0  0  0  0  0  0  0  0  0  0
   10.4190  -14.0143   28.7996 C   0  0  0  0  0  0  0  0  0  0  0  0
   11.4986  -15.0124   28.4442 C   0  0  0  0  0  0  0  0  0  0  0  0
   10.6822  -16.1241   27.8330 C   0  0  1  0  0  0  0  0  0  0  0  0
   10.0119  -16.8746   28.9065 C   0  0  0  0  0  0  0  0  0  0  0  0
   10.6346  -17.6787   29.8451 O   0  0  0  0  0  0  0  0  0  0  0  0
    8.7403  -16.8094   29.0249 O   0  0  0  0  0  0  0  0  0  0  0  0
  2  1  1  6
  2  9  1  0
  3  2  1  0
  4  3  1  0
  5  4  2  0
  6  5  1  0
  7  6  1  0
  7  8  2  0
  8  4  1  0
  9 10  2  0
 12 11  1  0
 13 12  1  0
 14 13  1  0
 15 14  1  1
 16  9  1  0
 16 15  1  0
 17 15  1  0
 18 17  2  0
 19 17  1  0
 19 23  1  0
 20 21  1  0
 20 19  1  0
 21 22  1  0
 23 22  1  0
 24 25  1  0
 23 24  1  1
 26 24  2  0
M  END
$$$$
