HMP.pdb
     RDKit          3D

 26 27  0  0  1  0  0  0  0  0999 V2000
   10.5208  -16.6975   20.4995 N   0  0  0  0  0  0  0  0  0  0  0  0
    9.7828  -17.2283   21.6351 C   0  0  1  0  0  0  0  0  0  0  0  0
   10.2965  -18.5457   22.0967 C   0  0  0  0  0  0  0  0  0  0  0  0
    9.8723  -19.5847   21.1096 C   0  0  0  0  0  0  0  0  0  0  0  0
    8.5920  -19.9785   20.7840 C   0  0  0  0  0  0  0  0  0  0  0  0
    8.6709  -20.9508   19.8393 N   0  0  0  0  0  0  0  0  0  0  0  0
    9.9714  -21.1280   19.6113 C   0  0  0  0  0  0  0  0  0  0  0  0
   10.7134  -20.3097   20.3712 N   0  0  0  0  0  0  0  0  0  0  0  0
    9.8516  -16.2373   22.7126 C   0  0  0  0  0  0  0  0  0  0  0  0
   10.9365  -15.6560   23.0163 O   0  0  0  0  0  0  0  0  0  0  0  0
    5.7663  -11.2024   26.7468 C   0  0  0  0  0  0  0  0  0  0  0  0
    5.6346  -12.9113   26.1279 S   0  0  0  0  0  0  0  0  0  0  0  0
    7.3089  -13.6819   26.1099 C   0  0  0  0  0  0  0  0  0  0  0  0
    7.4558  -14.4477   24.8451 C   0  0  0  0  0  0  0  0  0  0  0  0
    8.7925  -15.1069   24.6241 C   0  0  2  0  0  0  0  0  0  0  0  0
    8.7023  -15.8956   23.4482 N   0  0  0  0  0  0  0  0  0  0  0  0
    9.3781  -15.7862   25.7520 C   0  0  0  0  0  0  0  0  0  0  0  0
    9.6581  -17.0381   25.5057 O   0  0  0  0  0  0  0  0  0  0  0  0
    9.7027  -15.3652   27.0599 N   0  0  0  0  0  0  0  0  0  0  0  0
    9.2791  -14.3072   27.8999 C   0  0  0  0  0  0  0  0  0  0  0  0
   10.4782  -13.9622   28.7413 C   0  0  0  0  0  0  0  0  0  0  0  0
   11.5398  -14.9810   28.3900 C   0  0  0  0  0  0  0  0  0  0  0  0
   10.6968  -16.1129   27.8568 C   0  0  1  0  0  0  0  0  0  0  0  0
   10.0627  -16.8129   28.9850 C   0  0  0  0  0  0  0  0  0  0  0  0
    8.7064  -16.8503   29.2575 O   0  0  0  0  0  0  0  0  0  0  0  0
   10.7880  -17.4601   29.8159 O   0  0  0  0  0  0  0  0  0  0  0  0
  2  1  1  6
  2  9  1  0
  3  2  1  0
  4  3  1  0
  5  4  2  0
  6  5  1  0
  7  6  1  0
  7  8  2  0
  8  4  1  0
  9 10  2  0
 12 11  1  0
 13 12  1  0
 14 13  1  0
 15 14  1  1
 16  9  1  0
 16 15  1  0
 17 15  1  0
 18 17  2  0
 19 17  1  0
 19 23  1  0
 20 21  1  0
 20 19  1  0
 21 22  1  0
 23 22  1  0
 24 25  1  0
 23 24  1  1
 26 24  2  0
M  END
$$$$
