HMP.pdb
     RDKit          3D

 26 27  0  0  1  0  0  0  0  0999 V2000
   11.0774  -16.3541   20.5220 N   0  0  0  0  0  0  0  0  0  0  0  0
   10.2157  -17.0061   21.4959 C   0  0  1  0  0  0  0  0  0  0  0  0
   10.7175  -18.3431   21.9116 C   0  0  0  0  0  0  0  0  0  0  0  0
   10.3750  -19.3254   20.8384 C   0  0  0  0  0  0  0  0  0  0  0  0
    9.6461  -19.1111   19.6881 C   0  0  0  0  0  0  0  0  0  0  0  0
    9.5804  -20.2796   18.9996 N   0  0  0  0  0  0  0  0  0  0  0  0
   10.2567  -21.1664   19.7281 C   0  0  0  0  0  0  0  0  0  0  0  0
   10.7447  -20.6066   20.8445 N   0  0  0  0  0  0  0  0  0  0  0  0
   10.0965  -16.1133   22.6520 C   0  0  0  0  0  0  0  0  0  0  0  0
   11.0818  -15.4402   23.0798 O   0  0  0  0  0  0  0  0  0  0  0  0
    6.3330  -11.2805   26.8793 C   0  0  0  0  0  0  0  0  0  0  0  0
    6.6364  -12.2943   25.3957 S   0  0  0  0  0  0  0  0  0  0  0  0
    7.0004  -14.0272   25.9078 C   0  0  0  0  0  0  0  0  0  0  0  0
    7.3192  -14.8158   24.6896 C   0  0  0  0  0  0  0  0  0  0  0  0
    8.7675  -15.1870   24.5039 C   0  0  2  0  0  0  0  0  0  0  0  0
    8.8704  -15.9732   23.3273 N   0  0  0  0  0  0  0  0  0  0  0  0
    9.4508  -15.7365   25.6475 C   0  0  0  0  0  0  0  0  0  0  0  0
   10.0161  -16.8879   25.4007 O   0  0  0  0  0  0  0  0  0  0  0  0
    9.6242  -15.2765   26.9710 N   0  0  0  0  0  0  0  0  0  0  0  0
    9.0120  -14.2787   27.7672 C   0  0  0  0  0  0  0  0  0  0  0  0
   10.0942  -13.7855   28.6894 C   0  0  0  0  0  0  0  0  0  0  0  0
   11.2971  -14.6642   28.4264 C   0  0  0  0  0  0  0  0  0  0  0  0
   10.6428  -15.8931   27.8454 C   0  0  1  0  0  0  0  0  0  0  0  0
   10.0201  -16.6655   28.9320 C   0  0  0  0  0  0  0  0  0  0  0  0
   10.6926  -17.3761   29.9108 O   0  0  0  0  0  0  0  0  0  0  0  0
    8.7455  -16.7144   29.0232 O   0  0  0  0  0  0  0  0  0  0  0  0
  2  1  1  6
  2  9  1  0
  3  2  1  0
  4  3  1  0
  5  4  2  0
  6  5  1  0
  7  6  1  0
  7  8  2  0
  8  4  1  0
  9 10  2  0
 12 11  1  0
 13 12  1  0
 14 13  1  0
 15 14  1  1
 16  9  1  0
 16 15  1  0
 17 15  1  0
 18 17  2  0
 19 17  1  0
 19 23  1  0
 20 21  1  0
 20 19  1  0
 21 22  1  0
 23 22  1  0
 24 25  1  0
 23 24  1  1
 26 24  2  0
M  END
$$$$
