HMP.pdb
     RDKit          3D

 26 27  0  0  1  0  0  0  0  0999 V2000
   10.4247  -16.4787   20.4220 N   0  0  0  0  0  0  0  0  0  0  0  0
    9.6586  -17.1237   21.4770 C   0  0  1  0  0  0  0  0  0  0  0  0
   10.2294  -18.4332   21.8912 C   0  0  0  0  0  0  0  0  0  0  0  0
    9.8442  -19.4550   20.8707 C   0  0  0  0  0  0  0  0  0  0  0  0
    8.6226  -19.6262   20.2552 C   0  0  0  0  0  0  0  0  0  0  0  0
    8.7192  -20.6741   19.3971 N   0  0  0  0  0  0  0  0  0  0  0  0
    9.9725  -21.1132   19.5032 C   0  0  0  0  0  0  0  0  0  0  0  0
   10.6678  -20.3873   20.3905 N   0  0  0  0  0  0  0  0  0  0  0  0
    9.6006  -16.1995   22.6129 C   0  0  0  0  0  0  0  0  0  0  0  0
   10.6024  -15.5043   22.9595 O   0  0  0  0  0  0  0  0  0  0  0  0
    6.3137  -11.5539   27.3835 C   0  0  0  0  0  0  0  0  0  0  0  0
    6.5922  -12.4321   25.8112 S   0  0  0  0  0  0  0  0  0  0  0  0
    6.7074  -14.2424   26.1384 C   0  0  0  0  0  0  0  0  0  0  0  0
    6.9553  -14.9344   24.8471 C   0  0  0  0  0  0  0  0  0  0  0  0
    8.3914  -15.2773   24.5471 C   0  0  2  0  0  0  0  0  0  0  0  0
    8.4172  -16.0526   23.3592 N   0  0  0  0  0  0  0  0  0  0  0  0
    9.1707  -15.8224   25.6297 C   0  0  0  0  0  0  0  0  0  0  0  0
    9.5941  -17.0356   25.3945 O   0  0  0  0  0  0  0  0  0  0  0  0
    9.5597  -15.3048   26.8843 N   0  0  0  0  0  0  0  0  0  0  0  0
    9.2394  -14.1415   27.6249 C   0  0  0  0  0  0  0  0  0  0  0  0
   10.4823  -13.8124   28.4068 C   0  0  0  0  0  0  0  0  0  0  0  0
   11.4540  -14.9400   28.1373 C   0  0  0  0  0  0  0  0  0  0  0  0
   10.5141  -16.0483   27.7322 C   0  0  1  0  0  0  0  0  0  0  0  0
    9.8576  -16.5854   28.9344 C   0  0  0  0  0  0  0  0  0  0  0  0
    8.5037  -16.5257   29.2146 O   0  0  0  0  0  0  0  0  0  0  0  0
   10.5587  -17.1699   29.8301 O   0  0  0  0  0  0  0  0  0  0  0  0
  2  1  1  6
  2  9  1  0
  3  2  1  0
  4  3  1  0
  5  4  2  0
  6  5  1  0
  7  6  1  0
  7  8  2  0
  8  4  1  0
  9 10  2  0
 12 11  1  0
 13 12  1  0
 14 13  1  0
 15 14  1  1
 16  9  1  0
 16 15  1  0
 17 15  1  0
 18 17  2  0
 19 17  1  0
 19 23  1  0
 20 21  1  0
 20 19  1  0
 21 22  1  0
 23 22  1  0
 24 25  1  0
 23 24  1  1
 26 24  2  0
M  END
$$$$
