HMP.pdb
     RDKit          3D

 26 27  0  0  1  0  0  0  0  0999 V2000
   10.8196  -14.4948   20.5315 N   0  0  0  0  0  0  0  0  0  0  0  0
    9.4224  -14.4859   20.9364 C   0  0  1  0  0  0  0  0  0  0  0  0
    8.6482  -15.6251   20.3749 C   0  0  0  0  0  0  0  0  0  0  0  0
    8.4210  -15.3643   18.9209 C   0  0  0  0  0  0  0  0  0  0  0  0
    7.7994  -14.2815   18.3363 C   0  0  0  0  0  0  0  0  0  0  0  0
    7.8145  -14.4555   16.9896 N   0  0  0  0  0  0  0  0  0  0  0  0
    8.4325  -15.6174   16.7827 C   0  0  0  0  0  0  0  0  0  0  0  0
    8.8064  -16.1814   17.9401 N   0  0  0  0  0  0  0  0  0  0  0  0
    9.3840  -14.5034   22.4013 C   0  0  0  0  0  0  0  0  0  0  0  0
   10.4293  -14.6891   23.0941 O   0  0  0  0  0  0  0  0  0  0  0  0
    6.5540  -11.3389   28.2036 C   0  0  0  0  0  0  0  0  0  0  0  0
    5.8376  -12.0033   26.6654 S   0  0  0  0  0  0  0  0  0  0  0  0
    6.4969  -13.6992   26.3708 C   0  0  0  0  0  0  0  0  0  0  0  0
    6.7310  -13.8613   24.9126 C   0  0  0  0  0  0  0  0  0  0  0  0
    8.1461  -14.1761   24.5023 C   0  0  2  0  0  0  0  0  0  0  0  0
    8.1728  -14.3098   23.0900 N   0  0  0  0  0  0  0  0  0  0  0  0
    8.8087  -15.2404   25.2126 C   0  0  0  0  0  0  0  0  0  0  0  0
    9.0513  -16.2821   24.4627 O   0  0  0  0  0  0  0  0  0  0  0  0
    9.2404  -15.3749   26.5501 N   0  0  0  0  0  0  0  0  0  0  0  0
    9.0099  -14.6570   27.7484 C   0  0  0  0  0  0  0  0  0  0  0  0
   10.2772  -14.7984   28.5475 C   0  0  0  0  0  0  0  0  0  0  0  0
   11.1622  -15.7397   27.7607 C   0  0  0  0  0  0  0  0  0  0  0  0
   10.1415  -16.4810   26.9333 C   0  0  1  0  0  0  0  0  0  0  0  0
    9.4528  -17.4627   27.7859 C   0  0  0  0  0  0  0  0  0  0  0  0
   10.0275  -18.5832   28.3599 O   0  0  0  0  0  0  0  0  0  0  0  0
    8.2110  -17.3100   28.0502 O   0  0  0  0  0  0  0  0  0  0  0  0
  2  1  1  1
  2  9  1  0
  3  2  1  0
  4  3  1  0
  5  4  2  0
  6  5  1  0
  7  6  1  0
  7  8  2  0
  8  4  1  0
  9 10  2  0
 12 11  1  0
 13 12  1  0
 14 13  1  0
 15 14  1  1
 16  9  1  0
 16 15  1  0
 17 15  1  0
 18 17  2  0
 19 17  1  0
 19 23  1  0
 20 21  1  0
 20 19  1  0
 21 22  1  0
 23 22  1  0
 24 25  1  0
 23 24  1  1
 26 24  2  0
M  END
$$$$
