HMP.pdb
     RDKit          3D

 26 27  0  0  1  0  0  0  0  0999 V2000
    8.1464  -16.9381   21.2820 N   0  0  0  0  0  0  0  0  0  0  0  0
    9.5466  -16.5568   21.3836 C   0  0  1  0  0  0  0  0  0  0  0  0
   10.0581  -15.8936   20.1545 C   0  0  0  0  0  0  0  0  0  0  0  0
    9.1165  -14.7910   19.7918 C   0  0  0  0  0  0  0  0  0  0  0  0
    8.1992  -14.1535   20.5996 C   0  0  0  0  0  0  0  0  0  0  0  0
    7.5563  -13.2148   19.8585 N   0  0  0  0  0  0  0  0  0  0  0  0
    8.0829  -13.2959   18.6375 C   0  0  0  0  0  0  0  0  0  0  0  0
    9.0287  -14.2444   18.5786 N   0  0  0  0  0  0  0  0  0  0  0  0
    9.6839  -15.6745   22.5457 C   0  0  0  0  0  0  0  0  0  0  0  0
   10.7645  -15.0593   22.7924 O   0  0  0  0  0  0  0  0  0  0  0  0
    5.8922  -11.1255   26.3047 C   0  0  0  0  0  0  0  0  0  0  0  0
    5.7452  -12.8999   26.6930 S   0  0  0  0  0  0  0  0  0  0  0  0
    7.3865  -13.7088   26.4705 C   0  0  0  0  0  0  0  0  0  0  0  0
    7.4729  -14.2114   25.0750 C   0  0  0  0  0  0  0  0  0  0  0  0
    8.7909  -14.8210   24.6735 C   0  0  2  0  0  0  0  0  0  0  0  0
    8.6077  -15.4798   23.4303 N   0  0  0  0  0  0  0  0  0  0  0  0
    9.4744  -15.6083   25.6683 C   0  0  0  0  0  0  0  0  0  0  0  0
    9.8267  -16.7883   25.2329 O   0  0  0  0  0  0  0  0  0  0  0  0
    9.8316  -15.3542   27.0104 N   0  0  0  0  0  0  0  0  0  0  0  0
    9.4263  -14.4142   27.9884 C   0  0  0  0  0  0  0  0  0  0  0  0
   10.6458  -14.1705   28.8359 C   0  0  0  0  0  0  0  0  0  0  0  0
   11.7014  -15.1291   28.3312 C   0  0  0  0  0  0  0  0  0  0  0  0
   10.8489  -16.1900   27.6803 C   0  0  1  0  0  0  0  0  0  0  0  0
   10.2471  -17.0318   28.7263 C   0  0  0  0  0  0  0  0  0  0  0  0
    8.8989  -17.1099   29.0289 O   0  0  0  0  0  0  0  0  0  0  0  0
   10.9958  -17.7770   29.4471 O   0  0  0  0  0  0  0  0  0  0  0  0
  2  1  1  6
  2  9  1  0
  3  2  1  0
  4  3  1  0
  5  4  2  0
  6  5  1  0
  7  6  1  0
  7  8  2  0
  8  4  1  0
  9 10  2  0
 12 11  1  0
 13 12  1  0
 14 13  1  0
 15 14  1  1
 16  9  1  0
 16 15  1  0
 17 15  1  0
 18 17  2  0
 19 17  1  0
 19 23  1  0
 20 21  1  0
 20 19  1  0
 21 22  1  0
 23 22  1  0
 24 25  1  0
 23 24  1  1
 26 24  2  0
M  END
$$$$
