HMP.pdb
     RDKit          3D

 26 27  0  0  1  0  0  0  0  0999 V2000
    5.0406  -20.2952   23.7754 N   0  0  0  0  0  0  0  0  0  0  0  0
    6.2109  -19.6625   24.3637 C   0  0  1  0  0  0  0  0  0  0  0  0
    7.4880  -20.2963   23.9398 C   0  0  0  0  0  0  0  0  0  0  0  0
    7.5923  -20.1888   22.4527 C   0  0  0  0  0  0  0  0  0  0  0  0
    6.6436  -20.5126   21.5064 C   0  0  0  0  0  0  0  0  0  0  0  0
    7.1611  -20.2568   20.2772 N   0  0  0  0  0  0  0  0  0  0  0  0
    8.3905  -19.7913   20.4929 C   0  0  0  0  0  0  0  0  0  0  0  0
    8.6686  -19.7433   21.8036 N   0  0  0  0  0  0  0  0  0  0  0  0
    6.1850  -18.2456   23.9904 C   0  0  0  0  0  0  0  0  0  0  0  0
    5.5023  -17.8267   23.0078 O   0  0  0  0  0  0  0  0  0  0  0  0
    7.3640  -10.9653   26.6446 C   0  0  0  0  0  0  0  0  0  0  0  0
    7.3984  -12.7688   26.9037 S   0  0  0  0  0  0  0  0  0  0  0  0
    7.2613  -13.6196   25.2743 C   0  0  0  0  0  0  0  0  0  0  0  0
    7.1214  -15.0781   25.5206 C   0  0  0  0  0  0  0  0  0  0  0  0
    7.0068  -15.9465   24.2947 C   0  0  2  0  0  0  0  0  0  0  0  0
    6.9231  -17.2970   24.7214 N   0  0  0  0  0  0  0  0  0  0  0  0
    7.9613  -15.7143   23.2405 C   0  0  0  0  0  0  0  0  0  0  0  0
    8.7842  -16.7138   23.0665 O   0  0  0  0  0  0  0  0  0  0  0  0
    8.1787  -14.6251   22.3689 N   0  0  0  0  0  0  0  0  0  0  0  0
    7.7539  -13.2749   22.3364 C   0  0  0  0  0  0  0  0  0  0  0  0
    7.6573  -12.9228   20.8764 C   0  0  0  0  0  0  0  0  0  0  0  0
    8.1743  -14.1282   20.1228 C   0  0  0  0  0  0  0  0  0  0  0  0
    9.0324  -14.7872   21.1742 C   0  0  1  0  0  0  0  0  0  0  0  0
   10.2904  -14.0359   21.3082 C   0  0  0  0  0  0  0  0  0  0  0  0
   11.3044  -13.9774   20.3682 O   0  0  0  0  0  0  0  0  0  0  0  0
   10.5131  -13.3596   22.3704 O   0  0  0  0  0  0  0  0  0  0  0  0
  2  1  1  6
  2  9  1  0
  3  2  1  0
  4  3  1  0
  5  4  2  0
  6  5  1  0
  7  6  1  0
  7  8  2  0
  8  4  1  0
  9 10  2  0
 12 11  1  0
 13 12  1  0
 14 13  1  0
 15 14  1  1
 16  9  1  0
 16 15  1  0
 17 15  1  0
 18 17  2  0
 19 17  1  0
 19 23  1  0
 20 21  1  0
 20 19  1  0
 21 22  1  0
 23 22  1  0
 24 25  1  0
 23 24  1  1
 26 24  2  0
M  END
$$$$
