HMP.pdb
     RDKit          3D

 26 27  0  0  1  0  0  0  0  0999 V2000
   10.4434  -16.4779   20.2309 N   0  0  0  0  0  0  0  0  0  0  0  0
    9.5120  -16.9424   21.2472 C   0  0  1  0  0  0  0  0  0  0  0  0
    9.7254  -18.3656   21.6230 C   0  0  0  0  0  0  0  0  0  0  0  0
   10.4216  -19.0488   20.4905 C   0  0  0  0  0  0  0  0  0  0  0  0
   10.2522  -18.8435   19.1379 C   0  0  0  0  0  0  0  0  0  0  0  0
   11.0881  -19.6801   18.4704 N   0  0  0  0  0  0  0  0  0  0  0  0
   11.7382  -20.3657   19.4096 C   0  0  0  0  0  0  0  0  0  0  0  0
   11.3477  -19.9969   20.6380 N   0  0  0  0  0  0  0  0  0  0  0  0
    9.6568  -16.0692   22.4152 C   0  0  0  0  0  0  0  0  0  0  0  0
   10.7205  -15.4142   22.6310 O   0  0  0  0  0  0  0  0  0  0  0  0
    5.8586  -11.1684   26.8719 C   0  0  0  0  0  0  0  0  0  0  0  0
    5.7263  -12.7898   26.0508 S   0  0  0  0  0  0  0  0  0  0  0  0
    7.3958  -13.5666   25.9668 C   0  0  0  0  0  0  0  0  0  0  0  0
    7.4577  -14.4067   24.7429 C   0  0  0  0  0  0  0  0  0  0  0  0
    8.7576  -15.1301   24.5040 C   0  0  2  0  0  0  0  0  0  0  0  0
    8.6068  -15.9282   23.3407 N   0  0  0  0  0  0  0  0  0  0  0  0
    9.3342  -15.8221   25.6288 C   0  0  0  0  0  0  0  0  0  0  0  0
    9.6064  -17.0740   25.3741 O   0  0  0  0  0  0  0  0  0  0  0  0
    9.6567  -15.4132   26.9412 N   0  0  0  0  0  0  0  0  0  0  0  0
    9.2277  -14.3665   27.7924 C   0  0  0  0  0  0  0  0  0  0  0  0
   10.4250  -14.0242   28.6373 C   0  0  0  0  0  0  0  0  0  0  0  0
   11.4919  -15.0335   28.2751 C   0  0  0  0  0  0  0  0  0  0  0  0
   10.6549  -16.1641   27.7300 C   0  0  1  0  0  0  0  0  0  0  0  0
   10.0247  -16.8794   28.8507 C   0  0  0  0  0  0  0  0  0  0  0  0
    8.6693  -16.9208   29.1271 O   0  0  0  0  0  0  0  0  0  0  0  0
   10.7529  -17.5375   29.6705 O   0  0  0  0  0  0  0  0  0  0  0  0
  2  1  1  6
  2  9  1  0
  3  2  1  0
  4  3  1  0
  5  4  2  0
  6  5  1  0
  7  6  1  0
  7  8  2  0
  8  4  1  0
  9 10  2  0
 12 11  1  0
 13 12  1  0
 14 13  1  0
 15 14  1  1
 16  9  1  0
 16 15  1  0
 17 15  1  0
 18 17  2  0
 19 17  1  0
 19 23  1  0
 20 21  1  0
 20 19  1  0
 21 22  1  0
 23 22  1  0
 24 25  1  0
 23 24  1  1
 26 24  2  0
M  END
$$$$
