HMP.pdb
     RDKit          3D

 26 27  0  0  1  0  0  0  0  0999 V2000
   10.8596  -16.9391   20.4291 N   0  0  0  0  0  0  0  0  0  0  0  0
    9.8447  -17.3026   21.4057 C   0  0  1  0  0  0  0  0  0  0  0  0
    9.9559  -18.7145   21.8602 C   0  0  0  0  0  0  0  0  0  0  0  0
    9.3860  -19.5947   20.7952 C   0  0  0  0  0  0  0  0  0  0  0  0
    8.0621  -19.8969   20.5576 C   0  0  0  0  0  0  0  0  0  0  0  0
    7.9995  -20.7339   19.4900 N   0  0  0  0  0  0  0  0  0  0  0  0
    9.2608  -20.9224   19.1047 C   0  0  0  0  0  0  0  0  0  0  0  0
   10.1134  -20.2407   19.8832 N   0  0  0  0  0  0  0  0  0  0  0  0
    9.9674  -16.3809   22.5385 C   0  0  0  0  0  0  0  0  0  0  0  0
   11.0971  -16.0337   22.9970 O   0  0  0  0  0  0  0  0  0  0  0  0
    5.7071  -12.0372   27.4243 C   0  0  0  0  0  0  0  0  0  0  0  0
    7.0276  -12.2931   26.1949 S   0  0  0  0  0  0  0  0  0  0  0  0
    6.9970  -14.0462   25.6262 C   0  0  0  0  0  0  0  0  0  0  0  0
    7.6850  -14.1215   24.3114 C   0  0  0  0  0  0  0  0  0  0  0  0
    8.9302  -14.9684   24.2656 C   0  0  2  0  0  0  0  0  0  0  0  0
    8.8222  -15.8457   23.1558 N   0  0  0  0  0  0  0  0  0  0  0  0
    9.3275  -15.6094   25.4935 C   0  0  0  0  0  0  0  0  0  0  0  0
    9.3700  -16.9116   25.3999 O   0  0  0  0  0  0  0  0  0  0  0  0
    9.6743  -15.1073   26.7667 N   0  0  0  0  0  0  0  0  0  0  0  0
    9.4134  -13.9059   27.4688 C   0  0  0  0  0  0  0  0  0  0  0  0
   10.6237  -13.6793   28.3339 C   0  0  0  0  0  0  0  0  0  0  0  0
   11.5018  -14.8970   28.1479 C   0  0  0  0  0  0  0  0  0  0  0  0
   10.4927  -15.9204   27.6893 C   0  0  1  0  0  0  0  0  0  0  0  0
    9.7058  -16.3722   28.8476 C   0  0  0  0  0  0  0  0  0  0  0  0
    8.3351  -16.2504   28.9945 O   0  0  0  0  0  0  0  0  0  0  0  0
   10.2962  -16.9349   29.8326 O   0  0  0  0  0  0  0  0  0  0  0  0
  2  1  1  6
  2  9  1  0
  3  2  1  0
  4  3  1  0
  5  4  2  0
  6  5  1  0
  7  6  1  0
  7  8  2  0
  8  4  1  0
  9 10  2  0
 12 11  1  0
 13 12  1  0
 14 13  1  0
 15 14  1  1
 16  9  1  0
 16 15  1  0
 17 15  1  0
 18 17  2  0
 19 17  1  0
 19 23  1  0
 20 21  1  0
 20 19  1  0
 21 22  1  0
 23 22  1  0
 24 25  1  0
 23 24  1  1
 26 24  2  0
M  END
$$$$
