HMP.pdb
     RDKit          3D

 26 27  0  0  1  0  0  0  0  0999 V2000
   10.5533  -16.4013   20.6029 N   0  0  0  0  0  0  0  0  0  0  0  0
    9.6492  -16.9237   21.6158 C   0  0  1  0  0  0  0  0  0  0  0  0
    9.9540  -18.3288   21.9966 C   0  0  0  0  0  0  0  0  0  0  0  0
    9.3334  -19.2334   20.9815 C   0  0  0  0  0  0  0  0  0  0  0  0
    7.9943  -19.4786   20.7639 C   0  0  0  0  0  0  0  0  0  0  0  0
    7.8826  -20.3665   19.7425 N   0  0  0  0  0  0  0  0  0  0  0  0
    9.1303  -20.6403   19.3642 C   0  0  0  0  0  0  0  0  0  0  0  0
   10.0213  -19.9636   20.1030 N   0  0  0  0  0  0  0  0  0  0  0  0
    9.7301  -16.0400   22.7822 C   0  0  0  0  0  0  0  0  0  0  0  0
   10.8262  -15.5216   23.1519 O   0  0  0  0  0  0  0  0  0  0  0  0
    5.7136  -11.1664   25.8862 C   0  0  0  0  0  0  0  0  0  0  0  0
    5.4791  -12.9150   26.3421 S   0  0  0  0  0  0  0  0  0  0  0  0
    7.1115  -13.7710   26.3280 C   0  0  0  0  0  0  0  0  0  0  0  0
    7.3396  -14.3168   24.9650 C   0  0  0  0  0  0  0  0  0  0  0  0
    8.6676  -14.9914   24.7380 C   0  0  2  0  0  0  0  0  0  0  0  0
    8.5801  -15.7352   23.5329 N   0  0  0  0  0  0  0  0  0  0  0  0
    9.2253  -15.7217   25.8480 C   0  0  0  0  0  0  0  0  0  0  0  0
    9.3808  -16.9940   25.5965 O   0  0  0  0  0  0  0  0  0  0  0  0
    9.6306  -15.3322   27.1431 N   0  0  0  0  0  0  0  0  0  0  0  0
    9.2982  -14.2652   28.0124 C   0  0  0  0  0  0  0  0  0  0  0  0
   10.5505  -13.9879   28.7995 C   0  0  0  0  0  0  0  0  0  0  0  0
   11.5441  -15.0520   28.3888 C   0  0  0  0  0  0  0  0  0  0  0  0
   10.6235  -16.1359   27.8850 C   0  0  1  0  0  0  0  0  0  0  0  0
   10.0097  -16.8182   29.0351 C   0  0  0  0  0  0  0  0  0  0  0  0
    8.6689  -16.7858   29.3766 O   0  0  0  0  0  0  0  0  0  0  0  0
   10.7392  -17.5173   29.8189 O   0  0  0  0  0  0  0  0  0  0  0  0
  2  1  1  6
  2  9  1  0
  3  2  1  0
  4  3  1  0
  5  4  2  0
  6  5  1  0
  7  6  1  0
  7  8  2  0
  8  4  1  0
  9 10  2  0
 12 11  1  0
 13 12  1  0
 14 13  1  0
 15 14  1  1
 16  9  1  0
 16 15  1  0
 17 15  1  0
 18 17  2  0
 19 17  1  0
 19 23  1  0
 20 21  1  0
 20 19  1  0
 21 22  1  0
 23 22  1  0
 24 25  1  0
 23 24  1  1
 26 24  2  0
M  END
$$$$
