HMP.pdb
     RDKit          3D

 26 27  0  0  1  0  0  0  0  0999 V2000
    8.3645  -17.1295   21.2285 N   0  0  0  0  0  0  0  0  0  0  0  0
    9.7112  -16.5838   21.2967 C   0  0  1  0  0  0  0  0  0  0  0  0
   10.1128  -15.8724   20.0538 C   0  0  0  0  0  0  0  0  0  0  0  0
    9.0655  -14.8535   19.7391 C   0  0  0  0  0  0  0  0  0  0  0  0
    8.0566  -14.9297   18.8028 C   0  0  0  0  0  0  0  0  0  0  0  0
    7.3364  -13.7797   18.8557 N   0  0  0  0  0  0  0  0  0  0  0  0
    7.9081  -13.0391   19.8041 C   0  0  0  0  0  0  0  0  0  0  0  0
    8.9560  -13.6730   20.3496 N   0  0  0  0  0  0  0  0  0  0  0  0
    9.7682  -15.6839   22.4520 C   0  0  0  0  0  0  0  0  0  0  0  0
   10.8021  -14.9986   22.7137 O   0  0  0  0  0  0  0  0  0  0  0  0
    5.7361  -11.4574   27.5741 C   0  0  0  0  0  0  0  0  0  0  0  0
    5.7018  -12.7739   26.3146 S   0  0  0  0  0  0  0  0  0  0  0  0
    7.3794  -13.5246   26.1743 C   0  0  0  0  0  0  0  0  0  0  0  0
    7.4739  -14.2119   24.8604 C   0  0  0  0  0  0  0  0  0  0  0  0
    8.7854  -14.8917   24.5639 C   0  0  2  0  0  0  0  0  0  0  0  0
    8.6639  -15.5503   23.3131 N   0  0  0  0  0  0  0  0  0  0  0  0
    9.3490  -15.7048   25.6115 C   0  0  0  0  0  0  0  0  0  0  0  0
    9.6459  -16.9140   25.2165 O   0  0  0  0  0  0  0  0  0  0  0  0
    9.6377  -15.4506   26.9700 N   0  0  0  0  0  0  0  0  0  0  0  0
    9.1392  -14.5512   27.9431 C   0  0  0  0  0  0  0  0  0  0  0  0
   10.3079  -14.2489   28.8417 C   0  0  0  0  0  0  0  0  0  0  0  0
   11.4377  -15.1358   28.3673 C   0  0  0  0  0  0  0  0  0  0  0  0
   10.6760  -16.2351   27.6692 C   0  0  1  0  0  0  0  0  0  0  0  0
   10.0850  -17.1268   28.6794 C   0  0  0  0  0  0  0  0  0  0  0  0
   10.7824  -17.9839   29.5125 O   0  0  0  0  0  0  0  0  0  0  0  0
    8.8165  -17.1471   28.8405 O   0  0  0  0  0  0  0  0  0  0  0  0
  2  1  1  6
  2  9  1  0
  3  2  1  0
  4  3  1  0
  5  4  2  0
  6  5  1  0
  7  6  1  0
  7  8  2  0
  8  4  1  0
  9 10  2  0
 12 11  1  0
 13 12  1  0
 14 13  1  0
 15 14  1  1
 16  9  1  0
 16 15  1  0
 17 15  1  0
 18 17  2  0
 19 17  1  0
 19 23  1  0
 20 21  1  0
 20 19  1  0
 21 22  1  0
 23 22  1  0
 24 25  1  0
 23 24  1  1
 26 24  2  0
M  END
$$$$
