HMP.pdb
     RDKit          3D

 26 27  0  0  1  0  0  0  0  0999 V2000
   10.2434  -16.2278   20.4358 N   0  0  0  0  0  0  0  0  0  0  0  0
    9.5556  -16.8815   21.5384 C   0  0  1  0  0  0  0  0  0  0  0  0
   10.1083  -18.2264   21.8516 C   0  0  0  0  0  0  0  0  0  0  0  0
    9.6654  -19.1740   20.7840 C   0  0  0  0  0  0  0  0  0  0  0  0
    8.4057  -19.6934   20.5746 C   0  0  0  0  0  0  0  0  0  0  0  0
    8.4552  -20.5120   19.4923 N   0  0  0  0  0  0  0  0  0  0  0  0
    9.7185  -20.4771   19.0707 C   0  0  0  0  0  0  0  0  0  0  0  0
   10.4652  -19.6725   19.8405 N   0  0  0  0  0  0  0  0  0  0  0  0
    9.6454  -15.9983   22.7045 C   0  0  0  0  0  0  0  0  0  0  0  0
   10.7501  -15.5077   23.0865 O   0  0  0  0  0  0  0  0  0  0  0  0
    5.7587  -11.0723   25.9926 C   0  0  0  0  0  0  0  0  0  0  0  0
    5.4680  -12.8383   26.3352 S   0  0  0  0  0  0  0  0  0  0  0  0
    7.0766  -13.7375   26.2980 C   0  0  0  0  0  0  0  0  0  0  0  0
    7.2597  -14.3088   24.9387 C   0  0  0  0  0  0  0  0  0  0  0  0
    8.5908  -14.9618   24.6710 C   0  0  2  0  0  0  0  0  0  0  0  0
    8.4950  -15.6628   23.4412 N   0  0  0  0  0  0  0  0  0  0  0  0
    9.1698  -15.7256   25.7470 C   0  0  0  0  0  0  0  0  0  0  0  0
    9.3561  -16.9815   25.4399 O   0  0  0  0  0  0  0  0  0  0  0  0
    9.5688  -15.3831   27.0572 N   0  0  0  0  0  0  0  0  0  0  0  0
    9.2499  -14.3349   27.9539 C   0  0  0  0  0  0  0  0  0  0  0  0
   10.4991  -14.1083   28.7620 C   0  0  0  0  0  0  0  0  0  0  0  0
   11.4739  -15.1815   28.3307 C   0  0  0  0  0  0  0  0  0  0  0  0
   10.5358  -16.2297   27.7856 C   0  0  1  0  0  0  0  0  0  0  0  0
    9.8946  -16.9317   28.9085 C   0  0  0  0  0  0  0  0  0  0  0  0
   10.5166  -17.8121   29.7764 O   0  0  0  0  0  0  0  0  0  0  0  0
    8.6520  -16.7436   29.1453 O   0  0  0  0  0  0  0  0  0  0  0  0
  2  1  1  6
  2  9  1  0
  3  2  1  0
  4  3  1  0
  5  4  2  0
  6  5  1  0
  7  6  1  0
  7  8  2  0
  8  4  1  0
  9 10  2  0
 12 11  1  0
 13 12  1  0
 14 13  1  0
 15 14  1  1
 16  9  1  0
 16 15  1  0
 17 15  1  0
 18 17  2  0
 19 17  1  0
 19 23  1  0
 20 21  1  0
 20 19  1  0
 21 22  1  0
 23 22  1  0
 24 25  1  0
 23 24  1  1
 26 24  2  0
M  END
$$$$
