HMP.pdb
     RDKit          3D

 26 27  0  0  1  0  0  0  0  0999 V2000
    6.2474  -16.0129   20.7858 N   0  0  0  0  0  0  0  0  0  0  0  0
    7.5660  -16.3191   21.3183 C   0  0  1  0  0  0  0  0  0  0  0  0
    8.6539  -16.1212   20.3236 C   0  0  0  0  0  0  0  0  0  0  0  0
    8.3151  -14.9266   19.4917 C   0  0  0  0  0  0  0  0  0  0  0  0
    7.2900  -14.0234   19.6752 C   0  0  0  0  0  0  0  0  0  0  0  0
    7.3542  -13.0966   18.6847 N   0  0  0  0  0  0  0  0  0  0  0  0
    8.3962  -13.4451   17.9313 C   0  0  0  0  0  0  0  0  0  0  0  0
    8.9897  -14.5503   18.4046 N   0  0  0  0  0  0  0  0  0  0  0  0
    7.7777  -15.4721   22.4954 C   0  0  0  0  0  0  0  0  0  0  0  0
    7.4285  -14.2536   22.5122 O   0  0  0  0  0  0  0  0  0  0  0  0
    6.9944  -11.2294   26.3119 C   0  0  0  0  0  0  0  0  0  0  0  0
    5.9679  -12.7276   26.4611 S   0  0  0  0  0  0  0  0  0  0  0  0
    7.0628  -14.1982   26.6511 C   0  0  0  0  0  0  0  0  0  0  0  0
    7.1300  -14.9010   25.3437 C   0  0  0  0  0  0  0  0  0  0  0  0
    8.5126  -15.2053   24.8283 C   0  0  2  0  0  0  0  0  0  0  0  0
    8.3790  -15.9928   23.6557 N   0  0  0  0  0  0  0  0  0  0  0  0
    9.4654  -15.7154   25.7814 C   0  0  0  0  0  0  0  0  0  0  0  0
   10.2840  -16.5933   25.2661 O   0  0  0  0  0  0  0  0  0  0  0  0
    9.6821  -15.4540   27.1518 N   0  0  0  0  0  0  0  0  0  0  0  0
    9.0162  -14.6855   28.1369 C   0  0  0  0  0  0  0  0  0  0  0  0
   10.0978  -14.2079   29.0678 C   0  0  0  0  0  0  0  0  0  0  0  0
   11.3746  -14.8673   28.5950 C   0  0  0  0  0  0  0  0  0  0  0  0
   10.8311  -16.0629   27.8527 C   0  0  1  0  0  0  0  0  0  0  0  0
   10.3906  -17.0740   28.8266 C   0  0  0  0  0  0  0  0  0  0  0  0
   11.2166  -17.8399   29.6306 O   0  0  0  0  0  0  0  0  0  0  0  0
    9.1417  -17.3014   28.9812 O   0  0  0  0  0  0  0  0  0  0  0  0
  2  1  1  6
  2  9  1  0
  3  2  1  0
  4  3  1  0
  5  4  2  0
  6  5  1  0
  7  6  1  0
  7  8  2  0
  8  4  1  0
  9 10  2  0
 12 11  1  0
 13 12  1  0
 14 13  1  0
 15 14  1  1
 16  9  1  0
 16 15  1  0
 17 15  1  0
 18 17  2  0
 19 17  1  0
 19 23  1  0
 20 21  1  0
 20 19  1  0
 21 22  1  0
 23 22  1  0
 24 25  1  0
 23 24  1  1
 26 24  2  0
M  END
$$$$
