HSY.pdb
     RDKit          3D

 29 30  0  0  1  0  0  0  0  0999 V2000
   23.6046  -12.1623  -18.5313 N   0  0  0  0  0  0  0  0  0  0  0  0
   23.4683  -11.7053  -17.1611 C   0  0  1  0  0  0  0  0  0  0  0  0
   24.8808  -11.3145  -16.7080 C   0  0  0  0  0  0  0  0  0  0  0  0
   25.6612  -12.5560  -16.5252 C   0  0  0  0  0  0  0  0  0  0  0  0
   26.6890  -12.9788  -17.3650 C   0  0  0  0  0  0  0  0  0  0  0  0
   27.1600  -14.1446  -16.8834 N   0  0  0  0  0  0  0  0  0  0  0  0
   26.4752  -14.4734  -15.7797 C   0  0  0  0  0  0  0  0  0  0  0  0
   25.5655  -13.4984  -15.5719 N   0  0  0  0  0  0  0  0  0  0  0  0
   22.6522  -10.4721  -17.0695 C   0  0  0  0  0  0  0  0  0  0  0  0
   22.9242   -9.5174  -17.8372 O   0  0  0  0  0  0  0  0  0  0  0  0
   19.1951  -10.4993  -15.0274 O   0  0  0  0  0  0  0  0  0  0  0  0
   19.2759   -9.6035  -16.0843 C   0  0  0  0  0  0  0  0  0  0  0  0
   20.7255   -9.1294  -16.1408 C   0  0  2  0  0  0  0  0  0  0  0  0
   21.5769  -10.3088  -16.1598 N   0  0  0  0  0  0  0  0  0  0  0  0
   20.9855   -8.4282  -14.8580 C   0  0  0  0  0  0  0  0  0  0  0  0
   21.7531   -8.8879  -13.9705 O   0  0  0  0  0  0  0  0  0  0  0  0
   22.6012   -1.8149  -17.3584 O   0  0  0  0  0  0  0  0  0  0  0  0
   22.4791   -2.8366  -16.4286 C   0  0  0  0  0  0  0  0  0  0  0  0
   22.8258   -4.1249  -16.7849 C   0  0  0  0  0  0  0  0  0  0  0  0
   22.6890   -5.1251  -15.8218 C   0  0  0  0  0  0  0  0  0  0  0  0
   22.2266   -4.8527  -14.5581 C   0  0  0  0  0  0  0  0  0  0  0  0
   22.0996   -5.9418  -13.5845 C   0  0  0  0  0  0  0  0  0  0  0  0
   20.6949   -6.4392  -13.3781 C   0  0  2  0  0  0  0  0  0  0  0  0
   20.3589   -7.1935  -14.5974 N   0  0  0  0  0  0  0  0  0  0  0  0
   19.6886   -5.3639  -13.2715 C   0  0  0  0  0  0  0  0  0  0  0  0
   18.9995   -5.0812  -14.2839 O   0  0  0  0  0  0  0  0  0  0  0  0
   21.8944   -3.5490  -14.2543 C   0  0  0  0  0  0  0  0  0  0  0  0
   22.0110   -2.5228  -15.1699 C   0  0  0  0  0  0  0  0  0  0  0  0
   19.4364   -4.6256  -12.1242 O   0  0  0  0  0  0  0  0  0  0  0  0
  2  1  1  6
  2  3  1  0
  4  3  1  0
  4  8  1  0
  5  6  1  0
  5  4  2  0
  6  7  1  0
  7  8  2  0
  9  2  1  0
 10  9  2  0
 11 12  1  0
 13 12  1  1
 13 14  1  0
 14  9  1  0
 15 13  1  0
 15 24  1  0
 16 15  2  0
 18 17  1  0
 19 18  2  0
 20 19  1  0
 21 27  1  0
 21 20  2  0
 22 21  1  0
 23 22  1  6
 23 24  1  0
 23 25  1  0
 25 29  1  0
 26 25  2  0
 27 28  2  0
 28 18  1  0
M  END
$$$$
