HSY.pdb
     RDKit          3D

 29 30  0  0  1  0  0  0  0  0999 V2000
   20.3759  -13.3316  -17.4076 N   0  0  0  0  0  0  0  0  0  0  0  0
   20.6242  -11.9188  -17.6248 C   0  0  1  0  0  0  0  0  0  0  0  0
   19.2816  -11.3207  -18.0640 C   0  0  0  0  0  0  0  0  0  0  0  0
   18.9922  -11.8031  -19.4304 C   0  0  0  0  0  0  0  0  0  0  0  0
   17.7525  -12.2691  -19.8622 C   0  0  0  0  0  0  0  0  0  0  0  0
   17.8730  -12.6185  -21.1569 N   0  0  0  0  0  0  0  0  0  0  0  0
   19.1313  -12.3933  -21.5581 C   0  0  0  0  0  0  0  0  0  0  0  0
   19.8031  -11.8969  -20.4981 N   0  0  0  0  0  0  0  0  0  0  0  0
   20.9918  -11.2239  -16.3690 C   0  0  0  0  0  0  0  0  0  0  0  0
   20.3260  -11.4689  -15.3338 O   0  0  0  0  0  0  0  0  0  0  0  0
   24.4304   -9.3053  -16.0915 O   0  0  0  0  0  0  0  0  0  0  0  0
   23.8631   -9.5674  -14.8523 C   0  0  0  0  0  0  0  0  0  0  0  0
   22.3506   -9.5489  -15.0554 C   0  0  2  0  0  0  0  0  0  0  0  0
   22.0575  -10.2938  -16.2700 N   0  0  0  0  0  0  0  0  0  0  0  0
   21.9817   -8.1342  -15.3153 C   0  0  0  0  0  0  0  0  0  0  0  0
   21.9841   -7.6276  -16.4692 O   0  0  0  0  0  0  0  0  0  0  0  0
   17.1501   -6.7908   -9.7010 O   0  0  0  0  0  0  0  0  0  0  0  0
   17.8029   -6.5461  -10.9000 C   0  0  0  0  0  0  0  0  0  0  0  0
   18.2412   -5.2683  -11.1868 C   0  0  0  0  0  0  0  0  0  0  0  0
   18.8935   -5.0623  -12.4028 C   0  0  0  0  0  0  0  0  0  0  0  0
   19.1000   -6.0858  -13.2942 C   0  0  0  0  0  0  0  0  0  0  0  0
   19.7893   -5.8142  -14.5597 C   0  0  0  0  0  0  0  0  0  0  0  0
   21.2902   -5.8840  -14.4851 C   0  0  2  0  0  0  0  0  0  0  0  0
   21.6090   -7.3010  -14.2420 N   0  0  0  0  0  0  0  0  0  0  0  0
   21.8688   -5.1341  -13.3524 C   0  0  0  0  0  0  0  0  0  0  0  0
   22.3709   -5.7783  -12.3970 O   0  0  0  0  0  0  0  0  0  0  0  0
   18.6422   -7.3428  -12.9585 C   0  0  0  0  0  0  0  0  0  0  0  0
   17.9912   -7.6002  -11.7690 C   0  0  0  0  0  0  0  0  0  0  0  0
   21.9046   -3.7506  -13.2537 O   0  0  0  0  0  0  0  0  0  0  0  0
  2  1  1  1
  2  3  1  0
  4  3  1  0
  4  8  1  0
  5  6  1  0
  5  4  2  0
  6  7  1  0
  7  8  2  0
  9  2  1  0
 10  9  2  0
 11 12  1  0
 13 12  1  6
 13 14  1  0
 14  9  1  0
 15 13  1  0
 15 24  1  0
 16 15  2  0
 18 17  1  0
 19 18  2  0
 20 19  1  0
 21 27  1  0
 21 20  2  0
 22 21  1  0
 23 22  1  1
 23 24  1  0
 23 25  1  0
 25 29  1  0
 26 25  2  0
 27 28  2  0
 28 18  1  0
M  END
$$$$
