HSY.pdb
     RDKit          3D

 29 30  0  0  1  0  0  0  0  0999 V2000
   16.7090  -11.8076  -16.7658 N   0  0  0  0  0  0  0  0  0  0  0  0
   17.8798  -11.3457  -16.0441 C   0  0  1  0  0  0  0  0  0  0  0  0
   19.0833  -11.9929  -16.7412 C   0  0  0  0  0  0  0  0  0  0  0  0
   19.0365  -13.4461  -16.4770 C   0  0  0  0  0  0  0  0  0  0  0  0
   19.0304  -14.4323  -17.4607 C   0  0  0  0  0  0  0  0  0  0  0  0
   18.9831  -15.6280  -16.8437 N   0  0  0  0  0  0  0  0  0  0  0  0
   18.9591  -15.4382  -15.5176 C   0  0  0  0  0  0  0  0  0  0  0  0
   18.9920  -14.1056  -15.3068 N   0  0  0  0  0  0  0  0  0  0  0  0
   18.0674   -9.8820  -16.1763 C   0  0  0  0  0  0  0  0  0  0  0  0
   18.1145   -9.3874  -17.3287 O   0  0  0  0  0  0  0  0  0  0  0  0
   16.5824   -7.5322  -13.7710 O   0  0  0  0  0  0  0  0  0  0  0  0
   17.1152   -6.8636  -14.8643 C   0  0  0  0  0  0  0  0  0  0  0  0
   18.4199   -7.5742  -15.2133 C   0  0  2  0  0  0  0  0  0  0  0  0
   18.1974   -9.0046  -15.0700 N   0  0  0  0  0  0  0  0  0  0  0  0
   19.4008   -7.1819  -14.1698 C   0  0  0  0  0  0  0  0  0  0  0  0
   19.6717   -7.9098  -13.1773 O   0  0  0  0  0  0  0  0  0  0  0  0
   24.3403   -6.0812  -18.9101 O   0  0  0  0  0  0  0  0  0  0  0  0
   23.8321   -6.2122  -17.6263 C   0  0  0  0  0  0  0  0  0  0  0  0
   24.3081   -5.3948  -16.6202 C   0  0  0  0  0  0  0  0  0  0  0  0
   23.7719   -5.5571  -15.3423 C   0  0  0  0  0  0  0  0  0  0  0  0
   22.8032   -6.4936  -15.0790 C   0  0  0  0  0  0  0  0  0  0  0  0
   22.2754   -6.6244  -13.7171 C   0  0  0  0  0  0  0  0  0  0  0  0
   21.1925   -5.6409  -13.3660 C   0  0  2  0  0  0  0  0  0  0  0  0
   20.0715   -5.9469  -14.2706 N   0  0  0  0  0  0  0  0  0  0  0  0
   21.5552   -4.2333  -13.6252 C   0  0  0  0  0  0  0  0  0  0  0  0
   22.4615   -3.7071  -12.9313 O   0  0  0  0  0  0  0  0  0  0  0  0
   22.3631   -7.2843  -16.1198 C   0  0  0  0  0  0  0  0  0  0  0  0
   22.8602   -7.1645  -17.4019 C   0  0  0  0  0  0  0  0  0  0  0  0
   20.9669   -3.4282  -14.5899 O   0  0  0  0  0  0  0  0  0  0  0  0
  2  1  1  6
  2  3  1  0
  4  3  1  0
  4  8  1  0
  5  6  1  0
  5  4  2  0
  6  7  1  0
  7  8  2  0
  9  2  1  0
 10  9  2  0
 11 12  1  0
 13 12  1  1
 13 14  1  0
 14  9  1  0
 15 13  1  0
 15 24  1  0
 16 15  2  0
 18 17  1  0
 19 18  2  0
 20 19  1  0
 21 27  1  0
 21 20  2  0
 22 21  1  0
 23 22  1  6
 23 24  1  0
 23 25  1  0
 25 29  1  0
 26 25  2  0
 27 28  2  0
 28 18  1  0
M  END
$$$$
