HSY.pdb
     RDKit          3D

 29 30  0  0  1  0  0  0  0  0999 V2000
   31.2721  -25.1888  -16.9895 N   0  0  0  0  0  0  0  0  0  0  0  0
   29.8650  -25.0566  -17.3173 C   0  0  1  0  0  0  0  0  0  0  0  0
   29.1399  -26.1236  -16.4871 C   0  0  0  0  0  0  0  0  0  0  0  0
   28.8490  -27.2706  -17.3721 C   0  0  0  0  0  0  0  0  0  0  0  0
   29.4878  -28.5068  -17.3059 C   0  0  0  0  0  0  0  0  0  0  0  0
   28.9611  -29.2934  -18.2633 N   0  0  0  0  0  0  0  0  0  0  0  0
   28.0208  -28.6081  -18.9278 C   0  0  0  0  0  0  0  0  0  0  0  0
   27.9619  -27.3779  -18.3760 N   0  0  0  0  0  0  0  0  0  0  0  0
   29.3164  -23.7523  -16.8782 C   0  0  0  0  0  0  0  0  0  0  0  0
   29.5400  -23.3756  -15.7022 O   0  0  0  0  0  0  0  0  0  0  0  0
   29.4469  -20.1591  -18.4642 O   0  0  0  0  0  0  0  0  0  0  0  0
   28.1488  -20.6498  -18.4661 C   0  0  0  0  0  0  0  0  0  0  0  0
   28.0457  -21.6077  -17.2824 C   0  0  2  0  0  0  0  0  0  0  0  0
   28.5499  -22.9019  -17.7148 N   0  0  0  0  0  0  0  0  0  0  0  0
   26.5963  -21.7772  -17.0078 C   0  0  0  0  0  0  0  0  0  0  0  0
   25.8947  -22.6662  -17.5607 O   0  0  0  0  0  0  0  0  0  0  0  0
   18.8669  -20.0261  -13.0217 O   0  0  0  0  0  0  0  0  0  0  0  0
   20.2012  -20.1230  -13.3875 C   0  0  0  0  0  0  0  0  0  0  0  0
   20.9090  -21.2681  -13.0795 C   0  0  0  0  0  0  0  0  0  0  0  0
   22.2488  -21.3275  -13.4643 C   0  0  0  0  0  0  0  0  0  0  0  0
   22.8567  -20.2903  -14.1273 C   0  0  0  0  0  0  0  0  0  0  0  0
   24.2686  -20.4035  -14.5067 C   0  0  0  0  0  0  0  0  0  0  0  0
   24.5107  -21.0633  -15.8368 C   0  0  2  0  0  0  0  0  0  0  0  0
   25.9537  -20.9196  -16.0931 N   0  0  0  0  0  0  0  0  0  0  0  0
   23.8266  -20.4024  -16.9662 C   0  0  0  0  0  0  0  0  0  0  0  0
   24.3890  -19.4261  -17.5232 O   0  0  0  0  0  0  0  0  0  0  0  0
   22.1042  -19.1696  -14.4104 C   0  0  0  0  0  0  0  0  0  0  0  0
   20.7758  -19.0601  -14.0522 C   0  0  0  0  0  0  0  0  0  0  0  0
   22.5905  -20.7774  -17.4728 O   0  0  0  0  0  0  0  0  0  0  0  0
  2  1  1  1
  2  3  1  0
  4  3  1  0
  4  8  1  0
  5  6  1  0
  5  4  2  0
  6  7  1  0
  7  8  2  0
  9  2  1  0
 10  9  2  0
 11 12  1  0
 13 12  1  6
 13 14  1  0
 14  9  1  0
 15 13  1  0
 15 24  1  0
 16 15  2  0
 18 17  1  0
 19 18  2  0
 20 19  1  0
 21 27  1  0
 21 20  2  0
 22 21  1  0
 23 22  1  1
 23 24  1  0
 23 25  1  0
 25 29  1  0
 26 25  2  0
 27 28  2  0
 28 18  1  0
M  END
$$$$
