HSY.pdb
     RDKit          3D

 29 30  0  0  1  0  0  0  0  0999 V2000
   20.9988  -17.6531  -16.1352 N   0  0  0  0  0  0  0  0  0  0  0  0
   22.4142  -17.6404  -15.8167 C   0  0  1  0  0  0  0  0  0  0  0  0
   22.6828  -16.2809  -15.1587 C   0  0  0  0  0  0  0  0  0  0  0  0
   22.6921  -15.2538  -16.2210 C   0  0  0  0  0  0  0  0  0  0  0  0
   22.0320  -14.0293  -16.1474 C   0  0  0  0  0  0  0  0  0  0  0  0
   22.2686  -13.3653  -17.2945 N   0  0  0  0  0  0  0  0  0  0  0  0
   23.0470  -14.1163  -18.0852 C   0  0  0  0  0  0  0  0  0  0  0  0
   23.2981  -15.2637  -17.4205 N   0  0  0  0  0  0  0  0  0  0  0  0
   22.7604  -18.6629  -14.8019 C   0  0  0  0  0  0  0  0  0  0  0  0
   22.0053  -18.7985  -13.8088 O   0  0  0  0  0  0  0  0  0  0  0  0
   26.1636  -20.9973  -15.0897 O   0  0  0  0  0  0  0  0  0  0  0  0
   24.9956  -21.6366  -14.6983 C   0  0  0  0  0  0  0  0  0  0  0  0
   24.1558  -20.5943  -13.9651 C   0  0  2  0  0  0  0  0  0  0  0  0
   23.9013  -19.5003  -14.8896 N   0  0  0  0  0  0  0  0  0  0  0  0
   25.0145  -20.0541  -12.8808 C   0  0  0  0  0  0  0  0  0  0  0  0
   25.4337  -18.8657  -12.8681 O   0  0  0  0  0  0  0  0  0  0  0  0
   28.5821  -18.9921   -4.9891 O   0  0  0  0  0  0  0  0  0  0  0  0
   27.8323  -19.2598   -6.1246 C   0  0  0  0  0  0  0  0  0  0  0  0
   27.5650  -20.5701   -6.4694 C   0  0  0  0  0  0  0  0  0  0  0  0
   26.8074  -20.7985   -7.6186 C   0  0  0  0  0  0  0  0  0  0  0  0
   26.3367  -19.7654   -8.3906 C   0  0  0  0  0  0  0  0  0  0  0  0
   25.5471  -20.0612   -9.5903 C   0  0  0  0  0  0  0  0  0  0  0  0
   26.3600  -20.4066  -10.8081 C   0  0  2  0  0  0  0  0  0  0  0  0
   25.3910  -20.8861  -11.8079 N   0  0  0  0  0  0  0  0  0  0  0  0
   27.3129  -21.5146  -10.5972 C   0  0  0  0  0  0  0  0  0  0  0  0
   26.8776  -22.6937  -10.6070 O   0  0  0  0  0  0  0  0  0  0  0  0
   26.6324  -18.4756   -8.0015 C   0  0  0  0  0  0  0  0  0  0  0  0
   27.3775  -18.1952   -6.8739 C   0  0  0  0  0  0  0  0  0  0  0  0
   28.6751  -21.3586  -10.3849 O   0  0  0  0  0  0  0  0  0  0  0  0
  2  1  1  1
  2  3  1  0
  4  3  1  0
  4  8  1  0
  5  6  1  0
  5  4  2  0
  6  7  1  0
  7  8  2  0
  9  2  1  0
 10  9  2  0
 11 12  1  0
 13 12  1  6
 13 14  1  0
 14  9  1  0
 15 13  1  0
 15 24  1  0
 16 15  2  0
 18 17  1  0
 19 18  2  0
 20 19  1  0
 21 27  1  0
 21 20  2  0
 22 21  1  0
 23 22  1  1
 23 24  1  0
 23 25  1  0
 25 29  1  0
 26 25  2  0
 27 28  2  0
 28 18  1  0
M  END
$$$$
