HSY.pdb
     RDKit          3D

 29 30  0  0  1  0  0  0  0  0999 V2000
   29.4663  -22.5700  -16.5508 N   0  0  0  0  0  0  0  0  0  0  0  0
   28.0753  -22.8704  -16.8335 C   0  0  1  0  0  0  0  0  0  0  0  0
   27.8628  -24.3236  -16.3904 C   0  0  0  0  0  0  0  0  0  0  0  0
   28.6114  -25.1975  -17.3175 C   0  0  0  0  0  0  0  0  0  0  0  0
   28.1694  -25.5764  -18.5831 C   0  0  0  0  0  0  0  0  0  0  0  0
   29.1118  -26.3690  -19.1273 N   0  0  0  0  0  0  0  0  0  0  0  0
   30.1255  -26.5054  -18.2619 C   0  0  0  0  0  0  0  0  0  0  0  0
   29.8091  -25.7875  -17.1638 N   0  0  0  0  0  0  0  0  0  0  0  0
   27.1556  -22.0516  -16.0096 C   0  0  0  0  0  0  0  0  0  0  0  0
   27.2106  -22.1653  -14.7610 O   0  0  0  0  0  0  0  0  0  0  0  0
   24.6590  -19.5382  -17.8280 O   0  0  0  0  0  0  0  0  0  0  0  0
   24.9724  -19.0794  -16.5563 C   0  0  0  0  0  0  0  0  0  0  0  0
   25.3499  -20.3079  -15.7332 C   0  0  2  0  0  0  0  0  0  0  0  0
   26.2129  -21.1431  -16.5541 N   0  0  0  0  0  0  0  0  0  0  0  0
   24.0924  -21.0670  -15.5156 C   0  0  0  0  0  0  0  0  0  0  0  0
   23.6734  -21.9417  -16.3203 O   0  0  0  0  0  0  0  0  0  0  0  0
   17.1440  -24.0573  -10.9181 O   0  0  0  0  0  0  0  0  0  0  0  0
   18.3269  -23.4727  -11.3453 C   0  0  0  0  0  0  0  0  0  0  0  0
   18.4694  -22.1007  -11.2796 C   0  0  0  0  0  0  0  0  0  0  0  0
   19.6740  -21.5504  -11.7187 C   0  0  0  0  0  0  0  0  0  0  0  0
   20.6924  -22.3339  -12.2022 C   0  0  0  0  0  0  0  0  0  0  0  0
   21.9374  -21.7039  -12.6532 C   0  0  0  0  0  0  0  0  0  0  0  0
   22.0659  -21.5640  -14.1456 C   0  0  2  0  0  0  0  0  0  0  0  0
   23.3156  -20.8171  -14.3670 N   0  0  0  0  0  0  0  0  0  0  0  0
   20.9935  -20.7607  -14.7660 C   0  0  0  0  0  0  0  0  0  0  0  0
   20.0055  -21.3570  -15.2640 O   0  0  0  0  0  0  0  0  0  0  0  0
   20.4981  -23.6987  -12.2463 C   0  0  0  0  0  0  0  0  0  0  0  0
   19.3261  -24.2934  -11.8244 C   0  0  0  0  0  0  0  0  0  0  0  0
   20.9863  -19.3756  -14.8461 O   0  0  0  0  0  0  0  0  0  0  0  0
  2  1  1  1
  2  3  1  0
  4  3  1  0
  4  8  1  0
  5  6  1  0
  5  4  2  0
  6  7  1  0
  7  8  2  0
  9  2  1  0
 10  9  2  0
 11 12  1  0
 13 12  1  6
 13 14  1  0
 14  9  1  0
 15 13  1  0
 15 24  1  0
 16 15  2  0
 18 17  1  0
 19 18  2  0
 20 19  1  0
 21 27  1  0
 21 20  2  0
 22 21  1  0
 23 22  1  1
 23 24  1  0
 23 25  1  0
 25 29  1  0
 26 25  2  0
 27 28  2  0
 28 18  1  0
M  END
$$$$
