HSY.pdb
     RDKit          3D

 29 30  0  0  1  0  0  0  0  0999 V2000
   23.9029  -16.2642  -20.9450 N   0  0  0  0  0  0  0  0  0  0  0  0
   22.9798  -17.3397  -20.6349 C   0  0  1  0  0  0  0  0  0  0  0  0
   23.6706  -18.6297  -21.0956 C   0  0  0  0  0  0  0  0  0  0  0  0
   23.6866  -18.6361  -22.5731 C   0  0  0  0  0  0  0  0  0  0  0  0
   22.6839  -19.1752  -23.3759 C   0  0  0  0  0  0  0  0  0  0  0  0
   23.0454  -18.9967  -24.6605 N   0  0  0  0  0  0  0  0  0  0  0  0
   24.2290  -18.3702  -24.7016 C   0  0  0  0  0  0  0  0  0  0  0  0
   24.6092  -18.1560  -23.4244 N   0  0  0  0  0  0  0  0  0  0  0  0
   22.7718  -17.4845  -19.1751 C   0  0  0  0  0  0  0  0  0  0  0  0
   23.7490  -17.2953  -18.4108 O   0  0  0  0  0  0  0  0  0  0  0  0
   19.5039  -16.5278  -17.7781 O   0  0  0  0  0  0  0  0  0  0  0  0
   20.4511  -16.6680  -16.7735 C   0  0  0  0  0  0  0  0  0  0  0  0
   21.3101  -17.8712  -17.1524 C   0  0  2  0  0  0  0  0  0  0  0  0
   21.5261  -17.8260  -18.5903 N   0  0  0  0  0  0  0  0  0  0  0  0
   20.4867  -19.0755  -16.8758 C   0  0  0  0  0  0  0  0  0  0  0  0
   19.7651  -19.6263  -17.7499 O   0  0  0  0  0  0  0  0  0  0  0  0
   20.2180  -18.8555   -9.2237 O   0  0  0  0  0  0  0  0  0  0  0  0
   20.2413  -19.5149  -10.4436 C   0  0  0  0  0  0  0  0  0  0  0  0
   21.3241  -19.3504  -11.2846 C   0  0  0  0  0  0  0  0  0  0  0  0
   21.3105  -20.0304  -12.5029 C   0  0  0  0  0  0  0  0  0  0  0  0
   20.2627  -20.8395  -12.8668 C   0  0  0  0  0  0  0  0  0  0  0  0
   20.2977  -21.5296  -14.1602 C   0  0  0  0  0  0  0  0  0  0  0  0
   19.6216  -20.7925  -15.2839 C   0  0  2  0  0  0  0  0  0  0  0  0
   20.4951  -19.6465  -15.5878 N   0  0  0  0  0  0  0  0  0  0  0  0
   18.3089  -20.2219  -14.9212 C   0  0  0  0  0  0  0  0  0  0  0  0
   18.2332  -18.9907  -14.6797 O   0  0  0  0  0  0  0  0  0  0  0  0
   19.2060  -20.9690  -11.9898 C   0  0  0  0  0  0  0  0  0  0  0  0
   19.1701  -20.3185  -10.7730 C   0  0  0  0  0  0  0  0  0  0  0  0
   17.1297  -20.9464  -14.8231 O   0  0  0  0  0  0  0  0  0  0  0  0
  2  1  1  1
  2  3  1  0
  4  3  1  0
  4  8  1  0
  5  6  1  0
  5  4  2  0
  6  7  1  0
  7  8  2  0
  9  2  1  0
 10  9  2  0
 11 12  1  0
 13 12  1  6
 13 14  1  0
 14  9  1  0
 15 13  1  0
 15 24  1  0
 16 15  2  0
 18 17  1  0
 19 18  2  0
 20 19  1  0
 21 27  1  0
 21 20  2  0
 22 21  1  0
 23 22  1  1
 23 24  1  0
 23 25  1  0
 25 29  1  0
 26 25  2  0
 27 28  2  0
 28 18  1  0
M  END
$$$$
