HSY.pdb
     RDKit          3D

 29 30  0  0  1  0  0  0  0  0999 V2000
   25.9804  -10.7519  -21.1667 N   0  0  0  0  0  0  0  0  0  0  0  0
   24.7813   -9.9397  -21.0820 C   0  0  1  0  0  0  0  0  0  0  0  0
   23.7052  -10.8450  -20.4691 C   0  0  0  0  0  0  0  0  0  0  0  0
   23.3769  -11.8955  -21.4552 C   0  0  0  0  0  0  0  0  0  0  0  0
   22.9694  -11.6554  -22.7654 C   0  0  0  0  0  0  0  0  0  0  0  0
   22.7627  -12.8473  -23.3565 N   0  0  0  0  0  0  0  0  0  0  0  0
   23.0218  -13.8250  -22.4779 C   0  0  0  0  0  0  0  0  0  0  0  0
   23.3948  -13.2329  -21.3239 N   0  0  0  0  0  0  0  0  0  0  0  0
   24.9479   -8.8064  -20.1422 C   0  0  0  0  0  0  0  0  0  0  0  0
   25.5065   -9.0220  -19.0394 O   0  0  0  0  0  0  0  0  0  0  0  0
   23.0642   -5.3098  -20.8283 O   0  0  0  0  0  0  0  0  0  0  0  0
   24.2795   -5.1006  -20.1916 C   0  0  0  0  0  0  0  0  0  0  0  0
   24.6147   -6.3977  -19.4605 C   0  0  2  0  0  0  0  0  0  0  0  0
   24.5101   -7.4865  -20.4195 N   0  0  0  0  0  0  0  0  0  0  0  0
   23.5399   -6.6004  -18.4562 C   0  0  0  0  0  0  0  0  0  0  0  0
   22.7642   -7.5935  -18.4753 O   0  0  0  0  0  0  0  0  0  0  0  0
   19.2481   -8.5371  -11.4873 O   0  0  0  0  0  0  0  0  0  0  0  0
   20.1117   -8.1759  -12.5105 C   0  0  0  0  0  0  0  0  0  0  0  0
   20.9390   -7.0823  -12.3474 C   0  0  0  0  0  0  0  0  0  0  0  0
   21.7935   -6.7507  -13.3995 C   0  0  0  0  0  0  0  0  0  0  0  0
   21.8219   -7.4779  -14.5636 C   0  0  0  0  0  0  0  0  0  0  0  0
   22.7376   -7.0847  -15.6393 C   0  0  0  0  0  0  0  0  0  0  0  0
   22.3137   -5.8644  -16.4104 C   0  0  2  0  0  0  0  0  0  0  0  0
   23.3586   -5.6557  -17.4268 N   0  0  0  0  0  0  0  0  0  0  0  0
   22.2758   -4.6291  -15.6024 C   0  0  0  0  0  0  0  0  0  0  0  0
   23.3351   -3.9669  -15.4643 O   0  0  0  0  0  0  0  0  0  0  0  0
   20.9750   -8.5608  -14.6747 C   0  0  0  0  0  0  0  0  0  0  0  0
   20.1107   -8.9313  -13.6643 C   0  0  0  0  0  0  0  0  0  0  0  0
   21.1458   -4.1295  -14.9712 O   0  0  0  0  0  0  0  0  0  0  0  0
  2  1  1  1
  2  3  1  0
  4  3  1  0
  4  8  1  0
  5  6  1  0
  5  4  2  0
  6  7  1  0
  7  8  2  0
  9  2  1  0
 10  9  2  0
 11 12  1  0
 13 12  1  6
 13 14  1  0
 14  9  1  0
 15 13  1  0
 15 24  1  0
 16 15  2  0
 18 17  1  0
 19 18  2  0
 20 19  1  0
 21 27  1  0
 21 20  2  0
 22 21  1  0
 23 22  1  1
 23 24  1  0
 23 25  1  0
 25 29  1  0
 26 25  2  0
 27 28  2  0
 28 18  1  0
M  END
$$$$
