HSY.pdb
     RDKit          3D

 29 30  0  0  1  0  0  0  0  0999 V2000
   22.0952  -32.8787  -17.9323 N   0  0  0  0  0  0  0  0  0  0  0  0
   23.4230  -33.2864  -17.5131 C   0  0  1  0  0  0  0  0  0  0  0  0
   24.1222  -32.0071  -17.0357 C   0  0  0  0  0  0  0  0  0  0  0  0
   24.4011  -31.1700  -18.2209 C   0  0  0  0  0  0  0  0  0  0  0  0
   25.4247  -31.4050  -19.1361 C   0  0  0  0  0  0  0  0  0  0  0  0
   25.3675  -30.4401  -20.0734 N   0  0  0  0  0  0  0  0  0  0  0  0
   24.3551  -29.6099  -19.7891 C   0  0  0  0  0  0  0  0  0  0  0  0
   23.7743  -30.0648  -18.6590 N   0  0  0  0  0  0  0  0  0  0  0  0
   23.3778  -34.1912  -16.3408 C   0  0  0  0  0  0  0  0  0  0  0  0
   22.5563  -33.9423  -15.4254 O   0  0  0  0  0  0  0  0  0  0  0  0
   26.2658  -37.0187  -15.5128 O   0  0  0  0  0  0  0  0  0  0  0  0
   24.9600  -37.4765  -15.4059 C   0  0  0  0  0  0  0  0  0  0  0  0
   24.0988  -36.2587  -15.0825 C   0  0  2  0  0  0  0  0  0  0  0  0
   24.2137  -35.3272  -16.1939 N   0  0  0  0  0  0  0  0  0  0  0  0
   24.7241  -35.6064  -13.9043 C   0  0  0  0  0  0  0  0  0  0  0  0
   25.2481  -34.4613  -13.9542 O   0  0  0  0  0  0  0  0  0  0  0  0
   25.1737  -32.0027   -6.2093 O   0  0  0  0  0  0  0  0  0  0  0  0
   25.0046  -32.5925   -7.4530 C   0  0  0  0  0  0  0  0  0  0  0  0
   25.5929  -32.0190   -8.5630 C   0  0  0  0  0  0  0  0  0  0  0  0
   25.3996  -32.6421   -9.7963 C   0  0  0  0  0  0  0  0  0  0  0  0
   24.6523  -33.7873   -9.9179 C   0  0  0  0  0  0  0  0  0  0  0  0
   24.4786  -34.4004  -11.2386 C   0  0  0  0  0  0  0  0  0  0  0  0
   25.3269  -35.6187  -11.4820 C   0  0  2  0  0  0  0  0  0  0  0  0
   24.7456  -36.2759  -12.6647 N   0  0  0  0  0  0  0  0  0  0  0  0
   25.2720  -36.6137  -10.3924 C   0  0  0  0  0  0  0  0  0  0  0  0
   24.3196  -37.4336  -10.3727 O   0  0  0  0  0  0  0  0  0  0  0  0
   24.0867  -34.3187   -8.7777 C   0  0  0  0  0  0  0  0  0  0  0  0
   24.2470  -33.7419   -7.5340 C   0  0  0  0  0  0  0  0  0  0  0  0
   26.2029  -36.7203   -9.3691 O   0  0  0  0  0  0  0  0  0  0  0  0
  2  1  1  1
  2  3  1  0
  4  3  1  0
  4  8  1  0
  5  6  1  0
  5  4  2  0
  6  7  1  0
  7  8  2  0
  9  2  1  0
 10  9  2  0
 11 12  1  0
 13 12  1  6
 13 14  1  0
 14  9  1  0
 15 13  1  0
 15 24  1  0
 16 15  2  0
 18 17  1  0
 19 18  2  0
 20 19  1  0
 21 27  1  0
 21 20  2  0
 22 21  1  0
 23 22  1  1
 23 24  1  0
 23 25  1  0
 25 29  1  0
 26 25  2  0
 27 28  2  0
 28 18  1  0
M  END
$$$$
