HSY.pdb
     RDKit          3D

 29 30  0  0  1  0  0  0  0  0999 V2000
   28.8320  -26.2444  -16.4196 N   0  0  0  0  0  0  0  0  0  0  0  0
   27.4856  -25.9349  -16.8625 C   0  0  1  0  0  0  0  0  0  0  0  0
   26.6275  -27.1442  -16.4692 C   0  0  0  0  0  0  0  0  0  0  0  0
   27.0249  -28.2829  -17.3230 C   0  0  0  0  0  0  0  0  0  0  0  0
   26.6538  -28.4435  -18.6560 C   0  0  0  0  0  0  0  0  0  0  0  0
   27.2011  -29.5908  -19.0997 N   0  0  0  0  0  0  0  0  0  0  0  0
   27.8989  -30.1582  -18.1066 C   0  0  0  0  0  0  0  0  0  0  0  0
   27.7841  -29.3525  -17.0301 N   0  0  0  0  0  0  0  0  0  0  0  0
   26.9184  -24.7754  -16.1353 C   0  0  0  0  0  0  0  0  0  0  0  0
   27.0362  -24.7378  -14.8865 O   0  0  0  0  0  0  0  0  0  0  0  0
   25.2490  -21.8965  -18.2465 O   0  0  0  0  0  0  0  0  0  0  0  0
   25.7141  -21.3697  -17.0498 C   0  0  0  0  0  0  0  0  0  0  0  0
   25.7684  -22.5284  -16.0581 C   0  0  2  0  0  0  0  0  0  0  0  0
   26.2474  -23.7013  -16.7730 N   0  0  0  0  0  0  0  0  0  0  0  0
   24.3641  -22.8057  -15.6630 C   0  0  0  0  0  0  0  0  0  0  0  0
   23.6952  -23.7613  -16.1401 O   0  0  0  0  0  0  0  0  0  0  0  0
   16.8650  -21.6331  -11.0766 O   0  0  0  0  0  0  0  0  0  0  0  0
   18.1669  -21.6129  -11.5541 C   0  0  0  0  0  0  0  0  0  0  0  0
   18.6406  -20.4818  -12.1890 C   0  0  0  0  0  0  0  0  0  0  0  0
   19.9556  -20.5004  -12.6552 C   0  0  0  0  0  0  0  0  0  0  0  0
   20.7632  -21.5990  -12.4954 C   0  0  0  0  0  0  0  0  0  0  0  0
   22.1372  -21.5666  -13.0067 C   0  0  0  0  0  0  0  0  0  0  0  0
   22.3245  -22.2245  -14.3465 C   0  0  2  0  0  0  0  0  0  0  0  0
   23.7290  -21.9791  -14.7151 N   0  0  0  0  0  0  0  0  0  0  0  0
   21.5086  -21.6305  -15.4244 C   0  0  0  0  0  0  0  0  0  0  0  0
   21.9323  -20.5972  -16.0010 O   0  0  0  0  0  0  0  0  0  0  0  0
   20.2404  -22.7026  -11.8542 C   0  0  0  0  0  0  0  0  0  0  0  0
   18.9468  -22.7360  -11.3742 C   0  0  0  0  0  0  0  0  0  0  0  0
   20.2896  -22.1286  -15.8615 O   0  0  0  0  0  0  0  0  0  0  0  0
  2  1  1  1
  2  3  1  0
  4  3  1  0
  4  8  1  0
  5  6  1  0
  5  4  2  0
  6  7  1  0
  7  8  2  0
  9  2  1  0
 10  9  2  0
 11 12  1  0
 13 12  1  6
 13 14  1  0
 14  9  1  0
 15 13  1  0
 15 24  1  0
 16 15  2  0
 18 17  1  0
 19 18  2  0
 20 19  1  0
 21 27  1  0
 21 20  2  0
 22 21  1  0
 23 22  1  1
 23 24  1  0
 23 25  1  0
 25 29  1  0
 26 25  2  0
 27 28  2  0
 28 18  1  0
M  END
$$$$
