HSY.pdb
     RDKit          3D

 29 30  0  0  1  0  0  0  0  0999 V2000
   27.6631  -19.8083  -17.6342 N   0  0  0  0  0  0  0  0  0  0  0  0
   26.9302  -20.9676  -18.1072 C   0  0  1  0  0  0  0  0  0  0  0  0
   27.5617  -21.3407  -19.4545 C   0  0  0  0  0  0  0  0  0  0  0  0
   27.2350  -20.2733  -20.4227 C   0  0  0  0  0  0  0  0  0  0  0  0
   26.3077  -20.3943  -21.4552 C   0  0  0  0  0  0  0  0  0  0  0  0
   26.2813  -19.2255  -22.1230 N   0  0  0  0  0  0  0  0  0  0  0  0
   27.1494  -18.3759  -21.5574 C   0  0  0  0  0  0  0  0  0  0  0  0
   27.7238  -19.0254  -20.5232 N   0  0  0  0  0  0  0  0  0  0  0  0
   27.1245  -22.1412  -17.2239 C   0  0  0  0  0  0  0  0  0  0  0  0
   28.1800  -22.2124  -16.5489 O   0  0  0  0  0  0  0  0  0  0  0  0
   24.0425  -24.4831  -16.6334 O   0  0  0  0  0  0  0  0  0  0  0  0
   24.9198  -24.5495  -15.5601 C   0  0  0  0  0  0  0  0  0  0  0  0
   26.3105  -24.2608  -16.1185 C   0  0  2  0  0  0  0  0  0  0  0  0
   26.1817  -23.1927  -17.0977 N   0  0  0  0  0  0  0  0  0  0  0  0
   26.7241  -25.4796  -16.8590 C   0  0  0  0  0  0  0  0  0  0  0  0
   26.4869  -25.6485  -18.0852 O   0  0  0  0  0  0  0  0  0  0  0  0
   29.9559  -33.7145  -17.5946 O   0  0  0  0  0  0  0  0  0  0  0  0
   29.6761  -32.4055  -17.2318 C   0  0  0  0  0  0  0  0  0  0  0  0
   29.1117  -32.1480  -15.9980 C   0  0  0  0  0  0  0  0  0  0  0  0
   28.8452  -30.8184  -15.6697 C   0  0  0  0  0  0  0  0  0  0  0  0
   29.1289  -29.7901  -16.5340 C   0  0  0  0  0  0  0  0  0  0  0  0
   28.8262  -28.4104  -16.1401 C   0  0  0  0  0  0  0  0  0  0  0  0
   27.6522  -27.7968  -16.8530 C   0  0  2  0  0  0  0  0  0  0  0  0
   27.4131  -26.5068  -16.1843 N   0  0  0  0  0  0  0  0  0  0  0  0
   26.3997  -28.5670  -16.7165 C   0  0  0  0  0  0  0  0  0  0  0  0
   26.0765  -29.3595  -17.6369 O   0  0  0  0  0  0  0  0  0  0  0  0
   29.6920  -30.1024  -17.7537 C   0  0  0  0  0  0  0  0  0  0  0  0
   29.9756  -31.4006  -18.1273 C   0  0  0  0  0  0  0  0  0  0  0  0
   25.5338  -28.4864  -15.6354 O   0  0  0  0  0  0  0  0  0  0  0  0
  2  1  1  1
  2  3  1  0
  4  3  1  0
  4  8  1  0
  5  6  1  0
  5  4  2  0
  6  7  1  0
  7  8  2  0
  9  2  1  0
 10  9  2  0
 11 12  1  0
 13 12  1  6
 13 14  1  0
 14  9  1  0
 15 13  1  0
 15 24  1  0
 16 15  2  0
 18 17  1  0
 19 18  2  0
 20 19  1  0
 21 27  1  0
 21 20  2  0
 22 21  1  0
 23 22  1  1
 23 24  1  0
 23 25  1  0
 25 29  1  0
 26 25  2  0
 27 28  2  0
 28 18  1  0
M  END
$$$$
