HSY.pdb
     RDKit          3D

 29 30  0  0  1  0  0  0  0  0999 V2000
   28.9412  -23.2706  -19.5541 N   0  0  0  0  0  0  0  0  0  0  0  0
   28.9515  -23.3638  -18.1063 C   0  0  1  0  0  0  0  0  0  0  0  0
   30.4297  -23.3475  -17.6965 C   0  0  0  0  0  0  0  0  0  0  0  0
   31.0159  -24.6568  -18.0508 C   0  0  0  0  0  0  0  0  0  0  0  0
   30.7900  -25.8424  -17.3552 C   0  0  0  0  0  0  0  0  0  0  0  0
   31.4867  -26.8178  -17.9683 N   0  0  0  0  0  0  0  0  0  0  0  0
   32.1398  -26.2994  -19.0170 C   0  0  0  0  0  0  0  0  0  0  0  0
   31.8453  -24.9830  -19.0568 N   0  0  0  0  0  0  0  0  0  0  0  0
   28.3369  -22.1739  -17.4725 C   0  0  0  0  0  0  0  0  0  0  0  0
   28.9665  -21.0888  -17.5028 O   0  0  0  0  0  0  0  0  0  0  0  0
   24.6168  -21.8986  -17.1934 O   0  0  0  0  0  0  0  0  0  0  0  0
   25.1872  -20.6943  -16.8057 C   0  0  0  0  0  0  0  0  0  0  0  0
   26.5166  -21.0388  -16.1400 C   0  0  2  0  0  0  0  0  0  0  0  0
   27.0724  -22.1919  -16.8311 N   0  0  0  0  0  0  0  0  0  0  0  0
   26.1907  -21.4771  -14.7592 C   0  0  0  0  0  0  0  0  0  0  0  0
   25.6273  -22.5755  -14.5052 O   0  0  0  0  0  0  0  0  0  0  0  0
   25.3504  -20.3636   -5.9830 O   0  0  0  0  0  0  0  0  0  0  0  0
   25.7282  -20.3024   -7.3160 C   0  0  0  0  0  0  0  0  0  0  0  0
   26.1535  -19.1009   -7.8475 C   0  0  0  0  0  0  0  0  0  0  0  0
   26.5252  -19.0800   -9.1922 C   0  0  0  0  0  0  0  0  0  0  0  0
   26.4751  -20.2080   -9.9731 C   0  0  0  0  0  0  0  0  0  0  0  0
   26.8749  -20.1303  -11.3818 C   0  0  0  0  0  0  0  0  0  0  0  0
   26.0878  -21.0167  -12.3081 C   0  0  2  0  0  0  0  0  0  0  0  0
   26.5151  -20.6470  -13.6679 N   0  0  0  0  0  0  0  0  0  0  0  0
   24.6298  -20.7876  -12.2606 C   0  0  0  0  0  0  0  0  0  0  0  0
   23.9105  -21.6107  -11.6402 O   0  0  0  0  0  0  0  0  0  0  0  0
   26.0428  -21.3821   -9.3926 C   0  0  0  0  0  0  0  0  0  0  0  0
   25.6639  -21.4569   -8.0675 C   0  0  0  0  0  0  0  0  0  0  0  0
   23.9760  -19.7183  -12.8557 O   0  0  0  0  0  0  0  0  0  0  0  0
  2  1  1  6
  2  3  1  0
  4  3  1  0
  4  8  1  0
  5  6  1  0
  5  4  2  0
  6  7  1  0
  7  8  2  0
  9  2  1  0
 10  9  2  0
 11 12  1  0
 13 12  1  6
 13 14  1  0
 14  9  1  0
 15 13  1  0
 15 24  1  0
 16 15  2  0
 18 17  1  0
 19 18  2  0
 20 19  1  0
 21 27  1  0
 21 20  2  0
 22 21  1  0
 23 22  1  1
 23 24  1  0
 23 25  1  0
 25 29  1  0
 26 25  2  0
 27 28  2  0
 28 18  1  0
M  END
$$$$
