HSY.pdb
     RDKit          3D

 29 30  0  0  1  0  0  0  0  0999 V2000
   21.7862  -13.3550  -17.1069 N   0  0  0  0  0  0  0  0  0  0  0  0
   21.7829  -11.9856  -17.5863 C   0  0  1  0  0  0  0  0  0  0  0  0
   21.0070  -12.0075  -18.9095 C   0  0  0  0  0  0  0  0  0  0  0  0
   21.8318  -12.7155  -19.9105 C   0  0  0  0  0  0  0  0  0  0  0  0
   23.1172  -12.3370  -20.2914 C   0  0  0  0  0  0  0  0  0  0  0  0
   23.5466  -13.2147  -21.2176 N   0  0  0  0  0  0  0  0  0  0  0  0
   22.5902  -14.1271  -21.4360 C   0  0  0  0  0  0  0  0  0  0  0  0
   21.5511  -13.8125  -20.6343 N   0  0  0  0  0  0  0  0  0  0  0  0
   21.0276  -11.0866  -16.6827 C   0  0  0  0  0  0  0  0  0  0  0  0
   19.8655  -11.4183  -16.3446 O   0  0  0  0  0  0  0  0  0  0  0  0
   22.9171   -8.8400  -14.3207 O   0  0  0  0  0  0  0  0  0  0  0  0
   21.5732   -8.8864  -13.9776 C   0  0  0  0  0  0  0  0  0  0  0  0
   20.7953   -8.9954  -15.2861 C   0  0  2  0  0  0  0  0  0  0  0  0
   21.5457   -9.8677  -16.1762 N   0  0  0  0  0  0  0  0  0  0  0  0
   20.8094   -7.6408  -15.8941 C   0  0  0  0  0  0  0  0  0  0  0  0
   21.5745   -7.3255  -16.8446 O   0  0  0  0  0  0  0  0  0  0  0  0
   14.0605   -5.8790  -18.3500 O   0  0  0  0  0  0  0  0  0  0  0  0
   15.4249   -5.7772  -18.1230 C   0  0  0  0  0  0  0  0  0  0  0  0
   16.2508   -6.8307  -18.4620 C   0  0  0  0  0  0  0  0  0  0  0  0
   17.6174   -6.6901  -18.2181 C   0  0  0  0  0  0  0  0  0  0  0  0
   18.1380   -5.5487  -17.6605 C   0  0  0  0  0  0  0  0  0  0  0  0
   19.5819   -5.4538  -17.4231 C   0  0  0  0  0  0  0  0  0  0  0  0
   19.9717   -5.2910  -15.9793 C   0  0  2  0  0  0  0  0  0  0  0  0
   19.9390   -6.6466  -15.4051 N   0  0  0  0  0  0  0  0  0  0  0  0
   19.0175   -4.4883  -15.1885 C   0  0  0  0  0  0  0  0  0  0  0  0
   18.2298   -5.0831  -14.4103 O   0  0  0  0  0  0  0  0  0  0  0  0
   17.2690   -4.5265  -17.3407 C   0  0  0  0  0  0  0  0  0  0  0  0
   15.9093   -4.6147  -17.5612 C   0  0  0  0  0  0  0  0  0  0  0  0
   18.9167   -3.1052  -15.2344 O   0  0  0  0  0  0  0  0  0  0  0  0
  2  1  1  1
  2  3  1  0
  4  3  1  0
  4  8  1  0
  5  6  1  0
  5  4  2  0
  6  7  1  0
  7  8  2  0
  9  2  1  0
 10  9  2  0
 11 12  1  0
 13 12  1  1
 13 14  1  0
 14  9  1  0
 15 13  1  0
 15 24  1  0
 16 15  2  0
 18 17  1  0
 19 18  2  0
 20 19  1  0
 21 27  1  0
 21 20  2  0
 22 21  1  0
 23 22  1  6
 23 24  1  0
 23 25  1  0
 25 29  1  0
 26 25  2  0
 27 28  2  0
 28 18  1  0
M  END
$$$$
