HSY.pdb
     RDKit          3D

 29 30  0  0  1  0  0  0  0  0999 V2000
   20.0514  -16.7772  -18.6486 N   0  0  0  0  0  0  0  0  0  0  0  0
   18.8187  -16.1154  -18.2648 C   0  0  1  0  0  0  0  0  0  0  0  0
   18.1669  -17.0222  -17.2130 C   0  0  0  0  0  0  0  0  0  0  0  0
   17.8044  -18.2953  -17.8697 C   0  0  0  0  0  0  0  0  0  0  0  0
   16.9513  -18.4091  -18.9651 C   0  0  0  0  0  0  0  0  0  0  0  0
   16.8616  -19.7145  -19.2822 N   0  0  0  0  0  0  0  0  0  0  0  0
   17.6190  -20.4259  -18.4364 C   0  0  0  0  0  0  0  0  0  0  0  0
   18.1880  -19.5506  -17.5811 N   0  0  0  0  0  0  0  0  0  0  0  0
   19.0742  -14.8216  -17.5895 C   0  0  0  0  0  0  0  0  0  0  0  0
   20.1754  -14.6573  -17.0105 O   0  0  0  0  0  0  0  0  0  0  0  0
   18.6512  -11.5878  -19.2870 O   0  0  0  0  0  0  0  0  0  0  0  0
   19.4144  -11.7967  -18.1469 C   0  0  0  0  0  0  0  0  0  0  0  0
   18.4822  -12.4143  -17.1083 C   0  0  2  0  0  0  0  0  0  0  0  0
   18.1412  -13.7543  -17.5602 N   0  0  0  0  0  0  0  0  0  0  0  0
   17.2315  -11.6145  -17.1421 C   0  0  0  0  0  0  0  0  0  0  0  0
   16.1824  -12.0093  -17.7180 O   0  0  0  0  0  0  0  0  0  0  0  0
   10.0921   -7.6720  -14.8204 O   0  0  0  0  0  0  0  0  0  0  0  0
   11.2919   -8.3305  -15.0447 C   0  0  0  0  0  0  0  0  0  0  0  0
   12.2064   -8.4461  -14.0164 C   0  0  0  0  0  0  0  0  0  0  0  0
   13.4016   -9.1156  -14.2814 C   0  0  0  0  0  0  0  0  0  0  0  0
   13.6732   -9.6467  -15.5178 C   0  0  0  0  0  0  0  0  0  0  0  0
   14.9463  -10.3386  -15.7434 C   0  0  0  0  0  0  0  0  0  0  0  0
   15.9538   -9.5562  -16.5408 C   0  0  2  0  0  0  0  0  0  0  0  0
   17.1900  -10.3558  -16.5103 N   0  0  0  0  0  0  0  0  0  0  0  0
   16.2983   -8.2473  -15.9506 C   0  0  0  0  0  0  0  0  0  0  0  0
   17.2966   -8.1731  -15.1907 O   0  0  0  0  0  0  0  0  0  0  0  0
   12.7257   -9.5031  -16.5097 C   0  0  0  0  0  0  0  0  0  0  0  0
   11.5278   -8.8502  -16.3001 C   0  0  0  0  0  0  0  0  0  0  0  0
   15.5973   -7.0701  -16.1699 O   0  0  0  0  0  0  0  0  0  0  0  0
  2  1  1  1
  2  3  1  0
  4  3  1  0
  4  8  1  0
  5  6  1  0
  5  4  2  0
  6  7  1  0
  7  8  2  0
  9  2  1  0
 10  9  2  0
 11 12  1  0
 13 12  1  6
 13 14  1  0
 14  9  1  0
 15 13  1  0
 15 24  1  0
 16 15  2  0
 18 17  1  0
 19 18  2  0
 20 19  1  0
 21 27  1  0
 21 20  2  0
 22 21  1  0
 23 22  1  1
 23 24  1  0
 23 25  1  0
 25 29  1  0
 26 25  2  0
 27 28  2  0
 28 18  1  0
M  END
$$$$
