HSY.pdb
     RDKit          3D

 29 30  0  0  1  0  0  0  0  0999 V2000
   28.1942  -23.5765  -17.1247 N   0  0  0  0  0  0  0  0  0  0  0  0
   28.8944  -22.4186  -16.6011 C   0  0  1  0  0  0  0  0  0  0  0  0
   29.7821  -21.9137  -17.7458 C   0  0  0  0  0  0  0  0  0  0  0  0
   30.8406  -22.9180  -17.9794 C   0  0  0  0  0  0  0  0  0  0  0  0
   30.9646  -24.1179  -17.2828 C   0  0  0  0  0  0  0  0  0  0  0  0
   32.0398  -24.7662  -17.7689 N   0  0  0  0  0  0  0  0  0  0  0  0
   32.5970  -24.0287  -18.7388 C   0  0  0  0  0  0  0  0  0  0  0  0
   31.8578  -22.9057  -18.8577 N   0  0  0  0  0  0  0  0  0  0  0  0
   27.9652  -21.3094  -16.2827 C   0  0  0  0  0  0  0  0  0  0  0  0
   28.4501  -20.2001  -15.9523 O   0  0  0  0  0  0  0  0  0  0  0  0
   25.0051  -20.5799  -18.1775 O   0  0  0  0  0  0  0  0  0  0  0  0
   25.2440  -19.6124  -17.2117 C   0  0  0  0  0  0  0  0  0  0  0  0
   25.6509  -20.3573  -15.9433 C   0  0  2  0  0  0  0  0  0  0  0  0
   26.5532  -21.4308  -16.3302 N   0  0  0  0  0  0  0  0  0  0  0  0
   24.4167  -20.9963  -15.4205 C   0  0  0  0  0  0  0  0  0  0  0  0
   24.1399  -22.2103  -15.6149 O   0  0  0  0  0  0  0  0  0  0  0  0
   17.3974  -22.6744  -10.5124 O   0  0  0  0  0  0  0  0  0  0  0  0
   18.5868  -22.2394  -11.0777 C   0  0  0  0  0  0  0  0  0  0  0  0
   19.4530  -23.1610  -11.6320 C   0  0  0  0  0  0  0  0  0  0  0  0
   20.6392  -22.6843  -12.1909 C   0  0  0  0  0  0  0  0  0  0  0  0
   20.9484  -21.3467  -12.1970 C   0  0  0  0  0  0  0  0  0  0  0  0
   22.2101  -20.8991  -12.7955 C   0  0  0  0  0  0  0  0  0  0  0  0
   22.1957  -20.8081  -14.2970 C   0  0  2  0  0  0  0  0  0  0  0  0
   23.4989  -20.2337  -14.6713 N   0  0  0  0  0  0  0  0  0  0  0  0
   21.1733  -19.8862  -14.8310 C   0  0  0  0  0  0  0  0  0  0  0  0
   21.4716  -18.6737  -14.9744 O   0  0  0  0  0  0  0  0  0  0  0  0
   20.0484  -20.4686  -11.6301 C   0  0  0  0  0  0  0  0  0  0  0  0
   18.8614  -20.8880  -11.0642 C   0  0  0  0  0  0  0  0  0  0  0  0
   19.8861  -20.2551  -15.1945 O   0  0  0  0  0  0  0  0  0  0  0  0
  2  1  1  6
  2  3  1  0
  4  3  1  0
  4  8  1  0
  5  6  1  0
  5  4  2  0
  6  7  1  0
  7  8  2  0
  9  2  1  0
 10  9  2  0
 11 12  1  0
 13 12  1  6
 13 14  1  0
 14  9  1  0
 15 13  1  0
 15 24  1  0
 16 15  2  0
 18 17  1  0
 19 18  2  0
 20 19  1  0
 21 27  1  0
 21 20  2  0
 22 21  1  0
 23 22  1  1
 23 24  1  0
 23 25  1  0
 25 29  1  0
 26 25  2  0
 27 28  2  0
 28 18  1  0
M  END
$$$$
