HSY.pdb
     RDKit          3D

 29 30  0  0  1  0  0  0  0  0999 V2000
   20.0698  -10.3220  -20.1672 N   0  0  0  0  0  0  0  0  0  0  0  0
   20.8961   -9.3372  -19.4946 C   0  0  1  0  0  0  0  0  0  0  0  0
   19.9264   -8.2850  -18.9415 C   0  0  0  0  0  0  0  0  0  0  0  0
   19.4566   -7.4581  -20.0725 C   0  0  0  0  0  0  0  0  0  0  0  0
   19.9133   -7.5728  -21.3836 C   0  0  0  0  0  0  0  0  0  0  0  0
   19.2603   -6.6601  -22.1275 N   0  0  0  0  0  0  0  0  0  0  0  0
   18.4145   -5.9776  -21.3441 C   0  0  0  0  0  0  0  0  0  0  0  0
   18.5432   -6.4726  -20.0951 N   0  0  0  0  0  0  0  0  0  0  0  0
   21.5925   -9.9112  -18.3196 C   0  0  0  0  0  0  0  0  0  0  0  0
   21.0481  -10.8624  -17.7084 O   0  0  0  0  0  0  0  0  0  0  0  0
   25.0145   -8.3500  -17.3622 O   0  0  0  0  0  0  0  0  0  0  0  0
   25.0381   -9.6485  -16.8729 C   0  0  0  0  0  0  0  0  0  0  0  0
   23.5842  -10.1028  -16.7788 C   0  0  2  0  0  0  0  0  0  0  0  0
   22.8445   -9.4448  -17.8447 N   0  0  0  0  0  0  0  0  0  0  0  0
   23.0622   -9.5682  -15.4955 C   0  0  0  0  0  0  0  0  0  0  0  0
   23.4977   -9.9387  -14.3725 O   0  0  0  0  0  0  0  0  0  0  0  0
   23.5250   -2.6286  -17.1162 O   0  0  0  0  0  0  0  0  0  0  0  0
   23.3233   -3.7316  -16.3000 C   0  0  0  0  0  0  0  0  0  0  0  0
   24.1453   -4.8334  -16.4309 C   0  0  0  0  0  0  0  0  0  0  0  0
   23.9106   -5.9232  -15.5918 C   0  0  0  0  0  0  0  0  0  0  0  0
   22.9001   -5.9148  -14.6625 C   0  0  0  0  0  0  0  0  0  0  0  0
   22.6951   -7.0879  -13.8069 C   0  0  0  0  0  0  0  0  0  0  0  0
   21.5795   -7.9974  -14.2446 C   0  0  2  0  0  0  0  0  0  0  0  0
   22.0352   -8.6037  -15.5068 N   0  0  0  0  0  0  0  0  0  0  0  0
   20.3212   -7.2922  -14.5600 C   0  0  0  0  0  0  0  0  0  0  0  0
   19.7150   -6.6979  -13.6331 O   0  0  0  0  0  0  0  0  0  0  0  0
   22.1082   -4.7891  -14.5731 C   0  0  0  0  0  0  0  0  0  0  0  0
   22.2980   -3.6847  -15.3790 C   0  0  0  0  0  0  0  0  0  0  0  0
   19.7417   -7.2302  -15.8191 O   0  0  0  0  0  0  0  0  0  0  0  0
  2  1  1  1
  2  3  1  0
  4  3  1  0
  4  8  1  0
  5  6  1  0
  5  4  2  0
  6  7  1  0
  7  8  2  0
  9  2  1  0
 10  9  2  0
 11 12  1  0
 13 12  1  6
 13 14  1  0
 14  9  1  0
 15 13  1  0
 15 24  1  0
 16 15  2  0
 18 17  1  0
 19 18  2  0
 20 19  1  0
 21 27  1  0
 21 20  2  0
 22 21  1  0
 23 22  1  6
 23 24  1  0
 23 25  1  0
 25 29  1  0
 26 25  2  0
 27 28  2  0
 28 18  1  0
M  END
$$$$
