HYF.pdb
     RDKit          3D

 34 36  0  0  1  0  0  0  0  0999 V2000
    8.9432  -17.5133   18.4542 N   0  0  0  0  0  0  0  0  0  0  0  0
    9.2612  -16.4185   19.3319 C   0  0  1  0  0  0  0  0  0  0  0  0
    8.0082  -15.7131   19.8032 C   0  0  0  0  0  0  0  0  0  0  0  0
    7.5744  -14.7931   18.7201 C   0  0  0  0  0  0  0  0  0  0  0  0
    8.2014  -14.5784   17.5053 C   0  0  0  0  0  0  0  0  0  0  0  0
    7.5071  -13.6615   16.7710 N   0  0  0  0  0  0  0  0  0  0  0  0
    6.4585  -13.3132   17.5287 C   0  0  0  0  0  0  0  0  0  0  0  0
    6.4835  -13.9776   18.6923 N   0  0  0  0  0  0  0  0  0  0  0  0
   10.0677  -16.9156   20.4885 C   0  0  0  0  0  0  0  0  0  0  0  0
    9.9901  -18.1215   20.7814 O   0  0  0  0  0  0  0  0  0  0  0  0
   16.2327  -14.9308   18.0315 O   0  0  0  0  0  0  0  0  0  0  0  0
   15.3875  -15.0771   19.1351 C   0  0  0  0  0  0  0  0  0  0  0  0
   14.6039  -14.0332   19.5811 C   0  0  0  0  0  0  0  0  0  0  0  0
   13.7603  -14.1516   20.6689 C   0  0  0  0  0  0  0  0  0  0  0  0
   13.6708  -15.3335   21.3564 C   0  0  0  0  0  0  0  0  0  0  0  0
   12.8137  -15.5349   22.5461 C   0  0  0  0  0  0  0  0  0  0  0  0
   11.6597  -16.4626   22.3493 C   0  0  2  0  0  0  0  0  0  0  0  0
   10.8860  -16.0448   21.2189 N   0  0  0  0  0  0  0  0  0  0  0  0
   10.8372  -16.5866   23.5752 C   0  0  0  0  0  0  0  0  0  0  0  0
   11.4469  -16.7249   24.6935 O   0  0  0  0  0  0  0  0  0  0  0  0
   14.4488  -16.3830   20.9202 C   0  0  0  0  0  0  0  0  0  0  0  0
   15.2982  -16.2702   19.8280 C   0  0  0  0  0  0  0  0  0  0  0  0
    9.4129  -16.5668   23.5997 N   0  0  0  0  0  0  0  0  0  0  0  0
    8.7429  -15.8179   24.6116 C   0  0  1  0  0  0  0  0  0  0  0  0
    8.5375  -14.3699   24.3328 C   0  0  0  0  0  0  0  0  0  0  0  0
    7.8624  -13.6052   25.3959 C   0  0  0  0  0  0  0  0  0  0  0  0
    8.6459  -12.9638   26.3570 C   0  0  0  0  0  0  0  0  0  0  0  0
    8.0823  -12.2277   27.3848 C   0  0  0  0  0  0  0  0  0  0  0  0
    6.7208  -12.0960   27.5040 C   0  0  0  0  0  0  0  0  0  0  0  0
    5.9256  -12.7189   26.5695 C   0  0  0  0  0  0  0  0  0  0  0  0
    6.4998  -13.4624   25.5317 C   0  0  0  0  0  0  0  0  0  0  0  0
    7.3926  -16.4323   24.8702 C   0  0  0  0  0  0  0  0  0  0  0  0
    6.7571  -16.0570   25.8614 O   0  0  0  0  0  0  0  0  0  0  0  0
    6.8600  -17.3863   24.0383 O   0  0  0  0  0  0  0  0  0  0  0  0
  2  1  1  6
  2  9  1  0
  2  3  1  0
  3  4  1  0
  4  5  2  0
  5  6  1  0
  7  6  1  0
  8  4  1  0
  8  7  2  0
  9 10  2  0
 11 12  1  0
 12 13  2  0
 12 22  1  0
 13 14  1  0
 14 15  2  0
 15 16  1  0
 17 16  1  1
 18 17  1  0
 18  9  1  0
 19 20  2  0
 19 17  1  0
 21 15  1  0
 22 21  2  0
 23 19  1  0
 24 25  1  6
 24 23  1  0
 25 26  1  0
 26 31  2  0
 27 28  2  0
 27 26  1  0
 28 29  1  0
 29 30  2  0
 31 30  1  0
 32 24  1  0
 32 34  1  0
 33 32  2  0
M  END
$$$$
