HYF.pdb
     RDKit          3D

 34 36  0  0  1  0  0  0  0  0999 V2000
    8.9801  -20.8636   20.1638 N   0  0  0  0  0  0  0  0  0  0  0  0
    9.6965  -19.6975   20.6077 C   0  0  1  0  0  0  0  0  0  0  0  0
    9.3977  -18.5035   19.7276 C   0  0  0  0  0  0  0  0  0  0  0  0
   10.6588  -18.1240   19.0395 C   0  0  0  0  0  0  0  0  0  0  0  0
   11.8779  -18.7750   19.1107 C   0  0  0  0  0  0  0  0  0  0  0  0
   12.8027  -18.1312   18.3412 N   0  0  0  0  0  0  0  0  0  0  0  0
   12.1575  -17.0896   17.7989 C   0  0  0  0  0  0  0  0  0  0  0  0
   10.8803  -17.0707   18.2044 N   0  0  0  0  0  0  0  0  0  0  0  0
    9.3611  -19.4116   22.0364 C   0  0  0  0  0  0  0  0  0  0  0  0
    8.1618  -19.3040   22.3462 O   0  0  0  0  0  0  0  0  0  0  0  0
    7.7339  -24.9907   24.0717 O   0  0  0  0  0  0  0  0  0  0  0  0
    8.4168  -23.8057   24.3602 C   0  0  0  0  0  0  0  0  0  0  0  0
    7.9200  -22.8956   25.2699 C   0  0  0  0  0  0  0  0  0  0  0  0
    8.5749  -21.7174   25.5730 C   0  0  0  0  0  0  0  0  0  0  0  0
    9.7646  -21.4057   24.9686 C   0  0  0  0  0  0  0  0  0  0  0  0
   10.5149  -20.1543   25.2169 C   0  0  0  0  0  0  0  0  0  0  0  0
   10.1069  -18.9900   24.3748 C   0  0  2  0  0  0  0  0  0  0  0  0
   10.3717  -19.2697   22.9955 N   0  0  0  0  0  0  0  0  0  0  0  0
   10.7495  -17.7331   24.8241 C   0  0  0  0  0  0  0  0  0  0  0  0
   11.4612  -17.7721   25.8888 O   0  0  0  0  0  0  0  0  0  0  0  0
   10.2704  -22.3070   24.0583 C   0  0  0  0  0  0  0  0  0  0  0  0
    9.6170  -23.4923   23.7496 C   0  0  0  0  0  0  0  0  0  0  0  0
   10.6297  -16.4797   24.1577 N   0  0  0  0  0  0  0  0  0  0  0  0
   10.1118  -15.3577   24.8695 C   0  0  1  0  0  0  0  0  0  0  0  0
    8.6749  -15.0400   24.6436 C   0  0  0  0  0  0  0  0  0  0  0  0
    8.1486  -13.8916   25.4020 C   0  0  0  0  0  0  0  0  0  0  0  0
    6.8129  -13.5281   25.2212 C   0  0  0  0  0  0  0  0  0  0  0  0
    6.2492  -12.4611   25.8990 C   0  0  0  0  0  0  0  0  0  0  0  0
    6.9835  -11.7099   26.7831 C   0  0  0  0  0  0  0  0  0  0  0  0
    8.3032  -12.0471   26.9793 C   0  0  0  0  0  0  0  0  0  0  0  0
    8.8692  -13.1271   26.2917 C   0  0  0  0  0  0  0  0  0  0  0  0
   10.3078  -15.5748   26.3466 C   0  0  0  0  0  0  0  0  0  0  0  0
    9.7151  -16.5159   26.8853 O   0  0  0  0  0  0  0  0  0  0  0  0
   11.1211  -14.7609   27.0963 O   0  0  0  0  0  0  0  0  0  0  0  0
  2  1  1  6
  2  9  1  0
  2  3  1  0
  3  4  1  0
  4  5  2  0
  5  6  1  0
  7  6  1  0
  8  4  1  0
  8  7  2  0
  9 10  2  0
 11 12  1  0
 12 13  2  0
 12 22  1  0
 13 14  1  0
 14 15  2  0
 15 16  1  0
 17 16  1  1
 18 17  1  0
 18  9  1  0
 19 20  2  0
 19 17  1  0
 21 15  1  0
 22 21  2  0
 23 19  1  0
 24 25  1  1
 24 23  1  0
 25 26  1  0
 26 31  2  0
 27 28  2  0
 27 26  1  0
 28 29  1  0
 29 30  2  0
 31 30  1  0
 32 24  1  0
 32 34  1  0
 33 32  2  0
M  END
$$$$
