HYF.pdb
     RDKit          3D

 34 36  0  0  1  0  0  0  0  0999 V2000
    5.6140  -18.0811   19.7978 N   0  0  0  0  0  0  0  0  0  0  0  0
    6.8566  -17.6558   20.3855 C   0  0  1  0  0  0  0  0  0  0  0  0
    7.3107  -16.3330   19.8080 C   0  0  0  0  0  0  0  0  0  0  0  0
    7.7037  -16.5694   18.3946 C   0  0  0  0  0  0  0  0  0  0  0  0
    7.7342  -17.7815   17.7276 C   0  0  0  0  0  0  0  0  0  0  0  0
    8.1475  -17.6015   16.4397 N   0  0  0  0  0  0  0  0  0  0  0  0
    8.3703  -16.2864   16.3137 C   0  0  0  0  0  0  0  0  0  0  0  0
    8.1110  -15.6573   17.4682 N   0  0  0  0  0  0  0  0  0  0  0  0
    6.7112  -17.5740   21.8713 C   0  0  0  0  0  0  0  0  0  0  0  0
    5.7971  -16.8683   22.3324 O   0  0  0  0  0  0  0  0  0  0  0  0
    8.2234  -19.6893   30.3803 O   0  0  0  0  0  0  0  0  0  0  0  0
    8.0830  -19.6725   28.9897 C   0  0  0  0  0  0  0  0  0  0  0  0
    9.1590  -19.9027   28.1579 C   0  0  0  0  0  0  0  0  0  0  0  0
    9.0473  -19.8918   26.7808 C   0  0  0  0  0  0  0  0  0  0  0  0
    7.8397  -19.6471   26.1813 C   0  0  0  0  0  0  0  0  0  0  0  0
    7.6407  -19.5913   24.7157 C   0  0  0  0  0  0  0  0  0  0  0  0
    7.4969  -18.2185   24.1449 C   0  0  2  0  0  0  0  0  0  0  0  0
    7.5817  -18.2736   22.7164 N   0  0  0  0  0  0  0  0  0  0  0  0
    8.4782  -17.2740   24.7276 C   0  0  0  0  0  0  0  0  0  0  0  0
    8.8063  -17.4338   25.9557 O   0  0  0  0  0  0  0  0  0  0  0  0
    6.7579  -19.4158   27.0019 C   0  0  0  0  0  0  0  0  0  0  0  0
    6.8640  -19.4254   28.3860 C   0  0  0  0  0  0  0  0  0  0  0  0
    9.0822  -16.1953   24.0196 N   0  0  0  0  0  0  0  0  0  0  0  0
   10.1371  -15.4599   24.6362 C   0  0  1  0  0  0  0  0  0  0  0  0
    9.9070  -13.9995   24.8120 C   0  0  0  0  0  0  0  0  0  0  0  0
    8.6489  -13.6282   25.4831 C   0  0  0  0  0  0  0  0  0  0  0  0
    8.7121  -13.0936   26.7712 C   0  0  0  0  0  0  0  0  0  0  0  0
    7.5726  -12.7220   27.4634 C   0  0  0  0  0  0  0  0  0  0  0  0
    6.3241  -12.8642   26.9101 C   0  0  0  0  0  0  0  0  0  0  0  0
    6.2340  -13.3892   25.6413 C   0  0  0  0  0  0  0  0  0  0  0  0
    7.3891  -13.7636   24.9447 C   0  0  0  0  0  0  0  0  0  0  0  0
   10.4227  -16.0469   25.9932 C   0  0  0  0  0  0  0  0  0  0  0  0
    9.7029  -16.9659   26.3985 O   0  0  0  0  0  0  0  0  0  0  0  0
   11.4528  -15.5893   26.7776 O   0  0  0  0  0  0  0  0  0  0  0  0
  2  1  1  6
  2  9  1  0
  2  3  1  0
  3  4  1  0
  4  5  2  0
  5  6  1  0
  7  6  1  0
  8  4  1  0
  8  7  2  0
  9 10  2  0
 11 12  1  0
 12 13  2  0
 12 22  1  0
 13 14  1  0
 14 15  2  0
 15 16  1  0
 17 16  1  1
 18 17  1  0
 18  9  1  0
 19 20  2  0
 19 17  1  0
 21 15  1  0
 22 21  2  0
 23 19  1  0
 24 25  1  1
 24 23  1  0
 25 26  1  0
 26 31  2  0
 27 28  2  0
 27 26  1  0
 28 29  1  0
 29 30  2  0
 31 30  1  0
 32 24  1  0
 32 34  1  0
 33 32  2  0
M  END
$$$$
