HYF.pdb
     RDKit          3D

 34 36  0  0  1  0  0  0  0  0999 V2000
   11.4208  -17.4531   18.0884 N   0  0  0  0  0  0  0  0  0  0  0  0
   10.6354  -18.0945   19.1091 C   0  0  1  0  0  0  0  0  0  0  0  0
   11.1113  -19.5092   19.3579 C   0  0  0  0  0  0  0  0  0  0  0  0
   10.7394  -20.3248   18.1728 C   0  0  0  0  0  0  0  0  0  0  0  0
   10.3771  -19.8614   16.9201 C   0  0  0  0  0  0  0  0  0  0  0  0
   10.1058  -20.9092   16.0893 N   0  0  0  0  0  0  0  0  0  0  0  0
   10.2997  -22.0118   16.8254 C   0  0  0  0  0  0  0  0  0  0  0  0
   10.6772  -21.6816   18.0682 N   0  0  0  0  0  0  0  0  0  0  0  0
   10.6775  -17.2829   20.3641 C   0  0  0  0  0  0  0  0  0  0  0  0
   11.7507  -16.7354   20.6717 O   0  0  0  0  0  0  0  0  0  0  0  0
    7.6049  -12.0446   18.0201 O   0  0  0  0  0  0  0  0  0  0  0  0
    7.7728  -12.8993   19.1132 C   0  0  0  0  0  0  0  0  0  0  0  0
    8.5155  -12.5201   20.2120 C   0  0  0  0  0  0  0  0  0  0  0  0
    8.6969  -13.3455   21.3050 C   0  0  0  0  0  0  0  0  0  0  0  0
    8.1341  -14.5946   21.3364 C   0  0  0  0  0  0  0  0  0  0  0  0
    8.3019  -15.5489   22.4552 C   0  0  0  0  0  0  0  0  0  0  0  0
    9.5292  -16.3977   22.3888 C   0  0  2  0  0  0  0  0  0  0  0  0
    9.5388  -17.1457   21.1676 N   0  0  0  0  0  0  0  0  0  0  0  0
    9.6614  -17.2690   23.5796 C   0  0  0  0  0  0  0  0  0  0  0  0
    8.7085  -18.0878   23.8310 O   0  0  0  0  0  0  0  0  0  0  0  0
    7.3902  -14.9842   20.2446 C   0  0  0  0  0  0  0  0  0  0  0  0
    7.2045  -14.1593   19.1436 C   0  0  0  0  0  0  0  0  0  0  0  0
   10.7735  -17.2595   24.4700 N   0  0  0  0  0  0  0  0  0  0  0  0
   10.6521  -16.6044   25.7309 C   0  0  1  0  0  0  0  0  0  0  0  0
   10.0743  -15.2325   25.7078 C   0  0  0  0  0  0  0  0  0  0  0  0
    9.7883  -14.6386   27.0256 C   0  0  0  0  0  0  0  0  0  0  0  0
   10.6940  -14.8547   28.0657 C   0  0  0  0  0  0  0  0  0  0  0  0
   10.4919  -14.3288   29.3300 C   0  0  0  0  0  0  0  0  0  0  0  0
    9.3857  -13.5679   29.6171 C   0  0  0  0  0  0  0  0  0  0  0  0
    8.4769  -13.3400   28.6092 C   0  0  0  0  0  0  0  0  0  0  0  0
    8.6853  -13.8739   27.3321 C   0  0  0  0  0  0  0  0  0  0  0  0
    9.8026  -17.4457   26.6464 C   0  0  0  0  0  0  0  0  0  0  0  0
    8.6357  -17.6799   26.3137 O   0  0  0  0  0  0  0  0  0  0  0  0
   10.2914  -17.9518   27.8257 O   0  0  0  0  0  0  0  0  0  0  0  0
  2  1  1  6
  2  9  1  0
  2  3  1  0
  3  4  1  0
  4  5  2  0
  5  6  1  0
  7  6  1  0
  8  4  1  0
  8  7  2  0
  9 10  2  0
 11 12  1  0
 12 13  2  0
 12 22  1  0
 13 14  1  0
 14 15  2  0
 15 16  1  0
 17 16  1  1
 18 17  1  0
 18  9  1  0
 19 20  2  0
 19 17  1  0
 21 15  1  0
 22 21  2  0
 23 19  1  0
 24 25  1  6
 24 23  1  0
 25 26  1  0
 26 31  2  0
 27 28  2  0
 27 26  1  0
 28 29  1  0
 29 30  2  0
 31 30  1  0
 32 24  1  0
 32 34  1  0
 33 32  2  0
M  END
$$$$
