HYF.pdb
     RDKit          3D

 34 36  0  0  1  0  0  0  0  0999 V2000
   10.0981  -16.5675   19.6652 N   0  0  0  0  0  0  0  0  0  0  0  0
    9.7733  -15.6503   20.7251 C   0  0  1  0  0  0  0  0  0  0  0  0
    8.3496  -15.1529   20.6013 C   0  0  0  0  0  0  0  0  0  0  0  0
    8.2501  -14.3817   19.3351 C   0  0  0  0  0  0  0  0  0  0  0  0
    8.4473  -13.0223   19.1672 C   0  0  0  0  0  0  0  0  0  0  0  0
    8.2694  -12.6773   17.8590 N   0  0  0  0  0  0  0  0  0  0  0  0
    7.9644  -13.8172   17.2245 C   0  0  0  0  0  0  0  0  0  0  0  0
    7.9487  -14.8414   18.0887 N   0  0  0  0  0  0  0  0  0  0  0  0
   10.0021  -16.3062   22.0491 C   0  0  0  0  0  0  0  0  0  0  0  0
    9.5907  -17.4692   22.2054 O   0  0  0  0  0  0  0  0  0  0  0  0
   12.2670  -16.6183   30.7174 O   0  0  0  0  0  0  0  0  0  0  0  0
   12.1497  -16.3253   29.3557 C   0  0  0  0  0  0  0  0  0  0  0  0
   12.6919  -17.1535   28.3951 C   0  0  0  0  0  0  0  0  0  0  0  0
   12.5901  -16.8870   27.0433 C   0  0  0  0  0  0  0  0  0  0  0  0
   11.9339  -15.7683   26.6007 C   0  0  0  0  0  0  0  0  0  0  0  0
   11.8035  -15.3967   25.1740 C   0  0  0  0  0  0  0  0  0  0  0  0
   10.7407  -16.1275   24.4207 C   0  0  2  0  0  0  0  0  0  0  0  0
   10.6613  -15.6270   23.0812 N   0  0  0  0  0  0  0  0  0  0  0  0
    9.4343  -16.0718   25.1171 C   0  0  0  0  0  0  0  0  0  0  0  0
    8.9041  -14.9204   25.3035 O   0  0  0  0  0  0  0  0  0  0  0  0
   11.3884  -14.9338   27.5510 C   0  0  0  0  0  0  0  0  0  0  0  0
   11.4874  -15.1963   28.9105 C   0  0  0  0  0  0  0  0  0  0  0  0
    8.7249  -17.2093   25.5992 N   0  0  0  0  0  0  0  0  0  0  0  0
    7.4692  -17.0244   26.2493 C   0  0  1  0  0  0  0  0  0  0  0  0
    6.4923  -16.1398   25.5566 C   0  0  0  0  0  0  0  0  0  0  0  0
    6.4227  -14.7543   26.0532 C   0  0  0  0  0  0  0  0  0  0  0  0
    6.0349  -13.7468   25.1680 C   0  0  0  0  0  0  0  0  0  0  0  0
    5.9469  -12.4232   25.5627 C   0  0  0  0  0  0  0  0  0  0  0  0
    6.2388  -12.0418   26.8490 C   0  0  0  0  0  0  0  0  0  0  0  0
    6.6239  -13.0158   27.7417 C   0  0  0  0  0  0  0  0  0  0  0  0
    6.7116  -14.3534   27.3381 C   0  0  0  0  0  0  0  0  0  0  0  0
    6.8133  -18.3650   26.4502 C   0  0  0  0  0  0  0  0  0  0  0  0
    7.2657  -19.3375   25.8364 O   0  0  0  0  0  0  0  0  0  0  0  0
    5.7392  -18.5268   27.2903 O   0  0  0  0  0  0  0  0  0  0  0  0
  2  1  1  6
  2  9  1  0
  2  3  1  0
  3  4  1  0
  4  5  2  0
  5  6  1  0
  7  6  1  0
  8  4  1  0
  8  7  2  0
  9 10  2  0
 11 12  1  0
 12 13  2  0
 12 22  1  0
 13 14  1  0
 14 15  2  0
 15 16  1  0
 17 16  1  1
 18 17  1  0
 18  9  1  0
 19 20  2  0
 19 17  1  0
 21 15  1  0
 22 21  2  0
 23 19  1  0
 24 25  1  6
 24 23  1  0
 25 26  1  0
 26 31  2  0
 27 28  2  0
 27 26  1  0
 28 29  1  0
 29 30  2  0
 31 30  1  0
 32 24  1  0
 32 34  1  0
 33 32  2  0
M  END
$$$$
