HYF.pdb
     RDKit          3D

 34 36  0  0  1  0  0  0  0  0999 V2000
    7.6220  -18.2963   21.0796 N   0  0  0  0  0  0  0  0  0  0  0  0
    8.9991  -18.1565   20.6867 C   0  0  1  0  0  0  0  0  0  0  0  0
    9.1362  -18.1049   19.1807 C   0  0  0  0  0  0  0  0  0  0  0  0
    8.6081  -19.3825   18.6360 C   0  0  0  0  0  0  0  0  0  0  0  0
    8.6061  -20.6186   19.2583 C   0  0  0  0  0  0  0  0  0  0  0  0
    8.0359  -21.5552   18.4463 N   0  0  0  0  0  0  0  0  0  0  0  0
    7.6885  -20.9004   17.3302 C   0  0  0  0  0  0  0  0  0  0  0  0
    8.0221  -19.6060   17.4267 N   0  0  0  0  0  0  0  0  0  0  0  0
    9.5853  -16.9374   21.3236 C   0  0  0  0  0  0  0  0  0  0  0  0
   10.7872  -16.6914   21.1213 O   0  0  0  0  0  0  0  0  0  0  0  0
    7.7160  -13.3124   16.6748 O   0  0  0  0  0  0  0  0  0  0  0  0
    7.9048  -13.4075   18.0565 C   0  0  0  0  0  0  0  0  0  0  0  0
    9.0267  -12.8835   18.6642 C   0  0  0  0  0  0  0  0  0  0  0  0
    9.2374  -12.9639   20.0273 C   0  0  0  0  0  0  0  0  0  0  0  0
    8.3210  -13.5793   20.8393 C   0  0  0  0  0  0  0  0  0  0  0  0
    8.4836  -13.7314   22.3025 C   0  0  0  0  0  0  0  0  0  0  0  0
    9.3023  -14.9040   22.7333 C   0  0  2  0  0  0  0  0  0  0  0  0
    8.7999  -16.0990   22.1246 N   0  0  0  0  0  0  0  0  0  0  0  0
    9.3724  -15.0147   24.2090 C   0  0  0  0  0  0  0  0  0  0  0  0
    9.7333  -13.9785   24.8704 O   0  0  0  0  0  0  0  0  0  0  0  0
    7.1966  -14.1065   20.2435 C   0  0  0  0  0  0  0  0  0  0  0  0
    6.9794  -14.0287   18.8746 C   0  0  0  0  0  0  0  0  0  0  0  0
    9.0699  -16.1949   24.9474 N   0  0  0  0  0  0  0  0  0  0  0  0
    9.5962  -16.3483   26.2639 C   0  0  1  0  0  0  0  0  0  0  0  0
    9.2292  -15.2924   27.2474 C   0  0  0  0  0  0  0  0  0  0  0  0
    7.9919  -14.5487   26.9529 C   0  0  0  0  0  0  0  0  0  0  0  0
    7.8438  -13.2644   27.4798 C   0  0  0  0  0  0  0  0  0  0  0  0
    6.7096  -12.5064   27.2458 C   0  0  0  0  0  0  0  0  0  0  0  0
    5.6756  -12.9875   26.4813 C   0  0  0  0  0  0  0  0  0  0  0  0
    5.7964  -14.2512   25.9502 C   0  0  0  0  0  0  0  0  0  0  0  0
    6.9453  -15.0145   26.1894 C   0  0  0  0  0  0  0  0  0  0  0  0
    9.1507  -17.6731   26.8241 C   0  0  0  0  0  0  0  0  0  0  0  0
    8.3668  -18.3582   26.1583 O   0  0  0  0  0  0  0  0  0  0  0  0
    9.5924  -18.1297   28.0417 O   0  0  0  0  0  0  0  0  0  0  0  0
  2  1  1  6
  2  9  1  0
  2  3  1  0
  3  4  1  0
  4  5  2  0
  5  6  1  0
  7  6  1  0
  8  4  1  0
  8  7  2  0
  9 10  2  0
 11 12  1  0
 12 13  2  0
 12 22  1  0
 13 14  1  0
 14 15  2  0
 15 16  1  0
 17 16  1  1
 18 17  1  0
 18  9  1  0
 19 20  2  0
 19 17  1  0
 21 15  1  0
 22 21  2  0
 23 19  1  0
 24 25  1  1
 24 23  1  0
 25 26  1  0
 26 31  2  0
 27 28  2  0
 27 26  1  0
 28 29  1  0
 29 30  2  0
 31 30  1  0
 32 24  1  0
 32 34  1  0
 33 32  2  0
M  END
$$$$
