HYF.pdb
     RDKit          3D

 34 36  0  0  1  0  0  0  0  0999 V2000
    9.2103  -17.6554   18.0609 N   0  0  0  0  0  0  0  0  0  0  0  0
    9.2743  -18.1308   19.4173 C   0  0  1  0  0  0  0  0  0  0  0  0
   10.4061  -19.1187   19.5983 C   0  0  0  0  0  0  0  0  0  0  0  0
   11.3905  -18.8805   18.5111 C   0  0  0  0  0  0  0  0  0  0  0  0
   11.1513  -18.9010   17.1482 C   0  0  0  0  0  0  0  0  0  0  0  0
   12.3010  -18.6358   16.4629 N   0  0  0  0  0  0  0  0  0  0  0  0
   13.2432  -18.4529   17.3977 C   0  0  0  0  0  0  0  0  0  0  0  0
   12.7179  -18.5951   18.6224 N   0  0  0  0  0  0  0  0  0  0  0  0
    9.4145  -16.9729   20.3528 C   0  0  0  0  0  0  0  0  0  0  0  0
   10.4873  -16.3442   20.3499 O   0  0  0  0  0  0  0  0  0  0  0  0
    7.3129  -12.6726   16.3155 O   0  0  0  0  0  0  0  0  0  0  0  0
    7.3223  -13.1290   17.6367 C   0  0  0  0  0  0  0  0  0  0  0  0
    6.6918  -14.3026   17.9940 C   0  0  0  0  0  0  0  0  0  0  0  0
    6.6862  -14.7757   19.2921 C   0  0  0  0  0  0  0  0  0  0  0  0
    7.3194  -14.0818   20.2897 C   0  0  0  0  0  0  0  0  0  0  0  0
    7.3376  -14.5051   21.7079 C   0  0  0  0  0  0  0  0  0  0  0  0
    8.4196  -15.4690   22.0704 C   0  0  2  0  0  0  0  0  0  0  0  0
    8.3654  -16.6098   21.2064 N   0  0  0  0  0  0  0  0  0  0  0  0
    8.3631  -15.8478   23.5015 C   0  0  0  0  0  0  0  0  0  0  0  0
    7.3222  -15.5122   24.1689 O   0  0  0  0  0  0  0  0  0  0  0  0
    7.9525  -12.9083   19.9448 C   0  0  0  0  0  0  0  0  0  0  0  0
    7.9616  -12.4279   18.6424 C   0  0  0  0  0  0  0  0  0  0  0  0
    9.3876  -16.5573   24.1919 N   0  0  0  0  0  0  0  0  0  0  0  0
    9.9648  -15.9847   25.3636 C   0  0  1  0  0  0  0  0  0  0  0  0
    9.0403  -15.7514   26.5071 C   0  0  0  0  0  0  0  0  0  0  0  0
    9.6458  -15.1369   27.7015 C   0  0  0  0  0  0  0  0  0  0  0  0
    9.6087  -13.7471   27.8286 C   0  0  0  0  0  0  0  0  0  0  0  0
   10.1566  -13.0998   28.9224 C   0  0  0  0  0  0  0  0  0  0  0  0
   10.7638  -13.8005   29.9351 C   0  0  0  0  0  0  0  0  0  0  0  0
   10.8140  -15.1719   29.8341 C   0  0  0  0  0  0  0  0  0  0  0  0
   10.2585  -15.8225   28.7261 C   0  0  0  0  0  0  0  0  0  0  0  0
   11.0818  -16.8703   25.8489 C   0  0  0  0  0  0  0  0  0  0  0  0
   11.1897  -18.0002   25.3600 O   0  0  0  0  0  0  0  0  0  0  0  0
   11.9711  -16.4536   26.8088 O   0  0  0  0  0  0  0  0  0  0  0  0
  2  1  1  6
  2  9  1  0
  2  3  1  0
  3  4  1  0
  4  5  2  0
  5  6  1  0
  7  6  1  0
  8  4  1  0
  8  7  2  0
  9 10  2  0
 11 12  1  0
 12 13  2  0
 12 22  1  0
 13 14  1  0
 14 15  2  0
 15 16  1  0
 17 16  1  6
 18 17  1  0
 18  9  1  0
 19 20  2  0
 19 17  1  0
 21 15  1  0
 22 21  2  0
 23 19  1  0
 24 25  1  1
 24 23  1  0
 25 26  1  0
 26 31  2  0
 27 28  2  0
 27 26  1  0
 28 29  1  0
 29 30  2  0
 31 30  1  0
 32 24  1  0
 32 34  1  0
 33 32  2  0
M  END
$$$$
