HYF.pdb
     RDKit          3D

 34 36  0  0  1  0  0  0  0  0999 V2000
    9.1165  -15.9049   20.4609 N   0  0  0  0  0  0  0  0  0  0  0  0
    8.1582  -15.0565   21.1182 C   0  0  1  0  0  0  0  0  0  0  0  0
    6.9299  -14.8498   20.2590 C   0  0  0  0  0  0  0  0  0  0  0  0
    7.3842  -14.3462   18.9369 C   0  0  0  0  0  0  0  0  0  0  0  0
    7.9652  -13.1200   18.6647 C   0  0  0  0  0  0  0  0  0  0  0  0
    8.2478  -13.0163   17.3339 N   0  0  0  0  0  0  0  0  0  0  0  0
    7.8435  -14.1716   16.7891 C   0  0  0  0  0  0  0  0  0  0  0  0
    7.3270  -14.9745   17.7296 N   0  0  0  0  0  0  0  0  0  0  0  0
    7.7953  -15.6384   22.4468 C   0  0  0  0  0  0  0  0  0  0  0  0
    6.9056  -15.0762   23.1090 O   0  0  0  0  0  0  0  0  0  0  0  0
    8.2615  -20.9175   29.5767 O   0  0  0  0  0  0  0  0  0  0  0  0
    8.3563  -20.3820   28.2891 C   0  0  0  0  0  0  0  0  0  0  0  0
    9.5795  -20.1893   27.6813 C   0  0  0  0  0  0  0  0  0  0  0  0
    9.7008  -19.6620   26.4100 C   0  0  0  0  0  0  0  0  0  0  0  0
    8.5882  -19.3049   25.6943 C   0  0  0  0  0  0  0  0  0  0  0  0
    8.6325  -18.7095   24.3400 C   0  0  0  0  0  0  0  0  0  0  0  0
    8.2977  -17.2554   24.2729 C   0  0  2  0  0  0  0  0  0  0  0  0
    8.4410  -16.7839   22.9283 N   0  0  0  0  0  0  0  0  0  0  0  0
    9.0988  -16.4607   25.2328 C   0  0  0  0  0  0  0  0  0  0  0  0
   10.2303  -16.0081   24.8374 O   0  0  0  0  0  0  0  0  0  0  0  0
    7.3612  -19.4928   26.2911 C   0  0  0  0  0  0  0  0  0  0  0  0
    7.2329  -20.0221   27.5680 C   0  0  0  0  0  0  0  0  0  0  0  0
    8.7021  -16.1658   26.5689 N   0  0  0  0  0  0  0  0  0  0  0  0
    9.5622  -15.3846   27.3958 C   0  0  1  0  0  0  0  0  0  0  0  0
    8.9164  -14.2874   28.1676 C   0  0  0  0  0  0  0  0  0  0  0  0
    8.0401  -13.3922   27.3921 C   0  0  0  0  0  0  0  0  0  0  0  0
    8.5650  -12.1867   26.9226 C   0  0  0  0  0  0  0  0  0  0  0  0
    7.8020  -11.2960   26.1877 C   0  0  0  0  0  0  0  0  0  0  0  0
    6.4887  -11.5609   25.8873 C   0  0  0  0  0  0  0  0  0  0  0  0
    5.9467  -12.7425   26.3386 C   0  0  0  0  0  0  0  0  0  0  0  0
    6.7220  -13.6405   27.0815 C   0  0  0  0  0  0  0  0  0  0  0  0
   10.2602  -16.2882   28.3776 C   0  0  0  0  0  0  0  0  0  0  0  0
    9.8758  -17.4587   28.4738 O   0  0  0  0  0  0  0  0  0  0  0  0
   11.3010  -15.8448   29.1560 O   0  0  0  0  0  0  0  0  0  0  0  0
  2  1  1  6
  2  9  1  0
  2  3  1  0
  3  4  1  0
  4  5  2  0
  5  6  1  0
  7  6  1  0
  8  4  1  0
  8  7  2  0
  9 10  2  0
 11 12  1  0
 12 13  2  0
 12 22  1  0
 13 14  1  0
 14 15  2  0
 15 16  1  0
 17 16  1  6
 18 17  1  0
 18  9  1  0
 19 20  2  0
 19 17  1  0
 21 15  1  0
 22 21  2  0
 23 19  1  0
 24 25  1  1
 24 23  1  0
 25 26  1  0
 26 31  2  0
 27 28  2  0
 27 26  1  0
 28 29  1  0
 29 30  2  0
 31 30  1  0
 32 24  1  0
 32 34  1  0
 33 32  2  0
M  END
$$$$
