HYF.pdb
     RDKit          3D

 34 36  0  0  1  0  0  0  0  0999 V2000
    8.5271  -16.8738   19.4119 N   0  0  0  0  0  0  0  0  0  0  0  0
    8.6968  -15.8675   20.4261 C   0  0  1  0  0  0  0  0  0  0  0  0
    7.6402  -14.7905   20.3109 C   0  0  0  0  0  0  0  0  0  0  0  0
    7.8633  -14.0757   19.0275 C   0  0  0  0  0  0  0  0  0  0  0  0
    8.4603  -12.8395   18.8526 C   0  0  0  0  0  0  0  0  0  0  0  0
    8.4873  -12.5112   17.5284 N   0  0  0  0  0  0  0  0  0  0  0  0
    7.9104  -13.5389   16.8910 C   0  0  0  0  0  0  0  0  0  0  0  0
    7.5332  -14.4787   17.7688 N   0  0  0  0  0  0  0  0  0  0  0  0
    8.6728  -16.5040   21.7788 C   0  0  0  0  0  0  0  0  0  0  0  0
    7.5699  -16.8213   22.2572 O   0  0  0  0  0  0  0  0  0  0  0  0
    8.6850  -22.5832   20.2187 O   0  0  0  0  0  0  0  0  0  0  0  0
    9.1808  -21.6087   21.0895 C   0  0  0  0  0  0  0  0  0  0  0  0
    8.6985  -21.4849   22.3759 C   0  0  0  0  0  0  0  0  0  0  0  0
    9.1712  -20.5308   23.2563 C   0  0  0  0  0  0  0  0  0  0  0  0
   10.1553  -19.6568   22.8748 C   0  0  0  0  0  0  0  0  0  0  0  0
   10.6969  -18.5903   23.7465 C   0  0  0  0  0  0  0  0  0  0  0  0
    9.8942  -17.3313   23.7853 C   0  0  2  0  0  0  0  0  0  0  0  0
    9.8607  -16.7346   22.4838 N   0  0  0  0  0  0  0  0  0  0  0  0
   10.3908  -16.3928   24.8184 C   0  0  0  0  0  0  0  0  0  0  0  0
   11.3222  -15.5773   24.4881 O   0  0  0  0  0  0  0  0  0  0  0  0
   10.6446  -19.7710   21.5925 C   0  0  0  0  0  0  0  0  0  0  0  0
   10.1737  -20.7275   20.7034 C   0  0  0  0  0  0  0  0  0  0  0  0
    9.9084  -16.3341   26.1576 N   0  0  0  0  0  0  0  0  0  0  0  0
   10.4791  -15.3926   27.0640 C   0  0  1  0  0  0  0  0  0  0  0  0
   10.3117  -13.9554   26.7134 C   0  0  0  0  0  0  0  0  0  0  0  0
    8.9268  -13.4526   26.7270 C   0  0  0  0  0  0  0  0  0  0  0  0
    8.1518  -13.6007   25.5753 C   0  0  0  0  0  0  0  0  0  0  0  0
    6.8435  -13.1532   25.5140 C   0  0  0  0  0  0  0  0  0  0  0  0
    6.2483  -12.5408   26.5892 C   0  0  0  0  0  0  0  0  0  0  0  0
    6.9908  -12.3821   27.7369 C   0  0  0  0  0  0  0  0  0  0  0  0
    8.3137  -12.8363   27.7945 C   0  0  0  0  0  0  0  0  0  0  0  0
    9.8893  -15.6034   28.4335 C   0  0  0  0  0  0  0  0  0  0  0  0
   10.3230  -14.9241   29.3702 O   0  0  0  0  0  0  0  0  0  0  0  0
    8.8927  -16.5210   28.6590 O   0  0  0  0  0  0  0  0  0  0  0  0
  2  1  1  6
  2  9  1  0
  2  3  1  0
  3  4  1  0
  4  5  2  0
  5  6  1  0
  7  6  1  0
  8  4  1  0
  8  7  2  0
  9 10  2  0
 11 12  1  0
 12 13  2  0
 12 22  1  0
 13 14  1  0
 14 15  2  0
 15 16  1  0
 17 16  1  6
 18 17  1  0
 18  9  1  0
 19 20  2  0
 19 17  1  0
 21 15  1  0
 22 21  2  0
 23 19  1  0
 24 25  1  6
 24 23  1  0
 25 26  1  0
 26 31  2  0
 27 28  2  0
 27 26  1  0
 28 29  1  0
 29 30  2  0
 31 30  1  0
 32 24  1  0
 32 34  1  0
 33 32  2  0
M  END
$$$$
