TDL.pdb
     RDKit          3D

 24 23  0  0  1  0  0  0  0  0999 V2000
   16.6642   -9.5935  -17.1713 C   0  0  0  0  0  0  0  0  0  0  0  0
   17.4532  -10.6828  -17.8606 C   0  0  1  0  0  0  0  0  0  0  0  0
   16.5509  -11.6379  -18.3275 O   0  0  0  0  0  0  0  0  0  0  0  0
   18.2311  -10.1208  -19.0319 C   0  0  2  0  0  0  0  0  0  0  0  0
   18.9584  -11.1882  -19.6682 N   0  0  0  0  0  0  0  0  0  0  0  0
   19.2135   -9.1161  -18.5505 C   0  0  0  0  0  0  0  0  0  0  0  0
   20.2449   -9.5375  -17.9972 O   0  0  0  0  0  0  0  0  0  0  0  0
   19.0199   -7.7189  -18.6971 N   0  0  0  0  0  0  0  0  0  0  0  0
   19.9132   -6.7288  -18.1317 C   0  0  1  0  0  0  0  0  0  0  0  0
   19.6586   -5.3499  -18.6508 C   0  0  0  0  0  0  0  0  0  0  0  0
   20.5555   -4.3236  -18.1585 C   0  0  0  0  0  0  0  0  0  0  0  0
   20.1249   -3.4078  -17.4250 O   0  0  0  0  0  0  0  0  0  0  0  0
   19.9486   -6.7979  -16.6472 C   0  0  0  0  0  0  0  0  0  0  0  0
   18.9133   -6.9725  -15.9483 O   0  0  0  0  0  0  0  0  0  0  0  0
   21.8958   -4.3249  -18.4796 O   0  0  0  0  0  0  0  0  0  0  0  0
   22.9842   -9.8172  -12.7791 C   0  0  0  0  0  0  0  0  0  0  0  0
   22.1860   -8.5030  -12.8124 C   0  0  2  0  0  0  0  0  0  0  0  0
   20.9526   -8.7216  -12.0143 C   0  0  0  0  0  0  0  0  0  0  0  0
   22.0068   -8.1380  -14.2389 C   0  0  0  0  0  0  0  0  0  0  0  0
   21.3149   -6.8572  -14.5290 C   0  0  2  0  0  0  0  0  0  0  0  0
   21.1746   -6.6676  -15.9362 N   0  0  0  0  0  0  0  0  0  0  0  0
   22.1955   -5.7617  -13.9820 C   0  0  0  0  0  0  0  0  0  0  0  0
   22.2875   -5.5170  -12.7543 O   0  0  0  0  0  0  0  0  0  0  0  0
   22.9405   -4.9829  -14.8523 O   0  0  0  0  0  0  0  0  0  0  0  0
  2  1  1  6
  2  4  1  0
  3  2  1  0
  4  6  1  0
  4  5  1  1
  6  7  2  0
  8  6  1  0
  8  9  1  0
  9 13  1  0
  9 10  1  1
 10 11  1  0
 11 12  2  0
 11 15  1  0
 13 14  2  0
 17 16  1  6
 17 18  1  0
 19 17  1  0
 20 19  1  6
 20 22  1  0
 21 13  1  0
 21 20  1  0
 22 24  1  0
 23 22  2  0
M  END
$$$$
