TDL.pdb
     RDKit          3D

 24 23  0  0  1  0  0  0  0  0999 V2000
   18.7034  -14.0248  -16.1083 C   0  0  0  0  0  0  0  0  0  0  0  0
   17.4571  -14.4521  -16.8488 C   0  0  1  0  0  0  0  0  0  0  0  0
   17.0188  -15.6546  -16.2955 O   0  0  0  0  0  0  0  0  0  0  0  0
   16.3656  -13.4124  -16.7041 C   0  0  2  0  0  0  0  0  0  0  0  0
   15.2342  -13.8047  -17.5036 N   0  0  0  0  0  0  0  0  0  0  0  0
   16.8494  -12.0993  -17.2022 C   0  0  0  0  0  0  0  0  0  0  0  0
   16.4866  -11.7445  -18.3379 O   0  0  0  0  0  0  0  0  0  0  0  0
   17.6950  -11.2520  -16.4418 N   0  0  0  0  0  0  0  0  0  0  0  0
   18.1509   -9.9584  -16.9075 C   0  0  1  0  0  0  0  0  0  0  0  0
   17.0776   -9.1741  -17.5922 C   0  0  0  0  0  0  0  0  0  0  0  0
   17.4767   -7.8709  -18.0850 C   0  0  0  0  0  0  0  0  0  0  0  0
   17.0947   -6.8323  -17.5041 O   0  0  0  0  0  0  0  0  0  0  0  0
   18.8399   -9.1945  -15.8346 C   0  0  0  0  0  0  0  0  0  0  0  0
   18.3054   -8.9553  -14.7175 O   0  0  0  0  0  0  0  0  0  0  0  0
   18.2805   -7.7373  -19.1965 O   0  0  0  0  0  0  0  0  0  0  0  0
   22.1719  -10.3336  -13.3848 C   0  0  0  0  0  0  0  0  0  0  0  0
   22.6186  -10.0688  -14.8324 C   0  0  2  0  0  0  0  0  0  0  0  0
   24.0213  -10.5430  -14.9496 C   0  0  0  0  0  0  0  0  0  0  0  0
   22.3699   -8.6330  -15.1097 C   0  0  0  0  0  0  0  0  0  0  0  0
   20.9717   -8.1508  -14.9840 C   0  0  2  0  0  0  0  0  0  0  0  0
   20.1572   -8.6898  -16.0241 N   0  0  0  0  0  0  0  0  0  0  0  0
   21.0205   -6.6514  -15.1400 C   0  0  0  0  0  0  0  0  0  0  0  0
   20.6579   -6.0682  -16.1908 O   0  0  0  0  0  0  0  0  0  0  0  0
   21.4806   -5.8684  -14.0940 O   0  0  0  0  0  0  0  0  0  0  0  0
  2  1  1  1
  2  4  1  0
  3  2  1  0
  4  6  1  0
  4  5  1  6
  6  7  2  0
  8  6  1  0
  8  9  1  0
  9 13  1  0
  9 10  1  1
 10 11  1  0
 11 12  2  0
 11 15  1  0
 13 14  2  0
 17 16  1  1
 17 18  1  0
 19 17  1  0
 20 19  1  6
 20 22  1  0
 21 13  1  0
 21 20  1  0
 22 24  1  0
 23 22  2  0
M  END
$$$$
