TDL.pdb
     RDKit          3D

 24 23  0  0  1  0  0  0  0  0999 V2000
   15.6160  -12.6344  -15.0911 C   0  0  0  0  0  0  0  0  0  0  0  0
   16.6867  -11.5960  -15.3347 C   0  0  1  0  0  0  0  0  0  0  0  0
   17.8963  -12.1068  -14.8654 O   0  0  0  0  0  0  0  0  0  0  0  0
   16.8152  -11.2963  -16.8134 C   0  0  2  0  0  0  0  0  0  0  0  0
   17.3103  -12.4675  -17.4889 N   0  0  0  0  0  0  0  0  0  0  0  0
   17.7908  -10.1960  -17.0230 C   0  0  0  0  0  0  0  0  0  0  0  0
   18.8668  -10.4780  -17.5798 O   0  0  0  0  0  0  0  0  0  0  0  0
   17.5424   -8.8598  -16.6177 N   0  0  0  0  0  0  0  0  0  0  0  0
   18.4921   -7.7824  -16.8059 C   0  0  1  0  0  0  0  0  0  0  0  0
   17.8537   -6.5212  -17.2933 C   0  0  0  0  0  0  0  0  0  0  0  0
   18.7584   -5.4114  -17.5170 C   0  0  0  0  0  0  0  0  0  0  0  0
   19.7185   -5.5292  -18.3083 O   0  0  0  0  0  0  0  0  0  0  0  0
   19.3458   -7.5803  -15.6059 C   0  0  0  0  0  0  0  0  0  0  0  0
   18.8928   -7.6363  -14.4301 O   0  0  0  0  0  0  0  0  0  0  0  0
   18.5905   -4.2051  -16.8718 O   0  0  0  0  0  0  0  0  0  0  0  0
   22.2901   -9.7842  -13.5809 C   0  0  0  0  0  0  0  0  0  0  0  0
   22.8972   -9.3223  -14.9163 C   0  0  2  0  0  0  0  0  0  0  0  0
   24.2053  -10.0108  -15.0620 C   0  0  0  0  0  0  0  0  0  0  0  0
   22.9177   -7.8393  -14.8961 C   0  0  0  0  0  0  0  0  0  0  0  0
   21.6312   -7.1473  -14.6330 C   0  0  2  0  0  0  0  0  0  0  0  0
   20.7373   -7.3097  -15.7331 N   0  0  0  0  0  0  0  0  0  0  0  0
   21.9554   -5.6813  -14.4897 C   0  0  0  0  0  0  0  0  0  0  0  0
   21.7322   -4.8466  -15.4002 O   0  0  0  0  0  0  0  0  0  0  0  0
   22.5226   -5.2168  -13.3142 O   0  0  0  0  0  0  0  0  0  0  0  0
  2  1  1  6
  2  4  1  0
  3  2  1  0
  4  6  1  0
  4  5  1  6
  6  7  2  0
  8  6  1  0
  8  9  1  0
  9 13  1  0
  9 10  1  1
 10 11  1  0
 11 12  2  0
 11 15  1  0
 13 14  2  0
 17 16  1  1
 17 18  1  0
 19 17  1  0
 20 19  1  6
 20 22  1  0
 21 13  1  0
 21 20  1  0
 22 24  1  0
 23 22  2  0
M  END
$$$$
