TDL.pdb
     RDKit          3D

 24 23  0  0  1  0  0  0  0  0999 V2000
   12.5177  -10.8731  -14.4002 C   0  0  0  0  0  0  0  0  0  0  0  0
   13.0316  -12.2207  -13.9486 C   0  0  1  0  0  0  0  0  0  0  0  0
   12.3022  -13.2047  -14.6150 O   0  0  0  0  0  0  0  0  0  0  0  0
   14.4991  -12.3753  -14.2886 C   0  0  2  0  0  0  0  0  0  0  0  0
   14.9529  -13.6645  -13.8355 N   0  0  0  0  0  0  0  0  0  0  0  0
   15.2926  -11.3341  -13.5868 C   0  0  0  0  0  0  0  0  0  0  0  0
   15.4183  -11.4388  -12.3537 O   0  0  0  0  0  0  0  0  0  0  0  0
   15.9007  -10.2450  -14.2616 N   0  0  0  0  0  0  0  0  0  0  0  0
   16.6810   -9.2278  -13.5875 C   0  0  1  0  0  0  0  0  0  0  0  0
   17.6703   -8.5599  -14.4881 C   0  0  0  0  0  0  0  0  0  0  0  0
   18.4990   -7.5491  -13.8622 C   0  0  0  0  0  0  0  0  0  0  0  0
   18.5552   -7.4614  -12.6168 O   0  0  0  0  0  0  0  0  0  0  0  0
   15.8197   -8.2670  -12.8495 C   0  0  0  0  0  0  0  0  0  0  0  0
   14.8517   -7.6654  -13.3899 O   0  0  0  0  0  0  0  0  0  0  0  0
   19.2425   -6.6631  -14.6117 O   0  0  0  0  0  0  0  0  0  0  0  0
   15.2807   -6.6905   -6.9140 C   0  0  0  0  0  0  0  0  0  0  0  0
   14.7197   -6.4229   -8.3207 C   0  0  2  0  0  0  0  0  0  0  0  0
   13.2452   -6.5829   -8.2399 C   0  0  0  0  0  0  0  0  0  0  0  0
   15.4420   -7.3196   -9.2559 C   0  0  0  0  0  0  0  0  0  0  0  0
   15.2954   -7.0452  -10.7072 C   0  0  2  0  0  0  0  0  0  0  0  0
   16.0536   -7.9782  -11.4756 N   0  0  0  0  0  0  0  0  0  0  0  0
   15.8546   -5.6640  -10.9403 C   0  0  0  0  0  0  0  0  0  0  0  0
   17.0773   -5.4519  -11.1291 O   0  0  0  0  0  0  0  0  0  0  0  0
   15.0019   -4.5723  -10.9501 O   0  0  0  0  0  0  0  0  0  0  0  0
  2  1  1  6
  2  4  1  0
  3  2  1  0
  4  6  1  0
  4  5  1  1
  6  7  2  0
  8  6  1  0
  8  9  1  0
  9 13  1  0
  9 10  1  6
 10 11  1  0
 11 12  2  0
 11 15  1  0
 13 14  2  0
 17 16  1  1
 17 18  1  0
 19 17  1  0
 20 19  1  1
 20 22  1  0
 21 13  1  0
 21 20  1  0
 22 24  1  0
 23 22  2  0
M  END
$$$$
