TDL.pdb
     RDKit          3D

 24 23  0  0  1  0  0  0  0  0999 V2000
   13.9243  -12.3030  -15.9618 C   0  0  0  0  0  0  0  0  0  0  0  0
   15.0677  -11.3147  -15.9605 C   0  0  1  0  0  0  0  0  0  0  0  0
   16.1012  -11.8532  -15.1950 O   0  0  0  0  0  0  0  0  0  0  0  0
   15.5678  -11.0729  -17.3692 C   0  0  2  0  0  0  0  0  0  0  0  0
   16.0872  -12.3059  -17.9013 N   0  0  0  0  0  0  0  0  0  0  0  0
   16.6705  -10.0779  -17.3501 C   0  0  0  0  0  0  0  0  0  0  0  0
   17.8269  -10.4954  -17.5389 O   0  0  0  0  0  0  0  0  0  0  0  0
   16.4543   -8.6940  -17.1281 N   0  0  0  0  0  0  0  0  0  0  0  0
   17.5245   -7.7187  -17.0873 C   0  0  1  0  0  0  0  0  0  0  0  0
   17.0492   -6.3214  -17.3266 C   0  0  0  0  0  0  0  0  0  0  0  0
   18.0891   -5.3155  -17.4105 C   0  0  0  0  0  0  0  0  0  0  0  0
   19.1189   -5.5271  -18.0862 O   0  0  0  0  0  0  0  0  0  0  0  0
   18.3504   -7.8535  -15.8588 C   0  0  0  0  0  0  0  0  0  0  0  0
   17.8687   -8.2125  -14.7497 O   0  0  0  0  0  0  0  0  0  0  0  0
   17.9766   -4.1081  -16.7554 O   0  0  0  0  0  0  0  0  0  0  0  0
   23.3670  -10.3773  -14.3953 C   0  0  0  0  0  0  0  0  0  0  0  0
   22.4701   -9.2371  -13.8845 C   0  0  2  0  0  0  0  0  0  0  0  0
   21.8972   -9.6805  -12.5878 C   0  0  0  0  0  0  0  0  0  0  0  0
   21.5095   -8.9189  -14.9690 C   0  0  0  0  0  0  0  0  0  0  0  0
   20.6195   -7.7488  -14.7643 C   0  0  2  0  0  0  0  0  0  0  0  0
   19.7467   -7.5781  -15.8800 N   0  0  0  0  0  0  0  0  0  0  0  0
   21.5168   -6.5404  -14.6669 C   0  0  0  0  0  0  0  0  0  0  0  0
   22.2829   -6.3431  -13.6924 O   0  0  0  0  0  0  0  0  0  0  0  0
   21.5103   -5.5987  -15.6828 O   0  0  0  0  0  0  0  0  0  0  0  0
  2  1  1  6
  2  4  1  0
  3  2  1  0
  4  6  1  0
  4  5  1  1
  6  7  2  0
  8  6  1  0
  8  9  1  0
  9 13  1  0
  9 10  1  1
 10 11  1  0
 11 12  2  0
 11 15  1  0
 13 14  2  0
 17 16  1  6
 17 18  1  0
 19 17  1  0
 20 19  1  6
 20 22  1  0
 21 13  1  0
 21 20  1  0
 22 24  1  0
 23 22  2  0
M  END
$$$$
