TDL.pdb
     RDKit          3D

 24 23  0  0  1  0  0  0  0  0999 V2000
   14.9245  -11.5731  -15.0312 C   0  0  0  0  0  0  0  0  0  0  0  0
   16.0259  -10.5504  -15.1893 C   0  0  1  0  0  0  0  0  0  0  0  0
   17.0075  -10.8245  -14.2377 O   0  0  0  0  0  0  0  0  0  0  0  0
   16.6385  -10.6327  -16.5717 C   0  0  2  0  0  0  0  0  0  0  0  0
   17.2547  -11.9236  -16.7363 N   0  0  0  0  0  0  0  0  0  0  0  0
   17.6922   -9.5963  -16.7199 C   0  0  0  0  0  0  0  0  0  0  0  0
   18.8565   -9.9833  -16.9243 O   0  0  0  0  0  0  0  0  0  0  0  0
   17.4215   -8.2066  -16.6380 N   0  0  0  0  0  0  0  0  0  0  0  0
   18.4465   -7.1892  -16.7487 C   0  0  1  0  0  0  0  0  0  0  0  0
   17.9241   -5.8902  -17.2737 C   0  0  0  0  0  0  0  0  0  0  0  0
   17.2623   -5.9598  -18.5610 C   0  0  0  0  0  0  0  0  0  0  0  0
   17.8206   -6.5207  -19.5283 O   0  0  0  0  0  0  0  0  0  0  0  0
   19.2198   -7.0421  -15.4877 C   0  0  0  0  0  0  0  0  0  0  0  0
   18.6684   -6.9486  -14.3571 O   0  0  0  0  0  0  0  0  0  0  0  0
   16.0111   -5.4160  -18.7571 O   0  0  0  0  0  0  0  0  0  0  0  0
   22.0065   -9.8763  -13.7332 C   0  0  0  0  0  0  0  0  0  0  0  0
   22.6457   -9.1596  -14.9345 C   0  0  2  0  0  0  0  0  0  0  0  0
   23.9214   -9.8598  -15.2318 C   0  0  0  0  0  0  0  0  0  0  0  0
   22.7350   -7.7205  -14.5863 C   0  0  0  0  0  0  0  0  0  0  0  0
   21.4601   -7.0045  -14.3314 C   0  0  2  0  0  0  0  0  0  0  0  0
   20.6424   -6.9994  -15.5007 N   0  0  0  0  0  0  0  0  0  0  0  0
   21.8284   -5.5807  -13.9965 C   0  0  0  0  0  0  0  0  0  0  0  0
   21.6758   -4.6338  -14.8063 O   0  0  0  0  0  0  0  0  0  0  0  0
   22.3577   -5.2849  -12.7510 O   0  0  0  0  0  0  0  0  0  0  0  0
  2  1  1  6
  2  4  1  0
  3  2  1  0
  4  6  1  0
  4  5  1  1
  6  7  2  0
  8  6  1  0
  8  9  1  0
  9 13  1  0
  9 10  1  1
 10 11  1  0
 11 12  2  0
 11 15  1  0
 13 14  2  0
 17 16  1  1
 17 18  1  0
 19 17  1  0
 20 19  1  6
 20 22  1  0
 21 13  1  0
 21 20  1  0
 22 24  1  0
 23 22  2  0
M  END
$$$$
