TDL.pdb
     RDKit          3D

 24 23  0  0  1  0  0  0  0  0999 V2000
   22.6155  -24.8516  -20.3590 C   0  0  0  0  0  0  0  0  0  0  0  0
   21.9210  -24.1844  -19.1943 C   0  0  1  0  0  0  0  0  0  0  0  0
   22.4128  -22.8841  -19.0874 O   0  0  0  0  0  0  0  0  0  0  0  0
   20.4249  -24.1317  -19.4221 C   0  0  2  0  0  0  0  0  0  0  0  0
   20.1409  -23.1720  -20.4573 N   0  0  0  0  0  0  0  0  0  0  0  0
   19.7402  -23.6876  -18.1810 C   0  0  0  0  0  0  0  0  0  0  0  0
   19.9436  -24.3440  -17.1441 O   0  0  0  0  0  0  0  0  0  0  0  0
   18.8786  -22.5620  -18.1381 N   0  0  0  0  0  0  0  0  0  0  0  0
   18.2283  -22.1043  -16.9275 C   0  0  1  0  0  0  0  0  0  0  0  0
   18.2278  -20.6150  -16.7934 C   0  0  0  0  0  0  0  0  0  0  0  0
   19.5288  -20.0066  -16.6004 C   0  0  0  0  0  0  0  0  0  0  0  0
   20.3561  -20.5207  -15.8173 O   0  0  0  0  0  0  0  0  0  0  0  0
   16.8799  -22.7072  -16.7608 C   0  0  0  0  0  0  0  0  0  0  0  0
   16.0469  -22.7853  -17.7048 O   0  0  0  0  0  0  0  0  0  0  0  0
   19.8907  -18.8555  -17.2663 O   0  0  0  0  0  0  0  0  0  0  0  0
   14.1516  -26.0024  -12.3243 C   0  0  0  0  0  0  0  0  0  0  0  0
   14.0078  -25.4878  -13.7664 C   0  0  2  0  0  0  0  0  0  0  0  0
   13.7356  -26.6684  -14.6256 C   0  0  0  0  0  0  0  0  0  0  0  0
   15.2279  -24.7017  -14.0725 C   0  0  0  0  0  0  0  0  0  0  0  0
   15.1818  -23.8141  -15.2612 C   0  0  2  0  0  0  0  0  0  0  0  0
   16.4615  -23.2325  -15.5059 N   0  0  0  0  0  0  0  0  0  0  0  0
   14.2071  -22.7107  -14.9339 C   0  0  0  0  0  0  0  0  0  0  0  0
   14.4752  -21.7887  -14.1253 O   0  0  0  0  0  0  0  0  0  0  0  0
   12.9610  -22.6956  -15.5388 O   0  0  0  0  0  0  0  0  0  0  0  0
  2  1  1  6
  2  4  1  0
  3  2  1  0
  4  6  1  0
  4  5  1  6
  6  7  2  0
  8  6  1  0
  8  9  1  0
  9 13  1  0
  9 10  1  6
 10 11  1  0
 11 12  2  0
 11 15  1  0
 13 14  2  0
 17 16  1  1
 17 18  1  0
 19 17  1  0
 20 19  1  1
 20 22  1  0
 21 13  1  0
 21 20  1  0
 22 24  1  0
 23 22  2  0
M  END
$$$$
