TDL.pdb
     RDKit          3D

 24 23  0  0  1  0  0  0  0  0999 V2000
   16.1029   -9.8055  -17.7311 C   0  0  0  0  0  0  0  0  0  0  0  0
   15.9964  -10.5976  -16.4484 C   0  0  1  0  0  0  0  0  0  0  0  0
   15.4864  -11.8571  -16.7615 O   0  0  0  0  0  0  0  0  0  0  0  0
   17.3574  -10.7595  -15.8046 C   0  0  2  0  0  0  0  0  0  0  0  0
   17.2273  -11.5854  -14.6324 N   0  0  0  0  0  0  0  0  0  0  0  0
   17.8762   -9.4341  -15.3799 C   0  0  0  0  0  0  0  0  0  0  0  0
   17.2594   -8.8348  -14.4811 O   0  0  0  0  0  0  0  0  0  0  0  0
   19.0291   -8.8393  -15.9530 N   0  0  0  0  0  0  0  0  0  0  0  0
   19.5933   -7.5891  -15.4877 C   0  0  1  0  0  0  0  0  0  0  0  0
   21.0764   -7.6502  -15.3075 C   0  0  0  0  0  0  0  0  0  0  0  0
   21.5390   -8.5152  -14.2407 C   0  0  0  0  0  0  0  0  0  0  0  0
   20.9574   -8.5196  -13.1345 O   0  0  0  0  0  0  0  0  0  0  0  0
   19.1518   -6.4385  -16.3190 C   0  0  0  0  0  0  0  0  0  0  0  0
   19.2573   -6.4257  -17.5758 O   0  0  0  0  0  0  0  0  0  0  0  0
   22.6221   -9.3504  -14.4104 O   0  0  0  0  0  0  0  0  0  0  0  0
   15.4394   -4.3461  -17.5573 C   0  0  0  0  0  0  0  0  0  0  0  0
   15.7516   -4.2811  -16.0528 C   0  0  2  0  0  0  0  0  0  0  0  0
   14.5366   -3.7577  -15.3775 C   0  0  0  0  0  0  0  0  0  0  0  0
   16.9977   -3.4909  -15.9000 C   0  0  0  0  0  0  0  0  0  0  0  0
   18.2481   -4.0874  -16.4327 C   0  0  2  0  0  0  0  0  0  0  0  0
   18.5802   -5.2795  -15.7225 N   0  0  0  0  0  0  0  0  0  0  0  0
   19.3388   -3.0714  -16.2026 C   0  0  0  0  0  0  0  0  0  0  0  0
   20.2351   -3.2249  -15.3373 O   0  0  0  0  0  0  0  0  0  0  0  0
   19.3708   -1.9159  -16.9660 O   0  0  0  0  0  0  0  0  0  0  0  0
  2  1  1  6
  2  4  1  0
  3  2  1  0
  4  6  1  0
  4  5  1  1
  6  7  2  0
  8  6  1  0
  8  9  1  0
  9 13  1  0
  9 10  1  6
 10 11  1  0
 11 12  2  0
 11 15  1  0
 13 14  2  0
 17 16  1  6
 17 18  1  0
 19 17  1  0
 20 19  1  1
 20 22  1  0
 21 13  1  0
 21 20  1  0
 22 24  1  0
 23 22  2  0
M  END
$$$$
