TDL.pdb
     RDKit          3D

 24 23  0  0  1  0  0  0  0  0999 V2000
   13.4665  -11.3416  -14.4788 C   0  0  0  0  0  0  0  0  0  0  0  0
   14.8023  -10.7981  -14.9309 C   0  0  1  0  0  0  0  0  0  0  0  0
   15.7670  -11.2074  -14.0111 O   0  0  0  0  0  0  0  0  0  0  0  0
   15.1630  -11.3350  -16.3001 C   0  0  2  0  0  0  0  0  0  0  0  0
   15.3409  -12.7612  -16.2135 N   0  0  0  0  0  0  0  0  0  0  0  0
   16.4441  -10.7371  -16.7558 C   0  0  0  0  0  0  0  0  0  0  0  0
   17.3871  -11.5111  -16.9989 O   0  0  0  0  0  0  0  0  0  0  0  0
   16.6259   -9.3403  -16.9202 N   0  0  0  0  0  0  0  0  0  0  0  0
   17.8758   -8.7462  -17.3480 C   0  0  1  0  0  0  0  0  0  0  0  0
   17.7336   -7.9150  -18.5828 C   0  0  0  0  0  0  0  0  0  0  0  0
   18.9606   -7.3284  -19.0834 C   0  0  0  0  0  0  0  0  0  0  0  0
   19.0912   -6.0866  -19.1352 O   0  0  0  0  0  0  0  0  0  0  0  0
   18.5586   -8.0321  -16.2374 C   0  0  0  0  0  0  0  0  0  0  0  0
   17.9373   -7.3245  -15.3982 O   0  0  0  0  0  0  0  0  0  0  0  0
   20.0097   -8.1121  -19.5130 O   0  0  0  0  0  0  0  0  0  0  0  0
   21.4675   -9.5864  -13.0392 C   0  0  0  0  0  0  0  0  0  0  0  0
   22.1262   -9.5152  -14.4271 C   0  0  2  0  0  0  0  0  0  0  0  0
   23.4841  -10.1027  -14.2960 C   0  0  0  0  0  0  0  0  0  0  0  0
   22.0458   -8.1037  -14.8759 C   0  0  0  0  0  0  0  0  0  0  0  0
   20.6920   -7.5080  -14.9998 C   0  0  2  0  0  0  0  0  0  0  0  0
   19.9694   -8.1167  -16.0690 N   0  0  0  0  0  0  0  0  0  0  0  0
   20.8944   -6.0494  -15.3259 C   0  0  0  0  0  0  0  0  0  0  0  0
   20.6371   -5.5664  -16.4556 O   0  0  0  0  0  0  0  0  0  0  0  0
   21.3829   -5.1915  -14.3541 O   0  0  0  0  0  0  0  0  0  0  0  0
  2  1  1  1
  2  4  1  0
  3  2  1  0
  4  6  1  0
  4  5  1  1
  6  7  2  0
  8  6  1  0
  8  9  1  0
  9 13  1  0
  9 10  1  6
 10 11  1  0
 11 12  2  0
 11 15  1  0
 13 14  2  0
 17 16  1  1
 17 18  1  0
 19 17  1  0
 20 19  1  6
 20 22  1  0
 21 13  1  0
 21 20  1  0
 22 24  1  0
 23 22  2  0
M  END
$$$$
