TDL.pdb
     RDKit          3D

 24 23  0  0  1  0  0  0  0  0999 V2000
   14.1591  -13.4601  -15.1959 C   0  0  0  0  0  0  0  0  0  0  0  0
   15.2345  -12.4207  -15.4135 C   0  0  1  0  0  0  0  0  0  0  0  0
   16.3642  -12.8139  -14.6969 O   0  0  0  0  0  0  0  0  0  0  0  0
   15.5897  -12.3172  -16.8818 C   0  0  2  0  0  0  0  0  0  0  0  0
   16.1630  -13.5648  -17.3155 N   0  0  0  0  0  0  0  0  0  0  0  0
   16.6027  -11.2496  -17.0826 C   0  0  0  0  0  0  0  0  0  0  0  0
   17.7709  -11.6016  -17.3248 O   0  0  0  0  0  0  0  0  0  0  0  0
   16.2897   -9.8683  -17.0090 N   0  0  0  0  0  0  0  0  0  0  0  0
   17.2756   -8.8199  -17.1733 C   0  0  1  0  0  0  0  0  0  0  0  0
   16.6695   -7.5007  -17.5313 C   0  0  0  0  0  0  0  0  0  0  0  0
   17.6124   -6.4259  -17.7679 C   0  0  0  0  0  0  0  0  0  0  0  0
   18.6201   -6.6160  -18.4822 O   0  0  0  0  0  0  0  0  0  0  0  0
   18.2012   -8.7429  -16.0127 C   0  0  0  0  0  0  0  0  0  0  0  0
   17.8078   -8.8492  -14.8191 O   0  0  0  0  0  0  0  0  0  0  0  0
   17.4296   -5.1748  -17.2193 O   0  0  0  0  0  0  0  0  0  0  0  0
   23.8328  -10.4263  -14.9209 C   0  0  0  0  0  0  0  0  0  0  0  0
   22.7440   -9.4903  -14.3696 C   0  0  2  0  0  0  0  0  0  0  0  0
   22.3916   -9.9825  -13.0133 C   0  0  0  0  0  0  0  0  0  0  0  0
   21.6533   -9.4513  -15.3741 C   0  0  0  0  0  0  0  0  0  0  0  0
   20.5533   -8.4818  -15.1429 C   0  0  2  0  0  0  0  0  0  0  0  0
   19.5977   -8.5421  -16.2006 N   0  0  0  0  0  0  0  0  0  0  0  0
   21.1837   -7.1116  -15.1423 C   0  0  0  0  0  0  0  0  0  0  0  0
   21.2356   -6.3901  -16.1682 O   0  0  0  0  0  0  0  0  0  0  0  0
   21.7330   -6.6107  -13.9734 O   0  0  0  0  0  0  0  0  0  0  0  0
  2  1  1  6
  2  4  1  0
  3  2  1  0
  4  6  1  0
  4  5  1  1
  6  7  2  0
  8  6  1  0
  8  9  1  0
  9 13  1  0
  9 10  1  1
 10 11  1  0
 11 12  2  0
 11 15  1  0
 13 14  2  0
 17 16  1  6
 17 18  1  0
 19 17  1  0
 20 19  1  6
 20 22  1  0
 21 13  1  0
 21 20  1  0
 22 24  1  0
 23 22  2  0
M  END
$$$$
