TDL.pdb
     RDKit          3D

 24 23  0  0  1  0  0  0  0  0999 V2000
   17.5735   -8.9543  -19.2112 C   0  0  0  0  0  0  0  0  0  0  0  0
   18.5300   -9.9128  -19.8825 C   0  0  1  0  0  0  0  0  0  0  0  0
   17.7891  -10.7405  -20.7251 O   0  0  0  0  0  0  0  0  0  0  0  0
   19.5550   -9.1588  -20.7035 C   0  0  2  0  0  0  0  0  0  0  0  0
   20.4479  -10.1036  -21.3227 N   0  0  0  0  0  0  0  0  0  0  0  0
   20.3586   -8.2751  -19.8205 C   0  0  0  0  0  0  0  0  0  0  0  0
   21.2945   -8.7923  -19.1850 O   0  0  0  0  0  0  0  0  0  0  0  0
   20.1004   -6.8877  -19.6796 N   0  0  0  0  0  0  0  0  0  0  0  0
   20.8230   -6.0341  -18.7592 C   0  0  1  0  0  0  0  0  0  0  0  0
   20.5755   -4.5788  -18.9975 C   0  0  0  0  0  0  0  0  0  0  0  0
   21.3293   -3.6727  -18.1543 C   0  0  0  0  0  0  0  0  0  0  0  0
   22.5741   -3.6118  -18.2477 O   0  0  0  0  0  0  0  0  0  0  0  0
   20.6115   -6.4397  -17.3449 C   0  0  0  0  0  0  0  0  0  0  0  0
   19.4828   -6.7770  -16.8942 O   0  0  0  0  0  0  0  0  0  0  0  0
   20.7047   -2.8590  -17.2337 O   0  0  0  0  0  0  0  0  0  0  0  0
   23.0364  -10.1111  -13.5830 C   0  0  0  0  0  0  0  0  0  0  0  0
   22.2045   -8.8186  -13.5297 C   0  0  2  0  0  0  0  0  0  0  0  0
   20.8762   -9.1777  -12.9704 C   0  0  0  0  0  0  0  0  0  0  0  0
   22.2230   -8.2318  -14.8919 C   0  0  0  0  0  0  0  0  0  0  0  0
   21.5859   -6.9025  -15.0659 C   0  0  2  0  0  0  0  0  0  0  0  0
   21.6930   -6.4657  -16.4200 N   0  0  0  0  0  0  0  0  0  0  0  0
   22.3515   -5.9430  -14.1895 C   0  0  0  0  0  0  0  0  0  0  0  0
   23.3184   -5.2637  -14.6131 O   0  0  0  0  0  0  0  0  0  0  0  0
   21.9894   -5.7906  -12.8611 O   0  0  0  0  0  0  0  0  0  0  0  0
  2  1  1  6
  2  4  1  0
  3  2  1  0
  4  6  1  0
  4  5  1  1
  6  7  2  0
  8  6  1  0
  8  9  1  0
  9 13  1  0
  9 10  1  1
 10 11  1  0
 11 12  2  0
 11 15  1  0
 13 14  2  0
 17 16  1  6
 17 18  1  0
 19 17  1  0
 20 19  1  6
 20 22  1  0
 21 13  1  0
 21 20  1  0
 22 24  1  0
 23 22  2  0
M  END
$$$$
