TDL.pdb
     RDKit          3D

 24 23  0  0  1  0  0  0  0  0999 V2000
   17.0488  -13.3155  -14.7903 C   0  0  0  0  0  0  0  0  0  0  0  0
   17.1862  -13.9726  -16.1443 C   0  0  1  0  0  0  0  0  0  0  0  0
   16.5256  -15.1996  -16.0963 O   0  0  0  0  0  0  0  0  0  0  0  0
   16.5594  -13.1135  -17.2223 C   0  0  2  0  0  0  0  0  0  0  0  0
   16.7096  -13.7718  -18.4941 N   0  0  0  0  0  0  0  0  0  0  0  0
   17.2578  -11.8046  -17.2950 C   0  0  0  0  0  0  0  0  0  0  0  0
   18.4424  -11.8037  -17.6744 O   0  0  0  0  0  0  0  0  0  0  0  0
   16.6322  -10.5786  -16.9531 N   0  0  0  0  0  0  0  0  0  0  0  0
   17.3322   -9.3109  -16.9206 C   0  0  1  0  0  0  0  0  0  0  0  0
   16.4116   -8.1348  -16.9922 C   0  0  0  0  0  0  0  0  0  0  0  0
   17.0581   -6.8379  -17.0062 C   0  0  0  0  0  0  0  0  0  0  0  0
   16.9233   -6.0550  -16.0414 O   0  0  0  0  0  0  0  0  0  0  0  0
   18.2903   -9.2359  -15.7866 C   0  0  0  0  0  0  0  0  0  0  0  0
   17.9704   -9.5333  -14.6033 O   0  0  0  0  0  0  0  0  0  0  0  0
   17.8328   -6.4316  -18.0713 O   0  0  0  0  0  0  0  0  0  0  0  0
   24.0328  -10.5502  -15.0918 C   0  0  0  0  0  0  0  0  0  0  0  0
   22.9388   -9.7015  -14.4223 C   0  0  2  0  0  0  0  0  0  0  0  0
   22.6808  -10.2974  -13.0865 C   0  0  0  0  0  0  0  0  0  0  0  0
   21.7943   -9.6438  -15.3642 C   0  0  0  0  0  0  0  0  0  0  0  0
   20.6370   -8.8006  -14.9735 C   0  0  2  0  0  0  0  0  0  0  0  0
   19.6354   -8.8173  -15.9896 N   0  0  0  0  0  0  0  0  0  0  0  0
   21.1599   -7.3925  -14.8374 C   0  0  0  0  0  0  0  0  0  0  0  0
   21.1196   -6.5617  -15.7775 O   0  0  0  0  0  0  0  0  0  0  0  0
   21.7107   -6.9795  -13.6353 O   0  0  0  0  0  0  0  0  0  0  0  0
  2  1  1  1
  2  4  1  0
  3  2  1  0
  4  6  1  0
  4  5  1  6
  6  7  2  0
  8  6  1  0
  8  9  1  0
  9 13  1  0
  9 10  1  1
 10 11  1  0
 11 12  2  0
 11 15  1  0
 13 14  2  0
 17 16  1  6
 17 18  1  0
 19 17  1  0
 20 19  1  6
 20 22  1  0
 21 13  1  0
 21 20  1  0
 22 24  1  0
 23 22  2  0
M  END
$$$$
