TDL.pdb
     RDKit          3D

 24 23  0  0  1  0  0  0  0  0999 V2000
   28.9795  -20.9521  -15.2518 C   0  0  0  0  0  0  0  0  0  0  0  0
   28.3808  -20.5851  -13.9135 C   0  0  1  0  0  0  0  0  0  0  0  0
   29.1391  -19.5473  -13.3729 O   0  0  0  0  0  0  0  0  0  0  0  0
   26.9490  -20.1202  -14.0771 C   0  0  2  0  0  0  0  0  0  0  0  0
   26.9310  -18.9310  -14.8888 N   0  0  0  0  0  0  0  0  0  0  0  0
   26.3730  -19.7818  -12.7504 C   0  0  0  0  0  0  0  0  0  0  0  0
   26.5080  -18.6138  -12.3444 O   0  0  0  0  0  0  0  0  0  0  0  0
   25.6871  -20.7269  -11.9456 N   0  0  0  0  0  0  0  0  0  0  0  0
   25.1500  -20.4156  -10.6369 C   0  0  1  0  0  0  0  0  0  0  0  0
   23.7408  -20.8828  -10.4591 C   0  0  0  0  0  0  0  0  0  0  0  0
   22.7461  -20.1721  -11.2373 C   0  0  0  0  0  0  0  0  0  0  0  0
   23.0777  -19.1985  -11.9474 O   0  0  0  0  0  0  0  0  0  0  0  0
   26.0561  -20.8607   -9.5458 C   0  0  0  0  0  0  0  0  0  0  0  0
   26.6873  -21.9520   -9.5868 O   0  0  0  0  0  0  0  0  0  0  0  0
   21.4188  -20.5428  -11.2192 O   0  0  0  0  0  0  0  0  0  0  0  0
   28.6113  -18.2258   -4.6282 C   0  0  0  0  0  0  0  0  0  0  0  0
   28.3275  -19.5882   -5.2828 C   0  0  2  0  0  0  0  0  0  0  0  0
   29.6271  -20.2990   -5.3915 C   0  0  0  0  0  0  0  0  0  0  0  0
   27.6006  -19.3210   -6.5479 C   0  0  0  0  0  0  0  0  0  0  0  0
   26.9758  -20.4825   -7.2289 C   0  0  2  0  0  0  0  0  0  0  0  0
   26.2549  -20.0607   -8.3856 N   0  0  0  0  0  0  0  0  0  0  0  0
   26.0002  -21.0807   -6.2463 C   0  0  0  0  0  0  0  0  0  0  0  0
   24.7642  -20.8705   -6.3067 O   0  0  0  0  0  0  0  0  0  0  0  0
   26.4664  -21.8974   -5.2291 O   0  0  0  0  0  0  0  0  0  0  0  0
  2  1  1  6
  2  4  1  0
  3  2  1  0
  4  6  1  0
  4  5  1  6
  6  7  2  0
  8  6  1  0
  8  9  1  0
  9 13  1  0
  9 10  1  1
 10 11  1  0
 11 12  2  0
 11 15  1  0
 13 14  2  0
 17 16  1  6
 17 18  1  0
 19 17  1  0
 20 19  1  1
 20 22  1  0
 21 13  1  0
 21 20  1  0
 22 24  1  0
 23 22  2  0
M  END
$$$$
