NDD.pdb
     RDKit          3D

 25 24  0  0  1  0  0  0  0  0999 V2000
    5.4309  -14.5839   12.3135 N   0  0  0  0  0  0  0  0  0  0  0  0
    6.6527  -14.8266   12.9941 C   0  0  0  0  0  0  0  0  0  0  0  0
    7.2372  -15.9089   12.7782 O   0  0  0  0  0  0  0  0  0  0  0  0
    7.1582  -13.7839   13.9169 C   0  0  0  0  0  0  0  0  0  0  0  0
    8.5355  -14.1228   14.4418 C   0  0  2  0  0  0  0  0  0  0  0  0
    9.3318  -14.6137   13.3493 N   0  0  0  0  0  0  0  0  0  0  0  0
    8.3331  -15.1675   15.5050 C   0  0  0  0  0  0  0  0  0  0  0  0
    7.7436  -14.7767   16.5434 O   0  0  0  0  0  0  0  0  0  0  0  0
    8.7629  -16.4823   15.3666 N   0  0  0  0  0  0  0  0  0  0  0  0
    8.6043  -17.4345   16.4698 C   0  0  1  0  0  0  0  0  0  0  0  0
    7.6793  -18.5430   16.0686 C   0  0  0  0  0  0  0  0  0  0  0  0
    7.4273  -19.5669   17.0926 C   0  0  0  0  0  0  0  0  0  0  0  0
    7.9937  -19.5301   18.2033 O   0  0  0  0  0  0  0  0  0  0  0  0
    9.9427  -18.0140   16.7735 C   0  0  0  0  0  0  0  0  0  0  0  0
   10.8907  -17.8399   16.0053 O   0  0  0  0  0  0  0  0  0  0  0  0
    6.5434  -20.6286   16.8713 O   0  0  0  0  0  0  0  0  0  0  0  0
   10.1778  -18.7872   17.9529 N   0  0  0  0  0  0  0  0  0  0  0  0
   11.5027  -19.0017   18.4878 C   0  0  1  0  0  0  0  0  0  0  0  0
   12.2977  -17.7323   18.6495 C   0  0  0  0  0  0  0  0  0  0  0  0
   13.6687  -17.9902   19.1388 C   0  0  0  0  0  0  0  0  0  0  0  0
   14.6151  -18.2285   18.3560 O   0  0  0  0  0  0  0  0  0  0  0  0
   11.4524  -19.7725   19.7667 C   0  0  0  0  0  0  0  0  0  0  0  0
   12.2068  -20.7608   19.9543 O   0  0  0  0  0  0  0  0  0  0  0  0
   13.9324  -17.9715   20.4978 O   0  0  0  0  0  0  0  0  0  0  0  0
   10.5772  -19.4256   20.7831 O   0  0  0  0  0  0  0  0  0  0  0  0
  1  2  1  0
  2  3  2  0
  4  2  1  0
  5  4  1  0
  5  6  1  6
  7  5  1  0
  7  8  2  0
  9  7  1  0
 10  9  1  0
 10 11  1  6
 12 11  1  0
 13 12  2  0
 14 10  1  0
 15 14  2  0
 16 12  1  0
 17 14  1  0
 18 17  1  0
 18 22  1  0
 18 19  1  1
 20 21  2  0
 20 19  1  0
 22 25  1  0
 23 22  2  0
 24 20  1  0
M  END
$$$$
