NDD.pdb
     RDKit          3D

 25 24  0  0  1  0  0  0  0  0999 V2000
    7.4672  -12.3878   19.8070 N   0  0  0  0  0  0  0  0  0  0  0  0
    7.9252  -13.4904   19.0393 C   0  0  0  0  0  0  0  0  0  0  0  0
    7.9140  -13.3815   17.7952 O   0  0  0  0  0  0  0  0  0  0  0  0
    8.3871  -14.6999   19.7591 C   0  0  0  0  0  0  0  0  0  0  0  0
    8.8037  -15.7943   18.8020 C   0  0  2  0  0  0  0  0  0  0  0  0
    7.6604  -16.1714   18.0150 N   0  0  0  0  0  0  0  0  0  0  0  0
    9.2996  -16.9300   19.6547 C   0  0  0  0  0  0  0  0  0  0  0  0
    8.4356  -17.4768   20.3848 O   0  0  0  0  0  0  0  0  0  0  0  0
   10.6216  -17.3598   19.6498 N   0  0  0  0  0  0  0  0  0  0  0  0
   10.9937  -18.6220   20.2957 C   0  0  1  0  0  0  0  0  0  0  0  0
   12.0942  -19.2913   19.5300 C   0  0  0  0  0  0  0  0  0  0  0  0
   11.7068  -19.8856   18.2426 C   0  0  0  0  0  0  0  0  0  0  0  0
   10.6193  -20.4797   18.1007 O   0  0  0  0  0  0  0  0  0  0  0  0
   11.4856  -18.3097   21.6668 C   0  0  0  0  0  0  0  0  0  0  0  0
   12.1375  -17.2859   21.8814 O   0  0  0  0  0  0  0  0  0  0  0  0
   12.5367  -19.8139   17.1184 O   0  0  0  0  0  0  0  0  0  0  0  0
   11.2258  -19.1753   22.7746 N   0  0  0  0  0  0  0  0  0  0  0  0
   11.7163  -18.8996   24.1054 C   0  0  1  0  0  0  0  0  0  0  0  0
   10.6425  -18.9403   25.1614 C   0  0  0  0  0  0  0  0  0  0  0  0
   11.1877  -18.7379   26.5205 C   0  0  0  0  0  0  0  0  0  0  0  0
   12.3125  -18.2241   26.7109 O   0  0  0  0  0  0  0  0  0  0  0  0
   12.8552  -19.7990   24.4603 C   0  0  0  0  0  0  0  0  0  0  0  0
   13.0809  -20.8452   23.8002 O   0  0  0  0  0  0  0  0  0  0  0  0
   10.4476  -19.1208   27.6262 O   0  0  0  0  0  0  0  0  0  0  0  0
   13.6961  -19.5117   25.5232 O   0  0  0  0  0  0  0  0  0  0  0  0
  1  2  1  0
  2  3  2  0
  4  2  1  0
  5  4  1  0
  5  6  1  1
  7  5  1  0
  7  8  2  0
  9  7  1  0
 10  9  1  0
 10 11  1  6
 12 11  1  0
 13 12  2  0
 14 10  1  0
 15 14  2  0
 16 12  1  0
 17 14  1  0
 18 17  1  0
 18 22  1  0
 18 19  1  1
 20 21  2  0
 20 19  1  0
 22 25  1  0
 23 22  2  0
 24 20  1  0
M  END
$$$$
