NDD.pdb
     RDKit          3D

 25 24  0  0  1  0  0  0  0  0999 V2000
    6.8666  -12.2911   18.7033 N   0  0  0  0  0  0  0  0  0  0  0  0
    7.7840  -13.3655   18.8409 C   0  0  0  0  0  0  0  0  0  0  0  0
    8.7611  -13.4031   18.0640 O   0  0  0  0  0  0  0  0  0  0  0  0
    7.5267  -14.3742   19.8949 C   0  0  0  0  0  0  0  0  0  0  0  0
    8.7393  -15.2427   20.1447 C   0  0  2  0  0  0  0  0  0  0  0  0
    9.1855  -15.7760   18.8856 N   0  0  0  0  0  0  0  0  0  0  0  0
    8.2916  -16.3256   21.0879 C   0  0  0  0  0  0  0  0  0  0  0  0
    7.7879  -15.9289   22.1683 O   0  0  0  0  0  0  0  0  0  0  0  0
    8.4190  -17.6800   20.8015 N   0  0  0  0  0  0  0  0  0  0  0  0
    7.9591  -18.6876   21.7617 C   0  0  1  0  0  0  0  0  0  0  0  0
    7.3223  -19.8371   21.0415 C   0  0  0  0  0  0  0  0  0  0  0  0
    6.6006  -19.4966   19.8071 C   0  0  0  0  0  0  0  0  0  0  0  0
    5.5298  -18.8577   19.8340 O   0  0  0  0  0  0  0  0  0  0  0  0
    9.1474  -19.1889   22.5073 C   0  0  0  0  0  0  0  0  0  0  0  0
    9.0437  -20.1360   23.2892 O   0  0  0  0  0  0  0  0  0  0  0  0
    7.0784  -19.8720   18.5467 O   0  0  0  0  0  0  0  0  0  0  0  0
   10.4394  -18.5977   22.3490 N   0  0  0  0  0  0  0  0  0  0  0  0
   11.5769  -18.9954   23.1462 C   0  0  1  0  0  0  0  0  0  0  0  0
   12.9007  -18.6204   22.5324 C   0  0  0  0  0  0  0  0  0  0  0  0
   12.9121  -18.8150   21.0670 C   0  0  0  0  0  0  0  0  0  0  0  0
   13.3341  -17.9324   20.2871 O   0  0  0  0  0  0  0  0  0  0  0  0
   11.4658  -18.4797   24.5440 C   0  0  0  0  0  0  0  0  0  0  0  0
   10.5834  -17.6389   24.8531 O   0  0  0  0  0  0  0  0  0  0  0  0
   12.4473  -20.0005   20.5236 O   0  0  0  0  0  0  0  0  0  0  0  0
   12.3270  -18.9086   25.5408 O   0  0  0  0  0  0  0  0  0  0  0  0
  1  2  1  0
  2  3  2  0
  4  2  1  0
  5  4  1  0
  5  6  1  6
  7  5  1  0
  7  8  2  0
  9  7  1  0
 10  9  1  0
 10 11  1  6
 12 11  1  0
 13 12  2  0
 14 10  1  0
 15 14  2  0
 16 12  1  0
 17 14  1  0
 18 17  1  0
 18 22  1  0
 18 19  1  6
 20 21  2  0
 20 19  1  0
 22 25  1  0
 23 22  2  0
 24 20  1  0
M  END
$$$$
