NDD.pdb
     RDKit          3D

 25 24  0  0  1  0  0  0  0  0999 V2000
    6.1411  -13.0751   18.6040 N   0  0  0  0  0  0  0  0  0  0  0  0
    7.2785  -13.6368   17.9670 C   0  0  0  0  0  0  0  0  0  0  0  0
    7.0909  -14.5437   17.1291 O   0  0  0  0  0  0  0  0  0  0  0  0
    8.6150  -13.1143   18.3344 C   0  0  0  0  0  0  0  0  0  0  0  0
    9.6918  -14.1615   18.1580 C   0  0  2  0  0  0  0  0  0  0  0  0
    9.1001  -15.4595   18.3419 N   0  0  0  0  0  0  0  0  0  0  0  0
   10.7371  -13.8667   19.1988 C   0  0  0  0  0  0  0  0  0  0  0  0
   11.2489  -12.7206   19.1433 O   0  0  0  0  0  0  0  0  0  0  0  0
   11.1249  -14.7878   20.1651 N   0  0  0  0  0  0  0  0  0  0  0  0
   12.1913  -14.4606   21.1162 C   0  0  1  0  0  0  0  0  0  0  0  0
   11.8223  -14.9306   22.4904 C   0  0  0  0  0  0  0  0  0  0  0  0
   11.6649  -16.3835   22.6477 C   0  0  0  0  0  0  0  0  0  0  0  0
   12.5744  -17.0887   23.1286 O   0  0  0  0  0  0  0  0  0  0  0  0
   13.4276  -15.1703   20.6833 C   0  0  0  0  0  0  0  0  0  0  0  0
   13.3701  -16.3220   20.2482 O   0  0  0  0  0  0  0  0  0  0  0  0
   10.4913  -17.0432   22.2666 O   0  0  0  0  0  0  0  0  0  0  0  0
   14.7146  -14.5519   20.7561 N   0  0  0  0  0  0  0  0  0  0  0  0
   15.9270  -15.2380   20.3728 C   0  0  1  0  0  0  0  0  0  0  0  0
   16.8667  -14.3871   19.5587 C   0  0  0  0  0  0  0  0  0  0  0  0
   16.2834  -13.9997   18.2567 C   0  0  0  0  0  0  0  0  0  0  0  0
   16.4717  -12.8670   17.7598 O   0  0  0  0  0  0  0  0  0  0  0  0
   16.6199  -15.8191   21.5621 C   0  0  0  0  0  0  0  0  0  0  0  0
   17.5923  -16.6040   21.4224 O   0  0  0  0  0  0  0  0  0  0  0  0
   15.5043  -14.9019   17.5525 O   0  0  0  0  0  0  0  0  0  0  0  0
   16.2159  -15.5139   22.8517 O   0  0  0  0  0  0  0  0  0  0  0  0
  1  2  1  0
  2  3  2  0
  4  2  1  0
  5  4  1  0
  5  6  1  1
  7  5  1  0
  7  8  2  0
  9  7  1  0
 10  9  1  0
 10 11  1  1
 12 11  1  0
 13 12  2  0
 14 10  1  0
 15 14  2  0
 16 12  1  0
 17 14  1  0
 18 17  1  0
 18 22  1  0
 18 19  1  1
 20 21  2  0
 20 19  1  0
 22 25  1  0
 23 22  2  0
 24 20  1  0
M  END
$$$$
