NDD.pdb
     RDKit          3D

 25 24  0  0  1  0  0  0  0  0999 V2000
   17.8211  -12.8213   16.7987 N   0  0  0  0  0  0  0  0  0  0  0  0
   16.6251  -13.1708   16.1187 C   0  0  0  0  0  0  0  0  0  0  0  0
   16.6913  -13.3796   14.8892 O   0  0  0  0  0  0  0  0  0  0  0  0
   15.3746  -13.2660   16.9072 C   0  0  0  0  0  0  0  0  0  0  0  0
   15.2397  -14.6139   17.5797 C   0  0  2  0  0  0  0  0  0  0  0  0
   15.0416  -15.6126   16.5638 N   0  0  0  0  0  0  0  0  0  0  0  0
   14.0557  -14.5055   18.5012 C   0  0  0  0  0  0  0  0  0  0  0  0
   14.1294  -13.6053   19.3744 O   0  0  0  0  0  0  0  0  0  0  0  0
   12.9454  -15.3370   18.4090 N   0  0  0  0  0  0  0  0  0  0  0  0
   11.8740  -15.2570   19.4062 C   0  0  1  0  0  0  0  0  0  0  0  0
   10.6024  -15.8189   18.8468 C   0  0  0  0  0  0  0  0  0  0  0  0
   10.0019  -15.0612   17.7397 C   0  0  0  0  0  0  0  0  0  0  0  0
   10.5405  -14.0308   17.2882 O   0  0  0  0  0  0  0  0  0  0  0  0
   12.2803  -16.0727   20.5847 C   0  0  0  0  0  0  0  0  0  0  0  0
   12.4446  -17.2896   20.4787 O   0  0  0  0  0  0  0  0  0  0  0  0
    8.8009  -15.4579   17.1412 O   0  0  0  0  0  0  0  0  0  0  0  0
   12.4916  -15.4841   21.8703 N   0  0  0  0  0  0  0  0  0  0  0  0
   12.8572  -16.2650   23.0297 C   0  0  1  0  0  0  0  0  0  0  0  0
   14.0540  -15.7220   23.7662 C   0  0  0  0  0  0  0  0  0  0  0  0
   15.2683  -15.7052   22.9232 C   0  0  0  0  0  0  0  0  0  0  0  0
   15.5035  -16.6051   22.0863 O   0  0  0  0  0  0  0  0  0  0  0  0
   11.6943  -16.4452   23.9503 C   0  0  0  0  0  0  0  0  0  0  0  0
   10.6312  -15.7951   23.7814 O   0  0  0  0  0  0  0  0  0  0  0  0
   16.1825  -14.6730   23.0485 O   0  0  0  0  0  0  0  0  0  0  0  0
   11.7485  -17.3298   25.0151 O   0  0  0  0  0  0  0  0  0  0  0  0
  1  2  1  0
  2  3  2  0
  4  2  1  0
  5  4  1  0
  5  6  1  6
  7  5  1  0
  7  8  2  0
  9  7  1  0
 10  9  1  0
 10 11  1  6
 12 11  1  0
 13 12  2  0
 14 10  1  0
 15 14  2  0
 16 12  1  0
 17 14  1  0
 18 17  1  0
 18 22  1  0
 18 19  1  1
 20 21  2  0
 20 19  1  0
 22 25  1  0
 23 22  2  0
 24 20  1  0
M  END
$$$$
