NDD.pdb
     RDKit          3D

 25 24  0  0  1  0  0  0  0  0999 V2000
   14.6218  -16.4823   14.5534 N   0  0  0  0  0  0  0  0  0  0  0  0
   14.2231  -17.7642   14.0920 C   0  0  0  0  0  0  0  0  0  0  0  0
   14.9922  -18.3724   13.3186 O   0  0  0  0  0  0  0  0  0  0  0  0
   12.9221  -18.3005   14.5550 C   0  0  0  0  0  0  0  0  0  0  0  0
   12.2112  -17.3286   15.4701 C   0  0  2  0  0  0  0  0  0  0  0  0
   12.0859  -16.0686   14.7880 N   0  0  0  0  0  0  0  0  0  0  0  0
   13.0622  -17.2179   16.7056 C   0  0  0  0  0  0  0  0  0  0  0  0
   13.2180  -16.0546   17.1537 O   0  0  0  0  0  0  0  0  0  0  0  0
   13.6462  -18.3174   17.3241 N   0  0  0  0  0  0  0  0  0  0  0  0
   14.2482  -18.1871   18.6543 C   0  0  1  0  0  0  0  0  0  0  0  0
   13.8311  -19.3322   19.5263 C   0  0  0  0  0  0  0  0  0  0  0  0
   14.3350  -19.3004   20.9067 C   0  0  0  0  0  0  0  0  0  0  0  0
   14.8775  -18.2812   21.3786 O   0  0  0  0  0  0  0  0  0  0  0  0
   15.7290  -18.2216   18.4946 C   0  0  0  0  0  0  0  0  0  0  0  0
   16.2564  -19.0039   17.7015 O   0  0  0  0  0  0  0  0  0  0  0  0
   14.2310  -20.4084   21.7548 O   0  0  0  0  0  0  0  0  0  0  0  0
   16.5871  -17.3604   19.2469 N   0  0  0  0  0  0  0  0  0  0  0  0
   17.9297  -17.0389   18.8206 C   0  0  1  0  0  0  0  0  0  0  0  0
   18.0024  -15.8266   17.9291 C   0  0  0  0  0  0  0  0  0  0  0  0
   19.3770  -15.5661   17.4514 C   0  0  0  0  0  0  0  0  0  0  0  0
   20.3707  -15.6873   18.2019 O   0  0  0  0  0  0  0  0  0  0  0  0
   18.8516  -16.9047   19.9886 C   0  0  0  0  0  0  0  0  0  0  0  0
   18.4016  -16.7090   21.1464 O   0  0  0  0  0  0  0  0  0  0  0  0
   19.5908  -15.1766   16.1402 O   0  0  0  0  0  0  0  0  0  0  0  0
   20.2258  -16.9910   19.8356 O   0  0  0  0  0  0  0  0  0  0  0  0
  1  2  1  0
  2  3  2  0
  4  2  1  0
  5  4  1  0
  5  6  1  6
  7  5  1  0
  7  8  2  0
  9  7  1  0
 10  9  1  0
 10 11  1  1
 12 11  1  0
 13 12  2  0
 14 10  1  0
 15 14  2  0
 16 12  1  0
 17 14  1  0
 18 17  1  0
 18 22  1  0
 18 19  1  1
 20 21  2  0
 20 19  1  0
 22 25  1  0
 23 22  2  0
 24 20  1  0
M  END
$$$$
