NDD.pdb
     RDKit          3D

 25 24  0  0  1  0  0  0  0  0999 V2000
    7.2294  -12.6132   17.5090 N   0  0  0  0  0  0  0  0  0  0  0  0
    7.7026  -13.4954   16.5026 C   0  0  0  0  0  0  0  0  0  0  0  0
    7.2521  -13.3583   15.3460 O   0  0  0  0  0  0  0  0  0  0  0  0
    8.6993  -14.5224   16.8852 C   0  0  0  0  0  0  0  0  0  0  0  0
    9.0815  -14.4134   18.3444 C   0  0  2  0  0  0  0  0  0  0  0  0
    9.0359  -13.0272   18.7254 N   0  0  0  0  0  0  0  0  0  0  0  0
   10.4691  -14.9831   18.4576 C   0  0  0  0  0  0  0  0  0  0  0  0
   10.5823  -16.1976   18.1567 O   0  0  0  0  0  0  0  0  0  0  0  0
   11.5652  -14.2322   18.8666 N   0  0  0  0  0  0  0  0  0  0  0  0
   12.8828  -14.8589   19.0071 C   0  0  1  0  0  0  0  0  0  0  0  0
   13.9296  -14.0200   18.3392 C   0  0  0  0  0  0  0  0  0  0  0  0
   15.2857  -14.5867   18.3195 C   0  0  0  0  0  0  0  0  0  0  0  0
   15.5363  -15.6937   18.8365 O   0  0  0  0  0  0  0  0  0  0  0  0
   13.1970  -14.9490   20.4605 C   0  0  0  0  0  0  0  0  0  0  0  0
   13.4316  -13.9318   21.1158 O   0  0  0  0  0  0  0  0  0  0  0  0
   16.3570  -13.9135   17.7222 O   0  0  0  0  0  0  0  0  0  0  0  0
   13.2399  -16.2036   21.1446 N   0  0  0  0  0  0  0  0  0  0  0  0
   13.6334  -16.3180   22.5302 C   0  0  1  0  0  0  0  0  0  0  0  0
   12.9240  -17.4246   23.2663 C   0  0  0  0  0  0  0  0  0  0  0  0
   13.3063  -17.4808   24.6933 C   0  0  0  0  0  0  0  0  0  0  0  0
   13.4244  -18.5670   25.3028 O   0  0  0  0  0  0  0  0  0  0  0  0
   15.1160  -16.4462   22.6635 C   0  0  0  0  0  0  0  0  0  0  0  0
   15.7299  -17.4100   22.1387 O   0  0  0  0  0  0  0  0  0  0  0  0
   13.5445  -16.3093   25.3916 O   0  0  0  0  0  0  0  0  0  0  0  0
   15.8596  -15.5123   23.3665 O   0  0  0  0  0  0  0  0  0  0  0  0
  1  2  1  0
  2  3  2  0
  4  2  1  0
  5  4  1  0
  5  6  1  6
  7  5  1  0
  7  8  2  0
  9  7  1  0
 10  9  1  0
 10 11  1  6
 12 11  1  0
 13 12  2  0
 14 10  1  0
 15 14  2  0
 16 12  1  0
 17 14  1  0
 18 17  1  0
 18 22  1  0
 18 19  1  6
 20 21  2  0
 20 19  1  0
 22 25  1  0
 23 22  2  0
 24 20  1  0
M  END
$$$$
