MHR.pdb
     RDKit          3D

 30 30  0  0  1  0  0  0  0  0999 V2000
   30.3694  -19.8348  -12.3457 C   0  0  0  0  0  0  0  0  0  0  0  0
   29.9167  -20.9479  -10.9743 S   0  0  0  0  0  0  0  0  0  0  0  0
   28.4186  -21.8771  -11.3755 C   0  0  0  0  0  0  0  0  0  0  0  0
   27.2406  -21.0243  -11.6970 C   0  0  0  0  0  0  0  0  0  0  0  0
   25.9700  -21.7478  -11.9871 C   0  0  2  0  0  0  0  0  0  0  0  0
   26.0787  -22.8916  -12.8296 N   0  0  0  0  0  0  0  0  0  0  0  0
   24.9378  -20.7670  -12.4575 C   0  0  0  0  0  0  0  0  0  0  0  0
   24.5582  -19.8782  -11.6368 O   0  0  0  0  0  0  0  0  0  0  0  0
   24.4219  -20.8504  -13.7687 N   0  0  0  0  0  0  0  0  0  0  0  0
   23.3536  -19.9820  -14.2148 C   0  0  1  0  0  0  0  0  0  0  0  0
   23.6938  -19.4354  -15.5735 C   0  0  0  0  0  0  0  0  0  0  0  0
   24.7422  -18.4215  -15.5964 C   0  0  0  0  0  0  0  0  0  0  0  0
   25.2862  -17.7910  -14.5000 C   0  0  0  0  0  0  0  0  0  0  0  0
   26.1986  -16.9249  -14.9663 N   0  0  0  0  0  0  0  0  0  0  0  0
   26.2130  -17.0216  -16.3046 C   0  0  0  0  0  0  0  0  0  0  0  0
   25.3289  -17.9319  -16.7088 N   0  0  0  0  0  0  0  0  0  0  0  0
   22.0586  -20.6676  -14.2671 C   0  0  0  0  0  0  0  0  0  0  0  0
   21.9571  -21.7391  -14.9124 O   0  0  0  0  0  0  0  0  0  0  0  0
   18.7293  -24.1829   -7.3629 N   0  0  0  0  0  0  0  0  0  0  0  0
   17.8246  -24.4997   -8.4212 C   0  0  0  0  0  0  0  0  0  0  0  0
   16.9194  -25.3823   -8.2556 N   0  0  0  0  0  0  0  0  0  0  0  0
   17.9090  -23.8377   -9.6864 N   0  0  0  0  0  0  0  0  0  0  0  0
   18.9845  -22.9491  -10.0503 C   0  0  0  0  0  0  0  0  0  0  0  0
   18.8190  -22.4071  -11.4539 C   0  0  0  0  0  0  0  0  0  0  0  0
   19.9394  -21.5226  -11.8725 C   0  0  0  0  0  0  0  0  0  0  0  0
   19.8158  -21.0072  -13.2854 C   0  0  2  0  0  0  0  0  0  0  0  0
   20.9028  -20.1363  -13.5941 N   0  0  0  0  0  0  0  0  0  0  0  0
   18.5261  -20.3720  -13.5721 C   0  0  0  0  0  0  0  0  0  0  0  0
   18.4590  -19.1067  -13.5437 O   0  0  0  0  0  0  0  0  0  0  0  0
   17.3591  -21.0340  -13.8752 O   0  0  0  0  0  0  0  0  0  0  0  0
  1  2  1  0
  2  3  1  0
  4  5  1  0
  4  3  1  0
  5  6  1  6
  7  8  2  0
  7  5  1  0
  9  7  1  0
 10 11  1  6
 10  9  1  0
 11 12  1  0
 12 16  1  0
 13 12  2  0
 13 14  1  0
 14 15  1  0
 16 15  2  0
 17 10  1  0
 18 17  2  0
 20 19  1  0
 20 22  1  0
 21 20  2  0
 23 22  1  0
 24 23  1  0
 25 24  1  0
 26 25  1  1
 26 27  1  0
 27 17  1  0
 28 30  1  0
 28 26  1  0
 29 28  2  0
M  END
$$$$
