MHR.pdb
     RDKit          3D

 30 30  0  0  1  0  0  0  0  0999 V2000
   27.1373  -18.5056  -15.6491 C   0  0  0  0  0  0  0  0  0  0  0  0
   26.9125  -16.8318  -14.9617 S   0  0  0  0  0  0  0  0  0  0  0  0
   25.6990  -15.9034  -15.9281 C   0  0  0  0  0  0  0  0  0  0  0  0
   25.5607  -14.4767  -15.5236 C   0  0  0  0  0  0  0  0  0  0  0  0
   24.5864  -13.6665  -16.3086 C   0  0  2  0  0  0  0  0  0  0  0  0
   24.6081  -13.8558  -17.7206 N   0  0  0  0  0  0  0  0  0  0  0  0
   24.7021  -12.2264  -15.9066 C   0  0  0  0  0  0  0  0  0  0  0  0
   24.6882  -11.9621  -14.6666 O   0  0  0  0  0  0  0  0  0  0  0  0
   24.8201  -11.2203  -16.8895 N   0  0  0  0  0  0  0  0  0  0  0  0
   24.8544   -9.8183  -16.5323 C   0  0  1  0  0  0  0  0  0  0  0  0
   25.9769   -9.1455  -17.2727 C   0  0  0  0  0  0  0  0  0  0  0  0
   27.3055   -9.6971  -17.0319 C   0  0  0  0  0  0  0  0  0  0  0  0
   27.7345  -10.3054  -15.8737 C   0  0  0  0  0  0  0  0  0  0  0  0
   29.0174  -10.6464  -16.0694 N   0  0  0  0  0  0  0  0  0  0  0  0
   29.3628  -10.2596  -17.3070 C   0  0  0  0  0  0  0  0  0  0  0  0
   28.3290   -9.6769  -17.9113 N   0  0  0  0  0  0  0  0  0  0  0  0
   23.5902   -9.1346  -16.8223 C   0  0  0  0  0  0  0  0  0  0  0  0
   22.9948   -9.3767  -17.9001 O   0  0  0  0  0  0  0  0  0  0  0  0
   16.0629  -11.5068  -15.8958 N   0  0  0  0  0  0  0  0  0  0  0  0
   15.8562  -10.1093  -16.1030 C   0  0  0  0  0  0  0  0  0  0  0  0
   14.6753   -9.6330  -16.1686 N   0  0  0  0  0  0  0  0  0  0  0  0
   16.9623   -9.2126  -16.2396 N   0  0  0  0  0  0  0  0  0  0  0  0
   18.3394   -9.6394  -16.2317 C   0  0  0  0  0  0  0  0  0  0  0  0
   19.2946   -8.4652  -16.2175 C   0  0  0  0  0  0  0  0  0  0  0  0
   20.7229   -8.8771  -16.1610 C   0  0  0  0  0  0  0  0  0  0  0  0
   21.6909   -7.7203  -16.1141 C   0  0  2  0  0  0  0  0  0  0  0  0
   23.0195   -8.1921  -15.8966 N   0  0  0  0  0  0  0  0  0  0  0  0
   21.3274   -6.6845  -15.1426 C   0  0  0  0  0  0  0  0  0  0  0  0
   21.9996   -6.6017  -14.0714 O   0  0  0  0  0  0  0  0  0  0  0  0
   20.3048   -5.7760  -15.2879 O   0  0  0  0  0  0  0  0  0  0  0  0
  1  2  1  0
  2  3  1  0
  4  5  1  0
  4  3  1  0
  5  6  1  6
  7  8  2  0
  7  5  1  0
  9  7  1  0
 10 11  1  6
 10  9  1  0
 11 12  1  0
 12 16  1  0
 13 12  2  0
 13 14  1  0
 14 15  1  0
 16 15  2  0
 17 10  1  0
 18 17  2  0
 20 19  1  0
 20 22  1  0
 21 20  2  0
 23 22  1  0
 24 23  1  0
 25 24  1  0
 26 25  1  1
 26 27  1  0
 27 17  1  0
 28 30  1  0
 28 26  1  0
 29 28  2  0
M  END
$$$$
