MHR.pdb
     RDKit          3D

 30 30  0  0  1  0  0  0  0  0999 V2000
   32.3525  -26.2287  -22.8983 C   0  0  0  0  0  0  0  0  0  0  0  0
   33.5223  -25.4720  -21.7220 S   0  0  0  0  0  0  0  0  0  0  0  0
   32.7564  -24.0715  -20.8730 C   0  0  0  0  0  0  0  0  0  0  0  0
   31.3002  -23.9168  -21.1446 C   0  0  0  0  0  0  0  0  0  0  0  0
   30.8006  -22.5164  -21.2507 C   0  0  2  0  0  0  0  0  0  0  0  0
   31.1520  -21.6432  -20.1811 N   0  0  0  0  0  0  0  0  0  0  0  0
   29.3282  -22.5359  -21.5343 C   0  0  0  0  0  0  0  0  0  0  0  0
   28.9380  -23.1722  -22.5593 O   0  0  0  0  0  0  0  0  0  0  0  0
   28.4295  -21.8631  -20.6787 N   0  0  0  0  0  0  0  0  0  0  0  0
   27.0096  -21.8264  -20.9559 C   0  0  1  0  0  0  0  0  0  0  0  0
   26.4999  -23.2316  -21.1184 C   0  0  0  0  0  0  0  0  0  0  0  0
   25.0679  -23.3538  -21.3673 C   0  0  0  0  0  0  0  0  0  0  0  0
   24.3741  -22.7870  -22.4127 C   0  0  0  0  0  0  0  0  0  0  0  0
   23.0874  -23.1327  -22.2543 N   0  0  0  0  0  0  0  0  0  0  0  0
   22.9960  -23.8864  -21.1479 C   0  0  0  0  0  0  0  0  0  0  0  0
   24.1970  -24.0328  -20.5915 N   0  0  0  0  0  0  0  0  0  0  0  0
   26.2504  -21.1430  -19.9040 C   0  0  0  0  0  0  0  0  0  0  0  0
   26.4712  -21.4303  -18.7026 O   0  0  0  0  0  0  0  0  0  0  0  0
   22.2198  -13.6428  -20.7474 N   0  0  0  0  0  0  0  0  0  0  0  0
   22.0925  -14.9692  -21.2607 C   0  0  0  0  0  0  0  0  0  0  0  0
   21.5494  -15.1738  -22.3961 N   0  0  0  0  0  0  0  0  0  0  0  0
   22.5698  -16.0957  -20.5196 N   0  0  0  0  0  0  0  0  0  0  0  0
   22.7158  -16.1015  -19.0853 C   0  0  0  0  0  0  0  0  0  0  0  0
   23.2928  -17.4072  -18.5815 C   0  0  0  0  0  0  0  0  0  0  0  0
   23.9929  -18.1818  -19.6411 C   0  0  0  0  0  0  0  0  0  0  0  0
   24.5676  -19.4921  -19.1612 C   0  0  2  0  0  0  0  0  0  0  0  0
   25.2578  -20.1506  -20.2219 N   0  0  0  0  0  0  0  0  0  0  0  0
   23.5798  -20.3775  -18.5375 C   0  0  0  0  0  0  0  0  0  0  0  0
   22.8085  -21.0439  -19.2906 O   0  0  0  0  0  0  0  0  0  0  0  0
   23.4086  -20.5564  -17.1844 O   0  0  0  0  0  0  0  0  0  0  0  0
  1  2  1  0
  2  3  1  0
  4  5  1  0
  4  3  1  0
  5  6  1  1
  7  8  2  0
  7  5  1  0
  9  7  1  0
 10 11  1  1
 10  9  1  0
 11 12  1  0
 12 16  1  0
 13 12  2  0
 13 14  1  0
 14 15  1  0
 16 15  2  0
 17 10  1  0
 18 17  2  0
 20 19  1  0
 20 22  1  0
 21 20  2  0
 23 22  1  0
 24 23  1  0
 25 24  1  0
 26 25  1  6
 26 27  1  0
 27 17  1  0
 28 30  1  0
 28 26  1  0
 29 28  2  0
M  END
$$$$
