MHR.pdb
     RDKit          3D

 30 30  0  0  1  0  0  0  0  0999 V2000
   28.3187  -26.2599  -17.1891 C   0  0  0  0  0  0  0  0  0  0  0  0
   29.6812  -25.1361  -16.7358 S   0  0  0  0  0  0  0  0  0  0  0  0
   29.0349  -23.5373  -16.1929 C   0  0  0  0  0  0  0  0  0  0  0  0
   27.8616  -23.0572  -16.9746 C   0  0  0  0  0  0  0  0  0  0  0  0
   27.3491  -21.7034  -16.6188 C   0  0  2  0  0  0  0  0  0  0  0  0
   28.3079  -20.6495  -16.6233 N   0  0  0  0  0  0  0  0  0  0  0  0
   26.5743  -21.7880  -15.3377 C   0  0  0  0  0  0  0  0  0  0  0  0
   25.5259  -22.5011  -15.3338 O   0  0  0  0  0  0  0  0  0  0  0  0
   27.0144  -21.0904  -14.1922 N   0  0  0  0  0  0  0  0  0  0  0  0
   26.2595  -21.1164  -12.9578 C   0  0  1  0  0  0  0  0  0  0  0  0
   27.1095  -20.5684  -11.8453 C   0  0  0  0  0  0  0  0  0  0  0  0
   26.4646  -20.5014  -10.5387 C   0  0  0  0  0  0  0  0  0  0  0  0
   25.1662  -20.8605  -10.2548 C   0  0  0  0  0  0  0  0  0  0  0  0
   24.9782  -20.6260   -8.9471 N   0  0  0  0  0  0  0  0  0  0  0  0
   26.1240  -20.1392   -8.4465 C   0  0  0  0  0  0  0  0  0  0  0  0
   27.0450  -20.0557   -9.4048 N   0  0  0  0  0  0  0  0  0  0  0  0
   25.0105  -20.3538  -13.0482 C   0  0  0  0  0  0  0  0  0  0  0  0
   25.0406  -19.1756  -13.4793 O   0  0  0  0  0  0  0  0  0  0  0  0
   21.8037  -19.4554  -19.3869 N   0  0  0  0  0  0  0  0  0  0  0  0
   20.6522  -19.6749  -18.5718 C   0  0  0  0  0  0  0  0  0  0  0  0
   19.4812  -19.5135  -19.0499 N   0  0  0  0  0  0  0  0  0  0  0  0
   20.7818  -20.0809  -17.2063 N   0  0  0  0  0  0  0  0  0  0  0  0
   22.0506  -20.2994  -16.5573 C   0  0  0  0  0  0  0  0  0  0  0  0
   21.8822  -20.6872  -15.1038 C   0  0  0  0  0  0  0  0  0  0  0  0
   22.3771  -19.6471  -14.1625 C   0  0  0  0  0  0  0  0  0  0  0  0
   22.5661  -20.1420  -12.7495 C   0  0  2  0  0  0  0  0  0  0  0  0
   23.7520  -20.9290  -12.6525 N   0  0  0  0  0  0  0  0  0  0  0  0
   21.4051  -20.8595  -12.2144 C   0  0  0  0  0  0  0  0  0  0  0  0
   21.5276  -22.0941  -11.9557 O   0  0  0  0  0  0  0  0  0  0  0  0
   20.1710  -20.3071  -11.9618 O   0  0  0  0  0  0  0  0  0  0  0  0
  1  2  1  0
  2  3  1  0
  4  5  1  0
  4  3  1  0
  5  6  1  1
  7  8  2  0
  7  5  1  0
  9  7  1  0
 10 11  1  1
 10  9  1  0
 11 12  1  0
 12 16  1  0
 13 12  2  0
 13 14  1  0
 14 15  1  0
 16 15  2  0
 17 10  1  0
 18 17  2  0
 20 19  1  0
 20 22  1  0
 21 20  2  0
 23 22  1  0
 24 23  1  0
 25 24  1  0
 26 25  1  6
 26 27  1  0
 27 17  1  0
 28 30  1  0
 28 26  1  0
 29 28  2  0
M  END
$$$$
