MHR.pdb
     RDKit          3D

 30 30  0  0  1  0  0  0  0  0999 V2000
   30.4405  -22.1497  -11.0589 C   0  0  0  0  0  0  0  0  0  0  0  0
   29.8731  -20.4299  -10.8466 S   0  0  0  0  0  0  0  0  0  0  0  0
   28.9244  -19.8891  -12.2876 C   0  0  0  0  0  0  0  0  0  0  0  0
   28.3388  -21.0029  -13.0843 C   0  0  0  0  0  0  0  0  0  0  0  0
   27.5384  -20.6029  -14.2765 C   0  0  2  0  0  0  0  0  0  0  0  0
   27.6812  -19.2506  -14.7019 N   0  0  0  0  0  0  0  0  0  0  0  0
   26.1089  -21.0070  -14.0717 C   0  0  0  0  0  0  0  0  0  0  0  0
   25.8683  -22.2398  -13.8984 O   0  0  0  0  0  0  0  0  0  0  0  0
   25.0864  -20.0339  -14.0766 N   0  0  0  0  0  0  0  0  0  0  0  0
   23.7082  -20.3878  -13.8125 C   0  0  1  0  0  0  0  0  0  0  0  0
   23.1032  -19.3685  -12.8874 C   0  0  0  0  0  0  0  0  0  0  0  0
   22.6820  -19.8753  -11.5862 C   0  0  0  0  0  0  0  0  0  0  0  0
   22.8286  -21.1664  -11.1313 C   0  0  0  0  0  0  0  0  0  0  0  0
   22.2936  -21.2053   -9.9015 N   0  0  0  0  0  0  0  0  0  0  0  0
   21.8342  -19.9782   -9.6125 C   0  0  0  0  0  0  0  0  0  0  0  0
   22.0626  -19.1508  -10.6308 N   0  0  0  0  0  0  0  0  0  0  0  0
   22.9084  -20.4806  -15.0378 C   0  0  0  0  0  0  0  0  0  0  0  0
   23.1732  -19.7228  -16.0024 O   0  0  0  0  0  0  0  0  0  0  0  0
   18.9400  -24.5053  -20.9465 N   0  0  0  0  0  0  0  0  0  0  0  0
   19.8644  -25.2790  -20.1811 C   0  0  0  0  0  0  0  0  0  0  0  0
   20.6586  -26.0933  -20.7573 N   0  0  0  0  0  0  0  0  0  0  0  0
   19.9241  -25.1597  -18.7570 N   0  0  0  0  0  0  0  0  0  0  0  0
   19.0427  -24.3143  -17.9908 C   0  0  0  0  0  0  0  0  0  0  0  0
   19.6208  -22.9296  -17.7908 C   0  0  0  0  0  0  0  0  0  0  0  0
   20.4637  -22.8213  -16.5699 C   0  0  0  0  0  0  0  0  0  0  0  0
   21.0558  -21.4498  -16.3560 C   0  0  2  0  0  0  0  0  0  0  0  0
   21.8267  -21.4224  -15.1560 N   0  0  0  0  0  0  0  0  0  0  0  0
   20.0659  -20.3687  -16.3783 C   0  0  0  0  0  0  0  0  0  0  0  0
   19.5416  -20.0102  -15.2816 O   0  0  0  0  0  0  0  0  0  0  0  0
   19.6448  -19.6937  -17.5004 O   0  0  0  0  0  0  0  0  0  0  0  0
  1  2  1  0
  2  3  1  0
  4  5  1  0
  4  3  1  0
  5  6  1  1
  7  8  2  0
  7  5  1  0
  9  7  1  0
 10 11  1  1
 10  9  1  0
 11 12  1  0
 12 16  1  0
 13 12  2  0
 13 14  1  0
 14 15  1  0
 16 15  2  0
 17 10  1  0
 18 17  2  0
 20 19  1  0
 20 22  1  0
 21 20  2  0
 23 22  1  0
 24 23  1  0
 25 24  1  0
 26 25  1  1
 26 27  1  0
 27 17  1  0
 28 30  1  0
 28 26  1  0
 29 28  2  0
M  END
$$$$
