MHR.pdb
     RDKit          3D

 30 30  0  0  1  0  0  0  0  0999 V2000
   26.2271  -17.5986  -16.0132 C   0  0  0  0  0  0  0  0  0  0  0  0
   26.5102  -18.4513  -17.5998 S   0  0  0  0  0  0  0  0  0  0  0  0
   26.1843  -20.2224  -17.4389 C   0  0  0  0  0  0  0  0  0  0  0  0
   27.4103  -21.0579  -17.3083 C   0  0  0  0  0  0  0  0  0  0  0  0
   28.0909  -21.0166  -15.9827 C   0  0  2  0  0  0  0  0  0  0  0  0
   29.2898  -21.7781  -15.8700 N   0  0  0  0  0  0  0  0  0  0  0  0
   27.0951  -21.3247  -14.9047 C   0  0  0  0  0  0  0  0  0  0  0  0
   26.6795  -22.5193  -14.8160 O   0  0  0  0  0  0  0  0  0  0  0  0
   26.6509  -20.3066  -14.0338 N   0  0  0  0  0  0  0  0  0  0  0  0
   25.8996  -20.6144  -12.8358 C   0  0  1  0  0  0  0  0  0  0  0  0
   26.5559  -19.9535  -11.6556 C   0  0  0  0  0  0  0  0  0  0  0  0
   27.7708  -20.5993  -11.1714 C   0  0  0  0  0  0  0  0  0  0  0  0
   28.3099  -21.7743  -11.6450 C   0  0  0  0  0  0  0  0  0  0  0  0
   29.4088  -22.0168  -10.9144 N   0  0  0  0  0  0  0  0  0  0  0  0
   29.5386  -21.0228  -10.0223 C   0  0  0  0  0  0  0  0  0  0  0  0
   28.5461  -20.1462  -10.1640 N   0  0  0  0  0  0  0  0  0  0  0  0
   24.4997  -20.1880  -12.9268 C   0  0  0  0  0  0  0  0  0  0  0  0
   24.2355  -19.0343  -13.3439 O   0  0  0  0  0  0  0  0  0  0  0  0
   23.1445  -21.9099  -17.5097 N   0  0  0  0  0  0  0  0  0  0  0  0
   22.4411  -23.0173  -16.9459 C   0  0  0  0  0  0  0  0  0  0  0  0
   22.9258  -24.1945  -17.0159 N   0  0  0  0  0  0  0  0  0  0  0  0
   21.1829  -22.8351  -16.2904 N   0  0  0  0  0  0  0  0  0  0  0  0
   20.5790  -21.5446  -16.0700 C   0  0  0  0  0  0  0  0  0  0  0  0
   21.3292  -20.7400  -15.0303 C   0  0  0  0  0  0  0  0  0  0  0  0
   21.3207  -21.3748  -13.6850 C   0  0  0  0  0  0  0  0  0  0  0  0
   22.0794  -20.5971  -12.6376 C   0  0  2  0  0  0  0  0  0  0  0  0
   23.4239  -21.0653  -12.5473 N   0  0  0  0  0  0  0  0  0  0  0  0
   21.4295  -20.5859  -11.3237 C   0  0  0  0  0  0  0  0  0  0  0  0
   22.0187  -21.1540  -10.3561 O   0  0  0  0  0  0  0  0  0  0  0  0
   20.2161  -20.0048  -11.0372 O   0  0  0  0  0  0  0  0  0  0  0  0
  1  2  1  0
  2  3  1  0
  4  5  1  0
  4  3  1  0
  5  6  1  6
  7  8  2  0
  7  5  1  0
  9  7  1  0
 10 11  1  1
 10  9  1  0
 11 12  1  0
 12 16  1  0
 13 12  2  0
 13 14  1  0
 14 15  1  0
 16 15  2  0
 17 10  1  0
 18 17  2  0
 20 19  1  0
 20 22  1  0
 21 20  2  0
 23 22  1  0
 24 23  1  0
 25 24  1  0
 26 25  1  6
 26 27  1  0
 27 17  1  0
 28 30  1  0
 28 26  1  0
 29 28  2  0
M  END
$$$$
