MHR.pdb
     RDKit          3D

 30 30  0  0  1  0  0  0  0  0999 V2000
   28.8144  -17.8813  -16.6839 C   0  0  0  0  0  0  0  0  0  0  0  0
   27.5231  -18.3105  -15.4702 S   0  0  0  0  0  0  0  0  0  0  0  0
   28.0741  -19.6634  -14.4048 C   0  0  0  0  0  0  0  0  0  0  0  0
   27.1196  -20.0075  -13.3144 C   0  0  0  0  0  0  0  0  0  0  0  0
   26.1110  -21.0568  -13.6362 C   0  0  2  0  0  0  0  0  0  0  0  0
   26.2714  -21.7171  -14.8885 N   0  0  0  0  0  0  0  0  0  0  0  0
   24.7337  -20.4973  -13.4387 C   0  0  0  0  0  0  0  0  0  0  0  0
   24.4936  -19.9068  -12.3427 O   0  0  0  0  0  0  0  0  0  0  0  0
   23.7576  -20.6358  -14.4488 N   0  0  0  0  0  0  0  0  0  0  0  0
   22.4344  -20.0687  -14.3007 C   0  0  1  0  0  0  0  0  0  0  0  0
   22.0971  -19.2700  -15.5291 C   0  0  0  0  0  0  0  0  0  0  0  0
   20.8429  -18.5278  -15.4690 C   0  0  0  0  0  0  0  0  0  0  0  0
   19.9734  -18.4877  -14.4023 C   0  0  0  0  0  0  0  0  0  0  0  0
   18.9452  -17.7088  -14.7718 N   0  0  0  0  0  0  0  0  0  0  0  0
   19.1774  -17.2857  -16.0238 C   0  0  0  0  0  0  0  0  0  0  0  0
   20.3333  -17.7761  -16.4674 N   0  0  0  0  0  0  0  0  0  0  0  0
   21.4077  -21.0914  -14.0779 C   0  0  0  0  0  0  0  0  0  0  0  0
   21.4876  -22.1846  -14.6890 O   0  0  0  0  0  0  0  0  0  0  0  0
   19.0484  -24.8261   -6.6511 N   0  0  0  0  0  0  0  0  0  0  0  0
   18.2483  -25.4228   -7.6722 C   0  0  0  0  0  0  0  0  0  0  0  0
   17.5061  -26.4256   -7.4089 N   0  0  0  0  0  0  0  0  0  0  0  0
   18.2573  -24.9126   -9.0085 N   0  0  0  0  0  0  0  0  0  0  0  0
   19.0512  -23.7833   -9.4246 C   0  0  0  0  0  0  0  0  0  0  0  0
   18.8401  -23.4524  -10.8866 C   0  0  0  0  0  0  0  0  0  0  0  0
   19.6869  -22.3232  -11.3562 C   0  0  0  0  0  0  0  0  0  0  0  0
   19.4757  -21.9631  -12.8065 C   0  0  2  0  0  0  0  0  0  0  0  0
   20.3111  -20.8666  -13.1735 N   0  0  0  0  0  0  0  0  0  0  0  0
   18.0749  -21.7054  -13.1534 C   0  0  0  0  0  0  0  0  0  0  0  0
   17.6594  -20.5084  -13.1292 O   0  0  0  0  0  0  0  0  0  0  0  0
   17.1512  -22.6602  -13.5101 O   0  0  0  0  0  0  0  0  0  0  0  0
  1  2  1  0
  2  3  1  0
  4  5  1  0
  4  3  1  0
  5  6  1  6
  7  8  2  0
  7  5  1  0
  9  7  1  0
 10 11  1  6
 10  9  1  0
 11 12  1  0
 12 16  1  0
 13 12  2  0
 13 14  1  0
 14 15  1  0
 16 15  2  0
 17 10  1  0
 18 17  2  0
 20 19  1  0
 20 22  1  0
 21 20  2  0
 23 22  1  0
 24 23  1  0
 25 24  1  0
 26 25  1  1
 26 27  1  0
 27 17  1  0
 28 30  1  0
 28 26  1  0
 29 28  2  0
M  END
$$$$
