MHR.pdb
     RDKit          3D

 30 30  0  0  1  0  0  0  0  0999 V2000
   21.7224  -25.0629    2.0856 C   0  0  0  0  0  0  0  0  0  0  0  0
   20.4931  -25.8254    0.9755 S   0  0  0  0  0  0  0  0  0  0  0  0
   19.2002  -24.6375    0.5441 C   0  0  0  0  0  0  0  0  0  0  0  0
   17.8415  -25.0153    1.0231 C   0  0  0  0  0  0  0  0  0  0  0  0
   16.8346  -23.9169    1.0642 C   0  0  2  0  0  0  0  0  0  0  0  0
   17.2394  -22.6742    0.4969 N   0  0  0  0  0  0  0  0  0  0  0  0
   16.3063  -23.7812    2.4611 C   0  0  0  0  0  0  0  0  0  0  0  0
   15.7275  -24.7889    2.9684 O   0  0  0  0  0  0  0  0  0  0  0  0
   16.4586  -22.5672    3.1650 N   0  0  0  0  0  0  0  0  0  0  0  0
   16.0673  -22.4468    4.5530 C   0  0  1  0  0  0  0  0  0  0  0  0
   16.8297  -23.4513    5.3719 C   0  0  0  0  0  0  0  0  0  0  0  0
   16.4966  -23.4846    6.7915 C   0  0  0  0  0  0  0  0  0  0  0  0
   15.5944  -22.6664    7.4333 C   0  0  0  0  0  0  0  0  0  0  0  0
   15.6067  -23.0190    8.7279 N   0  0  0  0  0  0  0  0  0  0  0  0
   16.4878  -24.0203    8.8742 C   0  0  0  0  0  0  0  0  0  0  0  0
   17.0424  -24.3192    7.7009 N   0  0  0  0  0  0  0  0  0  0  0  0
   16.2948  -21.0996    5.0849 C   0  0  0  0  0  0  0  0  0  0  0  0
   16.0422  -20.8654    6.2916 O   0  0  0  0  0  0  0  0  0  0  0  0
   11.8490  -14.2881    5.7061 N   0  0  0  0  0  0  0  0  0  0  0  0
   13.1517  -13.8265    6.0652 C   0  0  0  0  0  0  0  0  0  0  0  0
   13.3146  -12.6532    6.5367 N   0  0  0  0  0  0  0  0  0  0  0  0
   14.3002  -14.6644    5.9076 N   0  0  0  0  0  0  0  0  0  0  0  0
   14.2529  -15.9776    5.3143 C   0  0  0  0  0  0  0  0  0  0  0  0
   15.6152  -16.6371    5.2927 C   0  0  0  0  0  0  0  0  0  0  0  0
   15.5859  -18.0159    4.7351 C   0  0  0  0  0  0  0  0  0  0  0  0
   16.9166  -18.7256    4.7902 C   0  0  2  0  0  0  0  0  0  0  0  0
   16.8012  -20.0414    4.2513 N   0  0  0  0  0  0  0  0  0  0  0  0
   17.5196  -18.7479    6.1262 C   0  0  0  0  0  0  0  0  0  0  0  0
   16.9993  -19.4937    7.0089 O   0  0  0  0  0  0  0  0  0  0  0  0
   18.6192  -18.0207    6.5188 O   0  0  0  0  0  0  0  0  0  0  0  0
  1  2  1  0
  2  3  1  0
  4  5  1  0
  4  3  1  0
  5  6  1  1
  7  8  2  0
  7  5  1  0
  9  7  1  0
 10 11  1  1
 10  9  1  0
 11 12  1  0
 12 16  1  0
 13 12  2  0
 13 14  1  0
 14 15  1  0
 16 15  2  0
 17 10  1  0
 18 17  2  0
 20 19  1  0
 20 22  1  0
 21 20  2  0
 23 22  1  0
 24 23  1  0
 25 24  1  0
 26 25  1  1
 26 27  1  0
 27 17  1  0
 28 30  1  0
 28 26  1  0
 29 28  2  0
M  END
$$$$
