MHR.pdb
     RDKit          3D

 30 30  0  0  1  0  0  0  0  0999 V2000
   28.9046  -19.5749   -9.2012 C   0  0  0  0  0  0  0  0  0  0  0  0
   27.1640  -19.5228   -8.6607 S   0  0  0  0  0  0  0  0  0  0  0  0
   26.2122  -20.8431   -9.4480 C   0  0  0  0  0  0  0  0  0  0  0  0
   25.8828  -20.5872  -10.8778 C   0  0  0  0  0  0  0  0  0  0  0  0
   25.0413  -21.6184  -11.5490 C   0  0  2  0  0  0  0  0  0  0  0  0
   25.6800  -22.8596  -11.8344 N   0  0  0  0  0  0  0  0  0  0  0  0
   24.3750  -21.0108  -12.7472 C   0  0  0  0  0  0  0  0  0  0  0  0
   25.0104  -21.0329  -13.8442 O   0  0  0  0  0  0  0  0  0  0  0  0
   23.0887  -20.4407  -12.6338 N   0  0  0  0  0  0  0  0  0  0  0  0
   22.3910  -19.9193  -13.7895 C   0  0  1  0  0  0  0  0  0  0  0  0
   20.9264  -20.2372  -13.6694 C   0  0  0  0  0  0  0  0  0  0  0  0
   20.5788  -21.6479  -13.7991 C   0  0  0  0  0  0  0  0  0  0  0  0
   21.4500  -22.6763  -14.0801 C   0  0  0  0  0  0  0  0  0  0  0  0
   20.7182  -23.7999  -14.1270 N   0  0  0  0  0  0  0  0  0  0  0  0
   19.4405  -23.4705  -13.8827 C   0  0  0  0  0  0  0  0  0  0  0  0
   19.3353  -22.1585  -13.6798 N   0  0  0  0  0  0  0  0  0  0  0  0
   22.5722  -18.4730  -13.9485 C   0  0  0  0  0  0  0  0  0  0  0  0
   22.5811  -17.7400  -12.9299 O   0  0  0  0  0  0  0  0  0  0  0  0
   29.5127  -16.7391  -17.2540 N   0  0  0  0  0  0  0  0  0  0  0  0
   28.6162  -17.5866  -17.9728 C   0  0  0  0  0  0  0  0  0  0  0  0
   29.0548  -18.3775  -18.8716 N   0  0  0  0  0  0  0  0  0  0  0  0
   27.2114  -17.5715  -17.7034 N   0  0  0  0  0  0  0  0  0  0  0  0
   26.6141  -16.8146  -16.6316 C   0  0  0  0  0  0  0  0  0  0  0  0
   25.1106  -16.9853  -16.5891 C   0  0  0  0  0  0  0  0  0  0  0  0
   24.4678  -16.2145  -15.4912 C   0  0  0  0  0  0  0  0  0  0  0  0
   22.9888  -16.4768  -15.3451 C   0  0  2  0  0  0  0  0  0  0  0  0
   22.7394  -17.8781  -15.2481 N   0  0  0  0  0  0  0  0  0  0  0  0
   22.1729  -15.8618  -16.3963 C   0  0  0  0  0  0  0  0  0  0  0  0
   21.7200  -16.6041  -17.3183 O   0  0  0  0  0  0  0  0  0  0  0  0
   21.8463  -14.5280  -16.4770 O   0  0  0  0  0  0  0  0  0  0  0  0
  1  2  1  0
  2  3  1  0
  4  5  1  0
  4  3  1  0
  5  6  1  6
  7  8  2  0
  7  5  1  0
  9  7  1  0
 10 11  1  1
 10  9  1  0
 11 12  1  0
 12 16  1  0
 13 12  2  0
 13 14  1  0
 14 15  1  0
 16 15  2  0
 17 10  1  0
 18 17  2  0
 20 19  1  0
 20 22  1  0
 21 20  2  0
 23 22  1  0
 24 23  1  0
 25 24  1  0
 26 25  1  6
 26 27  1  0
 27 17  1  0
 28 30  1  0
 28 26  1  0
 29 28  2  0
M  END
$$$$
