MHR.pdb
     RDKit          3D

 30 30  0  0  1  0  0  0  0  0999 V2000
   17.0458  -29.6078   -9.0257 C   0  0  0  0  0  0  0  0  0  0  0  0
   16.0404  -28.0878   -9.0820 S   0  0  0  0  0  0  0  0  0  0  0  0
   16.1862  -27.1692   -7.5316 C   0  0  0  0  0  0  0  0  0  0  0  0
   17.3687  -27.5469   -6.7087 C   0  0  0  0  0  0  0  0  0  0  0  0
   17.4953  -26.8588   -5.3925 C   0  0  2  0  0  0  0  0  0  0  0  0
   17.6347  -25.4415   -5.4373 N   0  0  0  0  0  0  0  0  0  0  0  0
   18.5653  -27.5295   -4.5837 C   0  0  0  0  0  0  0  0  0  0  0  0
   19.7299  -27.0300   -4.6252 O   0  0  0  0  0  0  0  0  0  0  0  0
   18.2637  -28.6732   -3.8134 N   0  0  0  0  0  0  0  0  0  0  0  0
   19.2905  -29.3764   -3.0747 C   0  0  1  0  0  0  0  0  0  0  0  0
   18.8693  -29.5010   -1.6368 C   0  0  0  0  0  0  0  0  0  0  0  0
   18.9783  -28.2814   -0.8441 C   0  0  0  0  0  0  0  0  0  0  0  0
   19.4542  -27.0668   -1.2841 C   0  0  0  0  0  0  0  0  0  0  0  0
   19.3992  -26.2289   -0.2376 N   0  0  0  0  0  0  0  0  0  0  0  0
   18.9058  -26.9081    0.8091 C   0  0  0  0  0  0  0  0  0  0  0  0
   18.6422  -28.1653    0.4578 N   0  0  0  0  0  0  0  0  0  0  0  0
   19.5671  -30.7063   -3.6266 C   0  0  0  0  0  0  0  0  0  0  0  0
   19.1090  -31.0101   -4.7547 O   0  0  0  0  0  0  0  0  0  0  0  0
   25.5672  -31.7786   -8.6230 N   0  0  0  0  0  0  0  0  0  0  0  0
   25.4851  -33.0984   -8.0844 C   0  0  0  0  0  0  0  0  0  0  0  0
   26.2654  -34.0166   -8.5014 N   0  0  0  0  0  0  0  0  0  0  0  0
   24.5323  -33.4221   -7.0679 N   0  0  0  0  0  0  0  0  0  0  0  0
   23.7403  -32.4361   -6.3756 C   0  0  0  0  0  0  0  0  0  0  0  0
   22.7654  -33.0725   -5.4081 C   0  0  0  0  0  0  0  0  0  0  0  0
   21.9789  -32.0754   -4.6336 C   0  0  0  0  0  0  0  0  0  0  0  0
   21.0432  -32.6887   -3.6207 C   0  0  2  0  0  0  0  0  0  0  0  0
   20.3523  -31.6694   -2.9006 N   0  0  0  0  0  0  0  0  0  0  0  0
   21.6953  -33.6353   -2.7110 C   0  0  0  0  0  0  0  0  0  0  0  0
   22.4724  -33.1766   -1.8211 O   0  0  0  0  0  0  0  0  0  0  0  0
   21.5394  -35.0018   -2.7332 O   0  0  0  0  0  0  0  0  0  0  0  0
  1  2  1  0
  2  3  1  0
  4  5  1  0
  4  3  1  0
  5  6  1  6
  7  8  2  0
  7  5  1  0
  9  7  1  0
 10 11  1  1
 10  9  1  0
 11 12  1  0
 12 16  1  0
 13 12  2  0
 13 14  1  0
 14 15  1  0
 16 15  2  0
 17 10  1  0
 18 17  2  0
 20 19  1  0
 20 22  1  0
 21 20  2  0
 23 22  1  0
 24 23  1  0
 25 24  1  0
 26 25  1  6
 26 27  1  0
 27 17  1  0
 28 30  1  0
 28 26  1  0
 29 28  2  0
M  END
$$$$
