MHR.pdb
     RDKit          3D

 30 30  0  0  1  0  0  0  0  0999 V2000
   30.0072  -20.6823   -8.5340 C   0  0  0  0  0  0  0  0  0  0  0  0
   30.9531  -21.2892   -9.9699 S   0  0  0  0  0  0  0  0  0  0  0  0
   29.8422  -21.9683  -11.2242 C   0  0  0  0  0  0  0  0  0  0  0  0
   28.4802  -21.3657  -11.2222 C   0  0  0  0  0  0  0  0  0  0  0  0
   27.5290  -21.8976  -12.2392 C   0  0  2  0  0  0  0  0  0  0  0  0
   28.0765  -22.1732  -13.5254 N   0  0  0  0  0  0  0  0  0  0  0  0
   26.3170  -21.0161  -12.2927 C   0  0  0  0  0  0  0  0  0  0  0  0
   25.8198  -20.6372  -11.1896 O   0  0  0  0  0  0  0  0  0  0  0  0
   25.7674  -20.6363  -13.5361 N   0  0  0  0  0  0  0  0  0  0  0  0
   24.5952  -19.7912  -13.6152 C   0  0  1  0  0  0  0  0  0  0  0  0
   24.6577  -18.9737  -14.8755 C   0  0  0  0  0  0  0  0  0  0  0  0
   25.7033  -17.9573  -14.9119 C   0  0  0  0  0  0  0  0  0  0  0  0
   26.5148  -17.5893  -13.8623 C   0  0  0  0  0  0  0  0  0  0  0  0
   27.3173  -16.6154  -14.3182 N   0  0  0  0  0  0  0  0  0  0  0  0
   27.0073  -16.3940  -15.6048 C   0  0  0  0  0  0  0  0  0  0  0  0
   26.0223  -17.2052  -15.9860 N   0  0  0  0  0  0  0  0  0  0  0  0
   23.3469  -20.5596  -13.5850 C   0  0  0  0  0  0  0  0  0  0  0  0
   23.2287  -21.5677  -14.3230 O   0  0  0  0  0  0  0  0  0  0  0  0
   17.0391  -24.3064   -9.1595 N   0  0  0  0  0  0  0  0  0  0  0  0
   18.3923  -24.3538   -8.7062 C   0  0  0  0  0  0  0  0  0  0  0  0
   18.8194  -25.3599   -8.0498 N   0  0  0  0  0  0  0  0  0  0  0  0
   19.2986  -23.2807   -8.9769 N   0  0  0  0  0  0  0  0  0  0  0  0
   18.9161  -22.0667   -9.6540 C   0  0  0  0  0  0  0  0  0  0  0  0
   19.4361  -22.0245  -11.0750 C   0  0  0  0  0  0  0  0  0  0  0  0
   20.6051  -21.1195  -11.2407 C   0  0  0  0  0  0  0  0  0  0  0  0
   21.0992  -21.0139  -12.6627 C   0  0  2  0  0  0  0  0  0  0  0  0
   22.2554  -20.1808  -12.7270 N   0  0  0  0  0  0  0  0  0  0  0  0
   20.0732  -20.5761  -13.6139 C   0  0  0  0  0  0  0  0  0  0  0  0
   19.9953  -19.3414  -13.8888 O   0  0  0  0  0  0  0  0  0  0  0  0
   19.1695  -21.3963  -14.2484 O   0  0  0  0  0  0  0  0  0  0  0  0
  1  2  1  0
  2  3  1  0
  4  5  1  0
  4  3  1  0
  5  6  1  6
  7  8  2  0
  7  5  1  0
  9  7  1  0
 10 11  1  6
 10  9  1  0
 11 12  1  0
 12 16  1  0
 13 12  2  0
 13 14  1  0
 14 15  1  0
 16 15  2  0
 17 10  1  0
 18 17  2  0
 20 19  1  0
 20 22  1  0
 21 20  2  0
 23 22  1  0
 24 23  1  0
 25 24  1  0
 26 25  1  1
 26 27  1  0
 27 17  1  0
 28 30  1  0
 28 26  1  0
 29 28  2  0
M  END
$$$$
