MHR.pdb
     RDKit          3D

 30 30  0  0  1  0  0  0  0  0999 V2000
   16.7046  -22.6217   -6.4735 C   0  0  0  0  0  0  0  0  0  0  0  0
   18.2467  -23.0900   -7.3263 S   0  0  0  0  0  0  0  0  0  0  0  0
   18.4916  -24.8802   -7.2636 C   0  0  0  0  0  0  0  0  0  0  0  0
   18.0717  -25.5078   -5.9799 C   0  0  0  0  0  0  0  0  0  0  0  0
   18.2981  -26.9768   -5.8661 C   0  0  2  0  0  0  0  0  0  0  0  0
   17.7120  -27.7818   -6.8851 N   0  0  0  0  0  0  0  0  0  0  0  0
   17.9394  -27.4275   -4.4815 C   0  0  0  0  0  0  0  0  0  0  0  0
   16.7174  -27.6660   -4.2419 O   0  0  0  0  0  0  0  0  0  0  0  0
   18.9416  -27.5729   -3.4982 N   0  0  0  0  0  0  0  0  0  0  0  0
   18.6246  -28.0239   -2.1602 C   0  0  1  0  0  0  0  0  0  0  0  0
   19.6723  -29.0017   -1.7055 C   0  0  0  0  0  0  0  0  0  0  0  0
   19.6034  -30.3238   -2.3178 C   0  0  0  0  0  0  0  0  0  0  0  0
   18.5757  -30.8049   -3.0975 C   0  0  0  0  0  0  0  0  0  0  0  0
   18.9045  -32.0605   -3.4373 N   0  0  0  0  0  0  0  0  0  0  0  0
   20.0946  -32.3394   -2.8838 C   0  0  0  0  0  0  0  0  0  0  0  0
   20.5381  -31.2894   -2.1951 N   0  0  0  0  0  0  0  0  0  0  0  0
   18.5314  -26.9174   -1.2028 C   0  0  0  0  0  0  0  0  0  0  0  0
   18.7873  -25.7504   -1.5868 O   0  0  0  0  0  0  0  0  0  0  0  0
   12.6374  -21.7540    0.0241 N   0  0  0  0  0  0  0  0  0  0  0  0
   13.6016  -21.3356    0.9906 C   0  0  0  0  0  0  0  0  0  0  0  0
   13.4706  -20.2199    1.5936 N   0  0  0  0  0  0  0  0  0  0  0  0
   14.7318  -22.1535    1.3066 N   0  0  0  0  0  0  0  0  0  0  0  0
   15.1802  -23.2463    0.4799 C   0  0  0  0  0  0  0  0  0  0  0  0
   16.2415  -24.0772    1.1688 C   0  0  0  0  0  0  0  0  0  0  0  0
   16.7686  -25.1741    0.3133 C   0  0  0  0  0  0  0  0  0  0  0  0
   17.8149  -26.0266    0.9886 C   0  0  2  0  0  0  0  0  0  0  0  0
   18.1529  -27.1429    0.1673 N   0  0  0  0  0  0  0  0  0  0  0  0
   17.4464  -26.4529    2.3420 C   0  0  0  0  0  0  0  0  0  0  0  0
   16.7814  -27.5234    2.4756 O   0  0  0  0  0  0  0  0  0  0  0  0
   17.7616  -25.7865    3.5033 O   0  0  0  0  0  0  0  0  0  0  0  0
  1  2  1  0
  2  3  1  0
  4  5  1  0
  4  3  1  0
  5  6  1  6
  7  8  2  0
  7  5  1  0
  9  7  1  0
 10 11  1  1
 10  9  1  0
 11 12  1  0
 12 16  1  0
 13 12  2  0
 13 14  1  0
 14 15  1  0
 16 15  2  0
 17 10  1  0
 18 17  2  0
 20 19  1  0
 20 22  1  0
 21 20  2  0
 23 22  1  0
 24 23  1  0
 25 24  1  0
 26 25  1  6
 26 27  1  0
 27 17  1  0
 28 30  1  0
 28 26  1  0
 29 28  2  0
M  END
$$$$
