MHR.pdb
     RDKit          3D

 30 30  0  0  1  0  0  0  0  0999 V2000
   22.7552  -19.6068   -9.4496 C   0  0  0  0  0  0  0  0  0  0  0  0
   23.8469  -20.9749   -8.9385 S   0  0  0  0  0  0  0  0  0  0  0  0
   25.5805  -20.5473   -9.2225 C   0  0  0  0  0  0  0  0  0  0  0  0
   25.8322  -19.8503  -10.5144 C   0  0  0  0  0  0  0  0  0  0  0  0
   25.8416  -20.7121  -11.7306 C   0  0  2  0  0  0  0  0  0  0  0  0
   26.7601  -21.8013  -11.7197 N   0  0  0  0  0  0  0  0  0  0  0  0
   25.9692  -19.8477  -12.9493 C   0  0  0  0  0  0  0  0  0  0  0  0
   25.1588  -18.8797  -13.0677 O   0  0  0  0  0  0  0  0  0  0  0  0
   26.9613  -20.1212  -13.9154 N   0  0  0  0  0  0  0  0  0  0  0  0
   27.1006  -19.3071  -15.1038 C   0  0  1  0  0  0  0  0  0  0  0  0
   28.4358  -19.5810  -15.7385 C   0  0  0  0  0  0  0  0  0  0  0  0
   28.7426  -18.7842  -16.9211 C   0  0  0  0  0  0  0  0  0  0  0  0
   27.8957  -17.8945  -17.5428 C   0  0  0  0  0  0  0  0  0  0  0  0
   28.5639  -17.3962  -18.5942 N   0  0  0  0  0  0  0  0  0  0  0  0
   29.7804  -17.9622  -18.6158 C   0  0  0  0  0  0  0  0  0  0  0  0
   29.9085  -18.8141  -17.6002 N   0  0  0  0  0  0  0  0  0  0  0  0
   26.0310  -19.5482  -16.0772 C   0  0  0  0  0  0  0  0  0  0  0  0
   25.6189  -20.7196  -16.2586 O   0  0  0  0  0  0  0  0  0  0  0  0
   18.2975  -15.6412  -17.7443 N   0  0  0  0  0  0  0  0  0  0  0  0
   18.3831  -16.8539  -18.4932 C   0  0  0  0  0  0  0  0  0  0  0  0
   17.3573  -17.3182  -19.0915 N   0  0  0  0  0  0  0  0  0  0  0  0
   19.6151  -17.5739  -18.5925 N   0  0  0  0  0  0  0  0  0  0  0  0
   20.7879  -17.2565  -17.8163 C   0  0  0  0  0  0  0  0  0  0  0  0
   21.9673  -18.1276  -18.1929 C   0  0  0  0  0  0  0  0  0  0  0  0
   23.1764  -17.8586  -17.3691 C   0  0  0  0  0  0  0  0  0  0  0  0
   24.3524  -18.7434  -17.7031 C   0  0  2  0  0  0  0  0  0  0  0  0
   25.4453  -18.4693  -16.8282 N   0  0  0  0  0  0  0  0  0  0  0  0
   24.7641  -18.6738  -19.1083 C   0  0  0  0  0  0  0  0  0  0  0  0
   25.3431  -17.6221  -19.5142 O   0  0  0  0  0  0  0  0  0  0  0  0
   24.5772  -19.6628  -20.0458 O   0  0  0  0  0  0  0  0  0  0  0  0
  1  2  1  0
  2  3  1  0
  4  5  1  0
  4  3  1  0
  5  6  1  1
  7  8  2  0
  7  5  1  0
  9  7  1  0
 10 11  1  6
 10  9  1  0
 11 12  1  0
 12 16  1  0
 13 12  2  0
 13 14  1  0
 14 15  1  0
 16 15  2  0
 17 10  1  0
 18 17  2  0
 20 19  1  0
 20 22  1  0
 21 20  2  0
 23 22  1  0
 24 23  1  0
 25 24  1  0
 26 25  1  6
 26 27  1  0
 27 17  1  0
 28 30  1  0
 28 26  1  0
 29 28  2  0
M  END
$$$$
