MHR.pdb
     RDKit          3D

 30 30  0  0  1  0  0  0  0  0999 V2000
   27.3069  -19.5911   -6.9870 C   0  0  0  0  0  0  0  0  0  0  0  0
   28.8266  -20.0327   -7.8927 S   0  0  0  0  0  0  0  0  0  0  0  0
   28.4258  -20.9222   -9.4149 C   0  0  0  0  0  0  0  0  0  0  0  0
   27.2304  -20.3963  -10.1309 C   0  0  0  0  0  0  0  0  0  0  0  0
   26.7611  -21.1993  -11.2958 C   0  0  2  0  0  0  0  0  0  0  0  0
   27.7784  -21.7586  -12.1218 N   0  0  0  0  0  0  0  0  0  0  0  0
   25.7468  -20.4080  -12.0665 C   0  0  0  0  0  0  0  0  0  0  0  0
   25.9779  -19.1738  -12.2422 O   0  0  0  0  0  0  0  0  0  0  0  0
   24.5855  -21.0351  -12.5671 N   0  0  0  0  0  0  0  0  0  0  0  0
   23.8197  -20.4508  -13.6471 C   0  0  1  0  0  0  0  0  0  0  0  0
   24.7111  -20.2672  -14.8440 C   0  0  0  0  0  0  0  0  0  0  0  0
   25.7492  -19.2525  -14.7023 C   0  0  0  0  0  0  0  0  0  0  0  0
   25.5592  -17.9449  -14.3152 C   0  0  0  0  0  0  0  0  0  0  0  0
   26.7656  -17.3580  -14.3337 N   0  0  0  0  0  0  0  0  0  0  0  0
   27.6651  -18.2759  -14.7196 C   0  0  0  0  0  0  0  0  0  0  0  0
   27.0625  -19.4410  -14.9495 N   0  0  0  0  0  0  0  0  0  0  0  0
   22.6579  -21.2657  -14.0156 C   0  0  0  0  0  0  0  0  0  0  0  0
   22.8047  -22.4995  -14.1920 O   0  0  0  0  0  0  0  0  0  0  0  0
   19.3045  -24.3165   -7.6649 N   0  0  0  0  0  0  0  0  0  0  0  0
   18.2627  -24.5207   -8.6198 C   0  0  0  0  0  0  0  0  0  0  0  0
   17.2733  -25.2768   -8.3455 N   0  0  0  0  0  0  0  0  0  0  0  0
   18.3011  -23.8846   -9.9004 N   0  0  0  0  0  0  0  0  0  0  0  0
   19.4226  -23.1110  -10.3722 C   0  0  0  0  0  0  0  0  0  0  0  0
   19.1901  -22.5723  -11.7676 C   0  0  0  0  0  0  0  0  0  0  0  0
   20.3584  -21.8249  -12.3054 C   0  0  0  0  0  0  0  0  0  0  0  0
   20.2048  -21.4061  -13.7471 C   0  0  2  0  0  0  0  0  0  0  0  0
   21.3539  -20.6793  -14.1790 N   0  0  0  0  0  0  0  0  0  0  0  0
   18.9709  -20.6626  -14.0182 C   0  0  0  0  0  0  0  0  0  0  0  0
   17.9003  -21.3174  -14.1947 O   0  0  0  0  0  0  0  0  0  0  0  0
   18.8643  -19.2937  -14.1004 O   0  0  0  0  0  0  0  0  0  0  0  0
  1  2  1  0
  2  3  1  0
  4  5  1  0
  4  3  1  0
  5  6  1  6
  7  8  2  0
  7  5  1  0
  9  7  1  0
 10 11  1  6
 10  9  1  0
 11 12  1  0
 12 16  1  0
 13 12  2  0
 13 14  1  0
 14 15  1  0
 16 15  2  0
 17 10  1  0
 18 17  2  0
 20 19  1  0
 20 22  1  0
 21 20  2  0
 23 22  1  0
 24 23  1  0
 25 24  1  0
 26 25  1  1
 26 27  1  0
 27 17  1  0
 28 30  1  0
 28 26  1  0
 29 28  2  0
M  END
$$$$
