MHR.pdb
     RDKit          3D

 30 30  0  0  1  0  0  0  0  0999 V2000
   27.1960  -13.3993  -15.7514 C   0  0  0  0  0  0  0  0  0  0  0  0
   26.7320  -12.7579  -17.3940 S   0  0  0  0  0  0  0  0  0  0  0  0
   25.0926  -13.3525  -17.8708 C   0  0  0  0  0  0  0  0  0  0  0  0
   24.6686  -14.5969  -17.1708 C   0  0  0  0  0  0  0  0  0  0  0  0
   23.3489  -15.1581  -17.5778 C   0  0  2  0  0  0  0  0  0  0  0  0
   22.2429  -14.2617  -17.5224 N   0  0  0  0  0  0  0  0  0  0  0  0
   23.1055  -16.4389  -16.8368 C   0  0  0  0  0  0  0  0  0  0  0  0
   22.5524  -16.3603  -15.6985 O   0  0  0  0  0  0  0  0  0  0  0  0
   23.4870  -17.6735  -17.4047 N   0  0  0  0  0  0  0  0  0  0  0  0
   23.3259  -18.9171  -16.6823 C   0  0  1  0  0  0  0  0  0  0  0  0
   22.8321  -19.9782  -17.6261 C   0  0  0  0  0  0  0  0  0  0  0  0
   21.4108  -19.9177  -17.9485 C   0  0  0  0  0  0  0  0  0  0  0  0
   20.4671  -19.1399  -17.3162 C   0  0  0  0  0  0  0  0  0  0  0  0
   19.2923  -19.3999  -17.9097 N   0  0  0  0  0  0  0  0  0  0  0  0
   19.5092  -20.3073  -18.8741 C   0  0  0  0  0  0  0  0  0  0  0  0
   20.7991  -20.6364  -18.9132 N   0  0  0  0  0  0  0  0  0  0  0  0
   24.5699  -19.3609  -16.0457 C   0  0  0  0  0  0  0  0  0  0  0  0
   25.6667  -19.1132  -16.6029 O   0  0  0  0  0  0  0  0  0  0  0  0
   25.8727  -20.4941   -7.6295 N   0  0  0  0  0  0  0  0  0  0  0  0
   24.9363  -20.7522   -8.6761 C   0  0  0  0  0  0  0  0  0  0  0  0
   23.6989  -20.9098   -8.4122 N   0  0  0  0  0  0  0  0  0  0  0  0
   25.3597  -20.8383  -10.0397 N   0  0  0  0  0  0  0  0  0  0  0  0
   26.7404  -20.7777  -10.4504 C   0  0  0  0  0  0  0  0  0  0  0  0
   26.8855  -20.8458  -11.9556 C   0  0  0  0  0  0  0  0  0  0  0  0
   25.6404  -20.4714  -12.6783 C   0  0  0  0  0  0  0  0  0  0  0  0
   25.7974  -20.4167  -14.1782 C   0  0  2  0  0  0  0  0  0  0  0  0
   24.5579  -20.0744  -14.7959 N   0  0  0  0  0  0  0  0  0  0  0  0
   26.3623  -21.6388  -14.7581 C   0  0  0  0  0  0  0  0  0  0  0  0
   27.6217  -21.7255  -14.8699 O   0  0  0  0  0  0  0  0  0  0  0  0
   25.6388  -22.7218  -15.2009 O   0  0  0  0  0  0  0  0  0  0  0  0
  1  2  1  0
  2  3  1  0
  4  5  1  0
  4  3  1  0
  5  6  1  1
  7  8  2  0
  7  5  1  0
  9  7  1  0
 10 11  1  6
 10  9  1  0
 11 12  1  0
 12 16  1  0
 13 12  2  0
 13 14  1  0
 14 15  1  0
 16 15  2  0
 17 10  1  0
 18 17  2  0
 20 19  1  0
 20 22  1  0
 21 20  2  0
 23 22  1  0
 24 23  1  0
 25 24  1  0
 26 25  1  1
 26 27  1  0
 27 17  1  0
 28 30  1  0
 28 26  1  0
 29 28  2  0
M  END
$$$$
