MHR.pdb
     RDKit          3D

 30 30  0  0  1  0  0  0  0  0999 V2000
   29.8762  -20.4414   -8.3193 C   0  0  0  0  0  0  0  0  0  0  0  0
   28.5056  -19.6865   -7.3832 S   0  0  0  0  0  0  0  0  0  0  0  0
   26.9107  -20.2069   -8.0571 C   0  0  0  0  0  0  0  0  0  0  0  0
   26.7843  -20.0282   -9.5303 C   0  0  0  0  0  0  0  0  0  0  0  0
   25.5393  -20.5658  -10.1492 C   0  0  2  0  0  0  0  0  0  0  0  0
   25.3182  -21.9651   -9.9978 N   0  0  0  0  0  0  0  0  0  0  0  0
   25.4574  -20.1084  -11.5750 C   0  0  0  0  0  0  0  0  0  0  0  0
   25.5312  -18.8618  -11.7948 O   0  0  0  0  0  0  0  0  0  0  0  0
   25.3032  -21.0486  -12.6164 N   0  0  0  0  0  0  0  0  0  0  0  0
   25.0861  -20.6290  -13.9843 C   0  0  1  0  0  0  0  0  0  0  0  0
   26.2401  -21.0868  -14.8323 C   0  0  0  0  0  0  0  0  0  0  0  0
   27.2727  -20.0863  -15.0781 C   0  0  0  0  0  0  0  0  0  0  0  0
   27.2296  -18.7642  -14.6961 C   0  0  0  0  0  0  0  0  0  0  0  0
   28.3651  -18.1991  -15.1336 N   0  0  0  0  0  0  0  0  0  0  0  0
   29.0803  -19.1440  -15.7630 C   0  0  0  0  0  0  0  0  0  0  0  0
   28.4285  -20.3051  -15.7395 N   0  0  0  0  0  0  0  0  0  0  0  0
   23.8302  -21.1461  -14.5367 C   0  0  0  0  0  0  0  0  0  0  0  0
   23.5451  -22.3584  -14.3828 O   0  0  0  0  0  0  0  0  0  0  0  0
   17.4380  -22.5780  -11.7179 N   0  0  0  0  0  0  0  0  0  0  0  0
   18.7476  -23.1443  -11.7734 C   0  0  0  0  0  0  0  0  0  0  0  0
   18.9194  -24.3949  -11.5939 N   0  0  0  0  0  0  0  0  0  0  0  0
   19.8935  -22.3281  -12.0320 N   0  0  0  0  0  0  0  0  0  0  0  0
   19.8170  -20.9205  -12.3344 C   0  0  0  0  0  0  0  0  0  0  0  0
   20.8576  -20.5040  -13.3518 C   0  0  0  0  0  0  0  0  0  0  0  0
   20.8923  -21.3907  -14.5457 C   0  0  0  0  0  0  0  0  0  0  0  0
   21.6757  -20.8245  -15.7047 C   0  0  2  0  0  0  0  0  0  0  0  0
   22.9191  -20.2916  -15.2516 N   0  0  0  0  0  0  0  0  0  0  0  0
   20.9314  -19.8409  -16.4968 C   0  0  0  0  0  0  0  0  0  0  0  0
   19.6665  -19.8376  -16.4178 O   0  0  0  0  0  0  0  0  0  0  0  0
   21.4886  -18.9024  -17.3341 O   0  0  0  0  0  0  0  0  0  0  0  0
  1  2  1  0
  2  3  1  0
  4  5  1  0
  4  3  1  0
  5  6  1  6
  7  8  2  0
  7  5  1  0
  9  7  1  0
 10 11  1  6
 10  9  1  0
 11 12  1  0
 12 16  1  0
 13 12  2  0
 13 14  1  0
 14 15  1  0
 16 15  2  0
 17 10  1  0
 18 17  2  0
 20 19  1  0
 20 22  1  0
 21 20  2  0
 23 22  1  0
 24 23  1  0
 25 24  1  0
 26 25  1  1
 26 27  1  0
 27 17  1  0
 28 30  1  0
 28 26  1  0
 29 28  2  0
M  END
$$$$
