MHR.pdb
     RDKit          3D

 30 30  0  0  1  0  0  0  0  0999 V2000
   27.4390  -19.0704   -6.3512 C   0  0  0  0  0  0  0  0  0  0  0  0
   28.6647  -20.2877   -6.9346 S   0  0  0  0  0  0  0  0  0  0  0  0
   28.6365  -20.4066   -8.7384 C   0  0  0  0  0  0  0  0  0  0  0  0
   27.3285  -20.8454   -9.2996 C   0  0  0  0  0  0  0  0  0  0  0  0
   27.1754  -20.7172  -10.7768 C   0  0  2  0  0  0  0  0  0  0  0  0
   27.5744  -19.4718  -11.3423 N   0  0  0  0  0  0  0  0  0  0  0  0
   25.7855  -21.1221  -11.1678 C   0  0  0  0  0  0  0  0  0  0  0  0
   25.5047  -22.3581  -11.1341 O   0  0  0  0  0  0  0  0  0  0  0  0
   24.8424  -20.1463  -11.5560 N   0  0  0  0  0  0  0  0  0  0  0  0
   23.5031  -20.5129  -11.9636 C   0  0  1  0  0  0  0  0  0  0  0  0
   22.5070  -19.7977  -11.0936 C   0  0  0  0  0  0  0  0  0  0  0  0
   22.2632  -20.4053   -9.7902 C   0  0  0  0  0  0  0  0  0  0  0  0
   22.8200  -21.5744   -9.3225 C   0  0  0  0  0  0  0  0  0  0  0  0
   22.3165  -21.7777   -8.0956 N   0  0  0  0  0  0  0  0  0  0  0  0
   21.4786  -20.7662   -7.8208 C   0  0  0  0  0  0  0  0  0  0  0  0
   21.4327  -19.9167   -8.8454 N   0  0  0  0  0  0  0  0  0  0  0  0
   23.2414  -20.2039  -13.3728 C   0  0  0  0  0  0  0  0  0  0  0  0
   23.8321  -19.2349  -13.9085 O   0  0  0  0  0  0  0  0  0  0  0  0
   25.8295  -25.6564  -15.7134 N   0  0  0  0  0  0  0  0  0  0  0  0
   25.5389  -25.1519  -17.0172 C   0  0  0  0  0  0  0  0  0  0  0  0
   25.3545  -25.9512  -17.9934 N   0  0  0  0  0  0  0  0  0  0  0  0
   25.4460  -23.7453  -17.2598 N   0  0  0  0  0  0  0  0  0  0  0  0
   25.5862  -22.7481  -16.2281 C   0  0  0  0  0  0  0  0  0  0  0  0
   24.2564  -22.4010  -15.5935 C   0  0  0  0  0  0  0  0  0  0  0  0
   23.6445  -21.1693  -16.1604 C   0  0  0  0  0  0  0  0  0  0  0  0
   22.2980  -20.8288  -15.5702 C   0  0  2  0  0  0  0  0  0  0  0  0
   22.3213  -20.9888  -14.1528 N   0  0  0  0  0  0  0  0  0  0  0  0
   21.1848  -21.5689  -16.1718 C   0  0  0  0  0  0  0  0  0  0  0  0
   20.9661  -21.4239  -17.4117 O   0  0  0  0  0  0  0  0  0  0  0  0
   20.3390  -22.4231  -15.5032 O   0  0  0  0  0  0  0  0  0  0  0  0
  1  2  1  0
  2  3  1  0
  4  5  1  0
  4  3  1  0
  5  6  1  1
  7  8  2  0
  7  5  1  0
  9  7  1  0
 10 11  1  1
 10  9  1  0
 11 12  1  0
 12 16  1  0
 13 12  2  0
 13 14  1  0
 14 15  1  0
 16 15  2  0
 17 10  1  0
 18 17  2  0
 20 19  1  0
 20 22  1  0
 21 20  2  0
 23 22  1  0
 24 23  1  0
 25 24  1  0
 26 25  1  6
 26 27  1  0
 27 17  1  0
 28 30  1  0
 28 26  1  0
 29 28  2  0
M  END
$$$$
