GRT.pdb
     RDKit          3D

 23 22  0  0  1  0  0  0  0  0999 V2000
    6.6392  -20.8966   20.0320 N   0  0  0  0  0  0  0  0  0  0  0  0
    6.4364  -20.1720   21.2670 C   0  0  0  0  0  0  0  0  0  0  0  0
    7.3895  -19.0398   21.3180 C   0  0  0  0  0  0  0  0  0  0  0  0
    8.5546  -19.2061   20.9437 O   0  0  0  0  0  0  0  0  0  0  0  0
    9.5330  -12.0423   19.3996 N   0  0  0  0  0  0  0  0  0  0  0  0
    8.6689  -12.9445   18.7623 C   0  0  0  0  0  0  0  0  0  0  0  0
    8.9502  -13.3381   17.5435 N   0  0  0  0  0  0  0  0  0  0  0  0
    7.5021  -13.4350   19.4118 N   0  0  0  0  0  0  0  0  0  0  0  0
    7.3537  -13.1616   20.8132 C   0  0  0  0  0  0  0  0  0  0  0  0
    8.0633  -14.1510   21.6902 C   0  0  0  0  0  0  0  0  0  0  0  0
    7.2079  -15.3168   22.0857 C   0  0  0  0  0  0  0  0  0  0  0  0
    7.9181  -16.6413   21.9268 C   0  0  2  0  0  0  0  0  0  0  0  0
    6.9849  -17.7408   21.7978 N   0  0  0  0  0  0  0  0  0  0  0  0
    8.7385  -16.8348   23.1584 C   0  0  0  0  0  0  0  0  0  0  0  0
    8.1480  -16.7000   24.2564 O   0  0  0  0  0  0  0  0  0  0  0  0
    8.3159  -13.9878   17.0342 C   0  0  0  0  0  0  0  0  0  0  0  0
   10.4632  -19.7089   24.5904 C   0  0  2  0  0  0  0  0  0  0  0  0
   11.5911  -18.7130   24.3477 O   0  0  0  0  0  0  0  0  0  0  0  0
   12.2218  -18.9849   23.1191 C   0  0  2  0  0  0  0  0  0  0  0  0
   10.9821  -17.3595   24.2335 N   0  0  0  0  0  0  0  0  0  0  0  0
   10.1195  -17.1558   23.1146 C   0  0  0  0  0  0  0  0  0  0  0  0
   11.9621  -16.2426   24.3508 O   0  0  0  0  0  0  0  0  0  0  0  0
   12.0874  -15.4434   23.4056 O   0  0  0  0  0  0  0  0  0  0  0  0
  1  2  1  0
  3  4  2  0
  3  2  1  0
  5  6  1  0
  6  8  1  0
  7  6  2  0
  8  9  1  0
  9 10  1  0
 10 11  1  0
 12 11  1  1
 12 13  1  0
 13  3  1  0
 14 12  1  0
 15 14  2  0
 17 16  1  1
 17 19  1  0
 18 17  1  0
 19 21  1  0
 19 20  1  1
 20 14  1  0
 21 23  1  0
 22 21  2  0
M  END
$$$$
