GRT.pdb
     RDKit          3D

 23 22  0  0  1  0  0  0  0  0999 V2000
    5.4939  -26.1332   20.5243 N   0  0  0  0  0  0  0  0  0  0  0  0
    4.5869  -25.5776   21.5041 C   0  0  0  0  0  0  0  0  0  0  0  0
    4.9983  -24.1863   21.8003 C   0  0  0  0  0  0  0  0  0  0  0  0
    6.0830  -23.7690   21.3826 O   0  0  0  0  0  0  0  0  0  0  0  0
    1.4495  -19.3830   20.0959 N   0  0  0  0  0  0  0  0  0  0  0  0
    0.2277  -19.9755   20.4467 C   0  0  0  0  0  0  0  0  0  0  0  0
   -0.6813  -20.1510   19.5181 N   0  0  0  0  0  0  0  0  0  0  0  0
   -0.0386  -20.3854   21.7828 N   0  0  0  0  0  0  0  0  0  0  0  0
    1.0423  -20.3297   22.7258 C   0  0  0  0  0  0  0  0  0  0  0  0
    2.2601  -21.0842   22.2794 C   0  0  0  0  0  0  0  0  0  0  0  0
    3.3554  -21.1055   23.3027 C   0  0  0  0  0  0  0  0  0  0  0  0
    4.5393  -21.9403   22.8718 C   0  0  2  0  0  0  0  0  0  0  0  0
    4.1557  -23.3035   22.5698 N   0  0  0  0  0  0  0  0  0  0  0  0
    5.4981  -21.9415   24.0155 C   0  0  0  0  0  0  0  0  0  0  0  0
    5.1902  -22.6421   25.0089 O   0  0  0  0  0  0  0  0  0  0  0  0
   -1.6120  -20.5539   19.7535 C   0  0  0  0  0  0  0  0  0  0  0  0
   10.0088  -21.0708   25.7776 C   0  0  2  0  0  0  0  0  0  0  0  0
    9.0862  -20.8733   24.5807 O   0  0  0  0  0  0  0  0  0  0  0  0
    9.3954  -21.8043   23.5714 C   0  0  1  0  0  0  0  0  0  0  0  0
    7.6965  -21.1632   25.0286 N   0  0  0  0  0  0  0  0  0  0  0  0
    6.7043  -21.1952   24.0029 C   0  0  0  0  0  0  0  0  0  0  0  0
    7.2413  -20.3237   26.1730 O   0  0  0  0  0  0  0  0  0  0  0  0
    6.4990  -19.3498   25.9537 O   0  0  0  0  0  0  0  0  0  0  0  0
  1  2  1  0
  3  4  2  0
  3  2  1  0
  5  6  1  0
  6  8  1  0
  7  6  2  0
  8  9  1  0
  9 10  1  0
 10 11  1  0
 12 11  1  1
 12 13  1  0
 13  3  1  0
 14 12  1  0
 15 14  2  0
 17 16  1  6
 17 19  1  0
 18 17  1  0
 19 21  1  0
 19 20  1  6
 20 14  1  0
 21 23  1  0
 22 21  2  0
M  END
$$$$
