GRT.pdb
     RDKit          3D

 23 22  0  0  1  0  0  0  0  0999 V2000
    7.6634  -12.5444   18.6612 N   0  0  0  0  0  0  0  0  0  0  0  0
    8.6690  -12.9933   19.5984 C   0  0  0  0  0  0  0  0  0  0  0  0
    7.9960  -13.6505   20.7421 C   0  0  0  0  0  0  0  0  0  0  0  0
    6.7997  -13.4297   20.9546 O   0  0  0  0  0  0  0  0  0  0  0  0
   11.5745  -20.1978   20.7558 N   0  0  0  0  0  0  0  0  0  0  0  0
   10.4880  -20.0130   19.8884 C   0  0  0  0  0  0  0  0  0  0  0  0
   10.4568  -20.6810   18.7605 N   0  0  0  0  0  0  0  0  0  0  0  0
    9.4285  -19.1198   20.2104 N   0  0  0  0  0  0  0  0  0  0  0  0
    9.5474  -18.3509   21.4169 C   0  0  0  0  0  0  0  0  0  0  0  0
    8.4100  -17.3950   21.6270 C   0  0  0  0  0  0  0  0  0  0  0  0
    8.5109  -16.6220   22.9074 C   0  0  0  0  0  0  0  0  0  0  0  0
    8.0778  -15.1822   22.7547 C   0  0  2  0  0  0  0  0  0  0  0  0
    8.7107  -14.5472   21.6177 N   0  0  0  0  0  0  0  0  0  0  0  0
    8.4916  -14.4784   24.0039 C   0  0  0  0  0  0  0  0  0  0  0  0
    9.6886  -14.1115   24.0746 O   0  0  0  0  0  0  0  0  0  0  0  0
    9.6702  -20.5570   18.0900 C   0  0  0  0  0  0  0  0  0  0  0  0
    6.8103  -11.4002   25.7946 C   0  0  2  0  0  0  0  0  0  0  0  0
    6.8374  -12.5817   26.7568 O   0  0  0  0  0  0  0  0  0  0  0  0
    5.6112  -13.2713   26.7126 C   0  0  2  0  0  0  0  0  0  0  0  0
    7.8851  -13.5269   26.2825 N   0  0  0  0  0  0  0  0  0  0  0  0
    7.5934  -14.2254   25.0724 C   0  0  0  0  0  0  0  0  0  0  0  0
    8.3683  -14.4709   27.3299 O   0  0  0  0  0  0  0  0  0  0  0  0
    8.2889  -15.6955   27.1263 O   0  0  0  0  0  0  0  0  0  0  0  0
  1  2  1  0
  3  4  2  0
  3  2  1  0
  5  6  1  0
  6  8  1  0
  7  6  2  0
  8  9  1  0
  9 10  1  0
 10 11  1  0
 12 11  1  1
 12 13  1  0
 13  3  1  0
 14 12  1  0
 15 14  2  0
 17 16  1  1
 17 19  1  0
 18 17  1  0
 19 21  1  0
 19 20  1  1
 20 14  1  0
 21 23  1  0
 22 21  2  0
M  END
$$$$
