GRT.pdb
     RDKit          3D

 23 22  0  0  1  0  0  0  0  0999 V2000
    7.8328  -17.6430   17.1261 N   0  0  0  0  0  0  0  0  0  0  0  0
    7.3338  -17.7560   18.4787 C   0  0  0  0  0  0  0  0  0  0  0  0
    8.2215  -16.9868   19.3805 C   0  0  0  0  0  0  0  0  0  0  0  0
    9.4455  -17.0470   19.2285 O   0  0  0  0  0  0  0  0  0  0  0  0
    6.1924  -11.1036   25.5629 N   0  0  0  0  0  0  0  0  0  0  0  0
    6.4896  -12.4136   25.9657 C   0  0  0  0  0  0  0  0  0  0  0  0
    6.0821  -12.8225   27.1432 N   0  0  0  0  0  0  0  0  0  0  0  0
    7.2199  -13.2982   25.1242 N   0  0  0  0  0  0  0  0  0  0  0  0
    7.9143  -12.7313   24.0030 C   0  0  0  0  0  0  0  0  0  0  0  0
    8.6536  -13.7493   23.1852 C   0  0  0  0  0  0  0  0  0  0  0  0
    7.7671  -14.5275   22.2602 C   0  0  0  0  0  0  0  0  0  0  0  0
    8.5316  -15.5286   21.4252 C   0  0  2  0  0  0  0  0  0  0  0  0
    7.6849  -16.1647   20.4377 N   0  0  0  0  0  0  0  0  0  0  0  0
    9.0489  -16.5629   22.3686 C   0  0  0  0  0  0  0  0  0  0  0  0
    8.1949  -17.2726   22.9512 O   0  0  0  0  0  0  0  0  0  0  0  0
    6.3413  -13.7662   27.4980 C   0  0  0  0  0  0  0  0  0  0  0  0
   11.0972  -19.3855   21.4965 C   0  0  2  0  0  0  0  0  0  0  0  0
   11.9296  -18.7207   22.5863 O   0  0  0  0  0  0  0  0  0  0  0  0
   12.9288  -17.9146   22.0094 C   0  0  2  0  0  0  0  0  0  0  0  0
   11.0301  -17.8159   23.3533 N   0  0  0  0  0  0  0  0  0  0  0  0
   10.4337  -16.7529   22.6107 C   0  0  0  0  0  0  0  0  0  0  0  0
   11.6246  -17.3021   24.6199 O   0  0  0  0  0  0  0  0  0  0  0  0
   11.7319  -16.0739   24.7854 O   0  0  0  0  0  0  0  0  0  0  0  0
  1  2  1  0
  3  4  2  0
  3  2  1  0
  5  6  1  0
  6  8  1  0
  7  6  2  0
  8  9  1  0
  9 10  1  0
 10 11  1  0
 12 11  1  1
 12 13  1  0
 13  3  1  0
 14 12  1  0
 15 14  2  0
 17 16  1  6
 17 19  1  0
 18 17  1  0
 19 21  1  0
 19 20  1  1
 20 14  1  0
 21 23  1  0
 22 21  2  0
M  END
$$$$
