GRT.pdb
     RDKit          3D

 23 22  0  0  1  0  0  0  0  0999 V2000
   10.6003  -18.9453   18.3437 N   0  0  0  0  0  0  0  0  0  0  0  0
    9.6090  -19.1255   19.3810 C   0  0  0  0  0  0  0  0  0  0  0  0
    9.9364  -18.2307   20.5146 C   0  0  0  0  0  0  0  0  0  0  0  0
   11.1184  -17.9963   20.7849 O   0  0  0  0  0  0  0  0  0  0  0  0
    9.2432  -11.8165   19.8214 N   0  0  0  0  0  0  0  0  0  0  0  0
    8.4295  -12.7081   19.1076 C   0  0  0  0  0  0  0  0  0  0  0  0
    8.3290  -12.5722   17.8072 N   0  0  0  0  0  0  0  0  0  0  0  0
    7.7175  -13.7488   19.7665 N   0  0  0  0  0  0  0  0  0  0  0  0
    8.2279  -14.2132   21.0252 C   0  0  0  0  0  0  0  0  0  0  0  0
    7.3640  -15.2583   21.6678 C   0  0  0  0  0  0  0  0  0  0  0  0
    8.0122  -15.9262   22.8430 C   0  0  0  0  0  0  0  0  0  0  0  0
    9.1981  -16.7762   22.4492 C   0  0  2  0  0  0  0  0  0  0  0  0
    8.8999  -17.6239   21.3139 N   0  0  0  0  0  0  0  0  0  0  0  0
    9.5200  -17.6308   23.6296 C   0  0  0  0  0  0  0  0  0  0  0  0
    8.5491  -18.1328   24.2441 O   0  0  0  0  0  0  0  0  0  0  0  0
    7.7689  -13.2446   17.2434 C   0  0  0  0  0  0  0  0  0  0  0  0
   12.0522  -20.4765   23.5756 C   0  0  2  0  0  0  0  0  0  0  0  0
   12.4190  -19.6392   24.7950 O   0  0  0  0  0  0  0  0  0  0  0  0
   13.5081  -18.7991   24.4965 C   0  0  2  0  0  0  0  0  0  0  0  0
   11.2605  -18.7564   25.1022 N   0  0  0  0  0  0  0  0  0  0  0  0
   10.8506  -17.8777   24.0547 C   0  0  0  0  0  0  0  0  0  0  0  0
   11.3883  -18.0151   26.3890 O   0  0  0  0  0  0  0  0  0  0  0  0
   11.2809  -16.7758   26.3887 O   0  0  0  0  0  0  0  0  0  0  0  0
  1  2  1  0
  3  4  2  0
  3  2  1  0
  5  6  1  0
  6  8  1  0
  7  6  2  0
  8  9  1  0
  9 10  1  0
 10 11  1  0
 12 11  1  1
 12 13  1  0
 13  3  1  0
 14 12  1  0
 15 14  2  0
 17 16  1  1
 17 19  1  0
 18 17  1  0
 19 21  1  0
 19 20  1  1
 20 14  1  0
 21 23  1  0
 22 21  2  0
M  END
$$$$
