GRT.pdb
     RDKit          3D

 23 22  0  0  1  0  0  0  0  0999 V2000
    9.8853  -17.4711   16.2610 N   0  0  0  0  0  0  0  0  0  0  0  0
    9.4981  -18.6643   16.9805 C   0  0  0  0  0  0  0  0  0  0  0  0
    9.2128  -18.3017   18.3876 C   0  0  0  0  0  0  0  0  0  0  0  0
    9.1298  -17.1114   18.7058 O   0  0  0  0  0  0  0  0  0  0  0  0
    6.0952  -24.8379   22.4205 N   0  0  0  0  0  0  0  0  0  0  0  0
    7.3693  -24.9902   21.8545 C   0  0  0  0  0  0  0  0  0  0  0  0
    7.8619  -26.1977   21.7181 N   0  0  0  0  0  0  0  0  0  0  0  0
    8.1289  -23.8648   21.4297 N   0  0  0  0  0  0  0  0  0  0  0  0
    7.6244  -22.5597   21.7504 C   0  0  0  0  0  0  0  0  0  0  0  0
    8.4516  -21.4457   21.1791 C   0  0  0  0  0  0  0  0  0  0  0  0
    7.8624  -20.0871   21.4118 C   0  0  0  0  0  0  0  0  0  0  0  0
    8.6660  -18.9843   20.7621 C   0  0  2  0  0  0  0  0  0  0  0  0
    9.0289  -19.3134   19.3995 N   0  0  0  0  0  0  0  0  0  0  0  0
    9.9065  -18.8252   21.5764 C   0  0  0  0  0  0  0  0  0  0  0  0
   10.7495  -19.7508   21.5068 O   0  0  0  0  0  0  0  0  0  0  0  0
    8.7534  -26.3540   21.2037 C   0  0  0  0  0  0  0  0  0  0  0  0
   11.7423  -15.3429   21.9823 C   0  0  2  0  0  0  0  0  0  0  0  0
   11.6546  -15.9897   23.3595 O   0  0  0  0  0  0  0  0  0  0  0  0
   10.6022  -15.4171   24.0980 C   0  0  2  0  0  0  0  0  0  0  0  0
   11.3168  -17.4262   23.1634 N   0  0  0  0  0  0  0  0  0  0  0  0
   10.1429  -17.6919   22.3962 C   0  0  0  0  0  0  0  0  0  0  0  0
   11.3131  -18.2248   24.4219 O   0  0  0  0  0  0  0  0  0  0  0  0
   10.2715  -18.8122   24.7648 O   0  0  0  0  0  0  0  0  0  0  0  0
  1  2  1  0
  3  4  2  0
  3  2  1  0
  5  6  1  0
  6  8  1  0
  7  6  2  0
  8  9  1  0
  9 10  1  0
 10 11  1  0
 12 11  1  1
 12 13  1  0
 13  3  1  0
 14 12  1  0
 15 14  2  0
 17 16  1  1
 17 19  1  0
 18 17  1  0
 19 21  1  0
 19 20  1  1
 20 14  1  0
 21 23  1  0
 22 21  2  0
M  END
$$$$
