GRT.pdb
     RDKit          3D

 23 22  0  0  1  0  0  0  0  0999 V2000
    4.7996  -20.4002   22.1189 N   0  0  0  0  0  0  0  0  0  0  0  0
    4.5959  -19.0837   22.6816 C   0  0  0  0  0  0  0  0  0  0  0  0
    5.8641  -18.3245   22.5909 C   0  0  0  0  0  0  0  0  0  0  0  0
    6.9320  -18.9331   22.4712 O   0  0  0  0  0  0  0  0  0  0  0  0
    9.2511  -14.6203   18.2179 N   0  0  0  0  0  0  0  0  0  0  0  0
    8.7698  -13.3141   18.3883 C   0  0  0  0  0  0  0  0  0  0  0  0
    9.5984  -12.3089   18.2385 N   0  0  0  0  0  0  0  0  0  0  0  0
    7.4086  -13.0649   18.7184 N   0  0  0  0  0  0  0  0  0  0  0  0
    7.0193  -13.2033   20.0932 C   0  0  0  0  0  0  0  0  0  0  0  0
    7.3894  -14.5316   20.6849 C   0  0  0  0  0  0  0  0  0  0  0  0
    6.8899  -14.7192   22.0858 C   0  0  0  0  0  0  0  0  0  0  0  0
    7.1113  -16.1228   22.6005 C   0  0  2  0  0  0  0  0  0  0  0  0
    5.8794  -16.8827   22.6394 N   0  0  0  0  0  0  0  0  0  0  0  0
    7.6497  -15.9882   23.9858 C   0  0  0  0  0  0  0  0  0  0  0  0
    7.0440  -15.2023   24.7526 O   0  0  0  0  0  0  0  0  0  0  0  0
    9.2758  -11.3284   18.3739 C   0  0  0  0  0  0  0  0  0  0  0  0
    7.5118  -17.5803   26.9602 C   0  0  2  0  0  0  0  0  0  0  0  0
    9.0051  -17.7090   26.6842 O   0  0  0  0  0  0  0  0  0  0  0  0
    9.2764  -18.9337   26.0458 C   0  0  2  0  0  0  0  0  0  0  0  0
    9.3833  -16.6292   25.7319 N   0  0  0  0  0  0  0  0  0  0  0  0
    8.7889  -16.7034   24.4363 C   0  0  0  0  0  0  0  0  0  0  0  0
   10.8529  -16.4051   25.6229 O   0  0  0  0  0  0  0  0  0  0  0  0
   11.3707  -16.3124   24.4956 O   0  0  0  0  0  0  0  0  0  0  0  0
  1  2  1  0
  3  4  2  0
  3  2  1  0
  5  6  1  0
  6  8  1  0
  7  6  2  0
  8  9  1  0
  9 10  1  0
 10 11  1  0
 12 11  1  1
 12 13  1  0
 13  3  1  0
 14 12  1  0
 15 14  2  0
 17 16  1  1
 17 19  1  0
 18 17  1  0
 19 21  1  0
 19 20  1  1
 20 14  1  0
 21 23  1  0
 22 21  2  0
M  END
$$$$
