GRT.pdb
     RDKit          3D

 23 22  0  0  1  0  0  0  0  0999 V2000
    8.0590  -20.2713   19.6554 N   0  0  0  0  0  0  0  0  0  0  0  0
    7.4755  -19.5301   20.7515 C   0  0  0  0  0  0  0  0  0  0  0  0
    8.3415  -18.3684   21.0567 C   0  0  0  0  0  0  0  0  0  0  0  0
    9.5160  -18.3663   20.6749 O   0  0  0  0  0  0  0  0  0  0  0  0
    8.4821  -11.7278   18.3843 N   0  0  0  0  0  0  0  0  0  0  0  0
    7.7873  -12.8970   18.0423 C   0  0  0  0  0  0  0  0  0  0  0  0
    7.7054  -13.2390   16.7790 N   0  0  0  0  0  0  0  0  0  0  0  0
    7.1753  -13.7108   19.0358 N   0  0  0  0  0  0  0  0  0  0  0  0
    7.9447  -14.0277   20.2056 C   0  0  0  0  0  0  0  0  0  0  0  0
    7.1001  -14.3420   21.4054 C   0  0  0  0  0  0  0  0  0  0  0  0
    7.8830  -14.9037   22.5538 C   0  0  0  0  0  0  0  0  0  0  0  0
    8.6898  -16.1221   22.1686 C   0  0  2  0  0  0  0  0  0  0  0  0
    7.8409  -17.2337   21.7937 N   0  0  0  0  0  0  0  0  0  0  0  0
    9.4913  -16.4991   23.3697 C   0  0  0  0  0  0  0  0  0  0  0  0
    8.9105  -16.4326   24.4790 O   0  0  0  0  0  0  0  0  0  0  0  0
    7.2798  -14.1471   16.4998 C   0  0  0  0  0  0  0  0  0  0  0  0
   10.6202  -19.4789   24.7567 C   0  0  2  0  0  0  0  0  0  0  0  0
   11.9463  -18.7842   24.4710 O   0  0  0  0  0  0  0  0  0  0  0  0
   12.4510  -19.1969   23.2236 C   0  0  2  0  0  0  0  0  0  0  0  0
   11.6788  -17.3234   24.3701 N   0  0  0  0  0  0  0  0  0  0  0  0
   10.8449  -16.9153   23.2859 C   0  0  0  0  0  0  0  0  0  0  0  0
   12.9039  -16.4771   24.4370 O   0  0  0  0  0  0  0  0  0  0  0  0
   13.1595  -15.7038   23.4968 O   0  0  0  0  0  0  0  0  0  0  0  0
  1  2  1  0
  3  4  2  0
  3  2  1  0
  5  6  1  0
  6  8  1  0
  7  6  2  0
  8  9  1  0
  9 10  1  0
 10 11  1  0
 12 11  1  1
 12 13  1  0
 13  3  1  0
 14 12  1  0
 15 14  2  0
 17 16  1  1
 17 19  1  0
 18 17  1  0
 19 21  1  0
 19 20  1  1
 20 14  1  0
 21 23  1  0
 22 21  2  0
M  END
$$$$
