GRT.pdb
     RDKit          3D

 23 22  0  0  1  0  0  0  0  0999 V2000
    7.1990  -21.3166   20.5259 N   0  0  0  0  0  0  0  0  0  0  0  0
    6.6917  -20.2260   21.3287 C   0  0  0  0  0  0  0  0  0  0  0  0
    7.8105  -19.3119   21.6535 C   0  0  0  0  0  0  0  0  0  0  0  0
    8.9729  -19.6714   21.4420 O   0  0  0  0  0  0  0  0  0  0  0  0
    8.6708  -12.7151   18.4929 N   0  0  0  0  0  0  0  0  0  0  0  0
    8.1437  -12.3151   19.7295 C   0  0  0  0  0  0  0  0  0  0  0  0
    8.6442  -11.2562   20.3191 N   0  0  0  0  0  0  0  0  0  0  0  0
    7.0837  -13.0341   20.3488 N   0  0  0  0  0  0  0  0  0  0  0  0
    7.3523  -13.6631   21.6109 C   0  0  0  0  0  0  0  0  0  0  0  0
    7.8579  -15.0697   21.4784 C   0  0  0  0  0  0  0  0  0  0  0  0
    8.1980  -15.7062   22.7924 C   0  0  0  0  0  0  0  0  0  0  0  0
    8.6504  -17.1407   22.6453 C   0  0  2  0  0  0  0  0  0  0  0  0
    7.5711  -18.0043   22.2141 N   0  0  0  0  0  0  0  0  0  0  0  0
    9.1222  -17.5784   23.9917 C   0  0  0  0  0  0  0  0  0  0  0  0
    8.2432  -17.7482   24.8697 O   0  0  0  0  0  0  0  0  0  0  0  0
    8.3236  -10.9741   21.2685 C   0  0  0  0  0  0  0  0  0  0  0  0
   12.5421  -19.8323   26.6829 C   0  0  2  0  0  0  0  0  0  0  0  0
   12.2593  -19.1694   25.3401 O   0  0  0  0  0  0  0  0  0  0  0  0
   11.9879  -20.1468   24.3644 C   0  0  1  0  0  0  0  0  0  0  0  0
   11.0248  -18.3513   25.4910 N   0  0  0  0  0  0  0  0  0  0  0  0
   10.4919  -17.7981   24.2879 C   0  0  0  0  0  0  0  0  0  0  0  0
   11.1148  -17.3092   26.5528 O   0  0  0  0  0  0  0  0  0  0  0  0
   11.2261  -16.1149   26.2231 O   0  0  0  0  0  0  0  0  0  0  0  0
  1  2  1  0
  3  4  2  0
  3  2  1  0
  5  6  1  0
  6  8  1  0
  7  6  2  0
  8  9  1  0
  9 10  1  0
 10 11  1  0
 12 11  1  1
 12 13  1  0
 13  3  1  0
 14 12  1  0
 15 14  2  0
 17 16  1  6
 17 19  1  0
 18 17  1  0
 19 21  1  0
 19 20  1  6
 20 14  1  0
 21 23  1  0
 22 21  2  0
M  END
$$$$
