GRT.pdb
     RDKit          3D

 23 22  0  0  1  0  0  0  0  0999 V2000
    7.3327  -13.0090   18.3168 N   0  0  0  0  0  0  0  0  0  0  0  0
    8.3769  -13.1071   19.3125 C   0  0  0  0  0  0  0  0  0  0  0  0
    7.8045  -13.6876   20.5487 C   0  0  0  0  0  0  0  0  0  0  0  0
    6.6280  -13.4553   20.8435 O   0  0  0  0  0  0  0  0  0  0  0  0
    6.7590  -21.2181   23.0453 N   0  0  0  0  0  0  0  0  0  0  0  0
    6.7797  -20.7557   24.3692 C   0  0  0  0  0  0  0  0  0  0  0  0
    6.0329  -21.3585   25.2628 N   0  0  0  0  0  0  0  0  0  0  0  0
    7.5913  -19.6526   24.7545 N   0  0  0  0  0  0  0  0  0  0  0  0
    8.2333  -18.9009   23.7136 C   0  0  0  0  0  0  0  0  0  0  0  0
    7.8350  -17.4543   23.6928 C   0  0  0  0  0  0  0  0  0  0  0  0
    8.4836  -16.6741   22.5892 C   0  0  0  0  0  0  0  0  0  0  0  0
    8.0149  -15.2383   22.5372 C   0  0  2  0  0  0  0  0  0  0  0  0
    8.5949  -14.5225   21.4201 N   0  0  0  0  0  0  0  0  0  0  0  0
    8.4557  -14.6001   23.8122 C   0  0  0  0  0  0  0  0  0  0  0  0
    9.6843  -14.3834   23.9391 O   0  0  0  0  0  0  0  0  0  0  0  0
    5.9373  -20.9721   26.2247 C   0  0  0  0  0  0  0  0  0  0  0  0
    6.5699  -11.5411   25.6746 C   0  0  2  0  0  0  0  0  0  0  0  0
    6.7823  -12.7134   26.6250 O   0  0  0  0  0  0  0  0  0  0  0  0
    5.6215  -13.5073   26.6826 C   0  0  2  0  0  0  0  0  0  0  0  0
    7.8636  -13.5648   26.0577 N   0  0  0  0  0  0  0  0  0  0  0  0
    7.5488  -14.2470   24.8441 C   0  0  0  0  0  0  0  0  0  0  0  0
    8.4766  -14.5012   27.0421 O   0  0  0  0  0  0  0  0  0  0  0  0
    8.9075  -14.0526   28.1195 O   0  0  0  0  0  0  0  0  0  0  0  0
  1  2  1  0
  3  4  2  0
  3  2  1  0
  5  6  1  0
  6  8  1  0
  7  6  2  0
  8  9  1  0
  9 10  1  0
 10 11  1  0
 12 11  1  1
 12 13  1  0
 13  3  1  0
 14 12  1  0
 15 14  2  0
 17 16  1  1
 17 19  1  0
 18 17  1  0
 19 21  1  0
 19 20  1  1
 20 14  1  0
 21 23  1  0
 22 21  2  0
M  END
$$$$
