NEV.pdb
     RDKit          3D

 25 24  0  0  1  0  0  0  0  0999 V2000
   16.2506  -13.5486  -19.0222 N   0  0  0  0  0  0  0  0  0  0  0  0
   15.3394  -12.7837  -18.2341 C   0  0  0  0  0  0  0  0  0  0  0  0
   14.1004  -12.8337  -18.4986 O   0  0  0  0  0  0  0  0  0  0  0  0
   15.7467  -11.9216  -17.1106 C   0  0  0  0  0  0  0  0  0  0  0  0
   17.2654  -11.9990  -16.9607 C   0  0  2  0  0  0  0  0  0  0  0  0
   17.6258  -13.1544  -16.1662 N   0  0  0  0  0  0  0  0  0  0  0  0
   17.8106  -10.7780  -16.3534 C   0  0  0  0  0  0  0  0  0  0  0  0
   17.5066  -10.5095  -15.1404 O   0  0  0  0  0  0  0  0  0  0  0  0
   18.6503   -9.8599  -16.9906 N   0  0  0  0  0  0  0  0  0  0  0  0
   19.2000   -8.6580  -16.3279 C   0  0  1  0  0  0  0  0  0  0  0  0
   20.6976   -8.6675  -16.4929 C   0  0  0  0  0  0  0  0  0  0  0  0
   21.4150   -7.4469  -16.0179 C   0  0  0  0  0  0  0  0  0  0  0  0
   22.8919   -7.7252  -16.2330 C   0  0  0  0  0  0  0  0  0  0  0  0
   23.3312   -8.8605  -16.5030 O   0  0  0  0  0  0  0  0  0  0  0  0
   18.5909   -7.4652  -16.9319 C   0  0  0  0  0  0  0  0  0  0  0  0
   18.5372   -7.4214  -18.2132 O   0  0  0  0  0  0  0  0  0  0  0  0
   23.7931   -6.6927  -16.1294 O   0  0  0  0  0  0  0  0  0  0  0  0
   15.4167   -4.0104  -17.5059 C   0  0  0  0  0  0  0  0  0  0  0  0
   15.9451   -5.2250  -16.7984 C   0  0  2  0  0  0  0  0  0  0  0  0
   15.5589   -5.2363  -15.3418 C   0  0  0  0  0  0  0  0  0  0  0  0
   17.4573   -5.2601  -16.9933 C   0  0  2  0  0  0  0  0  0  0  0  0
   18.0519   -6.3584  -16.2368 N   0  0  0  0  0  0  0  0  0  0  0  0
   18.0833   -3.9840  -16.6218 C   0  0  0  0  0  0  0  0  0  0  0  0
   18.1044   -2.9958  -17.4040 O   0  0  0  0  0  0  0  0  0  0  0  0
   18.6927   -3.7843  -15.3840 O   0  0  0  0  0  0  0  0  0  0  0  0
  1  2  1  0
  2  3  2  0
  4  5  1  0
  4  2  1  0
  5  6  1  1
  7  5  1  0
  8  7  2  0
  9  7  1  0
 10  9  1  0
 10 11  1  6
 11 12  1  0
 12 13  1  0
 13 17  1  0
 14 13  2  0
 15 22  1  0
 15 10  1  0
 16 15  2  0
 19 18  1  1
 19 21  1  0
 20 19  1  0
 21 23  1  0
 21 22  1  1
 23 25  1  0
 24 23  2  0
M  END
$$$$
