NEV.pdb
     RDKit          3D

 25 24  0  0  1  0  0  0  0  0999 V2000
   23.5588  -18.6763  -19.0182 N   0  0  0  0  0  0  0  0  0  0  0  0
   22.8239  -17.5104  -19.3886 C   0  0  0  0  0  0  0  0  0  0  0  0
   21.5774  -17.6065  -19.6002 O   0  0  0  0  0  0  0  0  0  0  0  0
   23.4254  -16.1745  -19.5459 C   0  0  0  0  0  0  0  0  0  0  0  0
   22.6305  -15.1781  -18.7031 C   0  0  2  0  0  0  0  0  0  0  0  0
   21.2577  -15.1278  -19.1605 N   0  0  0  0  0  0  0  0  0  0  0  0
   23.2274  -13.8370  -18.7471 C   0  0  0  0  0  0  0  0  0  0  0  0
   24.4336  -13.6905  -18.3475 O   0  0  0  0  0  0  0  0  0  0  0  0
   22.5869  -12.6780  -19.1949 N   0  0  0  0  0  0  0  0  0  0  0  0
   23.2490  -11.3587  -19.2793 C   0  0  1  0  0  0  0  0  0  0  0  0
   22.5416  -10.5383  -20.3265 C   0  0  0  0  0  0  0  0  0  0  0  0
   22.7796  -10.9429  -21.7441 C   0  0  0  0  0  0  0  0  0  0  0  0
   21.9700   -9.9775  -22.5913 C   0  0  0  0  0  0  0  0  0  0  0  0
   20.8696  -10.2811  -23.0929 O   0  0  0  0  0  0  0  0  0  0  0  0
   23.1986  -10.7193  -17.9574 C   0  0  0  0  0  0  0  0  0  0  0  0
   22.0865  -10.7812  -17.3202 O   0  0  0  0  0  0  0  0  0  0  0  0
   22.4577   -8.7136  -22.8226 O   0  0  0  0  0  0  0  0  0  0  0  0
   26.4573   -9.3475  -15.5678 C   0  0  0  0  0  0  0  0  0  0  0  0
   25.1683   -9.9039  -15.0349 C   0  0  2  0  0  0  0  0  0  0  0  0
   25.2343  -11.3993  -14.8601 C   0  0  0  0  0  0  0  0  0  0  0  0
   24.0494   -9.4839  -15.9823 C   0  0  2  0  0  0  0  0  0  0  0  0
   24.2609  -10.0437  -17.3143 N   0  0  0  0  0  0  0  0  0  0  0  0
   23.9185   -8.0225  -16.0555 C   0  0  0  0  0  0  0  0  0  0  0  0
   24.3353   -7.3617  -17.0447 O   0  0  0  0  0  0  0  0  0  0  0  0
   23.3270   -7.2745  -15.0387 O   0  0  0  0  0  0  0  0  0  0  0  0
  1  2  1  0
  2  3  2  0
  4  5  1  0
  4  2  1  0
  5  6  1  6
  7  5  1  0
  8  7  2  0
  9  7  1  0
 10  9  1  0
 10 11  1  6
 11 12  1  0
 12 13  1  0
 13 17  1  0
 14 13  2  0
 15 22  1  0
 15 10  1  0
 16 15  2  0
 19 18  1  6
 19 21  1  0
 20 19  1  0
 21 23  1  0
 21 22  1  6
 23 25  1  0
 24 23  2  0
M  END
$$$$
