NEV.pdb
     RDKit          3D

 25 24  0  0  1  0  0  0  0  0999 V2000
   13.1784  -11.0373  -23.2756 N   0  0  0  0  0  0  0  0  0  0  0  0
   13.5245  -12.0813  -22.3663 C   0  0  0  0  0  0  0  0  0  0  0  0
   13.6966  -13.2563  -22.8104 O   0  0  0  0  0  0  0  0  0  0  0  0
   13.6993  -11.8847  -20.9164 C   0  0  0  0  0  0  0  0  0  0  0  0
   15.1067  -11.3464  -20.6623 C   0  0  2  0  0  0  0  0  0  0  0  0
   16.0795  -12.4051  -20.8325 N   0  0  0  0  0  0  0  0  0  0  0  0
   15.2265  -10.7609  -19.3208 C   0  0  0  0  0  0  0  0  0  0  0  0
   14.4031   -9.8443  -18.9773 O   0  0  0  0  0  0  0  0  0  0  0  0
   16.1777  -11.1189  -18.3611 N   0  0  0  0  0  0  0  0  0  0  0  0
   16.2103  -10.5581  -16.9934 C   0  0  1  0  0  0  0  0  0  0  0  0
   16.6246  -11.6504  -16.0419 C   0  0  0  0  0  0  0  0  0  0  0  0
   15.5660  -12.6407  -15.6833 C   0  0  0  0  0  0  0  0  0  0  0  0
   16.2493  -13.6793  -14.8117 C   0  0  0  0  0  0  0  0  0  0  0  0
   16.0333  -13.7789  -13.5877 O   0  0  0  0  0  0  0  0  0  0  0  0
   17.1474   -9.4268  -16.9688 C   0  0  0  0  0  0  0  0  0  0  0  0
   18.3514   -9.6568  -17.3482 O   0  0  0  0  0  0  0  0  0  0  0  0
   17.1447  -14.5521  -15.3819 O   0  0  0  0  0  0  0  0  0  0  0  0
   16.2119   -5.3276  -16.7660 C   0  0  0  0  0  0  0  0  0  0  0  0
   17.4502   -5.8751  -17.4156 C   0  0  2  0  0  0  0  0  0  0  0  0
   17.2209   -6.2051  -18.8681 C   0  0  0  0  0  0  0  0  0  0  0  0
   17.9017   -7.0911  -16.6134 C   0  0  2  0  0  0  0  0  0  0  0  0
   16.8502   -8.1032  -16.5708 N   0  0  0  0  0  0  0  0  0  0  0  0
   18.3135   -6.7224  -15.2523 C   0  0  0  0  0  0  0  0  0  0  0  0
   17.5891   -6.9552  -14.2474 O   0  0  0  0  0  0  0  0  0  0  0  0
   19.5283   -6.0929  -14.9849 O   0  0  0  0  0  0  0  0  0  0  0  0
  1  2  1  0
  2  3  2  0
  4  5  1  0
  4  2  1  0
  5  6  1  1
  7  5  1  0
  8  7  2  0
  9  7  1  0
 10  9  1  0
 10 11  1  1
 11 12  1  0
 12 13  1  0
 13 17  1  0
 14 13  2  0
 15 22  1  0
 15 10  1  0
 16 15  2  0
 19 18  1  1
 19 21  1  0
 20 19  1  0
 21 23  1  0
 21 22  1  1
 23 25  1  0
 24 23  2  0
M  END
$$$$
