NEV.pdb
     RDKit          3D

 25 24  0  0  1  0  0  0  0  0999 V2000
   10.1910  -13.7728  -10.6212 N   0  0  0  0  0  0  0  0  0  0  0  0
   11.0574  -13.0182  -11.4677 C   0  0  0  0  0  0  0  0  0  0  0  0
   10.8323  -12.9898  -12.7151 O   0  0  0  0  0  0  0  0  0  0  0  0
   12.2201  -12.2537  -10.9827 C   0  0  0  0  0  0  0  0  0  0  0  0
   13.3451  -12.3708  -12.0101 C   0  0  2  0  0  0  0  0  0  0  0  0
   13.8056  -13.7414  -12.0853 N   0  0  0  0  0  0  0  0  0  0  0  0
   14.4658  -11.4782  -11.6873 C   0  0  0  0  0  0  0  0  0  0  0  0
   15.0585  -11.6220  -10.5630 O   0  0  0  0  0  0  0  0  0  0  0  0
   14.9575  -10.4622  -12.5120 N   0  0  0  0  0  0  0  0  0  0  0  0
   16.0969   -9.5932  -12.1477 C   0  0  1  0  0  0  0  0  0  0  0  0
   16.7891   -9.1616  -13.4145 C   0  0  0  0  0  0  0  0  0  0  0  0
   17.9461   -8.2331  -13.2429 C   0  0  0  0  0  0  0  0  0  0  0  0
   18.5254   -8.0331  -14.6320 C   0  0  0  0  0  0  0  0  0  0  0  0
   17.9096   -7.4402  -15.5397 O   0  0  0  0  0  0  0  0  0  0  0  0
   15.5902   -8.4456  -11.3831 C   0  0  0  0  0  0  0  0  0  0  0  0
   14.5013   -7.9047  -11.7933 O   0  0  0  0  0  0  0  0  0  0  0  0
   19.7793   -8.5198  -14.9144 O   0  0  0  0  0  0  0  0  0  0  0  0
   14.7512   -8.1391   -7.7444 C   0  0  0  0  0  0  0  0  0  0  0  0
   15.5416   -6.9045   -8.0702 C   0  0  2  0  0  0  0  0  0  0  0  0
   14.9971   -5.6892   -7.3647 C   0  0  0  0  0  0  0  0  0  0  0  0
   15.5451   -6.7368   -9.5861 C   0  0  2  0  0  0  0  0  0  0  0  0
   16.1849   -7.8793  -10.2322 N   0  0  0  0  0  0  0  0  0  0  0  0
   16.1985   -5.4857   -9.9934 C   0  0  0  0  0  0  0  0  0  0  0  0
   17.4175   -5.4395  -10.3109 O   0  0  0  0  0  0  0  0  0  0  0  0
   15.5148   -4.2724  -10.0546 O   0  0  0  0  0  0  0  0  0  0  0  0
  1  2  1  0
  2  3  2  0
  4  5  1  0
  4  2  1  0
  5  6  1  1
  7  5  1  0
  8  7  2  0
  9  7  1  0
 10  9  1  0
 10 11  1  6
 11 12  1  0
 12 13  1  0
 13 17  1  0
 14 13  2  0
 15 22  1  0
 15 10  1  0
 16 15  2  0
 19 18  1  6
 19 21  1  0
 20 19  1  0
 21 23  1  0
 21 22  1  6
 23 25  1  0
 24 23  2  0
M  END
$$$$
