NEV.pdb
     RDKit          3D

 25 24  0  0  1  0  0  0  0  0999 V2000
   13.8724  -12.5348  -16.3373 N   0  0  0  0  0  0  0  0  0  0  0  0
   14.6306  -11.3530  -16.0824 C   0  0  0  0  0  0  0  0  0  0  0  0
   14.7890  -10.5071  -17.0135 O   0  0  0  0  0  0  0  0  0  0  0  0
   15.2556  -11.0408  -14.7850 C   0  0  0  0  0  0  0  0  0  0  0  0
   16.7042  -10.6200  -15.0289 C   0  0  2  0  0  0  0  0  0  0  0  0
   17.4969  -11.7712  -15.4065 N   0  0  0  0  0  0  0  0  0  0  0  0
   17.2848   -9.9728  -13.8453 C   0  0  0  0  0  0  0  0  0  0  0  0
   17.2984  -10.6170  -12.7404 O   0  0  0  0  0  0  0  0  0  0  0  0
   17.8371   -8.6891  -13.8112 N   0  0  0  0  0  0  0  0  0  0  0  0
   18.4561   -8.0973  -12.6060 C   0  0  1  0  0  0  0  0  0  0  0  0
   19.5572   -7.1674  -13.0454 C   0  0  0  0  0  0  0  0  0  0  0  0
   20.6729   -6.9703  -12.0725 C   0  0  0  0  0  0  0  0  0  0  0  0
   21.6420   -6.0130  -12.7430 C   0  0  0  0  0  0  0  0  0  0  0  0
   21.6157   -4.7817  -12.5483 O   0  0  0  0  0  0  0  0  0  0  0  0
   17.4191   -7.3932  -11.8394 C   0  0  0  0  0  0  0  0  0  0  0  0
   16.6835   -6.5596  -12.4800 O   0  0  0  0  0  0  0  0  0  0  0  0
   22.5928   -6.5102  -13.6018 O   0  0  0  0  0  0  0  0  0  0  0  0
   14.4685   -8.4592   -9.9715 C   0  0  0  0  0  0  0  0  0  0  0  0
   15.1549   -7.5178   -9.0239 C   0  0  2  0  0  0  0  0  0  0  0  0
   14.1684   -6.6558   -8.2791 C   0  0  0  0  0  0  0  0  0  0  0  0
   16.1521   -6.6891   -9.8270 C   0  0  2  0  0  0  0  0  0  0  0  0
   17.1483   -7.5483  -10.4606 N   0  0  0  0  0  0  0  0  0  0  0  0
   16.8079   -5.6712   -8.9952 C   0  0  0  0  0  0  0  0  0  0  0  0
   16.2146   -4.6205   -8.6306 O   0  0  0  0  0  0  0  0  0  0  0  0
   18.1248   -5.8010   -8.5569 O   0  0  0  0  0  0  0  0  0  0  0  0
  1  2  1  0
  2  3  2  0
  4  5  1  0
  4  2  1  0
  5  6  1  1
  7  5  1  0
  8  7  2  0
  9  7  1  0
 10  9  1  0
 10 11  1  6
 11 12  1  0
 12 13  1  0
 13 17  1  0
 14 13  2  0
 15 22  1  0
 15 10  1  0
 16 15  2  0
 19 18  1  6
 19 21  1  0
 20 19  1  0
 21 23  1  0
 21 22  1  1
 23 25  1  0
 24 23  2  0
M  END
$$$$
