NEV.pdb
     RDKit          3D

 25 24  0  0  1  0  0  0  0  0999 V2000
   29.6553  -19.4163  -17.6350 N   0  0  0  0  0  0  0  0  0  0  0  0
   28.2848  -19.1291  -17.9103 C   0  0  0  0  0  0  0  0  0  0  0  0
   27.9984  -18.3049  -18.8302 O   0  0  0  0  0  0  0  0  0  0  0  0
   27.1553  -19.7365  -17.1845 C   0  0  0  0  0  0  0  0  0  0  0  0
   27.7105  -20.6599  -16.1009 C   0  0  2  0  0  0  0  0  0  0  0  0
   28.3761  -21.7925  -16.7096 N   0  0  0  0  0  0  0  0  0  0  0  0
   26.6532  -21.1231  -15.1929 C   0  0  0  0  0  0  0  0  0  0  0  0
   25.8989  -22.0842  -15.5717 O   0  0  0  0  0  0  0  0  0  0  0  0
   26.3869  -20.6008  -13.9240 N   0  0  0  0  0  0  0  0  0  0  0  0
   25.3427  -21.1338  -13.0231 C   0  0  1  0  0  0  0  0  0  0  0  0
   25.7787  -20.9005  -11.5999 C   0  0  0  0  0  0  0  0  0  0  0  0
   24.8566  -21.4112  -10.5421 C   0  0  0  0  0  0  0  0  0  0  0  0
   25.5426  -21.1195   -9.2194 C   0  0  0  0  0  0  0  0  0  0  0  0
   26.7829  -21.0777   -9.0987 O   0  0  0  0  0  0  0  0  0  0  0  0
   24.0715  -20.4608  -13.3230 C   0  0  0  0  0  0  0  0  0  0  0  0
   24.0876  -19.1789  -13.3780 O   0  0  0  0  0  0  0  0  0  0  0  0
   24.7774  -20.8898   -8.1011 O   0  0  0  0  0  0  0  0  0  0  0  0
   20.8176  -21.9510  -15.4052 C   0  0  0  0  0  0  0  0  0  0  0  0
   21.1548  -20.4948  -15.2604 C   0  0  2  0  0  0  0  0  0  0  0  0
   22.1584  -20.0477  -16.2919 C   0  0  0  0  0  0  0  0  0  0  0  0
   21.6528  -20.2684  -13.8367 C   0  0  2  0  0  0  0  0  0  0  0  0
   22.8283  -21.0900  -13.5622 N   0  0  0  0  0  0  0  0  0  0  0  0
   20.6015  -20.5305  -12.8446 C   0  0  0  0  0  0  0  0  0  0  0  0
   20.5810  -21.5842  -12.1532 O   0  0  0  0  0  0  0  0  0  0  0  0
   19.5616  -19.6336  -12.6047 O   0  0  0  0  0  0  0  0  0  0  0  0
  1  2  1  0
  2  3  2  0
  4  5  1  0
  4  2  1  0
  5  6  1  6
  7  5  1  0
  8  7  2  0
  9  7  1  0
 10  9  1  0
 10 11  1  1
 11 12  1  0
 12 13  1  0
 13 17  1  0
 14 13  2  0
 15 22  1  0
 15 10  1  0
 16 15  2  0
 19 18  1  1
 19 21  1  0
 20 19  1  0
 21 23  1  0
 21 22  1  1
 23 25  1  0
 24 23  2  0
M  END
$$$$
