NEV.pdb
     RDKit          3D

 25 24  0  0  1  0  0  0  0  0999 V2000
   14.4024  -11.7078  -17.0701 N   0  0  0  0  0  0  0  0  0  0  0  0
   14.5917  -10.8660  -15.9334 C   0  0  0  0  0  0  0  0  0  0  0  0
   13.5827  -10.3204  -15.3932 O   0  0  0  0  0  0  0  0  0  0  0  0
   15.9058  -10.5807  -15.3309 C   0  0  0  0  0  0  0  0  0  0  0  0
   16.9863  -11.2626  -16.1693 C   0  0  2  0  0  0  0  0  0  0  0  0
   17.0965  -12.6568  -15.7949 N   0  0  0  0  0  0  0  0  0  0  0  0
   18.2860  -10.5952  -16.0207 C   0  0  0  0  0  0  0  0  0  0  0  0
   18.9497  -10.7808  -14.9431 O   0  0  0  0  0  0  0  0  0  0  0  0
   18.8805   -9.7564  -16.9678 N   0  0  0  0  0  0  0  0  0  0  0  0
   20.2389   -9.1912  -16.8212 C   0  0  1  0  0  0  0  0  0  0  0  0
   20.7179   -8.7474  -18.1790 C   0  0  0  0  0  0  0  0  0  0  0  0
   22.0357   -8.0456  -18.2097 C   0  0  0  0  0  0  0  0  0  0  0  0
   22.2600   -7.6499  -19.6582 C   0  0  0  0  0  0  0  0  0  0  0  0
   21.3983   -7.0549  -20.3351 O   0  0  0  0  0  0  0  0  0  0  0  0
   20.1856   -8.0744  -15.8681 C   0  0  0  0  0  0  0  0  0  0  0  0
   19.1200   -7.3597  -15.8641 O   0  0  0  0  0  0  0  0  0  0  0  0
   23.4574   -7.9531  -20.2607 O   0  0  0  0  0  0  0  0  0  0  0  0
   20.7916   -6.0072  -11.6315 C   0  0  0  0  0  0  0  0  0  0  0  0
   20.9406   -7.1752  -12.5635 C   0  0  2  0  0  0  0  0  0  0  0  0
   22.1785   -7.9791  -12.2596 C   0  0  0  0  0  0  0  0  0  0  0  0
   20.9388   -6.6387  -13.9912 C   0  0  2  0  0  0  0  0  0  0  0  0
   21.1958   -7.7113  -14.9480 N   0  0  0  0  0  0  0  0  0  0  0  0
   21.9123   -5.5525  -14.1653 C   0  0  0  0  0  0  0  0  0  0  0  0
   21.8169   -4.4614  -13.5413 O   0  0  0  0  0  0  0  0  0  0  0  0
   23.0012   -5.6578  -15.0294 O   0  0  0  0  0  0  0  0  0  0  0  0
  1  2  1  0
  2  3  2  0
  4  5  1  0
  4  2  1  0
  5  6  1  1
  7  5  1  0
  8  7  2  0
  9  7  1  0
 10  9  1  0
 10 11  1  6
 11 12  1  0
 12 13  1  0
 13 17  1  0
 14 13  2  0
 15 22  1  0
 15 10  1  0
 16 15  2  0
 19 18  1  1
 19 21  1  0
 20 19  1  0
 21 23  1  0
 21 22  1  6
 23 25  1  0
 24 23  2  0
M  END
$$$$
