NEV.pdb
     RDKit          3D

 25 24  0  0  1  0  0  0  0  0999 V2000
   27.8575  -20.8220  -20.2847 N   0  0  0  0  0  0  0  0  0  0  0  0
   28.6333  -20.3203  -19.1971 C   0  0  0  0  0  0  0  0  0  0  0  0
   29.8905  -20.4845  -19.2069 O   0  0  0  0  0  0  0  0  0  0  0  0
   28.0631  -19.6098  -18.0390 C   0  0  0  0  0  0  0  0  0  0  0  0
   26.5572  -19.4594  -18.2507 C   0  0  2  0  0  0  0  0  0  0  0  0
   26.2922  -18.3585  -19.1530 N   0  0  0  0  0  0  0  0  0  0  0  0
   25.8515  -19.2521  -16.9796 C   0  0  0  0  0  0  0  0  0  0  0  0
   26.0925  -18.1878  -16.3122 O   0  0  0  0  0  0  0  0  0  0  0  0
   24.9193  -20.1286  -16.4166 N   0  0  0  0  0  0  0  0  0  0  0  0
   24.2401  -19.8815  -15.1268 C   0  0  1  0  0  0  0  0  0  0  0  0
   22.8052  -20.3234  -15.2532 C   0  0  0  0  0  0  0  0  0  0  0  0
   21.9927  -20.2707  -14.0014 C   0  0  0  0  0  0  0  0  0  0  0  0
   20.6585  -20.9075  -14.3472 C   0  0  0  0  0  0  0  0  0  0  0  0
   20.5394  -21.7901  -15.2199 O   0  0  0  0  0  0  0  0  0  0  0  0
   24.9482  -20.6182  -14.0711 C   0  0  0  0  0  0  0  0  0  0  0  0
   25.0780  -21.8850  -14.2288 O   0  0  0  0  0  0  0  0  0  0  0  0
   19.5274  -20.5047  -13.6785 O   0  0  0  0  0  0  0  0  0  0  0  0
   27.9972  -19.5288  -11.6312 C   0  0  0  0  0  0  0  0  0  0  0  0
   26.8863  -20.1892  -10.8663 C   0  0  2  0  0  0  0  0  0  0  0  0
   27.4137  -21.0761   -9.7679 C   0  0  0  0  0  0  0  0  0  0  0  0
   26.0237  -20.9574  -11.8622 C   0  0  2  0  0  0  0  0  0  0  0  0
   25.5069  -20.0652  -12.8961 N   0  0  0  0  0  0  0  0  0  0  0  0
   24.9209  -21.6628  -11.1958 C   0  0  0  0  0  0  0  0  0  0  0  0
   23.8385  -21.0874  -10.9021 O   0  0  0  0  0  0  0  0  0  0  0  0
   24.9999  -23.0099  -10.8460 O   0  0  0  0  0  0  0  0  0  0  0  0
  1  2  1  0
  2  3  2  0
  4  5  1  0
  4  2  1  0
  5  6  1  6
  7  5  1  0
  8  7  2  0
  9  7  1  0
 10  9  1  0
 10 11  1  6
 11 12  1  0
 12 13  1  0
 13 17  1  0
 14 13  2  0
 15 22  1  0
 15 10  1  0
 16 15  2  0
 19 18  1  6
 19 21  1  0
 20 19  1  0
 21 23  1  0
 21 22  1  6
 23 25  1  0
 24 23  2  0
M  END
$$$$
