NEV.pdb
     RDKit          3D

 25 24  0  0  1  0  0  0  0  0999 V2000
   14.7822  -15.7065  -15.4190 N   0  0  0  0  0  0  0  0  0  0  0  0
   15.3673  -15.6677  -16.7200 C   0  0  0  0  0  0  0  0  0  0  0  0
   14.9855  -16.5022  -17.5949 O   0  0  0  0  0  0  0  0  0  0  0  0
   16.4065  -14.7051  -17.1260 C   0  0  0  0  0  0  0  0  0  0  0  0
   16.6749  -13.7547  -15.9599 C   0  0  2  0  0  0  0  0  0  0  0  0
   15.4224  -13.2760  -15.4136 N   0  0  0  0  0  0  0  0  0  0  0  0
   17.5137  -12.6210  -16.3697 C   0  0  0  0  0  0  0  0  0  0  0  0
   18.6275  -12.8622  -16.9504 O   0  0  0  0  0  0  0  0  0  0  0  0
   17.2026  -11.2713  -16.1808 N   0  0  0  0  0  0  0  0  0  0  0  0
   18.0436  -10.1613  -16.6775 C   0  0  1  0  0  0  0  0  0  0  0  0
   17.1750   -8.9400  -16.8328 C   0  0  0  0  0  0  0  0  0  0  0  0
   16.4571   -8.4884  -15.6037 C   0  0  0  0  0  0  0  0  0  0  0  0
   15.6500   -7.2715  -16.0196 C   0  0  0  0  0  0  0  0  0  0  0  0
   14.4221   -7.3178  -16.2313 O   0  0  0  0  0  0  0  0  0  0  0  0
   19.1391   -9.9357  -15.7248 C   0  0  0  0  0  0  0  0  0  0  0  0
   18.9002  -10.1866  -14.4893 O   0  0  0  0  0  0  0  0  0  0  0  0
   16.2859   -6.0628  -16.1725 O   0  0  0  0  0  0  0  0  0  0  0  0
   22.2444  -11.5786  -15.4050 C   0  0  0  0  0  0  0  0  0  0  0  0
   22.6665  -10.1453  -15.2534 C   0  0  2  0  0  0  0  0  0  0  0  0
   23.7155   -9.9811  -14.1839 C   0  0  0  0  0  0  0  0  0  0  0  0
   21.4183   -9.3170  -14.9675 C   0  0  2  0  0  0  0  0  0  0  0  0
   20.4373   -9.4718  -16.0379 N   0  0  0  0  0  0  0  0  0  0  0  0
   21.7410   -7.8976  -14.7695 C   0  0  0  0  0  0  0  0  0  0  0  0
   21.6448   -7.0529  -15.7002 O   0  0  0  0  0  0  0  0  0  0  0  0
   22.1735   -7.3947  -13.5434 O   0  0  0  0  0  0  0  0  0  0  0  0
  1  2  1  0
  2  3  2  0
  4  5  1  0
  4  2  1  0
  5  6  1  6
  7  5  1  0
  8  7  2  0
  9  7  1  0
 10  9  1  0
 10 11  1  1
 11 12  1  0
 12 13  1  0
 13 17  1  0
 14 13  2  0
 15 22  1  0
 15 10  1  0
 16 15  2  0
 19 18  1  1
 19 21  1  0
 20 19  1  0
 21 23  1  0
 21 22  1  6
 23 25  1  0
 24 23  2  0
M  END
$$$$
