NEV.pdb
     RDKit          3D

 25 24  0  0  1  0  0  0  0  0999 V2000
   24.4557  -15.4624  -20.1234 N   0  0  0  0  0  0  0  0  0  0  0  0
   23.6775  -14.8252  -19.1110 C   0  0  0  0  0  0  0  0  0  0  0  0
   23.3356  -13.6140  -19.2645 O   0  0  0  0  0  0  0  0  0  0  0  0
   23.2344  -15.4910  -17.8733 C   0  0  0  0  0  0  0  0  0  0  0  0
   23.8601  -16.8840  -17.8166 C   0  0  2  0  0  0  0  0  0  0  0  0
   23.2923  -17.7237  -18.8504 N   0  0  0  0  0  0  0  0  0  0  0  0
   23.6724  -17.5067  -16.4999 C   0  0  0  0  0  0  0  0  0  0  0  0
   24.1041  -16.8916  -15.4648 O   0  0  0  0  0  0  0  0  0  0  0  0
   23.0518  -18.7371  -16.2651 N   0  0  0  0  0  0  0  0  0  0  0  0
   22.8437  -19.3034  -14.9153 C   0  0  1  0  0  0  0  0  0  0  0  0
   21.6580  -20.2316  -14.9671 C   0  0  0  0  0  0  0  0  0  0  0  0
   21.4299  -21.0686  -13.7516 C   0  0  0  0  0  0  0  0  0  0  0  0
   20.3614  -20.3489  -12.9483 C   0  0  0  0  0  0  0  0  0  0  0  0
   19.8073  -19.3055  -13.3471 O   0  0  0  0  0  0  0  0  0  0  0  0
   24.0681  -20.0027  -14.5024 C   0  0  0  0  0  0  0  0  0  0  0  0
   24.5157  -20.9118  -15.2897 O   0  0  0  0  0  0  0  0  0  0  0  0
   19.9790  -20.8573  -11.7301 O   0  0  0  0  0  0  0  0  0  0  0  0
   27.5123  -18.7657  -13.5978 C   0  0  0  0  0  0  0  0  0  0  0  0
   27.1278  -19.7312  -12.5137 C   0  0  2  0  0  0  0  0  0  0  0  0
   28.3009  -20.5630  -12.0634 C   0  0  0  0  0  0  0  0  0  0  0  0
   25.9803  -20.5894  -13.0360 C   0  0  2  0  0  0  0  0  0  0  0  0
   24.8068  -19.7682  -13.3201 N   0  0  0  0  0  0  0  0  0  0  0  0
   25.6368  -21.6671  -12.0987 C   0  0  0  0  0  0  0  0  0  0  0  0
   24.6101  -21.6179  -11.3689 O   0  0  0  0  0  0  0  0  0  0  0  0
   26.4218  -22.8103  -11.9559 O   0  0  0  0  0  0  0  0  0  0  0  0
  1  2  1  0
  2  3  2  0
  4  5  1  0
  4  2  1  0
  5  6  1  6
  7  5  1  0
  8  7  2  0
  9  7  1  0
 10  9  1  0
 10 11  1  6
 11 12  1  0
 12 13  1  0
 13 17  1  0
 14 13  2  0
 15 22  1  0
 15 10  1  0
 16 15  2  0
 19 18  1  6
 19 21  1  0
 20 19  1  0
 21 23  1  0
 21 22  1  1
 23 25  1  0
 24 23  2  0
M  END
$$$$
