NEV.pdb
     RDKit          3D

 25 24  0  0  1  0  0  0  0  0999 V2000
   15.2376  -11.5516  -19.1053 N   0  0  0  0  0  0  0  0  0  0  0  0
   15.4147  -10.9922  -17.8044 C   0  0  0  0  0  0  0  0  0  0  0  0
   14.4059  -10.8516  -17.0493 O   0  0  0  0  0  0  0  0  0  0  0  0
   16.7157  -10.5573  -17.2663 C   0  0  0  0  0  0  0  0  0  0  0  0
   17.7975  -10.8533  -18.3041 C   0  0  2  0  0  0  0  0  0  0  0  0
   18.0811  -12.2728  -18.3320 N   0  0  0  0  0  0  0  0  0  0  0  0
   19.0272  -10.0976  -18.0324 C   0  0  0  0  0  0  0  0  0  0  0  0
   19.9233  -10.6323  -17.2928 O   0  0  0  0  0  0  0  0  0  0  0  0
   19.3177   -8.8190  -18.5171 N   0  0  0  0  0  0  0  0  0  0  0  0
   20.5663   -8.0909  -18.2058 C   0  0  1  0  0  0  0  0  0  0  0  0
   20.6929   -6.9342  -19.1629 C   0  0  0  0  0  0  0  0  0  0  0  0
   21.6370   -5.8507  -18.7569 C   0  0  0  0  0  0  0  0  0  0  0  0
   21.5638   -4.8052  -19.8553 C   0  0  0  0  0  0  0  0  0  0  0  0
   22.0689   -4.9759  -20.9825 O   0  0  0  0  0  0  0  0  0  0  0  0
   20.5149   -7.6411  -16.8080 C   0  0  0  0  0  0  0  0  0  0  0  0
   19.3781   -7.2472  -16.3622 O   0  0  0  0  0  0  0  0  0  0  0  0
   20.9170   -3.6173  -19.6115 O   0  0  0  0  0  0  0  0  0  0  0  0
   21.2531   -8.3271  -12.2367 C   0  0  0  0  0  0  0  0  0  0  0  0
   21.6403   -8.6104  -13.6598 C   0  0  2  0  0  0  0  0  0  0  0  0
   23.0827   -9.0316  -13.7739 C   0  0  0  0  0  0  0  0  0  0  0  0
   21.3376   -7.3638  -14.4848 C   0  0  2  0  0  0  0  0  0  0  0  0
   21.5989   -7.6039  -15.9012 N   0  0  0  0  0  0  0  0  0  0  0  0
   22.1008   -6.2007  -14.0129 C   0  0  0  0  0  0  0  0  0  0  0  0
   23.0601   -5.7170  -14.6722 O   0  0  0  0  0  0  0  0  0  0  0  0
   21.8146   -5.5589  -12.8090 O   0  0  0  0  0  0  0  0  0  0  0  0
  1  2  1  0
  2  3  2  0
  4  5  1  0
  4  2  1  0
  5  6  1  1
  7  5  1  0
  8  7  2  0
  9  7  1  0
 10  9  1  0
 10 11  1  6
 11 12  1  0
 12 13  1  0
 13 17  1  0
 14 13  2  0
 15 22  1  0
 15 10  1  0
 16 15  2  0
 19 18  1  1
 19 21  1  0
 20 19  1  0
 21 23  1  0
 21 22  1  6
 23 25  1  0
 24 23  2  0
M  END
$$$$
