NEV.pdb
     RDKit          3D

 25 24  0  0  1  0  0  0  0  0999 V2000
   12.9517  -13.8782  -14.5018 N   0  0  0  0  0  0  0  0  0  0  0  0
   12.4427  -13.1848  -13.3631 C   0  0  0  0  0  0  0  0  0  0  0  0
   11.2483  -13.3959  -12.9936 O   0  0  0  0  0  0  0  0  0  0  0  0
   13.2249  -12.2202  -12.5700 C   0  0  0  0  0  0  0  0  0  0  0  0
   14.6482  -12.1722  -13.1241 C   0  0  2  0  0  0  0  0  0  0  0  0
   15.2962  -13.4531  -12.9346 N   0  0  0  0  0  0  0  0  0  0  0  0
   15.4380  -11.1078  -12.4915 C   0  0  0  0  0  0  0  0  0  0  0  0
   15.8560  -11.2843  -11.2956 O   0  0  0  0  0  0  0  0  0  0  0  0
   15.7843   -9.8914  -13.0867 N   0  0  0  0  0  0  0  0  0  0  0  0
   16.6572   -8.8859  -12.4439 C   0  0  1  0  0  0  0  0  0  0  0  0
   17.3595   -8.1060  -13.5249 C   0  0  0  0  0  0  0  0  0  0  0  0
   18.1697   -6.9383  -13.0665 C   0  0  0  0  0  0  0  0  0  0  0  0
   18.7249   -6.2997  -14.3271 C   0  0  0  0  0  0  0  0  0  0  0  0
   18.2316   -5.2739  -14.8360 O   0  0  0  0  0  0  0  0  0  0  0  0
   15.8316   -8.0188  -11.5923 C   0  0  0  0  0  0  0  0  0  0  0  0
   14.7175   -7.6100  -12.0803 O   0  0  0  0  0  0  0  0  0  0  0  0
   19.8160   -6.8645  -14.9429 O   0  0  0  0  0  0  0  0  0  0  0  0
   14.4169   -8.5822   -8.2137 C   0  0  0  0  0  0  0  0  0  0  0  0
   14.9917   -7.1964   -8.1469 C   0  0  2  0  0  0  0  0  0  0  0  0
   14.1080   -6.2615   -7.3620 C   0  0  0  0  0  0  0  0  0  0  0  0
   15.2159   -6.7128   -9.5758 C   0  0  2  0  0  0  0  0  0  0  0  0
   16.1437   -7.5926  -10.2810 N   0  0  0  0  0  0  0  0  0  0  0  0
   15.6980   -5.3256   -9.6112 C   0  0  0  0  0  0  0  0  0  0  0  0
   16.9138   -5.0436   -9.7878 O   0  0  0  0  0  0  0  0  0  0  0  0
   14.8447   -4.2348   -9.4519 O   0  0  0  0  0  0  0  0  0  0  0  0
  1  2  1  0
  2  3  2  0
  4  5  1  0
  4  2  1  0
  5  6  1  1
  7  5  1  0
  8  7  2  0
  9  7  1  0
 10  9  1  0
 10 11  1  6
 11 12  1  0
 12 13  1  0
 13 17  1  0
 14 13  2  0
 15 22  1  0
 15 10  1  0
 16 15  2  0
 19 18  1  6
 19 21  1  0
 20 19  1  0
 21 23  1  0
 21 22  1  1
 23 25  1  0
 24 23  2  0
M  END
$$$$
