NEV.pdb
     RDKit          3D

 25 24  0  0  1  0  0  0  0  0999 V2000
   14.1569  -13.8140  -17.1939 N   0  0  0  0  0  0  0  0  0  0  0  0
   14.2303  -12.7117  -16.2906 C   0  0  0  0  0  0  0  0  0  0  0  0
   13.5049  -12.7151  -15.2507 O   0  0  0  0  0  0  0  0  0  0  0  0
   15.1090  -11.5451  -16.4863 C   0  0  0  0  0  0  0  0  0  0  0  0
   16.5403  -11.9463  -16.1321 C   0  0  2  0  0  0  0  0  0  0  0  0
   16.5289  -13.1079  -15.2679 N   0  0  0  0  0  0  0  0  0  0  0  0
   17.2660  -10.8440  -15.4877 C   0  0  0  0  0  0  0  0  0  0  0  0
   17.2820  -10.7861  -14.2101 O   0  0  0  0  0  0  0  0  0  0  0  0
   17.9572   -9.8282  -16.1543 N   0  0  0  0  0  0  0  0  0  0  0  0
   18.7252   -8.7714  -15.4619 C   0  0  1  0  0  0  0  0  0  0  0  0
   20.1915   -9.0999  -15.5727 C   0  0  0  0  0  0  0  0  0  0  0  0
   21.1267   -8.1477  -14.9029 C   0  0  0  0  0  0  0  0  0  0  0  0
   22.5225   -8.6826  -15.1689 C   0  0  0  0  0  0  0  0  0  0  0  0
   23.1846   -8.3656  -16.1768 O   0  0  0  0  0  0  0  0  0  0  0  0
   18.4070   -7.4758  -16.0772 C   0  0  0  0  0  0  0  0  0  0  0  0
   18.4417   -7.4129  -17.3584 O   0  0  0  0  0  0  0  0  0  0  0  0
   23.0921   -9.5525  -14.2703 O   0  0  0  0  0  0  0  0  0  0  0  0
   16.1125   -4.4399  -14.4329 C   0  0  0  0  0  0  0  0  0  0  0  0
   16.2679   -4.6870  -15.9060 C   0  0  2  0  0  0  0  0  0  0  0  0
   15.2886   -5.7171  -16.4068 C   0  0  0  0  0  0  0  0  0  0  0  0
   17.7147   -5.0957  -16.1625 C   0  0  2  0  0  0  0  0  0  0  0  0
   18.0604   -6.2879  -15.3935 N   0  0  0  0  0  0  0  0  0  0  0  0
   18.6499   -4.0033  -15.8623 C   0  0  0  0  0  0  0  0  0  0  0  0
   18.7155   -2.9639  -16.5724 O   0  0  0  0  0  0  0  0  0  0  0  0
   19.5227   -4.0455  -14.7761 O   0  0  0  0  0  0  0  0  0  0  0  0
  1  2  1  0
  2  3  2  0
  4  5  1  0
  4  2  1  0
  5  6  1  1
  7  5  1  0
  8  7  2  0
  9  7  1  0
 10  9  1  0
 10 11  1  6
 11 12  1  0
 12 13  1  0
 13 17  1  0
 14 13  2  0
 15 22  1  0
 15 10  1  0
 16 15  2  0
 19 18  1  1
 19 21  1  0
 20 19  1  0
 21 23  1  0
 21 22  1  1
 23 25  1  0
 24 23  2  0
M  END
$$$$
