DPS.pdb
     RDKit          3D

 22 22  0  0  1  0  0  0  0  0999 V2000
   23.7895  -21.1307  -17.6131 N   0  0  0  0  0  0  0  0  0  0  0  0
   24.1011  -19.8903  -16.8864 C   0  0  1  0  0  0  0  0  0  0  0  0
   22.7627  -19.1374  -16.9158 C   0  0  0  0  0  0  0  0  0  0  0  0
   22.5733  -18.6663  -18.3116 C   0  0  0  0  0  0  0  0  0  0  0  0
   23.5327  -18.3894  -19.0811 O   0  0  0  0  0  0  0  0  0  0  0  0
   24.5273  -20.1791  -15.4878 C   0  0  0  0  0  0  0  0  0  0  0  0
   23.6020  -20.3212  -14.6653 O   0  0  0  0  0  0  0  0  0  0  0  0
   21.2889  -18.5181  -18.8089 O   0  0  0  0  0  0  0  0  0  0  0  0
   25.8658  -20.2890  -15.0962 N   0  0  0  0  0  0  0  0  0  0  0  0
   26.9526  -20.7464  -16.0211 C   0  0  0  0  0  0  0  0  0  0  0  0
   27.9052  -19.5921  -15.8416 C   0  0  0  0  0  0  0  0  0  0  0  0
   27.6354  -19.0471  -14.4328 C   0  0  0  0  0  0  0  0  0  0  0  0
   26.6201  -20.0831  -13.9158 C   0  0  1  0  0  0  0  0  0  0  0  0
   25.9937  -19.6670  -12.6906 C   0  0  0  0  0  0  0  0  0  0  0  0
   25.4946  -18.5650  -12.4770 O   0  0  0  0  0  0  0  0  0  0  0  0
   24.0113  -21.9980  -10.1953 O   0  0  0  0  0  0  0  0  0  0  0  0
   24.1540  -20.6203   -9.9627 C   0  0  0  0  0  0  0  0  0  0  0  0
   25.6015  -20.2038  -10.2579 C   0  0  2  0  0  0  0  0  0  0  0  0
   25.9351  -20.6190  -11.5952 N   0  0  0  0  0  0  0  0  0  0  0  0
   26.4894  -20.7487   -9.2350 C   0  0  0  0  0  0  0  0  0  0  0  0
   27.3752  -21.5754   -9.5421 O   0  0  0  0  0  0  0  0  0  0  0  0
   26.3723  -20.3663   -7.9145 O   0  0  0  0  0  0  0  0  0  0  0  0
  2  1  1  6
  2  6  1  0
  2  3  1  0
  3  4  1  0
  4  5  2  0
  4  8  1  0
  6  7  2  0
  9  6  1  0
  9 13  1  0
 10  9  1  0
 11 10  1  0
 11 12  1  0
 12 13  1  0
 13 14  1  1
 14 15  2  0
 14 19  1  0
 16 17  1  0
 18 17  1  1
 18 20  1  0
 19 18  1  0
 20 22  1  0
 21 20  2  0
M  END
$$$$
