DPS.pdb
     RDKit          3D

 22 22  0  0  1  0  0  0  0  0999 V2000
   17.4285  -10.7863  -14.8455 N   0  0  0  0  0  0  0  0  0  0  0  0
   18.5212  -10.4071  -15.7544 C   0  0  1  0  0  0  0  0  0  0  0  0
   17.7752  -10.0580  -17.0508 C   0  0  0  0  0  0  0  0  0  0  0  0
   17.1877  -11.3256  -17.5548 C   0  0  0  0  0  0  0  0  0  0  0  0
   17.8848  -12.2914  -17.9676 O   0  0  0  0  0  0  0  0  0  0  0  0
   19.2726   -9.2314  -15.2307 C   0  0  0  0  0  0  0  0  0  0  0  0
   18.5780   -8.2371  -14.9445 O   0  0  0  0  0  0  0  0  0  0  0  0
   15.8104  -11.4718  -17.5800 O   0  0  0  0  0  0  0  0  0  0  0  0
   20.6611   -9.2163  -15.0611 N   0  0  0  0  0  0  0  0  0  0  0  0
   21.4206  -10.3490  -14.4400 C   0  0  0  0  0  0  0  0  0  0  0  0
   22.4341  -10.5704  -15.5336 C   0  0  0  0  0  0  0  0  0  0  0  0
   22.5981   -9.2119  -16.2280 C   0  0  0  0  0  0  0  0  0  0  0  0
   21.7270   -8.3216  -15.3224 C   0  0  1  0  0  0  0  0  0  0  0  0
   21.4918   -7.0252  -15.8975 C   0  0  0  0  0  0  0  0  0  0  0  0
   21.2470   -6.7971  -17.0795 O   0  0  0  0  0  0  0  0  0  0  0  0
   20.2010   -3.8808  -13.5571 O   0  0  0  0  0  0  0  0  0  0  0  0
   20.1068   -3.9275  -14.9576 C   0  0  0  0  0  0  0  0  0  0  0  0
   21.3954   -4.5317  -15.5323 C   0  0  2  0  0  0  0  0  0  0  0  0
   21.5437   -5.8687  -15.0201 N   0  0  0  0  0  0  0  0  0  0  0  0
   22.5261   -3.6586  -15.2312 C   0  0  0  0  0  0  0  0  0  0  0  0
   23.4204   -4.0320  -14.4419 O   0  0  0  0  0  0  0  0  0  0  0  0
   22.6331   -2.4094  -15.8071 O   0  0  0  0  0  0  0  0  0  0  0  0
  2  1  1  1
  2  6  1  0
  2  3  1  0
  3  4  1  0
  4  5  2  0
  4  8  1  0
  6  7  2  0
  9  6  1  0
  9 13  1  0
 10  9  1  0
 11 10  1  0
 11 12  1  0
 12 13  1  0
 13 14  1  6
 14 15  2  0
 14 19  1  0
 16 17  1  0
 18 17  1  1
 18 20  1  0
 19 18  1  0
 20 22  1  0
 21 20  2  0
M  END
$$$$
