DPS.pdb
     RDKit          3D

 22 22  0  0  1  0  0  0  0  0999 V2000
   19.0929  -12.5893  -16.8731 N   0  0  0  0  0  0  0  0  0  0  0  0
   18.4571  -11.4084  -16.2689 C   0  0  1  0  0  0  0  0  0  0  0  0
   18.2750  -11.8358  -14.8049 C   0  0  0  0  0  0  0  0  0  0  0  0
   17.2460  -12.9068  -14.8021 C   0  0  0  0  0  0  0  0  0  0  0  0
   16.0305  -12.6947  -15.0606 O   0  0  0  0  0  0  0  0  0  0  0  0
   19.3369  -10.2102  -16.3759 C   0  0  0  0  0  0  0  0  0  0  0  0
   20.5131  -10.3750  -15.9986 O   0  0  0  0  0  0  0  0  0  0  0  0
   17.6209  -14.2066  -14.5038 O   0  0  0  0  0  0  0  0  0  0  0  0
   18.9003   -8.9735  -16.8627 N   0  0  0  0  0  0  0  0  0  0  0  0
   17.8913   -8.8384  -17.9624 C   0  0  0  0  0  0  0  0  0  0  0  0
   16.9168   -7.9232  -17.2662 C   0  0  0  0  0  0  0  0  0  0  0  0
   17.7485   -7.1254  -16.2532 C   0  0  0  0  0  0  0  0  0  0  0  0
   19.1678   -7.6067  -16.6073 C   0  0  1  0  0  0  0  0  0  0  0  0
   20.1393   -7.2050  -15.6269 C   0  0  0  0  0  0  0  0  0  0  0  0
   20.1349   -7.5204  -14.4396 O   0  0  0  0  0  0  0  0  0  0  0  0
   24.3203   -4.7067  -15.0447 O   0  0  0  0  0  0  0  0  0  0  0  0
   23.2654   -5.0546  -15.9041 C   0  0  0  0  0  0  0  0  0  0  0  0
   22.2510   -5.9155  -15.1387 C   0  0  2  0  0  0  0  0  0  0  0  0
   21.2317   -6.3498  -16.0575 N   0  0  0  0  0  0  0  0  0  0  0  0
   21.7326   -5.1679  -13.9968 C   0  0  0  0  0  0  0  0  0  0  0  0
   20.7601   -4.3951  -14.1361 O   0  0  0  0  0  0  0  0  0  0  0  0
   22.3001   -5.2961  -12.7458 O   0  0  0  0  0  0  0  0  0  0  0  0
  2  1  1  6
  2  6  1  0
  2  3  1  0
  3  4  1  0
  4  5  2  0
  4  8  1  0
  6  7  2  0
  9  6  1  0
  9 13  1  0
 10  9  1  0
 11 10  1  0
 11 12  1  0
 12 13  1  0
 13 14  1  1
 14 15  2  0
 14 19  1  0
 16 17  1  0
 18 17  1  6
 18 20  1  0
 19 18  1  0
 20 22  1  0
 21 20  2  0
M  END
$$$$
