DPS.pdb
     RDKit          3D

 22 22  0  0  1  0  0  0  0  0999 V2000
   20.8929  -12.8159  -17.8128 N   0  0  0  0  0  0  0  0  0  0  0  0
   21.2860  -11.4877  -18.3077 C   0  0  1  0  0  0  0  0  0  0  0  0
   20.1149  -11.1106  -19.2272 C   0  0  0  0  0  0  0  0  0  0  0  0
   20.1642  -12.0462  -20.3796 C   0  0  0  0  0  0  0  0  0  0  0  0
   19.5285  -13.1344  -20.4109 O   0  0  0  0  0  0  0  0  0  0  0  0
   21.4264  -10.5160  -17.1864 C   0  0  0  0  0  0  0  0  0  0  0  0
   20.3568  -10.0680  -16.7299 O   0  0  0  0  0  0  0  0  0  0  0  0
   20.9400  -11.7248  -21.4814 O   0  0  0  0  0  0  0  0  0  0  0  0
   22.6601  -10.1162  -16.6618 N   0  0  0  0  0  0  0  0  0  0  0  0
   23.7757  -11.0751  -16.3762 C   0  0  0  0  0  0  0  0  0  0  0  0
   24.8705  -10.3883  -17.1517 C   0  0  0  0  0  0  0  0  0  0  0  0
   24.4990   -8.8995  -17.1636 C   0  0  0  0  0  0  0  0  0  0  0  0
   23.2646   -8.9063  -16.2428 C   0  0  1  0  0  0  0  0  0  0  0  0
   22.5494   -7.6599  -16.2820 C   0  0  0  0  0  0  0  0  0  0  0  0
   22.2220   -7.0509  -17.2974 O   0  0  0  0  0  0  0  0  0  0  0  0
   19.8734   -6.5930  -13.4829 O   0  0  0  0  0  0  0  0  0  0  0  0
   20.0534   -5.9285  -14.7071 C   0  0  0  0  0  0  0  0  0  0  0  0
   21.5548   -5.7491  -14.9705 C   0  0  2  0  0  0  0  0  0  0  0  0
   22.1708   -7.0492  -15.0196 N   0  0  0  0  0  0  0  0  0  0  0  0
   22.1299   -4.8644  -13.9615 C   0  0  0  0  0  0  0  0  0  0  0  0
   22.9546   -5.3041  -13.1315 O   0  0  0  0  0  0  0  0  0  0  0  0
   21.7788   -3.5315  -13.9010 O   0  0  0  0  0  0  0  0  0  0  0  0
  2  1  1  1
  2  6  1  0
  2  3  1  0
  3  4  1  0
  4  5  2  0
  4  8  1  0
  6  7  2  0
  9  6  1  0
  9 13  1  0
 10  9  1  0
 11 10  1  0
 11 12  1  0
 12 13  1  0
 13 14  1  6
 14 15  2  0
 14 19  1  0
 16 17  1  0
 18 17  1  1
 18 20  1  0
 19 18  1  0
 20 22  1  0
 21 20  2  0
M  END
$$$$
