DPS.pdb
     RDKit          3D

 22 22  0  0  1  0  0  0  0  0999 V2000
   16.6696  -10.6608  -16.5366 N   0  0  0  0  0  0  0  0  0  0  0  0
   17.1960   -9.4480  -17.1816 C   0  0  1  0  0  0  0  0  0  0  0  0
   16.0171   -8.4696  -17.0722 C   0  0  0  0  0  0  0  0  0  0  0  0
   14.9712   -8.9620  -18.0047 C   0  0  0  0  0  0  0  0  0  0  0  0
   14.1019   -9.8140  -17.6768 O   0  0  0  0  0  0  0  0  0  0  0  0
   18.3940   -8.9324  -16.4605 C   0  0  0  0  0  0  0  0  0  0  0  0
   18.2446   -8.7508  -15.2368 O   0  0  0  0  0  0  0  0  0  0  0  0
   14.9335   -8.4733  -19.3004 O   0  0  0  0  0  0  0  0  0  0  0  0
   19.6150   -8.6622  -17.0877 N   0  0  0  0  0  0  0  0  0  0  0  0
   20.1917   -9.5329  -18.1624 C   0  0  0  0  0  0  0  0  0  0  0  0
   20.4153   -8.4776  -19.2151 C   0  0  0  0  0  0  0  0  0  0  0  0
   20.6257   -7.1652  -18.4483 C   0  0  0  0  0  0  0  0  0  0  0  0
   20.6313   -7.6804  -16.9971 C   0  0  1  0  0  0  0  0  0  0  0  0
   20.5552   -6.6110  -16.0395 C   0  0  0  0  0  0  0  0  0  0  0  0
   19.6364   -5.8020  -15.9372 O   0  0  0  0  0  0  0  0  0  0  0  0
   22.6412   -4.7443  -12.0396 O   0  0  0  0  0  0  0  0  0  0  0  0
   22.6581   -5.7500  -13.0198 C   0  0  0  0  0  0  0  0  0  0  0  0
   21.6665   -5.3882  -14.1342 C   0  0  2  0  0  0  0  0  0  0  0  0
   21.6521   -6.4554  -15.1000 N   0  0  0  0  0  0  0  0  0  0  0  0
   22.0144   -4.0883  -14.7004 C   0  0  0  0  0  0  0  0  0  0  0  0
   22.8338   -4.0073  -15.6408 O   0  0  0  0  0  0  0  0  0  0  0  0
   21.4506   -2.9268  -14.2140 O   0  0  0  0  0  0  0  0  0  0  0  0
  2  1  1  1
  2  6  1  0
  2  3  1  0
  3  4  1  0
  4  5  2  0
  4  8  1  0
  6  7  2  0
  9  6  1  0
  9 13  1  0
 10  9  1  0
 11 10  1  0
 11 12  1  0
 12 13  1  0
 13 14  1  1
 14 15  2  0
 14 19  1  0
 16 17  1  0
 18 17  1  1
 18 20  1  0
 19 18  1  0
 20 22  1  0
 21 20  2  0
M  END
$$$$
