DPS.pdb
     RDKit          3D

 22 22  0  0  1  0  0  0  0  0999 V2000
   20.2267  -12.5190  -18.3188 N   0  0  0  0  0  0  0  0  0  0  0  0
   21.4138  -11.6509  -18.3473 C   0  0  1  0  0  0  0  0  0  0  0  0
   21.3927  -11.0983  -19.7803 C   0  0  0  0  0  0  0  0  0  0  0  0
   21.7462  -12.2299  -20.6749 C   0  0  0  0  0  0  0  0  0  0  0  0
   22.7525  -12.2192  -21.4342 O   0  0  0  0  0  0  0  0  0  0  0  0
   21.3023  -10.5544  -17.3443 C   0  0  0  0  0  0  0  0  0  0  0  0
   20.3378   -9.7812  -17.5021 O   0  0  0  0  0  0  0  0  0  0  0  0
   20.9439  -13.3592  -20.6893 O   0  0  0  0  0  0  0  0  0  0  0  0
   22.2028  -10.3805  -16.2879 N   0  0  0  0  0  0  0  0  0  0  0  0
   22.7966  -11.5247  -15.5239 C   0  0  0  0  0  0  0  0  0  0  0  0
   24.2530  -11.1655  -15.6711 C   0  0  0  0  0  0  0  0  0  0  0  0
   24.2897   -9.6397  -15.8300 C   0  0  0  0  0  0  0  0  0  0  0  0
   22.8055   -9.2941  -15.6085 C   0  0  1  0  0  0  0  0  0  0  0  0
   22.5053   -7.9328  -15.9596 C   0  0  0  0  0  0  0  0  0  0  0  0
   22.6369   -7.4324  -17.0738 O   0  0  0  0  0  0  0  0  0  0  0  0
   19.9866   -4.0570  -15.4010 O   0  0  0  0  0  0  0  0  0  0  0  0
   20.2475   -5.3990  -15.0790 C   0  0  0  0  0  0  0  0  0  0  0  0
   21.7578   -5.6575  -15.1696 C   0  0  2  0  0  0  0  0  0  0  0  0
   22.0003   -7.0540  -14.9191 N   0  0  0  0  0  0  0  0  0  0  0  0
   22.4661   -4.7653  -14.2564 C   0  0  0  0  0  0  0  0  0  0  0  0
   22.6651   -5.1036  -13.0697 O   0  0  0  0  0  0  0  0  0  0  0  0
   22.9291   -3.5363  -14.6792 O   0  0  0  0  0  0  0  0  0  0  0  0
  2  1  1  6
  2  6  1  0
  2  3  1  0
  3  4  1  0
  4  5  2  0
  4  8  1  0
  6  7  2  0
  9  6  1  0
  9 13  1  0
 10  9  1  0
 11 10  1  0
 11 12  1  0
 12 13  1  0
 13 14  1  6
 14 15  2  0
 14 19  1  0
 16 17  1  0
 18 17  1  1
 18 20  1  0
 19 18  1  0
 20 22  1  0
 21 20  2  0
M  END
$$$$
