DPS.pdb
     RDKit          3D

 22 22  0  0  1  0  0  0  0  0999 V2000
   18.4326  -11.2948  -15.2334 N   0  0  0  0  0  0  0  0  0  0  0  0
   19.4483  -10.8413  -16.1959 C   0  0  1  0  0  0  0  0  0  0  0  0
   18.6034  -10.4467  -17.4164 C   0  0  0  0  0  0  0  0  0  0  0  0
   17.9969  -11.6999  -17.9336 C   0  0  0  0  0  0  0  0  0  0  0  0
   18.6238  -12.7916  -18.0013 O   0  0  0  0  0  0  0  0  0  0  0  0
   20.2084   -9.6742  -15.6655 C   0  0  0  0  0  0  0  0  0  0  0  0
   19.5951   -8.5894  -15.6709 O   0  0  0  0  0  0  0  0  0  0  0  0
   16.6811  -11.6881  -18.3667 O   0  0  0  0  0  0  0  0  0  0  0  0
   21.5204   -9.7605  -15.1877 N   0  0  0  0  0  0  0  0  0  0  0  0
   22.0221  -10.9211  -14.3833 C   0  0  0  0  0  0  0  0  0  0  0  0
   23.2306  -11.2687  -15.2143 C   0  0  0  0  0  0  0  0  0  0  0  0
   23.6615   -9.9589  -15.8876 C   0  0  0  0  0  0  0  0  0  0  0  0
   22.6907   -8.9644  -15.2243 C   0  0  1  0  0  0  0  0  0  0  0  0
   22.7020   -7.6800  -15.8697 C   0  0  0  0  0  0  0  0  0  0  0  0
   22.4572   -7.4692  -17.0549 O   0  0  0  0  0  0  0  0  0  0  0  0
   21.4322   -4.4495  -14.0779 O   0  0  0  0  0  0  0  0  0  0  0  0
   22.7204   -4.1718  -14.5637 C   0  0  0  0  0  0  0  0  0  0  0  0
   23.0862   -5.1976  -15.6453 C   0  0  2  0  0  0  0  0  0  0  0  0
   23.0296   -6.5145  -15.0670 N   0  0  0  0  0  0  0  0  0  0  0  0
   24.3857   -4.8643  -16.2212 C   0  0  0  0  0  0  0  0  0  0  0  0
   25.4001   -5.5291  -15.9191 O   0  0  0  0  0  0  0  0  0  0  0  0
   24.5234   -3.8149  -17.1063 O   0  0  0  0  0  0  0  0  0  0  0  0
  2  1  1  1
  2  6  1  0
  2  3  1  0
  3  4  1  0
  4  5  2  0
  4  8  1  0
  6  7  2  0
  9  6  1  0
  9 13  1  0
 10  9  1  0
 11 10  1  0
 11 12  1  0
 12 13  1  0
 13 14  1  6
 14 15  2  0
 14 19  1  0
 16 17  1  0
 18 17  1  1
 18 20  1  0
 19 18  1  0
 20 22  1  0
 21 20  2  0
M  END
$$$$
