DPS.pdb
     RDKit          3D

 22 22  0  0  1  0  0  0  0  0999 V2000
   14.2196  -25.1140   -4.9797 N   0  0  0  0  0  0  0  0  0  0  0  0
   15.0066  -25.0607   -3.7381 C   0  0  1  0  0  0  0  0  0  0  0  0
   14.1730  -24.1242   -2.8508 C   0  0  0  0  0  0  0  0  0  0  0  0
   14.2686  -22.7717   -3.4569 C   0  0  0  0  0  0  0  0  0  0  0  0
   14.9407  -22.5283   -4.4953 O   0  0  0  0  0  0  0  0  0  0  0  0
   15.1352  -26.4128   -3.1246 C   0  0  0  0  0  0  0  0  0  0  0  0
   14.0611  -26.9650   -2.8173 O   0  0  0  0  0  0  0  0  0  0  0  0
   13.5941  -21.7151   -2.8673 O   0  0  0  0  0  0  0  0  0  0  0  0
   16.3631  -27.0435   -2.8977 N   0  0  0  0  0  0  0  0  0  0  0  0
   17.4731  -27.0566   -3.9043 C   0  0  0  0  0  0  0  0  0  0  0  0
   18.5789  -26.5214   -3.0310 C   0  0  0  0  0  0  0  0  0  0  0  0
   18.2105  -26.9300   -1.5985 C   0  0  0  0  0  0  0  0  0  0  0  0
   16.9648  -27.7967   -1.8606 C   0  0  1  0  0  0  0  0  0  0  0  0
   16.2528  -28.1062   -0.6507 C   0  0  0  0  0  0  0  0  0  0  0  0
   15.8262  -27.2890    0.1612 O   0  0  0  0  0  0  0  0  0  0  0  0
   15.7639  -32.1742    0.3080 O   0  0  0  0  0  0  0  0  0  0  0  0
   14.6840  -31.3131    0.5626 C   0  0  0  0  0  0  0  0  0  0  0  0
   15.2135  -29.8915    0.7960 C   0  0  2  0  0  0  0  0  0  0  0  0
   16.0051  -29.5038   -0.3420 N   0  0  0  0  0  0  0  0  0  0  0  0
   15.9388  -29.8375    2.0619 C   0  0  0  0  0  0  0  0  0  0  0  0
   15.3535  -30.0899    3.1371 O   0  0  0  0  0  0  0  0  0  0  0  0
   17.2782  -29.5088    2.1007 O   0  0  0  0  0  0  0  0  0  0  0  0
  2  1  1  6
  2  6  1  0
  2  3  1  0
  3  4  1  0
  4  5  2  0
  4  8  1  0
  6  7  2  0
  9  6  1  0
  9 13  1  0
 10  9  1  0
 11 10  1  0
 11 12  1  0
 12 13  1  0
 13 14  1  1
 14 15  2  0
 14 19  1  0
 16 17  1  0
 18 17  1  6
 18 20  1  0
 19 18  1  0
 20 22  1  0
 21 20  2  0
M  END
$$$$
