DPS.pdb
     RDKit          3D

 22 22  0  0  1  0  0  0  0  0999 V2000
   19.6684  -12.2882  -17.9387 N   0  0  0  0  0  0  0  0  0  0  0  0
   20.9381  -11.5721  -17.7416 C   0  0  1  0  0  0  0  0  0  0  0  0
   21.2271  -11.0075  -19.1405 C   0  0  0  0  0  0  0  0  0  0  0  0
   21.4837  -12.1745  -20.0226 C   0  0  0  0  0  0  0  0  0  0  0  0
   22.0191  -13.2408  -19.6157 O   0  0  0  0  0  0  0  0  0  0  0  0
   20.7893  -10.4797  -16.7388 C   0  0  0  0  0  0  0  0  0  0  0  0
   19.8918   -9.6499  -16.9812 O   0  0  0  0  0  0  0  0  0  0  0  0
   21.1245  -12.1066  -21.3588 O   0  0  0  0  0  0  0  0  0  0  0  0
   21.5872  -10.3683  -15.5951 N   0  0  0  0  0  0  0  0  0  0  0  0
   21.9854  -11.5464  -14.7590 C   0  0  0  0  0  0  0  0  0  0  0  0
   23.4770  -11.3293  -14.7553 C   0  0  0  0  0  0  0  0  0  0  0  0
   23.6763   -9.8176  -14.9274 C   0  0  0  0  0  0  0  0  0  0  0  0
   22.2171   -9.3290  -14.8686 C   0  0  1  0  0  0  0  0  0  0  0  0
   22.0873   -7.9535  -15.2657 C   0  0  0  0  0  0  0  0  0  0  0  0
   22.5617   -7.4509  -16.2813 O   0  0  0  0  0  0  0  0  0  0  0  0
   19.7089   -3.8023  -14.5101 O   0  0  0  0  0  0  0  0  0  0  0  0
   19.8729   -5.1516  -14.1564 C   0  0  0  0  0  0  0  0  0  0  0  0
   21.2201   -5.6558  -14.6921 C   0  0  2  0  0  0  0  0  0  0  0  0
   21.3317   -7.0615  -14.4033 N   0  0  0  0  0  0  0  0  0  0  0  0
   22.3041   -4.8534  -14.1332 C   0  0  0  0  0  0  0  0  0  0  0  0
   22.7290   -5.0807  -12.9799 O   0  0  0  0  0  0  0  0  0  0  0  0
   22.8810   -3.8324  -14.8600 O   0  0  0  0  0  0  0  0  0  0  0  0
  2  1  1  6
  2  6  1  0
  2  3  1  0
  3  4  1  0
  4  5  2  0
  4  8  1  0
  6  7  2  0
  9  6  1  0
  9 13  1  0
 10  9  1  0
 11 10  1  0
 11 12  1  0
 12 13  1  0
 13 14  1  6
 14 15  2  0
 14 19  1  0
 16 17  1  0
 18 17  1  1
 18 20  1  0
 19 18  1  0
 20 22  1  0
 21 20  2  0
M  END
$$$$
