DPS.pdb
     RDKit          3D

 22 22  0  0  1  0  0  0  0  0999 V2000
   16.2632   -8.1870  -14.2110 N   0  0  0  0  0  0  0  0  0  0  0  0
   16.7387   -8.2056  -12.8191 C   0  0  1  0  0  0  0  0  0  0  0  0
   18.2310   -7.8740  -12.9685 C   0  0  0  0  0  0  0  0  0  0  0  0
   18.8659   -9.0583  -13.6011 C   0  0  0  0  0  0  0  0  0  0  0  0
   19.0776   -9.1463  -14.8407 O   0  0  0  0  0  0  0  0  0  0  0  0
   16.0372   -7.1790  -11.9975 C   0  0  0  0  0  0  0  0  0  0  0  0
   16.1374   -6.0064  -12.4071 O   0  0  0  0  0  0  0  0  0  0  0  0
   19.2503  -10.1266  -12.8073 O   0  0  0  0  0  0  0  0  0  0  0  0
   15.3089   -7.4814  -10.8420 N   0  0  0  0  0  0  0  0  0  0  0  0
   14.6074   -8.7897  -10.6375 C   0  0  0  0  0  0  0  0  0  0  0  0
   15.2041   -9.1623   -9.3045 C   0  0  0  0  0  0  0  0  0  0  0  0
   15.5561   -7.8338   -8.6220 C   0  0  0  0  0  0  0  0  0  0  0  0
   14.9689   -6.8301   -9.6316 C   0  0  1  0  0  0  0  0  0  0  0  0
   15.3880   -5.4811   -9.3646 C   0  0  0  0  0  0  0  0  0  0  0  0
   16.5151   -5.1334   -9.0215 O   0  0  0  0  0  0  0  0  0  0  0  0
   12.5352   -2.4897   -9.9997 O   0  0  0  0  0  0  0  0  0  0  0  0
   13.8880   -2.1578  -10.1795 C   0  0  0  0  0  0  0  0  0  0  0  0
   14.7520   -3.0425   -9.2703 C   0  0  2  0  0  0  0  0  0  0  0  0
   14.4067   -4.4197   -9.5072 N   0  0  0  0  0  0  0  0  0  0  0  0
   14.5899   -2.6270   -7.8801 C   0  0  0  0  0  0  0  0  0  0  0  0
   14.0231   -3.3786   -7.0578 O   0  0  0  0  0  0  0  0  0  0  0  0
   15.0554   -1.4035   -7.4446 O   0  0  0  0  0  0  0  0  0  0  0  0
  2  1  1  6
  2  6  1  0
  2  3  1  0
  3  4  1  0
  4  5  2  0
  4  8  1  0
  6  7  2  0
  9  6  1  0
  9 13  1  0
 10  9  1  0
 11 10  1  0
 11 12  1  0
 12 13  1  0
 13 14  1  6
 14 15  2  0
 14 19  1  0
 16 17  1  0
 18 17  1  6
 18 20  1  0
 19 18  1  0
 20 22  1  0
 21 20  2  0
M  END
$$$$
