RMF.pdb
     RDKit          3D

 31 31  0  0  1  0  0  0  0  0999 V2000
   10.0518  -20.2572   15.4886 N   0  0  0  0  0  0  0  0  0  0  0  0
    9.3978  -21.0763   16.4789 C   0  0  0  0  0  0  0  0  0  0  0  0
    8.3234  -21.6888   16.1359 N   0  0  0  0  0  0  0  0  0  0  0  0
    9.8829  -21.2323   17.7892 N   0  0  0  0  0  0  0  0  0  0  0  0
   10.2153  -20.1166   18.6550 C   0  0  0  0  0  0  0  0  0  0  0  0
    8.9157  -19.7899   19.4167 C   0  0  0  0  0  0  0  0  0  0  0  0
    9.3160  -18.8861   20.5253 C   0  0  0  0  0  0  0  0  0  0  0  0
    9.0705  -17.4536   20.1962 C   0  0  2  0  0  0  0  0  0  0  0  0
    9.9794  -17.0818   19.0902 N   0  0  0  0  0  0  0  0  0  0  0  0
    9.5052  -16.5976   21.3572 C   0  0  0  0  0  0  0  0  0  0  0  0
   10.7277  -16.3537   21.5902 O   0  0  0  0  0  0  0  0  0  0  0  0
    7.8058  -22.3267   16.7472 C   0  0  0  0  0  0  0  0  0  0  0  0
    6.4245  -11.7390   26.7119 S   0  0  0  0  0  0  0  0  0  0  0  0
    7.4211  -11.9470   25.1918 C   0  0  0  0  0  0  0  0  0  0  0  0
    8.1127  -13.5844   25.1233 C   0  0  0  0  0  0  0  0  0  0  0  0
    7.9409  -14.3566   23.8803 C   0  0  1  0  0  0  0  0  0  0  0  0
    9.0529  -15.1928   23.3696 N   0  0  0  0  0  0  0  0  0  0  0  0
    8.5548  -16.0293   22.2385 C   0  0  0  0  0  0  0  0  0  0  0  0
    9.6325  -16.1890   24.2905 O   0  0  0  0  0  0  0  0  0  0  0  0
    9.0003  -17.2283   24.6735 N   0  0  0  0  0  0  0  0  0  0  0  0
   10.9492  -16.1015   24.8480 C   0  0  2  0  0  0  0  0  0  0  0  0
   11.4132  -17.0170   25.9048 C   0  0  0  0  0  0  0  0  0  0  0  0
   10.2370  -17.1341   26.8496 C   0  0  0  0  0  0  0  0  0  0  0  0
   10.1334  -15.9476   27.7033 C   0  0  0  0  0  0  0  0  0  0  0  0
   11.1596  -15.5565   28.5318 C   0  0  0  0  0  0  0  0  0  0  0  0
   11.0353  -14.4168   29.3302 C   0  0  0  0  0  0  0  0  0  0  0  0
    9.8399  -13.6995   29.2531 C   0  0  0  0  0  0  0  0  0  0  0  0
    8.8071  -14.0667   28.4392 C   0  0  0  0  0  0  0  0  0  0  0  0
    8.9641  -15.2030   27.6606 C   0  0  0  0  0  0  0  0  0  0  0  0
   11.7355  -18.3342   25.3701 O   0  0  0  0  0  0  0  0  0  0  0  0
   11.2971  -18.6185   24.2011 O   0  0  0  0  0  0  0  0  0  0  0  0
  2  3  2  0
  2  1  1  0
  4  2  1  0
  5  6  1  0
  5  4  1  0
  7  8  1  0
  7  6  1  0
  8  9  1  6
 10  8  1  0
 10 17  1  0
 11 10  2  0
 13 12  1  0
 14 13  1  0
 15 14  1  0
 16 15  1  6
 16 17  1  0
 18 19  2  0
 18 16  1  0
 20 18  1  0
 21 20  1  0
 21 22  1  6
 23 22  1  0
 23 24  2  0
 24 25  1  0
 26 25  2  0
 27 26  1  0
 28 27  2  0
 28 23  1  0
 29 21  1  0
 30 29  2  0
 31 29  1  0
M  END
$$$$
