RMF.pdb
     RDKit          3D

 31 31  0  0  1  0  0  0  0  0999 V2000
   10.1492  -22.1572   20.6695 N   0  0  0  0  0  0  0  0  0  0  0  0
    9.8161  -22.1685   19.2665 C   0  0  0  0  0  0  0  0  0  0  0  0
    9.4349  -23.2798   18.7496 N   0  0  0  0  0  0  0  0  0  0  0  0
    9.8883  -21.0262   18.4502 N   0  0  0  0  0  0  0  0  0  0  0  0
   10.3013  -19.7231   18.9364 C   0  0  0  0  0  0  0  0  0  0  0  0
    9.3663  -19.4151   20.1226 C   0  0  0  0  0  0  0  0  0  0  0  0
    9.7788  -18.0789   20.6230 C   0  0  0  0  0  0  0  0  0  0  0  0
    8.6768  -17.0804   20.5270 C   0  0  2  0  0  0  0  0  0  0  0  0
    8.7883  -16.4093   19.2137 N   0  0  0  0  0  0  0  0  0  0  0  0
    8.9085  -15.9888   21.5390 C   0  0  0  0  0  0  0  0  0  0  0  0
    9.7920  -15.0946   21.3710 O   0  0  0  0  0  0  0  0  0  0  0  0
    9.1961  -23.4015   17.7614 C   0  0  0  0  0  0  0  0  0  0  0  0
    8.0554  -10.7930   25.8886 S   0  0  0  0  0  0  0  0  0  0  0  0
    6.7422  -12.0162   25.5333 C   0  0  0  0  0  0  0  0  0  0  0  0
    7.3739  -13.6705   25.7020 C   0  0  0  0  0  0  0  0  0  0  0  0
    7.2722  -14.5716   24.5408 C   0  0  1  0  0  0  0  0  0  0  0  0
    8.4737  -14.8627   23.7233 N   0  0  0  0  0  0  0  0  0  0  0  0
    8.1405  -15.9216   22.7259 C   0  0  0  0  0  0  0  0  0  0  0  0
    9.6505  -15.4183   24.4183 O   0  0  0  0  0  0  0  0  0  0  0  0
   10.8112  -14.8958   24.3406 N   0  0  0  0  0  0  0  0  0  0  0  0
    9.6208  -16.5879   25.2449 C   0  0  1  0  0  0  0  0  0  0  0  0
   10.8141  -17.0685   25.9626 C   0  0  0  0  0  0  0  0  0  0  0  0
   10.3348  -17.3112   27.3773 C   0  0  0  0  0  0  0  0  0  0  0  0
   10.1315  -16.0437   28.0839 C   0  0  0  0  0  0  0  0  0  0  0  0
    9.1320  -15.1669   27.7306 C   0  0  0  0  0  0  0  0  0  0  0  0
    8.9574  -13.9682   28.4265 C   0  0  0  0  0  0  0  0  0  0  0  0
    9.8295  -13.7002   29.4835 C   0  0  0  0  0  0  0  0  0  0  0  0
   10.8288  -14.5536   29.8536 C   0  0  0  0  0  0  0  0  0  0  0  0
   10.9738  -15.7341   29.1412 C   0  0  0  0  0  0  0  0  0  0  0  0
   11.3110  -18.3184   25.4006 O   0  0  0  0  0  0  0  0  0  0  0  0
   12.3377  -18.8461   25.9548 O   0  0  0  0  0  0  0  0  0  0  0  0
  2  3  2  0
  2  1  1  0
  4  2  1  0
  5  6  1  0
  5  4  1  0
  7  8  1  0
  7  6  1  0
  8  9  1  6
 10  8  1  0
 10 17  1  0
 11 10  2  0
 13 12  1  0
 14 13  1  0
 15 14  1  0
 16 15  1  6
 16 17  1  0
 18 19  2  0
 18 16  1  0
 20 18  1  0
 21 20  1  0
 21 22  1  6
 23 22  1  0
 23 24  2  0
 24 25  1  0
 26 25  2  0
 27 26  1  0
 28 27  2  0
 28 23  1  0
 29 21  1  0
 30 29  2  0
 31 29  1  0
M  END
$$$$
