RMF.pdb
     RDKit          3D

 31 31  0  0  1  0  0  0  0  0999 V2000
    9.8273  -19.7556   14.9166 N   0  0  0  0  0  0  0  0  0  0  0  0
    8.6610  -19.4525   15.7087 C   0  0  0  0  0  0  0  0  0  0  0  0
    7.5244  -19.8755   15.2887 N   0  0  0  0  0  0  0  0  0  0  0  0
    8.7158  -18.7233   16.9094 N   0  0  0  0  0  0  0  0  0  0  0  0
    9.9538  -18.2490   17.4989 C   0  0  0  0  0  0  0  0  0  0  0  0
   10.2099  -19.1712   18.7072 C   0  0  0  0  0  0  0  0  0  0  0  0
   11.4066  -18.6164   19.3897 C   0  0  0  0  0  0  0  0  0  0  0  0
   11.3108  -18.7344   20.8721 C   0  0  2  0  0  0  0  0  0  0  0  0
   10.0663  -19.4689   21.1874 N   0  0  0  0  0  0  0  0  0  0  0  0
   11.1111  -17.3644   21.4658 C   0  0  0  0  0  0  0  0  0  0  0  0
   11.9901  -16.4555   21.3664 O   0  0  0  0  0  0  0  0  0  0  0  0
    6.6322  -19.6805   15.7518 C   0  0  0  0  0  0  0  0  0  0  0  0
    6.8471  -13.2288   19.7179 S   0  0  0  0  0  0  0  0  0  0  0  0
    6.7734  -12.9606   21.5262 C   0  0  0  0  0  0  0  0  0  0  0  0
    8.2202  -13.6337   22.3121 C   0  0  0  0  0  0  0  0  0  0  0  0
    8.5393  -15.0525   22.0753 C   0  0  2  0  0  0  0  0  0  0  0  0
    9.7611  -15.6448   22.6693 N   0  0  0  0  0  0  0  0  0  0  0  0
    9.9233  -17.0392   22.1631 C   0  0  0  0  0  0  0  0  0  0  0  0
    9.7899  -15.8168   24.1343 O   0  0  0  0  0  0  0  0  0  0  0  0
   10.8434  -15.6420   24.8315 N   0  0  0  0  0  0  0  0  0  0  0  0
    8.6558  -16.1933   24.9243 C   0  0  1  0  0  0  0  0  0  0  0  0
    8.7586  -16.4368   26.3736 C   0  0  0  0  0  0  0  0  0  0  0  0
    7.4524  -15.9228   26.9389 C   0  0  0  0  0  0  0  0  0  0  0  0
    7.3576  -14.4678   26.7936 C   0  0  0  0  0  0  0  0  0  0  0  0
    8.3076  -13.6217   27.3172 C   0  0  0  0  0  0  0  0  0  0  0  0
    8.1946  -12.2384   27.1576 C   0  0  0  0  0  0  0  0  0  0  0  0
    7.0902  -11.7560   26.4525 C   0  0  0  0  0  0  0  0  0  0  0  0
    6.1343  -12.5746   25.9234 C   0  0  0  0  0  0  0  0  0  0  0  0
    6.2774  -13.9421   26.1006 C   0  0  0  0  0  0  0  0  0  0  0  0
    8.8869  -17.8581   26.6711 O   0  0  0  0  0  0  0  0  0  0  0  0
    9.0219  -18.1926   27.8997 O   0  0  0  0  0  0  0  0  0  0  0  0
  2  3  2  0
  2  1  1  0
  4  2  1  0
  5  6  1  0
  5  4  1  0
  7  8  1  0
  7  6  1  0
  8  9  1  6
 10  8  1  0
 10 17  1  0
 11 10  2  0
 13 12  1  0
 14 13  1  0
 15 14  1  0
 16 15  1  6
 16 17  1  0
 18 19  2  0
 18 16  1  0
 20 18  1  0
 21 20  1  0
 21 22  1  1
 23 22  1  0
 23 24  2  0
 24 25  1  0
 26 25  2  0
 27 26  1  0
 28 27  2  0
 28 23  1  0
 29 21  1  0
 30 29  2  0
 31 29  1  0
M  END
$$$$
