RMF.pdb
     RDKit          3D

 31 31  0  0  1  0  0  0  0  0999 V2000
   12.5302  -20.7268   19.5793 N   0  0  0  0  0  0  0  0  0  0  0  0
   12.3910  -20.5977   21.0087 C   0  0  0  0  0  0  0  0  0  0  0  0
   13.4570  -20.4225   21.7016 N   0  0  0  0  0  0  0  0  0  0  0  0
   11.1506  -20.6530   21.6682 N   0  0  0  0  0  0  0  0  0  0  0  0
    9.9067  -20.9884   21.0010 C   0  0  0  0  0  0  0  0  0  0  0  0
    9.4694  -19.6979   20.2804 C   0  0  0  0  0  0  0  0  0  0  0  0
    8.8866  -18.8274   21.3332 C   0  0  0  0  0  0  0  0  0  0  0  0
    8.3375  -17.5609   20.7718 C   0  0  2  0  0  0  0  0  0  0  0  0
    8.9381  -17.3613   19.4351 N   0  0  0  0  0  0  0  0  0  0  0  0
    8.8320  -16.3996   21.5943 C   0  0  0  0  0  0  0  0  0  0  0  0
    9.9427  -15.8350   21.3580 O   0  0  0  0  0  0  0  0  0  0  0  0
   13.4671  -20.2936   22.7174 C   0  0  0  0  0  0  0  0  0  0  0  0
    5.3431  -11.6308   25.8678 S   0  0  0  0  0  0  0  0  0  0  0  0
    6.7293  -12.6551   26.4813 C   0  0  0  0  0  0  0  0  0  0  0  0
    7.8677  -13.0119   25.1619 C   0  0  0  0  0  0  0  0  0  0  0  0
    7.5601  -14.1434   24.2698 C   0  0  2  0  0  0  0  0  0  0  0  0
    8.6433  -14.7824   23.4855 N   0  0  0  0  0  0  0  0  0  0  0  0
    8.0668  -15.8922   22.6713 C   0  0  0  0  0  0  0  0  0  0  0  0
    9.7249  -15.4475   24.2368 O   0  0  0  0  0  0  0  0  0  0  0  0
   10.8657  -14.9108   24.4293 N   0  0  0  0  0  0  0  0  0  0  0  0
    9.6159  -16.7494   24.8244 C   0  0  1  0  0  0  0  0  0  0  0  0
   10.6349  -17.2783   25.7475 C   0  0  0  0  0  0  0  0  0  0  0  0
    9.9141  -17.4156   27.0709 C   0  0  0  0  0  0  0  0  0  0  0  0
    9.9431  -16.1532   27.8143 C   0  0  0  0  0  0  0  0  0  0  0  0
    8.9556  -15.2055   27.6760 C   0  0  0  0  0  0  0  0  0  0  0  0
    9.0059  -14.0133   28.4026 C   0  0  0  0  0  0  0  0  0  0  0  0
   10.0878  -13.8259   29.2651 C   0  0  0  0  0  0  0  0  0  0  0  0
   11.0801  -14.7507   29.4201 C   0  0  0  0  0  0  0  0  0  0  0  0
   10.9988  -15.9224   28.6836 C   0  0  0  0  0  0  0  0  0  0  0  0
   11.1164  -18.5869   25.3224 O   0  0  0  0  0  0  0  0  0  0  0  0
   10.5330  -19.1323   24.3215 O   0  0  0  0  0  0  0  0  0  0  0  0
  2  3  2  0
  2  1  1  0
  4  2  1  0
  5  6  1  0
  5  4  1  0
  7  8  1  0
  7  6  1  0
  8  9  1  6
 10  8  1  0
 10 17  1  0
 11 10  2  0
 13 12  1  0
 14 13  1  0
 15 14  1  0
 16 15  1  6
 16 17  1  0
 18 19  2  0
 18 16  1  0
 20 18  1  0
 21 20  1  0
 21 22  1  6
 23 22  1  0
 23 24  2  0
 24 25  1  0
 26 25  2  0
 27 26  1  0
 28 27  2  0
 28 23  1  0
 29 21  1  0
 30 29  2  0
 31 29  1  0
M  END
$$$$
