RMF.pdb
     RDKit          3D

 31 31  0  0  1  0  0  0  0  0999 V2000
    8.2933  -12.5539   16.6964 N   0  0  0  0  0  0  0  0  0  0  0  0
    8.1745  -13.5588   15.6690 C   0  0  0  0  0  0  0  0  0  0  0  0
    8.6338  -13.2816   14.5031 N   0  0  0  0  0  0  0  0  0  0  0  0
    7.5852  -14.8162   15.8884 N   0  0  0  0  0  0  0  0  0  0  0  0
    7.0747  -15.2440   17.1774 C   0  0  0  0  0  0  0  0  0  0  0  0
    8.3129  -15.6929   17.9781 C   0  0  0  0  0  0  0  0  0  0  0  0
    7.7906  -16.2147   19.2669 C   0  0  0  0  0  0  0  0  0  0  0  0
    8.8821  -16.6998   20.1580 C   0  0  2  0  0  0  0  0  0  0  0  0
    8.5120  -18.0514   20.6311 N   0  0  0  0  0  0  0  0  0  0  0  0
    8.9185  -15.8519   21.4026 C   0  0  0  0  0  0  0  0  0  0  0  0
    9.2391  -14.6253   21.3695 O   0  0  0  0  0  0  0  0  0  0  0  0
    8.6615  -13.9454   13.7240 C   0  0  0  0  0  0  0  0  0  0  0  0
    7.0700  -12.0776   27.1214 S   0  0  0  0  0  0  0  0  0  0  0  0
    7.4071  -12.9636   25.5567 C   0  0  0  0  0  0  0  0  0  0  0  0
    7.1622  -14.7126   25.7695 C   0  0  0  0  0  0  0  0  0  0  0  0
    7.3913  -15.5896   24.6081 C   0  0  2  0  0  0  0  0  0  0  0  0
    8.6695  -15.5099   23.8621 N   0  0  0  0  0  0  0  0  0  0  0  0
    8.5931  -16.3995   22.6663 C   0  0  0  0  0  0  0  0  0  0  0  0
    9.8879  -15.9793   24.5490 O   0  0  0  0  0  0  0  0  0  0  0  0
   11.0446  -15.4962   24.3146 N   0  0  0  0  0  0  0  0  0  0  0  0
    9.9069  -17.0134   25.5401 C   0  0  1  0  0  0  0  0  0  0  0  0
   11.1548  -17.4515   26.1891 C   0  0  0  0  0  0  0  0  0  0  0  0
   10.8786  -17.3209   27.6711 C   0  0  0  0  0  0  0  0  0  0  0  0
   10.5898  -15.9292   28.0274 C   0  0  0  0  0  0  0  0  0  0  0  0
    9.3222  -15.5128   28.3626 C   0  0  0  0  0  0  0  0  0  0  0  0
    9.0774  -14.1806   28.7044 C   0  0  0  0  0  0  0  0  0  0  0  0
   10.1603  -13.2993   28.6917 C   0  0  0  0  0  0  0  0  0  0  0  0
   11.4272  -13.6877   28.3628 C   0  0  0  0  0  0  0  0  0  0  0  0
   11.6345  -15.0171   28.0287 C   0  0  0  0  0  0  0  0  0  0  0  0
   11.4628  -18.8416   25.8764 O   0  0  0  0  0  0  0  0  0  0  0  0
   12.5240  -19.3397   26.3914 O   0  0  0  0  0  0  0  0  0  0  0  0
  2  3  2  0
  2  1  1  0
  4  2  1  0
  5  6  1  0
  5  4  1  0
  7  8  1  0
  7  6  1  0
  8  9  1  1
 10  8  1  0
 10 17  1  0
 11 10  2  0
 13 12  1  0
 14 13  1  0
 15 14  1  0
 16 15  1  6
 16 17  1  0
 18 19  2  0
 18 16  1  0
 20 18  1  0
 21 20  1  0
 21 22  1  6
 23 22  1  0
 23 24  2  0
 24 25  1  0
 26 25  2  0
 27 26  1  0
 28 27  2  0
 28 23  1  0
 29 21  1  0
 30 29  2  0
 31 29  1  0
M  END
$$$$
