RMF.pdb
     RDKit          3D

 31 31  0  0  1  0  0  0  0  0999 V2000
    8.0287  -12.9131   16.1222 N   0  0  0  0  0  0  0  0  0  0  0  0
    8.4797  -13.1392   17.4731 C   0  0  0  0  0  0  0  0  0  0  0  0
    8.5423  -12.1283   18.2614 N   0  0  0  0  0  0  0  0  0  0  0  0
    8.8478  -14.4061   17.9586 N   0  0  0  0  0  0  0  0  0  0  0  0
    8.2662  -15.6449   17.4767 C   0  0  0  0  0  0  0  0  0  0  0  0
    8.0481  -16.5095   18.7341 C   0  0  0  0  0  0  0  0  0  0  0  0
    9.3926  -16.6828   19.3408 C   0  0  0  0  0  0  0  0  0  0  0  0
    9.3543  -17.5582   20.5461 C   0  0  2  0  0  0  0  0  0  0  0  0
    8.0400  -18.2362   20.5707 N   0  0  0  0  0  0  0  0  0  0  0  0
    9.3680  -16.6983   21.7830 C   0  0  0  0  0  0  0  0  0  0  0  0
   10.2576  -15.8153   21.9763 O   0  0  0  0  0  0  0  0  0  0  0  0
    8.8796  -12.1731   19.2272 C   0  0  0  0  0  0  0  0  0  0  0  0
    6.8009  -12.2624   26.6492 S   0  0  0  0  0  0  0  0  0  0  0  0
    5.8581  -13.6559   25.9306 C   0  0  0  0  0  0  0  0  0  0  0  0
    6.8846  -15.1040   25.8139 C   0  0  0  0  0  0  0  0  0  0  0  0
    7.0826  -15.7062   24.4839 C   0  0  1  0  0  0  0  0  0  0  0  0
    8.4544  -15.9677   23.9874 N   0  0  0  0  0  0  0  0  0  0  0  0
    8.3785  -16.8467   22.7838 C   0  0  0  0  0  0  0  0  0  0  0  0
    9.3714  -16.7027   24.8792 O   0  0  0  0  0  0  0  0  0  0  0  0
    9.0995  -17.8541   25.3554 N   0  0  0  0  0  0  0  0  0  0  0  0
   10.6491  -16.2127   25.3029 C   0  0  2  0  0  0  0  0  0  0  0  0
   11.6241  -17.0707   25.9983 C   0  0  0  0  0  0  0  0  0  0  0  0
   11.2490  -16.9646   27.4604 C   0  0  0  0  0  0  0  0  0  0  0  0
   10.9848  -15.5719   27.8315 C   0  0  0  0  0  0  0  0  0  0  0  0
   11.3875  -14.5203   27.0413 C   0  0  0  0  0  0  0  0  0  0  0  0
   11.1161  -13.2024   27.4171 C   0  0  0  0  0  0  0  0  0  0  0  0
   10.4271  -12.9993   28.6144 C   0  0  0  0  0  0  0  0  0  0  0  0
   10.0168  -14.0256   29.4159 C   0  0  0  0  0  0  0  0  0  0  0  0
   10.3029  -15.3208   29.0127 C   0  0  0  0  0  0  0  0  0  0  0  0
   11.5158  -18.4605   25.5721 O   0  0  0  0  0  0  0  0  0  0  0  0
   10.5546  -18.7606   24.7810 O   0  0  0  0  0  0  0  0  0  0  0  0
  2  3  2  0
  2  1  1  0
  4  2  1  0
  5  6  1  0
  5  4  1  0
  7  8  1  0
  7  6  1  0
  8  9  1  6
 10  8  1  0
 10 17  1  0
 11 10  2  0
 13 12  1  0
 14 13  1  0
 15 14  1  0
 16 15  1  6
 16 17  1  0
 18 19  2  0
 18 16  1  0
 20 18  1  0
 21 20  1  0
 21 22  1  6
 23 22  1  0
 23 24  2  0
 24 25  1  0
 26 25  2  0
 27 26  1  0
 28 27  2  0
 28 23  1  0
 29 21  1  0
 30 29  2  0
 31 29  1  0
M  END
$$$$
