RMF.pdb
     RDKit          3D

 31 31  0  0  1  0  0  0  0  0999 V2000
    7.5281  -12.9492   16.2752 N   0  0  0  0  0  0  0  0  0  0  0  0
    8.2600  -14.1798   16.1036 C   0  0  0  0  0  0  0  0  0  0  0  0
    8.8575  -14.3709   14.9839 N   0  0  0  0  0  0  0  0  0  0  0  0
    8.3475  -15.1673   17.1004 N   0  0  0  0  0  0  0  0  0  0  0  0
    7.6474  -15.0850   18.3685 C   0  0  0  0  0  0  0  0  0  0  0  0
    7.9656  -16.4058   19.0967 C   0  0  0  0  0  0  0  0  0  0  0  0
    6.7878  -17.2824   18.8720 C   0  0  0  0  0  0  0  0  0  0  0  0
    6.8603  -18.5346   19.6765 C   0  0  2  0  0  0  0  0  0  0  0  0
    5.7301  -19.3982   19.2712 N   0  0  0  0  0  0  0  0  0  0  0  0
    6.5975  -18.2090   21.1237 C   0  0  0  0  0  0  0  0  0  0  0  0
    5.5827  -17.5409   21.4874 O   0  0  0  0  0  0  0  0  0  0  0  0
    9.3946  -15.2123   14.7559 C   0  0  0  0  0  0  0  0  0  0  0  0
    3.6358  -22.5162   23.7629 S   0  0  0  0  0  0  0  0  0  0  0  0
    4.9902  -21.6749   24.6601 C   0  0  0  0  0  0  0  0  0  0  0  0
    5.4878  -20.2035   23.7931 C   0  0  0  0  0  0  0  0  0  0  0  0
    6.6919  -19.4970   24.2640 C   0  0  2  0  0  0  0  0  0  0  0  0
    7.1634  -18.2850   23.5531 N   0  0  0  0  0  0  0  0  0  0  0  0
    7.4828  -18.6415   22.1396 C   0  0  0  0  0  0  0  0  0  0  0  0
    8.4123  -17.6604   24.0293 O   0  0  0  0  0  0  0  0  0  0  0  0
    9.5653  -18.1540   23.7983 N   0  0  0  0  0  0  0  0  0  0  0  0
    8.4680  -16.4491   24.7921 C   0  0  1  0  0  0  0  0  0  0  0  0
    9.7350  -15.9172   25.3232 C   0  0  0  0  0  0  0  0  0  0  0  0
    9.6556  -14.4267   25.0743 C   0  0  0  0  0  0  0  0  0  0  0  0
    8.4901  -13.8468   25.7469 C   0  0  0  0  0  0  0  0  0  0  0  0
    8.5472  -13.4056   27.0487 C   0  0  0  0  0  0  0  0  0  0  0  0
    7.4216  -12.8509   27.6626 C   0  0  0  0  0  0  0  0  0  0  0  0
    6.2497  -12.7638   26.9086 C   0  0  0  0  0  0  0  0  0  0  0  0
    6.1674  -13.1942   25.6156 C   0  0  0  0  0  0  0  0  0  0  0  0
    7.3033  -13.7396   25.0375 C   0  0  0  0  0  0  0  0  0  0  0  0
    9.8612  -16.1611   26.7548 O   0  0  0  0  0  0  0  0  0  0  0  0
    8.8229  -16.5837   27.3738 O   0  0  0  0  0  0  0  0  0  0  0  0
  2  3  2  0
  2  1  1  0
  4  2  1  0
  5  6  1  0
  5  4  1  0
  7  8  1  0
  7  6  1  0
  8  9  1  6
 10  8  1  0
 10 17  1  0
 11 10  2  0
 13 12  1  0
 14 13  1  0
 15 14  1  0
 16 15  1  6
 16 17  1  0
 18 19  2  0
 18 16  1  0
 20 18  1  0
 21 20  1  0
 21 22  1  1
 23 22  1  0
 23 24  2  0
 24 25  1  0
 26 25  2  0
 27 26  1  0
 28 27  2  0
 28 23  1  0
 29 21  1  0
 30 29  2  0
 31 29  1  0
M  END
$$$$
