RMF.pdb
     RDKit          3D

 31 31  0  0  1  0  0  0  0  0999 V2000
    9.3539  -14.3073   19.5822 N   0  0  0  0  0  0  0  0  0  0  0  0
    8.9534  -13.9523   18.2432 C   0  0  0  0  0  0  0  0  0  0  0  0
    8.7266  -12.7139   17.9936 N   0  0  0  0  0  0  0  0  0  0  0  0
    8.8044  -14.8943   17.2104 N   0  0  0  0  0  0  0  0  0  0  0  0
    8.0280  -16.1123   17.3475 C   0  0  0  0  0  0  0  0  0  0  0  0
    7.4317  -16.0584   18.7678 C   0  0  0  0  0  0  0  0  0  0  0  0
    7.9457  -17.2647   19.4655 C   0  0  0  0  0  0  0  0  0  0  0  0
    7.4410  -17.3600   20.8644 C   0  0  2  0  0  0  0  0  0  0  0  0
    5.9806  -17.1279   20.8347 N   0  0  0  0  0  0  0  0  0  0  0  0
    7.9973  -16.2154   21.6703 C   0  0  0  0  0  0  0  0  0  0  0  0
    8.2765  -15.0965   21.1425 O   0  0  0  0  0  0  0  0  0  0  0  0
    8.4311  -12.3568   17.0806 C   0  0  0  0  0  0  0  0  0  0  0  0
    6.5400  -11.8544   25.6685 S   0  0  0  0  0  0  0  0  0  0  0  0
    5.7957  -13.5169   25.8393 C   0  0  0  0  0  0  0  0  0  0  0  0
    6.7545  -14.7201   24.9464 C   0  0  0  0  0  0  0  0  0  0  0  0
    7.9770  -14.2618   24.2636 C   0  0  1  0  0  0  0  0  0  0  0  0
    8.9591  -15.2520   23.7620 N   0  0  0  0  0  0  0  0  0  0  0  0
    8.2309  -16.3491   23.0597 C   0  0  0  0  0  0  0  0  0  0  0  0
    9.7665  -15.9755   24.7626 O   0  0  0  0  0  0  0  0  0  0  0  0
    9.3061  -16.9410   25.4570 N   0  0  0  0  0  0  0  0  0  0  0  0
   11.1359  -15.6789   25.0608 C   0  0  2  0  0  0  0  0  0  0  0  0
   11.9799  -16.5928   25.8500 C   0  0  0  0  0  0  0  0  0  0  0  0
   11.1690  -16.8791   27.0951 C   0  0  0  0  0  0  0  0  0  0  0  0
   10.7773  -15.6338   27.7604 C   0  0  0  0  0  0  0  0  0  0  0  0
   11.1938  -14.4043   27.3051 C   0  0  0  0  0  0  0  0  0  0  0  0
   10.7992  -13.2328   27.9559 C   0  0  0  0  0  0  0  0  0  0  0  0
    9.9739  -13.3602   29.0748 C   0  0  0  0  0  0  0  0  0  0  0  0
    9.5469  -14.5683   29.5463 C   0  0  0  0  0  0  0  0  0  0  0  0
    9.9576  -15.7105   28.8765 C   0  0  0  0  0  0  0  0  0  0  0  0
   12.2295  -17.8408   25.1392 O   0  0  0  0  0  0  0  0  0  0  0  0
   11.6288  -18.0121   24.0214 O   0  0  0  0  0  0  0  0  0  0  0  0
  2  3  2  0
  2  1  1  0
  4  2  1  0
  5  6  1  0
  5  4  1  0
  7  8  1  0
  7  6  1  0
  8  9  1  6
 10  8  1  0
 10 17  1  0
 11 10  2  0
 13 12  1  0
 14 13  1  0
 15 14  1  0
 16 15  1  6
 16 17  1  0
 18 19  2  0
 18 16  1  0
 20 18  1  0
 21 20  1  0
 21 22  1  6
 23 22  1  0
 23 24  2  0
 24 25  1  0
 26 25  2  0
 27 26  1  0
 28 27  2  0
 28 23  1  0
 29 21  1  0
 30 29  2  0
 31 29  1  0
M  END
$$$$
