RMF.pdb
     RDKit          3D

 31 31  0  0  1  0  0  0  0  0999 V2000
   10.9350  -15.6789   13.9581 N   0  0  0  0  0  0  0  0  0  0  0  0
    9.5272  -15.5341   14.2346 C   0  0  0  0  0  0  0  0  0  0  0  0
    8.7505  -15.2433   13.2551 N   0  0  0  0  0  0  0  0  0  0  0  0
    8.9750  -15.6983   15.5170 N   0  0  0  0  0  0  0  0  0  0  0  0
    9.7503  -16.1078   16.6729 C   0  0  0  0  0  0  0  0  0  0  0  0
    9.4284  -17.6020   16.8717 C   0  0  0  0  0  0  0  0  0  0  0  0
   10.6515  -18.2013   17.4641 C   0  0  0  0  0  0  0  0  0  0  0  0
   10.4306  -18.6528   18.8670 C   0  0  2  0  0  0  0  0  0  0  0  0
    9.1171  -19.3304   18.9221 N   0  0  0  0  0  0  0  0  0  0  0  0
   10.2803  -17.4468   19.7572 C   0  0  0  0  0  0  0  0  0  0  0  0
   11.1943  -16.5743   19.8649 O   0  0  0  0  0  0  0  0  0  0  0  0
    7.7548  -15.0269   13.3563 C   0  0  0  0  0  0  0  0  0  0  0  0
    6.7384  -12.8146   19.3602 S   0  0  0  0  0  0  0  0  0  0  0  0
    7.0590  -12.5096   21.1354 C   0  0  0  0  0  0  0  0  0  0  0  0
    8.0327  -13.8289   21.8250 C   0  0  0  0  0  0  0  0  0  0  0  0
    8.3206  -14.9951   20.9718 C   0  0  1  0  0  0  0  0  0  0  0  0
    9.0894  -16.1387   21.5175 N   0  0  0  0  0  0  0  0  0  0  0  0
    9.1014  -17.2424   20.5131 C   0  0  0  0  0  0  0  0  0  0  0  0
    8.5622  -16.7962   22.7284 O   0  0  0  0  0  0  0  0  0  0  0  0
    7.4892  -17.4855   22.7307 N   0  0  0  0  0  0  0  0  0  0  0  0
    9.1869  -16.7346   24.0161 C   0  0  2  0  0  0  0  0  0  0  0  0
    8.5922  -15.9888   25.1387 C   0  0  0  0  0  0  0  0  0  0  0  0
    8.4353  -14.5772   24.6166 C   0  0  0  0  0  0  0  0  0  0  0  0
    7.8565  -13.7035   25.6407 C   0  0  0  0  0  0  0  0  0  0  0  0
    8.6130  -13.1857   26.6664 C   0  0  0  0  0  0  0  0  0  0  0  0
    8.0356  -12.3498   27.6253 C   0  0  0  0  0  0  0  0  0  0  0  0
    6.6744  -12.0650   27.5008 C   0  0  0  0  0  0  0  0  0  0  0  0
    5.9022  -12.5662   26.4925 C   0  0  0  0  0  0  0  0  0  0  0  0
    6.5075  -13.3925   25.5582 C   0  0  0  0  0  0  0  0  0  0  0  0
    7.2829  -16.5177   25.5005 O   0  0  0  0  0  0  0  0  0  0  0  0
    6.4405  -16.7025   24.5541 O   0  0  0  0  0  0  0  0  0  0  0  0
  2  3  2  0
  2  1  1  0
  4  2  1  0
  5  6  1  0
  5  4  1  0
  7  8  1  0
  7  6  1  0
  8  9  1  6
 10  8  1  0
 10 17  1  0
 11 10  2  0
 13 12  1  0
 14 13  1  0
 15 14  1  0
 16 15  1  6
 16 17  1  0
 18 19  2  0
 18 16  1  0
 20 18  1  0
 21 20  1  0
 21 22  1  6
 23 22  1  0
 23 24  2  0
 24 25  1  0
 26 25  2  0
 27 26  1  0
 28 27  2  0
 28 23  1  0
 29 21  1  0
 30 29  2  0
 31 29  1  0
M  END
$$$$
