RMF.pdb
     RDKit          3D

 31 31  0  0  1  0  0  0  0  0999 V2000
   11.3786  -21.8291   22.4867 N   0  0  0  0  0  0  0  0  0  0  0  0
   11.6060  -22.2052   21.1133 C   0  0  0  0  0  0  0  0  0  0  0  0
   12.7972  -22.5405   20.7728 N   0  0  0  0  0  0  0  0  0  0  0  0
   10.5892  -22.2220   20.1427 N   0  0  0  0  0  0  0  0  0  0  0  0
    9.2534  -21.7068   20.3776 C   0  0  0  0  0  0  0  0  0  0  0  0
    9.4325  -20.1909   20.5915 C   0  0  0  0  0  0  0  0  0  0  0  0
    8.0777  -19.6655   20.8989 C   0  0  0  0  0  0  0  0  0  0  0  0
    7.7935  -18.3932   20.1770 C   0  0  2  0  0  0  0  0  0  0  0  0
    8.3884  -18.4970   18.8269 N   0  0  0  0  0  0  0  0  0  0  0  0
    8.5423  -17.2684   20.8431 C   0  0  0  0  0  0  0  0  0  0  0  0
    9.8094  -17.2142   20.8445 O   0  0  0  0  0  0  0  0  0  0  0  0
   13.0622  -22.8401   19.8302 C   0  0  0  0  0  0  0  0  0  0  0  0
    8.6178  -11.0428   19.9362 S   0  0  0  0  0  0  0  0  0  0  0  0
    7.2457  -12.2060   19.6026 C   0  0  0  0  0  0  0  0  0  0  0  0
    7.6104  -13.8071   20.2864 C   0  0  0  0  0  0  0  0  0  0  0  0
    8.4208  -13.8663   21.5153 C   0  0  2  0  0  0  0  0  0  0  0  0
    8.6540  -15.1675   22.1854 N   0  0  0  0  0  0  0  0  0  0  0  0
    7.8514  -16.2212   21.4980 C   0  0  0  0  0  0  0  0  0  0  0  0
    8.2313  -15.2924   23.5934 O   0  0  0  0  0  0  0  0  0  0  0  0
    7.4512  -14.4569   24.1589 N   0  0  0  0  0  0  0  0  0  0  0  0
    8.6433  -16.3494   24.4681 C   0  0  1  0  0  0  0  0  0  0  0  0
    9.3895  -16.0892   25.7114 C   0  0  0  0  0  0  0  0  0  0  0  0
    8.3205  -15.8056   26.7441 C   0  0  0  0  0  0  0  0  0  0  0  0
    7.8038  -14.4421   26.5992 C   0  0  0  0  0  0  0  0  0  0  0  0
    6.5328  -14.1920   26.1358 C   0  0  0  0  0  0  0  0  0  0  0  0
    6.0644  -12.8814   26.0140 C   0  0  0  0  0  0  0  0  0  0  0  0
    6.9299  -11.8480   26.3780 C   0  0  0  0  0  0  0  0  0  0  0  0
    8.1951  -12.0700   26.8405 C   0  0  0  0  0  0  0  0  0  0  0  0
    8.6277  -13.3827   26.9486 C   0  0  0  0  0  0  0  0  0  0  0  0
   10.1640  -17.2527   26.1257 O   0  0  0  0  0  0  0  0  0  0  0  0
   10.8064  -17.1694   27.2302 O   0  0  0  0  0  0  0  0  0  0  0  0
  2  3  2  0
  2  1  1  0
  4  2  1  0
  5  6  1  0
  5  4  1  0
  7  8  1  0
  7  6  1  0
  8  9  1  6
 10  8  1  0
 10 17  1  0
 11 10  2  0
 13 12  1  0
 14 13  1  0
 15 14  1  0
 16 15  1  6
 16 17  1  0
 18 19  2  0
 18 16  1  0
 20 18  1  0
 21 20  1  0
 21 22  1  6
 23 22  1  0
 23 24  2  0
 24 25  1  0
 26 25  2  0
 27 26  1  0
 28 27  2  0
 28 23  1  0
 29 21  1  0
 30 29  2  0
 31 29  1  0
M  END
$$$$
