RMF.pdb
     RDKit          3D

 31 31  0  0  1  0  0  0  0  0999 V2000
    9.7552  -14.0270   19.3240 N   0  0  0  0  0  0  0  0  0  0  0  0
    8.7856  -13.5110   18.3897 C   0  0  0  0  0  0  0  0  0  0  0  0
    9.1255  -13.4333   17.1544 N   0  0  0  0  0  0  0  0  0  0  0  0
    7.4973  -13.0960   18.7697 N   0  0  0  0  0  0  0  0  0  0  0  0
    6.8838  -13.4561   20.0342 C   0  0  0  0  0  0  0  0  0  0  0  0
    7.0378  -14.9860   20.1415 C   0  0  0  0  0  0  0  0  0  0  0  0
    6.2779  -15.3824   21.3544 C   0  0  0  0  0  0  0  0  0  0  0  0
    6.2809  -16.8585   21.5595 C   0  0  2  0  0  0  0  0  0  0  0  0
    4.9437  -17.3692   21.1873 N   0  0  0  0  0  0  0  0  0  0  0  0
    6.4107  -17.1534   23.0311 C   0  0  0  0  0  0  0  0  0  0  0  0
    5.4154  -17.1040   23.8156 O   0  0  0  0  0  0  0  0  0  0  0  0
    8.5439  -13.0126   16.4241 C   0  0  0  0  0  0  0  0  0  0  0  0
    7.6837  -20.2122   29.4718 S   0  0  0  0  0  0  0  0  0  0  0  0
    7.0156  -19.9851   27.7838 C   0  0  0  0  0  0  0  0  0  0  0  0
    8.3365  -19.6960   26.6281 C   0  0  0  0  0  0  0  0  0  0  0  0
    7.9845  -19.2091   25.2828 C   0  0  1  0  0  0  0  0  0  0  0  0
    7.7224  -17.7669   25.0636 N   0  0  0  0  0  0  0  0  0  0  0  0
    7.6610  -17.4995   23.5967 C   0  0  0  0  0  0  0  0  0  0  0  0
    8.7434  -16.8114   25.5338 O   0  0  0  0  0  0  0  0  0  0  0  0
    9.8394  -16.6083   24.9141 N   0  0  0  0  0  0  0  0  0  0  0  0
    8.6194  -16.0178   26.7199 C   0  0  1  0  0  0  0  0  0  0  0  0
    9.7089  -15.1480   27.1962 C   0  0  0  0  0  0  0  0  0  0  0  0
    9.0148  -14.0871   28.0223 C   0  0  0  0  0  0  0  0  0  0  0  0
    7.9935  -13.3952   27.2314 C   0  0  0  0  0  0  0  0  0  0  0  0
    8.1945  -13.0697   25.9100 C   0  0  0  0  0  0  0  0  0  0  0  0
    7.2002  -12.4156   25.1785 C   0  0  0  0  0  0  0  0  0  0  0  0
    6.0075  -12.1095   25.8368 C   0  0  0  0  0  0  0  0  0  0  0  0
    5.7836  -12.4218   27.1469 C   0  0  0  0  0  0  0  0  0  0  0  0
    6.7918  -13.0706   27.8430 C   0  0  0  0  0  0  0  0  0  0  0  0
   10.6485  -15.8775   28.0388 O   0  0  0  0  0  0  0  0  0  0  0  0
   11.6531  -15.2298   28.4978 O   0  0  0  0  0  0  0  0  0  0  0  0
  2  3  2  0
  2  1  1  0
  4  2  1  0
  5  6  1  0
  5  4  1  0
  7  8  1  0
  7  6  1  0
  8  9  1  1
 10  8  1  0
 10 17  1  0
 11 10  2  0
 13 12  1  0
 14 13  1  0
 15 14  1  0
 16 15  1  1
 16 17  1  0
 18 19  2  0
 18 16  1  0
 20 18  1  0
 21 20  1  0
 21 22  1  1
 23 22  1  0
 23 24  2  0
 24 25  1  0
 26 25  2  0
 27 26  1  0
 28 27  2  0
 28 23  1  0
 29 21  1  0
 30 29  2  0
 31 29  1  0
M  END
$$$$
