HQV.pdb
     RDKit          3D

 27 27  0  0  1  0  0  0  0  0999 V2000
    6.7647  -17.6366   19.5766 N   0  0  0  0  0  0  0  0  0  0  0  0
    7.3026  -16.4548   20.2027 C   0  0  1  0  0  0  0  0  0  0  0  0
    6.6763  -15.2202   19.5741 C   0  0  0  0  0  0  0  0  0  0  0  0
    7.5523  -14.7229   18.4870 C   0  0  0  0  0  0  0  0  0  0  0  0
    8.7486  -15.2739   18.1177 C   0  0  0  0  0  0  0  0  0  0  0  0
    9.2297  -14.5440   17.1066 N   0  0  0  0  0  0  0  0  0  0  0  0
    8.3687  -13.5488   16.8297 C   0  0  0  0  0  0  0  0  0  0  0  0
    7.3208  -13.6473   17.6801 N   0  0  0  0  0  0  0  0  0  0  0  0
    6.9441  -16.4244   21.6442 C   0  0  0  0  0  0  0  0  0  0  0  0
    5.7194  -16.4190   21.9458 O   0  0  0  0  0  0  0  0  0  0  0  0
    8.4278  -20.2508   25.7497 N   0  0  0  0  0  0  0  0  0  0  0  0
    7.7713  -19.3047   26.5800 C   0  0  0  0  0  0  0  0  0  0  0  0
    7.5470  -19.6203   27.7718 O   0  0  0  0  0  0  0  0  0  0  0  0
    7.3545  -17.9796   26.0775 C   0  0  0  0  0  0  0  0  0  0  0  0
    7.7266  -17.8506   24.6396 C   0  0  0  0  0  0  0  0  0  0  0  0
    7.4660  -16.4942   24.0660 C   0  0  2  0  0  0  0  0  0  0  0  0
    7.8999  -16.4014   22.6837 N   0  0  0  0  0  0  0  0  0  0  0  0
    8.1331  -15.4125   24.8465 C   0  0  0  0  0  0  0  0  0  0  0  0
    9.3344  -15.1024   24.6419 O   0  0  0  0  0  0  0  0  0  0  0  0
    6.0439  -13.2154   27.8383 C   0  0  0  0  0  0  0  0  0  0  0  0
    7.1445  -12.5799   27.0135 C   0  0  2  0  0  0  0  0  0  0  0  0
    6.5572  -11.9031   25.8040 C   0  0  0  0  0  0  0  0  0  0  0  0
    8.1148  -13.6605   26.5914 C   0  0  2  0  0  0  0  0  0  0  0  0
    7.4252  -14.6973   25.8498 N   0  0  0  0  0  0  0  0  0  0  0  0
    8.7424  -14.2878   27.7916 C   0  0  0  0  0  0  0  0  0  0  0  0
    9.6006  -13.5235   28.5552 O   0  0  0  0  0  0  0  0  0  0  0  0
    8.5179  -15.4768   28.1271 O   0  0  0  0  0  0  0  0  0  0  0  0
  2  1  1  6
  3  2  1  0
  4  3  1  0
  5  4  2  0
  6  5  1  0
  7  6  1  0
  7  8  2  0
  8  4  1  0
  9  2  1  0
 10  9  2  0
 11 12  1  0
 12 14  1  0
 13 12  2  0
 14 15  1  0
 16 15  1  1
 16 17  1  0
 17  9  1  0
 18 16  1  0
 18 19  2  0
 21 20  1  6
 21 23  1  0
 22 21  1  0
 23 24  1  1
 24 18  1  0
 25 23  1  0
 26 25  1  0
 27 25  2  0
M  END
$$$$
