HQV.pdb
     RDKit          3D

 27 27  0  0  1  0  0  0  0  0999 V2000
    6.0714  -17.1364   19.8063 N   0  0  0  0  0  0  0  0  0  0  0  0
    6.9901  -16.2588   20.4874 C   0  0  1  0  0  0  0  0  0  0  0  0
    6.7481  -14.8266   20.0380 C   0  0  0  0  0  0  0  0  0  0  0  0
    7.4844  -14.5752   18.7766 C   0  0  0  0  0  0  0  0  0  0  0  0
    8.4019  -15.4183   18.2123 C   0  0  0  0  0  0  0  0  0  0  0  0
    8.8389  -14.8398   17.0895 N   0  0  0  0  0  0  0  0  0  0  0  0
    8.2213  -13.6557   16.9319 C   0  0  0  0  0  0  0  0  0  0  0  0
    7.3760  -13.4776   17.9734 N   0  0  0  0  0  0  0  0  0  0  0  0
    6.7455  -16.2901   21.9525 C   0  0  0  0  0  0  0  0  0  0  0  0
    5.5515  -16.2112   22.3514 O   0  0  0  0  0  0  0  0  0  0  0  0
    8.4213  -20.2897   25.9215 N   0  0  0  0  0  0  0  0  0  0  0  0
    7.7211  -19.3796   26.7563 C   0  0  0  0  0  0  0  0  0  0  0  0
    7.3904  -19.7640   27.9022 O   0  0  0  0  0  0  0  0  0  0  0  0
    7.3801  -18.0132   26.3103 C   0  0  0  0  0  0  0  0  0  0  0  0
    7.7876  -17.8356   24.8873 C   0  0  0  0  0  0  0  0  0  0  0  0
    7.4436  -16.4945   24.3218 C   0  0  2  0  0  0  0  0  0  0  0  0
    7.7761  -16.4031   22.9115 N   0  0  0  0  0  0  0  0  0  0  0  0
    8.1285  -15.3837   25.0438 C   0  0  0  0  0  0  0  0  0  0  0  0
    9.3220  -15.0772   24.7936 O   0  0  0  0  0  0  0  0  0  0  0  0
    6.0148  -12.9360   27.7767 C   0  0  0  0  0  0  0  0  0  0  0  0
    7.1711  -12.3994   26.9577 C   0  0  2  0  0  0  0  0  0  0  0  0
    6.6625  -11.8215   25.6642 C   0  0  0  0  0  0  0  0  0  0  0  0
    8.1340  -13.5331   26.6839 C   0  0  2  0  0  0  0  0  0  0  0  0
    7.4468  -14.6357   26.0414 N   0  0  0  0  0  0  0  0  0  0  0  0
    8.7192  -14.0331   27.9627 C   0  0  0  0  0  0  0  0  0  0  0  0
    8.3883  -15.3063   28.3791 O   0  0  0  0  0  0  0  0  0  0  0  0
    9.4955  -13.3410   28.6661 O   0  0  0  0  0  0  0  0  0  0  0  0
  2  1  1  6
  3  2  1  0
  4  3  1  0
  5  4  2  0
  6  5  1  0
  7  6  1  0
  7  8  2  0
  8  4  1  0
  9  2  1  0
 10  9  2  0
 11 12  1  0
 12 14  1  0
 13 12  2  0
 14 15  1  0
 16 15  1  1
 16 17  1  0
 17  9  1  0
 18 16  1  0
 18 19  2  0
 21 20  1  1
 21 23  1  0
 22 21  1  0
 23 24  1  1
 24 18  1  0
 25 23  1  0
 26 25  1  0
 27 25  2  0
M  END
$$$$
