HQV.pdb
     RDKit          3D

 27 27  0  0  1  0  0  0  0  0999 V2000
    6.2665  -17.5428   19.8432 N   0  0  0  0  0  0  0  0  0  0  0  0
    6.9530  -16.4941   20.5550 C   0  0  1  0  0  0  0  0  0  0  0  0
    6.4185  -15.1439   20.1046 C   0  0  0  0  0  0  0  0  0  0  0  0
    7.4415  -14.4599   19.2788 C   0  0  0  0  0  0  0  0  0  0  0  0
    8.6744  -14.9631   18.9660 C   0  0  0  0  0  0  0  0  0  0  0  0
    9.2973  -14.0538   18.2099 N   0  0  0  0  0  0  0  0  0  0  0  0
    8.4898  -12.9922   18.0384 C   0  0  0  0  0  0  0  0  0  0  0  0
    7.3323  -13.2304   18.6974 N   0  0  0  0  0  0  0  0  0  0  0  0
    6.6797  -16.5932   22.0120 C   0  0  0  0  0  0  0  0  0  0  0  0
    5.4752  -16.6460   22.3824 O   0  0  0  0  0  0  0  0  0  0  0  0
    7.8949  -20.5343   26.0411 N   0  0  0  0  0  0  0  0  0  0  0  0
    7.5029  -19.4924   26.9220 C   0  0  0  0  0  0  0  0  0  0  0  0
    7.3493  -19.7705   28.1342 O   0  0  0  0  0  0  0  0  0  0  0  0
    7.2762  -18.1117   26.4481 C   0  0  0  0  0  0  0  0  0  0  0  0
    7.5452  -18.0353   24.9838 C   0  0  0  0  0  0  0  0  0  0  0  0
    7.3377  -16.6741   24.4001 C   0  0  2  0  0  0  0  0  0  0  0  0
    7.6945  -16.6308   22.9935 N   0  0  0  0  0  0  0  0  0  0  0  0
    8.1166  -15.6255   25.1198 C   0  0  0  0  0  0  0  0  0  0  0  0
    9.3736  -15.6102   25.0948 O   0  0  0  0  0  0  0  0  0  0  0  0
    6.2001  -12.7668   27.5879 C   0  0  0  0  0  0  0  0  0  0  0  0
    7.4033  -12.3513   26.7661 C   0  0  2  0  0  0  0  0  0  0  0  0
    6.9535  -11.7318   25.4700 C   0  0  0  0  0  0  0  0  0  0  0  0
    8.2488  -13.5761   26.4972 C   0  0  2  0  0  0  0  0  0  0  0  0
    7.4555  -14.6076   25.8588 N   0  0  0  0  0  0  0  0  0  0  0  0
    8.7814  -14.1266   27.7782 C   0  0  0  0  0  0  0  0  0  0  0  0
    9.7859  -13.4322   28.4206 O   0  0  0  0  0  0  0  0  0  0  0  0
    8.3505  -15.1907   28.2868 O   0  0  0  0  0  0  0  0  0  0  0  0
  2  1  1  6
  3  2  1  0
  4  3  1  0
  5  4  2  0
  6  5  1  0
  7  6  1  0
  7  8  2  0
  8  4  1  0
  9  2  1  0
 10  9  2  0
 11 12  1  0
 12 14  1  0
 13 12  2  0
 14 15  1  0
 16 15  1  1
 16 17  1  0
 17  9  1  0
 18 16  1  0
 18 19  2  0
 21 20  1  1
 21 23  1  0
 22 21  1  0
 23 24  1  1
 24 18  1  0
 25 23  1  0
 26 25  1  0
 27 25  2  0
M  END
$$$$
