HQV.pdb
     RDKit          3D

 27 27  0  0  1  0  0  0  0  0999 V2000
    9.2295  -15.9758   20.0638 N   0  0  0  0  0  0  0  0  0  0  0  0
    8.1486  -15.0636   20.3421 C   0  0  1  0  0  0  0  0  0  0  0  0
    7.0430  -15.2626   19.3175 C   0  0  0  0  0  0  0  0  0  0  0  0
    7.4697  -14.6958   18.0163 C   0  0  0  0  0  0  0  0  0  0  0  0
    8.6924  -14.1409   17.7557 C   0  0  0  0  0  0  0  0  0  0  0  0
    8.6892  -13.7484   16.4780 N   0  0  0  0  0  0  0  0  0  0  0  0
    7.4976  -14.0412   15.9277 C   0  0  0  0  0  0  0  0  0  0  0  0
    6.7289  -14.6308   16.8724 N   0  0  0  0  0  0  0  0  0  0  0  0
    7.5527  -15.3578   21.6709 C   0  0  0  0  0  0  0  0  0  0  0  0
    6.5567  -14.6741   22.0334 O   0  0  0  0  0  0  0  0  0  0  0  0
    8.5265  -20.2190   25.5548 N   0  0  0  0  0  0  0  0  0  0  0  0
    7.6938  -19.3627   26.3221 C   0  0  0  0  0  0  0  0  0  0  0  0
    7.4197  -19.7027   27.4966 O   0  0  0  0  0  0  0  0  0  0  0  0
    7.1533  -18.1015   25.7748 C   0  0  0  0  0  0  0  0  0  0  0  0
    7.6472  -17.9091   24.3814 C   0  0  0  0  0  0  0  0  0  0  0  0
    7.4544  -16.5219   23.8567 C   0  0  2  0  0  0  0  0  0  0  0  0
    8.0432  -16.3573   22.5399 N   0  0  0  0  0  0  0  0  0  0  0  0
    8.0286  -15.4885   24.7659 C   0  0  0  0  0  0  0  0  0  0  0  0
    9.2710  -15.3260   24.8713 O   0  0  0  0  0  0  0  0  0  0  0  0
    6.2425  -11.9552   25.3850 C   0  0  0  0  0  0  0  0  0  0  0  0
    6.7546  -12.5467   26.6824 C   0  0  2  0  0  0  0  0  0  0  0  0
    7.3737  -11.4691   27.5316 C   0  0  0  0  0  0  0  0  0  0  0  0
    7.7783  -13.6108   26.3554 C   0  0  2  0  0  0  0  0  0  0  0  0
    7.1821  -14.6532   25.5437 N   0  0  0  0  0  0  0  0  0  0  0  0
    8.2914  -14.2361   27.6098 C   0  0  0  0  0  0  0  0  0  0  0  0
    9.2301  -13.5449   28.3481 O   0  0  0  0  0  0  0  0  0  0  0  0
    7.9016  -15.3596   28.0126 O   0  0  0  0  0  0  0  0  0  0  0  0
  2  1  1  6
  3  2  1  0
  4  3  1  0
  5  4  2  0
  6  5  1  0
  7  6  1  0
  7  8  2  0
  8  4  1  0
  9  2  1  0
 10  9  2  0
 11 12  1  0
 12 14  1  0
 13 12  2  0
 14 15  1  0
 16 15  1  1
 16 17  1  0
 17  9  1  0
 18 16  1  0
 18 19  2  0
 21 20  1  6
 21 23  1  0
 22 21  1  0
 23 24  1  6
 24 18  1  0
 25 23  1  0
 26 25  1  0
 27 25  2  0
M  END
$$$$
