HQV.pdb
     RDKit          3D

 27 27  0  0  1  0  0  0  0  0999 V2000
    7.0039  -17.3087   19.8198 N   0  0  0  0  0  0  0  0  0  0  0  0
    7.6929  -16.2161   20.4597 C   0  0  1  0  0  0  0  0  0  0  0  0
    7.0580  -14.9010   20.0361 C   0  0  0  0  0  0  0  0  0  0  0  0
    7.6745  -14.4422   18.7689 C   0  0  0  0  0  0  0  0  0  0  0  0
    8.6208  -15.1244   18.0547 C   0  0  0  0  0  0  0  0  0  0  0  0
    8.9206  -14.3866   16.9813 N   0  0  0  0  0  0  0  0  0  0  0  0
    8.1886  -13.2586   17.0007 C   0  0  0  0  0  0  0  0  0  0  0  0
    7.4090  -13.2793   18.1065 N   0  0  0  0  0  0  0  0  0  0  0  0
    7.5428  -16.3031   21.9352 C   0  0  0  0  0  0  0  0  0  0  0  0
    6.4135  -16.0344   22.4285 O   0  0  0  0  0  0  0  0  0  0  0  0
   10.6106  -19.9044   25.9705 N   0  0  0  0  0  0  0  0  0  0  0  0
    9.8857  -19.0494   26.8416 C   0  0  0  0  0  0  0  0  0  0  0  0
    9.9649  -19.2580   28.0746 O   0  0  0  0  0  0  0  0  0  0  0  0
    9.0547  -17.9385   26.3340 C   0  0  0  0  0  0  0  0  0  0  0  0
    9.1452  -17.8857   24.8468 C   0  0  0  0  0  0  0  0  0  0  0  0
    8.3463  -16.7818   24.2304 C   0  0  2  0  0  0  0  0  0  0  0  0
    8.5942  -16.6689   22.8043 N   0  0  0  0  0  0  0  0  0  0  0  0
    8.6220  -15.4611   24.8660 C   0  0  0  0  0  0  0  0  0  0  0  0
    9.6208  -14.7717   24.5375 O   0  0  0  0  0  0  0  0  0  0  0  0
    6.2442  -12.4493   25.4654 C   0  0  0  0  0  0  0  0  0  0  0  0
    6.8474  -12.8817   26.7862 C   0  0  2  0  0  0  0  0  0  0  0  0
    7.1790  -11.6743   27.6216 C   0  0  0  0  0  0  0  0  0  0  0  0
    8.0975  -13.6850   26.5046 C   0  0  2  0  0  0  0  0  0  0  0  0
    7.7578  -14.9417   25.8673 N   0  0  0  0  0  0  0  0  0  0  0  0
    8.8132  -13.9894   27.7785 C   0  0  0  0  0  0  0  0  0  0  0  0
    8.8886  -15.3050   28.1875 O   0  0  0  0  0  0  0  0  0  0  0  0
    9.3442  -13.0971   28.4844 O   0  0  0  0  0  0  0  0  0  0  0  0
  2  1  1  6
  3  2  1  0
  4  3  1  0
  5  4  2  0
  6  5  1  0
  7  6  1  0
  7  8  2  0
  8  4  1  0
  9  2  1  0
 10  9  2  0
 11 12  1  0
 12 14  1  0
 13 12  2  0
 14 15  1  0
 16 15  1  1
 16 17  1  0
 17  9  1  0
 18 16  1  0
 18 19  2  0
 21 20  1  6
 21 23  1  0
 22 21  1  0
 23 24  1  1
 24 18  1  0
 25 23  1  0
 26 25  1  0
 27 25  2  0
M  END
$$$$
