HQV.pdb
     RDKit          3D

 27 27  0  0  1  0  0  0  0  0999 V2000
    8.3680  -17.4287   19.3229 N   0  0  0  0  0  0  0  0  0  0  0  0
    8.1022  -16.1765   19.9855 C   0  0  1  0  0  0  0  0  0  0  0  0
    7.0110  -15.4294   19.2352 C   0  0  0  0  0  0  0  0  0  0  0  0
    7.6031  -14.7357   18.0670 C   0  0  0  0  0  0  0  0  0  0  0  0
    8.9039  -14.8413   17.6574 C   0  0  0  0  0  0  0  0  0  0  0  0
    9.0463  -14.0694   16.5756 N   0  0  0  0  0  0  0  0  0  0  0  0
    7.8705  -13.4810   16.2934 C   0  0  0  0  0  0  0  0  0  0  0  0
    6.9636  -13.8859   17.2123 N   0  0  0  0  0  0  0  0  0  0  0  0
    7.5847  -16.4167   21.3573 C   0  0  0  0  0  0  0  0  0  0  0  0
    6.7810  -17.3745   21.5235 O   0  0  0  0  0  0  0  0  0  0  0  0
   10.8767  -19.4725   23.5753 N   0  0  0  0  0  0  0  0  0  0  0  0
   10.3338  -19.1433   24.8451 C   0  0  0  0  0  0  0  0  0  0  0  0
   10.7134  -19.8052   25.8391 O   0  0  0  0  0  0  0  0  0  0  0  0
    9.3484  -18.0562   25.0162 C   0  0  0  0  0  0  0  0  0  0  0  0
    9.0868  -17.4069   23.6999 C   0  0  0  0  0  0  0  0  0  0  0  0
    8.1296  -16.2599   23.7700 C   0  0  2  0  0  0  0  0  0  0  0  0
    7.9460  -15.6315   22.4742 N   0  0  0  0  0  0  0  0  0  0  0  0
    8.5651  -15.2188   24.7450 C   0  0  0  0  0  0  0  0  0  0  0  0
    9.7817  -15.0250   24.9969 O   0  0  0  0  0  0  0  0  0  0  0  0
    6.0518  -12.1943   25.7173 C   0  0  0  0  0  0  0  0  0  0  0  0
    6.9170  -12.6028   26.8921 C   0  0  2  0  0  0  0  0  0  0  0  0
    7.4213  -11.3802   27.6109 C   0  0  0  0  0  0  0  0  0  0  0  0
    8.0769  -13.4231   26.3735 C   0  0  2  0  0  0  0  0  0  0  0  0
    7.6110  -14.4113   25.4210 N   0  0  0  0  0  0  0  0  0  0  0  0
    8.7443  -14.1418   27.4986 C   0  0  0  0  0  0  0  0  0  0  0  0
    9.6264  -13.4376   28.2923 O   0  0  0  0  0  0  0  0  0  0  0  0
    8.5325  -15.3546   27.7452 O   0  0  0  0  0  0  0  0  0  0  0  0
  2  1  1  6
  3  2  1  0
  4  3  1  0
  5  4  2  0
  6  5  1  0
  7  6  1  0
  7  8  2  0
  8  4  1  0
  9  2  1  0
 10  9  2  0
 11 12  1  0
 12 14  1  0
 13 12  2  0
 14 15  1  0
 16 15  1  6
 16 17  1  0
 17  9  1  0
 18 16  1  0
 18 19  2  0
 21 20  1  6
 21 23  1  0
 22 21  1  0
 23 24  1  6
 24 18  1  0
 25 23  1  0
 26 25  1  0
 27 25  2  0
M  END
$$$$
