HQV.pdb
     RDKit          3D

 27 27  0  0  1  0  0  0  0  0999 V2000
    6.5986  -17.2421   19.9160 N   0  0  0  0  0  0  0  0  0  0  0  0
    7.2426  -16.1952   20.6692 C   0  0  1  0  0  0  0  0  0  0  0  0
    6.6466  -14.8520   20.2790 C   0  0  0  0  0  0  0  0  0  0  0  0
    7.4033  -14.2913   19.1346 C   0  0  0  0  0  0  0  0  0  0  0  0
    8.5083  -14.8575   18.5608 C   0  0  0  0  0  0  0  0  0  0  0  0
    8.8972  -14.0551   17.5651 N   0  0  0  0  0  0  0  0  0  0  0  0
    8.0669  -12.9994   17.4969 C   0  0  0  0  0  0  0  0  0  0  0  0
    7.1328  -13.1327   18.4668 N   0  0  0  0  0  0  0  0  0  0  0  0
    6.9827  -16.3681   22.1217 C   0  0  0  0  0  0  0  0  0  0  0  0
    5.7970  -16.2269   22.5281 O   0  0  0  0  0  0  0  0  0  0  0  0
    7.2924  -19.9892   26.9167 N   0  0  0  0  0  0  0  0  0  0  0  0
    6.6833  -20.0711   25.6370 C   0  0  0  0  0  0  0  0  0  0  0  0
    5.8251  -20.9643   25.4476 O   0  0  0  0  0  0  0  0  0  0  0  0
    7.0336  -19.1419   24.5434 C   0  0  0  0  0  0  0  0  0  0  0  0
    7.9314  -18.0719   25.0649 C   0  0  0  0  0  0  0  0  0  0  0  0
    7.6700  -16.7221   24.4765 C   0  0  2  0  0  0  0  0  0  0  0  0
    7.9902  -16.6801   23.0610 N   0  0  0  0  0  0  0  0  0  0  0  0
    8.4360  -15.6456   25.1684 C   0  0  0  0  0  0  0  0  0  0  0  0
    9.6482  -15.4342   24.9097 O   0  0  0  0  0  0  0  0  0  0  0  0
    6.5351  -12.7087   27.4829 C   0  0  0  0  0  0  0  0  0  0  0  0
    7.9233  -12.5159   26.9073 C   0  0  2  0  0  0  0  0  0  0  0  0
    7.8310  -11.9337   25.5223 C   0  0  0  0  0  0  0  0  0  0  0  0
    8.6186  -13.8584   26.8675 C   0  0  2  0  0  0  0  0  0  0  0  0
    7.8133  -14.8234   26.1459 N   0  0  0  0  0  0  0  0  0  0  0  0
    8.8278  -14.3723   28.2531 C   0  0  0  0  0  0  0  0  0  0  0  0
    9.7569  -13.7381   29.0522 O   0  0  0  0  0  0  0  0  0  0  0  0
    8.1929  -15.3534   28.7123 O   0  0  0  0  0  0  0  0  0  0  0  0
  2  1  1  6
  3  2  1  0
  4  3  1  0
  5  4  2  0
  6  5  1  0
  7  6  1  0
  7  8  2  0
  8  4  1  0
  9  2  1  0
 10  9  2  0
 11 12  1  0
 12 14  1  0
 13 12  2  0
 14 15  1  0
 16 15  1  1
 16 17  1  0
 17  9  1  0
 18 16  1  0
 18 19  2  0
 21 20  1  6
 21 23  1  0
 22 21  1  0
 23 24  1  6
 24 18  1  0
 25 23  1  0
 26 25  1  0
 27 25  2  0
M  END
$$$$
