HQV.pdb
     RDKit          3D

 27 27  0  0  1  0  0  0  0  0999 V2000
    7.2561  -18.0972   19.9588 N   0  0  0  0  0  0  0  0  0  0  0  0
    7.4077  -16.7715   20.5040 C   0  0  1  0  0  0  0  0  0  0  0  0
    6.5946  -15.7887   19.6766 C   0  0  0  0  0  0  0  0  0  0  0  0
    7.5095  -14.8366   19.0036 C   0  0  0  0  0  0  0  0  0  0  0  0
    8.8756  -14.8740   19.0613 C   0  0  0  0  0  0  0  0  0  0  0  0
    9.3347  -13.8544   18.3290 N   0  0  0  0  0  0  0  0  0  0  0  0
    8.2946  -13.1765   17.8122 C   0  0  0  0  0  0  0  0  0  0  0  0
    7.1531  -13.7757   18.2231 N   0  0  0  0  0  0  0  0  0  0  0  0
    6.8631  -16.7148   21.8851 C   0  0  0  0  0  0  0  0  0  0  0  0
    5.6096  -16.6840   22.0223 O   0  0  0  0  0  0  0  0  0  0  0  0
    7.1072  -20.3209   26.3682 N   0  0  0  0  0  0  0  0  0  0  0  0
    8.3557  -19.7398   26.0233 C   0  0  0  0  0  0  0  0  0  0  0  0
    9.4009  -20.3481   26.3513 O   0  0  0  0  0  0  0  0  0  0  0  0
    8.4470  -18.4558   25.2985 C   0  0  0  0  0  0  0  0  0  0  0  0
    7.0776  -17.9122   25.0702 C   0  0  0  0  0  0  0  0  0  0  0  0
    7.0588  -16.6000   24.3531 C   0  0  2  0  0  0  0  0  0  0  0  0
    7.6738  -16.6939   23.0413 N   0  0  0  0  0  0  0  0  0  0  0  0
    7.7468  -15.5244   25.1239 C   0  0  0  0  0  0  0  0  0  0  0  0
    8.9180  -15.1635   24.8425 O   0  0  0  0  0  0  0  0  0  0  0  0
    6.1242  -12.1832   25.8264 C   0  0  0  0  0  0  0  0  0  0  0  0
    6.7272  -12.6552   27.1337 C   0  0  2  0  0  0  0  0  0  0  0  0
    7.3884  -11.5033   27.8422 C   0  0  0  0  0  0  0  0  0  0  0  0
    7.7395  -13.7381   26.8338 C   0  0  2  0  0  0  0  0  0  0  0  0
    7.0938  -14.8732   26.2049 N   0  0  0  0  0  0  0  0  0  0  0  0
    8.3800  -14.2098   28.0967 C   0  0  0  0  0  0  0  0  0  0  0  0
    9.2417  -13.3540   28.7518 O   0  0  0  0  0  0  0  0  0  0  0  0
    8.1634  -15.3486   28.5791 O   0  0  0  0  0  0  0  0  0  0  0  0
  2  1  1  6
  3  2  1  0
  4  3  1  0
  5  4  2  0
  6  5  1  0
  7  6  1  0
  7  8  2  0
  8  4  1  0
  9  2  1  0
 10  9  2  0
 11 12  1  0
 12 14  1  0
 13 12  2  0
 14 15  1  0
 16 15  1  1
 16 17  1  0
 17  9  1  0
 18 16  1  0
 18 19  2  0
 21 20  1  6
 21 23  1  0
 22 21  1  0
 23 24  1  1
 24 18  1  0
 25 23  1  0
 26 25  1  0
 27 25  2  0
M  END
$$$$
