HQV.pdb
     RDKit          3D

 27 27  0  0  1  0  0  0  0  0999 V2000
    6.0725  -17.0434   19.6793 N   0  0  0  0  0  0  0  0  0  0  0  0
    6.9765  -16.1432   20.3504 C   0  0  1  0  0  0  0  0  0  0  0  0
    6.7234  -14.7226   19.8711 C   0  0  0  0  0  0  0  0  0  0  0  0
    7.4531  -14.4939   18.6016 C   0  0  0  0  0  0  0  0  0  0  0  0
    8.2307  -15.4159   17.9565 C   0  0  0  0  0  0  0  0  0  0  0  0
    8.7128  -14.8320   16.8552 N   0  0  0  0  0  0  0  0  0  0  0  0
    8.2597  -13.5675   16.7897 C   0  0  0  0  0  0  0  0  0  0  0  0
    7.4751  -13.3430   17.8690 N   0  0  0  0  0  0  0  0  0  0  0  0
    6.7203  -16.1485   21.8138 C   0  0  0  0  0  0  0  0  0  0  0  0
    5.5431  -15.9216   22.2057 O   0  0  0  0  0  0  0  0  0  0  0  0
    8.6951  -20.0844   25.9273 N   0  0  0  0  0  0  0  0  0  0  0  0
    7.7549  -19.3149   26.6616 C   0  0  0  0  0  0  0  0  0  0  0  0
    7.4474  -19.7005   27.8136 O   0  0  0  0  0  0  0  0  0  0  0  0
    7.1424  -18.0908   26.1062 C   0  0  0  0  0  0  0  0  0  0  0  0
    7.6208  -17.8818   24.7097 C   0  0  0  0  0  0  0  0  0  0  0  0
    7.3626  -16.5071   24.1805 C   0  0  2  0  0  0  0  0  0  0  0  0
    7.7223  -16.3931   22.7786 N   0  0  0  0  0  0  0  0  0  0  0  0
    8.0978  -15.4592   24.9458 C   0  0  0  0  0  0  0  0  0  0  0  0
    9.2669  -15.1183   24.6326 O   0  0  0  0  0  0  0  0  0  0  0  0
    6.1870  -13.3159   28.0551 C   0  0  0  0  0  0  0  0  0  0  0  0
    7.2285  -12.6647   27.1682 C   0  0  2  0  0  0  0  0  0  0  0  0
    6.5643  -12.0156   25.9836 C   0  0  0  0  0  0  0  0  0  0  0  0
    8.2012  -13.7274   26.7079 C   0  0  2  0  0  0  0  0  0  0  0  0
    7.4937  -14.8124   26.0576 N   0  0  0  0  0  0  0  0  0  0  0  0
    8.9413  -14.2901   27.8755 C   0  0  0  0  0  0  0  0  0  0  0  0
    9.8368  -13.4745   28.5365 O   0  0  0  0  0  0  0  0  0  0  0  0
    8.7782  -15.4697   28.2734 O   0  0  0  0  0  0  0  0  0  0  0  0
  2  1  1  6
  3  2  1  0
  4  3  1  0
  5  4  2  0
  6  5  1  0
  7  6  1  0
  7  8  2  0
  8  4  1  0
  9  2  1  0
 10  9  2  0
 11 12  1  0
 12 14  1  0
 13 12  2  0
 14 15  1  0
 16 15  1  1
 16 17  1  0
 17  9  1  0
 18 16  1  0
 18 19  2  0
 21 20  1  1
 21 23  1  0
 22 21  1  0
 23 24  1  1
 24 18  1  0
 25 23  1  0
 26 25  1  0
 27 25  2  0
M  END
$$$$
