HQV.pdb
     RDKit          3D

 27 27  0  0  1  0  0  0  0  0999 V2000
    7.9439  -17.3774   19.1696 N   0  0  0  0  0  0  0  0  0  0  0  0
    8.2927  -16.1729   19.8804 C   0  0  1  0  0  0  0  0  0  0  0  0
    7.3760  -15.0427   19.4398 C   0  0  0  0  0  0  0  0  0  0  0  0
    7.8899  -14.4544   18.1804 C   0  0  0  0  0  0  0  0  0  0  0  0
    8.9749  -14.9044   17.4796 C   0  0  0  0  0  0  0  0  0  0  0  0
    9.1149  -14.1159   16.4095 N   0  0  0  0  0  0  0  0  0  0  0  0
    8.1473  -13.1819   16.4179 C   0  0  0  0  0  0  0  0  0  0  0  0
    7.3779  -13.3799   17.5132 N   0  0  0  0  0  0  0  0  0  0  0  0
    8.0743  -16.3513   21.3390 C   0  0  0  0  0  0  0  0  0  0  0  0
    6.9369  -16.7412   21.7202 O   0  0  0  0  0  0  0  0  0  0  0  0
   11.5249  -19.4381   25.0354 N   0  0  0  0  0  0  0  0  0  0  0  0
   10.5486  -18.9704   25.9538 C   0  0  0  0  0  0  0  0  0  0  0  0
   10.5600  -19.4375   27.1165 O   0  0  0  0  0  0  0  0  0  0  0  0
    9.5376  -17.9625   25.5743 C   0  0  0  0  0  0  0  0  0  0  0  0
    9.7426  -17.5589   24.1539 C   0  0  0  0  0  0  0  0  0  0  0  0
    8.8294  -16.4664   23.6968 C   0  0  2  0  0  0  0  0  0  0  0  0
    9.0698  -16.1077   22.3107 N   0  0  0  0  0  0  0  0  0  0  0  0
    8.9542  -15.2380   24.5334 C   0  0  0  0  0  0  0  0  0  0  0  0
    9.9762  -14.5077   24.4767 O   0  0  0  0  0  0  0  0  0  0  0  0
    6.2375  -12.5182   25.1652 C   0  0  0  0  0  0  0  0  0  0  0  0
    6.7794  -12.9924   26.4983 C   0  0  2  0  0  0  0  0  0  0  0  0
    6.9638  -11.8214   27.4260 C   0  0  0  0  0  0  0  0  0  0  0  0
    8.1014  -13.6875   26.2606 C   0  0  2  0  0  0  0  0  0  0  0  0
    7.9147  -14.8561   25.4238 N   0  0  0  0  0  0  0  0  0  0  0  0
    8.6896  -14.1347   27.5575 C   0  0  0  0  0  0  0  0  0  0  0  0
    9.3710  -13.2085   28.3201 O   0  0  0  0  0  0  0  0  0  0  0  0
    8.5865  -15.3145   27.9744 O   0  0  0  0  0  0  0  0  0  0  0  0
  2  1  1  6
  3  2  1  0
  4  3  1  0
  5  4  2  0
  6  5  1  0
  7  6  1  0
  7  8  2  0
  8  4  1  0
  9  2  1  0
 10  9  2  0
 11 12  1  0
 12 14  1  0
 13 12  2  0
 14 15  1  0
 16 15  1  1
 16 17  1  0
 17  9  1  0
 18 16  1  0
 18 19  2  0
 21 20  1  6
 21 23  1  0
 22 21  1  0
 23 24  1  6
 24 18  1  0
 25 23  1  0
 26 25  1  0
 27 25  2  0
M  END
$$$$
