HQV.pdb
     RDKit          3D

 27 27  0  0  1  0  0  0  0  0999 V2000
    8.1322  -18.2128   19.7405 N   0  0  0  0  0  0  0  0  0  0  0  0
    8.1292  -16.8651   20.2520 C   0  0  1  0  0  0  0  0  0  0  0  0
    7.1857  -16.0109   19.4202 C   0  0  0  0  0  0  0  0  0  0  0  0
    7.7343  -14.6388   19.3068 C   0  0  0  0  0  0  0  0  0  0  0  0
    8.8940  -14.1983   19.8829 C   0  0  0  0  0  0  0  0  0  0  0  0
    9.0429  -12.9126   19.5493 N   0  0  0  0  0  0  0  0  0  0  0  0
    8.0083  -12.5322   18.7790 C   0  0  0  0  0  0  0  0  0  0  0  0
    7.1864  -13.5952   18.6196 N   0  0  0  0  0  0  0  0  0  0  0  0
    7.6075  -16.8408   21.6429 C   0  0  0  0  0  0  0  0  0  0  0  0
    6.7166  -17.6786   21.9517 O   0  0  0  0  0  0  0  0  0  0  0  0
    9.6228  -19.9840   25.0327 N   0  0  0  0  0  0  0  0  0  0  0  0
    9.1348  -19.1734   26.0910 C   0  0  0  0  0  0  0  0  0  0  0  0
    9.3032  -19.5728   27.2667 O   0  0  0  0  0  0  0  0  0  0  0  0
    8.4449  -17.8915   25.8398 C   0  0  0  0  0  0  0  0  0  0  0  0
    8.5407  -17.5474   24.3924 C   0  0  0  0  0  0  0  0  0  0  0  0
    7.8877  -16.2507   24.0337 C   0  0  2  0  0  0  0  0  0  0  0  0
    8.0570  -15.9332   22.6271 N   0  0  0  0  0  0  0  0  0  0  0  0
    8.4091  -15.1119   24.8434 C   0  0  0  0  0  0  0  0  0  0  0  0
    9.6017  -14.7270   24.7408 O   0  0  0  0  0  0  0  0  0  0  0  0
    5.8525  -12.8826   27.4057 C   0  0  0  0  0  0  0  0  0  0  0  0
    7.0017  -12.2372   26.6584 C   0  0  2  0  0  0  0  0  0  0  0  0
    6.5257  -11.7198   25.3275 C   0  0  0  0  0  0  0  0  0  0  0  0
    8.0888  -13.2702   26.4621 C   0  0  2  0  0  0  0  0  0  0  0  0
    7.5671  -14.4255   25.7594 N   0  0  0  0  0  0  0  0  0  0  0  0
    8.6107  -13.7276   27.7835 C   0  0  0  0  0  0  0  0  0  0  0  0
    8.4156  -15.0454   28.1427 O   0  0  0  0  0  0  0  0  0  0  0  0
    9.2159  -12.9609   28.5724 O   0  0  0  0  0  0  0  0  0  0  0  0
  2  1  1  6
  3  2  1  0
  4  3  1  0
  5  4  2  0
  6  5  1  0
  7  6  1  0
  7  8  2  0
  8  4  1  0
  9  2  1  0
 10  9  2  0
 11 12  1  0
 12 14  1  0
 13 12  2  0
 14 15  1  0
 16 15  1  1
 16 17  1  0
 17  9  1  0
 18 16  1  0
 18 19  2  0
 21 20  1  6
 21 23  1  0
 22 21  1  0
 23 24  1  1
 24 18  1  0
 25 23  1  0
 26 25  1  0
 27 25  2  0
M  END
$$$$
