HQV.pdb
     RDKit          3D

 27 27  0  0  1  0  0  0  0  0999 V2000
   13.4712  -17.2240   20.3049 N   0  0  0  0  0  0  0  0  0  0  0  0
   12.3431  -17.6609   21.0887 C   0  0  1  0  0  0  0  0  0  0  0  0
   12.8136  -18.6485   22.1447 C   0  0  0  0  0  0  0  0  0  0  0  0
   12.9955  -19.9825   21.5251 C   0  0  0  0  0  0  0  0  0  0  0  0
   12.7520  -20.2880   20.2142 C   0  0  0  0  0  0  0  0  0  0  0  0
   13.0345  -21.5835   20.0465 N   0  0  0  0  0  0  0  0  0  0  0  0
   13.4492  -22.1015   21.2162 C   0  0  0  0  0  0  0  0  0  0  0  0
   13.4302  -21.1176   22.1449 N   0  0  0  0  0  0  0  0  0  0  0  0
   11.7448  -16.5135   21.8185 C   0  0  0  0  0  0  0  0  0  0  0  0
   12.5231  -15.6173   22.2452 O   0  0  0  0  0  0  0  0  0  0  0  0
    6.4920  -12.6995   21.1460 N   0  0  0  0  0  0  0  0  0  0  0  0
    6.9976  -13.9599   20.7322 C   0  0  0  0  0  0  0  0  0  0  0  0
    6.2295  -14.7280   20.1074 O   0  0  0  0  0  0  0  0  0  0  0  0
    8.3854  -14.3776   21.0177 C   0  0  0  0  0  0  0  0  0  0  0  0
    8.4821  -14.8633   22.4239 C   0  0  0  0  0  0  0  0  0  0  0  0
    9.8649  -15.2580   22.8346 C   0  0  2  0  0  0  0  0  0  0  0  0
   10.3590  -16.3789   22.0553 N   0  0  0  0  0  0  0  0  0  0  0  0
    9.9457  -15.6130   24.2808 C   0  0  0  0  0  0  0  0  0  0  0  0
   10.2414  -16.7767   24.6542 O   0  0  0  0  0  0  0  0  0  0  0  0
   10.5878  -12.7960   27.1894 C   0  0  0  0  0  0  0  0  0  0  0  0
    9.5564  -13.8364   27.5759 C   0  0  2  0  0  0  0  0  0  0  0  0
    9.7371  -14.2311   29.0172 C   0  0  0  0  0  0  0  0  0  0  0  0
    9.7264  -15.0402   26.6763 C   0  0  2  0  0  0  0  0  0  0  0  0
    9.6889  -14.6398   25.2838 N   0  0  0  0  0  0  0  0  0  0  0  0
    8.6223  -16.0174   26.9079 C   0  0  0  0  0  0  0  0  0  0  0  0
    8.8572  -17.0802   27.7560 O   0  0  0  0  0  0  0  0  0  0  0  0
    7.4969  -15.9064   26.3622 O   0  0  0  0  0  0  0  0  0  0  0  0
  2  1  1  1
  3  2  1  0
  4  3  1  0
  5  4  2  0
  6  5  1  0
  7  6  1  0
  7  8  2  0
  8  4  1  0
  9  2  1  0
 10  9  2  0
 11 12  1  0
 12 14  1  0
 13 12  2  0
 14 15  1  0
 16 15  1  6
 16 17  1  0
 17  9  1  0
 18 16  1  0
 18 19  2  0
 21 20  1  6
 21 23  1  0
 22 21  1  0
 23 24  1  6
 24 18  1  0
 25 23  1  0
 26 25  1  0
 27 25  2  0
M  END
$$$$
