HQV.pdb
     RDKit          3D

 27 27  0  0  1  0  0  0  0  0999 V2000
   11.1999  -17.3042   19.7110 N   0  0  0  0  0  0  0  0  0  0  0  0
   11.2200  -16.1505   20.5749 C   0  0  1  0  0  0  0  0  0  0  0  0
   11.1993  -14.8863   19.7304 C   0  0  0  0  0  0  0  0  0  0  0  0
   12.5214  -14.7026   19.0865 C   0  0  0  0  0  0  0  0  0  0  0  0
   13.6592  -14.2806   19.7176 C   0  0  0  0  0  0  0  0  0  0  0  0
   14.6333  -14.2433   18.8031 N   0  0  0  0  0  0  0  0  0  0  0  0
   14.1392  -14.6303   17.6137 C   0  0  0  0  0  0  0  0  0  0  0  0
   12.8271  -14.9192   17.7745 N   0  0  0  0  0  0  0  0  0  0  0  0
    9.9984  -16.1155   21.4198 C   0  0  0  0  0  0  0  0  0  0  0  0
    8.9092  -16.4737   20.8941 O   0  0  0  0  0  0  0  0  0  0  0  0
    9.7883  -19.8431   22.4268 N   0  0  0  0  0  0  0  0  0  0  0  0
    9.2743  -19.5316   23.7129 C   0  0  0  0  0  0  0  0  0  0  0  0
    8.7143  -20.4454   24.3622 O   0  0  0  0  0  0  0  0  0  0  0  0
    9.3840  -18.1769   24.2917 C   0  0  0  0  0  0  0  0  0  0  0  0
    8.3670  -17.2830   23.6678 C   0  0  0  0  0  0  0  0  0  0  0  0
    8.7954  -15.8534   23.5708 C   0  0  2  0  0  0  0  0  0  0  0  0
    9.9979  -15.7044   22.7709 N   0  0  0  0  0  0  0  0  0  0  0  0
    9.0377  -15.2435   24.9100 C   0  0  0  0  0  0  0  0  0  0  0  0
   10.1042  -15.4532   25.5422 O   0  0  0  0  0  0  0  0  0  0  0  0
    6.1227  -12.8548   26.8979 C   0  0  0  0  0  0  0  0  0  0  0  0
    7.5277  -12.3337   26.6742 C   0  0  2  0  0  0  0  0  0  0  0  0
    7.5813  -11.5227   25.4072 C   0  0  0  0  0  0  0  0  0  0  0  0
    8.4698  -13.5133   26.5829 C   0  0  2  0  0  0  0  0  0  0  0  0
    8.0636  -14.4028   25.5131 N   0  0  0  0  0  0  0  0  0  0  0  0
    8.4541  -14.2861   27.8598 C   0  0  0  0  0  0  0  0  0  0  0  0
    9.0614  -13.7306   28.9674 O   0  0  0  0  0  0  0  0  0  0  0  0
    7.9122  -15.4142   27.9596 O   0  0  0  0  0  0  0  0  0  0  0  0
  2  1  1  6
  3  2  1  0
  4  3  1  0
  5  4  2  0
  6  5  1  0
  7  6  1  0
  7  8  2  0
  8  4  1  0
  9  2  1  0
 10  9  2  0
 11 12  1  0
 12 14  1  0
 13 12  2  0
 14 15  1  0
 16 15  1  1
 16 17  1  0
 17  9  1  0
 18 16  1  0
 18 19  2  0
 21 20  1  6
 21 23  1  0
 22 21  1  0
 23 24  1  6
 24 18  1  0
 25 23  1  0
 26 25  1  0
 27 25  2  0
M  END
$$$$
