GAN.pdb
     RDKit          3D

 18 17  0  0  1  0  0  0  0  0999 V2000
    7.5554  -17.5227   16.3439 N   0  0  0  0  0  0  0  0  0  0  0  0
    6.9467  -16.6990   17.3354 C   0  0  0  0  0  0  0  0  0  0  0  0
    7.7925  -15.5801   17.7892 C   0  0  0  0  0  0  0  0  0  0  0  0
    8.9973  -15.5782   17.4255 O   0  0  0  0  0  0  0  0  0  0  0  0
    7.3020  -12.4140   19.7465 C   0  0  0  0  0  0  0  0  0  0  0  0
    8.1389  -13.4800   19.0237 C   0  0  2  0  0  0  0  0  0  0  0  0
    7.2644  -14.5466   18.6050 N   0  0  0  0  0  0  0  0  0  0  0  0
    9.1703  -13.9100   19.9657 C   0  0  0  0  0  0  0  0  0  0  0  0
   10.0680  -13.1046   20.3101 O   0  0  0  0  0  0  0  0  0  0  0  0
   10.5794  -15.7276   25.1394 N   0  0  0  0  0  0  0  0  0  0  0  0
   10.9554  -15.5705   23.7671 C   0  0  0  0  0  0  0  0  0  0  0  0
   12.1379  -15.8493   23.4529 O   0  0  0  0  0  0  0  0  0  0  0  0
    9.9387  -15.0918   22.7992 C   0  0  0  0  0  0  0  0  0  0  0  0
   10.1059  -15.7169   21.4460 C   0  0  2  0  0  0  0  0  0  0  0  0
    9.1411  -15.2311   20.4765 N   0  0  0  0  0  0  0  0  0  0  0  0
   10.0241  -17.1986   21.5142 C   0  0  0  0  0  0  0  0  0  0  0  0
    8.9644  -17.8538   22.1393 O   0  0  0  0  0  0  0  0  0  0  0  0
   10.9124  -17.9309   21.0079 O   0  0  0  0  0  0  0  0  0  0  0  0
  2  1  1  0
  3  2  1  0
  4  3  2  0
  6  5  1  1
  6  7  1  0
  7  3  1  0
  8  9  2  0
  8  6  1  0
 11 10  1  0
 11 13  1  0
 12 11  2  0
 14 13  1  1
 14 15  1  0
 15  8  1  0
 16 14  1  0
 17 16  1  0
 18 16  2  0
M  END
$$$$
