GAN.pdb
     RDKit          3D

 18 17  0  0  1  0  0  0  0  0999 V2000
    8.2727  -15.1750   14.1934 N   0  0  0  0  0  0  0  0  0  0  0  0
    7.5718  -14.9499   15.4141 C   0  0  0  0  0  0  0  0  0  0  0  0
    8.4309  -14.5094   16.5281 C   0  0  0  0  0  0  0  0  0  0  0  0
    9.6702  -14.6981   16.4155 O   0  0  0  0  0  0  0  0  0  0  0  0
    7.9437  -12.7340   19.8024 C   0  0  0  0  0  0  0  0  0  0  0  0
    8.7689  -13.4520   18.7241 C   0  0  2  0  0  0  0  0  0  0  0  0
    7.8779  -13.8962   17.6817 N   0  0  0  0  0  0  0  0  0  0  0  0
    9.4699  -14.5454   19.3945 C   0  0  0  0  0  0  0  0  0  0  0  0
    8.9857  -15.7019   19.3628 O   0  0  0  0  0  0  0  0  0  0  0  0
   14.1665  -13.7326   19.0531 N   0  0  0  0  0  0  0  0  0  0  0  0
   13.5597  -14.9556   19.4833 C   0  0  0  0  0  0  0  0  0  0  0  0
   13.6044  -15.9340   18.6989 O   0  0  0  0  0  0  0  0  0  0  0  0
   12.9168  -15.0016   20.8192 C   0  0  0  0  0  0  0  0  0  0  0  0
   11.4539  -15.3215   20.7333 C   0  0  2  0  0  0  0  0  0  0  0  0
   10.6867  -14.2827   20.0706 N   0  0  0  0  0  0  0  0  0  0  0  0
   10.8703  -15.5770   22.0753 C   0  0  0  0  0  0  0  0  0  0  0  0
   11.2748  -16.6509   22.8666 O   0  0  0  0  0  0  0  0  0  0  0  0
    9.9805  -14.8313   22.5589 O   0  0  0  0  0  0  0  0  0  0  0  0
  2  1  1  0
  3  2  1  0
  4  3  2  0
  6  5  1  1
  6  7  1  0
  7  3  1  0
  8  9  2  0
  8  6  1  0
 11 10  1  0
 11 13  1  0
 12 11  2  0
 14 13  1  1
 14 15  1  0
 15  8  1  0
 16 14  1  0
 17 16  1  0
 18 16  2  0
M  END
$$$$
