GAN.pdb
     RDKit          3D

 18 17  0  0  1  0  0  0  0  0999 V2000
    7.9567  -19.2695   21.2193 N   0  0  0  0  0  0  0  0  0  0  0  0
    7.2657  -18.2754   21.9720 C   0  0  0  0  0  0  0  0  0  0  0  0
    8.0045  -17.0076   22.1141 C   0  0  0  0  0  0  0  0  0  0  0  0
    9.1734  -16.9615   21.6500 O   0  0  0  0  0  0  0  0  0  0  0  0
    7.2078  -13.4954   23.0694 C   0  0  0  0  0  0  0  0  0  0  0  0
    8.1784  -14.6644   22.8446 C   0  0  2  0  0  0  0  0  0  0  0  0
    7.4164  -15.8844   22.7505 N   0  0  0  0  0  0  0  0  0  0  0  0
    9.1157  -14.6497   23.9660 C   0  0  0  0  0  0  0  0  0  0  0  0
    9.9302  -13.7026   24.0789 O   0  0  0  0  0  0  0  0  0  0  0  0
    9.8717  -13.2291   26.9486 N   0  0  0  0  0  0  0  0  0  0  0  0
    9.3189  -14.2432   27.7942 C   0  0  0  0  0  0  0  0  0  0  0  0
    8.8004  -13.8781   28.8770 O   0  0  0  0  0  0  0  0  0  0  0  0
    9.3874  -15.6569   27.3509 C   0  0  0  0  0  0  0  0  0  0  0  0
   10.0369  -15.7984   26.0064 C   0  0  2  0  0  0  0  0  0  0  0  0
    9.0906  -15.7061   24.9096 N   0  0  0  0  0  0  0  0  0  0  0  0
   10.7895  -17.0743   25.8941 C   0  0  0  0  0  0  0  0  0  0  0  0
   11.9043  -17.3485   26.6847 O   0  0  0  0  0  0  0  0  0  0  0  0
   10.4519  -17.9679   25.0761 O   0  0  0  0  0  0  0  0  0  0  0  0
  2  1  1  0
  3  2  1  0
  4  3  2  0
  6  5  1  1
  6  7  1  0
  7  3  1  0
  8  9  2  0
  8  6  1  0
 11 10  1  0
 11 13  1  0
 12 11  2  0
 14 13  1  1
 14 15  1  0
 15  8  1  0
 16 14  1  0
 17 16  1  0
 18 16  2  0
M  END
$$$$
