GAN.pdb
     RDKit          3D

 18 17  0  0  1  0  0  0  0  0999 V2000
    3.7446  -26.5293   21.6480 N   0  0  0  0  0  0  0  0  0  0  0  0
    3.5129  -25.4120   22.5025 C   0  0  0  0  0  0  0  0  0  0  0  0
    4.5740  -24.3897   22.4561 C   0  0  0  0  0  0  0  0  0  0  0  0
    5.6257  -24.6725   21.8253 O   0  0  0  0  0  0  0  0  0  0  0  0
    4.9385  -20.7973   23.4255 C   0  0  0  0  0  0  0  0  0  0  0  0
    5.4848  -22.1761   23.0259 C   0  0  2  0  0  0  0  0  0  0  0  0
    4.4118  -23.1357   23.0994 N   0  0  0  0  0  0  0  0  0  0  0  0
    6.5888  -22.4676   23.9382 C   0  0  0  0  0  0  0  0  0  0  0  0
    7.3903  -21.5549   24.2509 O   0  0  0  0  0  0  0  0  0  0  0  0
    9.3292  -24.2097   28.2770 N   0  0  0  0  0  0  0  0  0  0  0  0
    8.9282  -23.1515   27.4004 C   0  0  0  0  0  0  0  0  0  0  0  0
    9.7037  -22.1727   27.2781 O   0  0  0  0  0  0  0  0  0  0  0  0
    7.6310  -23.2663   26.6904 C   0  0  0  0  0  0  0  0  0  0  0  0
    7.7329  -24.1148   25.4578 C   0  0  2  0  0  0  0  0  0  0  0  0
    6.7377  -23.7777   24.4564 N   0  0  0  0  0  0  0  0  0  0  0  0
    7.6294  -25.5614   25.7795 C   0  0  0  0  0  0  0  0  0  0  0  0
    8.6886  -26.4437   25.5726 O   0  0  0  0  0  0  0  0  0  0  0  0
    6.5756  -26.0562   26.2553 O   0  0  0  0  0  0  0  0  0  0  0  0
  2  1  1  0
  3  2  1  0
  4  3  2  0
  6  5  1  1
  6  7  1  0
  7  3  1  0
  8  9  2  0
  8  6  1  0
 11 10  1  0
 11 13  1  0
 12 11  2  0
 14 13  1  1
 14 15  1  0
 15  8  1  0
 16 14  1  0
 17 16  1  0
 18 16  2  0
M  END
$$$$
