GAN.pdb
     RDKit          3D

 18 17  0  0  1  0  0  0  0  0999 V2000
    6.3116  -18.2776   22.9384 N   0  0  0  0  0  0  0  0  0  0  0  0
    6.0314  -17.5289   24.1187 C   0  0  0  0  0  0  0  0  0  0  0  0
    6.6939  -16.2129   24.1670 C   0  0  0  0  0  0  0  0  0  0  0  0
    7.6002  -15.9876   23.3234 O   0  0  0  0  0  0  0  0  0  0  0  0
    6.2975  -13.0077   26.0620 C   0  0  0  0  0  0  0  0  0  0  0  0
    7.0788  -14.0161   25.2065 C   0  0  2  0  0  0  0  0  0  0  0  0
    6.3210  -15.2398   25.1297 N   0  0  0  0  0  0  0  0  0  0  0  0
    8.3843  -14.1800   25.8431 C   0  0  0  0  0  0  0  0  0  0  0  0
    9.1304  -13.1826   25.9898 O   0  0  0  0  0  0  0  0  0  0  0  0
   10.7320  -13.2715   28.0552 N   0  0  0  0  0  0  0  0  0  0  0  0
   10.2801  -14.2661   28.9803 C   0  0  0  0  0  0  0  0  0  0  0  0
   10.2116  -13.9451   30.1914 O   0  0  0  0  0  0  0  0  0  0  0  0
    9.9205  -15.6093   28.4642 C   0  0  0  0  0  0  0  0  0  0  0  0
   10.0458  -15.6953   26.9720 C   0  0  2  0  0  0  0  0  0  0  0  0
    8.7880  -15.4638   26.2855 N   0  0  0  0  0  0  0  0  0  0  0  0
   10.6002  -17.0055   26.5443 C   0  0  0  0  0  0  0  0  0  0  0  0
    9.9120  -17.8537   25.6783 O   0  0  0  0  0  0  0  0  0  0  0  0
   11.7211  -17.4091   26.9473 O   0  0  0  0  0  0  0  0  0  0  0  0
  2  1  1  0
  3  2  1  0
  4  3  2  0
  6  5  1  1
  6  7  1  0
  7  3  1  0
  8  9  2  0
  8  6  1  0
 11 10  1  0
 11 13  1  0
 12 11  2  0
 14 13  1  1
 14 15  1  0
 15  8  1  0
 16 14  1  0
 17 16  1  0
 18 16  2  0
M  END
$$$$
