GAN.pdb
     RDKit          3D

 18 17  0  0  1  0  0  0  0  0999 V2000
   -5.2465  -25.8686   25.1814 N   0  0  0  0  0  0  0  0  0  0  0  0
   -4.0322  -25.1255   25.1074 C   0  0  0  0  0  0  0  0  0  0  0  0
   -3.6971  -24.3971   26.3444 C   0  0  0  0  0  0  0  0  0  0  0  0
   -3.0703  -25.0255   27.2368 O   0  0  0  0  0  0  0  0  0  0  0  0
   -3.6166  -20.8885   27.5298 C   0  0  0  0  0  0  0  0  0  0  0  0
   -3.7748  -22.3965   27.7749 C   0  0  2  0  0  0  0  0  0  0  0  0
   -4.0688  -23.0391   26.5186 N   0  0  0  0  0  0  0  0  0  0  0  0
   -4.8364  -22.5485   28.7679 C   0  0  0  0  0  0  0  0  0  0  0  0
   -4.6304  -22.1928   29.9529 O   0  0  0  0  0  0  0  0  0  0  0  0
   -9.2512  -23.7680   31.0396 N   0  0  0  0  0  0  0  0  0  0  0  0
   -8.0220  -24.4463   31.3190 C   0  0  0  0  0  0  0  0  0  0  0  0
   -7.9801  -25.1770   32.3383 O   0  0  0  0  0  0  0  0  0  0  0  0
   -6.8749  -24.2518   30.3991 C   0  0  0  0  0  0  0  0  0  0  0  0
   -7.1852  -23.2735   29.3054 C   0  0  2  0  0  0  0  0  0  0  0  0
   -6.0833  -23.0958   28.3774 N   0  0  0  0  0  0  0  0  0  0  0  0
   -7.5802  -21.9497   29.8516 C   0  0  0  0  0  0  0  0  0  0  0  0
   -8.7566  -21.7691   30.5773 O   0  0  0  0  0  0  0  0  0  0  0  0
   -6.8665  -20.9281   29.6821 O   0  0  0  0  0  0  0  0  0  0  0  0
  2  1  1  0
  3  2  1  0
  4  3  2  0
  6  5  1  6
  6  7  1  0
  7  3  1  0
  8  9  2  0
  8  6  1  0
 11 10  1  0
 11 13  1  0
 12 11  2  0
 14 13  1  1
 14 15  1  0
 15  8  1  0
 16 14  1  0
 17 16  1  0
 18 16  2  0
M  END
$$$$
