GAN.pdb
     RDKit          3D

 18 17  0  0  1  0  0  0  0  0999 V2000
    6.2995  -18.4027   18.3834 N   0  0  0  0  0  0  0  0  0  0  0  0
    6.1040  -17.2649   19.2196 C   0  0  0  0  0  0  0  0  0  0  0  0
    7.0637  -16.1717   18.9810 C   0  0  0  0  0  0  0  0  0  0  0  0
    8.0973  -16.4412   18.3154 O   0  0  0  0  0  0  0  0  0  0  0  0
    7.3241  -12.5184   19.7876 C   0  0  0  0  0  0  0  0  0  0  0  0
    7.8933  -13.8980   19.4244 C   0  0  2  0  0  0  0  0  0  0  0  0
    6.8274  -14.8665   19.4842 N   0  0  0  0  0  0  0  0  0  0  0  0
    8.9750  -14.1650   20.3704 C   0  0  0  0  0  0  0  0  0  0  0  0
   10.0354  -13.4987   20.3015 O   0  0  0  0  0  0  0  0  0  0  0  0
    9.9980  -15.9912   26.0974 N   0  0  0  0  0  0  0  0  0  0  0  0
   10.3728  -15.7670   24.7342 C   0  0  0  0  0  0  0  0  0  0  0  0
   11.5932  -15.8300   24.4491 O   0  0  0  0  0  0  0  0  0  0  0  0
    9.3106  -15.4752   23.7411 C   0  0  0  0  0  0  0  0  0  0  0  0
    9.8320  -15.4834   22.3347 C   0  0  2  0  0  0  0  0  0  0  0  0
    8.8100  -15.1732   21.3518 N   0  0  0  0  0  0  0  0  0  0  0  0
   10.4586  -16.7857   21.9913 C   0  0  0  0  0  0  0  0  0  0  0  0
   11.8205  -17.0226   22.1714 O   0  0  0  0  0  0  0  0  0  0  0  0
    9.7841  -17.7370   21.5205 O   0  0  0  0  0  0  0  0  0  0  0  0
  2  1  1  0
  3  2  1  0
  4  3  2  0
  6  5  1  1
  6  7  1  0
  7  3  1  0
  8  9  2  0
  8  6  1  0
 11 10  1  0
 11 13  1  0
 12 11  2  0
 14 13  1  1
 14 15  1  0
 15  8  1  0
 16 14  1  0
 17 16  1  0
 18 16  2  0
M  END
$$$$
